0:0
     RDKit          3D

 55 58  0  0  0  0  0  0  0  0999 V2000
   61.5950   34.5840   48.4170 C   0  0  0  0  0  0  0  0  0  0  0  0
   60.0930   34.3480   48.6560 C   0  0  2  0  0  0  0  0  0  0  0  0
   59.8680   33.2810   49.6330 N   0  0  0  0  0  0  0  0  0  0  0  0
   60.8160   32.7920   50.5950 C   0  0  0  0  0  0  0  0  0  0  0  0
   61.0580   33.4470   51.6470 O   0  0  0  0  0  0  0  0  0  0  0  0
   61.4940   31.4710   50.3450 C   0  0  2  0  0  0  0  0  0  0  0  0
   62.8620   31.6680   49.6840 C   0  0  0  0  0  0  0  0  0  0  0  0
   62.6580   31.3130   48.2160 C   0  0  0  0  0  0  0  0  0  0  0  0
   61.4870   30.3290   48.2050 C   0  0  2  0  0  0  0  0  0  0  0  0
   60.6740   30.3970   46.8830 C   0  0  0  0  0  0  0  0  0  0  0  0
   59.2040   29.9670   47.0010 C   0  0  0  0  0  0  0  0  0  0  0  0
   59.0330   28.7200   47.7710 N   0  0  0  0  0  0  0  0  0  0  0  0
   58.7020   27.5180   47.0510 C   0  0  0  0  0  0  0  0  0  0  0  0
   58.5180   26.4430   47.6850 O   0  0  0  0  0  0  0  0  0  0  0  0
   58.5680   27.5170   45.5530 C   0  0  0  0  0  0  0  0  0  0  0  0
   57.4640   28.4340   45.1210 C   0  0  0  0  0  0  0  0  0  0  0  0
   57.6660   29.6560   44.5940 N   0  0  0  0  0  0  0  0  0  0  0  0
   56.4130   30.1300   44.4240 C   0  0  0  0  0  0  0  0  0  0  0  0
   56.1770   31.2630   43.9310 O   0  0  0  0  0  0  0  0  0  0  0  0
   55.4290   29.2930   44.8240 N   0  0  0  0  0  0  0  0  0  0  0  0
   56.1140   28.2270   45.2700 C   0  0  0  0  0  0  0  0  0  0  0  0
   55.5190   27.1000   45.8190 O   0  0  0  0  0  0  0  0  0  0  0  0
   59.0680   28.7120   49.2440 C   0  0  0  0  0  0  0  0  0  0  0  0
   59.4530   30.0660   49.7560 C   0  0  0  0  0  0  0  0  0  0  0  0
   58.6280   30.7290   50.4420 O   0  0  0  0  0  0  0  0  0  0  0  0
   60.7290   30.6400   49.4170 N   0  0  0  0  0  0  0  0  0  0  0  0
   59.2830   34.1000   47.3940 C   0  0  0  0  0  0  0  0  0  0  0  0
   59.6400   34.7840   46.2160 C   0  0  0  0  0  0  0  0  0  0  0  0
   58.9020   34.6090   45.0400 C   0  0  0  0  0  0  0  0  0  0  0  0
   57.7940   33.7590   45.0280 C   0  0  0  0  0  0  0  0  0  0  0  0
   57.4140   33.0930   46.1950 C   0  0  0  0  0  0  0  0  0  0  0  0
   58.1500   33.2610   47.3730 C   0  0  0  0  0  0  0  0  0  0  0  0
   62.1119   34.6652   49.3846 H   0  0  0  0  0  0  0  0  0  0  0  0
   62.0127   33.7405   47.8478 H   0  0  0  0  0  0  0  0  0  0  0  0
   61.7339   35.5150   47.8478 H   0  0  0  0  0  0  0  0  0  0  0  0
   59.7207   35.2986   49.0656 H   0  0  0  0  0  0  0  0  0  0  0  0
   61.5824   30.9918   51.3312 H   0  0  0  0  0  0  0  0  0  0  0  0
   63.1912   32.7127   49.7850 H   0  0  0  0  0  0  0  0  0  0  0  0
   63.6361   31.0421   50.1521 H   0  0  0  0  0  0  0  0  0  0  0  0
   62.4129   32.2120   47.6314 H   0  0  0  0  0  0  0  0  0  0  0  0
   63.5641   30.8815   47.7657 H   0  0  0  0  0  0  0  0  0  0  0  0
   61.8095   29.2775   48.2229 H   0  0  0  0  0  0  0  0  0  0  0  0
   60.6976   31.4355   46.5211 H   0  0  0  0  0  0  0  0  0  0  0  0
   61.1484   29.6829   46.1937 H   0  0  0  0  0  0  0  0  0  0  0  0
   58.6423   30.7692   47.5020 H   0  0  0  0  0  0  0  0  0  0  0  0
   58.8305   29.7815   45.9831 H   0  0  0  0  0  0  0  0  0  0  0  0
   59.5143   27.8547   45.1053 H   0  0  0  0  0  0  0  0  0  0  0  0
   58.3317   26.4959   45.2190 H   0  0  0  0  0  0  0  0  0  0  0  0
   58.0730   28.4461   49.6303 H   0  0  0  0  0  0  0  0  0  0  0  0
   59.8100   27.9740   49.5830 H   0  0  0  0  0  0  0  0  0  0  0  0
   60.5064   35.4617   46.2203 H   0  0  0  0  0  0  0  0  0  0  0  0
   59.1951   35.1419   44.1234 H   0  0  0  0  0  0  0  0  0  0  0  0
   57.2212   33.6143   44.1001 H   0  0  0  0  0  0  0  0  0  0  0  0
   56.5332   32.4341   46.1882 H   0  0  0  0  0  0  0  0  0  0  0  0
   57.8427   32.7350   48.2889 H   0  0  0  0  0  0  0  0  0  0  0  0
  1  2  1  0
  2  3  1  0
  3  4  1  0
  4  5  2  0
  4  6  1  0
  6  7  1  0
  7  8  1  0
  8  9  1  0
  9 10  1  0
 10 11  1  0
 11 12  1  0
 12 13  1  0
 13 14  2  0
 13 15  1  0
 15 16  1  0
 16 17  1  0
 17 18  1  0
 18 19  2  0
 18 20  1  0
 20 21  1  0
 21 22  1  0
 12 23  1  0
 23 24  1  0
 24 25  2  0
 24 26  1  0
  2 27  1  0
 27 28  2  0
 28 29  1  0
 29 30  2  0
 30 31  1  0
 31 32  2  0
 26  6  1  0
 32 27  1  0
 26  9  1  0
 21 16  2  0
  1 33  1  0
  1 34  1  0
  1 35  1  0
  2 36  1  1
  6 37  1  1
  7 38  1  0
  7 39  1  0
  8 40  1  0
  8 41  1  0
  9 42  1  1
 10 43  1  0
 10 44  1  0
 11 45  1  0
 11 46  1  0
 15 47  1  0
 15 48  1  0
 23 49  1  0
 23 50  1  0
 28 51  1  0
 29 52  1  0
 30 53  1  0
 31 54  1  0
 32 55  1  0
M  CHG  4   3  -1  17  -1  20  -1  22  -1
M  END
>  <UniqueID>  (1) 
1

>  <SMILES>  (1) 
C[C@H]([N-]C(=O)[C@@H]1CCC2CCN(C(=O)Cc3[n-]c(=O)[n-]c3[O-])CC(=O)N21)c1ccccc1

>  <Energy>  (1) 
95.3622210943747

>  <Genealogy>  (1) 
CC([N-]C(=O)C1CCC2CCN(C(=O)Cc3[n-]c(=O)[n-]c3[O-])CC(=O)N21)c1ccccc1 (protonated)
C[C@H]([N-]C(=O)[C@@H]1CCC2CCN(C(=O)Cc3[n-]c(=O)[n-]c3[O-])CC(=O)N21)c1ccccc1 (chirality)
C[C@H]([N-]C(=O)[C@@H]1CCC2CCN(C(=O)Cc3[n-]c(=O)[n-]c3[O-])CC(=O)N21)c1ccccc1 (3D coordinates assigned)
C[C@H]([N-]C(=O)[C@@H]1CCC2CCN(C(=O)Cc3[n-]c(=O)[n-]c3[O-])CC(=O)N21)c1ccccc1 (nonaromatic ring conformer: 95.3622210943747 kcal/mol)

>  <smiles>  (1) 
CC(NC(=O)C1CCC2CCN(C(=O)Cc3[nH]c(=O)[nH]c3O)CC(=O)N21)c1ccccc1

>  <score_type>  (1) 
oracle

>  <origin>  (1) 
adg

>  <m_score__min__energy>  (1) 
-14.539999999999999

>  <m_primary>  (1) 
energy

$$$$
1:0
     RDKit          3D

 53 55  0  0  0  0  0  0  0  0999 V2000
   56.1760   20.8500   48.3680 C   0  0  0  0  0  0  0  0  0  0  0  0
   56.6220   21.9190   47.4130 C   0  0  0  0  0  0  0  0  0  0  0  0
   56.3510   23.2700   47.6860 C   0  0  0  0  0  0  0  0  0  0  0  0
   56.7470   24.2630   46.7850 C   0  0  0  0  0  0  0  0  0  0  0  0
   57.4120   23.9190   45.5960 C   0  0  0  0  0  0  0  0  0  0  0  0
   57.8590   24.9860   44.6340 C   0  0  0  0  0  0  0  0  0  0  0  0
   57.2530   26.2710   44.9760 N   0  0  0  0  0  0  0  0  0  0  0  0
   57.9260   27.2450   45.7870 C   0  0  0  0  0  0  0  0  0  0  0  0
   58.9690   26.9290   46.4270 O   0  0  0  0  0  0  0  0  0  0  0  0
   57.3980   28.6470   45.8800 C   0  0  0  0  0  0  0  0  0  0  0  0
   56.0890   28.7510   45.2440 N   0  0  0  0  0  0  0  0  0  0  0  0
   55.7720   29.6240   44.1490 C   0  0  0  0  0  0  0  0  0  0  0  0
   54.7210   29.4260   43.4830 O   0  0  0  0  0  0  0  0  0  0  0  0
   56.6570   30.7310   43.7700 C   0  0  0  0  0  0  0  0  0  0  0  0
   56.9820   30.9350   42.4210 C   0  0  0  0  0  0  0  0  0  0  0  0
   57.8310   31.9860   42.0590 C   0  0  0  0  0  0  0  0  0  0  0  0
   58.3370   32.8510   43.0370 C   0  0  0  0  0  0  0  0  0  0  0  0
   58.0040   32.6590   44.3860 C   0  0  0  0  0  0  0  0  0  0  0  0
   58.6180   33.7660   45.6120 S   0  0  0  0  0  0  0  0  0  0  0  0
   57.4800   34.5630   46.1870 O   0  0  0  0  0  0  0  0  0  0  0  0
   59.5890   34.7190   44.9700 O   0  0  0  0  0  0  0  0  0  0  0  0
   59.4370   32.8660   46.8680 N   0  0  0  0  0  0  0  0  0  0  0  0
   59.8940   31.5640   46.3840 C   0  0  0  0  0  0  0  0  0  0  0  0
   59.9980   30.6730   47.6090 C   0  0  0  0  0  0  0  0  0  0  0  0
   59.0150   31.2690   48.6100 C   0  0  0  0  0  0  0  0  0  0  0  0
   58.5290   32.5690   47.9780 C   0  0  0  0  0  0  0  0  0  0  0  0
   57.1760   31.5880   44.7520 C   0  0  0  0  0  0  0  0  0  0  0  0
   57.6560   22.5660   45.3110 C   0  0  0  0  0  0  0  0  0  0  0  0
   57.2580   21.5720   46.2110 C   0  0  0  0  0  0  0  0  0  0  0  0
   56.3211   21.1978   49.4014 H   0  0  0  0  0  0  0  0  0  0  0  0
   55.1112   20.6303   48.2012 H   0  0  0  0  0  0  0  0  0  0  0  0
   56.7689   19.9386   48.2012 H   0  0  0  0  0  0  0  0  0  0  0  0
   55.8255   23.5476   48.6117 H   0  0  0  0  0  0  0  0  0  0  0  0
   56.5368   25.3194   47.0082 H   0  0  0  0  0  0  0  0  0  0  0  0
   58.9541   25.0788   44.6798 H   0  0  0  0  0  0  0  0  0  0  0  0
   57.5441   24.7036   43.6186 H   0  0  0  0  0  0  0  0  0  0  0  0
   56.3460   26.5340   44.5210 H   0  0  0  0  0  0  0  0  0  0  0  0
   57.3076   28.9288   46.9395 H   0  0  0  0  0  0  0  0  0  0  0  0
   58.0960   29.3216   45.3626 H   0  0  0  0  0  0  0  0  0  0  0  0
   56.5697   30.2692   41.6485 H   0  0  0  0  0  0  0  0  0  0  0  0
   58.1019   32.1334   41.0031 H   0  0  0  0  0  0  0  0  0  0  0  0
   58.9965   33.6822   42.7470 H   0  0  0  0  0  0  0  0  0  0  0  0
   59.1699   31.1468   45.6687 H   0  0  0  0  0  0  0  0  0  0  0  0
   60.8591   31.6450   45.8625 H   0  0  0  0  0  0  0  0  0  0  0  0
   59.7183   29.6386   47.3604 H   0  0  0  0  0  0  0  0  0  0  0  0
   61.0226   30.6333   48.0072 H   0  0  0  0  0  0  0  0  0  0  0  0
   58.1713   30.5829   48.7755 H   0  0  0  0  0  0  0  0  0  0  0  0
   59.4842   31.4417   49.5898 H   0  0  0  0  0  0  0  0  0  0  0  0
   57.5015   32.4474   47.6044 H   0  0  0  0  0  0  0  0  0  0  0  0
   58.5240   33.3872   48.7132 H   0  0  0  0  0  0  0  0  0  0  0  0
   56.9329   31.4195   45.8115 H   0  0  0  0  0  0  0  0  0  0  0  0
   58.1626   22.2864   44.3755 H   0  0  0  0  0  0  0  0  0  0  0  0
   57.4443   20.5137   45.9757 H   0  0  0  0  0  0  0  0  0  0  0  0
  1  2  1  0
  2  3  2  0
  3  4  1  0
  4  5  2  0
  5  6  1  0
  6  7  1  0
  7  8  1  0
  8  9  2  0
  8 10  1  0
 10 11  1  0
 11 12  1  0
 12 13  2  0
 12 14  1  0
 14 15  2  0
 15 16  1  0
 16 17  2  0
 17 18  1  0
 18 19  1  0
 19 20  2  0
 19 21  2  0
 19 22  1  0
 22 23  1  0
 23 24  1  0
 24 25  1  0
 25 26  1  0
 18 27  2  0
  5 28  1  0
 28 29  2  0
 29  2  1  0
 27 14  1  0
 26 22  1  0
  1 30  1  0
  1 31  1  0
  1 32  1  0
  3 33  1  0
  4 34  1  0
  6 35  1  0
  6 36  1  0
  7 37  1  0
 10 38  1  0
 10 39  1  0
 15 40  1  0
 16 41  1  0
 17 42  1  0
 23 43  1  0
 23 44  1  0
 24 45  1  0
 24 46  1  0
 25 47  1  0
 25 48  1  0
 26 49  1  0
 26 50  1  0
 27 51  1  0
 28 52  1  0
 29 53  1  0
M  CHG  1  11  -1
M  END
>  <UniqueID>  (2) 
2

>  <SMILES>  (2) 
Cc1ccc(CNC(=O)C[N-]C(=O)c2cccc(S(=O)(=O)N3CCCC3)c2)cc1

>  <Energy>  (2) 
53.20460907641117

>  <Genealogy>  (2) 
Cc1ccc(CNC(=O)C[N-]C(=O)c2cccc(S(=O)(=O)N3CCCC3)c2)cc1 (protonated)
Cc1ccc(CNC(=O)C[N-]C(=O)c2cccc(S(=O)(=O)N3CCCC3)c2)cc1 (3D coordinates assigned)
Cc1ccc(CNC(=O)C[N-]C(=O)c2cccc(S(=O)(=O)N3CCCC3)c2)cc1 (nonaromatic ring conformer: 53.20460907641117 kcal/mol)

>  <smiles>  (2) 
Cc1ccc(CNC(=O)CNC(=O)c2cccc(S(=O)(=O)N3CCCC3)c2)cc1

>  <score_type>  (2) 
oracle

>  <origin>  (2) 
adg

>  <m_score__min__energy>  (2) 
-10.76

>  <m_primary>  (2) 
energy

$$$$
2:0
     RDKit          3D

 57 60  0  0  0  0  0  0  0  0999 V2000
   55.1520   29.6260   44.8250 N   0  0  0  0  0  0  0  0  0  0  0  0
   56.5930   30.1160   44.0060 S   0  0  0  0  0  0  0  0  0  0  0  0
   57.4880   28.9190   43.8370 O   0  0  0  0  0  0  0  0  0  0  0  0
   56.2410   30.6630   42.6520 O   0  0  0  0  0  0  0  0  0  0  0  0
   57.4050   31.3620   44.9460 C   0  0  0  0  0  0  0  0  0  0  0  0
   58.7070   31.1700   45.4250 C   0  0  0  0  0  0  0  0  0  0  0  0
   59.3310   32.1630   46.1870 C   0  0  0  0  0  0  0  0  0  0  0  0
   58.6620   33.3640   46.4660 C   0  0  0  0  0  0  0  0  0  0  0  0
   59.2930   34.4080   47.3410 C   0  0  0  0  0  0  0  0  0  0  0  0
   59.7310   33.7980   48.5930 N   0  0  0  0  0  0  0  0  0  0  0  0
   58.8810   32.9560   49.3730 C   0  0  0  0  0  0  0  0  0  0  0  0
   58.1340   32.1220   48.7970 O   0  0  0  0  0  0  0  0  0  0  0  0
   58.8080   33.0850   50.8410 C   0  0  0  0  0  0  0  0  0  0  0  0
   59.5050   34.0330   51.4960 N   0  0  0  0  0  0  0  0  0  0  0  0
   59.2480   33.8030   52.7980 C   0  0  0  0  0  0  0  0  0  0  0  0
   58.4190   32.7620   53.0070 N   0  0  0  0  0  0  0  0  0  0  0  0
   58.1300   32.3050   51.7750 C   0  0  0  0  0  0  0  0  0  0  0  0
   57.1730   31.2020   51.5700 C   0  0  0  0  0  0  0  0  0  0  0  0
   55.9390   31.4610   51.5650 O   0  0  0  0  0  0  0  0  0  0  0  0
   57.6170   29.8710   51.3020 N   0  0  0  0  0  0  0  0  0  0  0  0
   59.0260   29.4930   51.2210 C   0  0  0  0  0  0  0  0  0  0  0  0
   59.5330   29.4960   49.7990 C   0  0  0  0  0  0  0  0  0  0  0  0
   60.6540   30.2690   49.4640 C   0  0  0  0  0  0  0  0  0  0  0  0
   61.1660   30.2430   48.1640 C   0  0  0  0  0  0  0  0  0  0  0  0
   60.5750   29.4340   47.1910 C   0  0  0  0  0  0  0  0  0  0  0  0
   59.4590   28.6440   47.5080 C   0  0  0  0  0  0  0  0  0  0  0  0
   58.8560   27.7600   46.4820 C   0  0  0  0  0  0  0  0  0  0  0  0
   59.5450   27.4140   45.4860 O   0  0  0  0  0  0  0  0  0  0  0  0
   57.5290   27.2280   46.6130 N   0  0  0  0  0  0  0  0  0  0  0  0
   57.1070   25.9000   46.2690 C   0  0  0  0  0  0  0  0  0  0  0  0
   58.0090   24.8200   46.2640 C   0  0  0  0  0  0  0  0  0  0  0  0
   57.5590   23.5290   45.9740 C   0  0  0  0  0  0  0  0  0  0  0  0
   56.2090   23.3020   45.6990 C   0  0  0  0  0  0  0  0  0  0  0  0
   55.3070   24.3690   45.7040 C   0  0  0  0  0  0  0  0  0  0  0  0
   55.7500   25.6630   45.9990 C   0  0  0  0  0  0  0  0  0  0  0  0
   54.8370   26.7120   46.0160 O   0  0  0  0  0  0  0  0  0  0  0  0
   58.9530   28.6720   48.8180 C   0  0  0  0  0  0  0  0  0  0  0  0
   57.3640   33.5580   45.9730 C   0  0  0  0  0  0  0  0  0  0  0  0
   56.7390   32.5620   45.2180 C   0  0  0  0  0  0  0  0  0  0  0  0
   55.1440   28.5820   44.8220 H   0  0  0  0  0  0  0  0  0  0  0  0
   59.2408   30.2347   45.2010 H   0  0  0  0  0  0  0  0  0  0  0  0
   60.3499   32.0017   46.5689 H   0  0  0  0  0  0  0  0  0  0  0  0
   60.1600   34.8443   46.8233 H   0  0  0  0  0  0  0  0  0  0  0  0
   58.5576   35.1971   47.5567 H   0  0  0  0  0  0  0  0  0  0  0  0
   59.6741   34.4072   53.6125 H   0  0  0  0  0  0  0  0  0  0  0  0
   59.6195   30.2071   51.8108 H   0  0  0  0  0  0  0  0  0  0  0  0
   59.1260   28.4707   51.6146 H   0  0  0  0  0  0  0  0  0  0  0  0
   61.1327   30.8989   50.2283 H   0  0  0  0  0  0  0  0  0  0  0  0
   62.0379   30.8621   47.9061 H   0  0  0  0  0  0  0  0  0  0  0  0
   60.9863   29.4158   46.1709 H   0  0  0  0  0  0  0  0  0  0  0  0
   59.0718   24.9924   46.4891 H   0  0  0  0  0  0  0  0  0  0  0  0
   58.2700   22.6898   45.9624 H   0  0  0  0  0  0  0  0  0  0  0  0
   55.8559   22.2838   45.4786 H   0  0  0  0  0  0  0  0  0  0  0  0
   54.2458   24.1913   45.4754 H   0  0  0  0  0  0  0  0  0  0  0  0
   58.0912   28.0407   49.0802 H   0  0  0  0  0  0  0  0  0  0  0  0
   56.8347   34.4994   46.1817 H   0  0  0  0  0  0  0  0  0  0  0  0
   55.7199   32.7220   44.8362 H   0  0  0  0  0  0  0  0  0  0  0  0
  1  2  1  0
  2  3  2  0
  2  4  2  0
  2  5  1  0
  5  6  2  0
  6  7  1  0
  7  8  2  0
  8  9  1  0
  9 10  1  0
 10 11  1  0
 11 12  2  0
 11 13  1  0
 13 14  1  0
 14 15  2  0
 15 16  1  0
 16 17  1  0
 17 18  1  0
 18 19  2  0
 18 20  1  0
 20 21  1  0
 21 22  1  0
 22 23  2  0
 23 24  1  0
 24 25  2  0
 25 26  1  0
 26 27  1  0
 27 28  2  0
 27 29  1  0
 29 30  1  0
 30 31  2  0
 31 32  1  0
 32 33  2  0
 33 34  1  0
 34 35  2  0
 35 36  1  0
 26 37  2  0
  8 38  1  0
 38 39  2  0
 39  5  1  0
 17 13  2  0
 37 22  1  0
 35 30  1  0
  1 40  1  0
  6 41  1  0
  7 42  1  0
  9 43  1  0
  9 44  1  0
 15 45  1  0
 21 46  1  0
 21 47  1  0
 23 48  1  0
 24 49  1  0
 25 50  1  0
 31 51  1  0
 32 52  1  0
 33 53  1  0
 34 54  1  0
 37 55  1  0
 38 56  1  0
 39 57  1  0
M  CHG  6   1  -1  10  -1  16  -1  20  -1  29  -1  36  -1
M  END
>  <UniqueID>  (3) 
3

>  <SMILES>  (3) 
[NH-]S(=O)(=O)c1ccc(C[N-]C(=O)c2nc[n-]c2C(=O)[N-]Cc2cccc(C(=O)[N-]c3ccccc3[O-])c2)cc1

>  <Energy>  (3) 
82.39425620403279

>  <Genealogy>  (3) 
[NH-]S(=O)(=O)c1ccc(C[N-]C(=O)c2nc[n-]c2C(=O)[N-]Cc2cccc(C(=O)[N-]c3ccccc3[O-])c2)cc1 (protonated)
[NH-]S(=O)(=O)c1ccc(C[N-]C(=O)c2nc[n-]c2C(=O)[N-]Cc2cccc(C(=O)[N-]c3ccccc3[O-])c2)cc1 (3D coordinates assigned)
[NH-]S(=O)(=O)c1ccc(C[N-]C(=O)c2nc[n-]c2C(=O)[N-]Cc2cccc(C(=O)[N-]c3ccccc3[O-])c2)cc1 (optimized conformer: 82.39425620403279 kcal/mol)

>  <smiles>  (3) 
NS(=O)(=O)c1ccc(CNC(=O)c2nc[nH]c2C(=O)NCc2cccc(C(=O)Nc3ccccc3O)c2)cc1

>  <score_type>  (3) 
oracle

>  <origin>  (3) 
adg

>  <m_score__min__energy>  (3) 
-21.82

>  <m_primary>  (3) 
energy

$$$$
3:0
     RDKit          3D

 38 40  0  0  0  0  0  0  0  0999 V2000
   60.9210   31.2350   48.3590 H   0  0  0  0  0  0  0  0  0  0  0  0
   59.9210   31.1770   48.2080 O   0  0  0  0  0  0  0  0  0  0  0  0
   59.3260   31.2010   46.9430 C   0  0  0  0  0  0  0  0  0  0  0  0
   59.0130   29.9700   46.3120 C   0  0  0  0  0  0  0  0  0  0  0  0
   59.8430   28.8750   46.6610 C   0  0  0  0  0  0  0  0  0  0  0  0
   60.7053   29.0525   47.3204 H   0  0  0  0  0  0  0  0  0  0  0  0
   59.6070   27.5880   46.2010 C   0  0  0  0  0  0  0  0  0  0  0  0
   60.2814   26.7699   46.4943 H   0  0  0  0  0  0  0  0  0  0  0  0
   58.5210   27.3260   45.3700 C   0  0  0  0  0  0  0  0  0  0  0  0
   58.2280   25.9650   44.8510 C   0  0  0  0  0  0  0  0  0  0  0  0
   59.0343   25.4190   44.3394 H   0  0  0  0  0  0  0  0  0  0  0  0
   57.0350   25.3660   44.9720 C   0  0  0  0  0  0  0  0  0  0  0  0
   56.7155   24.6558   44.1952 H   0  0  0  0  0  0  0  0  0  0  0  0
   56.1380   25.6270   46.1100 C   0  0  0  0  0  0  0  0  0  0  0  0
   56.3620   25.1724   47.0863 H   0  0  0  0  0  0  0  0  0  0  0  0
   55.1200   26.3590   45.9910 O   0  0  0  0  0  0  0  0  0  0  0  0
   57.7150   28.3930   44.9640 C   0  0  0  0  0  0  0  0  0  0  0  0
   56.8744   28.1895   44.2843 H   0  0  0  0  0  0  0  0  0  0  0  0
   57.9360   29.7320   45.3930 C   0  0  0  0  0  0  0  0  0  0  0  0
   57.0270   30.7040   44.8900 C   0  0  0  0  0  0  0  0  0  0  0  0
   55.9600   30.3100   44.3440 O   0  0  0  0  0  0  0  0  0  0  0  0
   57.2380   32.0370   44.8630 N   0  0  0  0  0  0  0  0  0  0  0  0
   58.2050   32.7980   45.4010 C   0  0  0  0  0  0  0  0  0  0  0  0
   58.2850   34.1550   45.1810 C   0  0  0  0  0  0  0  0  0  0  0  0
   57.6784   34.7485   44.4811 H   0  0  0  0  0  0  0  0  0  0  0  0
   59.2750   34.6170   46.0120 C   0  0  0  0  0  0  0  0  0  0  0  0
   59.6095   35.6632   46.0714 H   0  0  0  0  0  0  0  0  0  0  0  0
   59.7790   33.6020   46.7460 N   0  0  0  0  0  0  0  0  0  0  0  0
   60.9310   33.7600   47.6440 C   0  0  0  0  0  0  0  0  0  0  0  0
   60.6992   33.2965   48.6143 H   0  0  0  0  0  0  0  0  0  0  0  0
   61.1348   34.8331   47.7738 H   0  0  0  0  0  0  0  0  0  0  0  0
   62.1530   33.1010   47.0600 C   0  0  0  0  0  0  0  0  0  0  0  0
   62.2650   31.8850   47.1180 O   0  0  0  0  0  0  0  0  0  0  0  0
   63.2310   33.9000   46.3890 C   0  0  0  0  0  0  0  0  0  0  0  0
   63.8671   34.3715   47.1526 H   0  0  0  0  0  0  0  0  0  0  0  0
   63.8430   33.2356   45.7612 H   0  0  0  0  0  0  0  0  0  0  0  0
   62.7733   34.6787   45.7612 H   0  0  0  0  0  0  0  0  0  0  0  0
   59.1200   32.4630   46.3750 C   0  0  0  0  0  0  0  0  0  0  0  0
  1  2  1  0
  2  3  1  0
  3  4  1  0
  4  5  2  0
  5  6  1  0
  5  7  1  0
  7  8  1  0
  7  9  2  0
  9 10  1  0
 10 11  1  0
 10 12  2  0
 12 13  1  0
 12 14  1  0
 14 15  1  0
 14 16  2  0
  9 17  1  0
 17 18  1  0
 17 19  2  0
 19 20  1  0
 20 21  2  0
 20 22  1  0
 22 23  2  0
 23 24  1  0
 24 25  1  0
 24 26  2  0
 26 27  1  0
 26 28  1  0
 28 29  1  0
 29 30  1  0
 29 31  1  0
 29 32  1  0
 32 33  2  0
 32 34  1  0
 34 35  1  0
 34 36  1  0
 34 37  1  0
 28 38  1  0
 38  3  2  0
 19  4  1  0
 38 23  1  0
M  END
>  <UniqueID>  (4) 
4

>  <SMILES>  (4) 
CC(=O)Cn1ccc2nc(=O)c3cc(/C=C/C=O)ccc3c(O)c21

>  <Energy>  (4) 
106.89807778373662

>  <Genealogy>  (4) 
CC(=O)Cn1ccc2nc(=O)c3cc(/C=C/C=O)ccc3c(O)c21 (cis-trans isomerization)
CC(=O)Cn1ccc2nc(=O)c3cc(/C=C/C=O)ccc3c(O)c21 (3D coordinates assigned)
CC(=O)Cn1ccc2nc(=O)c3cc(/C=C/C=O)ccc3c(O)c21 (optimized conformer: 106.89807778373662 kcal/mol)

>  <smiles>  (4) 
CC(=O)Cn1ccc2nc(=O)c3cc(C=CC=O)ccc3c(O)c21

>  <score_type>  (4) 
oracle

>  <origin>  (4) 
adg

>  <m_score__min__energy>  (4) 
-8.6799999999999997

>  <m_primary>  (4) 
energy

$$$$
4:0
     RDKit          3D

 51 53  0  0  0  0  0  0  0  0999 V2000
   50.6580   32.1740   49.0040 C   0  0  0  0  0  0  0  0  0  0  0  0
   51.4750   32.6060   50.1310 N   0  0  0  0  0  0  0  0  0  0  0  0
   51.2130   32.2710   51.4990 C   0  0  0  0  0  0  0  0  0  0  0  0
   50.1650   32.7110   52.0420 O   0  0  0  0  0  0  0  0  0  0  0  0
   52.1440   31.4470   52.2960 C   0  0  0  0  0  0  0  0  0  0  0  0
   53.4680   31.2750   51.8610 C   0  0  0  0  0  0  0  0  0  0  0  0
   54.3740   30.4940   52.5980 C   0  0  0  0  0  0  0  0  0  0  0  0
   55.7720   30.3430   52.1270 C   0  0  0  0  0  0  0  0  0  0  0  0
   56.3630   29.2400   52.2930 O   0  0  0  0  0  0  0  0  0  0  0  0
   56.4530   31.4210   51.4600 N   0  0  0  0  0  0  0  0  0  0  0  0
   57.7830   31.2610   50.8750 C   0  0  0  0  0  0  0  0  0  0  0  0
   58.7650   32.1350   51.6040 C   0  0  0  0  0  0  0  0  0  0  0  0
   58.3520   32.9140   52.6930 C   0  0  0  0  0  0  0  0  0  0  0  0
   59.2320   33.7420   53.3140 N   0  0  0  0  0  0  0  0  0  0  0  0
   60.5210   33.8590   52.9000 C   0  0  0  0  0  0  0  0  0  0  0  0
   60.9820   33.1200   51.8010 C   0  0  0  0  0  0  0  0  0  0  0  0
   62.3410   33.2600   51.3430 N   0  0  0  0  0  0  0  0  0  0  0  0
   62.7430   32.6530   50.0700 C   0  0  0  0  0  0  0  0  0  0  0  0
   63.9410   33.4110   49.4890 C   0  0  0  0  0  0  0  0  0  0  0  0
   64.9800   33.5150   50.4440 O   0  0  0  0  0  0  0  0  0  0  0  0
   64.5500   34.3090   51.5340 C   0  0  0  0  0  0  0  0  0  0  0  0
   63.4030   33.6260   52.2850 C   0  0  0  0  0  0  0  0  0  0  0  0
   60.0890   32.2470   51.1590 C   0  0  0  0  0  0  0  0  0  0  0  0
   53.9270   29.8540   53.7640 C   0  0  0  0  0  0  0  0  0  0  0  0
   52.6070   30.0040   54.1940 C   0  0  0  0  0  0  0  0  0  0  0  0
   51.7040   30.8020   53.4680 C   0  0  0  0  0  0  0  0  0  0  0  0
   50.3740   30.9850   53.8850 O   0  0  0  0  0  0  0  0  0  0  0  0
   49.9750   31.8230   54.9640 C   0  0  0  0  0  0  0  0  0  0  0  0
   49.7435   31.6905   49.3781 H   0  0  0  0  0  0  0  0  0  0  0  0
   50.3871   33.0467   48.3917 H   0  0  0  0  0  0  0  0  0  0  0  0
   51.2268   31.4588   48.3917 H   0  0  0  0  0  0  0  0  0  0  0  0
   53.8004   31.7584   50.9305 H   0  0  0  0  0  0  0  0  0  0  0  0
   55.9230   32.2840   51.2030 H   0  0  0  0  0  0  0  0  0  0  0  0
   58.0958   30.2098   50.9597 H   0  0  0  0  0  0  0  0  0  0  0  0
   57.7524   31.5527   49.8148 H   0  0  0  0  0  0  0  0  0  0  0  0
   57.3119   32.8549   53.0462 H   0  0  0  0  0  0  0  0  0  0  0  0
   61.2064   34.5370   53.4297 H   0  0  0  0  0  0  0  0  0  0  0  0
   63.0224   31.6025   50.2385 H   0  0  0  0  0  0  0  0  0  0  0  0
   61.9028   32.7041   49.3619 H   0  0  0  0  0  0  0  0  0  0  0  0
   64.3152   32.8721   48.6060 H   0  0  0  0  0  0  0  0  0  0  0  0
   63.6159   34.4240   49.2095 H   0  0  0  0  0  0  0  0  0  0  0  0
   65.3930   34.4611   52.2241 H   0  0  0  0  0  0  0  0  0  0  0  0
   64.1927   35.2749   51.1475 H   0  0  0  0  0  0  0  0  0  0  0  0
   63.7799   32.7192   52.7807 H   0  0  0  0  0  0  0  0  0  0  0  0
   62.9982   34.3188   53.0375 H   0  0  0  0  0  0  0  0  0  0  0  0
   60.4306   31.6478   50.3021 H   0  0  0  0  0  0  0  0  0  0  0  0
   54.6220   29.2291   54.3440 H   0  0  0  0  0  0  0  0  0  0  0  0
   52.2702   29.4937   55.1084 H   0  0  0  0  0  0  0  0  0  0  0  0
   50.2102   31.3290   55.9183 H   0  0  0  0  0  0  0  0  0  0  0  0
   50.5141   32.7799   54.9038 H   0  0  0  0  0  0  0  0  0  0  0  0
   48.8923   32.0077   54.9038 H   0  0  0  0  0  0  0  0  0  0  0  0
  1  2  1  0
  2  3  1  0
  3  4  2  0
  3  5  1  0
  5  6  2  0
  6  7  1  0
  7  8  1  0
  8  9  2  0
  8 10  1  0
 10 11  1  0
 11 12  1  0
 12 13  2  0
 13 14  1  0
 14 15  2  0
 15 16  1  0
 16 17  1  0
 17 18  1  0
 18 19  1  0
 19 20  1  0
 20 21  1  0
 21 22  1  0
 16 23  2  0
  7 24  2  0
 24 25  1  0
 25 26  2  0
 26 27  1  0
 27 28  1  0
 26  5  1  0
 23 12  1  0
 22 17  1  0
  1 29  1  0
  1 30  1  0
  1 31  1  0
  6 32  1  0
 10 33  1  0
 11 34  1  0
 11 35  1  0
 13 36  1  0
 15 37  1  0
 18 38  1  0
 18 39  1  0
 19 40  1  0
 19 41  1  0
 21 42  1  0
 21 43  1  0
 22 44  1  0
 22 45  1  0
 23 46  1  0
 24 47  1  0
 25 48  1  0
 28 49  1  0
 28 50  1  0
 28 51  1  0
M  CHG  1   2  -1
M  END
>  <UniqueID>  (5) 
5

>  <SMILES>  (5) 
C[N-]C(=O)c1cc(C(=O)NCc2cncc(N3CCOCC3)c2)ccc1OC

>  <Energy>  (5) 
61.95564705214699

>  <Genealogy>  (5) 
C[N-]C(=O)c1cc(C(=O)NCc2cncc(N3CCOCC3)c2)ccc1OC (protonated)
C[N-]C(=O)c1cc(C(=O)NCc2cncc(N3CCOCC3)c2)ccc1OC (3D coordinates assigned)
C[N-]C(=O)c1cc(C(=O)NCc2cncc(N3CCOCC3)c2)ccc1OC (nonaromatic ring conformer: 61.95564705214699 kcal/mol)

>  <smiles>  (5) 
CNC(=O)c1cc(C(=O)NCc2cncc(N3CCOCC3)c2)ccc1OC

>  <score_type>  (5) 
oracle

>  <origin>  (5) 
adg

>  <m_score__min__energy>  (5) 
-11.43

>  <m_primary>  (5) 
energy

$$$$
5:0
     RDKit          3D

 35 37  0  0  0  0  0  0  0  0999 V2000
   60.0640   30.3690   46.8860 C   0  0  0  0  0  0  0  0  0  0  0  0
   59.0960   30.5230   45.9580 C   0  0  0  0  0  0  0  0  0  0  0  0
   58.6950   31.8340   45.5790 C   0  0  0  0  0  0  0  0  0  0  0  0
   58.9530   32.9860   46.3980 N   0  0  0  0  0  0  0  0  0  0  0  0
   59.4870   34.1560   45.9920 C   0  0  0  0  0  0  0  0  0  0  0  0
   59.6830   34.9510   47.1000 C   0  0  0  0  0  0  0  0  0  0  0  0
   59.2600   34.1800   48.1660 C   0  0  0  0  0  0  0  0  0  0  0  0
   58.8350   32.9830   47.7160 N   0  0  0  0  0  0  0  0  0  0  0  0
   58.0580   32.0240   44.3950 N   0  0  0  0  0  0  0  0  0  0  0  0
   57.7430   31.0050   43.5610 C   0  0  0  0  0  0  0  0  0  0  0  0
   57.0290   31.2970   42.2730 C   0  0  0  0  0  0  0  0  0  0  0  0
   57.7970   32.3260   41.4510 C   0  0  0  0  0  0  0  0  0  0  0  0
   57.9850   29.6890   43.9580 C   0  0  0  0  0  0  0  0  0  0  0  0
   58.5900   29.4180   45.2010 C   0  0  0  0  0  0  0  0  0  0  0  0
   58.6320   28.1190   45.5940 C   0  0  0  0  0  0  0  0  0  0  0  0
   57.4690   27.2750   45.9310 C   0  0  0  0  0  0  0  0  0  0  0  0
   57.5770   26.0580   46.4930 N   0  0  0  0  0  0  0  0  0  0  0  0
   56.3020   25.6170   46.5350 C   0  0  0  0  0  0  0  0  0  0  0  0
   55.9890   24.4980   47.0170 O   0  0  0  0  0  0  0  0  0  0  0  0
   55.3910   26.4640   46.0140 N   0  0  0  0  0  0  0  0  0  0  0  0
   56.1460   27.5050   45.6220 C   0  0  0  0  0  0  0  0  0  0  0  0
   55.6400   28.6250   44.9700 O   0  0  0  0  0  0  0  0  0  0  0  0
   60.3821   29.3598   47.1867 H   0  0  0  0  0  0  0  0  0  0  0  0
   60.5348   31.2527   47.3415 H   0  0  0  0  0  0  0  0  0  0  0  0
   59.7254   34.4290   44.9534 H   0  0  0  0  0  0  0  0  0  0  0  0
   60.0870   35.9737   47.1296 H   0  0  0  0  0  0  0  0  0  0  0  0
   59.2689   34.4950   49.2199 H   0  0  0  0  0  0  0  0  0  0  0  0
   56.9371   30.3672   41.6925 H   0  0  0  0  0  0  0  0  0  0  0  0
   56.0332   31.7026   42.5053 H   0  0  0  0  0  0  0  0  0  0  0  0
   58.3162   33.0216   42.1267 H   0  0  0  0  0  0  0  0  0  0  0  0
   58.5343   31.8122   40.8166 H   0  0  0  0  0  0  0  0  0  0  0  0
   57.0947   32.8866   40.8166 H   0  0  0  0  0  0  0  0  0  0  0  0
   57.7014   28.8577   43.2958 H   0  0  0  0  0  0  0  0  0  0  0  0
   59.6253   27.6522   45.6681 H   0  0  0  0  0  0  0  0  0  0  0  0
   54.7500   28.5860   44.4900 H   0  0  0  0  0  0  0  0  0  0  0  0
  1  2  2  0
  2  3  1  0
  3  4  1  0
  4  5  1  0
  5  6  2  0
  6  7  1  0
  7  8  2  0
  3  9  2  0
  9 10  1  0
 10 11  1  0
 11 12  1  0
 10 13  2  0
 13 14  1  0
 14 15  2  3
 15 16  1  0
 16 17  1  0
 17 18  1  0
 18 19  2  0
 18 20  1  0
 20 21  1  0
 21 22  1  0
 14  2  1  0
 21 16  2  0
  8  4  1  0
  1 23  1  0
  1 24  1  0
  5 25  1  0
  6 26  1  0
  7 27  1  0
 11 28  1  0
 11 29  1  0
 12 30  1  0
 12 31  1  0
 12 32  1  0
 13 33  1  0
 15 34  1  0
 22 35  1  0
M  CHG  2  17  -1  20  -1
M  END
>  <UniqueID>  (6) 
6

>  <SMILES>  (6) 
C=c1c(-n2cccn2)nc(CC)cc1=Cc1[n-]c(=O)[n-]c1O

>  <Energy>  (6) 
120.05938492517316

>  <Genealogy>  (6) 
C=c1c(-n2cccn2)nc(CC)cc1=Cc1[n-]c(=O)[n-]c1O (protonated)
C=c1c(-n2cccn2)nc(CC)cc1=Cc1[n-]c(=O)[n-]c1O (3D coordinates assigned)
C=c1c(-n2cccn2)nc(CC)cc1=Cc1[n-]c(=O)[n-]c1O (optimized conformer: 120.05938492517316 kcal/mol)

>  <smiles>  (6) 
C=c1c(-n2cccn2)nc(CC)cc1=Cc1[nH]c(=O)[nH]c1O

>  <score_type>  (6) 
oracle

>  <origin>  (6) 
adg

>  <m_score__min__energy>  (6) 
-12.25

>  <m_primary>  (6) 
energy

$$$$
6:0
     RDKit          3D

 57 61  0  0  0  0  0  0  0  0999 V2000
   54.9430   29.5630   43.9100 O   0  0  0  0  0  0  0  0  0  0  0  0
   56.1720   29.8020   44.0360 C   0  0  0  0  0  0  0  0  0  0  0  0
   56.6410   31.1460   43.8580 N   0  0  0  0  0  0  0  0  0  0  0  0
   57.3890   31.8660   44.8450 C   0  0  0  0  0  0  0  0  0  0  0  0
   56.9140   33.1000   45.3070 C   0  0  0  0  0  0  0  0  0  0  0  0
   57.5550   33.7450   46.3680 C   0  0  0  0  0  0  0  0  0  0  0  0
   58.6970   33.1770   46.9500 C   0  0  0  0  0  0  0  0  0  0  0  0
   59.2940   33.7810   48.1490 C   0  0  0  0  0  0  0  0  0  0  0  0
   59.8870   34.8860   48.0350 O   0  0  0  0  0  0  0  0  0  0  0  0
   59.2250   33.1210   49.4330 N   0  0  0  0  0  0  0  0  0  0  0  0
   59.6720   33.8510   50.6280 C   0  0  0  0  0  0  0  0  0  0  0  0
   59.3820   33.0620   51.9070 C   0  0  0  0  0  0  0  0  0  0  0  0
   58.0670   32.4200   51.7710 N   0  0  0  0  0  0  0  0  0  0  0  0
   57.4730   32.0020   53.0620 C   0  0  0  0  0  0  0  0  0  0  0  0
   56.3890   30.9490   52.9300 C   0  0  0  0  0  0  0  0  0  0  0  0
   55.2260   31.2110   52.1850 C   0  0  0  0  0  0  0  0  0  0  0  0
   54.2330   30.2360   52.0560 C   0  0  0  0  0  0  0  0  0  0  0  0
   54.3880   28.9950   52.6750 C   0  0  0  0  0  0  0  0  0  0  0  0
   55.5330   28.7280   53.4320 C   0  0  0  0  0  0  0  0  0  0  0  0
   56.5280   29.7020   53.5660 C   0  0  0  0  0  0  0  0  0  0  0  0
   58.0790   31.3370   50.7620 C   0  0  0  0  0  0  0  0  0  0  0  0
   58.9500   31.6770   49.5320 C   0  0  0  0  0  0  0  0  0  0  0  0
   59.2210   31.9820   46.4370 C   0  0  0  0  0  0  0  0  0  0  0  0
   58.5660   31.3250   45.3930 C   0  0  0  0  0  0  0  0  0  0  0  0
   57.0890   28.7090   44.4130 C   0  0  0  0  0  0  0  0  0  0  0  0
   57.7740   27.8730   43.5340 C   0  0  0  0  0  0  0  0  0  0  0  0
   58.5500   26.9280   44.1300 N   0  0  0  0  0  0  0  0  0  0  0  0
   58.4800   26.9780   45.4790 C   0  0  0  0  0  0  0  0  0  0  0  0
   59.2680   26.0520   46.3640 C   0  0  0  0  0  0  0  0  0  0  0  0
   59.9230   26.6350   47.6100 C   0  0  0  0  0  0  0  0  0  0  0  0
   60.7610   26.3500   46.3750 C   0  0  0  0  0  0  0  0  0  0  0  0
   57.4460   28.2110   45.9820 S   0  0  0  0  0  0  0  0  0  0  0  0
   56.0350   33.5621   44.8339 H   0  0  0  0  0  0  0  0  0  0  0  0
   57.1628   34.7002   46.7473 H   0  0  0  0  0  0  0  0  0  0  0  0
   60.7552   34.0278   50.5547 H   0  0  0  0  0  0  0  0  0  0  0  0
   59.1229   34.8029   50.6771 H   0  0  0  0  0  0  0  0  0  0  0  0
   60.1563   32.2944   52.0530 H   0  0  0  0  0  0  0  0  0  0  0  0
   59.3835   33.7376   52.7751 H   0  0  0  0  0  0  0  0  0  0  0  0
   58.2747   31.5956   53.6962 H   0  0  0  0  0  0  0  0  0  0  0  0
   56.9991   32.8938   53.4980 H   0  0  0  0  0  0  0  0  0  0  0  0
   55.0967   32.1900   51.7003 H   0  0  0  0  0  0  0  0  0  0  0  0
   53.3288   30.4470   51.4662 H   0  0  0  0  0  0  0  0  0  0  0  0
   53.6088   28.2261   52.5674 H   0  0  0  0  0  0  0  0  0  0  0  0
   55.6514   27.7507   53.9228 H   0  0  0  0  0  0  0  0  0  0  0  0
   57.4224   29.4921   54.1709 H   0  0  0  0  0  0  0  0  0  0  0  0
   58.4737   30.4236   51.2309 H   0  0  0  0  0  0  0  0  0  0  0  0
   57.0460   31.1999   50.4097 H   0  0  0  0  0  0  0  0  0  0  0  0
   59.9055   31.1382   49.6136 H   0  0  0  0  0  0  0  0  0  0  0  0
   58.3980   31.3735   48.6302 H   0  0  0  0  0  0  0  0  0  0  0  0
   60.1472   31.5623   46.8564 H   0  0  0  0  0  0  0  0  0  0  0  0
   58.9717   30.3818   44.9982 H   0  0  0  0  0  0  0  0  0  0  0  0
   57.6935   27.9697   42.4412 H   0  0  0  0  0  0  0  0  0  0  0  0
   58.6204   25.1798   46.1912 H   0  0  0  0  0  0  0  0  0  0  0  0
   59.7150   27.6739   47.9056 H   0  0  0  0  0  0  0  0  0  0  0  0
   59.9755   26.3438   48.6695 H   0  0  0  0  0  0  0  0  0  0  0  0
   61.1597   27.1828   45.7771 H   0  0  0  0  0  0  0  0  0  0  0  0
   61.6713   25.7671   46.1711 H   0  0  0  0  0  0  0  0  0  0  0  0
  1  2  2  0
  2  3  1  0
  3  4  1  0
  4  5  2  0
  5  6  1  0
  6  7  2  0
  7  8  1  0
  8  9  2  0
  8 10  1  0
 10 11  1  0
 11 12  1  0
 12 13  1  0
 13 14  1  0
 14 15  1  0
 15 16  2  0
 16 17  1  0
 17 18  2  0
 18 19  1  0
 19 20  2  0
 13 21  1  0
 21 22  1  0
  7 23  1  0
 23 24  2  0
  2 25  1  0
 25 26  2  0
 26 27  1  0
 27 28  2  0
 28 29  1  0
 29 30  1  0
 30 31  1  0
 28 32  1  0
 24  4  1  0
 32 25  1  0
 22 10  1  0
 31 29  1  0
 20 15  1  0
  5 33  1  0
  6 34  1  0
 11 35  1  0
 11 36  1  0
 12 37  1  0
 12 38  1  0
 14 39  1  0
 14 40  1  0
 16 41  1  0
 17 42  1  0
 18 43  1  0
 19 44  1  0
 20 45  1  0
 21 46  1  0
 21 47  1  0
 22 48  1  0
 22 49  1  0
 23 50  1  0
 24 51  1  0
 26 52  1  0
 29 53  1  0
 30 54  1  0
 30 55  1  0
 31 56  1  0
 31 57  1  0
M  CHG  1   3  -1
M  END
>  <UniqueID>  (7) 
7

>  <SMILES>  (7) 
O=C([N-]c1ccc(C(=O)N2CCN(Cc3ccccc3)CC2)cc1)c1cnc(C2CC2)s1

>  <Energy>  (7) 
375.6569948213912

>  <Genealogy>  (7) 
O=C([N-]c1ccc(C(=O)N2CCN(Cc3ccccc3)CC2)cc1)c1cnc(C2CC2)s1 (protonated)
O=C([N-]c1ccc(C(=O)N2CCN(Cc3ccccc3)CC2)cc1)c1cnc(C2CC2)s1 (3D coordinates assigned)
O=C([N-]c1ccc(C(=O)N2CCN(Cc3ccccc3)CC2)cc1)c1cnc(C2CC2)s1 (nonaromatic ring conformer: 375.6569948213912 kcal/mol)

>  <smiles>  (7) 
O=C(Nc1ccc(C(=O)N2CCN(Cc3ccccc3)CC2)cc1)c1cnc(C2CC2)s1

>  <score_type>  (7) 
oracle

>  <origin>  (7) 
adg

>  <m_score__min__energy>  (7) 
-10.69

>  <m_primary>  (7) 
energy

$$$$
7:0
     RDKit          3D

 58 61  0  0  0  0  0  0  0  0999 V2000
   56.6290   32.1280   51.7990 N   0  0  0  0  0  0  0  0  0  0  0  0
   58.3520   32.2560   51.8510 S   0  0  0  0  0  0  0  0  0  0  0  0
   58.7710   33.5940   51.3070 O   0  0  0  0  0  0  0  0  0  0  0  0
   58.8190   32.1460   53.2760 O   0  0  0  0  0  0  0  0  0  0  0  0
   59.0720   30.9660   50.8910 C   0  0  0  0  0  0  0  0  0  0  0  0
   58.8590   30.9040   49.5040 C   0  0  0  0  0  0  0  0  0  0  0  0
   59.4230   29.8690   48.7460 C   0  0  0  0  0  0  0  0  0  0  0  0
   60.1920   28.8710   49.3730 C   0  0  0  0  0  0  0  0  0  0  0  0
   60.7890   27.7940   48.6360 N   0  0  0  0  0  0  0  0  0  0  0  0
   60.1790   26.9660   47.8390 C   0  0  0  0  0  0  0  0  0  0  0  0
   58.8820   26.6430   48.0070 N   0  0  0  0  0  0  0  0  0  0  0  0
   58.4150   25.8800   46.9830 C   0  0  0  0  0  0  0  0  0  0  0  0
   56.9720   25.4870   46.8920 C   0  0  0  0  0  0  0  0  0  0  0  0
   56.2010   26.4320   46.0240 C   0  0  0  0  0  0  0  0  0  0  0  0
   54.9480   26.3400   45.9680 O   0  0  0  0  0  0  0  0  0  0  0  0
   56.9080   27.3950   45.2270 N   0  0  0  0  0  0  0  0  0  0  0  0
   56.5880   28.8220   45.0950 C   0  0  0  0  0  0  0  0  0  0  0  0
   57.4380   29.6840   46.0630 C   0  0  0  0  0  0  0  0  0  0  0  0
   58.3700   30.6600   45.3220 C   0  0  0  0  0  0  0  0  0  0  0  0
   57.6510   31.5190   44.3460 N   0  0  0  0  0  0  0  0  0  0  0  0
   57.1710   32.7730   44.9660 C   0  0  0  0  0  0  0  0  0  0  0  0
   58.2240   33.3510   45.8770 C   0  0  0  0  0  0  0  0  0  0  0  0
   58.0920   33.2670   47.2760 C   0  0  0  0  0  0  0  0  0  0  0  0
   59.0620   33.8350   48.1080 C   0  0  0  0  0  0  0  0  0  0  0  0
   60.1650   34.4890   47.5520 C   0  0  0  0  0  0  0  0  0  0  0  0
   60.3040   34.5770   46.1640 C   0  0  0  0  0  0  0  0  0  0  0  0
   59.3350   34.0130   45.3280 C   0  0  0  0  0  0  0  0  0  0  0  0
   56.5690   30.8310   43.5850 C   0  0  0  0  0  0  0  0  0  0  0  0
   56.6810   29.3020   43.6290 C   0  0  0  0  0  0  0  0  0  0  0  0
   59.3480   25.5750   45.9950 C   0  0  0  0  0  0  0  0  0  0  0  0
   60.7960   26.3230   46.4070 S   0  0  0  0  0  0  0  0  0  0  0  0
   60.4260   28.9540   50.7520 C   0  0  0  0  0  0  0  0  0  0  0  0
   59.8590   29.9860   51.5100 C   0  0  0  0  0  0  0  0  0  0  0  0
   56.3640   31.9880   50.7980 H   0  0  0  0  0  0  0  0  0  0  0  0
   56.2460   33.0570   52.0870 H   0  0  0  0  0  0  0  0  0  0  0  0
   58.2460   31.6722   49.0100 H   0  0  0  0  0  0  0  0  0  0  0  0
   59.2642   29.8366   47.6580 H   0  0  0  0  0  0  0  0  0  0  0  0
   56.9031   24.4745   46.4677 H   0  0  0  0  0  0  0  0  0  0  0  0
   56.5411   25.5171   47.9036 H   0  0  0  0  0  0  0  0  0  0  0  0
   55.5375   28.9556   45.3927 H   0  0  0  0  0  0  0  0  0  0  0  0
   56.7600   30.2639   46.7064 H   0  0  0  0  0  0  0  0  0  0  0  0
   58.0692   29.0013   46.6508 H   0  0  0  0  0  0  0  0  0  0  0  0
   58.8614   31.3071   46.0635 H   0  0  0  0  0  0  0  0  0  0  0  0
   59.0971   30.0574   44.7579 H   0  0  0  0  0  0  0  0  0  0  0  0
   56.9378   33.5012   44.1752 H   0  0  0  0  0  0  0  0  0  0  0  0
   56.2706   32.5538   45.5587 H   0  0  0  0  0  0  0  0  0  0  0  0
   57.2242   32.7536   47.7156 H   0  0  0  0  0  0  0  0  0  0  0  0
   58.9568   33.7670   49.2008 H   0  0  0  0  0  0  0  0  0  0  0  0
   60.9260   34.9358   48.2087 H   0  0  0  0  0  0  0  0  0  0  0  0
   61.1749   35.0895   45.7295 H   0  0  0  0  0  0  0  0  0  0  0  0
   59.4432   34.0880   44.2359 H   0  0  0  0  0  0  0  0  0  0  0  0
   55.5991   31.1234   44.0137 H   0  0  0  0  0  0  0  0  0  0  0  0
   56.6631   31.1365   42.5325 H   0  0  0  0  0  0  0  0  0  0  0  0
   55.8621   28.8572   43.0446 H   0  0  0  0  0  0  0  0  0  0  0  0
   57.6460   28.9920   43.2016 H   0  0  0  0  0  0  0  0  0  0  0  0
   59.1693   24.9552   45.1040 H   0  0  0  0  0  0  0  0  0  0  0  0
   61.0607   28.2019   51.2435 H   0  0  0  0  0  0  0  0  0  0  0  0
   60.0322   30.0274   52.5955 H   0  0  0  0  0  0  0  0  0  0  0  0
  1  2  1  0
  2  3  2  0
  2  4  2  0
  2  5  1  0
  5  6  2  0
  6  7  1  0
  7  8  2  0
  8  9  1  0
  9 10  2  3
 10 11  1  0
 11 12  1  0
 12 13  1  0
 13 14  1  0
 14 15  2  0
 14 16  1  0
 16 17  1  0
 17 18  1  0
 18 19  1  0
 19 20  1  0
 20 21  1  0
 21 22  1  0
 22 23  2  0
 23 24  1  0
 24 25  2  0
 25 26  1  0
 26 27  2  0
 20 28  1  0
 28 29  1  0
 12 30  2  0
 30 31  1  0
  8 32  1  0
 32 33  2  0
 33  5  1  0
 31 10  1  0
 29 17  1  0
 27 22  1  0
  1 34  1  0
  1 35  1  0
  6 36  1  0
  7 37  1  0
 13 38  1  0
 13 39  1  0
 17 40  1  0
 18 41  1  0
 18 42  1  0
 19 43  1  0
 19 44  1  0
 21 45  1  0
 21 46  1  0
 23 47  1  0
 24 48  1  0
 25 49  1  0
 26 50  1  0
 27 51  1  0
 28 52  1  0
 28 53  1  0
 29 54  1  0
 29 55  1  0
 30 56  1  0
 32 57  1  0
 33 58  1  0
M  CHG  2  11  -1  16  -1
M  END
>  <UniqueID>  (8) 
8

>  <SMILES>  (8) 
NS(=O)(=O)c1ccc(N=c2[n-]c(CC(=O)[N-]C3CCN(Cc4ccccc4)CC3)cs2)cc1

>  <Energy>  (8) 
105.15411132854895

>  <Genealogy>  (8) 
NS(=O)(=O)c1ccc(N=c2[n-]c(CC(=O)[N-]C3CCN(Cc4ccccc4)CC3)cs2)cc1 (protonated)
NS(=O)(=O)c1ccc(N=c2[n-]c(CC(=O)[N-]C3CCN(Cc4ccccc4)CC3)cs2)cc1 (3D coordinates assigned)
NS(=O)(=O)c1ccc(N=c2[n-]c(CC(=O)[N-]C3CCN(Cc4ccccc4)CC3)cs2)cc1 (nonaromatic ring conformer: 105.15411132854895 kcal/mol)

>  <smiles>  (8) 
NS(=O)(=O)c1ccc(N=c2[nH]c(CC(=O)NC3CCN(Cc4ccccc4)CC3)cs2)cc1

>  <score_type>  (8) 
oracle

>  <origin>  (8) 
adg

>  <m_score__min__energy>  (8) 
-12.289999999999999

>  <m_primary>  (8) 
energy

$$$$
8:0
     RDKit          3D

 65 68  0  0  0  0  0  0  0  0999 V2000
   60.3980   27.1370   47.5580 C   0  0  0  0  0  0  0  0  0  0  0  0
   59.6650   27.9150   48.3560 C   0  0  0  0  0  0  0  0  0  0  0  0
   59.7560   29.3970   48.3990 C   0  0  0  0  0  0  0  0  0  0  0  0
   60.5340   30.0470   47.4250 C   0  0  0  0  0  0  0  0  0  0  0  0
   60.6560   31.4390   47.4230 C   0  0  0  0  0  0  0  0  0  0  0  0
   60.0040   32.2120   48.3950 C   0  0  0  0  0  0  0  0  0  0  0  0
   60.1310   33.7190   48.3800 C   0  0  0  0  0  0  0  0  0  0  0  0
   59.0980   34.3590   47.5280 N   0  0  0  0  0  0  0  0  0  0  0  0
   57.9790   33.4080   47.3070 C   0  0  0  0  0  0  0  0  0  0  0  0
   57.1030   33.8350   46.1200 C   0  0  0  0  0  0  0  0  0  0  0  0
   57.8810   33.9160   44.8630 N   0  0  0  0  0  0  0  0  0  0  0  0
   57.4700   32.9720   43.8010 C   0  0  0  0  0  0  0  0  0  0  0  0
   58.4130   31.7560   43.6010 C   0  0  0  0  0  0  0  0  0  0  0  0
   57.8910   30.4880   44.2330 C   0  0  0  0  0  0  0  0  0  0  0  0
   58.7800   29.5600   44.7990 C   0  0  0  0  0  0  0  0  0  0  0  0
   58.3010   28.3790   45.3720 C   0  0  0  0  0  0  0  0  0  0  0  0
   56.9230   28.1070   45.3930 C   0  0  0  0  0  0  0  0  0  0  0  0
   56.4040   26.8450   45.9680 C   0  0  0  0  0  0  0  0  0  0  0  0
   55.1600   26.6540   46.0100 O   0  0  0  0  0  0  0  0  0  0  0  0
   57.2730   25.8290   46.4910 N   0  0  0  0  0  0  0  0  0  0  0  0
   57.4040   24.4910   45.9890 C   0  0  0  0  0  0  0  0  0  0  0  0
   58.6780   24.0490   45.6090 C   0  0  0  0  0  0  0  0  0  0  0  0
   58.8530   22.7840   45.0470 C   0  0  0  0  0  0  0  0  0  0  0  0
   57.7550   21.9400   44.8710 C   0  0  0  0  0  0  0  0  0  0  0  0
   56.4840   22.3520   45.2790 C   0  0  0  0  0  0  0  0  0  0  0  0
   56.2970   23.6160   45.8590 C   0  0  0  0  0  0  0  0  0  0  0  0
   54.9990   23.9660   46.3570 N   0  0  0  0  0  0  0  0  0  0  0  0
   56.0310   29.0590   44.8740 C   0  0  0  0  0  0  0  0  0  0  0  0
   56.5100   30.2390   44.2990 C   0  0  0  0  0  0  0  0  0  0  0  0
   59.3430   34.0220   45.0390 C   0  0  0  0  0  0  0  0  0  0  0  0
   59.6760   34.8930   46.2570 C   0  0  0  0  0  0  0  0  0  0  0  0
   59.2400   31.5680   49.3800 C   0  0  0  0  0  0  0  0  0  0  0  0
   59.1180   30.1760   49.3860 C   0  0  0  0  0  0  0  0  0  0  0  0
   60.2705   26.0448   47.5863 H   0  0  0  0  0  0  0  0  0  0  0  0
   61.1300   27.5877   46.8716 H   0  0  0  0  0  0  0  0  0  0  0  0
   58.9443   27.4259   49.0278 H   0  0  0  0  0  0  0  0  0  0  0  0
   61.0518   29.4539   46.6568 H   0  0  0  0  0  0  0  0  0  0  0  0
   61.2679   31.9323   46.6534 H   0  0  0  0  0  0  0  0  0  0  0  0
   60.0242   34.0940   49.4086 H   0  0  0  0  0  0  0  0  0  0  0  0
   61.1171   33.9712   47.9630 H   0  0  0  0  0  0  0  0  0  0  0  0
   58.6980   35.1700   48.0580 H   0  0  0  0  0  0  0  0  0  0  0  0
   58.3934   32.4094   47.1043 H   0  0  0  0  0  0  0  0  0  0  0  0
   57.3527   33.3961   48.2112 H   0  0  0  0  0  0  0  0  0  0  0  0
   56.2947   33.1001   45.9916 H   0  0  0  0  0  0  0  0  0  0  0  0
   56.6981   34.8346   46.3363 H   0  0  0  0  0  0  0  0  0  0  0  0
   56.4698   32.5899   44.0530 H   0  0  0  0  0  0  0  0  0  0  0  0
   57.4973   33.5394   42.8590 H   0  0  0  0  0  0  0  0  0  0  0  0
   58.5367   31.5834   42.5217 H   0  0  0  0  0  0  0  0  0  0  0  0
   59.3667   31.9977   44.0929 H   0  0  0  0  0  0  0  0  0  0  0  0
   59.8609   29.7641   44.7912 H   0  0  0  0  0  0  0  0  0  0  0  0
   59.0073   27.6579   45.8093 H   0  0  0  0  0  0  0  0  0  0  0  0
   59.5485   24.7054   45.7551 H   0  0  0  0  0  0  0  0  0  0  0  0
   59.8564   22.4516   44.7425 H   0  0  0  0  0  0  0  0  0  0  0  0
   57.8907   20.9501   44.4109 H   0  0  0  0  0  0  0  0  0  0  0  0
   55.6232   21.6804   45.1446 H   0  0  0  0  0  0  0  0  0  0  0  0
   54.7900   24.9190   46.7220 H   0  0  0  0  0  0  0  0  0  0  0  0
   54.2580   23.2370   46.4620 H   0  0  0  0  0  0  0  0  0  0  0  0
   54.9475   28.8746   44.9204 H   0  0  0  0  0  0  0  0  0  0  0  0
   55.8015   30.9774   43.8956 H   0  0  0  0  0  0  0  0  0  0  0  0
   59.7636   33.0164   45.1873 H   0  0  0  0  0  0  0  0  0  0  0  0
   59.7766   34.4859   44.1408 H   0  0  0  0  0  0  0  0  0  0  0  0
   60.7696   34.9450   46.3631 H   0  0  0  0  0  0  0  0  0  0  0  0
   59.2344   35.8856   46.0843 H   0  0  0  0  0  0  0  0  0  0  0  0
   58.7331   32.1636   50.1535 H   0  0  0  0  0  0  0  0  0  0  0  0
   58.5195   29.6841   50.1669 H   0  0  0  0  0  0  0  0  0  0  0  0
  1  2  2  0
  2  3  1  0
  3  4  2  0
  4  5  1  0
  5  6  2  0
  6  7  1  0
  7  8  1  0
  8  9  1  0
  9 10  1  0
 10 11  1  0
 11 12  1  0
 12 13  1  0
 13 14  1  0
 14 15  2  0
 15 16  1  0
 16 17  2  0
 17 18  1  0
 18 19  2  0
 18 20  1  0
 20 21  1  0
 21 22  2  0
 22 23  1  0
 23 24  2  0
 24 25  1  0
 25 26  2  0
 26 27  1  0
 17 28  1  0
 28 29  2  0
 11 30  1  0
 30 31  1  0
  6 32  1  0
 32 33  2  0
 33  3  1  0
 31  8  1  0
 29 14  1  0
 26 21  1  0
  1 34  1  0
  1 35  1  0
  2 36  1  0
  4 37  1  0
  5 38  1  0
  7 39  1  0
  7 40  1  0
  8 41  1  0
  9 42  1  0
  9 43  1  0
 10 44  1  0
 10 45  1  0
 12 46  1  0
 12 47  1  0
 13 48  1  0
 13 49  1  0
 15 50  1  0
 16 51  1  0
 22 52  1  0
 23 53  1  0
 24 54  1  0
 25 55  1  0
 27 56  1  0
 27 57  1  0
 28 58  1  0
 29 59  1  0
 30 60  1  0
 30 61  1  0
 31 62  1  0
 31 63  1  0
 32 64  1  0
 33 65  1  0
M  CHG  2   8   1  20  -1
M  END
>  <UniqueID>  (9) 
9

>  <SMILES>  (9) 
C=Cc1ccc(C[NH+]2CCN(CCc3ccc(C(=O)[N-]c4ccccc4N)cc3)CC2)cc1

>  <Energy>  (9) 
96.04717091244667

>  <Genealogy>  (9) 
C=Cc1ccc(C[NH+]2CCN(CCc3ccc(C(=O)[N-]c4ccccc4N)cc3)CC2)cc1 (protonated)
C=Cc1ccc(C[NH+]2CCN(CCc3ccc(C(=O)[N-]c4ccccc4N)cc3)CC2)cc1 (3D coordinates assigned)
C=Cc1ccc(C[NH+]2CCN(CCc3ccc(C(=O)[N-]c4ccccc4N)cc3)CC2)cc1 (nonaromatic ring conformer: 96.04717091244667 kcal/mol)

>  <smiles>  (9) 
C=Cc1ccc(CN2CCN(CCc3ccc(C(=O)Nc4ccccc4N)cc3)CC2)cc1

>  <score_type>  (9) 
oracle

>  <origin>  (9) 
adg

>  <m_score__min__energy>  (9) 
-11.19

>  <m_primary>  (9) 
energy

$$$$
9:0
     RDKit          3D

 66 70  0  0  0  0  0  0  0  0999 V2000
   51.3820   32.7140   50.9170 N   0  0  0  0  0  0  0  0  0  0  0  0
   51.7940   31.3990   50.5540 C   0  0  0  0  0  0  0  0  0  0  0  0
   51.2980   30.8480   49.5350 O   0  0  0  0  0  0  0  0  0  0  0  0
   52.8010   30.6910   51.3600 C   0  0  0  0  0  0  0  0  0  0  0  0
   52.5250   29.6990   52.2950 C   0  0  0  0  0  0  0  0  0  0  0  0
   53.7570   29.3020   52.7650 C   0  0  0  0  0  0  0  0  0  0  0  0
   54.0850   28.3090   53.6820 C   0  0  0  0  0  0  0  0  0  0  0  0
   55.4440   28.0750   53.9340 C   0  0  0  0  0  0  0  0  0  0  0  0
   56.4380   28.8350   53.2820 C   0  0  0  0  0  0  0  0  0  0  0  0
   56.0890   29.8700   52.3750 C   0  0  0  0  0  0  0  0  0  0  0  0
   57.1340   30.6920   51.6320 C   0  0  2  0  0  0  0  0  0  0  0  0
   58.4990   29.9750   51.6360 C   0  0  0  0  0  0  0  0  0  0  0  0
   59.6700   30.9320   51.3210 C   0  0  0  0  0  0  0  0  0  0  0  0
   59.2280   32.0920   50.5100 N   0  0  2  0  0  0  0  0  0  0  0  0
   60.3900   32.9080   50.0650 C   0  0  0  0  0  0  0  0  0  0  0  0
   60.1660   33.5740   48.6720 C   0  0  0  0  0  0  0  0  0  0  0  0
   61.1100   33.0030   47.5930 C   0  0  0  0  0  0  0  0  0  0  0  0
   60.7680   31.5470   47.2010 C   0  0  0  0  0  0  0  0  0  0  0  0
   59.4310   31.1360   47.6750 N   0  0  0  0  0  0  0  0  0  0  0  0
   58.9800   29.6250   46.9260 S   0  0  0  0  0  0  0  0  0  0  0  0
   58.1650   28.7970   47.8820 O   0  0  0  0  0  0  0  0  0  0  0  0
   60.2120   28.8480   46.5470 O   0  0  0  0  0  0  0  0  0  0  0  0
   58.0500   29.9550   45.4680 C   0  0  0  0  0  0  0  0  0  0  0  0
   56.8450   29.2800   45.2210 C   0  0  0  0  0  0  0  0  0  0  0  0
   56.1010   29.5710   44.0740 C   0  0  0  0  0  0  0  0  0  0  0  0
   56.5510   30.5410   43.1740 C   0  0  0  0  0  0  0  0  0  0  0  0
   57.7460   31.2230   43.4210 C   0  0  0  0  0  0  0  0  0  0  0  0
   58.4940   30.9320   44.5660 C   0  0  0  0  0  0  0  0  0  0  0  0
   58.4270   32.1660   47.3760 C   0  0  0  0  0  0  0  0  0  0  0  0
   58.6960   33.4450   48.1950 C   0  0  0  0  0  0  0  0  0  0  0  0
   58.2760   32.9400   51.2780 C   0  0  0  0  0  0  0  0  0  0  0  0
   57.2920   32.1300   52.1560 C   0  0  0  0  0  0  0  0  0  0  0  0
   54.7140   30.0520   52.1260 C   0  0  0  0  0  0  0  0  0  0  0  0
   54.1340   30.9050   51.2580 N   0  0  0  0  0  0  0  0  0  0  0  0
   50.6170   32.8650   51.6120 H   0  0  0  0  0  0  0  0  0  0  0  0
   51.5383   29.3154   52.5937 H   0  0  0  0  0  0  0  0  0  0  0  0
   53.3039   27.7266   54.1926 H   0  0  0  0  0  0  0  0  0  0  0  0
   55.7384   27.2910   54.6472 H   0  0  0  0  0  0  0  0  0  0  0  0
   57.4991   28.6225   53.4793 H   0  0  0  0  0  0  0  0  0  0  0  0
   56.7596   30.7790   50.6013 H   0  0  0  0  0  0  0  0  0  0  0  0
   58.6623   29.5326   52.6298 H   0  0  0  0  0  0  0  0  0  0  0  0
   58.4751   29.2056   50.8502 H   0  0  0  0  0  0  0  0  0  0  0  0
   60.0943   31.2995   52.2670 H   0  0  0  0  0  0  0  0  0  0  0  0
   60.4212   30.3752   50.7417 H   0  0  0  0  0  0  0  0  0  0  0  0
   58.7240   31.7320   49.6660 H   0  0  0  0  0  0  0  0  0  0  0  0
   60.5682   33.6994   50.8079 H   0  0  0  0  0  0  0  0  0  0  0  0
   61.2525   32.2316   49.9727 H   0  0  0  0  0  0  0  0  0  0  0  0
   60.3993   34.6401   48.8100 H   0  0  0  0  0  0  0  0  0  0  0  0
   61.0382   33.6340   46.6948 H   0  0  0  0  0  0  0  0  0  0  0  0
   62.1267   33.0008   48.0128 H   0  0  0  0  0  0  0  0  0  0  0  0
   60.7963   31.4603   46.1048 H   0  0  0  0  0  0  0  0  0  0  0  0
   61.5097   30.8884   47.6765 H   0  0  0  0  0  0  0  0  0  0  0  0
   56.4853   28.5207   45.9310 H   0  0  0  0  0  0  0  0  0  0  0  0
   55.1599   29.0358   43.8794 H   0  0  0  0  0  0  0  0  0  0  0  0
   55.9648   30.7678   42.2713 H   0  0  0  0  0  0  0  0  0  0  0  0
   58.0981   31.9889   42.7143 H   0  0  0  0  0  0  0  0  0  0  0  0
   59.4332   31.4710   44.7595 H   0  0  0  0  0  0  0  0  0  0  0  0
   58.4673   32.4088   46.3039 H   0  0  0  0  0  0  0  0  0  0  0  0
   57.4328   31.7782   47.6429 H   0  0  0  0  0  0  0  0  0  0  0  0
   58.4549   34.3168   47.5691 H   0  0  0  0  0  0  0  0  0  0  0  0
   58.0662   33.3921   49.0953 H   0  0  0  0  0  0  0  0  0  0  0  0
   58.8555   33.6085   51.9317 H   0  0  0  0  0  0  0  0  0  0  0  0
   57.6720   33.4925   50.5432 H   0  0  0  0  0  0  0  0  0  0  0  0
   57.6748   32.0964   53.1867 H   0  0  0  0  0  0  0  0  0  0  0  0
   56.3091   32.6228   52.1235 H   0  0  0  0  0  0  0  0  0  0  0  0
   54.6040   31.5790   50.6140 H   0  0  0  0  0  0  0  0  0  0  0  0
  1  2  1  0
  2  3  2  0
  2  4  1  0
  4  5  2  0
  5  6  1  0
  6  7  2  0
  7  8  1  0
  8  9  2  0
  9 10  1  0
 10 11  1  0
 11 12  1  0
 12 13  1  0
 13 14  1  0
 14 15  1  0
 15 16  1  0
 16 17  1  0
 17 18  1  0
 18 19  1  0
 19 20  1  0
 20 21  2  0
 20 22  2  0
 20 23  1  0
 23 24  2  0
 24 25  1  0
 25 26  2  0
 26 27  1  0
 27 28  2  0
 19 29  1  0
 29 30  1  0
 14 31  1  0
 31 32  1  0
 10 33  2  0
 33 34  1  0
 34  4  1  0
 33  6  1  0
 32 11  1  0
 30 16  1  0
 28 23  1  0
  1 35  1  0
  5 36  1  0
  7 37  1  0
  8 38  1  0
  9 39  1  0
 11 40  1  6
 12 41  1  0
 12 42  1  0
 13 43  1  0
 13 44  1  0
 14 45  1  6
 15 46  1  0
 15 47  1  0
 16 48  1  0
 17 49  1  0
 17 50  1  0
 18 51  1  0
 18 52  1  0
 24 53  1  0
 25 54  1  0
 26 55  1  0
 27 56  1  0
 28 57  1  0
 29 58  1  0
 29 59  1  0
 30 60  1  0
 30 61  1  0
 31 62  1  0
 31 63  1  0
 32 64  1  0
 32 65  1  0
 34 66  1  0
M  CHG  2   1  -1  14   1
M  END
>  <UniqueID>  (10) 
10

>  <SMILES>  (10) 
[NH-]C(=O)c1cc2cccc(C3CC[NH+](CC4CCN(S(=O)(=O)c5ccccc5)CC4)CC3)c2[nH]1

>  <Energy>  (10) 
117.27021186564633

>  <Genealogy>  (10) 
[NH-]C(=O)c1cc2cccc(C3CC[NH+](CC4CCN(S(=O)(=O)c5ccccc5)CC4)CC3)c2[nH]1 (protonated)
[NH-]C(=O)c1cc2cccc(C3CC[NH+](CC4CCN(S(=O)(=O)c5ccccc5)CC4)CC3)c2[nH]1 (3D coordinates assigned)
[NH-]C(=O)c1cc2cccc(C3CC[NH+](CC4CCN(S(=O)(=O)c5ccccc5)CC4)CC3)c2[nH]1 (nonaromatic ring conformer: 117.27021186564633 kcal/mol)

>  <smiles>  (10) 
NC(=O)c1cc2cccc(C3CCN(CC4CCN(S(=O)(=O)c5ccccc5)CC4)CC3)c2[nH]1

>  <score_type>  (10) 
oracle

>  <origin>  (10) 
adg

>  <m_score__min__energy>  (10) 
-13.619999999999999

>  <m_primary>  (10) 
energy

$$$$
10:0
     RDKit          3D

 65 68  0  0  0  0  0  0  0  0999 V2000
   56.7210   20.4540   44.6670 C   0  0  0  0  0  0  0  0  0  0  0  0
   55.9070   21.6140   44.5360 O   0  0  0  0  0  0  0  0  0  0  0  0
   56.3960   22.9220   44.3930 C   0  0  0  0  0  0  0  0  0  0  0  0
   56.6740   23.4690   43.1260 C   0  0  0  0  0  0  0  0  0  0  0  0
   57.1700   24.7670   43.0030 C   0  0  0  0  0  0  0  0  0  0  0  0
   57.4060   25.5480   44.1430 C   0  0  0  0  0  0  0  0  0  0  0  0
   57.9380   26.9230   44.0090 C   0  0  0  0  0  0  0  0  0  0  0  0
   58.7050   27.2120   43.0500 O   0  0  0  0  0  0  0  0  0  0  0  0
   57.6310   27.8840   44.9830 O   0  0  0  0  0  0  0  0  0  0  0  0
   58.5680   28.5670   45.7740 C   0  0  0  0  0  0  0  0  0  0  0  0
   59.2730   27.9380   46.8150 C   0  0  0  0  0  0  0  0  0  0  0  0
   60.2070   28.6550   47.5700 C   0  0  0  0  0  0  0  0  0  0  0  0
   60.4660   30.0080   47.2870 C   0  0  0  0  0  0  0  0  0  0  0  0
   61.4480   30.7850   48.0810 C   0  0  0  0  0  0  0  0  0  0  0  0
   61.2140   31.0080   49.3000 O   0  0  0  0  0  0  0  0  0  0  0  0
   62.6470   31.3030   47.4790 N   0  0  0  0  0  0  0  0  0  0  0  0
   63.6460   32.0550   48.2390 C   0  0  0  0  0  0  0  0  0  0  0  0
   63.4320   33.5670   48.0960 C   0  0  0  0  0  0  0  0  0  0  0  0
   62.0020   33.8920   47.7490 C   0  0  0  0  0  0  0  0  0  0  0  0
   61.5780   33.8790   46.4090 C   0  0  0  0  0  0  0  0  0  0  0  0
   60.2430   34.1460   46.0900 C   0  0  0  0  0  0  0  0  0  0  0  0
   59.3220   34.4180   47.1060 C   0  0  0  0  0  0  0  0  0  0  0  0
   59.7320   34.4210   48.4410 C   0  0  0  0  0  0  0  0  0  0  0  0
   61.0670   34.1550   48.7640 C   0  0  0  0  0  0  0  0  0  0  0  0
   59.7640   30.6280   46.2390 C   0  0  0  0  0  0  0  0  0  0  0  0
   58.8330   29.9090   45.4840 C   0  0  0  0  0  0  0  0  0  0  0  0
   57.1320   25.0070   45.4090 C   0  0  0  0  0  0  0  0  0  0  0  0
   56.6180   23.7070   45.5440 C   0  0  0  0  0  0  0  0  0  0  0  0
   56.2630   23.0890   47.1690 S   0  0  0  0  0  0  0  0  0  0  0  0
   56.7300   24.0960   48.1840 O   0  0  0  0  0  0  0  0  0  0  0  0
   57.0240   21.8140   47.4090 O   0  0  0  0  0  0  0  0  0  0  0  0
   54.5530   22.7980   47.4030 N   0  0  0  0  0  0  0  0  0  0  0  0
   53.7650   23.4220   46.3230 C   0  0  0  0  0  0  0  0  0  0  0  0
   52.3840   22.7570   46.2010 C   0  0  0  0  0  0  0  0  0  0  0  0
   52.4380   21.3670   45.9030 O   0  0  0  0  0  0  0  0  0  0  0  0
   53.6450   20.7380   46.3120 C   0  0  0  0  0  0  0  0  0  0  0  0
   54.2550   21.3600   47.5810 C   0  0  0  0  0  0  0  0  0  0  0  0
   56.8759   20.2333   45.7334 H   0  0  0  0  0  0  0  0  0  0  0  0
   56.2229   19.6002   44.1844 H   0  0  0  0  0  0  0  0  0  0  0  0
   57.6933   20.6320   44.1844 H   0  0  0  0  0  0  0  0  0  0  0  0
   56.4981   22.8661   42.2229 H   0  0  0  0  0  0  0  0  0  0  0  0
   57.3773   25.1804   42.0049 H   0  0  0  0  0  0  0  0  0  0  0  0
   59.0892   26.8764   47.0369 H   0  0  0  0  0  0  0  0  0  0  0  0
   60.7430   28.1568   48.3913 H   0  0  0  0  0  0  0  0  0  0  0  0
   62.8130   31.1810   46.4560 H   0  0  0  0  0  0  0  0  0  0  0  0
   63.5689   31.7810   49.3015 H   0  0  0  0  0  0  0  0  0  0  0  0
   64.6423   31.8063   47.8445 H   0  0  0  0  0  0  0  0  0  0  0  0
   63.6890   34.0559   49.0473 H   0  0  0  0  0  0  0  0  0  0  0  0
   64.0760   33.9313   47.2820 H   0  0  0  0  0  0  0  0  0  0  0  0
   62.2991   33.6580   45.6082 H   0  0  0  0  0  0  0  0  0  0  0  0
   59.9174   34.1420   45.0393 H   0  0  0  0  0  0  0  0  0  0  0  0
   58.2726   34.6300   46.8534 H   0  0  0  0  0  0  0  0  0  0  0  0
   59.0050   34.6326   49.2389 H   0  0  0  0  0  0  0  0  0  0  0  0
   61.3858   34.1518   49.8168 H   0  0  0  0  0  0  0  0  0  0  0  0
   59.9488   31.6881   46.0110 H   0  0  0  0  0  0  0  0  0  0  0  0
   58.3046   30.4028   44.6552 H   0  0  0  0  0  0  0  0  0  0  0  0
   57.3227   25.6103   46.3088 H   0  0  0  0  0  0  0  0  0  0  0  0
   53.6322   24.4912   46.5449 H   0  0  0  0  0  0  0  0  0  0  0  0
   54.3041   23.2924   45.3729 H   0  0  0  0  0  0  0  0  0  0  0  0
   51.8518   22.8863   47.1550 H   0  0  0  0  0  0  0  0  0  0  0  0
   51.8682   23.2440   45.3603 H   0  0  0  0  0  0  0  0  0  0  0  0
   53.4361   19.6762   46.5092 H   0  0  0  0  0  0  0  0  0  0  0  0
   54.3745   20.8726   45.4997 H   0  0  0  0  0  0  0  0  0  0  0  0
   53.5426   21.2447   48.4111 H   0  0  0  0  0  0  0  0  0  0  0  0
   55.2006   20.8401   47.7943 H   0  0  0  0  0  0  0  0  0  0  0  0
  1  2  1  0
  2  3  1  0
  3  4  2  0
  4  5  1  0
  5  6  2  0
  6  7  1  0
  7  8  2  0
  7  9  1  0
  9 10  1  0
 10 11  2  0
 11 12  1  0
 12 13  2  0
 13 14  1  0
 14 15  2  0
 14 16  1  0
 16 17  1  0
 17 18  1  0
 18 19  1  0
 19 20  2  0
 20 21  1  0
 21 22  2  0
 22 23  1  0
 23 24  2  0
 13 25  1  0
 25 26  2  0
  6 27  1  0
 27 28  2  0
 28 29  1  0
 29 30  2  0
 29 31  2  0
 29 32  1  0
 32 33  1  0
 33 34  1  0
 34 35  1  0
 35 36  1  0
 36 37  1  0
 28  3  1  0
 37 32  1  0
 26 10  1  0
 24 19  1  0
  1 38  1  0
  1 39  1  0
  1 40  1  0
  4 41  1  0
  5 42  1  0
 11 43  1  0
 12 44  1  0
 16 45  1  0
 17 46  1  0
 17 47  1  0
 18 48  1  0
 18 49  1  0
 20 50  1  0
 21 51  1  0
 22 52  1  0
 23 53  1  0
 24 54  1  0
 25 55  1  0
 26 56  1  0
 27 57  1  0
 33 58  1  0
 33 59  1  0
 34 60  1  0
 34 61  1  0
 36 62  1  0
 36 63  1  0
 37 64  1  0
 37 65  1  0
M  END
>  <UniqueID>  (11) 
11

>  <SMILES>  (11) 
COc1ccc(C(=O)Oc2ccc(C(=O)NCCc3ccccc3)cc2)cc1S(=O)(=O)N1CCOCC1

>  <Energy>  (11) 
83.28677080930039

>  <Genealogy>  (11) 
COc1ccc(C(=O)Oc2ccc(C(=O)NCCc3ccccc3)cc2)cc1S(=O)(=O)N1CCOCC1 (3D coordinates assigned)
COc1ccc(C(=O)Oc2ccc(C(=O)NCCc3ccccc3)cc2)cc1S(=O)(=O)N1CCOCC1 (nonaromatic ring conformer: 83.28677080930039 kcal/mol)

>  <smiles>  (11) 
COc1ccc(C(=O)Oc2ccc(C(=O)NCCc3ccccc3)cc2)cc1S(=O)(=O)N1CCOCC1

>  <score_type>  (11) 
oracle

>  <origin>  (11) 
adg

>  <m_score__min__energy>  (11) 
-10.32

>  <m_primary>  (11) 
energy

$$$$
11:0
     RDKit          3D

 46 47  0  0  0  0  0  0  0  0999 V2000
   57.4000   32.2930   41.0050 C   0  0  0  0  0  0  0  0  0  0  0  0
   58.1980   32.3410   42.3040 C   0  0  0  0  0  0  0  0  0  0  0  0
   57.3580   31.8930   43.4390 N   0  0  0  0  0  0  0  0  0  0  0  0
   58.1250   31.8740   44.7080 C   0  0  0  0  0  0  0  0  0  0  0  0
   57.7500   33.0420   45.6200 C   0  0  0  0  0  0  0  0  0  0  0  0
   56.6460   30.6240   43.1430 C   0  0  0  0  0  0  0  0  0  0  0  0
   55.5070   30.3000   44.1210 C   0  0  0  0  0  0  0  0  0  0  0  0
   55.8630   29.1260   44.9090 N   0  0  0  0  0  0  0  0  0  0  0  0
   57.0680   28.3730   44.7410 C   0  0  0  0  0  0  0  0  0  0  0  0
   57.4730   28.1250   43.5750 O   0  0  0  0  0  0  0  0  0  0  0  0
   57.8630   27.9030   45.8920 C   0  0  0  0  0  0  0  0  0  0  0  0
   58.2950   28.7580   46.9190 C   0  0  0  0  0  0  0  0  0  0  0  0
   58.9120   28.1000   47.9750 C   0  0  0  0  0  0  0  0  0  0  0  0
   58.9110   26.4500   47.6520 S   0  0  0  0  0  0  0  0  0  0  0  0
   58.1490   26.5620   46.1590 C   0  0  0  0  0  0  0  0  0  0  0  0
   57.8270   25.4300   45.3410 N   0  0  0  0  0  0  0  0  0  0  0  0
   56.6160   24.6740   45.4970 C   0  0  0  0  0  0  0  0  0  0  0  0
   55.6250   25.1930   46.0800 O   0  0  0  0  0  0  0  0  0  0  0  0
   56.4800   23.3090   44.9500 C   0  0  0  0  0  0  0  0  0  0  0  0
   55.9820   23.0710   43.7270 C   0  0  0  0  0  0  0  0  0  0  0  0
   55.9340   21.7600   43.2370 O   0  0  0  0  0  0  0  0  0  0  0  0
   56.6420   20.6970   43.8740 C   0  0  0  0  0  0  0  0  0  0  0  0
   56.5850   20.8760   45.3910 C   0  0  0  0  0  0  0  0  0  0  0  0
   56.9140   22.2250   45.7270 O   0  0  0  0  0  0  0  0  0  0  0  0
   56.3265   32.2284   41.2363 H   0  0  0  0  0  0  0  0  0  0  0  0
   57.5951   33.2045   40.4209 H   0  0  0  0  0  0  0  0  0  0  0  0
   57.7029   31.4115   40.4209 H   0  0  0  0  0  0  0  0  0  0  0  0
   59.0732   31.6804   42.2171 H   0  0  0  0  0  0  0  0  0  0  0  0
   58.5241   33.3756   42.4861 H   0  0  0  0  0  0  0  0  0  0  0  0
   57.9172   30.9309   45.2347 H   0  0  0  0  0  0  0  0  0  0  0  0
   59.1932   31.9643   44.4613 H   0  0  0  0  0  0  0  0  0  0  0  0
   57.8492   32.7330   46.6710 H   0  0  0  0  0  0  0  0  0  0  0  0
   58.4206   33.8913   45.4226 H   0  0  0  0  0  0  0  0  0  0  0  0
   56.7103   33.3422   45.4226 H   0  0  0  0  0  0  0  0  0  0  0  0
   56.2221   30.6940   42.1304 H   0  0  0  0  0  0  0  0  0  0  0  0
   57.3859   29.8157   43.2395 H   0  0  0  0  0  0  0  0  0  0  0  0
   55.3448   31.1566   44.7918 H   0  0  0  0  0  0  0  0  0  0  0  0
   54.5851   30.0971   43.5563 H   0  0  0  0  0  0  0  0  0  0  0  0
   58.1573   29.8489   46.8897 H   0  0  0  0  0  0  0  0  0  0  0  0
   59.3312   28.5783   48.8725 H   0  0  0  0  0  0  0  0  0  0  0  0
   58.4010   25.2800   44.4820 H   0  0  0  0  0  0  0  0  0  0  0  0
   55.6123   23.9037   43.1107 H   0  0  0  0  0  0  0  0  0  0  0  0
   56.1812   19.7360   43.6017 H   0  0  0  0  0  0  0  0  0  0  0  0
   57.6916   20.7099   43.5450 H   0  0  0  0  0  0  0  0  0  0  0  0
   55.5704   20.6466   45.7488 H   0  0  0  0  0  0  0  0  0  0  0  0
   57.3060   20.1948   45.8666 H   0  0  0  0  0  0  0  0  0  0  0  0
  1  2  1  0
  2  3  1  0
  3  4  1  0
  4  5  1  0
  3  6  1  0
  6  7  1  0
  7  8  1  0
  8  9  1  0
  9 10  2  0
  9 11  1  0
 11 12  1  0
 12 13  2  0
 13 14  1  0
 14 15  1  0
 15 16  1  0
 16 17  1  0
 17 18  2  0
 17 19  1  0
 19 20  2  0
 20 21  1  0
 21 22  1  0
 22 23  1  0
 23 24  1  0
 15 11  2  0
 24 19  1  0
  1 25  1  0
  1 26  1  0
  1 27  1  0
  2 28  1  0
  2 29  1  0
  4 30  1  0
  4 31  1  0
  5 32  1  0
  5 33  1  0
  5 34  1  0
  6 35  1  0
  6 36  1  0
  7 37  1  0
  7 38  1  0
 12 39  1  0
 13 40  1  0
 16 41  1  0
 20 42  1  0
 22 43  1  0
 22 44  1  0
 23 45  1  0
 23 46  1  0
M  CHG  1   8  -1
M  END
>  <UniqueID>  (12) 
12

>  <SMILES>  (12) 
CCN(CC)CC[N-]C(=O)c1ccsc1NC(=O)C1=COCCO1

>  <Energy>  (12) 
78.57413568420726

>  <Genealogy>  (12) 
CCN(CC)CC[N-]C(=O)c1ccsc1NC(=O)C1=COCCO1 (protonated)
CCN(CC)CC[N-]C(=O)c1ccsc1NC(=O)C1=COCCO1 (3D coordinates assigned)
CCN(CC)CC[N-]C(=O)c1ccsc1NC(=O)C1=COCCO1 (nonaromatic ring conformer: 78.57413568420726 kcal/mol)

>  <smiles>  (12) 
CCN(CC)CCNC(=O)c1ccsc1NC(=O)C1=COCCO1

>  <score_type>  (12) 
oracle

>  <origin>  (12) 
adg

>  <m_score__min__energy>  (12) 
-8.7699999999999996

>  <m_primary>  (12) 
energy

$$$$
12:0
     RDKit          3D

 46 48  0  0  0  0  0  0  0  0999 V2000
   53.5377   24.3649   45.6748 H   0  0  0  0  0  0  0  0  0  0  0  0
   54.5260   23.9910   45.3690 C   0  0  0  0  0  0  0  0  0  0  0  0
   54.6220   23.0670   44.3790 N   0  0  0  0  0  0  0  0  0  0  0  0
   55.8260   22.5750   43.9740 C   0  0  0  0  0  0  0  0  0  0  0  0
   55.9040   21.6200   42.9560 O   0  0  0  0  0  0  0  0  0  0  0  0
   57.0180   20.7480   42.8020 C   0  0  0  0  0  0  0  0  0  0  0  0
   57.3934   20.4541   43.7933 H   0  0  0  0  0  0  0  0  0  0  0  0
   56.7072   19.8507   42.2468 H   0  0  0  0  0  0  0  0  0  0  0  0
   57.8145   21.2651   42.2468 H   0  0  0  0  0  0  0  0  0  0  0  0
   57.0000   23.0270   44.5820 C   0  0  0  0  0  0  0  0  0  0  0  0
   57.9728   22.6227   44.2654 H   0  0  0  0  0  0  0  0  0  0  0  0
   56.9410   23.9940   45.5940 C   0  0  0  0  0  0  0  0  0  0  0  0
   58.0620   24.3840   46.1390 N   0  0  0  0  0  0  0  0  0  0  0  0
   58.3520   25.6000   46.8490 C   0  0  0  0  0  0  0  0  0  0  0  0
   58.5200   25.5850   48.0990 O   0  0  0  0  0  0  0  0  0  0  0  0
   58.3640   26.8920   46.1230 C   0  0  0  0  0  0  0  0  0  0  0  0
   57.1800   27.6330   45.9590 C   0  0  0  0  0  0  0  0  0  0  0  0
   56.2361   27.2517   46.3757 H   0  0  0  0  0  0  0  0  0  0  0  0
   57.1920   28.8500   45.2710 C   0  0  0  0  0  0  0  0  0  0  0  0
   56.2603   29.4240   45.1591 H   0  0  0  0  0  0  0  0  0  0  0  0
   58.3860   29.3440   44.7220 C   0  0  0  0  0  0  0  0  0  0  0  0
   58.4300   30.6060   44.0320 N   0  0  0  0  0  0  0  0  0  0  0  0
   59.0390   30.6810   43.1860 H   0  0  0  0  0  0  0  0  0  0  0  0
   57.6120   31.7370   44.3690 C   0  0  0  0  0  0  0  0  0  0  0  0
   56.6450   31.6170   45.1690 O   0  0  0  0  0  0  0  0  0  0  0  0
   57.9010   33.0730   43.7640 C   0  0  0  0  0  0  0  0  0  0  0  0
   58.9861   33.1853   43.6224 H   0  0  0  0  0  0  0  0  0  0  0  0
   57.3960   33.1536   42.7901 H   0  0  0  0  0  0  0  0  0  0  0  0
   57.2940   34.3810   44.8760 S   0  0  0  0  0  0  0  0  0  0  0  0
   58.5190   34.0410   46.1410 C   0  0  0  0  0  0  0  0  0  0  0  0
   58.1500   33.3690   47.3140 C   0  0  0  0  0  0  0  0  0  0  0  0
   57.1082   33.0469   47.4589 H   0  0  0  0  0  0  0  0  0  0  0  0
   59.1060   33.1080   48.3000 C   0  0  0  0  0  0  0  0  0  0  0  0
   58.8157   32.5792   49.2199 H   0  0  0  0  0  0  0  0  0  0  0  0
   60.4310   33.5180   48.1190 C   0  0  0  0  0  0  0  0  0  0  0  0
   61.1823   33.3103   48.8952 H   0  0  0  0  0  0  0  0  0  0  0  0
   60.8000   34.1920   46.9510 C   0  0  0  0  0  0  0  0  0  0  0  0
   61.8418   34.5152   46.8090 H   0  0  0  0  0  0  0  0  0  0  0  0
   59.8450   34.4560   45.9620 C   0  0  0  0  0  0  0  0  0  0  0  0
   60.1357   34.9891   45.0447 H   0  0  0  0  0  0  0  0  0  0  0  0
   59.5720   28.6190   44.9040 C   0  0  0  0  0  0  0  0  0  0  0  0
   60.5182   29.0116   44.5034 H   0  0  0  0  0  0  0  0  0  0  0  0
   59.5620   27.4020   45.5900 C   0  0  0  0  0  0  0  0  0  0  0  0
   60.4982   26.8381   45.7144 H   0  0  0  0  0  0  0  0  0  0  0  0
   55.6760   24.4690   46.0010 C   0  0  0  0  0  0  0  0  0  0  0  0
   55.5964   25.2101   46.8099 H   0  0  0  0  0  0  0  0  0  0  0  0
  1  2  1  0
  2  3  1  0
  3  4  1  0
  4  5  1  0
  5  6  1  0
  6  7  1  0
  6  8  1  0
  6  9  1  0
  4 10  2  0
 10 11  1  0
 10 12  1  0
 12 13  2  0
 13 14  1  0
 14 15  2  0
 14 16  1  0
 16 17  2  0
 17 18  1  0
 17 19  1  0
 19 20  1  0
 19 21  2  0
 21 22  1  0
 22 23  1  0
 22 24  1  0
 24 25  2  0
 24 26  1  0
 26 27  1  0
 26 28  1  0
 26 29  1  0
 29 30  1  0
 30 31  2  0
 31 32  1  0
 31 33  1  0
 33 34  1  0
 33 35  2  0
 35 36  1  0
 35 37  1  0
 37 38  1  0
 37 39  2  0
 39 40  1  0
 21 41  1  0
 41 42  1  0
 41 43  2  0
 43 44  1  0
 12 45  1  0
 45 46  1  0
 45  2  2  0
 43 16  1  0
 39 30  1  0
M  CHG  1   3  -1
M  END
>  <UniqueID>  (13) 
13

>  <SMILES>  (13) 
COc1c/c(=N/C(=O)c2ccc(NC(=O)CSc3ccccc3)cc2)cc[n-]1

>  <Energy>  (13) 
53.65450723795304

>  <Genealogy>  (13) 
COc1cc(=NC(=O)c2ccc(NC(=O)CSc3ccccc3)cc2)cc[n-]1 (protonated)
COc1c/c(=N/C(=O)c2ccc(NC(=O)CSc3ccccc3)cc2)cc[n-]1 (cis-trans isomerization)
COc1c/c(=N/C(=O)c2ccc(NC(=O)CSc3ccccc3)cc2)cc[n-]1 (3D coordinates assigned)
COc1c/c(=N/C(=O)c2ccc(NC(=O)CSc3ccccc3)cc2)cc[n-]1 (optimized conformer: 53.65450723795304 kcal/mol)

>  <smiles>  (13) 
COc1cc(=NC(=O)c2ccc(NC(=O)CSc3ccccc3)cc2)cc[nH]1

>  <score_type>  (13) 
oracle

>  <origin>  (13) 
adg

>  <m_score__min__energy>  (13) 
-11.48

>  <m_primary>  (13) 
energy

$$$$
13:0
     RDKit          3D

 42 44  0  0  0  0  0  0  0  0999 V2000
   55.9790   27.3480   45.6200 N   0  0  0  0  0  0  0  0  0  0  0  0
   57.3020   27.9010   45.6390 C   0  0  0  0  0  0  0  0  0  0  0  0
   58.3210   27.1860   46.2880 C   0  0  0  0  0  0  0  0  0  0  0  0
   59.6150   27.7020   46.3620 C   0  0  0  0  0  0  0  0  0  0  0  0
   59.9060   28.9420   45.7950 C   0  0  0  0  0  0  0  0  0  0  0  0
   58.9060   29.6640   45.1410 C   0  0  0  0  0  0  0  0  0  0  0  0
   57.6010   29.1500   45.0400 C   0  0  0  0  0  0  0  0  0  0  0  0
   56.3770   30.0850   44.1650 S   0  0  0  0  0  0  0  0  0  0  0  0
   55.0530   29.3830   44.2850 O   0  0  0  0  0  0  0  0  0  0  0  0
   56.7440   30.2010   42.7120 O   0  0  0  0  0  0  0  0  0  0  0  0
   56.2120   31.6800   44.8260 N   0  0  0  0  0  0  0  0  0  0  0  0
   57.2990   32.5370   45.2080 C   0  0  0  0  0  0  0  0  0  0  0  0
   57.6940   33.6360   44.4270 C   0  0  0  0  0  0  0  0  0  0  0  0
   58.7650   34.4340   44.8320 C   0  0  0  0  0  0  0  0  0  0  0  0
   59.4480   34.1490   46.0170 C   0  0  0  0  0  0  0  0  0  0  0  0
   59.0630   33.0580   46.8170 C   0  0  0  0  0  0  0  0  0  0  0  0
   59.7820   32.7280   48.0750 C   0  0  0  0  0  0  0  0  0  0  0  0
   59.0970   32.3160   49.2320 C   0  0  0  0  0  0  0  0  0  0  0  0
   59.8190   32.0090   50.3880 C   0  0  0  0  0  0  0  0  0  0  0  0
   61.2120   32.1070   50.3850 C   0  0  0  0  0  0  0  0  0  0  0  0
   61.8650   32.5100   49.2180 C   0  0  0  0  0  0  0  0  0  0  0  0
   63.6140   32.6360   49.1790 S   0  0  0  0  0  0  0  0  0  0  0  0
   64.1480   32.8140   47.5420 N   0  0  0  0  0  0  0  0  0  0  0  0
   64.2220   31.3930   49.7670 O   0  0  0  0  0  0  0  0  0  0  0  0
   64.0490   33.8360   49.9710 O   0  0  0  0  0  0  0  0  0  0  0  0
   61.1420   32.8050   48.1040 N   0  0  0  0  0  0  0  0  0  0  0  0
   57.9900   32.2510   46.3920 C   0  0  0  0  0  0  0  0  0  0  0  0
   55.8270   26.3500   45.3520 H   0  0  0  0  0  0  0  0  0  0  0  0
   55.1410   27.8890   45.9220 H   0  0  0  0  0  0  0  0  0  0  0  0
   58.0970   26.2096   46.7425 H   0  0  0  0  0  0  0  0  0  0  0  0
   60.4065   27.1299   46.8682 H   0  0  0  0  0  0  0  0  0  0  0  0
   60.9245   29.3519   45.8630 H   0  0  0  0  0  0  0  0  0  0  0  0
   59.1411   30.6442   44.7006 H   0  0  0  0  0  0  0  0  0  0  0  0
   57.1582   33.8679   43.4947 H   0  0  0  0  0  0  0  0  0  0  0  0
   59.0728   35.2913   44.2153 H   0  0  0  0  0  0  0  0  0  0  0  0
   60.2926   34.7821   46.3265 H   0  0  0  0  0  0  0  0  0  0  0  0
   57.9999   32.2360   49.2269 H   0  0  0  0  0  0  0  0  0  0  0  0
   59.2911   31.6906   51.2990 H   0  0  0  0  0  0  0  0  0  0  0  0
   61.7884   31.8695   51.2913 H   0  0  0  0  0  0  0  0  0  0  0  0
   64.2400   31.8530   47.1440 H   0  0  0  0  0  0  0  0  0  0  0  0
   65.1100   33.2190   47.5770 H   0  0  0  0  0  0  0  0  0  0  0  0
   57.6904   31.3837   46.9986 H   0  0  0  0  0  0  0  0  0  0  0  0
  1  2  1  0
  2  3  2  0
  3  4  1  0
  4  5  2  0
  5  6  1  0
  6  7  2  0
  7  8  1  0
  8  9  2  0
  8 10  2  0
  8 11  1  0
 11 12  1  0
 12 13  2  0
 13 14  1  0
 14 15  2  0
 15 16  1  0
 16 17  1  0
 17 18  2  0
 18 19  1  0
 19 20  2  0
 20 21  1  0
 21 22  1  0
 22 23  1  0
 22 24  2  0
 22 25  2  0
 21 26  2  0
 16 27  2  0
  7  2  1  0
 27 12  1  0
 26 17  1  0
  1 28  1  0
  1 29  1  0
  3 30  1  0
  4 31  1  0
  5 32  1  0
  6 33  1  0
 13 34  1  0
 14 35  1  0
 15 36  1  0
 18 37  1  0
 19 38  1  0
 20 39  1  0
 23 40  1  0
 23 41  1  0
 27 42  1  0
M  CHG  1  11  -1
M  END
>  <UniqueID>  (14) 
14

>  <SMILES>  (14) 
Nc1ccccc1S(=O)(=O)[N-]c1cccc(-c2cccc(S(N)(=O)=O)n2)c1

>  <Energy>  (14) 
52.48168267170065

>  <Genealogy>  (14) 
Nc1ccccc1S(=O)(=O)[N-]c1cccc(-c2cccc(S(N)(=O)=O)n2)c1 (protonated)
Nc1ccccc1S(=O)(=O)[N-]c1cccc(-c2cccc(S(N)(=O)=O)n2)c1 (3D coordinates assigned)
Nc1ccccc1S(=O)(=O)[N-]c1cccc(-c2cccc(S(N)(=O)=O)n2)c1 (optimized conformer: 52.48168267170065 kcal/mol)

>  <smiles>  (14) 
Nc1ccccc1S(=O)(=O)Nc1cccc(-c2cccc(S(N)(=O)=O)n2)c1

>  <score_type>  (14) 
oracle

>  <origin>  (14) 
adg

>  <m_score__min__energy>  (14) 
-11.380000000000001

>  <m_primary>  (14) 
energy

$$$$
14:0
     RDKit          3D

 41 43  0  0  0  0  0  0  0  0999 V2000
   60.7900   30.8610   49.0030 C   0  0  0  0  0  0  0  0  0  0  0  0
   59.9050   32.1230   49.0870 C   0  0  1  0  0  0  0  0  0  0  0  0
   59.2120   32.1480   50.4720 C   0  0  0  0  0  0  0  0  0  0  0  0
   58.1410   31.2550   50.7150 C   0  0  0  0  0  0  0  0  0  0  0  0
   57.4700   31.2250   51.9470 C   0  0  0  0  0  0  0  0  0  0  0  0
   56.3230   30.2650   52.1430 C   0  0  0  0  0  0  0  0  0  0  0  0
   55.0910   30.8330   51.6010 N   0  0  0  0  0  0  0  0  0  0  0  0
   53.7990   30.5270   52.1500 C   0  0  0  0  0  0  0  0  0  0  0  0
   53.6940   29.6570   53.0580 O   0  0  0  0  0  0  0  0  0  0  0  0
   52.5840   31.2100   51.6740 C   0  0  0  0  0  0  0  0  0  0  0  0
   51.6660   31.9070   52.4330 C   0  0  0  0  0  0  0  0  0  0  0  0
   50.6930   32.3720   51.6290 N   0  0  0  0  0  0  0  0  0  0  0  0
   51.0590   31.9390   50.4070 C   0  0  0  0  0  0  0  0  0  0  0  0
   50.3860   32.1780   49.3720 O   0  0  0  0  0  0  0  0  0  0  0  0
   52.2020   31.2250   50.3830 N   0  0  0  0  0  0  0  0  0  0  0  0
   57.8580   32.1080   52.9630 C   0  0  0  0  0  0  0  0  0  0  0  0
   57.2260   32.1120   54.1640 F   0  0  0  0  0  0  0  0  0  0  0  0
   58.8970   33.0080   52.7420 C   0  0  0  0  0  0  0  0  0  0  0  0
   59.5680   33.0420   51.5160 C   0  0  0  0  0  0  0  0  0  0  0  0
   60.5440   33.9680   51.3780 F   0  0  0  0  0  0  0  0  0  0  0  0
   60.8180   33.3730   48.9130 C   0  0  0  0  0  0  0  0  0  0  0  0
   60.0170   34.6630   48.7380 C   0  0  0  0  0  0  0  0  0  0  0  0
   59.3040   34.6870   47.0720 S   0  0  0  0  0  0  0  0  0  0  0  0
   58.3450   33.2020   47.3480 C   0  0  0  0  0  0  0  0  0  0  0  0
   57.1240   33.1670   46.9200 N   0  0  0  0  0  0  0  0  0  0  0  0
   58.9290   32.0480   47.9800 N   0  0  0  0  0  0  0  0  0  0  0  0
   61.0326   30.5150   50.0186 H   0  0  0  0  0  0  0  0  0  0  0  0
   60.2487   30.0687   48.4653 H   0  0  0  0  0  0  0  0  0  0  0  0
   61.7194   31.1000   48.4653 H   0  0  0  0  0  0  0  0  0  0  0  0
   57.8264   30.5664   49.9170 H   0  0  0  0  0  0  0  0  0  0  0  0
   56.5467   29.3210   51.6245 H   0  0  0  0  0  0  0  0  0  0  0  0
   56.1898   30.0801   53.2191 H   0  0  0  0  0  0  0  0  0  0  0  0
   55.1710   31.4770   50.7840 H   0  0  0  0  0  0  0  0  0  0  0  0
   51.7212   32.0581   53.5212 H   0  0  0  0  0  0  0  0  0  0  0  0
   59.1939   33.7015   53.5426 H   0  0  0  0  0  0  0  0  0  0  0  0
   61.4550   33.4714   49.8044 H   0  0  0  0  0  0  0  0  0  0  0  0
   61.4170   33.2253   48.0023 H   0  0  0  0  0  0  0  0  0  0  0  0
   59.2110   34.7019   49.4856 H   0  0  0  0  0  0  0  0  0  0  0  0
   60.6758   35.5332   48.8749 H   0  0  0  0  0  0  0  0  0  0  0  0
   56.7540   33.8770   46.2510 H   0  0  0  0  0  0  0  0  0  0  0  0
   58.4700   31.1250   47.8030 H   0  0  0  0  0  0  0  0  0  0  0  0
  2  1  1  1
  2  3  1  0
  3  4  2  0
  4  5  1  0
  5  6  1  0
  6  7  1  0
  7  8  1  0
  8  9  2  0
  8 10  1  0
 10 11  2  0
 11 12  1  0
 12 13  1  0
 13 14  2  0
 13 15  1  0
  5 16  2  0
 16 17  1  0
 16 18  1  0
 18 19  2  0
 19 20  1  0
  2 21  1  0
 21 22  1  0
 22 23  1  0
 23 24  1  0
 24 25  2  3
 24 26  1  0
 26  2  1  0
 19  3  1  0
 15 10  1  0
  1 27  1  0
  1 28  1  0
  1 29  1  0
  4 30  1  0
  6 31  1  0
  6 32  1  0
  7 33  1  0
 11 34  1  0
 18 35  1  0
 21 36  1  0
 21 37  1  0
 22 38  1  0
 22 39  1  0
 25 40  1  0
 26 41  1  0
M  CHG  2  12  -1  15  -1
M  END
>  <UniqueID>  (15) 
15

>  <SMILES>  (15) 
C[C@@]1(c2cc(CNC(=O)c3c[n-]c(=O)[n-]3)c(F)cc2F)CCSC(=N)N1

>  <Energy>  (15) 
77.3094910699871

>  <Genealogy>  (15) 
CC1(c2cc(CNC(=O)c3c[n-]c(=O)[n-]3)c(F)cc2F)CCSC(=N)N1 (protonated)
C[C@@]1(c2cc(CNC(=O)c3c[n-]c(=O)[n-]3)c(F)cc2F)CCSC(=N)N1 (chirality)
C[C@@]1(c2cc(CNC(=O)c3c[n-]c(=O)[n-]3)c(F)cc2F)CCSC(=N)N1 (3D coordinates assigned)
C[C@@]1(c2cc(CNC(=O)c3c[n-]c(=O)[n-]3)c(F)cc2F)CCSC(=N)N1 (nonaromatic ring conformer: 77.3094910699871 kcal/mol)

>  <smiles>  (15) 
CC1(c2cc(CNC(=O)c3c[nH]c(=O)[nH]3)c(F)cc2F)CCSC(=N)N1

>  <score_type>  (15) 
oracle

>  <origin>  (15) 
adg

>  <m_score__min__energy>  (15) 
-12.75

>  <m_primary>  (15) 
energy

$$$$
15:0
     RDKit          3D

 60 63  0  0  0  0  0  0  0  0999 V2000
   54.7900   26.3000   45.8070 N   0  0  0  0  0  0  0  0  0  0  0  0
   56.0030   25.8780   46.4280 C   0  0  0  0  0  0  0  0  0  0  0  0
   56.1230   24.6840   46.8150 O   0  0  0  0  0  0  0  0  0  0  0  0
   57.1110   26.8320   46.6060 C   0  0  0  0  0  0  0  0  0  0  0  0
   58.1600   26.7170   47.4980 C   0  0  0  0  0  0  0  0  0  0  0  0
   58.9190   27.8640   47.3310 C   0  0  0  0  0  0  0  0  0  0  0  0
   60.2040   28.1680   48.0470 C   0  0  0  0  0  0  0  0  0  0  0  0
   60.4830   29.6880   48.1520 C   0  0  0  0  0  0  0  0  0  0  0  0
   61.5080   30.0000   49.2610 C   0  0  0  0  0  0  0  0  0  0  0  0
   60.8840   29.9040   50.6600 C   0  0  0  0  0  0  0  0  0  0  0  0
   59.7160   30.7840   50.7830 N   0  0  0  0  0  0  0  0  0  0  0  0
   58.6800   30.4250   49.8090 C   0  0  0  0  0  0  0  0  0  0  0  0
   59.1990   30.5200   48.3650 C   0  0  0  0  0  0  0  0  0  0  0  0
   58.3880   28.6280   46.4020 O   0  0  0  0  0  0  0  0  0  0  0  0
   57.3040   28.0360   45.9550 C   0  0  0  0  0  0  0  0  0  0  0  0
   56.4730   28.5750   44.9190 N   0  0  0  0  0  0  0  0  0  0  0  0
   57.0240   29.1980   43.7570 C   0  0  0  0  0  0  0  0  0  0  0  0
   56.9760   28.5950   42.6530 O   0  0  0  0  0  0  0  0  0  0  0  0
   57.5790   30.5640   43.8240 C   0  0  0  0  0  0  0  0  0  0  0  0
   58.3060   30.9600   44.9590 C   0  0  0  0  0  0  0  0  0  0  0  0
   58.8580   32.2450   45.0450 C   0  0  0  0  0  0  0  0  0  0  0  0
   59.5460   32.6750   46.2230 N   0  0  0  0  0  0  0  0  0  0  0  0
   59.1880   34.1270   47.1040 S   0  0  0  0  0  0  0  0  0  0  0  0
   59.5720   35.3100   46.2630 O   0  0  0  0  0  0  0  0  0  0  0  0
   57.7070   34.1710   47.3620 O   0  0  0  0  0  0  0  0  0  0  0  0
   60.0380   34.2100   48.6750 C   0  0  0  0  0  0  0  0  0  0  0  0
   61.4720   33.7960   48.5210 C   0  0  0  0  0  0  0  0  0  0  0  0
   62.2300   33.4330   49.6460 C   0  0  0  0  0  0  0  0  0  0  0  0
   63.5710   33.0710   49.5000 C   0  0  0  0  0  0  0  0  0  0  0  0
   64.1650   33.0680   48.2340 C   0  0  0  0  0  0  0  0  0  0  0  0
   63.4180   33.4310   47.1120 C   0  0  0  0  0  0  0  0  0  0  0  0
   62.0780   33.8020   47.2550 C   0  0  0  0  0  0  0  0  0  0  0  0
   58.6290   33.1600   44.0110 C   0  0  0  0  0  0  0  0  0  0  0  0
   57.8990   32.7790   42.8820 C   0  0  0  0  0  0  0  0  0  0  0  0
   57.3750   31.4850   42.7840 C   0  0  0  0  0  0  0  0  0  0  0  0
   56.6850   31.1300   41.6730 F   0  0  0  0  0  0  0  0  0  0  0  0
   54.0120   26.7090   46.3730 H   0  0  0  0  0  0  0  0  0  0  0  0
   58.3523   25.8880   48.1950 H   0  0  0  0  0  0  0  0  0  0  0  0
   60.1489   27.7491   49.0626 H   0  0  0  0  0  0  0  0  0  0  0  0
   61.0230   27.7186   47.4663 H   0  0  0  0  0  0  0  0  0  0  0  0
   60.9090   29.9835   47.1819 H   0  0  0  0  0  0  0  0  0  0  0  0
   62.3374   29.2808   49.1913 H   0  0  0  0  0  0  0  0  0  0  0  0
   61.8639   31.0307   49.1163 H   0  0  0  0  0  0  0  0  0  0  0  0
   60.5712   28.8653   50.8426 H   0  0  0  0  0  0  0  0  0  0  0  0
   61.6359   30.2188   51.3985 H   0  0  0  0  0  0  0  0  0  0  0  0
   60.0140   31.7720   50.6150 H   0  0  0  0  0  0  0  0  0  0  0  0
   58.3512   29.3933   50.0024 H   0  0  0  0  0  0  0  0  0  0  0  0
   57.8451   31.1325   49.9203 H   0  0  0  0  0  0  0  0  0  0  0  0
   58.4194   30.1497   47.6830 H   0  0  0  0  0  0  0  0  0  0  0  0
   59.4408   31.5735   48.1611 H   0  0  0  0  0  0  0  0  0  0  0  0
   58.4436   30.2528   45.7902 H   0  0  0  0  0  0  0  0  0  0  0  0
   59.9981   35.2420   49.0537 H   0  0  0  0  0  0  0  0  0  0  0  0
   59.5451   33.5264   49.3819 H   0  0  0  0  0  0  0  0  0  0  0  0
   61.7669   33.4338   50.6438 H   0  0  0  0  0  0  0  0  0  0  0  0
   64.1617   32.7874   50.3835 H   0  0  0  0  0  0  0  0  0  0  0  0
   65.2206   32.7797   48.1223 H   0  0  0  0  0  0  0  0  0  0  0  0
   63.8838   33.4251   46.1155 H   0  0  0  0  0  0  0  0  0  0  0  0
   61.4954   34.1002   46.3709 H   0  0  0  0  0  0  0  0  0  0  0  0
   59.0253   34.1833   44.0874 H   0  0  0  0  0  0  0  0  0  0  0  0
   57.7355   33.4992   42.0668 H   0  0  0  0  0  0  0  0  0  0  0  0
  1  2  1  0
  2  3  2  0
  2  4  1  0
  4  5  1  0
  5  6  2  0
  6  7  1  0
  7  8  1  0
  8  9  1  0
  9 10  1  0
 10 11  1  0
 11 12  1  0
 12 13  1  0
  6 14  1  0
 14 15  1  0
 15 16  1  0
 16 17  1  0
 17 18  2  0
 17 19  1  0
 19 20  2  0
 20 21  1  0
 21 22  1  0
 22 23  1  0
 23 24  2  0
 23 25  2  0
 23 26  1  0
 26 27  1  0
 27 28  2  0
 28 29  1  0
 29 30  2  0
 30 31  1  0
 31 32  2  0
 21 33  2  0
 33 34  1  0
 34 35  2  0
 35 36  1  0
 15  4  2  0
 35 19  1  0
 13  8  1  0
 32 27  1  0
  1 37  1  0
  5 38  1  0
  7 39  1  0
  7 40  1  0
  8 41  1  0
  9 42  1  0
  9 43  1  0
 10 44  1  0
 10 45  1  0
 11 46  1  0
 12 47  1  0
 12 48  1  0
 13 49  1  0
 13 50  1  0
 20 51  1  0
 26 52  1  0
 26 53  1  0
 28 54  1  0
 29 55  1  0
 30 56  1  0
 31 57  1  0
 32 58  1  0
 33 59  1  0
 34 60  1  0
M  CHG  3   1  -1  16  -1  22  -1
M  END
>  <UniqueID>  (16) 
16

>  <SMILES>  (16) 
[NH-]C(=O)c1cc(CC2CCNCC2)oc1[N-]C(=O)c1cc([N-]S(=O)(=O)Cc2ccccc2)ccc1F

>  <Energy>  (16) 
87.68682228945762

>  <Genealogy>  (16) 
[NH-]C(=O)c1cc(CC2CCNCC2)oc1[N-]C(=O)c1cc([N-]S(=O)(=O)Cc2ccccc2)ccc1F (protonated)
[NH-]C(=O)c1cc(CC2CCNCC2)oc1[N-]C(=O)c1cc([N-]S(=O)(=O)Cc2ccccc2)ccc1F (3D coordinates assigned)
[NH-]C(=O)c1cc(CC2CCNCC2)oc1[N-]C(=O)c1cc([N-]S(=O)(=O)Cc2ccccc2)ccc1F (nonaromatic ring conformer: 87.68682228945762 kcal/mol)

>  <smiles>  (16) 
NC(=O)c1cc(CC2CCNCC2)oc1NC(=O)c1cc(NS(=O)(=O)Cc2ccccc2)ccc1F

>  <score_type>  (16) 
oracle

>  <origin>  (16) 
adg

>  <m_score__min__energy>  (16) 
-15.35

>  <m_primary>  (16) 
energy

$$$$
16:0
     RDKit          3D

 66 70  0  0  0  0  0  0  0  0999 V2000
   57.3760   32.3320   40.7400 C   0  0  0  0  0  0  0  0  0  0  0  0
   57.4070   32.1910   42.2290 C   0  0  0  0  0  0  0  0  0  0  0  0
   58.1470   33.0840   43.0100 C   0  0  0  0  0  0  0  0  0  0  0  0
   58.2030   32.9130   44.4010 C   0  0  0  0  0  0  0  0  0  0  0  0
   59.0320   33.8070   45.2450 C   0  0  0  0  0  0  0  0  0  0  0  0
   59.2570   34.9870   44.8610 O   0  0  0  0  0  0  0  0  0  0  0  0
   59.5810   33.3480   46.4920 N   0  0  0  0  0  0  0  0  0  0  0  0
   60.1140   34.2690   47.4930 C   0  0  0  0  0  0  0  0  0  0  0  0
   61.5210   33.8880   47.8710 C   0  0  0  0  0  0  0  0  0  0  0  0
   62.4290   33.4750   46.8810 C   0  0  0  0  0  0  0  0  0  0  0  0
   63.7330   33.1100   47.2280 C   0  0  0  0  0  0  0  0  0  0  0  0
   64.1410   33.1580   48.5640 C   0  0  0  0  0  0  0  0  0  0  0  0
   63.2460   33.5740   49.5550 C   0  0  0  0  0  0  0  0  0  0  0  0
   61.9400   33.9390   49.2110 C   0  0  0  0  0  0  0  0  0  0  0  0
   57.5080   31.8380   44.9820 C   0  0  0  0  0  0  0  0  0  0  0  0
   56.7620   30.9610   44.1680 C   0  0  0  0  0  0  0  0  0  0  0  0
   56.1190   29.9320   44.6440 N   0  0  0  0  0  0  0  0  0  0  0  0
   56.6490   28.8190   45.3810 C   0  0  0  0  0  0  0  0  0  0  0  0
   55.9510   27.7840   45.5540 O   0  0  0  0  0  0  0  0  0  0  0  0
   58.0400   28.8660   45.8870 C   0  0  0  0  0  0  0  0  0  0  0  0
   59.0510   28.0930   45.2870 C   0  0  0  0  0  0  0  0  0  0  0  0
   60.3500   28.1040   45.8040 C   0  0  0  0  0  0  0  0  0  0  0  0
   60.6550   28.8790   46.9260 C   0  0  0  0  0  0  0  0  0  0  0  0
   59.6600   29.6580   47.5300 C   0  0  0  0  0  0  0  0  0  0  0  0
   59.9980   30.5980   48.9810 S   0  0  0  0  0  0  0  0  0  0  0  0
   61.4770   30.7820   49.1630 O   0  0  0  0  0  0  0  0  0  0  0  0
   59.3510   31.9430   48.8040 O   0  0  0  0  0  0  0  0  0  0  0  0
   59.3490   29.7760   50.3790 N   0  0  0  0  0  0  0  0  0  0  0  0
   58.1820   30.3360   51.0620 C   0  0  0  0  0  0  0  0  0  0  0  0
   58.5360   30.6050   52.5240 C   0  0  0  0  0  0  0  0  0  0  0  0
   58.9570   29.3070   53.2250 C   0  0  0  0  0  0  0  0  0  0  0  0
   59.9010   28.4620   52.3950 C   0  0  0  0  0  0  0  0  0  0  0  0
   60.5710   27.3890   53.0060 C   0  0  0  0  0  0  0  0  0  0  0  0
   61.3620   26.5250   52.2460 C   0  0  0  0  0  0  0  0  0  0  0  0
   61.4660   26.7050   50.8660 C   0  0  0  0  0  0  0  0  0  0  0  0
   60.7980   27.7620   50.2420 C   0  0  0  0  0  0  0  0  0  0  0  0
   60.0310   28.6650   50.9990 C   0  0  0  0  0  0  0  0  0  0  0  0
   58.3640   29.6600   47.0030 C   0  0  0  0  0  0  0  0  0  0  0  0
   56.7510   31.1590   42.8240 N   0  0  0  0  0  0  0  0  0  0  0  0
   57.1467   33.3747   40.4751 H   0  0  0  0  0  0  0  0  0  0  0  0
   58.3564   32.0553   40.3250 H   0  0  0  0  0  0  0  0  0  0  0  0
   56.6020   31.6696   40.3250 H   0  0  0  0  0  0  0  0  0  0  0  0
   58.6838   33.9183   42.5348 H   0  0  0  0  0  0  0  0  0  0  0  0
   59.5940   32.3270   46.7100 H   0  0  0  0  0  0  0  0  0  0  0  0
   60.1143   35.2891   47.0813 H   0  0  0  0  0  0  0  0  0  0  0  0
   59.4809   34.2202   48.3912 H   0  0  0  0  0  0  0  0  0  0  0  0
   62.1121   33.4388   45.8283 H   0  0  0  0  0  0  0  0  0  0  0  0
   64.4385   32.7848   46.4492 H   0  0  0  0  0  0  0  0  0  0  0  0
   65.1667   32.8684   48.8362 H   0  0  0  0  0  0  0  0  0  0  0  0
   63.5692   33.6142   50.6057 H   0  0  0  0  0  0  0  0  0  0  0  0
   61.2387   34.2671   49.9924 H   0  0  0  0  0  0  0  0  0  0  0  0
   57.5461   31.6812   46.0701 H   0  0  0  0  0  0  0  0  0  0  0  0
   58.8181   27.4766   44.4062 H   0  0  0  0  0  0  0  0  0  0  0  0
   61.1351   27.5001   45.3255 H   0  0  0  0  0  0  0  0  0  0  0  0
   61.6762   28.8773   47.3348 H   0  0  0  0  0  0  0  0  0  0  0  0
   57.8879   31.2777   50.5755 H   0  0  0  0  0  0  0  0  0  0  0  0
   57.3460   29.6231   51.0095 H   0  0  0  0  0  0  0  0  0  0  0  0
   59.3660   31.3255   52.5684 H   0  0  0  0  0  0  0  0  0  0  0  0
   57.6508   31.0126   53.0341 H   0  0  0  0  0  0  0  0  0  0  0  0
   59.4578   29.5659   54.1696 H   0  0  0  0  0  0  0  0  0  0  0  0
   58.0457   28.7136   53.3907 H   0  0  0  0  0  0  0  0  0  0  0  0
   60.4719   27.2285   54.0897 H   0  0  0  0  0  0  0  0  0  0  0  0
   61.9035   25.7020   52.7353 H   0  0  0  0  0  0  0  0  0  0  0  0
   62.0759   26.0124   50.2674 H   0  0  0  0  0  0  0  0  0  0  0  0
   60.8727   27.8883   49.1518 H   0  0  0  0  0  0  0  0  0  0  0  0
   57.5896   30.2892   47.4661 H   0  0  0  0  0  0  0  0  0  0  0  0
  1  2  1  0
  2  3  2  0
  3  4  1  0
  4  5  1  0
  5  6  2  0
  5  7  1  0
  7  8  1  0
  8  9  1  0
  9 10  2  0
 10 11  1  0
 11 12  2  0
 12 13  1  0
 13 14  2  0
  4 15  2  0
 15 16  1  0
 16 17  2  3
 17 18  1  0
 18 19  2  0
 18 20  1  0
 20 21  2  0
 21 22  1  0
 22 23  2  0
 23 24  1  0
 24 25  1  0
 25 26  2  0
 25 27  2  0
 25 28  1  0
 28 29  1  0
 29 30  1  0
 30 31  1  0
 31 32  1  0
 32 33  2  0
 33 34  1  0
 34 35  2  0
 35 36  1  0
 36 37  2  0
 24 38  2  0
 16 39  1  0
 39  2  1  0
 14  9  1  0
 38 20  1  0
 37 28  1  0
 37 32  1  0
  1 40  1  0
  1 41  1  0
  1 42  1  0
  3 43  1  0
  7 44  1  0
  8 45  1  0
  8 46  1  0
 10 47  1  0
 11 48  1  0
 12 49  1  0
 13 50  1  0
 14 51  1  0
 15 52  1  0
 21 53  1  0
 22 54  1  0
 23 55  1  0
 29 56  1  0
 29 57  1  0
 30 58  1  0
 30 59  1  0
 31 60  1  0
 31 61  1  0
 33 62  1  0
 34 63  1  0
 35 64  1  0
 36 65  1  0
 38 66  1  0
M  CHG  1  39  -1
M  END
>  <UniqueID>  (17) 
17

>  <SMILES>  (17) 
Cc1cc(C(=O)NCc2ccccc2)cc(=NC(=O)c2cccc(S(=O)(=O)N3CCCc4ccccc43)c2)[n-]1

>  <Energy>  (17) 
83.69412653949911

>  <Genealogy>  (17) 
Cc1cc(C(=O)NCc2ccccc2)cc(=NC(=O)c2cccc(S(=O)(=O)N3CCCc4ccccc43)c2)[n-]1 (protonated)
Cc1cc(C(=O)NCc2ccccc2)cc(=NC(=O)c2cccc(S(=O)(=O)N3CCCc4ccccc43)c2)[n-]1 (3D coordinates assigned)
Cc1cc(C(=O)NCc2ccccc2)cc(=NC(=O)c2cccc(S(=O)(=O)N3CCCc4ccccc43)c2)[n-]1 (nonaromatic ring conformer: 83.69412653949911 kcal/mol)

>  <smiles>  (17) 
Cc1cc(C(=O)NCc2ccccc2)cc(=NC(=O)c2cccc(S(=O)(=O)N3CCCc4ccccc43)c2)[nH]1

>  <score_type>  (17) 
oracle

>  <origin>  (17) 
adg

>  <m_score__min__energy>  (17) 
-12.359999999999999

>  <m_primary>  (17) 
energy

$$$$
17:0
     RDKit          3D

 61 66  0  0  0  0  0  0  0  0999 V2000
   55.5320   29.2710   44.8740 O   0  0  0  0  0  0  0  0  0  0  0  0
   56.4740   30.0830   44.6570 C   0  0  0  0  0  0  0  0  0  0  0  0
   57.7680   29.5600   44.1040 C   0  0  0  0  0  0  0  0  0  0  0  0
   58.8250   29.4450   45.1580 C   0  0  0  0  0  0  0  0  0  0  0  0
   60.1430   29.3590   44.8970 N   0  0  0  0  0  0  0  0  0  0  0  0
   60.7310   29.3090   46.1030 C   0  0  0  0  0  0  0  0  0  0  0  0
   59.7360   29.3630   47.0640 C   0  0  0  0  0  0  0  0  0  0  0  0
   59.8890   29.3040   48.5350 C   0  0  0  0  0  0  0  0  0  0  0  0
   61.1230   28.9900   49.1320 C   0  0  0  0  0  0  0  0  0  0  0  0
   61.2290   28.8880   50.5220 C   0  0  0  0  0  0  0  0  0  0  0  0
   60.1120   29.1050   51.3300 C   0  0  0  0  0  0  0  0  0  0  0  0
   58.8750   29.4290   50.7610 C   0  0  0  0  0  0  0  0  0  0  0  0
   57.7570   29.6340   51.6400 N   0  0  0  0  0  0  0  0  0  0  0  0
   57.0690   31.0180   51.9390 S   0  0  0  0  0  0  0  0  0  0  0  0
   55.5900   30.9580   51.6730 O   0  0  0  0  0  0  0  0  0  0  0  0
   57.8320   32.3130   51.0070 C   0  0  0  0  0  0  0  0  0  0  0  0
   58.2490   33.3650   52.0340 C   0  0  0  0  0  0  0  0  0  0  0  0
   58.4970   32.6690   53.3800 C   0  0  0  0  0  0  0  0  0  0  0  0
   57.4300   31.5980   53.5710 C   0  0  0  0  0  0  0  0  0  0  0  0
   58.7720   29.5340   49.3580 C   0  0  0  0  0  0  0  0  0  0  0  0
   58.5780   29.4530   46.4470 O   0  0  0  0  0  0  0  0  0  0  0  0
   56.2800   31.4910   44.8600 N   0  0  0  0  0  0  0  0  0  0  0  0
   57.2760   32.4470   45.2500 C   0  0  0  0  0  0  0  0  0  0  0  0
   57.3920   33.6280   44.5090 C   0  0  0  0  0  0  0  0  0  0  0  0
   58.3690   34.5720   44.8320 C   0  0  0  0  0  0  0  0  0  0  0  0
   59.2610   34.3280   45.8770 C   0  0  0  0  0  0  0  0  0  0  0  0
   59.1850   33.1340   46.6120 C   0  0  0  0  0  0  0  0  0  0  0  0
   60.1630   32.8500   47.6870 C   0  0  0  0  0  0  0  0  0  0  0  0
   59.9440   33.1710   48.9920 N   0  0  0  0  0  0  0  0  0  0  0  0
   61.0750   32.7690   49.5890 C   0  0  0  0  0  0  0  0  0  0  0  0
   61.4060   32.8580   50.9390 C   0  0  0  0  0  0  0  0  0  0  0  0
   62.6700   32.3780   51.3350 C   0  0  0  0  0  0  0  0  0  0  0  0
   63.5530   31.8220   50.3830 C   0  0  0  0  0  0  0  0  0  0  0  0
   63.1830   31.7470   49.0270 C   0  0  0  0  0  0  0  0  0  0  0  0
   61.9260   32.2350   48.6730 C   0  0  0  0  0  0  0  0  0  0  0  0
   61.3740   32.2740   47.4510 N   0  0  0  0  0  0  0  0  0  0  0  0
   58.1840   32.1980   46.2950 C   0  0  0  0  0  0  0  0  0  0  0  0
   57.5915   28.5654   43.6686 H   0  0  0  0  0  0  0  0  0  0  0  0
   58.1236   30.2710   43.3437 H   0  0  0  0  0  0  0  0  0  0  0  0
   60.6080   29.3340   43.9650 H   0  0  0  0  0  0  0  0  0  0  0  0
   61.8120   29.2377   46.2937 H   0  0  0  0  0  0  0  0  0  0  0  0
   62.0092   28.8238   48.5019 H   0  0  0  0  0  0  0  0  0  0  0  0
   62.1964   28.6358   50.9807 H   0  0  0  0  0  0  0  0  0  0  0  0
   60.2045   29.0207   52.4229 H   0  0  0  0  0  0  0  0  0  0  0  0
   58.7121   31.9317   50.4684 H   0  0  0  0  0  0  0  0  0  0  0  0
   57.1489   32.7288   50.2517 H   0  0  0  0  0  0  0  0  0  0  0  0
   59.1709   33.8634   51.6997 H   0  0  0  0  0  0  0  0  0  0  0  0
   57.4544   34.1179   52.1426 H   0  0  0  0  0  0  0  0  0  0  0  0
   59.4940   32.2043   53.3799 H   0  0  0  0  0  0  0  0  0  0  0  0
   58.4483   33.4016   54.1991 H   0  0  0  0  0  0  0  0  0  0  0  0
   57.8122   30.7784   54.1972 H   0  0  0  0  0  0  0  0  0  0  0  0
   56.5361   31.9902   54.0780 H   0  0  0  0  0  0  0  0  0  0  0  0
   57.8065   29.7989   48.9023 H   0  0  0  0  0  0  0  0  0  0  0  0
   56.7094   33.8141   43.6667 H   0  0  0  0  0  0  0  0  0  0  0  0
   58.4356   35.5101   44.2614 H   0  0  0  0  0  0  0  0  0  0  0  0
   60.0284   35.0756   46.1265 H   0  0  0  0  0  0  0  0  0  0  0  0
   60.7054   33.2878   51.6700 H   0  0  0  0  0  0  0  0  0  0  0  0
   62.9709   32.4365   52.3914 H   0  0  0  0  0  0  0  0  0  0  0  0
   64.5357   31.4454   50.7032 H   0  0  0  0  0  0  0  0  0  0  0  0
   63.8610   31.3189   48.2740 H   0  0  0  0  0  0  0  0  0  0  0  0
   58.1106   31.2628   46.8695 H   0  0  0  0  0  0  0  0  0  0  0  0
  1  2  2  0
  2  3  1  0
  3  4  1  0
  4  5  2  0
  5  6  1  0
  6  7  2  0
  7  8  1  0
  8  9  2  0
  9 10  1  0
 10 11  2  0
 11 12  1  0
 12 13  1  0
 13 14  2  0
 14 15  2  0
 14 16  1  0
 16 17  1  0
 17 18  1  0
 18 19  1  0
 12 20  2  0
  7 21  1  0
  2 22  1  0
 22 23  1  0
 23 24  2  0
 24 25  1  0
 25 26  2  0
 26 27  1  0
 27 28  1  0
 28 29  2  0
 29 30  1  0
 30 31  2  0
 31 32  1  0
 32 33  2  0
 33 34  1  0
 34 35  2  0
 35 36  1  0
 27 37  2  0
 21  4  1  0
 37 23  1  0
 20  8  1  0
 36 28  1  0
 19 14  1  0
 35 30  1  0
  3 38  1  0
  3 39  1  0
  5 40  1  0
  6 41  1  0
  9 42  1  0
 10 43  1  0
 11 44  1  0
 16 45  1  0
 16 46  1  0
 17 47  1  0
 17 48  1  0
 18 49  1  0
 18 50  1  0
 19 51  1  0
 19 52  1  0
 20 53  1  0
 24 54  1  0
 25 55  1  0
 26 56  1  0
 31 57  1  0
 32 58  1  0
 33 59  1  0
 34 60  1  0
 37 61  1  0
M  CHG  3   5   1  22  -1  36  -1
M  END
>  <UniqueID>  (18) 
18

>  <SMILES>  (18) 
O=C(Cc1[nH+]cc(-c2cccc(N=S3(=O)CCCC3)c2)o1)[N-]c1cccc(-c2nc3ccccc3[n-]2)c1

>  <Energy>  (18) 
134.2658932625517

>  <Genealogy>  (18) 
O=C(Cc1[nH+]cc(-c2cccc(N=S3(=O)CCCC3)c2)o1)[N-]c1cccc(-c2nc3ccccc3[n-]2)c1 (protonated)
O=C(Cc1[nH+]cc(-c2cccc(N=S3(=O)CCCC3)c2)o1)[N-]c1cccc(-c2nc3ccccc3[n-]2)c1 (3D coordinates assigned)
O=C(Cc1[nH+]cc(-c2cccc(N=S3(=O)CCCC3)c2)o1)[N-]c1cccc(-c2nc3ccccc3[n-]2)c1 (nonaromatic ring conformer: 134.2658932625517 kcal/mol)

>  <smiles>  (18) 
O=C(Cc1ncc(-c2cccc(N=S3(=O)CCCC3)c2)o1)Nc1cccc(-c2nc3ccccc3[nH]2)c1

>  <score_type>  (18) 
oracle

>  <origin>  (18) 
adg

>  <m_score__min__energy>  (18) 
-11.18

>  <m_primary>  (18) 
energy

$$$$
18:0
     RDKit          3D

 26 27  0  0  0  0  0  0  0  0999 V2000
   57.4560   30.9770   45.2820 O   0  0  0  0  0  0  0  0  0  0  0  0
   56.6740   30.0990   44.8290 C   0  0  0  0  0  0  0  0  0  0  0  0
   55.3800   30.4650   44.4780 O   0  0  0  0  0  0  0  0  0  0  0  0
   57.1240   28.6980   44.6740 C   0  0  0  0  0  0  0  0  0  0  0  0
   57.6710   28.2600   43.4560 C   0  0  0  0  0  0  0  0  0  0  0  0
   58.0960   26.9370   43.3070 C   0  0  0  0  0  0  0  0  0  0  0  0
   57.9790   26.0370   44.3670 C   0  0  0  0  0  0  0  0  0  0  0  0
   57.4400   26.4560   45.5940 C   0  0  0  0  0  0  0  0  0  0  0  0
   57.2830   25.4770   46.7280 C   0  0  0  0  0  0  0  0  0  0  0  0
   56.1440   24.5200   46.4520 C   0  0  0  0  0  0  0  0  0  0  0  0
   54.9140   24.9810   45.9490 C   0  0  0  0  0  0  0  0  0  0  0  0
   54.7020   26.3380   45.7290 O   0  0  0  0  0  0  0  0  0  0  0  0
   53.9150   24.0990   45.6760 N   0  0  0  0  0  0  0  0  0  0  0  0
   54.0860   22.7650   45.8750 C   0  0  0  0  0  0  0  0  0  0  0  0
   53.1520   21.9610   45.6170 O   0  0  0  0  0  0  0  0  0  0  0  0
   55.2660   22.2950   46.3540 N   0  0  0  0  0  0  0  0  0  0  0  0
   56.2930   23.1340   46.6430 C   0  0  0  0  0  0  0  0  0  0  0  0
   57.3720   22.6560   47.0830 O   0  0  0  0  0  0  0  0  0  0  0  0
   57.0110   27.7860   45.7390 C   0  0  0  0  0  0  0  0  0  0  0  0
   57.7652   28.9626   42.6149 H   0  0  0  0  0  0  0  0  0  0  0  0
   58.5245   26.6038   42.3503 H   0  0  0  0  0  0  0  0  0  0  0  0
   58.3102   24.9956   44.2409 H   0  0  0  0  0  0  0  0  0  0  0  0
   58.2156   24.9052   46.8436 H   0  0  0  0  0  0  0  0  0  0  0  0
   57.0618   26.0349   47.6499 H   0  0  0  0  0  0  0  0  0  0  0  0
   53.0050   24.4540   45.3050 H   0  0  0  0  0  0  0  0  0  0  0  0
   56.5820   28.1178   46.6960 H   0  0  0  0  0  0  0  0  0  0  0  0
  1  2  2  0
  2  3  1  0
  2  4  1  0
  4  5  2  0
  5  6  1  0
  6  7  2  0
  7  8  1  0
  8  9  1  0
  9 10  1  0
 10 11  2  0
 11 12  1  0
 11 13  1  0
 13 14  1  0
 14 15  2  0
 14 16  1  0
 16 17  1  0
 17 18  2  0
  8 19  2  0
 19  4  1  0
 17 10  1  0
  5 20  1  0
  6 21  1  0
  7 22  1  0
  9 23  1  0
  9 24  1  0
 13 25  1  0
 19 26  1  0
M  CHG  3   3  -1  12  -1  16  -1
M  END
>  <UniqueID>  (19) 
19

>  <SMILES>  (19) 
O=C([O-])c1cccc(Cc2c([O-])[nH]c(=O)[n-]c2=O)c1

>  <Energy>  (19) 
28.82287440220738

>  <Genealogy>  (19) 
O=C([O-])c1cccc(Cc2c([O-])[nH]c(=O)[n-]c2=O)c1 (protonated)
O=C([O-])c1cccc(Cc2c([O-])[nH]c(=O)[n-]c2=O)c1 (3D coordinates assigned)
O=C([O-])c1cccc(Cc2c([O-])[nH]c(=O)[n-]c2=O)c1 (optimized conformer: 28.82287440220738 kcal/mol)

>  <smiles>  (19) 
O=C(O)c1cccc(Cc2c(O)[nH]c(=O)[nH]c2=O)c1

>  <score_type>  (19) 
oracle

>  <origin>  (19) 
adg

>  <m_score__min__energy>  (19) 
-13.44

>  <m_primary>  (19) 
energy

$$$$
19:0
     RDKit          3D

 46 48  0  0  0  0  0  0  0  0999 V2000
   63.9422   32.7164   46.2671 H   0  0  0  0  0  0  0  0  0  0  0  0
   63.1710   33.1310   46.9330 C   0  0  0  0  0  0  0  0  0  0  0  0
   62.0800   33.8190   46.3920 C   0  0  0  0  0  0  0  0  0  0  0  0
   61.9937   33.9366   45.3017 H   0  0  0  0  0  0  0  0  0  0  0  0
   61.0950   34.3600   47.2320 C   0  0  0  0  0  0  0  0  0  0  0  0
   59.9020   35.0640   46.6480 C   0  0  0  0  0  0  0  0  0  0  0  0
   59.3387   35.5564   47.4544 H   0  0  0  0  0  0  0  0  0  0  0  0
   60.2456   35.8146   45.9210 H   0  0  0  0  0  0  0  0  0  0  0  0
   59.0160   34.0790   45.9550 C   0  0  0  0  0  0  0  0  0  0  0  0
   57.9910   32.9840   46.7200 S   0  0  0  0  0  0  0  0  0  0  0  0
   57.5170   32.2710   45.2730 C   0  0  0  0  0  0  0  0  0  0  0  0
   56.6450   31.3070   45.2140 N   0  0  0  0  0  0  0  0  0  0  0  0
   56.5020   30.3120   44.1900 C   0  0  0  0  0  0  0  0  0  0  0  0
   56.7020   30.6430   42.9910 O   0  0  0  0  0  0  0  0  0  0  0  0
   56.0530   28.9910   44.5000 N   0  0  0  0  0  0  0  0  0  0  0  0
   57.0880   27.7930   45.1970 S   0  0  0  0  0  0  0  0  0  0  0  0
   57.7470   27.0080   44.0980 O   0  0  0  0  0  0  0  0  0  0  0  0
   56.2710   26.8490   46.0340 O   0  0  0  0  0  0  0  0  0  0  0  0
   58.3280   28.5750   46.1710 C   0  0  0  0  0  0  0  0  0  0  0  0
   58.3710   28.3520   47.5540 C   0  0  0  0  0  0  0  0  0  0  0  0
   57.6245   27.6969   48.0268 H   0  0  0  0  0  0  0  0  0  0  0  0
   59.3590   28.9590   48.3350 C   0  0  0  0  0  0  0  0  0  0  0  0
   59.3789   28.7896   49.4217 H   0  0  0  0  0  0  0  0  0  0  0  0
   60.3250   29.7830   47.7390 C   0  0  0  0  0  0  0  0  0  0  0  0
   61.3620   30.4650   48.5810 C   0  0  0  0  0  0  0  0  0  0  0  0
   61.1291   30.3118   49.6451 H   0  0  0  0  0  0  0  0  0  0  0  0
   62.3523   30.0413   48.3577 H   0  0  0  0  0  0  0  0  0  0  0  0
   61.3652   31.5421   48.3577 H   0  0  0  0  0  0  0  0  0  0  0  0
   60.2730   30.0150   46.3560 C   0  0  0  0  0  0  0  0  0  0  0  0
   61.0134   30.6779   45.8844 H   0  0  0  0  0  0  0  0  0  0  0  0
   59.2850   29.4080   45.5740 C   0  0  0  0  0  0  0  0  0  0  0  0
   59.2586   29.5844   44.4886 H   0  0  0  0  0  0  0  0  0  0  0  0
   58.1210   32.8560   44.2080 N   0  0  0  0  0  0  0  0  0  0  0  0
   57.9520   32.6250   43.2060 H   0  0  0  0  0  0  0  0  0  0  0  0
   58.9650   33.8530   44.5830 C   0  0  0  0  0  0  0  0  0  0  0  0
   59.5588   34.4334   43.8615 H   0  0  0  0  0  0  0  0  0  0  0  0
   61.2040   34.1850   48.6200 C   0  0  0  0  0  0  0  0  0  0  0  0
   60.4279   34.5907   49.2856 H   0  0  0  0  0  0  0  0  0  0  0  0
   62.2950   33.4970   49.1610 C   0  0  0  0  0  0  0  0  0  0  0  0
   62.3747   33.3715   50.2509 H   0  0  0  0  0  0  0  0  0  0  0  0
   63.2860   32.9670   48.3270 C   0  0  0  0  0  0  0  0  0  0  0  0
   64.3600   32.2860   48.9180 O   0  0  0  0  0  0  0  0  0  0  0  0
   65.2320   32.8500   49.8920 C   0  0  0  0  0  0  0  0  0  0  0  0
   64.8608   32.6099   50.8993 H   0  0  0  0  0  0  0  0  0  0  0  0
   66.2422   32.4337   49.7646 H   0  0  0  0  0  0  0  0  0  0  0  0
   65.2667   33.9420   49.7646 H   0  0  0  0  0  0  0  0  0  0  0  0
  1  2  1  0
  2  3  2  0
  3  4  1  0
  3  5  1  0
  5  6  1  0
  6  7  1  0
  6  8  1  0
  6  9  1  0
  9 10  1  0
 10 11  1  0
 11 12  2  0
 12 13  1  0
 13 14  2  0
 13 15  1  0
 15 16  1  0
 16 17  2  0
 16 18  2  0
 16 19  1  0
 19 20  2  0
 20 21  1  0
 20 22  1  0
 22 23  1  0
 22 24  2  0
 24 25  1  0
 25 26  1  0
 25 27  1  0
 25 28  1  0
 24 29  1  0
 29 30  1  0
 29 31  2  0
 31 32  1  0
 11 33  1  0
 33 34  1  0
 33 35  1  0
 35 36  1  0
  5 37  2  0
 37 38  1  0
 37 39  1  0
 39 40  1  0
 39 41  2  0
 41 42  1  0
 42 43  1  0
 43 44  1  0
 43 45  1  0
 43 46  1  0
 41  2  1  0
 35  9  2  0
 31 19  1  0
M  CHG  1  15  -1
M  END
>  <UniqueID>  (20) 
20

>  <SMILES>  (20) 
COc1ccc(Cc2c[nH]/c(=N\C(=O)[N-]S(=O)(=O)c3ccc(C)cc3)s2)cc1

>  <Energy>  (20) 
81.90981490298623

>  <Genealogy>  (20) 
COc1ccc(Cc2c[nH]c(=NC(=O)[N-]S(=O)(=O)c3ccc(C)cc3)s2)cc1 (protonated)
COc1ccc(Cc2c[nH]/c(=N\C(=O)[N-]S(=O)(=O)c3ccc(C)cc3)s2)cc1 (cis-trans isomerization)
COc1ccc(Cc2c[nH]/c(=N\C(=O)[N-]S(=O)(=O)c3ccc(C)cc3)s2)cc1 (3D coordinates assigned)
COc1ccc(Cc2c[nH]/c(=N\C(=O)[N-]S(=O)(=O)c3ccc(C)cc3)s2)cc1 (optimized conformer: 81.90981490298623 kcal/mol)

>  <smiles>  (20) 
COc1ccc(Cc2c[nH]c(=NC(=O)NS(=O)(=O)c3ccc(C)cc3)s2)cc1

>  <score_type>  (20) 
oracle

>  <origin>  (20) 
adg

>  <m_score__min__energy>  (20) 
-10.24

>  <m_primary>  (20) 
energy

$$$$
20:0
     RDKit          3D

 39 41  0  0  0  0  0  0  0  0999 V2000
   60.9900   29.5610   45.3750 O   0  0  0  0  0  0  0  0  0  0  0  0
   60.1940   29.9850   46.2580 C   0  0  0  0  0  0  0  0  0  0  0  0
   60.6600   30.1890   47.5980 N   0  0  0  0  0  0  0  0  0  0  0  0
   61.7110   31.0720   48.0170 C   0  0  0  0  0  0  0  0  0  0  0  0
   62.2130   30.9480   49.3180 C   0  0  0  0  0  0  0  0  0  0  0  0
   63.2540   31.7710   49.7580 C   0  0  0  0  0  0  0  0  0  0  0  0
   63.8100   32.7170   48.8930 C   0  0  0  0  0  0  0  0  0  0  0  0
   64.8210   33.5150   49.3200 F   0  0  0  0  0  0  0  0  0  0  0  0
   63.3330   32.8320   47.5840 C   0  0  0  0  0  0  0  0  0  0  0  0
   62.2920   32.0100   47.1420 C   0  0  0  0  0  0  0  0  0  0  0  0
   58.8440   30.3430   45.8890 N   0  0  0  0  0  0  0  0  0  0  0  0
   58.4680   31.6970   45.5580 C   0  0  0  0  0  0  0  0  0  0  0  0
   58.5030   32.0800   44.3560 O   0  0  0  0  0  0  0  0  0  0  0  0
   57.9690   32.5810   46.5720 N   0  0  0  0  0  0  0  0  0  0  0  0
   58.6760   33.0410   47.7330 C   0  0  0  0  0  0  0  0  0  0  0  0
   59.5640   34.1320   47.6840 C   0  0  0  0  0  0  0  0  0  0  0  0
   60.2530   34.5300   48.8350 C   0  0  0  0  0  0  0  0  0  0  0  0
   60.0720   33.8370   50.0350 C   0  0  0  0  0  0  0  0  0  0  0  0
   59.2110   32.7370   50.0840 C   0  0  0  0  0  0  0  0  0  0  0  0
   59.0450   32.0570   51.2450 F   0  0  0  0  0  0  0  0  0  0  0  0
   58.5210   32.3380   48.9350 C   0  0  0  0  0  0  0  0  0  0  0  0
   57.8430   29.3120   45.8310 C   0  0  0  0  0  0  0  0  0  0  0  0
   58.0940   28.0530   46.3890 C   0  0  0  0  0  0  0  0  0  0  0  0
   57.1190   27.0560   46.3330 C   0  0  0  0  0  0  0  0  0  0  0  0
   55.8960   27.3310   45.7150 C   0  0  0  0  0  0  0  0  0  0  0  0
   54.9120   26.3520   45.6510 O   0  0  0  0  0  0  0  0  0  0  0  0
   55.6660   28.5570   45.1750 N   0  0  0  0  0  0  0  0  0  0  0  0
   56.6000   29.5460   45.2160 C   0  0  0  0  0  0  0  0  0  0  0  0
   56.3450   30.6630   44.6940 O   0  0  0  0  0  0  0  0  0  0  0  0
   61.7852   30.1975   49.9990 H   0  0  0  0  0  0  0  0  0  0  0  0
   63.6353   31.6738   50.7852 H   0  0  0  0  0  0  0  0  0  0  0  0
   63.7775   33.5705   46.9006 H   0  0  0  0  0  0  0  0  0  0  0  0
   61.9259   32.0962   46.1083 H   0  0  0  0  0  0  0  0  0  0  0  0
   59.7167   34.6731   46.7385 H   0  0  0  0  0  0  0  0  0  0  0  0
   60.9381   35.3896   48.7952 H   0  0  0  0  0  0  0  0  0  0  0  0
   60.6072   34.1572   50.9411 H   0  0  0  0  0  0  0  0  0  0  0  0
   57.8517   31.4659   48.9752 H   0  0  0  0  0  0  0  0  0  0  0  0
   59.0609   27.8492   46.8722 H   0  0  0  0  0  0  0  0  0  0  0  0
   57.3109   26.0651   46.7703 H   0  0  0  0  0  0  0  0  0  0  0  0
  1  2  2  0
  2  3  1  0
  3  4  1  0
  4  5  2  0
  5  6  1  0
  6  7  2  0
  7  8  1  0
  7  9  1  0
  9 10  2  0
  2 11  1  0
 11 12  1  0
 12 13  2  0
 12 14  1  0
 14 15  1  0
 15 16  2  0
 16 17  1  0
 17 18  2  0
 18 19  1  0
 19 20  1  0
 19 21  2  0
 11 22  1  0
 22 23  2  0
 23 24  1  0
 24 25  2  0
 25 26  1  0
 25 27  1  0
 27 28  1  0
 28 29  2  0
 10  4  1  0
 21 15  1  0
 28 22  1  0
  5 30  1  0
  6 31  1  0
  9 32  1  0
 10 33  1  0
 16 34  1  0
 17 35  1  0
 18 36  1  0
 21 37  1  0
 23 38  1  0
 24 39  1  0
M  CHG  4   3  -1  14  -1  26  -1  27  -1
M  END
>  <UniqueID>  (21) 
21

>  <SMILES>  (21) 
O=C([N-]c1ccc(F)cc1)N(C(=O)[N-]c1cccc(F)c1)c1ccc([O-])[n-]c1=O

>  <Energy>  (21) 
59.86995489021031

>  <Genealogy>  (21) 
O=C([N-]c1ccc(F)cc1)N(C(=O)[N-]c1cccc(F)c1)c1ccc([O-])[n-]c1=O (protonated)
O=C([N-]c1ccc(F)cc1)N(C(=O)[N-]c1cccc(F)c1)c1ccc([O-])[n-]c1=O (3D coordinates assigned)
O=C([N-]c1ccc(F)cc1)N(C(=O)[N-]c1cccc(F)c1)c1ccc([O-])[n-]c1=O (optimized conformer: 59.86995489021031 kcal/mol)

>  <smiles>  (21) 
O=C(Nc1ccc(F)cc1)N(C(=O)Nc1cccc(F)c1)c1ccc(O)[nH]c1=O

>  <score_type>  (21) 
oracle

>  <origin>  (21) 
adg

>  <m_score__min__energy>  (21) 
-14.380000000000001

>  <m_primary>  (21) 
energy

$$$$
21:0
     RDKit          3D

 50 52  0  0  0  0  0  0  0  0999 V2000
   56.2100   30.4870   44.4740 O   0  0  0  0  0  0  0  0  0  0  0  0
   57.2990   31.0610   44.7510 C   0  0  0  0  0  0  0  0  0  0  0  0
   57.3630   32.5650   44.6210 C   0  0  0  0  0  0  0  0  0  0  0  0
   58.2170   33.2240   45.6750 C   0  0  0  0  0  0  0  0  0  0  0  0
   58.1330   32.8110   47.0150 C   0  0  0  0  0  0  0  0  0  0  0  0
   58.9890   33.3580   47.9750 C   0  0  0  0  0  0  0  0  0  0  0  0
   59.9400   34.3140   47.6030 C   0  0  0  0  0  0  0  0  0  0  0  0
   60.8040   34.8420   48.5550 O   0  0  0  0  0  0  0  0  0  0  0  0
   60.0260   34.7320   46.2720 C   0  0  0  0  0  0  0  0  0  0  0  0
   59.1710   34.1880   45.3090 C   0  0  0  0  0  0  0  0  0  0  0  0
   58.4250   30.2930   45.2240 N   0  0  0  0  0  0  0  0  0  0  0  0
   58.3390   29.0360   45.9220 C   0  0  0  0  0  0  0  0  0  0  0  0
   57.1140   27.9820   45.6380 S   0  0  0  0  0  0  0  0  0  0  0  0
   59.4380   28.6000   46.7400 N   0  0  0  0  0  0  0  0  0  0  0  0
   60.3750   29.5040   47.3480 C   0  0  0  0  0  0  0  0  0  0  0  0
   61.1370   30.3610   46.5410 C   0  0  0  0  0  0  0  0  0  0  0  0
   62.0320   31.2650   47.1190 C   0  0  0  0  0  0  0  0  0  0  0  0
   62.2080   31.2960   48.5100 C   0  0  0  0  0  0  0  0  0  0  0  0
   63.2920   32.4790   49.2440 S   0  0  0  0  0  0  0  0  0  0  0  0
   64.0950   33.1310   48.1530 O   0  0  0  0  0  0  0  0  0  0  0  0
   64.2560   31.7490   50.1390 O   0  0  0  0  0  0  0  0  0  0  0  0
   62.4780   33.7230   50.1740 N   0  0  0  0  0  0  0  0  0  0  0  0
   61.3830   33.1890   51.0150 C   0  0  0  0  0  0  0  0  0  0  0  0
   61.8500   32.7630   52.4150 C   0  0  0  0  0  0  0  0  0  0  0  0
   62.5590   33.8070   53.0440 O   0  0  0  0  0  0  0  0  0  0  0  0
   63.7400   34.0620   52.3200 C   0  0  0  0  0  0  0  0  0  0  0  0
   63.4180   34.5920   50.9170 C   0  0  0  0  0  0  0  0  0  0  0  0
   61.4660   30.4250   49.3170 C   0  0  0  0  0  0  0  0  0  0  0  0
   60.5620   29.5290   48.7410 C   0  0  0  0  0  0  0  0  0  0  0  0
   57.7777   32.8117   43.6325 H   0  0  0  0  0  0  0  0  0  0  0  0
   56.3388   32.9449   44.7503 H   0  0  0  0  0  0  0  0  0  0  0  0
   57.3909   32.0544   47.3098 H   0  0  0  0  0  0  0  0  0  0  0  0
   58.9148   33.0363   49.0243 H   0  0  0  0  0  0  0  0  0  0  0  0
   60.7679   35.4905   45.9817 H   0  0  0  0  0  0  0  0  0  0  0  0
   59.2455   34.5158   44.2616 H   0  0  0  0  0  0  0  0  0  0  0  0
   59.3770   30.7090   45.1440 H   0  0  0  0  0  0  0  0  0  0  0  0
   59.6090   27.5720   46.8350 H   0  0  0  0  0  0  0  0  0  0  0  0
   61.0296   30.3214   45.4470 H   0  0  0  0  0  0  0  0  0  0  0  0
   62.6014   31.9558   46.4798 H   0  0  0  0  0  0  0  0  0  0  0  0
   62.0220   34.3270   49.4490 H   0  0  0  0  0  0  0  0  0  0  0  0
   60.6142   33.9681   51.1246 H   0  0  0  0  0  0  0  0  0  0  0  0
   60.9922   32.2917   50.5129 H   0  0  0  0  0  0  0  0  0  0  0  0
   60.9720   32.5042   53.0251 H   0  0  0  0  0  0  0  0  0  0  0  0
   62.5162   31.8933   52.3157 H   0  0  0  0  0  0  0  0  0  0  0  0
   64.3385   34.8109   52.8594 H   0  0  0  0  0  0  0  0  0  0  0  0
   64.3012   33.1212   52.2202 H   0  0  0  0  0  0  0  0  0  0  0  0
   62.9696   35.5918   51.0140 H   0  0  0  0  0  0  0  0  0  0  0  0
   64.3604   34.6189   50.3503 H   0  0  0  0  0  0  0  0  0  0  0  0
   61.5954   30.4463   50.4092 H   0  0  0  0  0  0  0  0  0  0  0  0
   59.9931   28.8389   49.3814 H   0  0  0  0  0  0  0  0  0  0  0  0
  1  2  2  0
  2  3  1  0
  3  4  1  0
  4  5  2  0
  5  6  1  0
  6  7  2  0
  7  8  1  0
  7  9  1  0
  9 10  2  0
  2 11  1  0
 11 12  1  0
 12 13  2  0
 12 14  1  0
 14 15  1  0
 15 16  2  0
 16 17  1  0
 17 18  2  0
 18 19  1  0
 19 20  2  0
 19 21  2  0
 19 22  1  0
 22 23  1  0
 23 24  1  0
 24 25  1  0
 25 26  1  0
 26 27  1  0
 18 28  1  0
 28 29  2  0
 10  4  1  0
 29 15  1  0
 27 22  1  0
  3 30  1  0
  3 31  1  0
  5 32  1  0
  6 33  1  0
  9 34  1  0
 10 35  1  0
 11 36  1  0
 14 37  1  0
 16 38  1  0
 17 39  1  0
 22 40  1  0
 23 41  1  0
 23 42  1  0
 24 43  1  0
 24 44  1  0
 26 45  1  0
 26 46  1  0
 27 47  1  0
 27 48  1  0
 28 49  1  0
 29 50  1  0
M  CHG  2   8  -1  22   1
M  END
>  <UniqueID>  (22) 
22

>  <SMILES>  (22) 
O=C(Cc1ccc([O-])cc1)NC(=S)Nc1ccc(S(=O)(=O)[NH+]2CCOCC2)cc1

>  <Energy>  (22) 
61.99207490060868

>  <Genealogy>  (22) 
O=C(Cc1ccc([O-])cc1)NC(=S)Nc1ccc(S(=O)(=O)[NH+]2CCOCC2)cc1 (protonated)
O=C(Cc1ccc([O-])cc1)NC(=S)Nc1ccc(S(=O)(=O)[NH+]2CCOCC2)cc1 (3D coordinates assigned)
O=C(Cc1ccc([O-])cc1)NC(=S)Nc1ccc(S(=O)(=O)[NH+]2CCOCC2)cc1 (nonaromatic ring conformer: 61.99207490060868 kcal/mol)

>  <smiles>  (22) 
O=C(Cc1ccc(O)cc1)NC(=S)Nc1ccc(S(=O)(=O)N2CCOCC2)cc1

>  <score_type>  (22) 
oracle

>  <origin>  (22) 
adg

>  <m_score__min__energy>  (22) 
-11.609999999999999

>  <m_primary>  (22) 
energy

$$$$
22:0
     RDKit          3D

 45 47  0  0  0  0  0  0  0  0999 V2000
   59.2855   29.3588   48.3558 H   0  0  0  0  0  0  0  0  0  0  0  0
   59.4230   30.1340   49.1240 C   0  0  0  0  0  0  0  0  0  0  0  0
   60.0800   31.3980   48.7430 C   0  0  0  0  0  0  0  0  0  0  0  0
   61.3380   31.4410   48.7000 O   0  0  0  0  0  0  0  0  0  0  0  0
   59.3340   32.5580   48.3600 N   0  0  0  0  0  0  0  0  0  0  0  0
   58.8170   32.8070   47.0450 C   0  0  0  0  0  0  0  0  0  0  0  0
   59.0000   34.0710   46.4740 C   0  0  0  0  0  0  0  0  0  0  0  0
   59.5833   34.8347   47.0093 H   0  0  0  0  0  0  0  0  0  0  0  0
   58.4450   34.3670   45.2270 C   0  0  0  0  0  0  0  0  0  0  0  0
   58.6078   35.3565   44.7748 H   0  0  0  0  0  0  0  0  0  0  0  0
   57.6840   33.4100   44.5530 C   0  0  0  0  0  0  0  0  0  0  0  0
   57.2353   33.6547   43.5790 H   0  0  0  0  0  0  0  0  0  0  0  0
   57.4890   32.1410   45.1100 C   0  0  0  0  0  0  0  0  0  0  0  0
   56.6210   31.2180   44.4360 N   0  0  0  0  0  0  0  0  0  0  0  0
   56.3680   29.8670   44.8400 C   0  0  0  0  0  0  0  0  0  0  0  0
   55.1770   29.4600   44.8800 O   0  0  0  0  0  0  0  0  0  0  0  0
   57.4710   28.9300   45.1490 C   0  0  0  0  0  0  0  0  0  0  0  0
   58.7980   29.2620   44.8340 C   0  0  0  0  0  0  0  0  0  0  0  0
   59.0258   30.2416   44.3885 H   0  0  0  0  0  0  0  0  0  0  0  0
   59.8300   28.3560   45.0830 C   0  0  0  0  0  0  0  0  0  0  0  0
   60.8660   28.6200   44.8241 H   0  0  0  0  0  0  0  0  0  0  0  0
   59.5510   27.1150   45.6600 C   0  0  0  0  0  0  0  0  0  0  0  0
   60.3692   26.4084   45.8633 H   0  0  0  0  0  0  0  0  0  0  0  0
   58.2310   26.7670   45.9810 C   0  0  0  0  0  0  0  0  0  0  0  0
   57.9350   25.4540   46.6510 C   0  0  0  0  0  0  0  0  0  0  0  0
   58.7685   24.7585   46.4736 H   0  0  0  0  0  0  0  0  0  0  0  0
   57.8109   25.6198   47.7313 H   0  0  0  0  0  0  0  0  0  0  0  0
   56.6750   24.8690   46.0960 C   0  0  0  0  0  0  0  0  0  0  0  0
   56.6630   23.8090   45.2610 N   0  0  0  0  0  0  0  0  0  0  0  0
   55.3610   23.6440   44.9710 C   0  0  0  0  0  0  0  0  0  0  0  0
   54.9483   22.8625   44.3161 H   0  0  0  0  0  0  0  0  0  0  0  0
   54.6270   24.6060   45.6220 C   0  0  0  0  0  0  0  0  0  0  0  0
   53.5338   24.7162   45.5694 H   0  0  0  0  0  0  0  0  0  0  0  0
   55.4540   25.3910   46.3330 N   0  0  0  0  0  0  0  0  0  0  0  0
   57.1950   27.6780   45.7230 C   0  0  0  0  0  0  0  0  0  0  0  0
   56.1579   27.4093   45.9724 H   0  0  0  0  0  0  0  0  0  0  0  0
   58.0600   31.8390   46.3590 C   0  0  0  0  0  0  0  0  0  0  0  0
   57.9145   30.8425   46.8015 H   0  0  0  0  0  0  0  0  0  0  0  0
   58.9870   29.8910   50.3660 C   0  0  0  0  0  0  0  0  0  0  0  0
   59.5430   29.1799   50.9947 H   0  0  0  0  0  0  0  0  0  0  0  0
   57.7870   30.5440   50.9200 C   0  0  0  0  0  0  0  0  0  0  0  0
   57.0240   29.9260   51.7090 O   0  0  0  0  0  0  0  0  0  0  0  0
   57.4750   31.8860   50.5520 N   0  0  0  0  0  0  0  0  0  0  0  0
   58.0950   32.4220   49.9030 H   0  0  0  0  0  0  0  0  0  0  0  0
   56.6270   32.3560   50.9430 H   0  0  0  0  0  0  0  0  0  0  0  0
  1  2  1  0
  2  3  1  0
  3  4  2  0
  3  5  1  0
  5  6  1  0
  6  7  2  0
  7  8  1  0
  7  9  1  0
  9 10  1  0
  9 11  2  0
 11 12  1  0
 11 13  1  0
 13 14  1  0
 14 15  1  0
 15 16  2  0
 15 17  1  0
 17 18  2  0
 18 19  1  0
 18 20  1  0
 20 21  1  0
 20 22  2  0
 22 23  1  0
 22 24  1  0
 24 25  1  0
 25 26  1  0
 25 27  1  0
 25 28  1  0
 28 29  2  0
 29 30  1  0
 30 31  1  0
 30 32  2  0
 32 33  1  0
 32 34  1  0
 24 35  2  0
 35 36  1  0
 13 37  2  0
 37 38  1  0
  2 39  2  0
 39 40  1  0
 39 41  1  0
 41 42  2  0
 41 43  1  0
 43 44  1  0
 43 45  1  0
 37  6  1  0
 35 17  1  0
 34 28  1  0
M  CHG  3   5  -1  14  -1  34  -1
M  END
>  <UniqueID>  (23) 
23

>  <SMILES>  (23) 
NC(=O)/C=C/C(=O)[N-]c1cccc([N-]C(=O)c2cccc(Cc3ncc[n-]3)c2)c1

>  <Energy>  (23) 
78.4567915679851

>  <Genealogy>  (23) 
NC(=O)C=CC(=O)[N-]c1cccc([N-]C(=O)c2cccc(Cc3ncc[n-]3)c2)c1 (protonated)
NC(=O)/C=C/C(=O)[N-]c1cccc([N-]C(=O)c2cccc(Cc3ncc[n-]3)c2)c1 (cis-trans isomerization)
NC(=O)/C=C/C(=O)[N-]c1cccc([N-]C(=O)c2cccc(Cc3ncc[n-]3)c2)c1 (3D coordinates assigned)
NC(=O)/C=C/C(=O)[N-]c1cccc([N-]C(=O)c2cccc(Cc3ncc[n-]3)c2)c1 (optimized conformer: 78.4567915679851 kcal/mol)

>  <smiles>  (23) 
NC(=O)C=CC(=O)Nc1cccc(NC(=O)c2cccc(Cc3ncc[nH]3)c2)c1

>  <score_type>  (23) 
oracle

>  <origin>  (23) 
adg

>  <m_score__min__energy>  (23) 
-14.15

>  <m_primary>  (23) 
energy

$$$$
23:0
     RDKit          3D

 44 46  0  0  0  0  0  0  0  0999 V2000
   54.9280   26.3370   46.7570 H   0  0  0  0  0  0  0  0  0  0  0  0
   55.3260   26.7500   45.9220 O   0  0  0  0  0  0  0  0  0  0  0  0
   56.6710   27.1140   45.8560 C   0  0  0  0  0  0  0  0  0  0  0  0
   57.6550   26.2680   46.3890 C   0  0  0  0  0  0  0  0  0  0  0  0
   57.3662   25.3085   46.8428 H   0  0  0  0  0  0  0  0  0  0  0  0
   59.0020   26.6410   46.3450 C   0  0  0  0  0  0  0  0  0  0  0  0
   59.7698   25.9766   46.7682 H   0  0  0  0  0  0  0  0  0  0  0  0
   59.3740   27.8550   45.7650 C   0  0  0  0  0  0  0  0  0  0  0  0
   60.4334   28.1499   45.7387 H   0  0  0  0  0  0  0  0  0  0  0  0
   58.4000   28.6970   45.2170 C   0  0  0  0  0  0  0  0  0  0  0  0
   58.6988   29.6473   44.7504 H   0  0  0  0  0  0  0  0  0  0  0  0
   57.0420   28.3360   45.2590 C   0  0  0  0  0  0  0  0  0  0  0  0
   56.0050   29.2390   44.6340 C   0  0  0  0  0  0  0  0  0  0  0  0
   55.2541   29.4970   45.3953 H   0  0  0  0  0  0  0  0  0  0  0  0
   55.5492   28.6990   43.7910 H   0  0  0  0  0  0  0  0  0  0  0  0
   56.6090   30.5080   44.0990 C   0  0  0  0  0  0  0  0  0  0  0  0
   57.2350   30.5020   43.0010 O   0  0  0  0  0  0  0  0  0  0  0  0
   56.4010   31.7300   44.8240 N   0  0  0  0  0  0  0  0  0  0  0  0
   57.3180   32.5570   45.2430 C   0  0  0  0  0  0  0  0  0  0  0  0
   57.4680   33.7900   44.6860 N   0  0  0  0  0  0  0  0  0  0  0  0
   58.4310   34.6550   45.1000 C   0  0  0  0  0  0  0  0  0  0  0  0
   58.5299   35.6384   44.6171 H   0  0  0  0  0  0  0  0  0  0  0  0
   59.2950   34.2980   46.1370 C   0  0  0  0  0  0  0  0  0  0  0  0
   60.0790   34.9940   46.4700 H   0  0  0  0  0  0  0  0  0  0  0  0
   59.1550   33.0440   46.7510 C   0  0  0  0  0  0  0  0  0  0  0  0
   60.0610   32.6500   47.8540 C   0  0  0  0  0  0  0  0  0  0  0  0
   59.6280   31.8760   48.7510 O   0  0  0  0  0  0  0  0  0  0  0  0
   61.4180   33.1280   47.9310 N   0  0  0  0  0  0  0  0  0  0  0  0
   62.2070   33.3810   46.7150 C   0  0  0  0  0  0  0  0  0  0  0  0
   61.7328   32.8651   45.8670 H   0  0  0  0  0  0  0  0  0  0  0  0
   62.2391   34.4670   46.5430 H   0  0  0  0  0  0  0  0  0  0  0  0
   63.6570   32.8700   46.8670 C   0  0  0  0  0  0  0  0  0  0  0  0
   63.7052   31.8448   46.4713 H   0  0  0  0  0  0  0  0  0  0  0  0
   64.2997   33.5700   46.3129 H   0  0  0  0  0  0  0  0  0  0  0  0
   64.1480   32.8530   48.2610 N   0  0  0  0  0  0  0  0  0  0  0  0
   65.1730   33.0700   48.2620 H   0  0  0  0  0  0  0  0  0  0  0  0
   63.4660   33.8230   49.1180 C   0  0  0  0  0  0  0  0  0  0  0  0
   63.9352   33.8299   50.1129 H   0  0  0  0  0  0  0  0  0  0  0  0
   63.5420   34.8272   48.6756 H   0  0  0  0  0  0  0  0  0  0  0  0
   61.9940   33.4260   49.2480 C   0  0  0  0  0  0  0  0  0  0  0  0
   61.9158   32.5337   49.8865 H   0  0  0  0  0  0  0  0  0  0  0  0
   61.4399   34.2648   49.6944 H   0  0  0  0  0  0  0  0  0  0  0  0
   58.1680   32.1620   46.2830 C   0  0  0  0  0  0  0  0  0  0  0  0
   58.0628   31.1634   46.7322 H   0  0  0  0  0  0  0  0  0  0  0  0
  1  2  1  0
  2  3  1  0
  3  4  2  0
  4  5  1  0
  4  6  1  0
  6  7  1  0
  6  8  2  0
  8  9  1  0
  8 10  1  0
 10 11  1  0
 10 12  2  0
 12 13  1  0
 13 14  1  0
 13 15  1  0
 13 16  1  0
 16 17  2  0
 16 18  1  0
 18 19  2  0
 19 20  1  0
 20 21  1  0
 21 22  1  0
 21 23  2  0
 23 24  1  0
 23 25  1  0
 25 26  1  0
 26 27  2  0
 26 28  1  0
 28 29  1  0
 29 30  1  0
 29 31  1  0
 29 32  1  0
 32 33  1  0
 32 34  1  0
 32 35  1  0
 35 36  1  0
 35 37  1  0
 37 38  1  0
 37 39  1  0
 37 40  1  0
 40 41  1  0
 40 42  1  0
 25 43  2  0
 43 44  1  0
 12  3  1  0
 43 19  1  0
 40 28  1  0
M  CHG  1  20  -1
M  END
>  <UniqueID>  (24) 
24

>  <SMILES>  (24) 
O=C(Cc1ccccc1O)/N=c1/cc(C(=O)N2CCNCC2)cc[n-]1

>  <Energy>  (24) 
57.12730773874279

>  <Genealogy>  (24) 
O=C(Cc1ccccc1O)N=c1cc(C(=O)N2CCNCC2)cc[n-]1 (protonated)
O=C(Cc1ccccc1O)/N=c1/cc(C(=O)N2CCNCC2)cc[n-]1 (cis-trans isomerization)
O=C(Cc1ccccc1O)/N=c1/cc(C(=O)N2CCNCC2)cc[n-]1 (3D coordinates assigned)
O=C(Cc1ccccc1O)/N=c1/cc(C(=O)N2CCNCC2)cc[n-]1 (nonaromatic ring conformer: 57.12730773874279 kcal/mol)

>  <smiles>  (24) 
O=C(Cc1ccccc1O)N=c1cc(C(=O)N2CCNCC2)cc[nH]1

>  <score_type>  (24) 
oracle

>  <origin>  (24) 
adg

>  <m_score__min__energy>  (24) 
-11.220000000000001

>  <m_primary>  (24) 
energy

$$$$
24:0
     RDKit          3D

 49 52  0  0  0  0  0  0  0  0999 V2000
   57.7730   31.7830   43.2320 C   0  0  0  0  0  0  0  0  0  0  0  0
   57.3430   31.5260   44.6720 C   0  0  0  0  0  0  0  0  0  0  0  0
   57.5420   30.1070   45.0250 N   0  0  0  0  0  0  0  0  0  0  0  0
   56.4590   29.2570   45.0850 C   0  0  0  0  0  0  0  0  0  0  0  0
   55.2900   29.6610   44.8340 O   0  0  0  0  0  0  0  0  0  0  0  0
   56.6760   27.9390   45.4430 C   0  0  0  0  0  0  0  0  0  0  0  0
   55.7800   26.9590   45.6260 N   0  0  0  0  0  0  0  0  0  0  0  0
   56.5660   25.9220   46.0230 C   0  0  0  0  0  0  0  0  0  0  0  0
   56.0140   24.5940   46.4300 C   0  0  0  0  0  0  0  0  0  0  0  0
   56.3160   23.5690   45.3710 C   0  0  0  0  0  0  0  0  0  0  0  0
   55.9430   23.7980   44.0350 C   0  0  0  0  0  0  0  0  0  0  0  0
   56.2560   22.8600   43.0460 C   0  0  0  0  0  0  0  0  0  0  0  0
   56.9510   21.6950   43.3800 C   0  0  0  0  0  0  0  0  0  0  0  0
   57.3440   21.4700   44.7030 C   0  0  0  0  0  0  0  0  0  0  0  0
   57.0320   22.4050   45.6950 C   0  0  0  0  0  0  0  0  0  0  0  0
   57.8890   26.2180   46.1100 N   0  0  0  0  0  0  0  0  0  0  0  0
   57.9190   27.5040   45.7290 C   0  0  0  0  0  0  0  0  0  0  0  0
   59.0050   28.3240   45.7070 N   0  0  0  0  0  0  0  0  0  0  0  0
   60.3220   27.8260   46.1400 C   0  0  0  0  0  0  0  0  0  0  0  0
   60.3870   27.7710   47.6360 C   0  0  0  0  0  0  0  0  0  0  0  0
   61.0100   26.8330   48.2020 O   0  0  0  0  0  0  0  0  0  0  0  0
   59.7770   28.8160   48.4030 N   0  0  0  0  0  0  0  0  0  0  0  0
   59.9830   30.2270   48.2620 C   0  0  0  0  0  0  0  0  0  0  0  0
   61.2510   30.7730   47.9860 C   0  0  0  0  0  0  0  0  0  0  0  0
   61.4120   32.1600   47.8940 C   0  0  0  0  0  0  0  0  0  0  0  0
   60.3190   33.0080   48.0870 C   0  0  0  0  0  0  0  0  0  0  0  0
   60.4790   34.3520   48.0020 F   0  0  0  0  0  0  0  0  0  0  0  0
   59.0620   32.4720   48.3800 C   0  0  0  0  0  0  0  0  0  0  0  0
   58.8970   31.0870   48.4730 C   0  0  0  0  0  0  0  0  0  0  0  0
   58.8060   29.6450   45.3630 C   0  0  0  0  0  0  0  0  0  0  0  0
   59.7850   30.4440   45.3690 O   0  0  0  0  0  0  0  0  0  0  0  0
   58.7172   32.3473   43.2264 H   0  0  0  0  0  0  0  0  0  0  0  0
   57.9168   30.8226   42.7153 H   0  0  0  0  0  0  0  0  0  0  0  0
   56.9952   32.3645   42.7153 H   0  0  0  0  0  0  0  0  0  0  0  0
   57.9429   32.1545   45.3466 H   0  0  0  0  0  0  0  0  0  0  0  0
   56.2757   31.7718   44.7740 H   0  0  0  0  0  0  0  0  0  0  0  0
   56.4734   24.2835   47.3800 H   0  0  0  0  0  0  0  0  0  0  0  0
   54.9242   24.6769   46.5542 H   0  0  0  0  0  0  0  0  0  0  0  0
   55.4031   24.7181   43.7666 H   0  0  0  0  0  0  0  0  0  0  0  0
   55.9545   23.0398   42.0035 H   0  0  0  0  0  0  0  0  0  0  0  0
   57.1891   20.9546   42.6021 H   0  0  0  0  0  0  0  0  0  0  0  0
   57.8990   20.5568   44.9636 H   0  0  0  0  0  0  0  0  0  0  0  0
   57.3487   22.2281   46.7335 H   0  0  0  0  0  0  0  0  0  0  0  0
   60.4813   26.8170   45.7319 H   0  0  0  0  0  0  0  0  0  0  0  0
   61.1029   28.5073   45.7712 H   0  0  0  0  0  0  0  0  0  0  0  0
   62.1159   30.1087   47.8425 H   0  0  0  0  0  0  0  0  0  0  0  0
   62.4019   32.5836   47.6691 H   0  0  0  0  0  0  0  0  0  0  0  0
   58.2024   33.1400   48.5375 H   0  0  0  0  0  0  0  0  0  0  0  0
   57.9081   30.6695   48.7134 H   0  0  0  0  0  0  0  0  0  0  0  0
  1  2  1  0
  2  3  1  0
  3  4  1  0
  4  5  2  0
  4  6  1  0
  6  7  1  0
  7  8  1  0
  8  9  1  0
  9 10  1  0
 10 11  2  0
 11 12  1  0
 12 13  2  0
 13 14  1  0
 14 15  2  0
  8 16  2  0
 16 17  1  0
 17 18  1  0
 18 19  1  0
 19 20  1  0
 20 21  2  0
 20 22  1  0
 22 23  1  0
 23 24  2  0
 24 25  1  0
 25 26  2  0
 26 27  1  0
 26 28  1  0
 28 29  2  0
 18 30  1  0
 30 31  2  0
 30  3  1  0
 17  6  2  0
 29 23  1  0
 15 10  1  0
  1 32  1  0
  1 33  1  0
  1 34  1  0
  2 35  1  0
  2 36  1  0
  9 37  1  0
  9 38  1  0
 11 39  1  0
 12 40  1  0
 13 41  1  0
 14 42  1  0
 15 43  1  0
 19 44  1  0
 19 45  1  0
 24 46  1  0
 25 47  1  0
 28 48  1  0
 29 49  1  0
M  CHG  2   7  -1  22  -1
M  END
>  <UniqueID>  (25) 
25

>  <SMILES>  (25) 
CCn1c(=O)c2[n-]c(Cc3ccccc3)nc2n(CC(=O)[N-]c2ccc(F)cc2)c1=O

>  <Energy>  (25) 
90.0383504428926

>  <Genealogy>  (25) 
CCn1c(=O)c2[n-]c(Cc3ccccc3)nc2n(CC(=O)[N-]c2ccc(F)cc2)c1=O (protonated)
CCn1c(=O)c2[n-]c(Cc3ccccc3)nc2n(CC(=O)[N-]c2ccc(F)cc2)c1=O (3D coordinates assigned)
CCn1c(=O)c2[n-]c(Cc3ccccc3)nc2n(CC(=O)[N-]c2ccc(F)cc2)c1=O (optimized conformer: 90.0383504428926 kcal/mol)

>  <smiles>  (25) 
CCn1c(=O)c2[nH]c(Cc3ccccc3)nc2n(CC(=O)Nc2ccc(F)cc2)c1=O

>  <score_type>  (25) 
oracle

>  <origin>  (25) 
adg

>  <m_score__min__energy>  (25) 
-11.17

>  <m_primary>  (25) 
energy

$$$$
25:0
     RDKit          3D

 70 74  0  0  1  0  0  0  0  0999 V2000
   56.8260   29.5830   43.0280 C   0  0  0  0  0  0  0  0  0  0  0  0
   56.1090   30.1180   44.2400 C   0  0  0  0  0  0  0  0  0  0  0  0
   55.4480   29.3130   44.9210 O   0  0  0  0  0  0  0  0  0  0  0  0
   60.1290   28.2450   49.3270 N   0  0  0  0  0  0  0  0  0  0  0  0
   60.3720   29.4290   48.8980 C   0  0  0  0  0  0  0  0  0  0  0  0
   58.0500   31.4020   45.9840 C   0  0  0  0  0  0  0  0  0  0  0  0
   59.1190   32.0190   46.5890 C   0  0  0  0  0  0  0  0  0  0  0  0
   59.9500   31.3320   47.5690 C   0  0  0  0  0  0  0  0  0  0  0  0
   59.6440   30.0880   47.9960 N   0  0  0  0  0  0  0  0  0  0  0  0
   57.2510   32.0710   45.0500 C   0  0  0  0  0  0  0  0  0  0  0  0
   56.2540   31.4990   44.4960 N   0  0  0  0  0  0  0  0  0  0  0  0
   60.4410   27.0890   48.5180 C   0  0  0  0  0  0  0  0  0  0  0  0
   59.6670   27.1350   47.2230 C   0  0  0  0  0  0  0  0  0  0  0  0
   60.1460   27.8350   46.1260 C   0  0  0  0  0  0  0  0  0  0  0  0
   59.4790   27.8810   44.9310 C   0  0  0  0  0  0  0  0  0  0  0  0
   58.2780   27.1940   44.8310 C   0  0  0  0  0  0  0  0  0  0  0  0
   57.7450   26.4760   45.8890 C   0  0  0  0  0  0  0  0  0  0  0  0
   56.4930   25.7620   45.7190 C   0  0  0  0  0  0  0  0  0  0  0  0
   55.4350   26.4190   46.0100 O   0  0  0  0  0  0  0  0  0  0  0  0
   56.3740   24.4260   45.2660 N   0  0  0  0  0  0  0  0  0  0  0  0
   57.5220   23.5960   44.9080 C   0  0  0  0  0  0  0  0  0  0  0  0
   57.1450   22.5800   43.8520 C   0  0  0  0  0  0  0  0  0  0  0  0
   56.0220   23.0840   42.9740 C   0  0  0  0  0  0  0  0  0  0  0  0
   54.7640   23.3540   43.7390 C   0  0  0  0  0  0  0  0  0  0  0  0
   55.0730   23.8090   45.1380 C   0  0  0  0  0  0  0  0  0  0  0  0
   58.4610   26.4590   47.0860 C   0  0  0  0  0  0  0  0  0  0  0  0
   61.4800   30.0340   49.4220 N   0  0  0  0  0  0  0  0  0  0  0  0
   61.8180   31.2680   49.0250 C   0  0  0  0  0  0  0  0  0  0  0  0
   62.9770   31.8440   49.6110 N   0  0  0  0  0  0  0  0  0  0  0  0
   63.3860   31.3560   50.9050 C   0  0  0  0  0  0  0  0  0  0  0  0
   64.8690   31.4900   51.0420 C   0  0  0  0  0  0  0  0  0  0  0  0
   65.4740   31.8240   49.8500 O   0  0  0  0  0  0  0  0  0  0  0  0
   65.0350   33.0670   49.3820 C   0  0  0  0  0  0  0  0  0  0  0  0
   63.6530   32.8720   48.8580 C   0  0  0  0  0  0  0  0  0  0  0  0
   61.0590   31.9170   48.1040 N   0  0  0  0  0  0  0  0  0  0  0  0
   59.3760   33.3360   46.2360 C   0  0  0  0  0  0  0  0  0  0  0  0
   58.5520   33.9330   45.3110 C   0  0  0  0  0  0  0  0  0  0  0  0
   57.5110   33.3410   44.7180 N   0  0  0  0  0  0  0  0  0  0  0  0
   57.6693   28.9538   43.3489 H   0  0  0  0  0  0  0  0  0  0  0  0
   56.1290   28.9824   42.4250 H   0  0  0  0  0  0  0  0  0  0  0  0
   57.2033   30.4221   42.4250 H   0  0  0  0  0  0  0  0  0  0  0  0
   57.8171   30.3579   46.2400 H   0  0  0  0  0  0  0  0  0  0  0  0
   61.5186   27.0801   48.2972 H   0  0  0  0  0  0  0  0  0  0  0  0
   60.1634   26.1790   49.0700 H   0  0  0  0  0  0  0  0  0  0  0  0
   61.0998   28.3749   46.2195 H   0  0  0  0  0  0  0  0  0  0  0  0
   59.8828   28.4449   44.0772 H   0  0  0  0  0  0  0  0  0  0  0  0
   57.7295   27.2203   43.8779 H   0  0  0  0  0  0  0  0  0  0  0  0
   58.3243   24.2397   44.5183 H   0  0  0  0  0  0  0  0  0  0  0  0
   57.8619   23.0598   45.8063 H   0  0  0  0  0  0  0  0  0  0  0  0
   58.0245   22.3738   43.2243 H   0  0  0  0  0  0  0  0  0  0  0  0
   56.8028   21.6658   44.3592 H   0  0  0  0  0  0  0  0  0  0  0  0
   56.3461   24.0171   42.4899 H   0  0  0  0  0  0  0  0  0  0  0  0
   55.7994   22.2980   42.2373 H   0  0  0  0  0  0  0  0  0  0  0  0
   54.1907   24.1387   43.2236 H   0  0  0  0  0  0  0  0  0  0  0  0
   54.1797   22.4236   43.7935 H   0  0  0  0  0  0  0  0  0  0  0  0
   54.3091   24.5389   45.4442 H   0  0  0  0  0  0  0  0  0  0  0  0
   55.0730   22.9145   45.7782 H   0  0  0  0  0  0  0  0  0  0  0  0
   58.0609   25.8965   47.9425 H   0  0  0  0  0  0  0  0  0  0  0  0
   62.8904   31.9435   51.6919 H   0  0  0  0  0  0  0  0  0  0  0  0
   63.1026   30.2978   51.0043 H   0  0  0  0  0  0  0  0  0  0  0  0
   65.0869   32.2744   51.7818 H   0  0  0  0  0  0  0  0  0  0  0  0
   65.2679   30.5160   51.3617 H   0  0  0  0  0  0  0  0  0  0  0  0
   65.0279   33.7988   50.2032 H   0  0  0  0  0  0  0  0  0  0  0  0
   65.7028   33.4486   48.5956 H   0  0  0  0  0  0  0  0  0  0  0  0
   63.0939   33.8151   48.9469 H   0  0  0  0  0  0  0  0  0  0  0  0
   63.7082   32.5673   47.8025 H   0  0  0  0  0  0  0  0  0  0  0  0
   61.3690   32.8530   47.8420 H   0  0  0  0  0  0  0  0  0  0  0  0
   60.2159   33.8874   46.6838 H   0  0  0  0  0  0  0  0  0  0  0  0
   58.7660   34.9770   45.0385 H   0  0  0  0  0  0  0  0  0  0  0  0
   56.9410   33.8730   44.0220 H   0  0  0  0  0  0  0  0  0  0  0  0
  1  2  1  0
  2  3  2  0
  2  4  1  0
  4  5  2  0
  5  6  1  0
  6  7  2  0
  7  8  1  0
  8  9  2  0
  9 10  1  0
 10 11  2  0
 11 12  1  0
 12 13  1  0
 13 14  2  0
 14 15  1  0
 15 16  2  0
 16 17  1  0
 17 18  1  0
 18 19  2  0
 18 20  1  0
 20 21  1  0
 21 22  1  0
 22 23  1  0
 23 24  1  0
 24 25  1  0
 17 26  2  0
 10 27  1  0
 27 28  2  0
 28 29  1  0
 29 30  1  0
 30 31  1  0
 31 32  1  0
 32 33  1  0
 33 34  1  0
 28 35  1  0
  7 36  1  0
 36 37  2  0
 37 38  1  0
 38  5  1  0
 35  8  1  0
 26 13  1  0
 34 29  1  0
 25 20  1  0
  1 39  1  0
  1 40  1  0
  1 41  1  0
  6 42  1  0
 12 43  1  0
 12 44  1  0
 14 45  1  0
 15 46  1  0
 16 47  1  0
 21 48  1  0
 21 49  1  0
 22 50  1  0
 22 51  1  0
 23 52  1  0
 23 53  1  0
 24 54  1  0
 24 55  1  0
 25 56  1  0
 25 57  1  0
 26 58  1  0
 30 59  1  0
 30 60  1  0
 31 61  1  0
 31 62  1  0
 33 63  1  0
 33 64  1  0
 34 65  1  0
 34 66  1  0
 35 67  1  0
 36 68  1  0
 37 69  1  0
 38 70  1  0
M  END
>  <smiles>  (26) 
CC(=O)N=c1cc(-c2nc(=NCc3cccc(C(=O)N4CCCCC4)c3)nc(N3CCOCC3)[nH]2)cc[nH]1

>  <score_type>  (26) 
oracle

>  <origin>  (26) 
adg

>  <m_score__min__energy>  (26) 
-10.75

>  <m_primary>  (26) 
energy

$$$$
26:0
     RDKit          3D

 52 55  0  0  0  0  0  0  0  0999 V2000
   56.3700   30.2580   44.8620 O   0  0  0  0  0  0  0  0  0  0  0  0
   57.5630   30.4930   45.1940 C   0  0  0  0  0  0  0  0  0  0  0  0
   58.5260   29.4240   45.2500 N   0  0  0  0  0  0  0  0  0  0  0  0
   58.2290   28.0570   44.9240 C   0  0  0  0  0  0  0  0  0  0  0  0
   58.1910   27.1000   45.9480 C   0  0  0  0  0  0  0  0  0  0  0  0
   57.9290   25.7580   45.6580 C   0  0  0  0  0  0  0  0  0  0  0  0
   57.7130   25.3470   44.3330 C   0  0  0  0  0  0  0  0  0  0  0  0
   57.4540   23.9630   44.0260 N   0  0  0  0  0  0  0  0  0  0  0  0
   56.6510   23.6140   42.8470 C   0  0  0  0  0  0  0  0  0  0  0  0
   56.2670   22.1350   42.8840 C   0  0  0  0  0  0  0  0  0  0  0  0
   55.9750   21.7590   44.2120 O   0  0  0  0  0  0  0  0  0  0  0  0
   57.1730   21.6730   44.9670 C   0  0  0  0  0  0  0  0  0  0  0  0
   58.1030   22.8980   44.8030 C   0  0  0  0  0  0  0  0  0  0  0  0
   57.7840   26.2990   43.3030 C   0  0  0  0  0  0  0  0  0  0  0  0
   58.0450   27.6420   43.5940 C   0  0  0  0  0  0  0  0  0  0  0  0
   57.9530   31.8830   45.5210 C   0  0  0  0  0  0  0  0  0  0  0  0
   57.0470   32.9210   45.2720 C   0  0  0  0  0  0  0  0  0  0  0  0
   57.3930   34.2360   45.5650 C   0  0  0  0  0  0  0  0  0  0  0  0
   58.6420   34.5110   46.1160 C   0  0  0  0  0  0  0  0  0  0  0  0
   59.5290   33.5030   46.3810 N   0  0  0  0  0  0  0  0  0  0  0  0
   60.8210   33.8390   47.0050 C   0  0  0  0  0  0  0  0  0  0  0  0
   60.7450   33.6650   48.5030 C   0  0  0  0  0  0  0  0  0  0  0  0
   59.5750   33.1390   49.0780 C   0  0  0  0  0  0  0  0  0  0  0  0
   59.4880   32.9450   50.4600 C   0  0  0  0  0  0  0  0  0  0  0  0
   58.0210   32.2870   51.1630 Cl  0  0  0  0  0  0  0  0  0  0  0  0
   60.5680   33.2760   51.2810 C   0  0  0  0  0  0  0  0  0  0  0  0
   61.7360   33.8000   50.7220 C   0  0  0  0  0  0  0  0  0  0  0  0
   61.8310   33.9970   49.3400 C   0  0  0  0  0  0  0  0  0  0  0  0
   63.0050   34.5260   48.8130 O   0  0  0  0  0  0  0  0  0  0  0  0
   59.1990   32.1960   46.1080 C   0  0  0  0  0  0  0  0  0  0  0  0
   60.0000   31.2680   46.4050 O   0  0  0  0  0  0  0  0  0  0  0  0
   59.4890   29.6340   45.5960 H   0  0  0  0  0  0  0  0  0  0  0  0
   58.3690   27.4081   46.9889 H   0  0  0  0  0  0  0  0  0  0  0  0
   57.8918   25.0197   46.4725 H   0  0  0  0  0  0  0  0  0  0  0  0
   55.7369   24.2258   42.8367 H   0  0  0  0  0  0  0  0  0  0  0  0
   57.2443   23.8065   41.9409 H   0  0  0  0  0  0  0  0  0  0  0  0
   55.3813   21.9700   42.2528 H   0  0  0  0  0  0  0  0  0  0  0  0
   57.1037   21.5289   42.5064 H   0  0  0  0  0  0  0  0  0  0  0  0
   56.9070   21.5793   46.0302 H   0  0  0  0  0  0  0  0  0  0  0  0
   57.7256   20.7986   44.5929 H   0  0  0  0  0  0  0  0  0  0  0  0
   58.3607   23.2877   45.7989 H   0  0  0  0  0  0  0  0  0  0  0  0
   59.0065   22.5773   44.2638 H   0  0  0  0  0  0  0  0  0  0  0  0
   57.6332   25.9861   42.2593 H   0  0  0  0  0  0  0  0  0  0  0  0
   58.1065   28.3769   42.7778 H   0  0  0  0  0  0  0  0  0  0  0  0
   56.0591   32.6960   44.8436 H   0  0  0  0  0  0  0  0  0  0  0  0
   56.6849   35.0531   45.3628 H   0  0  0  0  0  0  0  0  0  0  0  0
   58.9192   35.5514   46.3411 H   0  0  0  0  0  0  0  0  0  0  0  0
   61.6009   33.1759   46.6025 H   0  0  0  0  0  0  0  0  0  0  0  0
   61.0629   34.8883   46.7802 H   0  0  0  0  0  0  0  0  0  0  0  0
   58.7211   32.8779   48.4356 H   0  0  0  0  0  0  0  0  0  0  0  0
   60.4990   33.1241   52.3683 H   0  0  0  0  0  0  0  0  0  0  0  0
   62.5852   34.0590   51.3714 H   0  0  0  0  0  0  0  0  0  0  0  0
  1  2  2  0
  2  3  1  0
  3  4  1  0
  4  5  2  0
  5  6  1  0
  6  7  2  0
  7  8  1  0
  8  9  1  0
  9 10  1  0
 10 11  1  0
 11 12  1  0
 12 13  1  0
  7 14  1  0
 14 15  2  0
  2 16  1  0
 16 17  2  0
 17 18  1  0
 18 19  2  0
 19 20  1  0
 20 21  1  0
 21 22  1  0
 22 23  2  0
 23 24  1  0
 24 25  1  0
 24 26  2  0
 26 27  1  0
 27 28  2  0
 28 29  1  0
 20 30  1  0
 30 31  2  0
 15  4  1  0
 30 16  1  0
 13  8  1  0
 28 22  1  0
  3 32  1  0
  5 33  1  0
  6 34  1  0
  9 35  1  0
  9 36  1  0
 10 37  1  0
 10 38  1  0
 12 39  1  0
 12 40  1  0
 13 41  1  0
 13 42  1  0
 14 43  1  0
 15 44  1  0
 17 45  1  0
 18 46  1  0
 19 47  1  0
 21 48  1  0
 21 49  1  0
 23 50  1  0
 26 51  1  0
 27 52  1  0
M  CHG  1  29  -1
M  END
>  <UniqueID>  (27) 
26

>  <SMILES>  (27) 
O=C(Nc1ccc(N2CCOCC2)cc1)c1cccn(Cc2cc(Cl)ccc2[O-])c1=O

>  <Energy>  (27) 
78.1938341715239

>  <Genealogy>  (27) 
O=C(Nc1ccc(N2CCOCC2)cc1)c1cccn(Cc2cc(Cl)ccc2[O-])c1=O (protonated)
O=C(Nc1ccc(N2CCOCC2)cc1)c1cccn(Cc2cc(Cl)ccc2[O-])c1=O (3D coordinates assigned)
O=C(Nc1ccc(N2CCOCC2)cc1)c1cccn(Cc2cc(Cl)ccc2[O-])c1=O (nonaromatic ring conformer: 78.1938341715239 kcal/mol)

>  <smiles>  (27) 
O=C(Nc1ccc(N2CCOCC2)cc1)c1cccn(Cc2cc(Cl)ccc2O)c1=O

>  <score_type>  (27) 
oracle

>  <origin>  (27) 
adg

>  <m_score__min__energy>  (27) 
-11.720000000000001

>  <m_primary>  (27) 
energy

$$$$
27:0
     RDKit          3D

 61 65  0  0  0  0  0  0  0  0999 V2000
   54.0660   23.4960   45.6000 C   0  0  0  0  0  0  0  0  0  0  0  0
   54.6970   24.7420   46.0160 N   0  0  0  0  0  0  0  0  0  0  0  0
   55.5520   24.4530   47.0340 O   0  0  0  0  0  0  0  0  0  0  0  0
   56.7820   24.0960   46.4480 C   0  0  0  0  0  0  0  0  0  0  0  0
   57.6810   25.3010   46.3350 C   0  0  0  0  0  0  0  0  0  0  0  0
   59.0210   25.0840   46.2730 N   0  0  0  0  0  0  0  0  0  0  0  0
   59.9260   26.0840   46.1250 C   0  0  0  0  0  0  0  0  0  0  0  0
   61.1530   25.8000   46.0870 O   0  0  0  0  0  0  0  0  0  0  0  0
   59.4890   27.4140   46.0080 C   0  0  0  0  0  0  0  0  0  0  0  0
   60.3960   28.4760   45.8430 C   0  0  0  0  0  0  0  0  0  0  0  0
   59.9340   29.7860   45.7070 C   0  0  0  0  0  0  0  0  0  0  0  0
   58.5590   30.0590   45.7290 C   0  0  0  0  0  0  0  0  0  0  0  0
   58.0820   31.4040   45.5520 N   0  0  0  0  0  0  0  0  0  0  0  0
   57.7680   32.2260   46.7250 C   0  0  0  0  0  0  0  0  0  0  0  0
   57.4700   33.6840   46.3360 C   0  0  0  0  0  0  0  0  0  0  0  0
   58.3350   34.1770   45.2390 N   0  0  0  0  0  0  0  0  0  0  0  0
   59.5380   34.9350   45.6510 C   0  0  0  0  0  0  0  0  0  0  0  0
   60.3520   34.2490   46.7280 C   0  0  0  0  0  0  0  0  0  0  0  0
   61.5810   33.6470   46.4150 C   0  0  0  0  0  0  0  0  0  0  0  0
   62.3260   33.0070   47.4050 C   0  0  0  0  0  0  0  0  0  0  0  0
   61.8580   32.9630   48.7180 C   0  0  0  0  0  0  0  0  0  0  0  0
   60.6410   33.5750   49.0620 C   0  0  0  0  0  0  0  0  0  0  0  0
   60.1460   33.4780   50.4540 C   0  0  0  0  0  0  0  0  0  0  0  0
   60.9060   33.4620   51.6130 C   0  0  0  0  0  0  0  0  0  0  0  0
   60.0040   33.3790   52.6510 C   0  0  0  0  0  0  0  0  0  0  0  0
   58.7540   33.3490   52.0720 C   0  0  0  0  0  0  0  0  0  0  0  0
   58.8710   33.4090   50.7670 O   0  0  0  0  0  0  0  0  0  0  0  0
   59.9090   34.2450   48.0610 C   0  0  0  0  0  0  0  0  0  0  0  0
   58.5070   33.2910   44.0620 C   0  0  0  0  0  0  0  0  0  0  0  0
   57.8140   31.9340   44.2160 C   0  0  0  0  0  0  0  0  0  0  0  0
   57.6500   29.0070   45.9150 C   0  0  0  0  0  0  0  0  0  0  0  0
   58.1000   27.6810   46.0510 C   0  0  0  0  0  0  0  0  0  0  0  0
   57.1850   26.6220   46.2230 C   0  0  0  0  0  0  0  0  0  0  0  0
   55.8170   26.9100   46.2780 O   0  0  0  0  0  0  0  0  0  0  0  0
   53.7735   22.9184   46.4893 H   0  0  0  0  0  0  0  0  0  0  0  0
   53.1729   23.7203   44.9984 H   0  0  0  0  0  0  0  0  0  0  0  0
   54.7754   22.9088   44.9984 H   0  0  0  0  0  0  0  0  0  0  0  0
   55.2790   25.0850   45.2170 H   0  0  0  0  0  0  0  0  0  0  0  0
   57.2732   23.3349   47.0720 H   0  0  0  0  0  0  0  0  0  0  0  0
   56.5940   23.6959   45.4407 H   0  0  0  0  0  0  0  0  0  0  0  0
   61.4769   28.2729   45.8210 H   0  0  0  0  0  0  0  0  0  0  0  0
   60.6529   30.6091   45.5818 H   0  0  0  0  0  0  0  0  0  0  0  0
   56.8861   31.8045   47.2297 H   0  0  0  0  0  0  0  0  0  0  0  0
   58.6436   32.2213   47.3908 H   0  0  0  0  0  0  0  0  0  0  0  0
   56.4206   33.7536   46.0136 H   0  0  0  0  0  0  0  0  0  0  0  0
   57.6696   34.3084   47.2193 H   0  0  0  0  0  0  0  0  0  0  0  0
   60.1789   35.0755   44.7681 H   0  0  0  0  0  0  0  0  0  0  0  0
   59.1876   35.8889   46.0722 H   0  0  0  0  0  0  0  0  0  0  0  0
   61.9587   33.6803   45.3824 H   0  0  0  0  0  0  0  0  0  0  0  0
   63.2862   32.5352   47.1494 H   0  0  0  0  0  0  0  0  0  0  0  0
   62.4461   32.4453   49.4901 H   0  0  0  0  0  0  0  0  0  0  0  0
   62.0025   33.5064   51.6884 H   0  0  0  0  0  0  0  0  0  0  0  0
   60.2352   33.3438   53.7259 H   0  0  0  0  0  0  0  0  0  0  0  0
   57.8028   33.2845   52.6207 H   0  0  0  0  0  0  0  0  0  0  0  0
   58.9801   34.7708   48.3267 H   0  0  0  0  0  0  0  0  0  0  0  0
   58.0889   33.7980   43.1799 H   0  0  0  0  0  0  0  0  0  0  0  0
   59.5844   33.0955   43.9573 H   0  0  0  0  0  0  0  0  0  0  0  0
   56.7294   32.0577   44.0804 H   0  0  0  0  0  0  0  0  0  0  0  0
   58.1986   31.2355   43.4582 H   0  0  0  0  0  0  0  0  0  0  0  0
   56.5719   29.2215   45.9550 H   0  0  0  0  0  0  0  0  0  0  0  0
   55.1390   26.3520   46.7760 H   0  0  0  0  0  0  0  0  0  0  0  0
  1  2  1  0
  2  3  1  0
  3  4  1  0
  4  5  1  0
  5  6  1  0
  6  7  1  0
  7  8  2  0
  7  9  1  0
  9 10  2  0
 10 11  1  0
 11 12  2  0
 12 13  1  0
 13 14  1  0
 14 15  1  0
 15 16  1  0
 16 17  1  0
 17 18  1  0
 18 19  2  0
 19 20  1  0
 20 21  2  0
 21 22  1  0
 22 23  1  0
 23 24  2  0
 24 25  1  0
 25 26  2  0
 26 27  1  0
 22 28  2  0
 16 29  1  0
 29 30  1  0
 12 31  1  0
 31 32  2  0
 32 33  1  0
 33 34  1  0
 33  5  2  0
 32  9  1  0
 30 13  1  0
 28 18  1  0
 27 23  1  0
  1 35  1  0
  1 36  1  0
  1 37  1  0
  2 38  1  0
  4 39  1  0
  4 40  1  0
 10 41  1  0
 11 42  1  0
 14 43  1  0
 14 44  1  0
 15 45  1  0
 15 46  1  0
 17 47  1  0
 17 48  1  0
 19 49  1  0
 20 50  1  0
 21 51  1  0
 24 52  1  0
 25 53  1  0
 26 54  1  0
 28 55  1  0
 29 56  1  0
 29 57  1  0
 30 58  1  0
 30 59  1  0
 31 60  1  0
 34 61  1  0
M  CHG  1   6  -1
M  END
>  <UniqueID>  (28) 
27

>  <SMILES>  (28) 
CNOCc1[n-]c(=O)c2ccc(N3CCN(Cc4cccc(-c5ccco5)c4)CC3)cc2c1O

>  <Energy>  (28) 
110.4061527970571

>  <Genealogy>  (28) 
CNOCc1[n-]c(=O)c2ccc(N3CCN(Cc4cccc(-c5ccco5)c4)CC3)cc2c1O (protonated)
CNOCc1[n-]c(=O)c2ccc(N3CCN(Cc4cccc(-c5ccco5)c4)CC3)cc2c1O (3D coordinates assigned)
CNOCc1[n-]c(=O)c2ccc(N3CCN(Cc4cccc(-c5ccco5)c4)CC3)cc2c1O (nonaromatic ring conformer: 110.4061527970571 kcal/mol)

>  <smiles>  (28) 
CNOCc1[nH]c(=O)c2ccc(N3CCN(Cc4cccc(-c5ccco5)c4)CC3)cc2c1O

>  <score_type>  (28) 
oracle

>  <origin>  (28) 
adg

>  <m_score__min__energy>  (28) 
-12.27

>  <m_primary>  (28) 
energy

$$$$
28:0
     RDKit          3D

 42 43  0  0  0  0  0  0  0  0999 V2000
   56.2440   29.7140   43.6930 C   0  0  0  0  0  0  0  0  0  0  0  0
   56.5180   30.6390   44.7380 O   0  0  0  0  0  0  0  0  0  0  0  0
   57.6280   31.4880   44.7210 C   0  0  0  0  0  0  0  0  0  0  0  0
   58.2370   31.7180   43.6420 O   0  0  0  0  0  0  0  0  0  0  0  0
   58.0740   32.1120   45.9800 C   0  0  0  0  0  0  0  0  0  0  0  0
   58.4960   31.2460   47.3600 S   0  0  0  0  0  0  0  0  0  0  0  0
   58.8430   32.6280   48.2600 C   0  0  0  0  0  0  0  0  0  0  0  0
   59.2640   32.6820   49.4910 N   0  0  0  0  0  0  0  0  0  0  0  0
   58.7660   32.0340   50.6750 C   0  0  0  0  0  0  0  0  0  0  0  0
   58.3380   32.7590   51.6110 O   0  0  0  0  0  0  0  0  0  0  0  0
   58.6660   30.5420   50.8350 C   0  0  0  0  0  0  0  0  0  0  0  0
   57.2990   30.1380   51.1460 N   0  0  0  0  0  0  0  0  0  0  0  0
   56.7760   30.0560   52.4760 C   0  0  0  0  0  0  0  0  0  0  0  0
   57.3760   29.3850   53.3590 O   0  0  0  0  0  0  0  0  0  0  0  0
   55.5250   30.8020   52.8260 C   0  0  0  0  0  0  0  0  0  0  0  0
   54.2990   29.8800   52.8280 C   0  0  0  0  0  0  0  0  0  0  0  0
   53.1930   30.4160   51.9550 C   0  0  0  0  0  0  0  0  0  0  0  0
   52.9520   29.8580   50.6900 C   0  0  0  0  0  0  0  0  0  0  0  0
   51.9440   30.3750   49.8700 C   0  0  0  0  0  0  0  0  0  0  0  0
   51.1720   31.4540   50.3070 C   0  0  0  0  0  0  0  0  0  0  0  0
   51.4070   32.0190   51.5650 C   0  0  0  0  0  0  0  0  0  0  0  0
   50.6400   33.0950   51.9980 O   0  0  0  0  0  0  0  0  0  0  0  0
   52.4140   31.5020   52.3880 C   0  0  0  0  0  0  0  0  0  0  0  0
   58.6600   33.7470   47.5280 N   0  0  0  0  0  0  0  0  0  0  0  0
   58.2290   33.4760   46.2640 C   0  0  0  0  0  0  0  0  0  0  0  0
   57.9550   34.5800   45.2940 C   0  0  0  0  0  0  0  0  0  0  0  0
   55.9569   28.7449   44.1271 H   0  0  0  0  0  0  0  0  0  0  0  0
   55.4204   30.0959   43.0718 H   0  0  0  0  0  0  0  0  0  0  0  0
   57.1427   29.5858   43.0718 H   0  0  0  0  0  0  0  0  0  0  0  0
   58.9793   30.0583   49.8980 H   0  0  0  0  0  0  0  0  0  0  0  0
   59.3188   30.2349   51.6654 H   0  0  0  0  0  0  0  0  0  0  0  0
   55.6410   31.2437   53.8267 H   0  0  0  0  0  0  0  0  0  0  0  0
   55.3667   31.5829   52.0676 H   0  0  0  0  0  0  0  0  0  0  0  0
   54.5982   28.8892   52.4553 H   0  0  0  0  0  0  0  0  0  0  0  0
   53.9205   29.8173   53.8589 H   0  0  0  0  0  0  0  0  0  0  0  0
   53.5592   29.0095   50.3416 H   0  0  0  0  0  0  0  0  0  0  0  0
   51.7590   29.9317   48.8804 H   0  0  0  0  0  0  0  0  0  0  0  0
   50.3789   31.8596   49.6616 H   0  0  0  0  0  0  0  0  0  0  0  0
   52.5961   31.9474   53.3772 H   0  0  0  0  0  0  0  0  0  0  0  0
   57.7257   35.5039   45.8452 H   0  0  0  0  0  0  0  0  0  0  0  0
   58.8405   34.7406   44.6615 H   0  0  0  0  0  0  0  0  0  0  0  0
   57.0971   34.3079   44.6615 H   0  0  0  0  0  0  0  0  0  0  0  0
  1  2  1  0
  2  3  1  0
  3  4  2  0
  3  5  1  0
  5  6  1  0
  6  7  1  0
  7  8  2  3
  8  9  1  0
  9 10  2  0
  9 11  1  0
 11 12  1  0
 12 13  1  0
 13 14  2  0
 13 15  1  0
 15 16  1  0
 16 17  1  0
 17 18  2  0
 18 19  1  0
 19 20  2  0
 20 21  1  0
 21 22  1  0
 21 23  2  0
  7 24  1  0
 24 25  1  0
 25 26  1  0
 25  5  2  0
 23 17  1  0
  1 27  1  0
  1 28  1  0
  1 29  1  0
 11 30  1  0
 11 31  1  0
 15 32  1  0
 15 33  1  0
 16 34  1  0
 16 35  1  0
 18 36  1  0
 19 37  1  0
 20 38  1  0
 23 39  1  0
 26 40  1  0
 26 41  1  0
 26 42  1  0
M  CHG  3  12  -1  22  -1  24  -1
M  END
>  <UniqueID>  (29) 
28

>  <SMILES>  (29) 
COC(=O)c1sc(=NC(=O)C[N-]C(=O)CCc2cccc([O-])c2)[n-]c1C

>  <Energy>  (29) 
67.21299592290845

>  <Genealogy>  (29) 
COC(=O)c1sc(=NC(=O)C[N-]C(=O)CCc2cccc([O-])c2)[n-]c1C (protonated)
COC(=O)c1sc(=NC(=O)C[N-]C(=O)CCc2cccc([O-])c2)[n-]c1C (3D coordinates assigned)
COC(=O)c1sc(=NC(=O)C[N-]C(=O)CCc2cccc([O-])c2)[n-]c1C (optimized conformer: 67.21299592290845 kcal/mol)

>  <smiles>  (29) 
COC(=O)c1sc(=NC(=O)CNC(=O)CCc2cccc(O)c2)[nH]c1C

>  <score_type>  (29) 
oracle

>  <origin>  (29) 
adg

>  <m_score__min__energy>  (29) 
-13.69

>  <m_primary>  (29) 
energy

$$$$
29:0
     RDKit          3D

 53 56  0  0  0  0  0  0  0  0999 V2000
   63.2070   34.4150   48.9920 O   0  0  0  0  0  0  0  0  0  0  0  0
   62.1630   33.7390   48.7700 C   0  0  0  0  0  0  0  0  0  0  0  0
   61.2710   33.4470   49.9070 C   0  0  0  0  0  0  0  0  0  0  0  0
   59.9890   33.8200   49.8820 C   0  0  0  0  0  0  0  0  0  0  0  0
   59.1250   33.4730   51.0580 C   0  0  0  0  0  0  0  0  0  0  0  0
   59.3860   32.0940   51.5260 N   0  0  0  0  0  0  0  0  0  0  0  0
   58.6310   30.9280   50.4590 S   0  0  0  0  0  0  0  0  0  0  0  0
   58.5250   31.5060   49.0730 O   0  0  0  0  0  0  0  0  0  0  0  0
   57.2500   30.6090   50.9660 O   0  0  0  0  0  0  0  0  0  0  0  0
   59.5650   29.4310   50.4010 C   0  0  0  0  0  0  0  0  0  0  0  0
   59.9230   28.8700   49.1650 C   0  0  0  0  0  0  0  0  0  0  0  0
   60.6660   27.6860   49.1180 C   0  0  0  0  0  0  0  0  0  0  0  0
   61.0810   27.0720   50.3030 C   0  0  0  0  0  0  0  0  0  0  0  0
   60.7390   27.6310   51.5360 C   0  0  0  0  0  0  0  0  0  0  0  0
   59.9910   28.8100   51.5910 C   0  0  0  0  0  0  0  0  0  0  0  0
   59.6400   29.3160   52.7970 F   0  0  0  0  0  0  0  0  0  0  0  0
   60.8320   31.7890   51.7320 C   0  0  0  0  0  0  0  0  0  0  0  0
   61.8010   32.8650   51.1910 C   0  0  0  0  0  0  0  0  0  0  0  0
   61.9050   33.2220   47.4470 N   0  0  0  0  0  0  0  0  0  0  0  0
   61.0930   33.9430   46.4660 C   0  0  0  0  0  0  0  0  0  0  0  0
   59.8720   33.1380   46.0880 C   0  0  0  0  0  0  0  0  0  0  0  0
   59.7820   31.8100   46.3110 C   0  0  0  0  0  0  0  0  0  0  0  0
   58.5800   31.0600   45.8540 C   0  0  0  0  0  0  0  0  0  0  0  0
   57.6890   31.6350   44.9290 C   0  0  0  0  0  0  0  0  0  0  0  0
   56.5510   30.9400   44.5160 C   0  0  0  0  0  0  0  0  0  0  0  0
   56.2860   29.6630   45.0200 C   0  0  0  0  0  0  0  0  0  0  0  0
   55.1520   28.9750   44.6060 O   0  0  0  0  0  0  0  0  0  0  0  0
   57.1600   29.0840   45.9420 C   0  0  0  0  0  0  0  0  0  0  0  0
   58.2970   29.7760   46.3610 C   0  0  0  0  0  0  0  0  0  0  0  0
   60.8320   31.0760   47.1290 C   0  0  0  0  0  0  0  0  0  0  0  0
   62.1670   31.8150   47.1490 C   0  0  0  0  0  0  0  0  0  0  0  0
   59.5773   34.3675   49.0213 H   0  0  0  0  0  0  0  0  0  0  0  0
   59.3356   34.1758   51.8776 H   0  0  0  0  0  0  0  0  0  0  0  0
   58.0717   33.5420   50.7485 H   0  0  0  0  0  0  0  0  0  0  0  0
   59.6181   29.3633   48.2303 H   0  0  0  0  0  0  0  0  0  0  0  0
   60.9240   27.2375   48.1473 H   0  0  0  0  0  0  0  0  0  0  0  0
   61.6771   26.1483   50.2643 H   0  0  0  0  0  0  0  0  0  0  0  0
   61.0596   27.1415   52.4674 H   0  0  0  0  0  0  0  0  0  0  0  0
   61.0090   31.6801   52.8122 H   0  0  0  0  0  0  0  0  0  0  0  0
   61.0400   30.8695   51.1653 H   0  0  0  0  0  0  0  0  0  0  0  0
   61.9061   33.6667   51.9368 H   0  0  0  0  0  0  0  0  0  0  0  0
   62.7791   32.4008   50.9968 H   0  0  0  0  0  0  0  0  0  0  0  0
   60.7732   34.9029   46.8977 H   0  0  0  0  0  0  0  0  0  0  0  0
   61.6978   34.1130   45.5630 H   0  0  0  0  0  0  0  0  0  0  0  0
   59.0243   33.6536   45.6131 H   0  0  0  0  0  0  0  0  0  0  0  0
   57.8907   32.6394   44.5285 H   0  0  0  0  0  0  0  0  0  0  0  0
   55.8610   31.3982   43.7922 H   0  0  0  0  0  0  0  0  0  0  0  0
   56.9518   28.0796   46.3392 H   0  0  0  0  0  0  0  0  0  0  0  0
   58.9775   29.3158   47.0925 H   0  0  0  0  0  0  0  0  0  0  0  0
   60.4683   30.9734   48.1621 H   0  0  0  0  0  0  0  0  0  0  0  0
   60.9968   30.0932   46.6633 H   0  0  0  0  0  0  0  0  0  0  0  0
   62.8191   31.3853   47.9237 H   0  0  0  0  0  0  0  0  0  0  0  0
   62.6690   31.7197   46.1749 H   0  0  0  0  0  0  0  0  0  0  0  0
  1  2  2  0
  2  3  1  0
  3  4  2  0
  4  5  1  0
  5  6  1  0
  6  7  1  0
  7  8  2  0
  7  9  2  0
  7 10  1  0
 10 11  2  0
 11 12  1  0
 12 13  2  0
 13 14  1  0
 14 15  2  0
 15 16  1  0
  6 17  1  0
 17 18  1  0
  2 19  1  0
 19 20  1  0
 20 21  1  0
 21 22  2  0
 22 23  1  0
 23 24  2  0
 24 25  1  0
 25 26  2  0
 26 27  1  0
 26 28  1  0
 28 29  2  0
 22 30  1  0
 30 31  1  0
 18  3  1  0
 31 19  1  0
 15 10  1  0
 29 23  1  0
  4 32  1  0
  5 33  1  0
  5 34  1  0
 11 35  1  0
 12 36  1  0
 13 37  1  0
 14 38  1  0
 17 39  1  0
 17 40  1  0
 18 41  1  0
 18 42  1  0
 20 43  1  0
 20 44  1  0
 21 45  1  0
 24 46  1  0
 25 47  1  0
 28 48  1  0
 29 49  1  0
 30 50  1  0
 30 51  1  0
 31 52  1  0
 31 53  1  0
M  CHG  1  27  -1
M  END
>  <UniqueID>  (30) 
29

>  <SMILES>  (30) 
O=C(C1=CCN(S(=O)(=O)c2ccccc2F)CC1)N1CC=C(c2ccc([O-])cc2)CC1

>  <Energy>  (30) 
76.5106966785152

>  <Genealogy>  (30) 
O=C(C1=CCN(S(=O)(=O)c2ccccc2F)CC1)N1CC=C(c2ccc([O-])cc2)CC1 (protonated)
O=C(C1=CCN(S(=O)(=O)c2ccccc2F)CC1)N1CC=C(c2ccc([O-])cc2)CC1 (3D coordinates assigned)
O=C(C1=CCN(S(=O)(=O)c2ccccc2F)CC1)N1CC=C(c2ccc([O-])cc2)CC1 (nonaromatic ring conformer: 76.5106966785152 kcal/mol)

>  <smiles>  (30) 
O=C(C1=CCN(S(=O)(=O)c2ccccc2F)CC1)N1CC=C(c2ccc(O)cc2)CC1

>  <score_type>  (30) 
oracle

>  <origin>  (30) 
adg

>  <m_score__min__energy>  (30) 
-11.52

>  <m_primary>  (30) 
energy

$$$$
30:0
     RDKit          3D

 46 48  0  0  0  0  0  0  0  0999 V2000
   56.7310   23.6910   42.8160 C   0  0  0  0  0  0  0  0  0  0  0  0
   57.0610   24.7160   43.6250 C   0  0  0  0  0  0  0  0  0  0  0  0
   57.7650   25.7550   43.0780 N   0  0  0  0  0  0  0  0  0  0  0  0
   58.1940   26.7830   43.8060 N   0  0  0  0  0  0  0  0  0  0  0  0
   57.9570   26.8690   45.1350 C   0  0  0  0  0  0  0  0  0  0  0  0
   58.4370   28.0490   45.8820 C   0  0  0  0  0  0  0  0  0  0  0  0
   58.7320   27.9210   47.1000 O   0  0  0  0  0  0  0  0  0  0  0  0
   58.5480   29.3430   45.2580 N   0  0  0  0  0  0  0  0  0  0  0  0
   59.6920   30.2120   45.5720 C   0  0  0  0  0  0  0  0  0  0  0  0
   59.2270   31.6080   46.0430 C   0  0  0  0  0  0  0  0  0  0  0  0
   57.8180   31.8690   45.6860 N   0  0  0  0  0  0  0  0  0  0  0  0
   57.3080   33.2190   46.0210 C   0  0  0  0  0  0  0  0  0  0  0  0
   57.9590   34.4030   45.2720 C   0  0  0  0  0  0  0  0  0  0  0  0
   59.2720   34.8840   45.8820 C   0  0  0  0  0  0  0  0  0  0  0  0
   57.4660   31.3710   44.3470 C   0  0  0  0  0  0  0  0  0  0  0  0
   57.4680   29.8410   44.3900 C   0  0  0  0  0  0  0  0  0  0  0  0
   57.2040   25.8730   45.7540 C   0  0  0  0  0  0  0  0  0  0  0  0
   56.7470   24.7560   45.0230 C   0  0  0  0  0  0  0  0  0  0  0  0
   55.9920   23.8020   45.6340 C   0  0  0  0  0  0  0  0  0  0  0  0
   54.5150   23.7180   45.5990 C   0  0  0  0  0  0  0  0  0  0  0  0
   53.8030   22.5900   45.4110 N   0  0  0  0  0  0  0  0  0  0  0  0
   52.5290   23.0290   45.3450 C   0  0  0  0  0  0  0  0  0  0  0  0
   51.5520   22.2510   45.1840 O   0  0  0  0  0  0  0  0  0  0  0  0
   52.3830   24.3660   45.4550 N   0  0  0  0  0  0  0  0  0  0  0  0
   53.6500   24.7870   45.6030 C   0  0  0  0  0  0  0  0  0  0  0  0
   54.0090   26.1230   45.7360 O   0  0  0  0  0  0  0  0  0  0  0  0
   56.1655   22.8358   43.2146 H   0  0  0  0  0  0  0  0  0  0  0  0
   57.0270   23.7091   41.7567 H   0  0  0  0  0  0  0  0  0  0  0  0
   57.9980   25.7580   42.0580 H   0  0  0  0  0  0  0  0  0  0  0  0
   60.2877   29.7450   46.3702 H   0  0  0  0  0  0  0  0  0  0  0  0
   60.2926   30.3370   44.6590 H   0  0  0  0  0  0  0  0  0  0  0  0
   59.3338   31.6683   47.1361 H   0  0  0  0  0  0  0  0  0  0  0  0
   59.8510   32.3622   45.5412 H   0  0  0  0  0  0  0  0  0  0  0  0
   56.2306   33.2344   45.7998 H   0  0  0  0  0  0  0  0  0  0  0  0
   57.5567   33.3711   47.0817 H   0  0  0  0  0  0  0  0  0  0  0  0
   58.1545   34.0899   44.2358 H   0  0  0  0  0  0  0  0  0  0  0  0
   57.2535   35.2444   45.3376 H   0  0  0  0  0  0  0  0  0  0  0  0
   59.1982   34.8570   46.9792 H   0  0  0  0  0  0  0  0  0  0  0  0
   60.0912   34.2276   45.5533 H   0  0  0  0  0  0  0  0  0  0  0  0
   59.4733   35.9143   45.5533 H   0  0  0  0  0  0  0  0  0  0  0  0
   56.4666   31.7343   44.0654 H   0  0  0  0  0  0  0  0  0  0  0  0
   58.1932   31.7312   43.6044 H   0  0  0  0  0  0  0  0  0  0  0  0
   56.5012   29.4901   44.7801 H   0  0  0  0  0  0  0  0  0  0  0  0
   57.6312   29.4602   43.3710 H   0  0  0  0  0  0  0  0  0  0  0  0
   56.9633   25.9586   46.8239 H   0  0  0  0  0  0  0  0  0  0  0  0
   56.5260   23.0266   46.2028 H   0  0  0  0  0  0  0  0  0  0  0  0
  1  2  2  0
  2  3  1  0
  3  4  2  0
  4  5  1  0
  5  6  1  0
  6  7  2  0
  6  8  1  0
  8  9  1  0
  9 10  1  0
 10 11  1  0
 11 12  1  0
 12 13  1  0
 13 14  1  0
 11 15  1  0
 15 16  1  0
  5 17  2  0
 17 18  1  0
 18 19  2  3
 19 20  1  0
 20 21  1  0
 21 22  1  0
 22 23  2  0
 22 24  1  0
 24 25  1  0
 25 26  1  0
 18  2  1  0
 25 20  2  0
 16  8  1  0
  1 27  1  0
  1 28  1  0
  3 29  1  0
  9 30  1  0
  9 31  1  0
 10 32  1  0
 10 33  1  0
 12 34  1  0
 12 35  1  0
 13 36  1  0
 13 37  1  0
 14 38  1  0
 14 39  1  0
 14 40  1  0
 15 41  1  0
 15 42  1  0
 16 43  1  0
 16 44  1  0
 17 45  1  0
 19 46  1  0
M  CHG  4   3   1  21  -1  24  -1  26  -1
M  END
>  <UniqueID>  (31) 
30

>  <SMILES>  (31) 
C=c1[nH+]nc(C(=O)N2CCN(CCC)CC2)cc1=Cc1[n-]c(=O)[n-]c1[O-]

>  <Energy>  (31) 
105.46069734119587

>  <Genealogy>  (31) 
C=c1[nH+]nc(C(=O)N2CCN(CCC)CC2)cc1=Cc1[n-]c(=O)[n-]c1[O-] (protonated)
C=c1[nH+]nc(C(=O)N2CCN(CCC)CC2)cc1=Cc1[n-]c(=O)[n-]c1[O-] (3D coordinates assigned)
C=c1[nH+]nc(C(=O)N2CCN(CCC)CC2)cc1=Cc1[n-]c(=O)[n-]c1[O-] (nonaromatic ring conformer: 105.46069734119587 kcal/mol)

>  <smiles>  (31) 
C=c1nnc(C(=O)N2CCN(CCC)CC2)cc1=Cc1[nH]c(=O)[nH]c1O

>  <score_type>  (31) 
oracle

>  <origin>  (31) 
adg

>  <m_score__min__energy>  (31) 
-16.039999999999999

>  <m_primary>  (31) 
energy

$$$$
31:0
     RDKit          3D

 41 43  0  0  0  0  0  0  0  0999 V2000
   59.6980   34.9890   44.0040 H   0  0  0  0  0  0  0  0  0  0  0  0
   59.2380   35.2850   44.8940 N   0  0  0  0  0  0  0  0  0  0  0  0
   59.0990   34.4850   45.9030 C   0  0  0  0  0  0  0  0  0  0  0  0
   59.9770   34.5570   46.9370 N   0  0  0  0  0  0  0  0  0  0  0  0
   59.8880   33.7370   48.0180 C   0  0  0  0  0  0  0  0  0  0  0  0
   60.6233   33.8231   48.8316 H   0  0  0  0  0  0  0  0  0  0  0  0
   58.8620   32.7800   48.1020 C   0  0  0  0  0  0  0  0  0  0  0  0
   58.7260   31.8930   49.2850 C   0  0  0  0  0  0  0  0  0  0  0  0
   57.7890   32.0910   50.1050 O   0  0  0  0  0  0  0  0  0  0  0  0
   59.6690   30.7810   49.5380 C   0  0  0  0  0  0  0  0  0  0  0  0
   60.8690   31.0190   50.2280 C   0  0  0  0  0  0  0  0  0  0  0  0
   61.1900   32.2710   50.6460 F   0  0  0  0  0  0  0  0  0  0  0  0
   61.7560   29.9720   50.4720 C   0  0  0  0  0  0  0  0  0  0  0  0
   62.6959   30.1643   51.0101 H   0  0  0  0  0  0  0  0  0  0  0  0
   61.4560   28.6800   50.0360 C   0  0  0  0  0  0  0  0  0  0  0  0
   62.1628   27.8607   50.2341 H   0  0  0  0  0  0  0  0  0  0  0  0
   60.2660   28.4170   49.3500 C   0  0  0  0  0  0  0  0  0  0  0  0
   60.0230   27.0670   48.9230 N   0  0  0  0  0  0  0  0  0  0  0  0
   59.2720   26.5690   47.4410 S   0  0  0  0  0  0  0  0  0  0  0  0
   57.9380   25.9460   47.7450 O   0  0  0  0  0  0  0  0  0  0  0  0
   60.1450   25.5470   46.7710 O   0  0  0  0  0  0  0  0  0  0  0  0
   59.0960   27.9480   46.3590 C   0  0  0  0  0  0  0  0  0  0  0  0
   60.2350   28.5630   45.8330 C   0  0  0  0  0  0  0  0  0  0  0  0
   61.2340   28.1857   46.0971 H   0  0  0  0  0  0  0  0  0  0  0  0
   60.1080   29.6540   44.9740 C   0  0  0  0  0  0  0  0  0  0  0  0
   61.0083   30.1357   44.5648 H   0  0  0  0  0  0  0  0  0  0  0  0
   58.8430   30.1390   44.6300 C   0  0  0  0  0  0  0  0  0  0  0  0
   58.7660   31.2100   43.7990 F   0  0  0  0  0  0  0  0  0  0  0  0
   57.6820   29.5330   45.1550 C   0  0  0  0  0  0  0  0  0  0  0  0
   56.3260   30.0380   44.8240 C   0  0  0  0  0  0  0  0  0  0  0  0
   56.1640   31.2450   44.5000 O   0  0  0  0  0  0  0  0  0  0  0  0
   55.1890   29.1770   44.8680 N   0  0  0  0  0  0  0  0  0  0  0  0
   54.4180   29.3430   45.5520 H   0  0  0  0  0  0  0  0  0  0  0  0
   57.8260   28.4320   46.0210 C   0  0  0  0  0  0  0  0  0  0  0  0
   56.9308   27.9465   46.4368 H   0  0  0  0  0  0  0  0  0  0  0  0
   59.3570   29.4720   49.1190 C   0  0  0  0  0  0  0  0  0  0  0  0
   58.1470   29.2390   48.5570 F   0  0  0  0  0  0  0  0  0  0  0  0
   57.9360   32.7050   47.0490 C   0  0  0  0  0  0  0  0  0  0  0  0
   57.1127   31.9770   47.0945 H   0  0  0  0  0  0  0  0  0  0  0  0
   58.0560   33.5510   45.9440 C   0  0  0  0  0  0  0  0  0  0  0  0
   57.3378   33.4843   45.1135 H   0  0  0  0  0  0  0  0  0  0  0  0
  1  2  1  0
  2  3  2  0
  3  4  1  0
  4  5  1  0
  5  6  1  0
  5  7  2  0
  7  8  1  0
  8  9  2  0
  8 10  1  0
 10 11  2  0
 11 12  1  0
 11 13  1  0
 13 14  1  0
 13 15  2  0
 15 16  1  0
 15 17  1  0
 17 18  1  0
 18 19  1  0
 19 20  2  0
 19 21  2  0
 19 22  1  0
 22 23  2  0
 23 24  1  0
 23 25  1  0
 25 26  1  0
 25 27  2  0
 27 28  1  0
 27 29  1  0
 29 30  1  0
 30 31  2  0
 30 32  1  0
 32 33  1  0
 29 34  2  0
 34 35  1  0
 17 36  2  0
 36 37  1  0
  7 38  1  0
 38 39  1  0
 38 40  2  0
 40 41  1  0
 40  3  1  0
 36 10  1  0
 34 22  1  0
M  CHG  3   4  -1  18  -1  32  -1
M  END
>  <UniqueID>  (32) 
31

>  <SMILES>  (32) 
[H]/N=c1\ccc(C(=O)c2c(F)ccc([N-]S(=O)(=O)c3ccc(F)c(C([NH-])=O)c3)c2F)c[n-]1

>  <Energy>  (32) 
56.510967695899105

>  <Genealogy>  (32) 
N=c1ccc(C(=O)c2c(F)ccc([N-]S(=O)(=O)c3ccc(F)c(C([NH-])=O)c3)c2F)c[n-]1 (protonated)
[H]/N=c1\ccc(C(=O)c2c(F)ccc([N-]S(=O)(=O)c3ccc(F)c(C([NH-])=O)c3)c2F)c[n-]1 (cis-trans isomerization)
[H]/N=c1\ccc(C(=O)c2c(F)ccc([N-]S(=O)(=O)c3ccc(F)c(C([NH-])=O)c3)c2F)c[n-]1 (3D coordinates assigned)
[H]/N=c1\ccc(C(=O)c2c(F)ccc([N-]S(=O)(=O)c3ccc(F)c(C([NH-])=O)c3)c2F)c[n-]1 (optimized conformer: 56.510967695899105 kcal/mol)

>  <smiles>  (32) 
N=c1ccc(C(=O)c2c(F)ccc(NS(=O)(=O)c3ccc(F)c(C(N)=O)c3)c2F)c[nH]1

>  <score_type>  (32) 
oracle

>  <origin>  (32) 
adg

>  <m_score__min__energy>  (32) 
-14.609999999999999

>  <m_primary>  (32) 
energy

$$$$
32:0
     RDKit          3D

 47 49  0  0  0  0  0  0  0  0999 V2000
   58.3250   34.3020   44.4960 C   0  0  0  0  0  0  0  0  0  0  0  0
   58.1620   32.8420   44.8260 C   0  0  0  0  0  0  0  0  0  0  0  0
   57.8100   31.9490   43.7990 C   0  0  0  0  0  0  0  0  0  0  0  0
   57.6190   30.5920   44.0690 C   0  0  0  0  0  0  0  0  0  0  0  0
   57.7880   30.1060   45.3670 C   0  0  0  0  0  0  0  0  0  0  0  0
   57.5800   28.7100   45.6480 C   0  0  0  0  0  0  0  0  0  0  0  0
   57.3990   27.5420   45.8840 C   0  0  0  0  0  0  0  0  0  0  0  0
   57.1810   26.1460   46.1640 C   0  0  0  0  0  0  0  0  0  0  0  0
   58.2650   25.2960   46.3950 C   0  0  0  0  0  0  0  0  0  0  0  0
   58.0530   23.9810   46.6560 N   0  0  0  0  0  0  0  0  0  0  0  0
   56.7940   23.4630   46.7010 C   0  0  0  0  0  0  0  0  0  0  0  0
   56.5930   22.0640   46.9810 N   0  0  0  0  0  0  0  0  0  0  0  0
   56.1660   21.6450   48.3210 C   0  0  0  0  0  0  0  0  0  0  0  0
   56.8170   21.0710   45.9270 C   0  0  0  0  0  0  0  0  0  0  0  0
   55.7270   24.2790   46.4790 N   0  0  0  0  0  0  0  0  0  0  0  0
   55.8900   25.6010   46.2130 C   0  0  0  0  0  0  0  0  0  0  0  0
   54.8780   26.3240   46.0120 O   0  0  0  0  0  0  0  0  0  0  0  0
   58.1580   30.9780   46.3960 C   0  0  0  0  0  0  0  0  0  0  0  0
   58.3490   32.3480   46.1420 C   0  0  0  0  0  0  0  0  0  0  0  0
   58.7450   33.2320   47.2670 C   0  0  0  0  0  0  0  0  0  0  0  0
   58.1430   34.3250   47.4400 O   0  0  0  0  0  0  0  0  0  0  0  0
   59.8570   32.9190   48.1180 N   0  0  0  0  0  0  0  0  0  0  0  0
   61.2430   33.1210   47.8100 C   0  0  0  0  0  0  0  0  0  0  0  0
   61.6510   33.8030   46.6500 C   0  0  0  0  0  0  0  0  0  0  0  0
   63.0110   33.9780   46.3770 C   0  0  0  0  0  0  0  0  0  0  0  0
   63.9720   33.4600   47.2490 C   0  0  0  0  0  0  0  0  0  0  0  0
   63.5740   32.7560   48.3940 C   0  0  0  0  0  0  0  0  0  0  0  0
   64.5230   32.2250   49.2670 O   0  0  0  0  0  0  0  0  0  0  0  0
   62.2130   32.5820   48.6660 C   0  0  0  0  0  0  0  0  0  0  0  0
   58.3899   34.8834   45.4275 H   0  0  0  0  0  0  0  0  0  0  0  0
   59.2447   34.4449   43.9097 H   0  0  0  0  0  0  0  0  0  0  0  0
   57.4595   34.6442   43.9097 H   0  0  0  0  0  0  0  0  0  0  0  0
   57.6837   32.3228   42.7722 H   0  0  0  0  0  0  0  0  0  0  0  0
   57.3351   29.9052   43.2580 H   0  0  0  0  0  0  0  0  0  0  0  0
   59.2907   25.6924   46.3654 H   0  0  0  0  0  0  0  0  0  0  0  0
   56.7352   22.2036   49.0786 H   0  0  0  0  0  0  0  0  0  0  0  0
   55.0923   21.8497   48.4444 H   0  0  0  0  0  0  0  0  0  0  0  0
   56.3504   20.5676   48.4444 H   0  0  0  0  0  0  0  0  0  0  0  0
   57.0372   20.0948   46.3837 H   0  0  0  0  0  0  0  0  0  0  0  0
   55.9148   20.9887   45.3030 H   0  0  0  0  0  0  0  0  0  0  0  0
   57.6671   21.3840   45.3030 H   0  0  0  0  0  0  0  0  0  0  0  0
   58.3011   30.5882   47.4146 H   0  0  0  0  0  0  0  0  0  0  0  0
   60.8971   34.2005   45.9545 H   0  0  0  0  0  0  0  0  0  0  0  0
   63.3247   34.5239   45.4750 H   0  0  0  0  0  0  0  0  0  0  0  0
   65.0416   33.6047   47.0369 H   0  0  0  0  0  0  0  0  0  0  0  0
   65.3410   31.7350   48.9250 H   0  0  0  0  0  0  0  0  0  0  0  0
   61.9019   32.0183   49.5579 H   0  0  0  0  0  0  0  0  0  0  0  0
  1  2  1  0
  2  3  2  0
  3  4  1  0
  4  5  2  0
  5  6  1  0
  6  7  3  0
  7  8  1  0
  8  9  2  0
  9 10  1  0
 10 11  1  0
 11 12  1  0
 12 13  1  0
 12 14  1  0
 11 15  2  0
 15 16  1  0
 16 17  2  0
  5 18  1  0
 18 19  2  0
 19 20  1  0
 20 21  2  0
 20 22  1  0
 22 23  1  0
 23 24  2  0
 24 25  1  0
 25 26  2  0
 26 27  1  0
 27 28  1  0
 27 29  2  0
 19  2  1  0
 29 23  1  0
 16  8  1  0
  1 30  1  0
  1 31  1  0
  1 32  1  0
  3 33  1  0
  4 34  1  0
  9 35  1  0
 13 36  1  0
 13 37  1  0
 13 38  1  0
 14 39  1  0
 14 40  1  0
 14 41  1  0
 18 42  1  0
 24 43  1  0
 25 44  1  0
 26 45  1  0
 28 46  1  0
 29 47  1  0
M  CHG  2  10  -1  22  -1
M  END
>  <UniqueID>  (33) 
32

>  <SMILES>  (33) 
Cc1ccc(C#Cc2c[n-]c(N(C)C)nc2=O)cc1C(=O)[N-]c1cccc(O)c1

>  <Energy>  (33) 
52.6999891695839

>  <Genealogy>  (33) 
Cc1ccc(C#Cc2c[n-]c(N(C)C)nc2=O)cc1C(=O)[N-]c1cccc(O)c1 (protonated)
Cc1ccc(C#Cc2c[n-]c(N(C)C)nc2=O)cc1C(=O)[N-]c1cccc(O)c1 (3D coordinates assigned)
Cc1ccc(C#Cc2c[n-]c(N(C)C)nc2=O)cc1C(=O)[N-]c1cccc(O)c1 (optimized conformer: 52.6999891695839 kcal/mol)

>  <smiles>  (33) 
Cc1ccc(C#Cc2c[nH]c(N(C)C)nc2=O)cc1C(=O)Nc1cccc(O)c1

>  <score_type>  (33) 
oracle

>  <origin>  (33) 
adg

>  <m_score__min__energy>  (33) 
-11.23

>  <m_primary>  (33) 
energy

$$$$
33:0
     RDKit          3D

 60 63  0  0  0  0  0  0  0  0999 V2000
   58.1560   32.6460   51.2540 N   0  0  0  0  0  0  0  0  0  0  0  0
   58.6310   31.6790   50.8320 C   0  0  0  0  0  0  0  0  0  0  0  0
   59.2220   30.4760   50.3070 C   0  0  0  0  0  0  0  0  0  0  0  0
   60.1030   29.7250   51.0930 C   0  0  0  0  0  0  0  0  0  0  0  0
   60.6850   28.5630   50.5780 C   0  0  0  0  0  0  0  0  0  0  0  0
   60.3850   28.1460   49.2780 C   0  0  0  0  0  0  0  0  0  0  0  0
   59.4870   28.8800   48.4860 C   0  0  0  0  0  0  0  0  0  0  0  0
   59.1620   28.4300   47.1130 C   0  0  0  0  0  0  0  0  0  0  0  0
   60.0620   27.9190   46.3970 O   0  0  0  0  0  0  0  0  0  0  0  0
   57.8510   28.6020   46.5580 N   0  0  0  0  0  0  0  0  0  0  0  0
   57.5520   29.3690   45.3830 C   0  0  0  0  0  0  0  0  0  0  0  0
   57.0190   28.7230   44.2620 C   0  0  0  0  0  0  0  0  0  0  0  0
   56.7350   29.4470   43.1020 C   0  0  0  0  0  0  0  0  0  0  0  0
   56.9620   30.8250   43.0600 C   0  0  0  0  0  0  0  0  0  0  0  0
   57.4630   31.4940   44.1880 C   0  0  0  0  0  0  0  0  0  0  0  0
   57.6740   32.9910   44.1530 C   0  0  0  0  0  0  0  0  0  0  0  0
   58.5410   33.4670   45.2630 N   0  0  2  0  0  0  0  0  0  0  0  0
   57.7640   33.5330   46.5300 C   0  0  0  0  0  0  0  0  0  0  0  0
   58.5800   33.2570   47.8210 C   0  0  0  0  0  0  0  0  0  0  0  0
   59.5800   34.3580   48.2200 C   0  0  0  0  0  0  0  0  0  0  0  0
   60.3760   34.9220   47.0980 N   0  0  0  0  0  0  0  0  0  0  0  0
   61.3520   33.9480   46.5650 C   0  0  0  0  0  0  0  0  0  0  0  0
   61.9600   33.1290   47.6760 C   0  0  0  0  0  0  0  0  0  0  0  0
   62.7640   33.7440   48.6510 C   0  0  0  0  0  0  0  0  0  0  0  0
   63.3100   32.9900   49.6930 C   0  0  0  0  0  0  0  0  0  0  0  0
   63.0570   31.6170   49.7720 C   0  0  0  0  0  0  0  0  0  0  0  0
   62.2570   30.9980   48.8090 C   0  0  0  0  0  0  0  0  0  0  0  0
   61.7060   31.7480   47.7640 C   0  0  0  0  0  0  0  0  0  0  0  0
   60.9250   31.1310   46.8410 F   0  0  0  0  0  0  0  0  0  0  0  0
   59.6250   35.6500   46.0450 C   0  0  0  0  0  0  0  0  0  0  0  0
   59.1130   34.7820   44.8790 C   0  0  0  0  0  0  0  0  0  0  0  0
   57.7550   30.7600   45.3490 C   0  0  0  0  0  0  0  0  0  0  0  0
   58.9130   30.0540   49.0080 C   0  0  0  0  0  0  0  0  0  0  0  0
   60.3379   30.0494   52.1175 H   0  0  0  0  0  0  0  0  0  0  0  0
   61.3799   27.9761   51.1965 H   0  0  0  0  0  0  0  0  0  0  0  0
   60.8550   27.2377   48.8729 H   0  0  0  0  0  0  0  0  0  0  0  0
   56.8230   27.6411   44.2946 H   0  0  0  0  0  0  0  0  0  0  0  0
   56.3313   28.9307   42.2186 H   0  0  0  0  0  0  0  0  0  0  0  0
   56.7474   31.3878   42.1396 H   0  0  0  0  0  0  0  0  0  0  0  0
   58.1460   33.2590   43.1962 H   0  0  0  0  0  0  0  0  0  0  0  0
   56.6908   33.4711   44.2657 H   0  0  0  0  0  0  0  0  0  0  0  0
   59.3220   32.7780   45.3490 H   0  0  0  0  0  0  0  0  0  0  0  0
   57.3298   34.5404   46.6108 H   0  0  0  0  0  0  0  0  0  0  0  0
   57.0110   32.7335   46.4682 H   0  0  0  0  0  0  0  0  0  0  0  0
   57.8691   33.1278   48.6504 H   0  0  0  0  0  0  0  0  0  0  0  0
   59.1836   32.3616   47.6117 H   0  0  0  0  0  0  0  0  0  0  0  0
   59.0151   35.1798   48.6842 H   0  0  0  0  0  0  0  0  0  0  0  0
   60.3023   33.8844   48.9011 H   0  0  0  0  0  0  0  0  0  0  0  0
   60.8409   33.2754   45.8605 H   0  0  0  0  0  0  0  0  0  0  0  0
   62.1560   34.5001   46.0562 H   0  0  0  0  0  0  0  0  0  0  0  0
   62.9644   34.8241   48.5935 H   0  0  0  0  0  0  0  0  0  0  0  0
   63.9397   33.4771   50.4521 H   0  0  0  0  0  0  0  0  0  0  0  0
   63.4880   31.0246   50.5925 H   0  0  0  0  0  0  0  0  0  0  0  0
   62.0595   29.9177   48.8722 H   0  0  0  0  0  0  0  0  0  0  0  0
   58.7556   36.1298   46.5183 H   0  0  0  0  0  0  0  0  0  0  0  0
   60.3366   36.3628   45.6028 H   0  0  0  0  0  0  0  0  0  0  0  0
   58.3325   35.3498   44.3514 H   0  0  0  0  0  0  0  0  0  0  0  0
   59.9944   34.5583   44.2600 H   0  0  0  0  0  0  0  0  0  0  0  0
   58.1453   31.2768   46.2381 H   0  0  0  0  0  0  0  0  0  0  0  0
   58.2177   30.6435   48.3923 H   0  0  0  0  0  0  0  0  0  0  0  0
  1  2  3  0
  2  3  1  0
  3  4  2  0
  4  5  1  0
  5  6  2  0
  6  7  1  0
  7  8  1  0
  8  9  2  0
  8 10  1  0
 10 11  1  0
 11 12  2  0
 12 13  1  0
 13 14  2  0
 14 15  1  0
 15 16  1  0
 16 17  1  0
 17 18  1  0
 18 19  1  0
 19 20  1  0
 20 21  1  0
 21 22  1  0
 22 23  1  0
 23 24  2  0
 24 25  1  0
 25 26  2  0
 26 27  1  0
 27 28  2  0
 28 29  1  0
 21 30  1  0
 30 31  1  0
 15 32  2  0
  7 33  2  0
 33  3  1  0
 32 11  1  0
 31 17  1  0
 28 23  1  0
  4 34  1  0
  5 35  1  0
  6 36  1  0
 12 37  1  0
 13 38  1  0
 14 39  1  0
 16 40  1  0
 16 41  1  0
 17 42  1  1
 18 43  1  0
 18 44  1  0
 19 45  1  0
 19 46  1  0
 20 47  1  0
 20 48  1  0
 22 49  1  0
 22 50  1  0
 24 51  1  0
 25 52  1  0
 26 53  1  0
 27 54  1  0
 30 55  1  0
 30 56  1  0
 31 57  1  0
 31 58  1  0
 32 59  1  0
 33 60  1  0
M  CHG  2  10  -1  17   1
M  END
>  <UniqueID>  (34) 
33

>  <SMILES>  (34) 
N#Cc1cccc(C(=O)[N-]c2cccc(C[N@@H+]3CCCN(Cc4ccccc4F)CC3)c2)c1

>  <Energy>  (34) 
89.02831625636486

>  <Genealogy>  (34) 
N#Cc1cccc(C(=O)[N-]c2cccc(C[NH+]3CCCN(Cc4ccccc4F)CC3)c2)c1 (protonated)
N#Cc1cccc(C(=O)[N-]c2cccc(C[N@@H+]3CCCN(Cc4ccccc4F)CC3)c2)c1 (chirality)
N#Cc1cccc(C(=O)[N-]c2cccc(C[N@@H+]3CCCN(Cc4ccccc4F)CC3)c2)c1 (3D coordinates assigned)
N#Cc1cccc(C(=O)[N-]c2cccc(C[N@@H+]3CCCN(Cc4ccccc4F)CC3)c2)c1 (nonaromatic ring conformer: 89.02831625636486 kcal/mol)

>  <smiles>  (34) 
N#Cc1cccc(C(=O)Nc2cccc(CN3CCCN(Cc4ccccc4F)CC3)c2)c1

>  <score_type>  (34) 
oracle

>  <origin>  (34) 
adg

>  <m_score__min__energy>  (34) 
-8.5899999999999999

>  <m_primary>  (34) 
energy

$$$$
34:0
     RDKit          3D

 60 63  0  0  0  0  0  0  0  0999 V2000
   59.5990   30.9300   51.6190 C   0  0  0  0  0  0  0  0  0  0  0  0
   59.7000   29.8630   50.5590 C   0  0  0  0  0  0  0  0  0  0  0  0
   60.6560   28.8410   50.6770 C   0  0  0  0  0  0  0  0  0  0  0  0
   60.7660   27.8560   49.6920 C   0  0  0  0  0  0  0  0  0  0  0  0
   59.9290   27.8900   48.5600 C   0  0  0  0  0  0  0  0  0  0  0  0
   59.9650   26.7690   47.5520 C   0  0  0  0  0  0  0  0  0  0  0  0
   59.8210   27.3100   46.1940 N   0  0  0  0  0  0  0  0  0  0  0  0
   60.6280   28.4100   45.6610 C   0  0  0  0  0  0  0  0  0  0  0  0
   59.8070   29.0180   44.4940 C   0  0  0  0  0  0  0  0  0  0  0  0
   58.5630   28.2400   44.4420 N   0  0  0  0  0  0  0  0  0  0  0  0
   57.3980   28.5850   43.6320 C   0  0  0  0  0  0  0  0  0  0  0  0
   56.4010   29.3340   44.4650 C   0  0  0  0  0  0  0  0  0  0  0  0
   55.1880   29.3750   44.1060 O   0  0  0  0  0  0  0  0  0  0  0  0
   56.8440   30.0610   45.6220 N   0  0  0  0  0  0  0  0  0  0  0  0
   57.5410   31.3170   45.5960 C   0  0  0  0  0  0  0  0  0  0  0  0
   57.5950   32.0400   44.4030 C   0  0  0  0  0  0  0  0  0  0  0  0
   58.2410   33.2780   44.3570 C   0  0  0  0  0  0  0  0  0  0  0  0
   58.8650   33.7980   45.4970 C   0  0  0  0  0  0  0  0  0  0  0  0
   59.5940   35.3940   45.3670 Cl  0  0  0  0  0  0  0  0  0  0  0  0
   58.8660   33.0480   46.6960 C   0  0  0  0  0  0  0  0  0  0  0  0
   59.6610   33.6080   48.1800 S   0  0  0  0  0  0  0  0  0  0  0  0
   59.3800   35.0740   48.3490 O   0  0  0  0  0  0  0  0  0  0  0  0
   59.0950   32.9030   49.3810 O   0  0  0  0  0  0  0  0  0  0  0  0
   61.3890   33.3660   48.1280 N   0  0  0  0  0  0  0  0  0  0  0  0
   61.7490   32.0060   48.5630 C   0  0  0  0  0  0  0  0  0  0  0  0
   63.2660   31.7720   48.3810 C   0  0  0  0  0  0  0  0  0  0  0  0
   63.9310   32.9700   48.0360 O   0  0  0  0  0  0  0  0  0  0  0  0
   63.4510   33.4560   46.7950 C   0  0  0  0  0  0  0  0  0  0  0  0
   61.9140   33.6040   46.7770 C   0  0  0  0  0  0  0  0  0  0  0  0
   58.2060   31.8080   46.7300 C   0  0  0  0  0  0  0  0  0  0  0  0
   58.6140   27.2570   45.4510 C   0  0  0  0  0  0  0  0  0  0  0  0
   57.6790   26.4380   45.6820 O   0  0  0  0  0  0  0  0  0  0  0  0
   58.9810   28.9220   48.4310 C   0  0  0  0  0  0  0  0  0  0  0  0
   58.8780   29.9120   49.4170 C   0  0  0  0  0  0  0  0  0  0  0  0
   59.6432   30.4635   52.6142 H   0  0  0  0  0  0  0  0  0  0  0  0
   60.4342   31.6372   51.5082 H   0  0  0  0  0  0  0  0  0  0  0  0
   58.6459   31.4679   51.5082 H   0  0  0  0  0  0  0  0  0  0  0  0
   61.3231   28.8157   51.5513 H   0  0  0  0  0  0  0  0  0  0  0  0
   61.5085   27.0518   49.8011 H   0  0  0  0  0  0  0  0  0  0  0  0
   60.9246   26.2373   47.6325 H   0  0  0  0  0  0  0  0  0  0  0  0
   59.1360   26.0748   47.7540 H   0  0  0  0  0  0  0  0  0  0  0  0
   60.8036   29.1670   46.4395 H   0  0  0  0  0  0  0  0  0  0  0  0
   61.6126   28.0579   45.3196 H   0  0  0  0  0  0  0  0  0  0  0  0
   59.5893   30.0785   44.6889 H   0  0  0  0  0  0  0  0  0  0  0  0
   60.3563   28.9731   43.5420 H   0  0  0  0  0  0  0  0  0  0  0  0
   57.7144   29.2150   42.7876 H   0  0  0  0  0  0  0  0  0  0  0  0
   56.9337   27.6623   43.2539 H   0  0  0  0  0  0  0  0  0  0  0  0
   57.1266   31.6330   43.4947 H   0  0  0  0  0  0  0  0  0  0  0  0
   58.2594   33.8489   43.4169 H   0  0  0  0  0  0  0  0  0  0  0  0
   61.4869   31.8825   49.6242 H   0  0  0  0  0  0  0  0  0  0  0  0
   61.1972   31.2759   47.9528 H   0  0  0  0  0  0  0  0  0  0  0  0
   63.6851   31.3876   49.3226 H   0  0  0  0  0  0  0  0  0  0  0  0
   63.4109   31.0468   47.5667 H   0  0  0  0  0  0  0  0  0  0  0  0
   63.9032   34.4400   46.6020 H   0  0  0  0  0  0  0  0  0  0  0  0
   63.7274   32.7269   46.0191 H   0  0  0  0  0  0  0  0  0  0  0  0
   61.6462   34.6203   46.4522 H   0  0  0  0  0  0  0  0  0  0  0  0
   61.4809   32.8728   46.0786 H   0  0  0  0  0  0  0  0  0  0  0  0
   58.2106   31.2151   47.6565 H   0  0  0  0  0  0  0  0  0  0  0  0
   58.3187   28.9515   47.5532 H   0  0  0  0  0  0  0  0  0  0  0  0
   58.1525   30.7303   49.2985 H   0  0  0  0  0  0  0  0  0  0  0  0
  1  2  1  0
  2  3  2  0
  3  4  1  0
  4  5  2  0
  5  6  1  0
  6  7  1  0
  7  8  1  0
  8  9  1  0
  9 10  1  0
 10 11  1  0
 11 12  1  0
 12 13  2  0
 12 14  1  0
 14 15  1  0
 15 16  2  0
 16 17  1  0
 17 18  2  0
 18 19  1  0
 18 20  1  0
 20 21  1  0
 21 22  2  0
 21 23  2  0
 21 24  1  0
 24 25  1  0
 25 26  1  0
 26 27  1  0
 27 28  1  0
 28 29  1  0
 20 30  2  0
 10 31  1  0
 31 32  2  0
  5 33  1  0
 33 34  2  0
 34  2  1  0
 31  7  1  0
 30 15  1  0
 29 24  1  0
  1 35  1  0
  1 36  1  0
  1 37  1  0
  3 38  1  0
  4 39  1  0
  6 40  1  0
  6 41  1  0
  8 42  1  0
  8 43  1  0
  9 44  1  0
  9 45  1  0
 11 46  1  0
 11 47  1  0
 16 48  1  0
 17 49  1  0
 25 50  1  0
 25 51  1  0
 26 52  1  0
 26 53  1  0
 28 54  1  0
 28 55  1  0
 29 56  1  0
 29 57  1  0
 30 58  1  0
 33 59  1  0
 34 60  1  0
M  CHG  1  14  -1
M  END
>  <UniqueID>  (35) 
34

>  <SMILES>  (35) 
Cc1ccc(CN2CCN(CC(=O)[N-]c3ccc(Cl)c(S(=O)(=O)N4CCOCC4)c3)C2=O)cc1

>  <Energy>  (35) 
78.46029300187584

>  <Genealogy>  (35) 
Cc1ccc(CN2CCN(CC(=O)[N-]c3ccc(Cl)c(S(=O)(=O)N4CCOCC4)c3)C2=O)cc1 (protonated)
Cc1ccc(CN2CCN(CC(=O)[N-]c3ccc(Cl)c(S(=O)(=O)N4CCOCC4)c3)C2=O)cc1 (3D coordinates assigned)
Cc1ccc(CN2CCN(CC(=O)[N-]c3ccc(Cl)c(S(=O)(=O)N4CCOCC4)c3)C2=O)cc1 (nonaromatic ring conformer: 78.46029300187584 kcal/mol)

>  <smiles>  (35) 
Cc1ccc(CN2CCN(CC(=O)Nc3ccc(Cl)c(S(=O)(=O)N4CCOCC4)c3)C2=O)cc1

>  <score_type>  (35) 
oracle

>  <origin>  (35) 
adg

>  <m_score__min__energy>  (35) 
-12.66

>  <m_primary>  (35) 
energy

$$$$
35:0
     RDKit          3D

 41 43  0  0  0  0  0  0  0  0999 V2000
   58.5510   25.6680   47.6420 C   0  0  0  0  0  0  0  0  0  0  0  0
   57.3710   26.1610   46.8690 C   0  0  0  0  0  0  0  0  0  0  0  0
   56.2230   25.4720   46.7470 N   0  0  0  0  0  0  0  0  0  0  0  0
   55.4590   26.2770   45.9800 C   0  0  0  0  0  0  0  0  0  0  0  0
   54.2880   25.9720   45.6340 O   0  0  0  0  0  0  0  0  0  0  0  0
   56.0490   27.4320   45.6120 N   0  0  0  0  0  0  0  0  0  0  0  0
   57.2630   27.3570   46.1860 C   0  0  0  0  0  0  0  0  0  0  0  0
   58.3210   28.4070   46.0190 C   0  0  0  0  0  0  0  0  0  0  0  0
   57.8140   29.5090   45.1300 C   0  0  0  0  0  0  0  0  0  0  0  0
   57.4310   29.2370   43.8070 C   0  0  0  0  0  0  0  0  0  0  0  0
   57.0110   30.2720   42.9690 C   0  0  0  0  0  0  0  0  0  0  0  0
   56.9950   31.5900   43.4340 C   0  0  0  0  0  0  0  0  0  0  0  0
   57.4060   31.8850   44.7450 C   0  0  0  0  0  0  0  0  0  0  0  0
   57.4320   33.2860   45.2230 C   0  0  0  0  0  0  0  0  0  0  0  0
   57.0580   34.2090   44.4520 O   0  0  0  0  0  0  0  0  0  0  0  0
   57.8270   33.6230   46.5610 N   0  0  0  0  0  0  0  0  0  0  0  0
   59.1710   33.6310   47.0670 C   0  0  0  0  0  0  0  0  0  0  0  0
   59.3770   33.4960   48.4440 C   0  0  0  0  0  0  0  0  0  0  0  0
   60.6720   33.5170   48.9710 C   0  0  0  0  0  0  0  0  0  0  0  0
   61.7790   33.6960   48.1330 C   0  0  0  0  0  0  0  0  0  0  0  0
   63.0540   33.7290   48.7190 O   0  0  0  0  0  0  0  0  0  0  0  0
   64.0030   32.6640   48.6920 C   0  0  0  0  0  0  0  0  0  0  0  0
   63.6140   31.6580   49.5590 F   0  0  0  0  0  0  0  0  0  0  0  0
   65.2560   33.1280   49.0420 F   0  0  0  0  0  0  0  0  0  0  0  0
   64.0610   32.1490   47.4110 F   0  0  0  0  0  0  0  0  0  0  0  0
   61.5740   33.8420   46.7480 C   0  0  0  0  0  0  0  0  0  0  0  0
   60.2780   33.8170   46.2210 C   0  0  0  0  0  0  0  0  0  0  0  0
   57.7910   30.8330   45.5940 C   0  0  0  0  0  0  0  0  0  0  0  0
   58.3455   25.7538   48.7192 H   0  0  0  0  0  0  0  0  0  0  0  0
   58.7418   24.6149   47.3879 H   0  0  0  0  0  0  0  0  0  0  0  0
   59.4343   26.2723   47.3879 H   0  0  0  0  0  0  0  0  0  0  0  0
   58.5803   28.8231   47.0037 H   0  0  0  0  0  0  0  0  0  0  0  0
   59.2119   27.9532   45.5603 H   0  0  0  0  0  0  0  0  0  0  0  0
   57.4619   28.2044   43.4290 H   0  0  0  0  0  0  0  0  0  0  0  0
   56.6919   30.0495   41.9401 H   0  0  0  0  0  0  0  0  0  0  0  0
   56.6590   32.4004   42.7704 H   0  0  0  0  0  0  0  0  0  0  0  0
   58.5151   33.3726   49.1162 H   0  0  0  0  0  0  0  0  0  0  0  0
   60.8222   33.3918   50.0535 H   0  0  0  0  0  0  0  0  0  0  0  0
   62.4357   33.9762   46.0776 H   0  0  0  0  0  0  0  0  0  0  0  0
   60.1247   33.9436   45.1391 H   0  0  0  0  0  0  0  0  0  0  0  0
   58.0774   31.0501   46.6336 H   0  0  0  0  0  0  0  0  0  0  0  0
  1  2  1  0
  2  3  1  0
  3  4  1  0
  4  5  2  0
  4  6  1  0
  6  7  1  0
  7  8  1  0
  8  9  1  0
  9 10  2  0
 10 11  1  0
 11 12  2  0
 12 13  1  0
 13 14  1  0
 14 15  2  0
 14 16  1  0
 16 17  1  0
 17 18  2  0
 18 19  1  0
 19 20  2  0
 20 21  1  0
 21 22  1  0
 22 23  1  0
 22 24  1  0
 22 25  1  0
 20 26  1  0
 26 27  2  0
 13 28  2  0
  7  2  2  0
 28  9  1  0
 27 17  1  0
  1 29  1  0
  1 30  1  0
  1 31  1  0
  8 32  1  0
  8 33  1  0
 10 34  1  0
 11 35  1  0
 12 36  1  0
 18 37  1  0
 19 38  1  0
 26 39  1  0
 27 40  1  0
 28 41  1  0
M  CHG  3   3  -1   6  -1  16  -1
M  END
>  <UniqueID>  (36) 
35

>  <SMILES>  (36) 
Cc1[n-]c(=O)[n-]c1Cc1cccc(C(=O)[N-]c2ccc(OC(F)(F)F)cc2)c1

>  <Energy>  (36) 
71.9449601712152

>  <Genealogy>  (36) 
Cc1[n-]c(=O)[n-]c1Cc1cccc(C(=O)[N-]c2ccc(OC(F)(F)F)cc2)c1 (protonated)
Cc1[n-]c(=O)[n-]c1Cc1cccc(C(=O)[N-]c2ccc(OC(F)(F)F)cc2)c1 (3D coordinates assigned)
Cc1[n-]c(=O)[n-]c1Cc1cccc(C(=O)[N-]c2ccc(OC(F)(F)F)cc2)c1 (optimized conformer: 71.9449601712152 kcal/mol)

>  <smiles>  (36) 
Cc1[nH]c(=O)[nH]c1Cc1cccc(C(=O)Nc2ccc(OC(F)(F)F)cc2)c1

>  <score_type>  (36) 
oracle

>  <origin>  (36) 
adg

>  <m_score__min__energy>  (36) 
-12.960000000000001

>  <m_primary>  (36) 
energy

$$$$
36:0
     RDKit          3D

 58 62  0  0  0  0  0  0  0  0999 V2000
   63.7790   31.8720   47.5470 N   0  0  0  0  0  0  0  0  0  0  0  0
   62.8320   32.6640   48.2740 C   0  0  0  0  0  0  0  0  0  0  0  0
   62.0920   33.6530   47.5960 C   0  0  0  0  0  0  0  0  0  0  0  0
   61.1150   34.4070   48.2680 C   0  0  0  0  0  0  0  0  0  0  0  0
   60.8620   34.1820   49.6270 C   0  0  0  0  0  0  0  0  0  0  0  0
   61.6070   33.2080   50.2870 C   0  0  0  0  0  0  0  0  0  0  0  0
   62.5790   32.4660   49.6500 C   0  0  0  0  0  0  0  0  0  0  0  0
   63.2050   31.5120   50.5930 C   0  0  0  0  0  0  0  0  0  0  0  0
   64.2740   30.8980   50.3380 O   0  0  0  0  0  0  0  0  0  0  0  0
   62.5480   31.3650   51.8720 N   0  0  2  0  0  0  0  0  0  0  0  0
   61.8420   30.0640   52.0040 C   0  0  0  0  0  0  0  0  0  0  0  0
   60.9390   29.7060   50.8300 C   0  0  0  0  0  0  0  0  0  0  0  0
   59.7950   30.4640   50.5390 C   0  0  0  0  0  0  0  0  0  0  0  0
   59.0030   30.1580   49.4290 C   0  0  0  0  0  0  0  0  0  0  0  0
   59.3210   29.0670   48.5980 C   0  0  0  0  0  0  0  0  0  0  0  0
   58.5100   28.7600   47.4410 N   0  0  0  0  0  0  0  0  0  0  0  0
   58.0600   27.4170   47.0980 C   0  0  0  0  0  0  0  0  0  0  0  0
   57.0730   27.5910   45.9510 C   0  0  0  0  0  0  0  0  0  0  0  0
   57.4040   28.9600   45.3530 C   0  0  1  0  0  0  0  0  0  0  0  0
   56.2060   29.6350   44.7440 C   0  0  0  0  0  0  0  0  0  0  0  0
   55.1580   28.9760   44.4990 O   0  0  0  0  0  0  0  0  0  0  0  0
   56.2680   31.0280   44.4310 N   0  0  0  0  0  0  0  0  0  0  0  0
   57.6450   31.7540   43.6720 S   0  0  0  0  0  0  0  0  0  0  0  0
   58.8060   30.8060   43.7720 O   0  0  0  0  0  0  0  0  0  0  0  0
   57.3430   32.0010   42.2200 O   0  0  0  0  0  0  0  0  0  0  0  0
   58.0120   33.3090   44.4840 C   0  0  0  0  0  0  0  0  0  0  0  0
   57.0700   33.6560   45.6230 C   0  0  0  0  0  0  0  0  0  0  0  0
   58.4900   33.2000   45.9230 C   0  0  0  0  0  0  0  0  0  0  0  0
   58.0230   29.7570   46.5000 C   0  0  0  0  0  0  0  0  0  0  0  0
   60.4390   28.2790   48.9230 C   0  0  0  0  0  0  0  0  0  0  0  0
   61.2310   28.5890   50.0300 C   0  0  0  0  0  0  0  0  0  0  0  0
   61.4780   32.7420   51.9450 S   0  0  0  0  0  0  0  0  0  0  0  0
   60.0730   32.3930   52.3420 O   0  0  0  0  0  0  0  0  0  0  0  0
   62.0400   33.8040   52.8480 O   0  0  0  0  0  0  0  0  0  0  0  0
   64.4290   31.2330   48.0600 H   0  0  0  0  0  0  0  0  0  0  0  0
   63.9170   31.9660   46.5190 H   0  0  0  0  0  0  0  0  0  0  0  0
   62.2813   33.8370   46.5282 H   0  0  0  0  0  0  0  0  0  0  0  0
   60.5470   35.1766   47.7248 H   0  0  0  0  0  0  0  0  0  0  0  0
   60.0933   34.7607   50.1602 H   0  0  0  0  0  0  0  0  0  0  0  0
   63.2580   31.4560   52.6360 H   0  0  0  0  0  0  0  0  0  0  0  0
   62.5990   29.2726   52.1074 H   0  0  0  0  0  0  0  0  0  0  0  0
   61.1867   30.1546   52.8828 H   0  0  0  0  0  0  0  0  0  0  0  0
   59.5190   31.3065   51.1902 H   0  0  0  0  0  0  0  0  0  0  0  0
   58.1218   30.7761   49.2022 H   0  0  0  0  0  0  0  0  0  0  0  0
   58.9113   26.7971   46.7802 H   0  0  0  0  0  0  0  0  0  0  0  0
   57.5961   26.9130   47.9587 H   0  0  0  0  0  0  0  0  0  0  0  0
   57.2075   26.7979   45.2007 H   0  0  0  0  0  0  0  0  0  0  0  0
   56.0283   27.5280   46.2897 H   0  0  0  0  0  0  0  0  0  0  0  0
   58.1018   28.8729   44.5072 H   0  0  0  0  0  0  0  0  0  0  0  0
   58.3815   33.8231   43.5844 H   0  0  0  0  0  0  0  0  0  0  0  0
   56.7801   34.7027   45.7974 H   0  0  0  0  0  0  0  0  0  0  0  0
   56.0663   33.3268   45.9298 H   0  0  0  0  0  0  0  0  0  0  0  0
   59.2272   33.9168   46.3138 H   0  0  0  0  0  0  0  0  0  0  0  0
   58.9391   32.4047   46.5360 H   0  0  0  0  0  0  0  0  0  0  0  0
   58.8531   30.3787   46.1333 H   0  0  0  0  0  0  0  0  0  0  0  0
   57.2959   30.4391   46.9648 H   0  0  0  0  0  0  0  0  0  0  0  0
   60.6922   27.4094   48.2987 H   0  0  0  0  0  0  0  0  0  0  0  0
   62.0927   27.9519   50.2783 H   0  0  0  0  0  0  0  0  0  0  0  0
  1  2  1  0
  2  3  2  0
  3  4  1  0
  4  5  2  0
  5  6  1  0
  6  7  2  0
  7  8  1  0
  8  9  2  0
  8 10  1  0
 10 11  1  0
 11 12  1  0
 12 13  2  0
 13 14  1  0
 14 15  2  0
 15 16  1  0
 16 17  1  0
 17 18  1  0
 18 19  1  0
 19 20  1  0
 20 21  2  0
 20 22  1  0
 22 23  1  0
 23 24  2  0
 23 25  2  0
 23 26  1  0
 26 27  1  0
 27 28  1  0
 19 29  1  0
 15 30  1  0
 30 31  2  0
 10 32  1  0
 32 33  2  0
 32 34  2  0
  7  2  1  0
 31 12  1  0
 32  6  1  0
 29 16  1  0
 28 26  1  0
  1 35  1  0
  1 36  1  0
  3 37  1  0
  4 38  1  0
  5 39  1  0
 10 40  1  1
 11 41  1  0
 11 42  1  0
 13 43  1  0
 14 44  1  0
 17 45  1  0
 17 46  1  0
 18 47  1  0
 18 48  1  0
 19 49  1  6
 26 50  1  0
 27 51  1  0
 27 52  1  0
 28 53  1  0
 28 54  1  0
 29 55  1  0
 29 56  1  0
 30 57  1  0
 31 58  1  0
M  CHG  2  10   1  22  -1
M  END
>  <UniqueID>  (37) 
36

>  <SMILES>  (37) 
Nc1cccc2c1C(=O)[N@H+](Cc1ccc(N3CC[C@@H](C(=O)[N-]S(=O)(=O)C4CC4)C3)cc1)S2(=O)=O

>  <Energy>  (37) 
348.0333299253443

>  <Genealogy>  (37) 
Nc1cccc2c1C(=O)[NH+](Cc1ccc(N3CCC(C(=O)[N-]S(=O)(=O)C4CC4)C3)cc1)S2(=O)=O (protonated)
Nc1cccc2c1C(=O)[N@H+](Cc1ccc(N3CC[C@@H](C(=O)[N-]S(=O)(=O)C4CC4)C3)cc1)S2(=O)=O (chirality)
Nc1cccc2c1C(=O)[N@H+](Cc1ccc(N3CC[C@@H](C(=O)[N-]S(=O)(=O)C4CC4)C3)cc1)S2(=O)=O (3D coordinates assigned)
Nc1cccc2c1C(=O)[N@H+](Cc1ccc(N3CC[C@@H](C(=O)[N-]S(=O)(=O)C4CC4)C3)cc1)S2(=O)=O (nonaromatic ring conformer: 348.0333299253443 kcal/mol)

>  <smiles>  (37) 
Nc1cccc2c1C(=O)N(Cc1ccc(N3CCC(C(=O)NS(=O)(=O)C4CC4)C3)cc1)S2(=O)=O

>  <score_type>  (37) 
oracle

>  <origin>  (37) 
adg

>  <m_score__min__energy>  (37) 
-9.8699999999999992

>  <m_primary>  (37) 
energy

$$$$
37:0
     RDKit          3D

 41 43  0  0  1  0  0  0  0  0999 V2000
   57.7900   26.4510   44.0960 N   0  0  0  0  0  0  0  0  0  0  0  0
   58.0480   27.6260   44.5810 C   0  0  0  0  0  0  0  0  0  0  0  0
   59.1750   27.7270   45.3320 N   0  0  0  0  0  0  0  0  0  0  0  0
   59.4450   28.9440   45.8380 C   0  0  0  0  0  0  0  0  0  0  0  0
   60.5840   29.1030   46.6130 O   0  0  0  0  0  0  0  0  0  0  0  0
   60.6440   29.8670   47.7780 C   0  0  0  0  0  0  0  0  0  0  0  0
   61.4760   31.0800   47.6700 C   0  0  0  0  0  0  0  0  0  0  0  0
   61.0590   32.1170   46.8650 C   0  0  0  0  0  0  0  0  0  0  0  0
   61.8170   33.2580   46.7480 C   0  0  0  0  0  0  0  0  0  0  0  0
   63.0080   33.4380   47.4040 C   0  0  0  0  0  0  0  0  0  0  0  0
   63.4290   32.3850   48.2200 C   0  0  0  0  0  0  0  0  0  0  0  0
   62.6660   31.2370   48.3370 C   0  0  0  0  0  0  0  0  0  0  0  0
   58.6440   30.0480   45.6250 C   0  0  0  0  0  0  0  0  0  0  0  0
   57.5050   29.8570   44.8430 C   0  0  0  0  0  0  0  0  0  0  0  0
   56.7710   30.8980   44.6560 N   0  0  0  0  0  0  0  0  0  0  0  0
   57.3540   32.0690   44.0220 C   0  0  0  0  0  0  0  0  0  0  0  0
   57.9050   33.0190   45.0040 C   0  0  0  0  0  0  0  0  0  0  0  0
   58.7500   34.0150   44.5010 C   0  0  0  0  0  0  0  0  0  0  0  0
   59.3160   34.9550   45.3540 C   0  0  0  0  0  0  0  0  0  0  0  0
   59.0040   34.8530   46.6910 C   0  0  0  0  0  0  0  0  0  0  0  0
   58.1720   33.8790   47.2040 C   0  0  0  0  0  0  0  0  0  0  0  0
   57.6080   32.9390   46.3500 C   0  0  0  0  0  0  0  0  0  0  0  0
   57.2320   28.6450   44.3360 N   0  0  0  0  0  0  0  0  0  0  0  0
   57.0090   26.3380   43.4200 H   0  0  0  0  0  0  0  0  0  0  0  0
   59.8030   26.8950   45.5080 H   0  0  0  0  0  0  0  0  0  0  0  0
   59.6210   30.1740   48.0409 H   0  0  0  0  0  0  0  0  0  0  0  0
   61.1124   29.2328   48.5450 H   0  0  0  0  0  0  0  0  0  0  0  0
   60.1122   32.0316   46.3115 H   0  0  0  0  0  0  0  0  0  0  0  0
   61.4507   34.0654   46.0969 H   0  0  0  0  0  0  0  0  0  0  0  0
   63.5985   34.3595   47.2938 H   0  0  0  0  0  0  0  0  0  0  0  0
   64.3754   32.4695   48.7743 H   0  0  0  0  0  0  0  0  0  0  0  0
   63.0241   30.4237   48.9853 H   0  0  0  0  0  0  0  0  0  0  0  0
   58.8921   31.0311   46.0515 H   0  0  0  0  0  0  0  0  0  0  0  0
   58.1634   31.7428   43.3523 H   0  0  0  0  0  0  0  0  0  0  0  0
   56.5563   32.5836   43.4661 H   0  0  0  0  0  0  0  0  0  0  0  0
   58.9676   34.0540   43.4234 H   0  0  0  0  0  0  0  0  0  0  0  0
   59.9830   35.7447   44.9779 H   0  0  0  0  0  0  0  0  0  0  0  0
   59.4403   35.5855   47.3860 H   0  0  0  0  0  0  0  0  0  0  0  0
   57.9566   33.8469   48.2822 H   0  0  0  0  0  0  0  0  0  0  0  0
   56.9429   32.1524   46.7359 H   0  0  0  0  0  0  0  0  0  0  0  0
   56.3870   28.5320   43.7640 H   0  0  0  0  0  0  0  0  0  0  0  0
  1  2  2  3
  2  3  1  0
  3  4  1  0
  4  5  1  0
  5  6  1  0
  6  7  1  0
  7  8  2  0
  8  9  1  0
  9 10  2  0
 10 11  1  0
 11 12  2  0
  4 13  2  0
 13 14  1  0
 14 15  2  0
 15 16  1  0
 16 17  1  0
 17 18  2  0
 18 19  1  0
 19 20  2  0
 20 21  1  0
 21 22  2  0
 14 23  1  0
 23  2  1  0
 12  7  1  0
 22 17  1  0
  1 24  1  0
  3 25  1  0
  6 26  1  0
  6 27  1  0
  8 28  1  0
  9 29  1  0
 10 30  1  0
 11 31  1  0
 12 32  1  0
 13 33  1  0
 16 34  1  0
 16 35  1  0
 18 36  1  0
 19 37  1  0
 20 38  1  0
 21 39  1  0
 22 40  1  0
 23 41  1  0
M  END
>  <smiles>  (38) 
N=c1[nH]c(OCc2ccccc2)cc(=NCc2ccccc2)[nH]1

>  <score_type>  (38) 
oracle

>  <origin>  (38) 
adg

>  <m_score__min__energy>  (38) 
-7.6500000000000004

>  <m_primary>  (38) 
energy

$$$$
38:0
     RDKit          3D

 30 32  0  0  0  0  0  0  0  0999 V2000
   57.5330   32.2880   41.3650 C   0  0  0  0  0  0  0  0  0  0  0  0
   58.2250   32.0360   42.4730 C   0  0  0  0  0  0  0  0  0  0  0  0
   57.7880   31.0410   43.4630 C   0  0  0  0  0  0  0  0  0  0  0  0
   56.5280   30.5560   43.5520 N   0  0  0  0  0  0  0  0  0  0  0  0
   56.4080   29.6490   44.5590 C   0  0  0  0  0  0  0  0  0  0  0  0
   55.1990   29.0220   44.8410 O   0  0  0  0  0  0  0  0  0  0  0  0
   57.5740   29.4040   45.2780 C   0  0  0  0  0  0  0  0  0  0  0  0
   57.7280   28.4640   46.4360 C   0  0  0  0  0  0  0  0  0  0  0  0
   57.1070   27.1240   46.1280 C   0  0  0  0  0  0  0  0  0  0  0  0
   55.7560   27.0710   45.9840 N   0  0  0  0  0  0  0  0  0  0  0  0
   55.1160   25.9430   45.6840 N   0  0  0  0  0  0  0  0  0  0  0  0
   55.7760   24.7750   45.4980 C   0  0  0  0  0  0  0  0  0  0  0  0
   55.1220   23.7350   45.2140 O   0  0  0  0  0  0  0  0  0  0  0  0
   57.1740   24.7420   45.6230 C   0  0  0  0  0  0  0  0  0  0  0  0
   57.8980   23.5500   45.4330 C   0  0  0  0  0  0  0  0  0  0  0  0
   59.2870   23.5400   45.5600 C   0  0  0  0  0  0  0  0  0  0  0  0
   59.9690   24.7150   45.8790 C   0  0  0  0  0  0  0  0  0  0  0  0
   59.2660   25.9060   46.0720 C   0  0  0  0  0  0  0  0  0  0  0  0
   57.8620   25.9390   45.9450 C   0  0  0  0  0  0  0  0  0  0  0  0
   58.7940   30.3670   44.6310 S   0  0  0  0  0  0  0  0  0  0  0  0
   57.8953   33.0409   40.6496 H   0  0  0  0  0  0  0  0  0  0  0  0
   56.5986   31.7434   41.1643 H   0  0  0  0  0  0  0  0  0  0  0  0
   59.1568   32.5916   42.6547 H   0  0  0  0  0  0  0  0  0  0  0  0
   55.1340   28.0130   44.8690 H   0  0  0  0  0  0  0  0  0  0  0  0
   58.7986   28.3248   46.6470 H   0  0  0  0  0  0  0  0  0  0  0  0
   57.2172   28.8956   47.3094 H   0  0  0  0  0  0  0  0  0  0  0  0
   57.3652   22.6207   45.1828 H   0  0  0  0  0  0  0  0  0  0  0  0
   59.8456   22.6046   45.4085 H   0  0  0  0  0  0  0  0  0  0  0  0
   61.0644   24.7029   45.9788 H   0  0  0  0  0  0  0  0  0  0  0  0
   59.8123   26.8266   46.3253 H   0  0  0  0  0  0  0  0  0  0  0  0
  1  2  2  0
  2  3  1  0
  3  4  2  0
  4  5  1  0
  5  6  1  0
  5  7  2  0
  7  8  1  0
  8  9  1  0
  9 10  2  0
 10 11  1  0
 11 12  1  0
 12 13  2  0
 12 14  1  0
 14 15  2  0
 15 16  1  0
 16 17  2  0
 17 18  1  0
 18 19  2  0
  7 20  1  0
 20  3  1  0
 19  9  1  0
 19 14  1  0
  1 21  1  0
  1 22  1  0
  2 23  1  0
  6 24  1  0
  8 25  1  0
  8 26  1  0
 15 27  1  0
 16 28  1  0
 17 29  1  0
 18 30  1  0
M  CHG  1  11  -1
M  END
>  <UniqueID>  (39) 
37

>  <SMILES>  (39) 
C=Cc1nc(O)c(Cc2n[n-]c(=O)c3ccccc23)s1

>  <Energy>  (39) 
65.81969198679204

>  <Genealogy>  (39) 
C=Cc1nc(O)c(Cc2n[n-]c(=O)c3ccccc23)s1 (protonated)
C=Cc1nc(O)c(Cc2n[n-]c(=O)c3ccccc23)s1 (3D coordinates assigned)
C=Cc1nc(O)c(Cc2n[n-]c(=O)c3ccccc23)s1 (optimized conformer: 65.81969198679204 kcal/mol)

>  <smiles>  (39) 
C=Cc1nc(O)c(Cc2n[nH]c(=O)c3ccccc23)s1

>  <score_type>  (39) 
oracle

>  <origin>  (39) 
adg

>  <m_score__min__energy>  (39) 
-10.619999999999999

>  <m_primary>  (39) 
energy

$$$$
39:0
     RDKit          3D

 59 62  0  0  0  0  0  0  0  0999 V2000
   58.3982   26.5046   45.5976 H   0  0  0  0  0  0  0  0  0  0  0  0
   57.5430   27.0630   46.0060 C   0  0  0  0  0  0  0  0  0  0  0  0
   56.3570   26.2790   46.4050 C   0  0  0  0  0  0  0  0  0  0  0  0
   56.4500   25.2710   47.1580 O   0  0  0  0  0  0  0  0  0  0  0  0
   55.1000   26.6950   45.9870 O   0  0  0  0  0  0  0  0  0  0  0  0
   57.6710   28.3960   46.0970 C   0  0  0  0  0  0  0  0  0  0  0  0
   57.9312   28.8161   47.0798 H   0  0  0  0  0  0  0  0  0  0  0  0
   57.4890   29.3400   44.9780 C   0  0  0  0  0  0  0  0  0  0  0  0
   56.6880   28.9740   43.8890 C   0  0  0  0  0  0  0  0  0  0  0  0
   56.2134   27.9819   43.8661 H   0  0  0  0  0  0  0  0  0  0  0  0
   56.4900   29.8660   42.8310 C   0  0  0  0  0  0  0  0  0  0  0  0
   55.8587   29.5749   41.9785 H   0  0  0  0  0  0  0  0  0  0  0  0
   57.0920   31.1260   42.8540 C   0  0  0  0  0  0  0  0  0  0  0  0
   56.9174   31.8334   42.0299 H   0  0  0  0  0  0  0  0  0  0  0  0
   57.9200   31.4910   43.9280 C   0  0  0  0  0  0  0  0  0  0  0  0
   58.5020   32.7940   43.9980 N   0  0  0  0  0  0  0  0  0  0  0  0
   58.1840   33.8490   45.3330 S   0  0  0  0  0  0  0  0  0  0  0  0
   56.8630   33.5100   45.9640 O   0  0  0  0  0  0  0  0  0  0  0  0
   58.1360   35.2690   44.8460 O   0  0  0  0  0  0  0  0  0  0  0  0
   59.4960   33.6700   46.4930 C   0  0  0  0  0  0  0  0  0  0  0  0
   60.4240   32.6320   46.3530 C   0  0  0  0  0  0  0  0  0  0  0  0
   60.2770   31.8671   45.5763 H   0  0  0  0  0  0  0  0  0  0  0  0
   61.5370   32.5630   47.1960 C   0  0  0  0  0  0  0  0  0  0  0  0
   62.2611   31.7433   47.0781 H   0  0  0  0  0  0  0  0  0  0  0  0
   61.7380   33.5340   48.1940 C   0  0  0  0  0  0  0  0  0  0  0  0
   62.9410   33.4850   49.0640 C   0  0  0  0  0  0  0  0  0  0  0  0
   64.0800   32.7590   48.6700 C   0  0  0  0  0  0  0  0  0  0  0  0
   64.0791   32.2185   47.7119 H   0  0  0  0  0  0  0  0  0  0  0  0
   65.2140   32.7200   49.4890 C   0  0  0  0  0  0  0  0  0  0  0  0
   66.0989   32.1484   49.1723 H   0  0  0  0  0  0  0  0  0  0  0  0
   65.2270   33.4050   50.7090 C   0  0  0  0  0  0  0  0  0  0  0  0
   66.6550   33.3280   51.7390 S   0  0  0  0  0  0  0  0  0  0  0  0
   67.8470   33.0300   50.8710 O   0  0  0  0  0  0  0  0  0  0  0  0
   66.8780   34.6590   52.4020 O   0  0  0  0  0  0  0  0  0  0  0  0
   66.4810   32.0610   52.9380 N   0  0  0  0  0  0  0  0  0  0  0  0
   66.6790   32.5110   53.8620 H   0  0  0  0  0  0  0  0  0  0  0  0
   67.4760   30.9870   52.7490 C   0  0  0  0  0  0  0  0  0  0  0  0
   68.4674   31.4433   52.6110 H   0  0  0  0  0  0  0  0  0  0  0  0
   67.4509   30.3437   53.6410 H   0  0  0  0  0  0  0  0  0  0  0  0
   67.1590   30.1040   51.5190 C   0  0  0  0  0  0  0  0  0  0  0  0
   67.8205   30.4071   50.6941 H   0  0  0  0  0  0  0  0  0  0  0  0
   67.3195   29.0592   51.8233 H   0  0  0  0  0  0  0  0  0  0  0  0
   65.8160   30.2050   51.0760 O   0  0  0  0  0  0  0  0  0  0  0  0
   64.9360   30.2210   52.1790 C   0  0  0  0  0  0  0  0  0  0  0  0
   63.9003   30.1399   51.8175 H   0  0  0  0  0  0  0  0  0  0  0  0
   65.1740   29.3728   52.8377 H   0  0  0  0  0  0  0  0  0  0  0  0
   65.0950   31.5310   52.9740 C   0  0  0  0  0  0  0  0  0  0  0  0
   64.4188   32.2859   52.5464 H   0  0  0  0  0  0  0  0  0  0  0  0
   64.8510   31.3128   54.0242 H   0  0  0  0  0  0  0  0  0  0  0  0
   64.0950   34.1250   51.1110 C   0  0  0  0  0  0  0  0  0  0  0  0
   64.0973   34.6576   52.0734 H   0  0  0  0  0  0  0  0  0  0  0  0
   62.9620   34.1690   50.2930 C   0  0  0  0  0  0  0  0  0  0  0  0
   62.0800   34.7431   50.6130 H   0  0  0  0  0  0  0  0  0  0  0  0
   60.7940   34.5660   48.3370 C   0  0  0  0  0  0  0  0  0  0  0  0
   60.9292   35.3243   49.1223 H   0  0  0  0  0  0  0  0  0  0  0  0
   59.6850   34.6360   47.4890 C   0  0  0  0  0  0  0  0  0  0  0  0
   58.9578   35.4532   47.6045 H   0  0  0  0  0  0  0  0  0  0  0  0
   58.1420   30.5850   44.9710 C   0  0  0  0  0  0  0  0  0  0  0  0
   58.8298   30.8478   45.7882 H   0  0  0  0  0  0  0  0  0  0  0  0
  1  2  1  0
  2  3  1  0
  3  4  2  0
  3  5  1  0
  2  6  2  0
  6  7  1  0
  6  8  1  0
  8  9  2  0
  9 10  1  0
  9 11  1  0
 11 12  1  0
 11 13  2  0
 13 14  1  0
 13 15  1  0
 15 16  1  0
 16 17  1  0
 17 18  2  0
 17 19  2  0
 17 20  1  0
 20 21  2  0
 21 22  1  0
 21 23  1  0
 23 24  1  0
 23 25  2  0
 25 26  1  0
 26 27  2  0
 27 28  1  0
 27 29  1  0
 29 30  1  0
 29 31  2  0
 31 32  1  0
 32 33  2  0
 32 34  2  0
 32 35  1  0
 35 36  1  0
 35 37  1  0
 37 38  1  0
 37 39  1  0
 37 40  1  0
 40 41  1  0
 40 42  1  0
 40 43  1  0
 43 44  1  0
 44 45  1  0
 44 46  1  0
 44 47  1  0
 47 48  1  0
 47 49  1  0
 31 50  1  0
 50 51  1  0
 50 52  2  0
 52 53  1  0
 25 54  1  0
 54 55  1  0
 54 56  2  0
 56 57  1  0
 15 58  2  0
 58 59  1  0
 58  8  1  0
 56 20  1  0
 52 26  1  0
 47 35  1  0
M  CHG  3   5  -1  16  -1  35   1
M  END
>  <UniqueID>  (40) 
38

>  <SMILES>  (40) 
O=C([O-])/C=C\c1cccc([N-]S(=O)(=O)c2ccc(-c3ccc(S(=O)(=O)[NH+]4CCOCC4)cc3)cc2)c1

>  <Energy>  (40) 
91.37383358009383

>  <Genealogy>  (40) 
O=C([O-])C=Cc1cccc([N-]S(=O)(=O)c2ccc(-c3ccc(S(=O)(=O)[NH+]4CCOCC4)cc3)cc2)c1 (protonated)
O=C([O-])/C=C\c1cccc([N-]S(=O)(=O)c2ccc(-c3ccc(S(=O)(=O)[NH+]4CCOCC4)cc3)cc2)c1 (cis-trans isomerization)
O=C([O-])/C=C\c1cccc([N-]S(=O)(=O)c2ccc(-c3ccc(S(=O)(=O)[NH+]4CCOCC4)cc3)cc2)c1 (3D coordinates assigned)
O=C([O-])/C=C\c1cccc([N-]S(=O)(=O)c2ccc(-c3ccc(S(=O)(=O)[NH+]4CCOCC4)cc3)cc2)c1 (nonaromatic ring conformer: 91.37383358009383 kcal/mol)

>  <smiles>  (40) 
O=C(O)C=Cc1cccc(NS(=O)(=O)c2ccc(-c3ccc(S(=O)(=O)N4CCOCC4)cc3)cc2)c1

>  <score_type>  (40) 
oracle

>  <origin>  (40) 
adg

>  <m_score__min__energy>  (40) 
-13.039999999999999

>  <m_primary>  (40) 
energy

$$$$
40:0
     RDKit          3D

 65 68  0  0  0  0  0  0  0  0999 V2000
   57.9500   31.7120   43.3360 C   0  0  0  0  0  0  0  0  0  0  0  0
   56.7420   31.4140   44.0980 N   0  0  0  0  0  0  0  0  0  0  0  0
   56.5840   29.6970   44.3040 S   0  0  0  0  0  0  0  0  0  0  0  0
   55.1440   29.3580   44.5660 O   0  0  0  0  0  0  0  0  0  0  0  0
   56.9940   29.0010   43.0360 O   0  0  0  0  0  0  0  0  0  0  0  0
   57.5850   29.1240   45.6500 C   0  0  0  0  0  0  0  0  0  0  0  0
   58.0700   30.0710   46.5610 C   0  0  0  0  0  0  0  0  0  0  0  0
   58.9700   29.7080   47.5760 C   0  0  0  0  0  0  0  0  0  0  0  0
   59.4830   30.6710   48.4600 O   0  0  0  0  0  0  0  0  0  0  0  0
   60.6110   31.4670   48.2190 C   0  0  0  0  0  0  0  0  0  0  0  0
   61.7860   30.9380   47.6520 C   0  0  0  0  0  0  0  0  0  0  0  0
   62.8860   31.7680   47.4130 C   0  0  0  0  0  0  0  0  0  0  0  0
   62.8190   33.1280   47.7260 C   0  0  0  0  0  0  0  0  0  0  0  0
   61.6480   33.6630   48.2700 C   0  0  0  0  0  0  0  0  0  0  0  0
   60.5470   32.8350   48.5100 C   0  0  0  0  0  0  0  0  0  0  0  0
   59.4250   28.3800   47.6550 C   0  0  0  0  0  0  0  0  0  0  0  0
   60.3790   27.9610   48.7010 C   0  0  0  0  0  0  0  0  0  0  0  0
   61.0800   26.9270   48.5220 O   0  0  0  0  0  0  0  0  0  0  0  0
   60.4830   28.6960   49.9300 N   0  0  0  0  0  0  0  0  0  0  0  0
   61.5210   28.4060   50.9290 C   0  0  0  0  0  0  0  0  0  0  0  0
   60.8990   28.2540   52.3320 C   0  0  0  0  0  0  0  0  0  0  0  0
   60.2990   29.5710   52.8720 C   0  0  0  0  0  0  0  0  0  0  0  0
   61.0050   30.8300   52.3380 C   0  0  0  0  0  0  0  0  0  0  0  0
   62.4760   30.5600   52.0140 C   0  0  0  0  0  0  0  0  0  0  0  0
   62.6240   29.4990   50.9070 C   0  0  0  0  0  0  0  0  0  0  0  0
   58.9480   27.4320   46.7390 C   0  0  0  0  0  0  0  0  0  0  0  0
   57.9870   27.7740   45.7780 C   0  0  0  0  0  0  0  0  0  0  0  0
   57.4480   26.7260   44.9530 N   0  0  0  0  0  0  0  0  0  0  0  0
   57.5230   25.3250   45.2720 C   0  0  0  0  0  0  0  0  0  0  0  0
   58.7930   24.7370   45.3830 C   0  0  0  0  0  0  0  0  0  0  0  0
   58.9270   23.3620   45.5860 C   0  0  0  0  0  0  0  0  0  0  0  0
   57.7920   22.5590   45.6970 C   0  0  0  0  0  0  0  0  0  0  0  0
   56.5210   23.1310   45.6380 C   0  0  0  0  0  0  0  0  0  0  0  0
   56.3670   24.5170   45.4530 C   0  0  0  0  0  0  0  0  0  0  0  0
   55.0080   25.0860   45.5440 C   0  0  0  0  0  0  0  0  0  0  0  0
   54.8050   26.3710   46.1290 N   0  0  0  0  0  0  0  0  0  0  0  0
   54.0280   24.4670   45.0510 O   0  0  0  0  0  0  0  0  0  0  0  0
   58.7795   31.9166   44.0289 H   0  0  0  0  0  0  0  0  0  0  0  0
   58.2058   30.8500   42.7023 H   0  0  0  0  0  0  0  0  0  0  0  0
   57.7755   32.5940   42.7023 H   0  0  0  0  0  0  0  0  0  0  0  0
   57.7402   31.1172   46.4799 H   0  0  0  0  0  0  0  0  0  0  0  0
   61.8390   29.8694   47.3964 H   0  0  0  0  0  0  0  0  0  0  0  0
   63.8055   31.3494   46.9779 H   0  0  0  0  0  0  0  0  0  0  0  0
   63.6879   33.7777   47.5443 H   0  0  0  0  0  0  0  0  0  0  0  0
   61.5925   34.7352   48.5093 H   0  0  0  0  0  0  0  0  0  0  0  0
   59.6242   33.2614   48.9303 H   0  0  0  0  0  0  0  0  0  0  0  0
   59.7370   29.3930   50.1470 H   0  0  0  0  0  0  0  0  0  0  0  0
   61.9975   27.4485   50.6716 H   0  0  0  0  0  0  0  0  0  0  0  0
   60.1000   27.4996   52.2814 H   0  0  0  0  0  0  0  0  0  0  0  0
   61.7045   27.9536   53.0183 H   0  0  0  0  0  0  0  0  0  0  0  0
   59.2391   29.6161   52.5812 H   0  0  0  0  0  0  0  0  0  0  0  0
   60.4313   29.5637   53.9640 H   0  0  0  0  0  0  0  0  0  0  0  0
   60.4940   31.1641   51.4230 H   0  0  0  0  0  0  0  0  0  0  0  0
   60.9624   31.6039   53.1185 H   0  0  0  0  0  0  0  0  0  0  0  0
   62.9456   31.4960   51.6773 H   0  0  0  0  0  0  0  0  0  0  0  0
   62.9661   30.1814   52.9231 H   0  0  0  0  0  0  0  0  0  0  0  0
   62.5872   30.0081   49.9326 H   0  0  0  0  0  0  0  0  0  0  0  0
   63.5823   28.9880   51.0816 H   0  0  0  0  0  0  0  0  0  0  0  0
   59.3344   26.4027   46.7751 H   0  0  0  0  0  0  0  0  0  0  0  0
   56.9790   27.0030   44.0600 H   0  0  0  0  0  0  0  0  0  0  0  0
   59.6922   25.3663   45.3093 H   0  0  0  0  0  0  0  0  0  0  0  0
   59.9281   22.9119   45.6584 H   0  0  0  0  0  0  0  0  0  0  0  0
   57.8993   21.4725   45.8313 H   0  0  0  0  0  0  0  0  0  0  0  0
   55.6309   22.4923   45.7371 H   0  0  0  0  0  0  0  0  0  0  0  0
   53.8450   26.7030   46.3720 H   0  0  0  0  0  0  0  0  0  0  0  0
  1  2  1  0
  2  3  1  0
  3  4  2  0
  3  5  2  0
  3  6  1  0
  6  7  2  0
  7  8  1  0
  8  9  1  0
  9 10  1  0
 10 11  2  0
 11 12  1  0
 12 13  2  0
 13 14  1  0
 14 15  2  0
  8 16  2  0
 16 17  1  0
 17 18  2  0
 17 19  1  0
 19 20  1  0
 20 21  1  0
 21 22  1  0
 22 23  1  0
 23 24  1  0
 24 25  1  0
 16 26  1  0
 26 27  2  0
 27 28  1  0
 28 29  1  0
 29 30  2  0
 30 31  1  0
 31 32  2  0
 32 33  1  0
 33 34  2  0
 34 35  1  0
 35 36  1  0
 35 37  2  0
 27  6  1  0
 34 29  1  0
 15 10  1  0
 25 20  1  0
  1 38  1  0
  1 39  1  0
  1 40  1  0
  7 41  1  0
 11 42  1  0
 12 43  1  0
 13 44  1  0
 14 45  1  0
 15 46  1  0
 19 47  1  0
 20 48  1  0
 21 49  1  0
 21 50  1  0
 22 51  1  0
 22 52  1  0
 23 53  1  0
 23 54  1  0
 24 55  1  0
 24 56  1  0
 25 57  1  0
 25 58  1  0
 26 59  1  0
 28 60  1  0
 30 61  1  0
 31 62  1  0
 32 63  1  0
 33 64  1  0
 36 65  1  0
M  CHG  2   2  -1  36  -1
M  END
>  <UniqueID>  (41) 
39

>  <SMILES>  (41) 
C[N-]S(=O)(=O)c1cc(Oc2ccccc2)c(C(=O)NC2CCCCC2)cc1Nc1ccccc1C([NH-])=O

>  <Energy>  (41) 
88.49239450354669

>  <Genealogy>  (41) 
C[N-]S(=O)(=O)c1cc(Oc2ccccc2)c(C(=O)NC2CCCCC2)cc1Nc1ccccc1C([NH-])=O (protonated)
C[N-]S(=O)(=O)c1cc(Oc2ccccc2)c(C(=O)NC2CCCCC2)cc1Nc1ccccc1C([NH-])=O (3D coordinates assigned)
C[N-]S(=O)(=O)c1cc(Oc2ccccc2)c(C(=O)NC2CCCCC2)cc1Nc1ccccc1C([NH-])=O (nonaromatic ring conformer: 88.49239450354669 kcal/mol)

>  <smiles>  (41) 
CNS(=O)(=O)c1cc(Oc2ccccc2)c(C(=O)NC2CCCCC2)cc1Nc1ccccc1C(N)=O

>  <score_type>  (41) 
oracle

>  <origin>  (41) 
adg

>  <m_score__min__energy>  (41) 
-14

>  <m_primary>  (41) 
energy

$$$$
41:0
     RDKit          3D

 50 53  0  0  0  0  0  0  0  0999 V2000
   53.6800   30.8430   53.3280 O   0  0  0  0  0  0  0  0  0  0  0  0
   54.2480   30.1830   52.4180 C   0  0  0  0  0  0  0  0  0  0  0  0
   53.4430   29.7040   51.2420 C   0  0  0  0  0  0  0  0  0  0  0  0
   52.4790   30.7610   50.8040 C   0  0  0  0  0  0  0  0  0  0  0  0
   52.3890   32.0340   51.3130 C   0  0  0  0  0  0  0  0  0  0  0  0
   51.4430   32.7050   50.6340 N   0  0  0  0  0  0  0  0  0  0  0  0
   50.9940   31.8140   49.7250 C   0  0  0  0  0  0  0  0  0  0  0  0
   51.6080   30.6150   49.7900 N   0  0  0  0  0  0  0  0  0  0  0  0
   55.6690   29.9860   52.4860 N   0  0  0  0  0  0  0  0  0  0  0  0
   56.5970   30.9020   52.4400 C   0  0  0  0  0  0  0  0  0  0  0  0
   57.0360   31.4770   51.2300 C   0  0  0  0  0  0  0  0  0  0  0  0
   58.0680   32.4340   51.2430 C   0  0  0  0  0  0  0  0  0  0  0  0
   58.5470   33.0480   50.0720 O   0  0  0  0  0  0  0  0  0  0  0  0
   59.8090   33.7040   49.9520 C   0  0  0  0  0  0  0  0  0  0  0  0
   60.6290   33.1090   48.7980 C   0  0  0  0  0  0  0  0  0  0  0  0
   59.7180   32.5820   47.7220 C   0  0  0  0  0  0  0  0  0  0  0  0
   59.8020   31.2390   47.3230 C   0  0  0  0  0  0  0  0  0  0  0  0
   58.8920   30.7200   46.3990 C   0  0  0  0  0  0  0  0  0  0  0  0
   57.8760   31.5350   45.8720 C   0  0  0  0  0  0  0  0  0  0  0  0
   56.9120   31.0210   44.9430 N   0  0  0  0  0  0  0  0  0  0  0  0
   56.4070   29.6780   44.9180 C   0  0  0  0  0  0  0  0  0  0  0  0
   55.1640   29.5040   44.8160 O   0  0  0  0  0  0  0  0  0  0  0  0
   57.2930   28.5020   45.0690 C   0  0  0  0  0  0  0  0  0  0  0  0
   58.4520   28.3170   44.2970 C   0  0  0  0  0  0  0  0  0  0  0  0
   59.1240   27.1340   44.5730 C   0  0  0  0  0  0  0  0  0  0  0  0
   58.2730   26.3170   45.7670 S   0  0  0  0  0  0  0  0  0  0  0  0
   57.0450   27.4490   45.9470 C   0  0  0  0  0  0  0  0  0  0  0  0
   57.8170   32.8830   46.2410 C   0  0  0  0  0  0  0  0  0  0  0  0
   58.7220   33.4030   47.1700 C   0  0  0  0  0  0  0  0  0  0  0  0
   58.6440   32.7920   52.4650 C   0  0  0  0  0  0  0  0  0  0  0  0
   58.1920   32.1970   53.6430 C   0  0  0  0  0  0  0  0  0  0  0  0
   57.1960   31.2750   53.6030 N   0  0  0  0  0  0  0  0  0  0  0  0
   54.1226   29.4663   50.4104 H   0  0  0  0  0  0  0  0  0  0  0  0
   52.8788   28.8072   51.5376 H   0  0  0  0  0  0  0  0  0  0  0  0
   52.9918   32.4375   52.1399 H   0  0  0  0  0  0  0  0  0  0  0  0
   50.2008   32.0444   48.9985 H   0  0  0  0  0  0  0  0  0  0  0  0
   56.5731   31.1784   50.2779 H   0  0  0  0  0  0  0  0  0  0  0  0
   59.6417   34.7742   49.7604 H   0  0  0  0  0  0  0  0  0  0  0  0
   60.3681   33.5639   50.8889 H   0  0  0  0  0  0  0  0  0  0  0  0
   61.2767   33.8902   48.3736 H   0  0  0  0  0  0  0  0  0  0  0  0
   61.2394   32.2800   49.1853 H   0  0  0  0  0  0  0  0  0  0  0  0
   60.5880   30.5922   47.7398 H   0  0  0  0  0  0  0  0  0  0  0  0
   58.9711   29.6694   46.0828 H   0  0  0  0  0  0  0  0  0  0  0  0
   58.7950   29.0419   43.5441 H   0  0  0  0  0  0  0  0  0  0  0  0
   60.0525   26.7917   44.0928 H   0  0  0  0  0  0  0  0  0  0  0  0
   56.1928   27.3722   46.6382 H   0  0  0  0  0  0  0  0  0  0  0  0
   57.0530   33.5381   45.7969 H   0  0  0  0  0  0  0  0  0  0  0  0
   58.6538   34.4592   47.4698 H   0  0  0  0  0  0  0  0  0  0  0  0
   59.4502   33.5396   52.4978 H   0  0  0  0  0  0  0  0  0  0  0  0
   58.6436   32.4754   54.6066 H   0  0  0  0  0  0  0  0  0  0  0  0
  1  2  2  0
  2  3  1  0
  3  4  1  0
  4  5  2  0
  5  6  1  0
  6  7  1  0
  7  8  2  0
  2  9  1  0
  9 10  2  3
 10 11  1  0
 11 12  2  0
 12 13  1  0
 13 14  1  0
 14 15  1  0
 15 16  1  0
 16 17  2  0
 17 18  1  0
 18 19  2  0
 19 20  1  0
 20 21  1  0
 21 22  2  0
 21 23  1  0
 23 24  1  0
 24 25  2  0
 25 26  1  0
 26 27  1  0
 19 28  1  0
 28 29  2  0
 12 30  1  0
 30 31  2  0
 31 32  1  0
  8  4  1  0
 32 10  1  0
 29 16  1  0
 27 23  2  0
  3 33  1  0
  3 34  1  0
  5 35  1  0
  7 36  1  0
 11 37  1  0
 14 38  1  0
 14 39  1  0
 15 40  1  0
 15 41  1  0
 17 42  1  0
 18 43  1  0
 24 44  1  0
 25 45  1  0
 27 46  1  0
 28 47  1  0
 29 48  1  0
 30 49  1  0
 31 50  1  0
M  CHG  3   6  -1  20  -1  32  -1
M  END
>  <UniqueID>  (42) 
40

>  <SMILES>  (42) 
O=C(Cc1c[n-]cn1)N=c1cc(OCCc2ccc([N-]C(=O)c3ccsc3)cc2)cc[n-]1

>  <Energy>  (42) 
115.92887421331551

>  <Genealogy>  (42) 
O=C(Cc1c[n-]cn1)N=c1cc(OCCc2ccc([N-]C(=O)c3ccsc3)cc2)cc[n-]1 (protonated)
O=C(Cc1c[n-]cn1)N=c1cc(OCCc2ccc([N-]C(=O)c3ccsc3)cc2)cc[n-]1 (3D coordinates assigned)
O=C(Cc1c[n-]cn1)N=c1cc(OCCc2ccc([N-]C(=O)c3ccsc3)cc2)cc[n-]1 (optimized conformer: 115.92887421331551 kcal/mol)

>  <smiles>  (42) 
O=C(Cc1c[nH]cn1)N=c1cc(OCCc2ccc(NC(=O)c3ccsc3)cc2)cc[nH]1

>  <score_type>  (42) 
oracle

>  <origin>  (42) 
adg

>  <m_score__min__energy>  (42) 
-14.369999999999999

>  <m_primary>  (42) 
energy

$$$$
42:0
     RDKit          3D

 42 46  0  0  0  0  0  0  0  0999 V2000
   58.1398   26.7862   43.9463 H   0  0  0  0  0  0  0  0  0  0  0  0
   57.6420   27.1050   44.8740 C   0  0  0  0  0  0  0  0  0  0  0  0
   57.1580   26.0590   45.7890 C   0  0  0  0  0  0  0  0  0  0  0  0
   57.9090   25.0160   46.1850 N   0  0  0  0  0  0  0  0  0  0  0  0
   57.0500   24.2740   46.9180 C   0  0  0  0  0  0  0  0  0  0  0  0
   57.3920   23.2020   47.4820 O   0  0  0  0  0  0  0  0  0  0  0  0
   55.7950   24.7650   46.9900 N   0  0  0  0  0  0  0  0  0  0  0  0
   55.8750   25.8880   46.2580 C   0  0  0  0  0  0  0  0  0  0  0  0
   54.7910   26.7150   45.9930 O   0  0  0  0  0  0  0  0  0  0  0  0
   57.5160   28.4210   45.0970 C   0  0  0  0  0  0  0  0  0  0  0  0
   56.7290   29.3000   44.3670 C   0  0  0  0  0  0  0  0  0  0  0  0
   56.0860   29.0199   43.5196 H   0  0  0  0  0  0  0  0  0  0  0  0
   56.8720   30.5540   44.8550 N   0  0  0  0  0  0  0  0  0  0  0  0
   57.7250   30.5060   45.8630 N   0  0  0  0  0  0  0  0  0  0  0  0
   58.2250   31.5150   46.6470 C   0  0  0  0  0  0  0  0  0  0  0  0
   57.8760   32.7790   46.5920 N   0  0  0  0  0  0  0  0  0  0  0  0
   57.9750   33.9820   45.7410 C   0  0  0  0  0  0  0  0  0  0  0  0
   56.9172   34.2429   45.8927 H   0  0  0  0  0  0  0  0  0  0  0  0
   58.8870   33.9190   44.5380 C   0  0  0  0  0  0  0  0  0  0  0  0
   59.4329   32.9922   44.3075 H   0  0  0  0  0  0  0  0  0  0  0  0
   58.7758   34.1184   43.4619 H   0  0  0  0  0  0  0  0  0  0  0  0
   59.2730   34.7560   45.7710 C   0  0  0  0  0  0  0  0  0  0  0  0
   60.0954   34.4291   46.4243 H   0  0  0  0  0  0  0  0  0  0  0  0
   59.5536   35.8050   45.9469 H   0  0  0  0  0  0  0  0  0  0  0  0
   59.1630   31.1740   47.5730 N   0  0  0  0  0  0  0  0  0  0  0  0
   59.5940   29.8870   47.7210 C   0  0  0  0  0  0  0  0  0  0  0  0
   60.5600   29.5590   48.6780 O   0  0  0  0  0  0  0  0  0  0  0  0
   61.1670   30.5170   49.5430 C   0  0  0  0  0  0  0  0  0  0  0  0
   60.3981   30.9510   50.1991 H   0  0  0  0  0  0  0  0  0  0  0  0
   61.9389   30.0149   50.1447 H   0  0  0  0  0  0  0  0  0  0  0  0
   61.8100   31.6120   48.7440 C   0  0  0  0  0  0  0  0  0  0  0  0
   62.8360   31.3180   47.8980 N   0  0  0  0  0  0  0  0  0  0  0  0
   63.4340   32.2750   47.1360 C   0  0  0  0  0  0  0  0  0  0  0  0
   64.2623   32.0051   46.4644 H   0  0  0  0  0  0  0  0  0  0  0  0
   62.9960   33.5990   47.2070 C   0  0  0  0  0  0  0  0  0  0  0  0
   63.4755   34.3767   46.5944 H   0  0  0  0  0  0  0  0  0  0  0  0
   61.9440   33.9250   48.0630 C   0  0  0  0  0  0  0  0  0  0  0  0
   61.5885   34.9640   48.1280 H   0  0  0  0  0  0  0  0  0  0  0  0
   61.3430   32.9310   48.8370 C   0  0  0  0  0  0  0  0  0  0  0  0
   60.5116   33.1797   49.5130 H   0  0  0  0  0  0  0  0  0  0  0  0
   59.0820   28.9070   46.9330 N   0  0  0  0  0  0  0  0  0  0  0  0
   58.1350   29.2380   46.0260 C   0  0  0  0  0  0  0  0  0  0  0  0
  1  2  1  0
  2  3  1  0
  3  4  1  0
  4  5  1  0
  5  6  2  0
  5  7  1  0
  7  8  1  0
  8  9  1  0
  2 10  2  0
 10 11  1  0
 11 12  1  0
 11 13  2  0
 13 14  1  0
 14 15  1  0
 15 16  2  0
 16 17  1  0
 17 18  1  0
 17 19  1  0
 19 20  1  0
 19 21  1  0
 19 22  1  0
 22 23  1  0
 22 24  1  0
 15 25  1  0
 25 26  2  0
 26 27  1  0
 27 28  1  0
 28 29  1  0
 28 30  1  0
 28 31  1  0
 31 32  2  0
 32 33  1  0
 33 34  1  0
 33 35  2  0
 35 36  1  0
 35 37  1  0
 37 38  1  0
 37 39  2  0
 39 40  1  0
 26 41  1  0
 41 42  2  0
  8  3  2  0
 42 10  1  0
 42 14  1  0
 22 17  1  0
 39 31  1  0
M  CHG  3   4  -1   7  -1   9  -1
M  END
>  <UniqueID>  (43) 
41

>  <SMILES>  (43) 
O=c1[n-]c([O-])c(/C=c2/cnn3/c(=N\C4CC4)nc(OCc4ccccn4)nc23)[n-]1

>  <Energy>  (43) 
411.61884969945856

>  <Genealogy>  (43) 
O=c1[n-]c([O-])c(C=c2cnn3c(=NC4CC4)nc(OCc4ccccn4)nc23)[n-]1 (protonated)
O=c1[n-]c([O-])c(/C=c2/cnn3/c(=N\C4CC4)nc(OCc4ccccn4)nc23)[n-]1 (cis-trans isomerization)
O=c1[n-]c([O-])c(/C=c2/cnn3/c(=N\C4CC4)nc(OCc4ccccn4)nc23)[n-]1 (3D coordinates assigned)
O=c1[n-]c([O-])c(/C=c2/cnn3/c(=N\C4CC4)nc(OCc4ccccn4)nc23)[n-]1 (nonaromatic ring conformer: 411.61884969945856 kcal/mol)

>  <smiles>  (43) 
O=c1[nH]c(O)c(C=c2cnn3c(=NC4CC4)nc(OCc4ccccn4)nc23)[nH]1

>  <score_type>  (43) 
oracle

>  <origin>  (43) 
adg

>  <m_score__min__energy>  (43) 
-16.52

>  <m_primary>  (43) 
energy

$$$$
43:0
     RDKit          3D

 54 57  0  0  0  0  0  0  0  0999 V2000
   56.9930   30.8140   42.7510 C   0  0  0  0  0  0  0  0  0  0  0  0
   56.3400   30.6920   43.9160 C   0  0  0  0  0  0  0  0  0  0  0  0
   56.3710   31.7190   44.8740 O   0  0  0  0  0  0  0  0  0  0  0  0
   57.5130   32.4300   45.2770 C   0  0  0  0  0  0  0  0  0  0  0  0
   58.2810   31.9240   46.3300 C   0  0  0  0  0  0  0  0  0  0  0  0
   59.4350   32.5900   46.7500 C   0  0  0  0  0  0  0  0  0  0  0  0
   59.8410   33.7760   46.1150 C   0  0  0  0  0  0  0  0  0  0  0  0
   61.0800   34.4970   46.5770 C   0  0  0  0  0  0  0  0  0  0  0  0
   61.4390   34.0890   47.9750 C   0  0  0  0  0  0  0  0  0  0  0  0
   62.8590   33.2870   48.4020 S   0  0  0  0  0  0  0  0  0  0  0  0
   62.4100   33.1700   50.0160 C   0  0  0  0  0  0  0  0  0  0  0  0
   63.1120   32.6330   50.9090 O   0  0  0  0  0  0  0  0  0  0  0  0
   61.2010   33.7150   50.2600 N   0  0  0  0  0  0  0  0  0  0  0  0
   60.6530   34.2250   49.1250 C   0  0  0  0  0  0  0  0  0  0  0  0
   59.3990   34.8310   49.1430 O   0  0  0  0  0  0  0  0  0  0  0  0
   59.0810   34.2740   45.0450 C   0  0  0  0  0  0  0  0  0  0  0  0
   57.9280   33.6040   44.6240 C   0  0  0  0  0  0  0  0  0  0  0  0
   55.5180   29.5020   44.2030 C   0  0  0  0  0  0  0  0  0  0  0  0
   54.4520   29.3240   43.5540 O   0  0  0  0  0  0  0  0  0  0  0  0
   55.8890   28.5920   45.2480 N   0  0  0  0  0  0  0  0  0  0  0  0
   57.2150   28.1230   45.5410 C   0  0  0  0  0  0  0  0  0  0  0  0
   58.2990   29.0160   45.6390 C   0  0  0  0  0  0  0  0  0  0  0  0
   59.5770   28.5440   45.9490 C   0  0  0  0  0  0  0  0  0  0  0  0
   59.7870   27.1840   46.1720 C   0  0  0  0  0  0  0  0  0  0  0  0
   58.7160   26.2910   46.1020 C   0  0  0  0  0  0  0  0  0  0  0  0
   57.4220   26.7530   45.8120 C   0  0  0  0  0  0  0  0  0  0  0  0
   56.3050   25.7870   45.7290 C   0  0  0  0  0  0  0  0  0  0  0  0
   55.2370   26.0380   46.3510 O   0  0  0  0  0  0  0  0  0  0  0  0
   56.4140   24.5740   44.9630 N   0  0  0  0  0  0  0  0  0  0  0  0
   55.2800   23.6960   44.7220 C   0  0  0  0  0  0  0  0  0  0  0  0
   55.8670   22.3870   44.2120 C   0  0  0  0  0  0  0  0  0  0  0  0
   57.3080   22.6970   43.8160 C   0  0  0  0  0  0  0  0  0  0  0  0
   57.6740   23.9880   44.5370 C   0  0  0  0  0  0  0  0  0  0  0  0
   56.9575   29.9994   42.0127 H   0  0  0  0  0  0  0  0  0  0  0  0
   57.5641   31.7287   42.5338 H   0  0  0  0  0  0  0  0  0  0  0  0
   57.9742   30.9943   46.8316 H   0  0  0  0  0  0  0  0  0  0  0  0
   60.0289   32.1839   47.5821 H   0  0  0  0  0  0  0  0  0  0  0  0
   61.9139   34.2506   45.9033 H   0  0  0  0  0  0  0  0  0  0  0  0
   60.8859   35.5796   46.5628 H   0  0  0  0  0  0  0  0  0  0  0  0
   59.2450   35.7340   49.5730 H   0  0  0  0  0  0  0  0  0  0  0  0
   59.3943   35.1967   44.5347 H   0  0  0  0  0  0  0  0  0  0  0  0
   57.3436   33.9969   43.7789 H   0  0  0  0  0  0  0  0  0  0  0  0
   58.1389   30.0912   45.4706 H   0  0  0  0  0  0  0  0  0  0  0  0
   60.4199   29.2475   46.0173 H   0  0  0  0  0  0  0  0  0  0  0  0
   60.7969   26.8143   46.4032 H   0  0  0  0  0  0  0  0  0  0  0  0
   58.8870   25.2183   46.2752 H   0  0  0  0  0  0  0  0  0  0  0  0
   54.7217   23.5273   45.6546 H   0  0  0  0  0  0  0  0  0  0  0  0
   54.5775   24.1332   43.9972 H   0  0  0  0  0  0  0  0  0  0  0  0
   55.8442   21.6239   45.0039 H   0  0  0  0  0  0  0  0  0  0  0  0
   55.2919   21.9923   43.3615 H   0  0  0  0  0  0  0  0  0  0  0  0
   57.9749   21.8810   44.1314 H   0  0  0  0  0  0  0  0  0  0  0  0
   57.4124   22.8012   42.7259 H   0  0  0  0  0  0  0  0  0  0  0  0
   58.3105   23.7732   45.4080 H   0  0  0  0  0  0  0  0  0  0  0  0
   58.2380   24.6706   43.8843 H   0  0  0  0  0  0  0  0  0  0  0  0
  1  2  2  0
  2  3  1  0
  3  4  1  0
  4  5  2  0
  5  6  1  0
  6  7  2  0
  7  8  1  0
  8  9  1  0
  9 10  1  0
 10 11  1  0
 11 12  2  0
 11 13  1  0
 13 14  1  0
 14 15  1  0
  7 16  1  0
 16 17  2  0
  2 18  1  0
 18 19  2  0
 18 20  1  0
 20 21  1  0
 21 22  2  0
 22 23  1  0
 23 24  2  0
 24 25  1  0
 25 26  2  0
 26 27  1  0
 27 28  2  0
 27 29  1  0
 29 30  1  0
 30 31  1  0
 31 32  1  0
 32 33  1  0
 17  4  1  0
 26 21  1  0
 33 29  1  0
 14  9  2  0
  1 34  1  0
  1 35  1  0
  5 36  1  0
  6 37  1  0
  8 38  1  0
  8 39  1  0
 15 40  1  0
 16 41  1  0
 17 42  1  0
 22 43  1  0
 23 44  1  0
 24 45  1  0
 25 46  1  0
 30 47  1  0
 30 48  1  0
 31 49  1  0
 31 50  1  0
 32 51  1  0
 32 52  1  0
 33 53  1  0
 33 54  1  0
M  CHG  2  13  -1  20  -1
M  END
>  <UniqueID>  (44) 
42

>  <SMILES>  (44) 
C=C(Oc1ccc(Cc2sc(=O)[n-]c2O)cc1)C(=O)[N-]c1ccccc1C(=O)N1CCCC1

>  <Energy>  (44) 
100.93938887436884

>  <Genealogy>  (44) 
C=C(Oc1ccc(Cc2sc(=O)[n-]c2O)cc1)C(=O)[N-]c1ccccc1C(=O)N1CCCC1 (protonated)
C=C(Oc1ccc(Cc2sc(=O)[n-]c2O)cc1)C(=O)[N-]c1ccccc1C(=O)N1CCCC1 (3D coordinates assigned)
C=C(Oc1ccc(Cc2sc(=O)[n-]c2O)cc1)C(=O)[N-]c1ccccc1C(=O)N1CCCC1 (nonaromatic ring conformer: 100.93938887436884 kcal/mol)

>  <smiles>  (44) 
C=C(Oc1ccc(Cc2sc(=O)[nH]c2O)cc1)C(=O)Nc1ccccc1C(=O)N1CCCC1

>  <score_type>  (44) 
oracle

>  <origin>  (44) 
adg

>  <m_score__min__energy>  (44) 
-13.9

>  <m_primary>  (44) 
energy

$$$$
44:0
     RDKit          3D

 44 46  0  0  0  0  0  0  0  0999 V2000
   55.8110   28.2700   45.2500 O   0  0  0  0  0  0  0  0  0  0  0  0
   56.3430   27.2380   45.7400 C   0  0  0  0  0  0  0  0  0  0  0  0
   57.8390   27.1050   45.7200 C   0  0  0  0  0  0  0  0  0  0  0  0
   58.5230   27.6940   44.1320 S   0  0  0  0  0  0  0  0  0  0  0  0
   58.3170   29.4310   44.5130 C   0  0  0  0  0  0  0  0  0  0  0  0
   57.3250   30.1440   43.9180 N   0  0  0  0  0  0  0  0  0  0  0  0
   57.1560   31.4620   44.1920 C   0  0  0  0  0  0  0  0  0  0  0  0
   58.0040   32.1010   45.0980 C   0  0  0  0  0  0  0  0  0  0  0  0
   59.0190   31.3530   45.7110 C   0  0  0  0  0  0  0  0  0  0  0  0
   59.9530   31.9750   46.6740 C   0  0  0  0  0  0  0  0  0  0  0  0
   59.7140   33.1310   47.1190 O   0  0  0  0  0  0  0  0  0  0  0  0
   61.1100   31.2530   47.1320 N   0  0  0  0  0  0  0  0  0  0  0  0
   62.2150   31.8630   47.8210 C   0  0  0  0  0  0  0  0  0  0  0  0
   62.5620   31.4090   49.1040 C   0  0  0  0  0  0  0  0  0  0  0  0
   63.6480   31.9700   49.7830 C   0  0  0  0  0  0  0  0  0  0  0  0
   64.4050   32.9800   49.1820 C   0  0  0  0  0  0  0  0  0  0  0  0
   65.4570   33.5220   49.8410 F   0  0  0  0  0  0  0  0  0  0  0  0
   64.0800   33.4230   47.8980 C   0  0  0  0  0  0  0  0  0  0  0  0
   62.9950   32.8640   47.2140 C   0  0  0  0  0  0  0  0  0  0  0  0
   59.1490   30.0340   45.4010 N   0  0  0  0  0  0  0  0  0  0  0  0
   55.5010   26.2410   46.3310 N   0  0  0  0  0  0  0  0  0  0  0  0
   54.8240   25.1850   45.5880 C   0  0  0  0  0  0  0  0  0  0  0  0
   55.8440   24.2240   45.0530 C   0  0  0  0  0  0  0  0  0  0  0  0
   56.9300   23.8270   45.8510 C   0  0  0  0  0  0  0  0  0  0  0  0
   57.8610   22.9040   45.3630 C   0  0  0  0  0  0  0  0  0  0  0  0
   57.7090   22.3650   44.0830 C   0  0  0  0  0  0  0  0  0  0  0  0
   56.6230   22.7430   43.2890 C   0  0  0  0  0  0  0  0  0  0  0  0
   55.6880   23.6660   43.7730 C   0  0  0  0  0  0  0  0  0  0  0  0
   58.2649   27.7024   46.5396 H   0  0  0  0  0  0  0  0  0  0  0  0
   58.0997   26.0435   45.8435 H   0  0  0  0  0  0  0  0  0  0  0  0
   56.3506   32.0271   43.7001 H   0  0  0  0  0  0  0  0  0  0  0  0
   57.8785   33.1697   45.3264 H   0  0  0  0  0  0  0  0  0  0  0  0
   61.1100   30.2120   47.0400 H   0  0  0  0  0  0  0  0  0  0  0  0
   61.9760   30.6074   49.5774 H   0  0  0  0  0  0  0  0  0  0  0  0
   63.9071   31.6160   50.7917 H   0  0  0  0  0  0  0  0  0  0  0  0
   64.6790   34.2139   47.4229 H   0  0  0  0  0  0  0  0  0  0  0  0
   62.7511   33.2084   46.1982 H   0  0  0  0  0  0  0  0  0  0  0  0
   54.1313   24.6518   46.2557 H   0  0  0  0  0  0  0  0  0  0  0  0
   54.2588   25.6254   44.7534 H   0  0  0  0  0  0  0  0  0  0  0  0
   57.0485   24.2431   46.8623 H   0  0  0  0  0  0  0  0  0  0  0  0
   58.7143   22.6020   45.9881 H   0  0  0  0  0  0  0  0  0  0  0  0
   58.4448   21.6425   43.7000 H   0  0  0  0  0  0  0  0  0  0  0  0
   56.5026   22.3150   42.2828 H   0  0  0  0  0  0  0  0  0  0  0  0
   54.8291   23.9550   43.1495 H   0  0  0  0  0  0  0  0  0  0  0  0
  1  2  2  0
  2  3  1  0
  3  4  1  0
  4  5  1  0
  5  6  2  0
  6  7  1  0
  7  8  2  0
  8  9  1  0
  9 10  1  0
 10 11  2  0
 10 12  1  0
 12 13  1  0
 13 14  2  0
 14 15  1  0
 15 16  2  0
 16 17  1  0
 16 18  1  0
 18 19  2  0
  9 20  2  0
  2 21  1  0
 21 22  1  0
 22 23  1  0
 23 24  2  0
 24 25  1  0
 25 26  2  0
 26 27  1  0
 27 28  2  0
 20  5  1  0
 28 23  1  0
 19 13  1  0
  3 29  1  0
  3 30  1  0
  7 31  1  0
  8 32  1  0
 12 33  1  0
 14 34  1  0
 15 35  1  0
 18 36  1  0
 19 37  1  0
 22 38  1  0
 22 39  1  0
 24 40  1  0
 25 41  1  0
 26 42  1  0
 27 43  1  0
 28 44  1  0
M  CHG  1  21  -1
M  END
>  <UniqueID>  (45) 
43

>  <SMILES>  (45) 
O=C(CSc1nccc(C(=O)Nc2ccc(F)cc2)n1)[N-]Cc1ccccc1

>  <Energy>  (45) 
44.263067766470925

>  <Genealogy>  (45) 
O=C(CSc1nccc(C(=O)Nc2ccc(F)cc2)n1)[N-]Cc1ccccc1 (protonated)
O=C(CSc1nccc(C(=O)Nc2ccc(F)cc2)n1)[N-]Cc1ccccc1 (3D coordinates assigned)
O=C(CSc1nccc(C(=O)Nc2ccc(F)cc2)n1)[N-]Cc1ccccc1 (optimized conformer: 44.263067766470925 kcal/mol)

>  <smiles>  (45) 
O=C(CSc1nccc(C(=O)Nc2ccc(F)cc2)n1)NCc1ccccc1

>  <score_type>  (45) 
oracle

>  <origin>  (45) 
adg

>  <m_score__min__energy>  (45) 
-9.7300000000000004

>  <m_primary>  (45) 
energy

$$$$
45:0
     RDKit          3D

 58 61  0  0  0  0  0  0  0  0999 V2000
   61.2310   28.2800   50.5100 C   0  0  0  0  0  0  0  0  0  0  0  0
   60.5180   28.3260   49.1960 C   0  0  0  0  0  0  0  0  0  0  0  0
   60.8320   29.3060   48.2500 C   0  0  0  0  0  0  0  0  0  0  0  0
   60.1550   29.2940   47.0280 C   0  0  0  0  0  0  0  0  0  0  0  0
   60.4460   30.3320   45.9910 C   0  0  0  0  0  0  0  0  0  0  0  0
   59.2160   28.3420   46.7880 N   0  0  0  0  0  0  0  0  0  0  0  0
   58.9210   27.3890   47.7120 C   0  0  0  0  0  0  0  0  0  0  0  0
   58.0210   26.4920   47.4260 N   0  0  0  0  0  0  0  0  0  0  0  0
   57.0390   26.4930   46.3740 C   0  0  0  0  0  0  0  0  0  0  0  0
   55.8330   26.3210   46.6920 O   0  0  0  0  0  0  0  0  0  0  0  0
   57.3930   26.7020   44.9210 C   0  0  0  0  0  0  0  0  0  0  0  0
   57.8230   28.0780   44.6700 N   0  0  0  0  0  0  0  0  0  0  0  0
   56.8890   29.1680   44.5940 C   0  0  0  0  0  0  0  0  0  0  0  0
   55.6770   28.9690   44.8840 O   0  0  0  0  0  0  0  0  0  0  0  0
   57.3260   30.5280   44.1970 C   0  0  0  0  0  0  0  0  0  0  0  0
   57.3770   30.9110   42.8430 C   0  0  0  0  0  0  0  0  0  0  0  0
   57.7930   32.1970   42.4860 C   0  0  0  0  0  0  0  0  0  0  0  0
   58.1530   33.1170   43.4710 C   0  0  0  0  0  0  0  0  0  0  0  0
   58.0880   32.7620   44.8230 C   0  0  0  0  0  0  0  0  0  0  0  0
   58.5570   33.9230   46.0660 S   0  0  0  0  0  0  0  0  0  0  0  0
   57.4160   34.1050   47.0280 O   0  0  0  0  0  0  0  0  0  0  0  0
   58.8460   35.2380   45.3960 O   0  0  0  0  0  0  0  0  0  0  0  0
   59.9710   33.3800   46.9330 N   0  0  0  0  0  0  0  0  0  0  0  0
   61.2810   33.8110   46.4220 C   0  0  0  0  0  0  0  0  0  0  0  0
   62.4320   33.0390   47.0670 C   0  0  0  0  0  0  0  0  0  0  0  0
   62.3290   33.1050   48.5870 C   0  0  0  0  0  0  0  0  0  0  0  0
   60.9970   32.5780   49.0440 C   0  0  0  0  0  0  0  0  0  0  0  0
   60.8870   31.9750   50.3070 C   0  0  0  0  0  0  0  0  0  0  0  0
   59.6590   31.4830   50.7460 C   0  0  0  0  0  0  0  0  0  0  0  0
   58.5330   31.5880   49.9310 C   0  0  0  0  0  0  0  0  0  0  0  0
   58.6250   32.2030   48.6800 C   0  0  0  0  0  0  0  0  0  0  0  0
   59.8540   32.7290   48.2260 C   0  0  0  0  0  0  0  0  0  0  0  0
   57.6780   31.4690   45.1820 C   0  0  0  0  0  0  0  0  0  0  0  0
   59.5820   27.3870   48.9020 N   0  0  0  0  0  0  0  0  0  0  0  0
   60.4966   28.3274   51.3275 H   0  0  0  0  0  0  0  0  0  0  0  0
   61.8026   27.3431   50.5844 H   0  0  0  0  0  0  0  0  0  0  0  0
   61.9182   29.1357   50.5844 H   0  0  0  0  0  0  0  0  0  0  0  0
   61.5949   30.0694   48.4629 H   0  0  0  0  0  0  0  0  0  0  0  0
   60.7114   31.2787   46.4842 H   0  0  0  0  0  0  0  0  0  0  0  0
   61.2851   29.9979   45.3631 H   0  0  0  0  0  0  0  0  0  0  0  0
   59.5555   30.4827   45.3631 H   0  0  0  0  0  0  0  0  0  0  0  0
   58.2092   26.0165   44.6491 H   0  0  0  0  0  0  0  0  0  0  0  0
   56.4977   26.5023   44.3139 H   0  0  0  0  0  0  0  0  0  0  0  0
   58.8490   28.2630   44.6140 H   0  0  0  0  0  0  0  0  0  0  0  0
   57.0876   30.1936   42.0610 H   0  0  0  0  0  0  0  0  0  0  0  0
   57.8366   32.4844   41.4251 H   0  0  0  0  0  0  0  0  0  0  0  0
   58.4889   34.1244   43.1840 H   0  0  0  0  0  0  0  0  0  0  0  0
   61.3091   33.6469   45.3347 H   0  0  0  0  0  0  0  0  0  0  0  0
   61.4071   34.8756   46.6682 H   0  0  0  0  0  0  0  0  0  0  0  0
   62.3885   31.9878   46.7459 H   0  0  0  0  0  0  0  0  0  0  0  0
   63.3849   33.4903   46.7535 H   0  0  0  0  0  0  0  0  0  0  0  0
   63.1312   32.4978   49.0316 H   0  0  0  0  0  0  0  0  0  0  0  0
   62.4276   34.1529   48.9068 H   0  0  0  0  0  0  0  0  0  0  0  0
   61.7735   31.8905   50.9527 H   0  0  0  0  0  0  0  0  0  0  0  0
   59.5783   31.0114   51.7365 H   0  0  0  0  0  0  0  0  0  0  0  0
   57.5686   31.1852   50.2741 H   0  0  0  0  0  0  0  0  0  0  0  0
   57.7315   32.2781   48.0428 H   0  0  0  0  0  0  0  0  0  0  0  0
   57.6313   31.1881   46.2445 H   0  0  0  0  0  0  0  0  0  0  0  0
  1  2  1  0
  2  3  1  0
  3  4  2  0
  4  5  1  0
  4  6  1  0
  6  7  1  0
  7  8  2  3
  8  9  1  0
  9 10  2  0
  9 11  1  0
 11 12  1  0
 12 13  1  0
 13 14  2  0
 13 15  1  0
 15 16  2  0
 16 17  1  0
 17 18  2  0
 18 19  1  0
 19 20  1  0
 20 21  2  0
 20 22  2  0
 20 23  1  0
 23 24  1  0
 24 25  1  0
 25 26  1  0
 26 27  1  0
 27 28  2  0
 28 29  1  0
 29 30  2  0
 30 31  1  0
 31 32  2  0
 19 33  2  0
  7 34  1  0
 34  2  2  0
 33 15  1  0
 32 23  1  0
 32 27  1  0
  1 35  1  0
  1 36  1  0
  1 37  1  0
  3 38  1  0
  5 39  1  0
  5 40  1  0
  5 41  1  0
 11 42  1  0
 11 43  1  0
 12 44  1  0
 16 45  1  0
 17 46  1  0
 18 47  1  0
 24 48  1  0
 24 49  1  0
 25 50  1  0
 25 51  1  0
 26 52  1  0
 26 53  1  0
 28 54  1  0
 29 55  1  0
 30 56  1  0
 31 57  1  0
 33 58  1  0
M  CHG  1   6  -1
M  END
>  <UniqueID>  (46) 
44

>  <SMILES>  (46) 
Cc1cc(C)[n-]c(=NC(=O)CNC(=O)c2cccc(S(=O)(=O)N3CCCc4ccccc43)c2)n1

>  <Energy>  (46) 
68.96232397603004

>  <Genealogy>  (46) 
Cc1cc(C)[n-]c(=NC(=O)CNC(=O)c2cccc(S(=O)(=O)N3CCCc4ccccc43)c2)n1 (protonated)
Cc1cc(C)[n-]c(=NC(=O)CNC(=O)c2cccc(S(=O)(=O)N3CCCc4ccccc43)c2)n1 (3D coordinates assigned)
Cc1cc(C)[n-]c(=NC(=O)CNC(=O)c2cccc(S(=O)(=O)N3CCCc4ccccc43)c2)n1 (nonaromatic ring conformer: 68.96232397603004 kcal/mol)

>  <smiles>  (46) 
Cc1cc(C)[nH]c(=NC(=O)CNC(=O)c2cccc(S(=O)(=O)N3CCCc4ccccc43)c2)n1

>  <score_type>  (46) 
oracle

>  <origin>  (46) 
adg

>  <m_score__min__energy>  (46) 
-12.33

>  <m_primary>  (46) 
energy

$$$$
46:0
     RDKit          3D

 65 67  0  0  0  0  0  0  0  0999 V2000
   57.6440   25.4650   44.7270 C   0  0  0  0  0  0  0  0  0  0  0  0
   58.7050   24.8850   45.6170 C   0  0  0  0  0  0  0  0  0  0  0  0
   59.6990   25.5820   46.0890 N   0  0  0  0  0  0  0  0  0  0  0  0
   59.6230   26.9320   46.5690 C   0  0  0  0  0  0  0  0  0  0  0  0
   58.7050   27.2960   47.5640 C   0  0  0  0  0  0  0  0  0  0  0  0
   58.6320   28.6210   48.0040 C   0  0  0  0  0  0  0  0  0  0  0  0
   59.4770   29.6010   47.4590 C   0  0  0  0  0  0  0  0  0  0  0  0
   59.3690   31.0240   47.9620 C   0  0  0  0  0  0  0  0  0  0  0  0
   60.2500   31.9490   47.2370 N   0  0  0  0  0  0  0  0  0  0  0  0
   59.9750   32.9900   46.3770 C   0  0  0  0  0  0  0  0  0  0  0  0
   58.6270   33.2850   45.7000 C   0  0  0  0  0  0  0  0  0  0  0  0
   58.6610   34.5800   44.8580 C   0  0  0  0  0  0  0  0  0  0  0  0
   57.5480   33.4130   46.7930 C   0  0  0  0  0  0  0  0  0  0  0  0
   58.2200   32.1010   44.7730 C   0  0  0  0  0  0  0  0  0  0  0  0
   56.9400   31.5130   45.1870 N   0  0  0  0  0  0  0  0  0  0  0  0
   56.5820   30.1090   44.2260 S   0  0  0  0  0  0  0  0  0  0  0  0
   57.9640   28.9840   44.2030 C   0  0  0  0  0  0  0  0  0  0  0  0
   56.2550   30.5270   42.8190 O   0  0  0  0  0  0  0  0  0  0  0  0
   55.3930   29.4050   44.8150 O   0  0  0  0  0  0  0  0  0  0  0  0
   61.0860   33.7450   46.0990 N   0  0  0  0  0  0  0  0  0  0  0  0
   62.0550   33.0870   46.7490 C   0  0  0  0  0  0  0  0  0  0  0  0
   63.1940   33.5310   47.3700 C   0  0  0  0  0  0  0  0  0  0  0  0
   63.3490   32.6310   48.4370 C   0  0  0  0  0  0  0  0  0  0  0  0
   64.3510   32.7780   49.5090 C   0  0  0  0  0  0  0  0  0  0  0  0
   65.3920   32.0670   49.4680 O   0  0  0  0  0  0  0  0  0  0  0  0
   64.1640   33.7070   50.5980 N   0  0  0  0  0  0  0  0  0  0  0  0
   65.2390   33.9120   51.5770 C   0  0  0  0  0  0  0  0  0  0  0  0
   62.9810   34.5810   50.6110 C   0  0  0  0  0  0  0  0  0  0  0  0
   61.7340   33.7870   50.9950 C   0  0  0  0  0  0  0  0  0  0  0  0
   62.3200   31.7400   48.4810 N   0  0  0  0  0  0  0  0  0  0  0  0
   61.5760   32.0500   47.4080 C   0  0  0  0  0  0  0  0  0  0  0  0
   60.3500   29.2410   46.4140 C   0  0  0  0  0  0  0  0  0  0  0  0
   60.4190   27.9160   45.9750 C   0  0  0  0  0  0  0  0  0  0  0  0
   56.8455   25.9015   45.3449 H   0  0  0  0  0  0  0  0  0  0  0  0
   58.0854   26.2473   44.0920 H   0  0  0  0  0  0  0  0  0  0  0  0
   57.2238   24.6711   44.0920 H   0  0  0  0  0  0  0  0  0  0  0  0
   58.6397   23.8197   45.8834 H   0  0  0  0  0  0  0  0  0  0  0  0
   58.0397   26.5363   48.0001 H   0  0  0  0  0  0  0  0  0  0  0  0
   57.9068   28.8980   48.7834 H   0  0  0  0  0  0  0  0  0  0  0  0
   58.3290   31.3617   47.8424 H   0  0  0  0  0  0  0  0  0  0  0  0
   59.6787   31.0281   49.0175 H   0  0  0  0  0  0  0  0  0  0  0  0
   58.6839   35.4523   45.5277 H   0  0  0  0  0  0  0  0  0  0  0  0
   59.5595   34.5813   44.2234 H   0  0  0  0  0  0  0  0  0  0  0  0
   57.7638   34.6284   44.2234 H   0  0  0  0  0  0  0  0  0  0  0  0
   58.0217   33.3568   47.7842 H   0  0  0  0  0  0  0  0  0  0  0  0
   57.0319   34.3787   46.6875 H   0  0  0  0  0  0  0  0  0  0  0  0
   56.8203   32.5949   46.6875 H   0  0  0  0  0  0  0  0  0  0  0  0
   58.1274   32.4699   43.7408 H   0  0  0  0  0  0  0  0  0  0  0  0
   58.9963   31.3246   44.8415 H   0  0  0  0  0  0  0  0  0  0  0  0
   57.0310   31.1800   46.1740 H   0  0  0  0  0  0  0  0  0  0  0  0
   58.2587   28.7441   45.2353 H   0  0  0  0  0  0  0  0  0  0  0  0
   57.6761   28.0602   43.6798 H   0  0  0  0  0  0  0  0  0  0  0  0
   58.8102   29.4533   43.6798 H   0  0  0  0  0  0  0  0  0  0  0  0
   63.8318   34.3851   47.0983 H   0  0  0  0  0  0  0  0  0  0  0  0
   64.8282   33.8337   52.5944 H   0  0  0  0  0  0  0  0  0  0  0  0
   66.0153   33.1457   51.4350 H   0  0  0  0  0  0  0  0  0  0  0  0
   65.6788   34.9102   51.4350 H   0  0  0  0  0  0  0  0  0  0  0  0
   63.1354   35.3885   51.3419 H   0  0  0  0  0  0  0  0  0  0  0  0
   62.8388   35.0025   49.6050 H   0  0  0  0  0  0  0  0  0  0  0  0
   61.6546   33.7364   52.0910 H   0  0  0  0  0  0  0  0  0  0  0  0
   60.8423   34.2840   50.5853 H   0  0  0  0  0  0  0  0  0  0  0  0
   61.8071   32.7688   50.5853 H   0  0  0  0  0  0  0  0  0  0  0  0
   62.0520   31.1180   49.2750 H   0  0  0  0  0  0  0  0  0  0  0  0
   60.9813   30.0074   45.9405 H   0  0  0  0  0  0  0  0  0  0  0  0
   61.1035   27.6457   45.1574 H   0  0  0  0  0  0  0  0  0  0  0  0
  1  2  1  0
  2  3  2  3
  3  4  1  0
  4  5  2  0
  5  6  1  0
  6  7  2  0
  7  8  1  0
  8  9  1  0
  9 10  1  0
 10 11  1  0
 11 12  1  0
 11 13  1  0
 11 14  1  0
 14 15  1  0
 15 16  1  0
 16 17  1  0
 16 18  2  0
 16 19  2  0
 10 20  2  0
 20 21  1  0
 21 22  1  0
 22 23  2  0
 23 24  1  0
 24 25  2  0
 24 26  1  0
 26 27  1  0
 26 28  1  0
 28 29  1  0
 23 30  1  0
 30 31  1  0
  7 32  1  0
 32 33  2  0
 33  4  1  0
 31  9  1  0
 31 21  2  0
  1 34  1  0
  1 35  1  0
  1 36  1  0
  2 37  1  0
  5 38  1  0
  6 39  1  0
  8 40  1  0
  8 41  1  0
 12 42  1  0
 12 43  1  0
 12 44  1  0
 13 45  1  0
 13 46  1  0
 13 47  1  0
 14 48  1  0
 14 49  1  0
 15 50  1  0
 17 51  1  0
 17 52  1  0
 17 53  1  0
 22 54  1  0
 27 55  1  0
 27 56  1  0
 27 57  1  0
 28 58  1  0
 28 59  1  0
 29 60  1  0
 29 61  1  0
 29 62  1  0
 30 63  1  0
 32 64  1  0
 33 65  1  0
M  END
>  <UniqueID>  (47) 
45

>  <SMILES>  (47) 
CC=Nc1ccc(Cn2c(C(C)(C)CNS(C)(=O)=O)nc3cc(C(=O)N(C)CC)[nH]c32)cc1

>  <Energy>  (47) 
151.62387159546728

>  <Genealogy>  (47) 
CC=Nc1ccc(Cn2c(C(C)(C)CNS(C)(=O)=O)nc3cc(C(=O)N(C)CC)[nH]c32)cc1 (3D coordinates assigned)
CC=Nc1ccc(Cn2c(C(C)(C)CNS(C)(=O)=O)nc3cc(C(=O)N(C)CC)[nH]c32)cc1 (optimized conformer: 151.62387159546728 kcal/mol)

>  <smiles>  (47) 
CC=Nc1ccc(Cn2c(C(C)(C)CNS(C)(=O)=O)nc3cc(C(=O)N(C)CC)[nH]c32)cc1

>  <score_type>  (47) 
oracle

>  <origin>  (47) 
adg

>  <m_score__min__energy>  (47) 
-8.8699999999999992

>  <m_primary>  (47) 
energy

$$$$
47:0
     RDKit          3D

 78 83  0  0  0  0  0  0  0  0999 V2000
   59.9850   36.3280   45.7120 C   0  0  0  0  0  0  0  0  0  0  0  0
   60.0380   34.9670   46.3400 C   0  0  0  0  0  0  0  0  0  0  0  0
   58.9260   34.4690   47.0290 C   0  0  0  0  0  0  0  0  0  0  0  0
   58.9790   33.2120   47.6420 C   0  0  0  0  0  0  0  0  0  0  0  0
   60.1320   32.4030   47.4890 C   0  0  0  0  0  0  0  0  0  0  0  0
   61.3160   32.9820   46.9700 C   0  0  0  0  0  0  0  0  0  0  0  0
   62.6500   32.3760   47.2050 C   0  0  0  0  0  0  0  0  0  0  0  0
   63.5930   32.6400   46.4080 O   0  0  0  0  0  0  0  0  0  0  0  0
   62.8830   31.4160   48.3480 C   0  0  0  0  0  0  0  0  0  0  0  0
   63.2580   32.1300   49.5900 N   0  0  0  0  0  0  0  0  0  0  0  0
   63.4760   33.5650   49.3420 C   0  0  0  0  0  0  0  0  0  0  0  0
   62.2500   34.3070   49.8300 C   0  0  0  0  0  0  0  0  0  0  0  0
   61.7320   33.4520   50.9580 C   0  0  0  0  0  0  0  0  0  0  0  0
   62.2030   32.0430   50.6240 C   0  0  0  0  0  0  0  0  0  0  0  0
   61.2400   34.2460   46.3570 C   0  0  0  0  0  0  0  0  0  0  0  0
   60.0440   31.0200   48.0260 C   0  0  0  0  0  0  0  0  0  0  0  0
   59.1660   30.7410   49.0450 C   0  0  0  0  0  0  0  0  0  0  0  0
   59.1220   29.3780   49.2050 C   0  0  0  0  0  0  0  0  0  0  0  0
   59.9460   28.8630   48.2200 C   0  0  0  0  0  0  0  0  0  0  0  0
   60.0950   27.4190   47.9680 C   0  0  0  0  0  0  0  0  0  0  0  0
   60.9810   26.7690   48.5800 O   0  0  0  0  0  0  0  0  0  0  0  0
   59.2620   26.7400   47.0200 N   0  0  0  0  0  0  0  0  0  0  0  0
   57.8760   26.3750   47.2780 C   0  0  0  0  0  0  0  0  0  0  0  0
   57.3390   25.5830   46.1210 C   0  0  0  0  0  0  0  0  0  0  0  0
   56.2910   24.6670   46.3180 C   0  0  0  0  0  0  0  0  0  0  0  0
   55.7910   23.9250   45.2430 C   0  0  0  0  0  0  0  0  0  0  0  0
   56.3330   24.0920   43.9650 C   0  0  0  0  0  0  0  0  0  0  0  0
   55.8480   23.3750   42.9210 F   0  0  0  0  0  0  0  0  0  0  0  0
   57.3790   24.9980   43.7610 C   0  0  0  0  0  0  0  0  0  0  0  0
   57.8850   25.7390   44.8340 C   0  0  0  0  0  0  0  0  0  0  0  0
   60.4760   29.8590   47.4590 N   0  0  0  0  0  0  0  0  0  0  0  0
   61.1510   29.6800   46.1620 C   0  0  0  0  0  0  0  0  0  0  0  0
   60.2050   29.1500   45.1230 C   0  0  0  0  0  0  0  0  0  0  0  0
   60.5710   28.2240   44.3520 O   0  0  0  0  0  0  0  0  0  0  0  0
   58.8800   29.6760   45.0060 N   0  0  0  0  0  0  0  0  0  0  0  0
   57.8310   29.1890   45.9040 C   0  0  0  0  0  0  0  0  0  0  0  0
   56.4610   29.3780   45.2440 C   0  0  0  0  0  0  0  0  0  0  0  0
   56.3010   30.7090   44.7920 O   0  0  0  0  0  0  0  0  0  0  0  0
   57.2240   30.9740   43.7510 C   0  0  0  0  0  0  0  0  0  0  0  0
   58.6610   30.9250   44.2740 C   0  0  0  0  0  0  0  0  0  0  0  0
   58.2210   31.7680   49.5910 C   0  0  0  0  0  0  0  0  0  0  0  0
   57.7870   32.7140   48.4480 C   0  0  0  0  0  0  0  0  0  0  0  0
   59.9551   37.0946   46.5003 H   0  0  0  0  0  0  0  0  0  0  0  0
   60.8780   36.4787   45.0876 H   0  0  0  0  0  0  0  0  0  0  0  0
   59.0830   36.4088   45.0876 H   0  0  0  0  0  0  0  0  0  0  0  0
   58.0058   35.0687   47.0890 H   0  0  0  0  0  0  0  0  0  0  0  0
   61.9603   30.8452   48.5288 H   0  0  0  0  0  0  0  0  0  0  0  0
   63.7108   30.7462   48.0722 H   0  0  0  0  0  0  0  0  0  0  0  0
   64.3654   33.9092   49.8902 H   0  0  0  0  0  0  0  0  0  0  0  0
   63.6379   33.7508   48.2700 H   0  0  0  0  0  0  0  0  0  0  0  0
   62.5184   35.3107   50.1914 H   0  0  0  0  0  0  0  0  0  0  0  0
   61.5034   34.4594   49.0367 H   0  0  0  0  0  0  0  0  0  0  0  0
   62.1511   33.7832   51.9196 H   0  0  0  0  0  0  0  0  0  0  0  0
   60.6381   33.5123   51.0570 H   0  0  0  0  0  0  0  0  0  0  0  0
   62.6083   31.5639   51.5275 H   0  0  0  0  0  0  0  0  0  0  0  0
   61.3596   31.4437   50.2505 H   0  0  0  0  0  0  0  0  0  0  0  0
   62.1362   34.6744   45.8845 H   0  0  0  0  0  0  0  0  0  0  0  0
   58.5517   28.8141   49.9579 H   0  0  0  0  0  0  0  0  0  0  0  0
   57.8219   25.7678   48.1936 H   0  0  0  0  0  0  0  0  0  0  0  0
   57.2758   27.2880   47.4051 H   0  0  0  0  0  0  0  0  0  0  0  0
   55.8623   24.5332   47.3221 H   0  0  0  0  0  0  0  0  0  0  0  0
   54.9709   23.2096   45.4031 H   0  0  0  0  0  0  0  0  0  0  0  0
   57.8044   25.1280   42.7550 H   0  0  0  0  0  0  0  0  0  0  0  0
   58.7121   26.4456   44.6710 H   0  0  0  0  0  0  0  0  0  0  0  0
   61.5449   30.6506   45.8261 H   0  0  0  0  0  0  0  0  0  0  0  0
   61.9662   28.9531   46.2923 H   0  0  0  0  0  0  0  0  0  0  0  0
   57.9933   28.1210   46.1113 H   0  0  0  0  0  0  0  0  0  0  0  0
   57.8641   29.7561   46.8460 H   0  0  0  0  0  0  0  0  0  0  0  0
   56.3758   28.6934   44.3872 H   0  0  0  0  0  0  0  0  0  0  0  0
   55.6788   29.1611   45.9864 H   0  0  0  0  0  0  0  0  0  0  0  0
   57.1021   30.2193   42.9601 H   0  0  0  0  0  0  0  0  0  0  0  0
   57.0275   31.9805   43.3531 H   0  0  0  0  0  0  0  0  0  0  0  0
   59.3601   30.9790   43.4265 H   0  0  0  0  0  0  0  0  0  0  0  0
   58.8309   31.7764   44.9494 H   0  0  0  0  0  0  0  0  0  0  0  0
   57.3360   31.2678   50.0113 H   0  0  0  0  0  0  0  0  0  0  0  0
   58.7196   32.3470   50.3823 H   0  0  0  0  0  0  0  0  0  0  0  0
   57.1050   32.1716   47.7767 H   0  0  0  0  0  0  0  0  0  0  0  0
   57.2896   33.5864   48.8968 H   0  0  0  0  0  0  0  0  0  0  0  0
  1  2  1  0
  2  3  2  0
  3  4  1  0
  4  5  2  0
  5  6  1  0
  6  7  1  0
  7  8  2  0
  7  9  1  0
  9 10  1  0
 10 11  1  0
 11 12  1  0
 12 13  1  0
 13 14  1  0
  6 15  2  0
  5 16  1  0
 16 17  2  0
 17 18  1  0
 18 19  2  0
 19 20  1  0
 20 21  2  0
 20 22  1  0
 22 23  1  0
 23 24  1  0
 24 25  2  0
 25 26  1  0
 26 27  2  0
 27 28  1  0
 27 29  1  0
 29 30  2  0
 19 31  1  0
 31 32  1  0
 32 33  1  0
 33 34  2  0
 33 35  1  0
 35 36  1  0
 36 37  1  0
 37 38  1  0
 38 39  1  0
 39 40  1  0
 17 41  1  0
 41 42  1  0
 15  2  1  0
 31 16  1  0
 40 35  1  0
 42  4  1  0
 14 10  1  0
 30 24  1  0
  1 43  1  0
  1 44  1  0
  1 45  1  0
  3 46  1  0
  9 47  1  0
  9 48  1  0
 11 49  1  0
 11 50  1  0
 12 51  1  0
 12 52  1  0
 13 53  1  0
 13 54  1  0
 14 55  1  0
 14 56  1  0
 15 57  1  0
 18 58  1  0
 23 59  1  0
 23 60  1  0
 25 61  1  0
 26 62  1  0
 29 63  1  0
 30 64  1  0
 32 65  1  0
 32 66  1  0
 36 67  1  0
 36 68  1  0
 37 69  1  0
 37 70  1  0
 39 71  1  0
 39 72  1  0
 40 73  1  0
 40 74  1  0
 41 75  1  0
 41 76  1  0
 42 77  1  0
 42 78  1  0
M  CHG  1  22  -1
M  END
>  <UniqueID>  (48) 
46

>  <SMILES>  (48) 
Cc1cc2c(c(C(=O)CN3CCCC3)c1)-c1c(cc(C(=O)[N-]Cc3ccc(F)cc3)n1CC(=O)N1CCOCC1)CC2

>  <Energy>  (48) 
139.89802042690934

>  <Genealogy>  (48) 
Cc1cc2c(c(C(=O)CN3CCCC3)c1)-c1c(cc(C(=O)[N-]Cc3ccc(F)cc3)n1CC(=O)N1CCOCC1)CC2 (protonated)
Cc1cc2c(c(C(=O)CN3CCCC3)c1)-c1c(cc(C(=O)[N-]Cc3ccc(F)cc3)n1CC(=O)N1CCOCC1)CC2 (3D coordinates assigned)
Cc1cc2c(c(C(=O)CN3CCCC3)c1)-c1c(cc(C(=O)[N-]Cc3ccc(F)cc3)n1CC(=O)N1CCOCC1)CC2 (nonaromatic ring conformer: 139.89802042690934 kcal/mol)

>  <smiles>  (48) 
Cc1cc2c(c(C(=O)CN3CCCC3)c1)-c1c(cc(C(=O)NCc3ccc(F)cc3)n1CC(=O)N1CCOCC1)CC2

>  <score_type>  (48) 
oracle

>  <origin>  (48) 
adg

>  <m_score__min__energy>  (48) 
-10.699999999999999

>  <m_primary>  (48) 
energy

$$$$
48:0
     RDKit          3D

 34 36  0  0  0  0  0  0  0  0999 V2000
   56.9620   19.2670   44.0880 H   0  0  0  0  0  0  0  0  0  0  0  0
   56.2760   20.0010   43.9570 O   0  0  0  0  0  0  0  0  0  0  0  0
   56.5610   21.3270   44.2740 C   0  0  0  0  0  0  0  0  0  0  0  0
   57.8780   21.8260   44.1570 C   0  0  0  0  0  0  0  0  0  0  0  0
   58.6847   21.1620   43.8128 H   0  0  0  0  0  0  0  0  0  0  0  0
   58.1650   23.1640   44.4770 C   0  0  0  0  0  0  0  0  0  0  0  0
   59.1892   23.5548   44.3862 H   0  0  0  0  0  0  0  0  0  0  0  0
   57.1260   23.9870   44.9120 C   0  0  0  0  0  0  0  0  0  0  0  0
   57.2720   25.2930   45.2500 N   0  0  0  0  0  0  0  0  0  0  0  0
   56.0870   25.8270   45.6330 C   0  0  0  0  0  0  0  0  0  0  0  0
   55.9180   27.0650   45.9970 N   0  0  0  0  0  0  0  0  0  0  0  0
   56.3710   28.2630   45.3390 C   0  0  0  0  0  0  0  0  0  0  0  0
   55.5080   29.0820   44.9300 O   0  0  0  0  0  0  0  0  0  0  0  0
   57.8210   28.5830   45.1180 C   0  0  0  0  0  0  0  0  0  0  0  0
   58.4432   27.8016   45.5787 H   0  0  0  0  0  0  0  0  0  0  0  0
   58.0261   28.6263   44.0382 H   0  0  0  0  0  0  0  0  0  0  0  0
   58.1330   29.8730   45.7240 N   0  0  0  0  0  0  0  0  0  0  0  0
   57.6660   31.1380   45.2390 C   0  0  0  0  0  0  0  0  0  0  0  0
   56.6450   31.1650   44.5010 O   0  0  0  0  0  0  0  0  0  0  0  0
   58.3280   32.4080   45.5900 C   0  0  0  0  0  0  0  0  0  0  0  0
   58.4430   33.4420   44.6460 C   0  0  0  0  0  0  0  0  0  0  0  0
   58.0516   33.3005   43.6278 H   0  0  0  0  0  0  0  0  0  0  0  0
   59.0530   34.6500   44.9960 C   0  0  0  0  0  0  0  0  0  0  0  0
   59.1505   35.4523   44.2498 H   0  0  0  0  0  0  0  0  0  0  0  0
   59.5390   34.8400   46.2920 C   0  0  0  0  0  0  0  0  0  0  0  0
   60.0243   35.7891   46.5633 H   0  0  0  0  0  0  0  0  0  0  0  0
   59.4090   33.8250   47.2440 C   0  0  0  0  0  0  0  0  0  0  0  0
   60.0070   34.0690   48.8750 Cl  0  0  0  0  0  0  0  0  0  0  0  0
   58.7980   32.6140   46.8970 C   0  0  0  0  0  0  0  0  0  0  0  0
   58.6857   31.8210   47.6511 H   0  0  0  0  0  0  0  0  0  0  0  0
   54.8170   24.7110   45.5590 S   0  0  0  0  0  0  0  0  0  0  0  0
   55.8370   23.4900   45.0230 C   0  0  0  0  0  0  0  0  0  0  0  0
   55.5240   22.1690   44.7110 C   0  0  0  0  0  0  0  0  0  0  0  0
   54.4937   21.7952   44.8041 H   0  0  0  0  0  0  0  0  0  0  0  0
  1  2  1  0
  2  3  1  0
  3  4  2  0
  4  5  1  0
  4  6  1  0
  6  7  1  0
  6  8  2  0
  8  9  1  0
  9 10  1  0
 10 11  2  0
 11 12  1  0
 12 13  2  0
 12 14  1  0
 14 15  1  0
 14 16  1  0
 14 17  1  0
 17 18  1  0
 18 19  2  0
 18 20  1  0
 20 21  2  0
 21 22  1  0
 21 23  1  0
 23 24  1  0
 23 25  2  0
 25 26  1  0
 25 27  1  0
 27 28  1  0
 27 29  2  0
 29 30  1  0
 10 31  1  0
 31 32  1  0
 32 33  2  0
 33 34  1  0
 33  3  1  0
 32  8  1  0
 29 20  1  0
M  CHG  2   9  -1  17  -1
M  END
>  <UniqueID>  (49) 
47

>  <SMILES>  (49) 
O=C(C[N-]C(=O)c1cccc(Cl)c1)/N=c1\[n-]c2ccc(O)cc2s1

>  <Energy>  (49) 
76.59578157826458

>  <Genealogy>  (49) 
O=C(C[N-]C(=O)c1cccc(Cl)c1)N=c1[n-]c2ccc(O)cc2s1 (protonated)
O=C(C[N-]C(=O)c1cccc(Cl)c1)/N=c1\[n-]c2ccc(O)cc2s1 (cis-trans isomerization)
O=C(C[N-]C(=O)c1cccc(Cl)c1)/N=c1\[n-]c2ccc(O)cc2s1 (3D coordinates assigned)
O=C(C[N-]C(=O)c1cccc(Cl)c1)/N=c1\[n-]c2ccc(O)cc2s1 (optimized conformer: 76.59578157826458 kcal/mol)

>  <smiles>  (49) 
O=C(CNC(=O)c1cccc(Cl)c1)N=c1[nH]c2ccc(O)cc2s1

>  <score_type>  (49) 
oracle

>  <origin>  (49) 
adg

>  <m_score__min__energy>  (49) 
-11.970000000000001

>  <m_primary>  (49) 
energy

$$$$
49:0
     RDKit          3D

 45 48  0  0  0  0  0  0  0  0999 V2000
   60.2827   30.8922   44.8566 H   0  0  0  0  0  0  0  0  0  0  0  0
   59.6260   30.0250   45.0200 C   0  0  0  0  0  0  0  0  0  0  0  0
   59.2684   29.4365   44.1622 H   0  0  0  0  0  0  0  0  0  0  0  0
   59.2610   29.6850   46.2660 C   0  0  0  0  0  0  0  0  0  0  0  0
   58.4350   28.6160   46.6480 C   0  0  0  0  0  0  0  0  0  0  0  0
   57.6470   27.8040   45.9160 C   0  0  0  0  0  0  0  0  0  0  0  0
   57.3057   28.1792   44.9399 H   0  0  0  0  0  0  0  0  0  0  0  0
   57.2050   26.4590   46.3120 C   0  0  0  0  0  0  0  0  0  0  0  0
   58.0240   25.5320   46.8390 N   0  0  0  0  0  0  0  0  0  0  0  0
   57.1860   24.5230   47.1620 C   0  0  0  0  0  0  0  0  0  0  0  0
   57.5880   23.4460   47.6770 O   0  0  0  0  0  0  0  0  0  0  0  0
   55.8830   24.7610   46.9010 N   0  0  0  0  0  0  0  0  0  0  0  0
   55.9090   25.9970   46.3770 C   0  0  0  0  0  0  0  0  0  0  0  0
   54.7710   26.6980   45.9950 O   0  0  0  0  0  0  0  0  0  0  0  0
   58.5470   28.5140   48.0250 C   0  0  0  0  0  0  0  0  0  0  0  0
   58.0772   27.7537   48.6663 H   0  0  0  0  0  0  0  0  0  0  0  0
   59.3610   29.5490   48.4380 C   0  0  0  0  0  0  0  0  0  0  0  0
   59.7400   29.8270   49.8610 C   0  0  0  0  0  0  0  0  0  0  0  0
   59.0387   29.3126   50.5344 H   0  0  0  0  0  0  0  0  0  0  0  0
   60.7610   29.4620   50.0465 H   0  0  0  0  0  0  0  0  0  0  0  0
   59.6985   30.9104   50.0465 H   0  0  0  0  0  0  0  0  0  0  0  0
   59.7890   30.2610   47.3750 N   0  0  0  0  0  0  0  0  0  0  0  0
   60.6690   31.3990   47.4290 C   0  0  0  0  0  0  0  0  0  0  0  0
   62.0550   31.2000   47.3680 C   0  0  0  0  0  0  0  0  0  0  0  0
   62.4584   30.1801   47.2843 H   0  0  0  0  0  0  0  0  0  0  0  0
   62.9260   32.2900   47.4130 C   0  0  0  0  0  0  0  0  0  0  0  0
   64.0125   32.1277   47.3569 H   0  0  0  0  0  0  0  0  0  0  0  0
   62.4200   33.5850   47.5290 C   0  0  0  0  0  0  0  0  0  0  0  0
   63.1087   34.4419   47.5670 H   0  0  0  0  0  0  0  0  0  0  0  0
   61.0400   33.7960   47.5970 C   0  0  0  0  0  0  0  0  0  0  0  0
   60.6482   34.8187   47.6997 H   0  0  0  0  0  0  0  0  0  0  0  0
   60.1490   32.7100   47.5350 C   0  0  0  0  0  0  0  0  0  0  0  0
   58.6860   32.9270   47.6560 C   0  0  0  0  0  0  0  0  0  0  0  0
   58.1330   32.5990   48.7420 O   0  0  0  0  0  0  0  0  0  0  0  0
   57.8540   33.4760   46.6000 N   0  0  0  0  0  0  0  0  0  0  0  0
   56.9090   33.7590   46.9550 H   0  0  0  0  0  0  0  0  0  0  0  0
   57.7500   32.7170   45.3440 C   0  0  0  0  0  0  0  0  0  0  0  0
   58.3227   31.7779   45.3502 H   0  0  0  0  0  0  0  0  0  0  0  0
   56.7655   32.3420   45.0276 H   0  0  0  0  0  0  0  0  0  0  0  0
   58.4100   33.8240   44.5390 C   0  0  0  0  0  0  0  0  0  0  0  0
   59.3769   33.5587   44.0865 H   0  0  0  0  0  0  0  0  0  0  0  0
   57.9516   34.2610   43.6396 H   0  0  0  0  0  0  0  0  0  0  0  0
   58.5000   34.5690   45.8630 C   0  0  0  0  0  0  0  0  0  0  0  0
   59.5329   34.7656   46.1863 H   0  0  0  0  0  0  0  0  0  0  0  0
   58.0778   35.5822   45.9341 H   0  0  0  0  0  0  0  0  0  0  0  0
  1  2  1  0
  2  3  1  0
  2  4  2  0
  4  5  1  0
  5  6  2  0
  6  7  1  0
  6  8  1  0
  8  9  1  0
  9 10  1  0
 10 11  2  0
 10 12  1  0
 12 13  1  0
 13 14  1  0
  5 15  1  0
 15 16  1  0
 15 17  2  0
 17 18  1  0
 18 19  1  0
 18 20  1  0
 18 21  1  0
 17 22  1  0
 22 23  1  0
 23 24  2  0
 24 25  1  0
 24 26  1  0
 26 27  1  0
 26 28  2  0
 28 29  1  0
 28 30  1  0
 30 31  1  0
 30 32  2  0
 32 33  1  0
 33 34  2  0
 33 35  1  0
 35 36  1  0
 35 37  1  0
 37 38  1  0
 37 39  1  0
 37 40  1  0
 40 41  1  0
 40 42  1  0
 40 43  1  0
 43 44  1  0
 43 45  1  0
 22  4  1  0
 32 23  1  0
 43 35  1  0
 13  8  2  0
M  CHG  4   9  -1  12  -1  14  -1  35   1
M  END
>  <UniqueID>  (50) 
48

>  <SMILES>  (50) 
C=c1/c(=C\c2[n-]c(=O)[n-]c2[O-])cc(C)n1-c1ccccc1C(=O)[NH+]1CCC1

>  <Energy>  (50) 
204.91619067521057

>  <Genealogy>  (50) 
C=c1c(=Cc2[n-]c(=O)[n-]c2[O-])cc(C)n1-c1ccccc1C(=O)[NH+]1CCC1 (protonated)
C=c1/c(=C\c2[n-]c(=O)[n-]c2[O-])cc(C)n1-c1ccccc1C(=O)[NH+]1CCC1 (cis-trans isomerization)
C=c1/c(=C\c2[n-]c(=O)[n-]c2[O-])cc(C)n1-c1ccccc1C(=O)[NH+]1CCC1 (3D coordinates assigned)
C=c1/c(=C\c2[n-]c(=O)[n-]c2[O-])cc(C)n1-c1ccccc1C(=O)[NH+]1CCC1 (nonaromatic ring conformer: 204.91619067521057 kcal/mol)

>  <smiles>  (50) 
C=c1c(=Cc2[nH]c(=O)[nH]c2O)cc(C)n1-c1ccccc1C(=O)N1CCC1

>  <score_type>  (50) 
oracle

>  <origin>  (50) 
adg

>  <m_score__min__energy>  (50) 
-14.52

>  <m_primary>  (50) 
energy

$$$$
50:0
     RDKit          3D

 55 58  0  0  0  0  0  0  0  0999 V2000
   54.3555   29.0897   55.6082 H   0  0  0  0  0  0  0  0  0  0  0  0
   53.7650   29.4330   54.7460 C   0  0  0  0  0  0  0  0  0  0  0  0
   52.6662   29.3949   54.7816 H   0  0  0  0  0  0  0  0  0  0  0  0
   54.3860   29.8990   53.6490 C   0  0  0  0  0  0  0  0  0  0  0  0
   53.7640   30.3670   52.4830 C   0  0  0  0  0  0  0  0  0  0  0  0
   52.4350   30.4720   52.2600 C   0  0  0  0  0  0  0  0  0  0  0  0
   51.7669   30.2558   53.1067 H   0  0  0  0  0  0  0  0  0  0  0  0
   51.7970   30.8520   50.9780 C   0  0  0  0  0  0  0  0  0  0  0  0
   51.7150   30.0870   49.8750 N   0  0  0  0  0  0  0  0  0  0  0  0
   51.0200   30.8530   49.0080 C   0  0  0  0  0  0  0  0  0  0  0  0
   50.7410   30.4740   47.8400 O   0  0  0  0  0  0  0  0  0  0  0  0
   50.6500   32.0580   49.4880 N   0  0  0  0  0  0  0  0  0  0  0  0
   51.1460   32.0390   50.7360 C   0  0  0  0  0  0  0  0  0  0  0  0
   51.0050   33.0880   51.6360 O   0  0  0  0  0  0  0  0  0  0  0  0
   54.7930   30.6940   51.6070 C   0  0  0  0  0  0  0  0  0  0  0  0
   54.6829   31.0988   50.5901 H   0  0  0  0  0  0  0  0  0  0  0  0
   55.9800   30.4140   52.2560 C   0  0  0  0  0  0  0  0  0  0  0  0
   57.3130   30.5510   51.6320 C   0  0  0  0  0  0  0  0  0  0  0  0
   58.1580   29.6220   51.7490 O   0  0  0  0  0  0  0  0  0  0  0  0
   57.6380   31.7230   50.8690 N   0  0  0  0  0  0  0  0  0  0  0  0
   56.9760   32.5320   50.8850 H   0  0  0  0  0  0  0  0  0  0  0  0
   58.9030   31.8460   50.1390 C   0  0  0  0  0  0  0  0  0  0  0  0
   58.8059   32.6618   49.4076 H   0  0  0  0  0  0  0  0  0  0  0  0
   59.2140   30.5560   49.3760 C   0  0  0  0  0  0  0  0  0  0  0  0
   59.3829   29.7396   50.0936 H   0  0  0  0  0  0  0  0  0  0  0  0
   58.3642   30.3076   48.7232 H   0  0  0  0  0  0  0  0  0  0  0  0
   60.4720   30.7470   48.5170 C   0  0  0  0  0  0  0  0  0  0  0  0
   60.8370   29.7563   48.2083 H   0  0  0  0  0  0  0  0  0  0  0  0
   60.1864   31.3715   47.6577 H   0  0  0  0  0  0  0  0  0  0  0  0
   61.5680   31.4520   49.2250 N   0  0  0  0  0  0  0  0  0  0  0  0
   62.1790   32.5880   48.4990 C   0  0  0  0  0  0  0  0  0  0  0  0
   62.6891   33.2334   49.2292 H   0  0  0  0  0  0  0  0  0  0  0  0
   62.8735   32.1623   47.7598 H   0  0  0  0  0  0  0  0  0  0  0  0
   61.1790   33.4270   47.7360 C   0  0  0  0  0  0  0  0  0  0  0  0
   61.1900   33.4550   46.3300 C   0  0  0  0  0  0  0  0  0  0  0  0
   61.9432   32.8748   45.7768 H   0  0  0  0  0  0  0  0  0  0  0  0
   60.2480   34.2170   45.6320 C   0  0  0  0  0  0  0  0  0  0  0  0
   60.2530   34.2232   44.5320 H   0  0  0  0  0  0  0  0  0  0  0  0
   59.3010   34.9700   46.3290 C   0  0  0  0  0  0  0  0  0  0  0  0
   58.5553   35.5622   45.7783 H   0  0  0  0  0  0  0  0  0  0  0  0
   59.3010   34.9710   47.7250 C   0  0  0  0  0  0  0  0  0  0  0  0
   58.5610   35.5728   48.2730 H   0  0  0  0  0  0  0  0  0  0  0  0
   60.2380   34.2100   48.4280 C   0  0  0  0  0  0  0  0  0  0  0  0
   60.2398   34.2233   49.5279 H   0  0  0  0  0  0  0  0  0  0  0  0
   61.4210   31.6190   50.6870 C   0  0  0  0  0  0  0  0  0  0  0  0
   61.5492   30.6361   51.1639 H   0  0  0  0  0  0  0  0  0  0  0  0
   62.1852   32.3425   51.0073 H   0  0  0  0  0  0  0  0  0  0  0  0
   60.0490   32.1920   51.1100 C   0  0  0  0  0  0  0  0  0  0  0  0
   59.7962   31.7895   52.1020 H   0  0  0  0  0  0  0  0  0  0  0  0
   60.1468   33.2876   51.1120 H   0  0  0  0  0  0  0  0  0  0  0  0
   55.7360   29.9540   53.5080 N   0  0  0  0  0  0  0  0  0  0  0  0
   56.7420   29.5780   54.5080 C   0  0  0  0  0  0  0  0  0  0  0  0
   56.3314   29.7315   55.5169 H   0  0  0  0  0  0  0  0  0  0  0  0
   57.0099   28.5190   54.3784 H   0  0  0  0  0  0  0  0  0  0  0  0
   57.6388   30.2016   54.3784 H   0  0  0  0  0  0  0  0  0  0  0  0
  1  2  1  0
  2  3  1  0
  2  4  2  0
  4  5  1  0
  5  6  2  0
  6  7  1  0
  6  8  1  0
  8  9  1  0
  9 10  1  0
 10 11  2  0
 10 12  1  0
 12 13  1  0
 13 14  1  0
  5 15  1  0
 15 16  1  0
 15 17  2  0
 17 18  1  0
 18 19  2  0
 18 20  1  0
 20 21  1  0
 20 22  1  0
 22 23  1  0
 22 24  1  0
 24 25  1  0
 24 26  1  0
 24 27  1  0
 27 28  1  0
 27 29  1  0
 27 30  1  0
 30 31  1  0
 31 32  1  0
 31 33  1  0
 31 34  1  0
 34 35  2  0
 35 36  1  0
 35 37  1  0
 37 38  1  0
 37 39  2  0
 39 40  1  0
 39 41  1  0
 41 42  1  0
 41 43  2  0
 43 44  1  0
 30 45  1  0
 45 46  1  0
 45 47  1  0
 45 48  1  0
 48 49  1  0
 48 50  1  0
 17 51  1  0
 51 52  1  0
 52 53  1  0
 52 54  1  0
 52 55  1  0
 51  4  1  0
 13  8  2  0
 48 22  1  0
 43 34  1  0
M  CHG  3   9  -1  12  -1  14  -1
M  END
>  <UniqueID>  (51) 
49

>  <SMILES>  (51) 
C=c1/c(=C/c2[n-]c(=O)[n-]c2[O-])cc(C(=O)NC2CCN(Cc3ccccc3)CC2)n1C

>  <Energy>  (51) 
133.99002185544478

>  <Genealogy>  (51) 
C=c1c(=Cc2[n-]c(=O)[n-]c2[O-])cc(C(=O)NC2CCN(Cc3ccccc3)CC2)n1C (protonated)
C=c1/c(=C/c2[n-]c(=O)[n-]c2[O-])cc(C(=O)NC2CCN(Cc3ccccc3)CC2)n1C (cis-trans isomerization)
C=c1/c(=C/c2[n-]c(=O)[n-]c2[O-])cc(C(=O)NC2CCN(Cc3ccccc3)CC2)n1C (3D coordinates assigned)
C=c1/c(=C/c2[n-]c(=O)[n-]c2[O-])cc(C(=O)NC2CCN(Cc3ccccc3)CC2)n1C (nonaromatic ring conformer: 133.99002185544478 kcal/mol)

>  <smiles>  (51) 
C=c1c(=Cc2[nH]c(=O)[nH]c2O)cc(C(=O)NC2CCN(Cc3ccccc3)CC2)n1C

>  <score_type>  (51) 
oracle

>  <origin>  (51) 
adg

>  <m_score__min__energy>  (51) 
-18.899999999999999

>  <m_primary>  (51) 
energy

$$$$
51:0
     RDKit          3D

 43 46  0  0  0  0  0  0  0  0999 V2000
   59.6950   29.0660   49.1170 C   0  0  0  0  0  0  0  0  0  0  0  0
   60.3990   30.6430   48.6840 S   0  0  0  0  0  0  0  0  0  0  0  0
   61.4700   30.4630   47.6440 O   0  0  0  0  0  0  0  0  0  0  0  0
   61.0170   31.2560   49.9090 O   0  0  0  0  0  0  0  0  0  0  0  0
   59.1600   31.7010   48.0870 N   0  0  0  0  0  0  0  0  0  0  0  0
   58.5260   31.5330   46.8070 C   0  0  0  0  0  0  0  0  0  0  0  0
   58.3780   30.2480   46.2410 C   0  0  0  0  0  0  0  0  0  0  0  0
   57.7480   30.1140   45.0030 C   0  0  0  0  0  0  0  0  0  0  0  0
   57.2720   31.2050   44.3270 C   0  0  0  0  0  0  0  0  0  0  0  0
   57.3990   32.4900   44.8530 C   0  0  0  0  0  0  0  0  0  0  0  0
   58.0270   32.6600   46.0990 C   0  0  0  0  0  0  0  0  0  0  0  0
   58.2240   34.3290   46.7330 S   0  0  0  0  0  0  0  0  0  0  0  0
   59.9820   34.1040   46.9670 C   0  0  0  0  0  0  0  0  0  0  0  0
   60.8800   34.0700   45.9680 N   0  0  0  0  0  0  0  0  0  0  0  0
   62.0560   33.8670   46.5390 N   0  0  0  0  0  0  0  0  0  0  0  0
   61.8290   33.7810   47.8660 C   0  0  0  0  0  0  0  0  0  0  0  0
   62.8690   33.5430   48.8900 C   0  0  0  0  0  0  0  0  0  0  0  0
   62.8590   34.3020   50.0730 C   0  0  0  0  0  0  0  0  0  0  0  0
   63.8250   34.0890   51.0610 C   0  0  0  0  0  0  0  0  0  0  0  0
   64.8110   33.1190   50.8770 C   0  0  0  0  0  0  0  0  0  0  0  0
   64.8330   32.3590   49.7060 C   0  0  0  0  0  0  0  0  0  0  0  0
   63.8680   32.5650   48.7120 C   0  0  0  0  0  0  0  0  0  0  0  0
   63.9190   31.8090   47.5860 F   0  0  0  0  0  0  0  0  0  0  0  0
   60.5530   33.9300   48.1330 O   0  0  0  0  0  0  0  0  0  0  0  0
   56.6460   30.8350   43.0380 C   0  0  0  0  0  0  0  0  0  0  0  0
   56.7710   29.2990   42.9890 C   0  0  0  0  0  0  0  0  0  0  0  0
   57.5080   28.8530   44.2660 C   0  0  0  0  0  0  0  0  0  0  0  0
   59.6528   28.9715   50.2121 H   0  0  0  0  0  0  0  0  0  0  0  0
   58.6785   28.9922   48.7032 H   0  0  0  0  0  0  0  0  0  0  0  0
   60.3187   28.2600   48.7032 H   0  0  0  0  0  0  0  0  0  0  0  0
   58.9560   32.5470   48.6600 H   0  0  0  0  0  0  0  0  0  0  0  0
   58.7556   29.3610   46.7708 H   0  0  0  0  0  0  0  0  0  0  0  0
   57.0129   33.3592   44.3003 H   0  0  0  0  0  0  0  0  0  0  0  0
   62.0852   35.0694   50.2226 H   0  0  0  0  0  0  0  0  0  0  0  0
   63.8077   34.6867   51.9843 H   0  0  0  0  0  0  0  0  0  0  0  0
   65.5711   32.9531   51.6546 H   0  0  0  0  0  0  0  0  0  0  0  0
   65.6116   31.5951   49.5635 H   0  0  0  0  0  0  0  0  0  0  0  0
   55.5900   31.1422   43.0139 H   0  0  0  0  0  0  0  0  0  0  0  0
   57.1255   31.3261   42.1784 H   0  0  0  0  0  0  0  0  0  0  0  0
   55.7711   28.8418   42.9535 H   0  0  0  0  0  0  0  0  0  0  0  0
   57.3247   28.9840   42.0923 H   0  0  0  0  0  0  0  0  0  0  0  0
   56.8838   28.1674   44.8579 H   0  0  0  0  0  0  0  0  0  0  0  0
   58.4381   28.3076   44.0481 H   0  0  0  0  0  0  0  0  0  0  0  0
  1  2  1  0
  2  3  2  0
  2  4  2  0
  2  5  1  0
  5  6  1  0
  6  7  2  0
  7  8  1  0
  8  9  2  0
  9 10  1  0
 10 11  2  0
 11 12  1  0
 12 13  1  0
 13 14  2  0
 14 15  1  0
 15 16  2  0
 16 17  1  0
 17 18  2  0
 18 19  1  0
 19 20  2  0
 20 21  1  0
 21 22  2  0
 22 23  1  0
 16 24  1  0
  9 25  1  0
 25 26  1  0
 26 27  1  0
 11  6  1  0
 24 13  1  0
 27  8  1  0
 22 17  1  0
  1 28  1  0
  1 29  1  0
  1 30  1  0
  5 31  1  0
  7 32  1  0
 10 33  1  0
 18 34  1  0
 19 35  1  0
 20 36  1  0
 21 37  1  0
 25 38  1  0
 25 39  1  0
 26 40  1  0
 26 41  1  0
 27 42  1  0
 27 43  1  0
M  END
>  <UniqueID>  (52) 
50

>  <SMILES>  (52) 
CS(=O)(=O)Nc1cc2c(cc1Sc1nnc(-c3ccccc3F)o1)CCC2

>  <Energy>  (52) 
84.50056067546846

>  <Genealogy>  (52) 
CS(=O)(=O)Nc1cc2c(cc1Sc1nnc(-c3ccccc3F)o1)CCC2 (3D coordinates assigned)
CS(=O)(=O)Nc1cc2c(cc1Sc1nnc(-c3ccccc3F)o1)CCC2 (nonaromatic ring conformer: 84.50056067546846 kcal/mol)

>  <smiles>  (52) 
CS(=O)(=O)Nc1cc2c(cc1Sc1nnc(-c3ccccc3F)o1)CCC2

>  <score_type>  (52) 
oracle

>  <origin>  (52) 
adg

>  <m_score__min__energy>  (52) 
-9.75

>  <m_primary>  (52) 
energy

$$$$
52:0
     RDKit          3D

 56 59  0  0  0  0  0  0  0  0999 V2000
   57.1880   31.5080   55.1960 O   0  0  0  0  0  0  0  0  0  0  0  0
   56.8550   31.0380   54.0730 C   0  0  0  0  0  0  0  0  0  0  0  0
   55.7910   30.0050   53.9850 C   0  0  0  0  0  0  0  0  0  0  0  0
   54.4950   30.1960   54.2790 C   0  0  0  0  0  0  0  0  0  0  0  0
   53.4710   30.7100   53.3470 C   0  0  0  0  0  0  0  0  0  0  0  0
   52.2140   31.1410   53.8110 C   0  0  0  0  0  0  0  0  0  0  0  0
   51.2770   31.6640   52.9170 C   0  0  0  0  0  0  0  0  0  0  0  0
   51.5900   31.7810   51.5600 C   0  0  0  0  0  0  0  0  0  0  0  0
   50.6520   32.2920   50.6720 O   0  0  0  0  0  0  0  0  0  0  0  0
   52.8500   31.3870   51.0980 C   0  0  0  0  0  0  0  0  0  0  0  0
   53.7910   30.8630   51.9900 C   0  0  0  0  0  0  0  0  0  0  0  0
   57.5540   31.5350   52.8610 C   0  0  0  0  0  0  0  0  0  0  0  0
   57.3270   30.9050   51.6250 C   0  0  0  0  0  0  0  0  0  0  0  0
   57.9760   31.3490   50.4700 C   0  0  0  0  0  0  0  0  0  0  0  0
   58.8570   32.4380   50.5270 C   0  0  0  0  0  0  0  0  0  0  0  0
   59.5580   32.9070   49.2800 C   0  0  0  0  0  0  0  0  0  0  0  0
   60.3930   31.8770   48.7570 O   0  0  0  0  0  0  0  0  0  0  0  0
   61.1440   31.0100   49.5600 C   0  0  0  0  0  0  0  0  0  0  0  0
   61.9650   31.4660   50.4030 O   0  0  0  0  0  0  0  0  0  0  0  0
   60.9750   29.5580   49.4170 C   0  0  0  0  0  0  0  0  0  0  0  0
   60.7030   28.8650   48.2530 C   0  0  0  0  0  0  0  0  0  0  0  0
   60.6310   27.5320   48.6210 C   0  0  0  0  0  0  0  0  0  0  0  0
   60.3760   26.4170   47.6890 C   0  0  0  0  0  0  0  0  0  0  0  0
   59.9890   26.5500   46.4120 C   0  0  0  0  0  0  0  0  0  0  0  0
   58.7680   27.2480   45.9620 C   0  0  0  0  0  0  0  0  0  0  0  0
   58.8620   28.5650   45.4940 C   0  0  0  0  0  0  0  0  0  0  0  0
   57.7130   29.2550   45.0960 C   0  0  0  0  0  0  0  0  0  0  0  0
   56.4560   28.6470   45.1830 C   0  0  0  0  0  0  0  0  0  0  0  0
   55.3270   29.3580   44.7750 O   0  0  0  0  0  0  0  0  0  0  0  0
   56.3510   27.3390   45.6850 C   0  0  0  0  0  0  0  0  0  0  0  0
   55.1090   26.7260   45.7980 O   0  0  0  0  0  0  0  0  0  0  0  0
   57.5010   26.6520   46.0860 C   0  0  0  0  0  0  0  0  0  0  0  0
   60.8540   27.4070   49.9120 O   0  0  0  0  0  0  0  0  0  0  0  0
   61.0560   28.6030   50.4100 C   0  0  0  0  0  0  0  0  0  0  0  0
   61.3170   28.8450   51.7530 O   0  0  0  0  0  0  0  0  0  0  0  0
   59.0780   33.0790   51.7550 C   0  0  0  0  0  0  0  0  0  0  0  0
   58.4300   32.6360   52.9130 C   0  0  0  0  0  0  0  0  0  0  0  0
   56.0898   29.0003   53.6513 H   0  0  0  0  0  0  0  0  0  0  0  0
   54.1683   29.9489   55.2999 H   0  0  0  0  0  0  0  0  0  0  0  0
   51.9689   31.0657   54.8807 H   0  0  0  0  0  0  0  0  0  0  0  0
   50.2901   31.9847   53.2820 H   0  0  0  0  0  0  0  0  0  0  0  0
   53.1010   31.4894   50.0319 H   0  0  0  0  0  0  0  0  0  0  0  0
   54.7866   30.5695   51.6258 H   0  0  0  0  0  0  0  0  0  0  0  0
   56.6319   30.0545   51.5665 H   0  0  0  0  0  0  0  0  0  0  0  0
   57.7947   30.8415   49.5111 H   0  0  0  0  0  0  0  0  0  0  0  0
   58.8070   33.1821   48.5248 H   0  0  0  0  0  0  0  0  0  0  0  0
   60.1824   33.7774   49.5300 H   0  0  0  0  0  0  0  0  0  0  0  0
   60.5712   29.2845   47.2447 H   0  0  0  0  0  0  0  0  0  0  0  0
   60.5144   25.3952   48.0722 H   0  0  0  0  0  0  0  0  0  0  0  0
   60.6318   26.1040   45.6387 H   0  0  0  0  0  0  0  0  0  0  0  0
   59.8437   29.0582   45.4394 H   0  0  0  0  0  0  0  0  0  0  0  0
   57.7979   30.2823   44.7121 H   0  0  0  0  0  0  0  0  0  0  0  0
   54.4180   28.9190   44.6890 H   0  0  0  0  0  0  0  0  0  0  0  0
   57.4135   25.6373   46.5017 H   0  0  0  0  0  0  0  0  0  0  0  0
   59.7656   33.9360   51.8078 H   0  0  0  0  0  0  0  0  0  0  0  0
   58.6058   33.1506   53.8692 H   0  0  0  0  0  0  0  0  0  0  0  0
  1  2  2  0
  2  3  1  0
  3  4  2  3
  4  5  1  0
  5  6  2  0
  6  7  1  0
  7  8  2  0
  8  9  1  0
  8 10  1  0
 10 11  2  0
  2 12  1  0
 12 13  2  0
 13 14  1  0
 14 15  2  0
 15 16  1  0
 16 17  1  0
 17 18  1  0
 18 19  2  0
 18 20  1  0
 20 21  1  0
 21 22  2  0
 22 23  1  0
 23 24  2  3
 24 25  1  0
 25 26  2  0
 26 27  1  0
 27 28  2  0
 28 29  1  0
 28 30  1  0
 30 31  1  0
 30 32  2  0
 22 33  1  0
 33 34  1  0
 34 35  1  0
 15 36  1  0
 36 37  2  0
 11  5  1  0
 37 12  1  0
 34 20  2  0
 32 25  1  0
  3 38  1  0
  4 39  1  0
  6 40  1  0
  7 41  1  0
 10 42  1  0
 11 43  1  0
 13 44  1  0
 14 45  1  0
 16 46  1  0
 16 47  1  0
 21 48  1  0
 23 49  1  0
 24 50  1  0
 26 51  1  0
 27 52  1  0
 29 53  1  0
 32 54  1  0
 36 55  1  0
 37 56  1  0
M  CHG  3   9  -1  31  -1  35  -1
M  END
>  <UniqueID>  (53) 
51

>  <SMILES>  (53) 
O=C(C=Cc1ccc([O-])cc1)c1ccc(COC(=O)c2cc(C=Cc3ccc(O)c([O-])c3)oc2[O-])cc1

>  <Energy>  (53) 
104.63065075613521

>  <Genealogy>  (53) 
O=C(C=Cc1ccc([O-])cc1)c1ccc(COC(=O)c2cc(C=Cc3ccc(O)c([O-])c3)oc2[O-])cc1 (protonated)
O=C(C=Cc1ccc([O-])cc1)c1ccc(COC(=O)c2cc(C=Cc3ccc(O)c([O-])c3)oc2[O-])cc1 (3D coordinates assigned)
O=C(C=Cc1ccc([O-])cc1)c1ccc(COC(=O)c2cc(C=Cc3ccc(O)c([O-])c3)oc2[O-])cc1 (optimized conformer: 104.63065075613521 kcal/mol)

>  <smiles>  (53) 
O=C(C=Cc1ccc(O)cc1)c1ccc(COC(=O)c2cc(C=Cc3ccc(O)c(O)c3)oc2O)cc1

>  <score_type>  (53) 
oracle

>  <origin>  (53) 
adg

>  <m_score__min__energy>  (53) 
-17.609999999999999

>  <m_primary>  (53) 
energy

$$$$
53:0
     RDKit          3D

 64 67  0  0  0  0  0  0  0  0999 V2000
   54.0180   26.3330   46.3850 H   0  0  0  0  0  0  0  0  0  0  0  0
   54.9470   26.4270   45.9950 O   0  0  0  0  0  0  0  0  0  0  0  0
   55.9270   25.4800   46.2750 C   0  0  0  0  0  0  0  0  0  0  0  0
   55.7610   24.4610   47.1340 N   0  0  0  0  0  0  0  0  0  0  0  0
   56.9490   23.8250   47.0710 C   0  0  0  0  0  0  0  0  0  0  0  0
   57.2010   22.7860   47.7370 O   0  0  0  0  0  0  0  0  0  0  0  0
   57.8440   24.3860   46.2330 N   0  0  0  0  0  0  0  0  0  0  0  0
   57.1900   25.4490   45.7340 C   0  0  0  0  0  0  0  0  0  0  0  0
   57.7170   26.3980   44.7290 C   0  0  0  0  0  0  0  0  0  0  0  0
   57.6372   26.1068   43.6713 H   0  0  0  0  0  0  0  0  0  0  0  0
   58.2880   27.5920   45.0000 C   0  0  0  0  0  0  0  0  0  0  0  0
   59.6200   27.8350   45.3240 C   0  0  0  0  0  0  0  0  0  0  0  0
   60.4244   27.0881   45.3957 H   0  0  0  0  0  0  0  0  0  0  0  0
   59.7370   29.1940   45.5380 C   0  0  0  0  0  0  0  0  0  0  0  0
   60.9910   29.8890   45.9690 C   0  0  0  0  0  0  0  0  0  0  0  0
   61.0370   29.9145   47.0677 H   0  0  0  0  0  0  0  0  0  0  0  0
   61.8641   29.3460   45.5780 H   0  0  0  0  0  0  0  0  0  0  0  0
   60.9933   30.9171   45.5780 H   0  0  0  0  0  0  0  0  0  0  0  0
   58.5450   29.7990   45.3680 N   0  0  0  0  0  0  0  0  0  0  0  0
   58.2840   31.2000   45.5420 C   0  0  0  0  0  0  0  0  0  0  0  0
   57.8230   31.9450   44.4480 C   0  0  0  0  0  0  0  0  0  0  0  0
   57.6047   31.4417   43.4946 H   0  0  0  0  0  0  0  0  0  0  0  0
   57.6400   33.3250   44.5650 C   0  0  0  0  0  0  0  0  0  0  0  0
   57.2806   33.9055   43.7025 H   0  0  0  0  0  0  0  0  0  0  0  0
   57.9120   33.9700   45.7740 C   0  0  0  0  0  0  0  0  0  0  0  0
   57.7794   35.0587   45.8590 H   0  0  0  0  0  0  0  0  0  0  0  0
   58.3510   33.2340   46.8710 C   0  0  0  0  0  0  0  0  0  0  0  0
   58.5484   33.7448   47.8250 H   0  0  0  0  0  0  0  0  0  0  0  0
   58.5450   31.8440   46.7730 C   0  0  0  0  0  0  0  0  0  0  0  0
   58.9750   31.0850   47.9690 C   0  0  0  0  0  0  0  0  0  0  0  0
   58.2770   30.1120   48.3680 O   0  0  0  0  0  0  0  0  0  0  0  0
   60.1280   31.4850   48.7320 N   0  0  0  0  0  0  0  0  0  0  0  0
   60.9920   30.4530   49.3140 C   0  0  0  0  0  0  0  0  0  0  0  0
   60.9438   30.5106   50.4114 H   0  0  0  0  0  0  0  0  0  0  0  0
   60.6515   29.4606   48.9836 H   0  0  0  0  0  0  0  0  0  0  0  0
   62.0288   30.6137   48.9836 H   0  0  0  0  0  0  0  0  0  0  0  0
   60.5610   32.8880   48.7430 C   0  0  0  0  0  0  0  0  0  0  0  0
   59.6787   33.5416   48.8086 H   0  0  0  0  0  0  0  0  0  0  0  0
   61.2151   33.0585   49.6108 H   0  0  0  0  0  0  0  0  0  0  0  0
   61.3340   33.2050   47.4580 C   0  0  0  0  0  0  0  0  0  0  0  0
   61.2129   32.3750   46.7464 H   0  0  0  0  0  0  0  0  0  0  0  0
   60.9394   34.1338   47.0202 H   0  0  0  0  0  0  0  0  0  0  0  0
   62.7590   33.3830   47.7580 N   0  0  0  0  0  0  0  0  0  0  0  0
   63.1740   33.6730   49.1050 C   0  0  0  0  0  0  0  0  0  0  0  0
   62.6890   34.6740   49.6960 O   0  0  0  0  0  0  0  0  0  0  0  0
   64.1450   32.8090   49.8130 C   0  0  0  0  0  0  0  0  0  0  0  0
   63.7100   31.6920   50.5530 C   0  0  0  0  0  0  0  0  0  0  0  0
   62.6358   31.4656   50.6220 H   0  0  0  0  0  0  0  0  0  0  0  0
   64.6370   30.8700   51.2000 C   0  0  0  0  0  0  0  0  0  0  0  0
   64.2909   30.0011   51.7790 H   0  0  0  0  0  0  0  0  0  0  0  0
   66.0040   31.1510   51.1120 C   0  0  0  0  0  0  0  0  0  0  0  0
   66.7322   30.5037   51.6225 H   0  0  0  0  0  0  0  0  0  0  0  0
   66.4460   32.2550   50.3750 C   0  0  0  0  0  0  0  0  0  0  0  0
   67.5214   32.4762   50.3079 H   0  0  0  0  0  0  0  0  0  0  0  0
   65.5220   33.0770   49.7240 C   0  0  0  0  0  0  0  0  0  0  0  0
   65.8745   33.9389   49.1384 H   0  0  0  0  0  0  0  0  0  0  0  0
   63.7710   33.1070   46.7400 C   0  0  0  0  0  0  0  0  0  0  0  0
   64.7217   32.8477   47.2289 H   0  0  0  0  0  0  0  0  0  0  0  0
   63.4401   32.2663   46.1125 H   0  0  0  0  0  0  0  0  0  0  0  0
   63.9128   33.9993   46.1125 H   0  0  0  0  0  0  0  0  0  0  0  0
   57.6470   28.8370   45.0460 C   0  0  0  0  0  0  0  0  0  0  0  0
   56.3440   29.0780   44.8310 C   0  0  0  0  0  0  0  0  0  0  0  0
   55.9567   30.1055   44.8959 H   0  0  0  0  0  0  0  0  0  0  0  0
   55.6636   28.2480   44.5899 H   0  0  0  0  0  0  0  0  0  0  0  0
  1  2  1  0
  2  3  1  0
  3  4  1  0
  4  5  1  0
  5  6  2  0
  5  7  1  0
  7  8  1  0
  8  9  1  0
  9 10  1  0
  9 11  2  0
 11 12  1  0
 12 13  1  0
 12 14  2  0
 14 15  1  0
 15 16  1  0
 15 17  1  0
 15 18  1  0
 14 19  1  0
 19 20  1  0
 20 21  2  0
 21 22  1  0
 21 23  1  0
 23 24  1  0
 23 25  2  0
 25 26  1  0
 25 27  1  0
 27 28  1  0
 27 29  2  0
 29 30  1  0
 30 31  2  0
 30 32  1  0
 32 33  1  0
 33 34  1  0
 33 35  1  0
 33 36  1  0
 32 37  1  0
 37 38  1  0
 37 39  1  0
 37 40  1  0
 40 41  1  0
 40 42  1  0
 40 43  1  0
 43 44  1  0
 44 45  2  0
 44 46  1  0
 46 47  2  0
 47 48  1  0
 47 49  1  0
 49 50  1  0
 49 51  2  0
 51 52  1  0
 51 53  1  0
 53 54  1  0
 53 55  2  0
 55 56  1  0
 43 57  1  0
 57 58  1  0
 57 59  1  0
 57 60  1  0
 19 61  1  0
 61 62  2  0
 62 63  1  0
 62 64  1  0
  8  3  2  0
 61 11  1  0
 29 20  1  0
 55 46  1  0
M  CHG  2   4  -1   7  -1
M  END
>  <UniqueID>  (54) 
52

>  <SMILES>  (54) 
C=c1/c(=C/c2[n-]c(=O)[n-]c2O)cc(C)n1-c1ccccc1C(=O)N(C)CCN(C)C(=O)c1ccccc1

>  <Energy>  (54) 
139.90547569101827

>  <Genealogy>  (54) 
C=c1c(=Cc2[n-]c(=O)[n-]c2O)cc(C)n1-c1ccccc1C(=O)N(C)CCN(C)C(=O)c1ccccc1 (protonated)
C=c1/c(=C/c2[n-]c(=O)[n-]c2O)cc(C)n1-c1ccccc1C(=O)N(C)CCN(C)C(=O)c1ccccc1 (cis-trans isomerization)
C=c1/c(=C/c2[n-]c(=O)[n-]c2O)cc(C)n1-c1ccccc1C(=O)N(C)CCN(C)C(=O)c1ccccc1 (3D coordinates assigned)
C=c1/c(=C/c2[n-]c(=O)[n-]c2O)cc(C)n1-c1ccccc1C(=O)N(C)CCN(C)C(=O)c1ccccc1 (optimized conformer: 139.90547569101827 kcal/mol)

>  <smiles>  (54) 
C=c1c(=Cc2[nH]c(=O)[nH]c2O)cc(C)n1-c1ccccc1C(=O)N(C)CCN(C)C(=O)c1ccccc1

>  <score_type>  (54) 
oracle

>  <origin>  (54) 
adg

>  <m_score__min__energy>  (54) 
-14.25

>  <m_primary>  (54) 
energy

$$$$
54:0
     RDKit          3D

 54 57  0  0  0  0  0  0  0  0999 V2000
   59.9650   33.0640   49.4540 C   0  0  0  0  0  0  0  0  0  0  0  0
   59.5260   33.4140   48.0130 C   0  0  0  0  0  0  0  0  0  0  0  0
   59.2170   34.9250   47.9650 C   0  0  0  0  0  0  0  0  0  0  0  0
   60.7070   33.1210   47.0310 C   0  0  0  0  0  0  0  0  0  0  0  0
   60.9420   31.6350   46.8600 C   0  0  0  0  0  0  0  0  0  0  0  0
   62.0860   31.2150   46.7670 O   0  0  0  0  0  0  0  0  0  0  0  0
   59.7650   30.6790   46.8820 C   0  0  1  0  0  0  0  0  0  0  0  0
   58.5160   31.5040   46.6530 C   0  0  0  0  0  0  0  0  0  0  0  0
   57.9010   31.5180   45.5080 N   0  0  0  0  0  0  0  0  0  0  0  0
   58.2810   30.6790   44.4200 C   0  0  0  0  0  0  0  0  0  0  0  0
   57.6740   30.7630   43.3210 O   0  0  0  0  0  0  0  0  0  0  0  0
   59.3610   29.7620   44.5770 N   0  0  0  0  0  0  0  0  0  0  0  0
   59.9150   29.4730   45.8990 C   0  0  2  0  0  0  0  0  0  0  0  0
   59.2700   28.2200   46.4680 C   0  0  0  0  0  0  0  0  0  0  0  0
   59.8740   27.5070   47.5190 C   0  0  0  0  0  0  0  0  0  0  0  0
   59.2810   26.3460   48.0180 C   0  0  0  0  0  0  0  0  0  0  0  0
   58.0890   25.8730   47.4690 C   0  0  0  0  0  0  0  0  0  0  0  0
   57.4790   26.5550   46.4030 C   0  0  0  0  0  0  0  0  0  0  0  0
   56.2090   26.0600   45.8210 C   0  0  0  0  0  0  0  0  0  0  0  0
   55.1450   26.7120   46.0050 O   0  0  0  0  0  0  0  0  0  0  0  0
   56.1640   24.8370   45.0630 N   0  0  0  0  0  0  0  0  0  0  0  0
   54.9800   23.9740   45.1590 C   0  0  0  0  0  0  0  0  0  0  0  0
   55.3790   22.5000   45.0450 C   0  0  0  0  0  0  0  0  0  0  0  0
   56.3150   22.3040   43.8870 C   0  0  0  0  0  0  0  0  0  0  0  0
   56.1680   21.3630   43.1230 O   0  0  0  0  0  0  0  0  0  0  0  0
   57.4890   23.2290   43.7360 C   0  0  0  0  0  0  0  0  0  0  0  0
   57.0340   24.6840   43.8860 C   0  0  0  0  0  0  0  0  0  0  0  0
   58.0730   27.7320   45.9130 C   0  0  0  0  0  0  0  0  0  0  0  0
   58.2300   32.6030   47.6390 C   0  0  0  0  0  0  0  0  0  0  0  0
   59.3135   33.5834   50.1722 H   0  0  0  0  0  0  0  0  0  0  0  0
   59.8870   31.9775   49.6074 H   0  0  0  0  0  0  0  0  0  0  0  0
   61.0068   33.3821   49.6074 H   0  0  0  0  0  0  0  0  0  0  0  0
   59.1371   35.3157   48.9902 H   0  0  0  0  0  0  0  0  0  0  0  0
   60.0267   35.4482   47.4353 H   0  0  0  0  0  0  0  0  0  0  0  0
   58.2669   35.0883   47.4353 H   0  0  0  0  0  0  0  0  0  0  0  0
   60.4712   33.5592   46.0500 H   0  0  0  0  0  0  0  0  0  0  0  0
   61.6205   33.5648   47.4535 H   0  0  0  0  0  0  0  0  0  0  0  0
   59.7067   30.1815   47.8613 H   0  0  0  0  0  0  0  0  0  0  0  0
   59.6420   29.1630   43.7680 H   0  0  0  0  0  0  0  0  0  0  0  0
   60.9946   29.2992   45.7799 H   0  0  0  0  0  0  0  0  0  0  0  0
   60.8198   27.8665   47.9506 H   0  0  0  0  0  0  0  0  0  0  0  0
   59.7557   25.8017   48.8477 H   0  0  0  0  0  0  0  0  0  0  0  0
   57.6243   24.9614   47.8728 H   0  0  0  0  0  0  0  0  0  0  0  0
   54.4877   24.1417   46.1283 H   0  0  0  0  0  0  0  0  0  0  0  0
   54.2927   24.2208   44.3364 H   0  0  0  0  0  0  0  0  0  0  0  0
   55.8787   22.1860   45.9733 H   0  0  0  0  0  0  0  0  0  0  0  0
   54.4749   21.8950   44.8820 H   0  0  0  0  0  0  0  0  0  0  0  0
   58.2354   22.9993   44.5107 H   0  0  0  0  0  0  0  0  0  0  0  0
   57.9311   23.0905   42.7383 H   0  0  0  0  0  0  0  0  0  0  0  0
   57.9176   25.3286   44.0036 H   0  0  0  0  0  0  0  0  0  0  0  0
   56.4686   24.9727   42.9877 H   0  0  0  0  0  0  0  0  0  0  0  0
   57.5957   28.2776   45.0856 H   0  0  0  0  0  0  0  0  0  0  0  0
   57.4948   33.2925   47.1984 H   0  0  0  0  0  0  0  0  0  0  0  0
   57.8421   32.1408   48.5587 H   0  0  0  0  0  0  0  0  0  0  0  0
  1  2  1  0
  2  3  1  0
  2  4  1  0
  4  5  1  0
  5  6  2  0
  5  7  1  0
  7  8  1  0
  8  9  2  0
  9 10  1  0
 10 11  2  0
 10 12  1  0
 12 13  1  0
 13 14  1  0
 14 15  2  0
 15 16  1  0
 16 17  2  0
 17 18  1  0
 18 19  1  0
 19 20  2  0
 19 21  1  0
 21 22  1  0
 22 23  1  0
 23 24  1  0
 24 25  2  0
 24 26  1  0
 26 27  1  0
 18 28  2  0
  8 29  1  0
 29  2  1  0
 13  7  1  0
 28 14  1  0
 27 21  1  0
  1 30  1  0
  1 31  1  0
  1 32  1  0
  3 33  1  0
  3 34  1  0
  3 35  1  0
  4 36  1  0
  4 37  1  0
  7 38  1  1
 12 39  1  0
 13 40  1  6
 15 41  1  0
 16 42  1  0
 17 43  1  0
 22 44  1  0
 22 45  1  0
 23 46  1  0
 23 47  1  0
 26 48  1  0
 26 49  1  0
 27 50  1  0
 27 51  1  0
 28 52  1  0
 29 53  1  0
 29 54  1  0
M  END
>  <UniqueID>  (55) 
53

>  <SMILES>  (55) 
CC1(C)CC(=O)[C@H]2C(=NC(=O)N[C@@H]2c2cccc(C(=O)N3CCC(=O)CC3)c2)C1

>  <Energy>  (55) 
68.20975316624785

>  <Genealogy>  (55) 
CC1(C)CC(=O)[C@H]2C(=NC(=O)N[C@@H]2c2cccc(C(=O)N3CCC(=O)CC3)c2)C1 (chirality)
CC1(C)CC(=O)[C@H]2C(=NC(=O)N[C@@H]2c2cccc(C(=O)N3CCC(=O)CC3)c2)C1 (3D coordinates assigned)
CC1(C)CC(=O)[C@H]2C(=NC(=O)N[C@@H]2c2cccc(C(=O)N3CCC(=O)CC3)c2)C1 (nonaromatic ring conformer: 68.20975316624785 kcal/mol)

>  <smiles>  (55) 
CC1(C)CC(=O)C2C(=NC(=O)NC2c2cccc(C(=O)N3CCC(=O)CC3)c2)C1

>  <score_type>  (55) 
oracle

>  <origin>  (55) 
adg

>  <m_score__min__energy>  (55) 
-9.7699999999999996

>  <m_primary>  (55) 
energy

$$$$
55:0
     RDKit          3D

 45 48  0  0  0  0  0  0  0  0999 V2000
   59.3220   34.9190   44.9680 C   0  0  0  0  0  0  0  0  0  0  0  0
   57.7890   34.0220   45.0800 S   0  0  0  0  0  0  0  0  0  0  0  0
   57.5020   33.6490   46.5070 O   0  0  0  0  0  0  0  0  0  0  0  0
   56.6790   34.9010   44.5770 O   0  0  0  0  0  0  0  0  0  0  0  0
   57.8580   32.5950   44.0960 N   0  0  0  0  0  0  0  0  0  0  0  0
   57.3360   31.3070   44.4460 C   0  0  0  0  0  0  0  0  0  0  0  0
   56.2540   30.7240   43.7660 C   0  0  0  0  0  0  0  0  0  0  0  0
   55.7750   29.4700   44.1490 C   0  0  0  0  0  0  0  0  0  0  0  0
   56.3700   28.7790   45.2080 C   0  0  0  0  0  0  0  0  0  0  0  0
   55.8430   27.5510   45.5940 O   0  0  0  0  0  0  0  0  0  0  0  0
   57.4710   29.3380   45.8850 C   0  0  0  0  0  0  0  0  0  0  0  0
   58.1340   28.6260   47.0030 C   0  0  0  0  0  0  0  0  0  0  0  0
   58.1370   29.1540   48.1480 O   0  0  0  0  0  0  0  0  0  0  0  0
   58.7830   27.3540   46.8050 N   0  0  0  0  0  0  0  0  0  0  0  0
   59.2680   26.9630   45.4860 C   0  0  0  0  0  0  0  0  0  0  0  0
   58.2870   25.9710   44.8650 C   0  0  0  0  0  0  0  0  0  0  0  0
   57.8370   24.8930   45.8420 C   0  0  0  0  0  0  0  0  0  0  0  0
   58.0180   25.0630   47.2390 C   0  0  0  0  0  0  0  0  0  0  0  0
   57.6090   24.0330   48.1040 C   0  0  0  0  0  0  0  0  0  0  0  0
   57.7950   24.1310   49.3460 O   0  0  0  0  0  0  0  0  0  0  0  0
   57.0200   22.9440   47.6290 O   0  0  0  0  0  0  0  0  0  0  0  0
   56.7800   22.7580   46.3380 C   0  0  0  0  0  0  0  0  0  0  0  0
   56.1330   21.5870   45.9280 C   0  0  0  0  0  0  0  0  0  0  0  0
   55.8510   21.3740   44.5780 C   0  0  0  0  0  0  0  0  0  0  0  0
   56.2080   22.3340   43.6300 C   0  0  0  0  0  0  0  0  0  0  0  0
   55.9130   22.1220   42.2880 O   0  0  0  0  0  0  0  0  0  0  0  0
   56.8590   23.5070   44.0240 C   0  0  0  0  0  0  0  0  0  0  0  0
   57.1670   23.7310   45.3850 C   0  0  0  0  0  0  0  0  0  0  0  0
   58.6950   26.2920   47.8100 C   0  0  0  0  0  0  0  0  0  0  0  0
   57.9340   30.6100   45.5040 C   0  0  0  0  0  0  0  0  0  0  0  0
   59.6942   35.1368   45.9800 H   0  0  0  0  0  0  0  0  0  0  0  0
   60.0633   34.3121   44.4274 H   0  0  0  0  0  0  0  0  0  0  0  0
   59.1561   35.8625   44.4274 H   0  0  0  0  0  0  0  0  0  0  0  0
   55.7821   31.2579   42.9280 H   0  0  0  0  0  0  0  0  0  0  0  0
   54.9241   29.0231   43.6140 H   0  0  0  0  0  0  0  0  0  0  0  0
   59.3473   27.8529   44.8443 H   0  0  0  0  0  0  0  0  0  0  0  0
   60.2585   26.4940   45.5801 H   0  0  0  0  0  0  0  0  0  0  0  0
   57.4009   26.5234   44.5191 H   0  0  0  0  0  0  0  0  0  0  0  0
   58.8058   25.4689   44.0351 H   0  0  0  0  0  0  0  0  0  0  0  0
   55.8453   20.8308   46.6733 H   0  0  0  0  0  0  0  0  0  0  0  0
   55.3471   20.4490   44.2609 H   0  0  0  0  0  0  0  0  0  0  0  0
   57.1330   24.2599   43.2703 H   0  0  0  0  0  0  0  0  0  0  0  0
   58.1138   26.6568   48.6697 H   0  0  0  0  0  0  0  0  0  0  0  0
   59.7135   26.0189   48.1233 H   0  0  0  0  0  0  0  0  0  0  0  0
   58.7777   31.0642   46.0443 H   0  0  0  0  0  0  0  0  0  0  0  0
  1  2  1  0
  2  3  2  0
  2  4  2  0
  2  5  1  0
  5  6  1  0
  6  7  2  0
  7  8  1  0
  8  9  2  0
  9 10  1  0
  9 11  1  0
 11 12  1  0
 12 13  2  0
 12 14  1  0
 14 15  1  0
 15 16  1  0
 16 17  1  0
 17 18  2  0
 18 19  1  0
 19 20  2  0
 19 21  1  0
 21 22  1  0
 22 23  2  0
 23 24  1  0
 24 25  2  0
 25 26  1  0
 25 27  1  0
 27 28  2  0
 18 29  1  0
 11 30  2  0
 30  6  1  0
 29 14  1  0
 28 17  1  0
 28 22  1  0
  1 31  1  0
  1 32  1  0
  1 33  1  0
  7 34  1  0
  8 35  1  0
 15 36  1  0
 15 37  1  0
 16 38  1  0
 16 39  1  0
 23 40  1  0
 24 41  1  0
 27 42  1  0
 29 43  1  0
 29 44  1  0
 30 45  1  0
M  CHG  3   5  -1  10  -1  26  -1
M  END
>  <UniqueID>  (56) 
54

>  <SMILES>  (56) 
CS(=O)(=O)[N-]c1ccc([O-])c(C(=O)N2CCc3c(c(=O)oc4ccc([O-])cc34)C2)c1

>  <Energy>  (56) 
64.58855793046381

>  <Genealogy>  (56) 
CS(=O)(=O)[N-]c1ccc([O-])c(C(=O)N2CCc3c(c(=O)oc4ccc([O-])cc34)C2)c1 (protonated)
CS(=O)(=O)[N-]c1ccc([O-])c(C(=O)N2CCc3c(c(=O)oc4ccc([O-])cc34)C2)c1 (3D coordinates assigned)
CS(=O)(=O)[N-]c1ccc([O-])c(C(=O)N2CCc3c(c(=O)oc4ccc([O-])cc34)C2)c1 (nonaromatic ring conformer: 64.58855793046381 kcal/mol)

>  <smiles>  (56) 
CS(=O)(=O)Nc1ccc(O)c(C(=O)N2CCc3c(c(=O)oc4ccc(O)cc34)C2)c1

>  <score_type>  (56) 
oracle

>  <origin>  (56) 
adg

>  <m_score__min__energy>  (56) 
-14.640000000000001

>  <m_primary>  (56) 
energy

$$$$
56:0
     RDKit          3D

 52 55  0  0  0  0  0  0  0  0999 V2000
   56.2860   31.9690   45.6220 H   0  0  0  0  0  0  0  0  0  0  0  0
   56.7000   32.8890   45.7130 O   0  0  0  0  0  0  0  0  0  0  0  0
   58.0400   33.0530   46.0500 C   0  0  0  0  0  0  0  0  0  0  0  0
   58.7000   34.2380   45.7050 C   0  0  0  0  0  0  0  0  0  0  0  0
   58.1583   35.0321   45.1702 H   0  0  0  0  0  0  0  0  0  0  0  0
   60.0480   34.4150   46.0390 C   0  0  0  0  0  0  0  0  0  0  0  0
   60.5670   35.3413   45.7516 H   0  0  0  0  0  0  0  0  0  0  0  0
   60.7360   33.4190   46.7360 C   0  0  0  0  0  0  0  0  0  0  0  0
   61.7858   33.5780   47.0234 H   0  0  0  0  0  0  0  0  0  0  0  0
   60.0920   32.2110   47.0730 C   0  0  0  0  0  0  0  0  0  0  0  0
   60.7750   31.1320   47.8770 C   0  0  0  0  0  0  0  0  0  0  0  0
   61.7460   31.5147   48.2243 H   0  0  0  0  0  0  0  0  0  0  0  0
   60.8906   30.2558   47.2221 H   0  0  0  0  0  0  0  0  0  0  0  0
   59.9870   30.7050   49.0550 N   0  0  0  0  0  0  0  0  0  0  0  0
   59.8860   29.3720   49.3900 C   0  0  0  0  0  0  0  0  0  0  0  0
   60.5520   28.3170   48.6110 C   0  0  0  0  0  0  0  0  0  0  0  0
   61.3782   27.7512   49.0663 H   0  0  0  0  0  0  0  0  0  0  0  0
   60.1740   28.0320   47.3620 C   0  0  0  0  0  0  0  0  0  0  0  0
   60.9029   28.1850   46.5525 H   0  0  0  0  0  0  0  0  0  0  0  0
   58.8280   27.5210   47.0030 C   0  0  0  0  0  0  0  0  0  0  0  0
   58.3660   26.2560   47.4210 C   0  0  0  0  0  0  0  0  0  0  0  0
   59.0239   25.5972   48.0069 H   0  0  0  0  0  0  0  0  0  0  0  0
   57.0770   25.8390   47.0930 C   0  0  0  0  0  0  0  0  0  0  0  0
   56.7094   24.8645   47.4469 H   0  0  0  0  0  0  0  0  0  0  0  0
   56.2480   26.6570   46.3140 C   0  0  0  0  0  0  0  0  0  0  0  0
   54.9660   26.2180   45.9940 O   0  0  0  0  0  0  0  0  0  0  0  0
   56.6990   27.9020   45.8630 C   0  0  0  0  0  0  0  0  0  0  0  0
   55.8240   28.6990   45.0500 N   0  0  0  0  0  0  0  0  0  0  0  0
   56.2730   30.1210   44.1630 S   0  0  0  0  0  0  0  0  0  0  0  0
   55.2690   31.2030   44.4480 O   0  0  0  0  0  0  0  0  0  0  0  0
   57.6310   30.5950   44.6020 O   0  0  0  0  0  0  0  0  0  0  0  0
   56.2730   29.7870   42.4160 C   0  0  0  0  0  0  0  0  0  0  0  0
   57.3101   29.7181   42.0559 H   0  0  0  0  0  0  0  0  0  0  0  0
   55.7545   28.8360   42.2245 H   0  0  0  0  0  0  0  0  0  0  0  0
   55.7545   30.6003   41.8872 H   0  0  0  0  0  0  0  0  0  0  0  0
   57.9910   28.3320   46.2140 C   0  0  0  0  0  0  0  0  0  0  0  0
   58.3512   29.3122   45.8684 H   0  0  0  0  0  0  0  0  0  0  0  0
   59.1220   28.9870   50.4440 N   0  0  0  0  0  0  0  0  0  0  0  0
   58.4610   29.8850   51.2090 C   0  0  0  0  0  0  0  0  0  0  0  0
   57.6820   29.4470   52.2890 C   0  0  0  0  0  0  0  0  0  0  0  0
   57.6080   28.3728   52.5141 H   0  0  0  0  0  0  0  0  0  0  0  0
   56.9990   30.3760   53.0800 C   0  0  0  0  0  0  0  0  0  0  0  0
   56.3856   30.0320   53.9258 H   0  0  0  0  0  0  0  0  0  0  0  0
   57.0950   31.7410   52.7970 C   0  0  0  0  0  0  0  0  0  0  0  0
   56.5564   32.4699   53.4204 H   0  0  0  0  0  0  0  0  0  0  0  0
   57.8750   32.1830   51.7220 C   0  0  0  0  0  0  0  0  0  0  0  0
   57.9498   33.2586   51.5043 H   0  0  0  0  0  0  0  0  0  0  0  0
   58.5630   31.2560   50.9200 C   0  0  0  0  0  0  0  0  0  0  0  0
   59.3490   31.6480   49.8260 C   0  0  0  0  0  0  0  0  0  0  0  0
   59.4670   32.8750   49.5530 O   0  0  0  0  0  0  0  0  0  0  0  0
   58.7370   32.0410   46.7260 C   0  0  0  0  0  0  0  0  0  0  0  0
   58.2209   31.1055   46.9878 H   0  0  0  0  0  0  0  0  0  0  0  0
  1  2  1  0
  2  3  1  0
  3  4  2  0
  4  5  1  0
  4  6  1  0
  6  7  1  0
  6  8  2  0
  8  9  1  0
  8 10  1  0
 10 11  1  0
 11 12  1  0
 11 13  1  0
 11 14  1  0
 14 15  1  0
 15 16  1  0
 16 17  1  0
 16 18  2  0
 18 19  1  0
 18 20  1  0
 20 21  2  0
 21 22  1  0
 21 23  1  0
 23 24  1  0
 23 25  2  0
 25 26  1  0
 25 27  1  0
 27 28  1  0
 28 29  1  0
 29 30  2  0
 29 31  2  0
 29 32  1  0
 32 33  1  0
 32 34  1  0
 32 35  1  0
 27 36  2  0
 36 37  1  0
 15 38  2  0
 38 39  1  0
 39 40  2  0
 40 41  1  0
 40 42  1  0
 42 43  1  0
 42 44  2  0
 44 45  1  0
 44 46  1  0
 46 47  1  0
 46 48  2  0
 48 49  1  0
 49 50  2  0
 10 51  2  0
 51 52  1  0
 51  3  1  0
 49 14  1  0
 36 20  1  0
 48 39  1  0
M  CHG  2  26  -1  28  -1
M  END
>  <UniqueID>  (57) 
55

>  <SMILES>  (57) 
CS(=O)(=O)[N-]c1cc(/C=C/c2nc3ccccc3c(=O)n2Cc2cccc(O)c2)ccc1[O-]

>  <Energy>  (57) 
71.94782968420955

>  <Genealogy>  (57) 
CS(=O)(=O)[N-]c1cc(C=Cc2nc3ccccc3c(=O)n2Cc2cccc(O)c2)ccc1[O-] (protonated)
CS(=O)(=O)[N-]c1cc(/C=C/c2nc3ccccc3c(=O)n2Cc2cccc(O)c2)ccc1[O-] (cis-trans isomerization)
CS(=O)(=O)[N-]c1cc(/C=C/c2nc3ccccc3c(=O)n2Cc2cccc(O)c2)ccc1[O-] (3D coordinates assigned)
CS(=O)(=O)[N-]c1cc(/C=C/c2nc3ccccc3c(=O)n2Cc2cccc(O)c2)ccc1[O-] (optimized conformer: 71.94782968420955 kcal/mol)

>  <smiles>  (57) 
CS(=O)(=O)Nc1cc(C=Cc2nc3ccccc3c(=O)n2Cc2cccc(O)c2)ccc1O

>  <score_type>  (57) 
oracle

>  <origin>  (57) 
adg

>  <m_score__min__energy>  (57) 
-15.369999999999999

>  <m_primary>  (57) 
energy

$$$$
57:0
     RDKit          3D

 29 30  0  0  0  0  0  0  0  0999 V2000
   59.9650   29.3230   45.0710 O   0  0  0  0  0  0  0  0  0  0  0  0
   58.8320   29.8600   44.9550 C   0  0  0  0  0  0  0  0  0  0  0  0
   58.7490   31.2040   44.7910 N   0  0  0  0  0  0  0  0  0  0  0  0
   57.5490   31.8340   44.6960 C   0  0  0  0  0  0  0  0  0  0  0  0
   57.4650   33.2930   44.4910 C   0  0  0  0  0  0  0  0  0  0  0  0
   58.2860   34.2080   45.0300 C   0  0  0  0  0  0  0  0  0  0  0  0
   59.1680   33.9820   46.1950 C   0  0  0  0  0  0  0  0  0  0  0  0
   58.6140   33.9650   47.4800 C   0  0  0  0  0  0  0  0  0  0  0  0
   59.4230   33.7190   48.5900 C   0  0  0  0  0  0  0  0  0  0  0  0
   60.7920   33.4750   48.4360 C   0  0  0  0  0  0  0  0  0  0  0  0
   61.7250   33.1030   49.8810 Cl  0  0  0  0  0  0  0  0  0  0  0  0
   61.3650   33.4700   47.1430 C   0  0  0  0  0  0  0  0  0  0  0  0
   62.7700   33.2290   46.9420 N   0  0  0  0  0  0  0  0  0  0  0  0
   63.2400   32.0840   47.1110 O   0  0  0  0  0  0  0  0  0  0  0  0
   63.5810   34.2020   46.4070 O   0  0  0  0  0  0  0  0  0  0  0  0
   60.5340   33.7010   46.0300 C   0  0  0  0  0  0  0  0  0  0  0  0
   56.4060   31.1020   44.7180 N   0  0  0  0  0  0  0  0  0  0  0  0
   56.4250   29.7520   44.8690 C   0  0  0  0  0  0  0  0  0  0  0  0
   55.2120   29.0650   44.8410 O   0  0  0  0  0  0  0  0  0  0  0  0
   57.6610   29.0860   45.0160 C   0  0  0  0  0  0  0  0  0  0  0  0
   57.7310   27.6680   45.2390 N   0  0  0  0  0  0  0  0  0  0  0  0
   58.5960   26.9830   44.6560 O   0  0  0  0  0  0  0  0  0  0  0  0
   56.7410   27.0280   45.9490 O   0  0  0  0  0  0  0  0  0  0  0  0
   56.6594   33.6629   43.8397 H   0  0  0  0  0  0  0  0  0  0  0  0
   58.3041   35.2061   44.5679 H   0  0  0  0  0  0  0  0  0  0  0  0
   57.5375   34.1461   47.6154 H   0  0  0  0  0  0  0  0  0  0  0  0
   58.9797   33.7169   49.5967 H   0  0  0  0  0  0  0  0  0  0  0  0
   60.9608   33.6608   45.0170 H   0  0  0  0  0  0  0  0  0  0  0  0
   55.1440   28.0600   44.9310 H   0  0  0  0  0  0  0  0  0  0  0  0
  1  2  2  0
  2  3  1  0
  3  4  2  0
  4  5  1  0
  5  6  2  3
  6  7  1  0
  7  8  2  0
  8  9  1  0
  9 10  2  0
 10 11  1  0
 10 12  1  0
 12 13  1  0
 13 14  2  0
 13 15  1  0
 12 16  2  0
  4 17  1  0
 17 18  1  0
 18 19  1  0
 18 20  2  0
 20 21  1  0
 21 22  2  0
 21 23  1  0
 20  2  1  0
 16  7  1  0
  5 24  1  0
  6 25  1  0
  8 26  1  0
  9 27  1  0
 16 28  1  0
 19 29  1  0
M  CHG  5  13   1  15  -1  17  -1  21   1  23  -1
M  END
>  <UniqueID>  (58) 
56

>  <SMILES>  (58) 
O=c1nc(C=Cc2ccc(Cl)c([N+](=O)[O-])c2)[n-]c(O)c1[N+](=O)[O-]

>  <Energy>  (58) 
49.83262915004103

>  <Genealogy>  (58) 
O=c1nc(C=Cc2ccc(Cl)c([N+](=O)[O-])c2)[n-]c(O)c1[N+](=O)[O-] (protonated)
O=c1nc(C=Cc2ccc(Cl)c([N+](=O)[O-])c2)[n-]c(O)c1[N+](=O)[O-] (3D coordinates assigned)
O=c1nc(C=Cc2ccc(Cl)c([N+](=O)[O-])c2)[n-]c(O)c1[N+](=O)[O-] (optimized conformer: 49.83262915004103 kcal/mol)

>  <smiles>  (58) 
O=c1nc(C=Cc2ccc(Cl)c([N+](=O)[O-])c2)[nH]c(O)c1[N+](=O)[O-]

>  <score_type>  (58) 
oracle

>  <origin>  (58) 
adg

>  <m_score__min__energy>  (58) 
-10.359999999999999

>  <m_primary>  (58) 
energy

$$$$
58:0
     RDKit          3D

 57 60  0  0  0  0  0  0  0  0999 V2000
   55.3970   21.9030   47.3360 C   0  0  0  0  0  0  0  0  0  0  0  0
   54.9280   21.7030   46.1070 C   0  0  0  0  0  0  0  0  0  0  0  0
   55.4510   22.4400   44.9410 C   0  0  0  0  0  0  0  0  0  0  0  0
   55.9260   21.8460   43.8310 N   0  0  0  0  0  0  0  0  0  0  0  0
   56.1990   22.8730   42.9980 C   0  0  0  0  0  0  0  0  0  0  0  0
   55.9150   24.0850   43.5210 N   0  0  0  0  0  0  0  0  0  0  0  0
   55.4530   23.8120   44.7530 C   0  0  0  0  0  0  0  0  0  0  0  0
   55.0470   24.8620   45.7070 C   0  0  0  0  0  0  0  0  0  0  0  0
   53.8950   25.3610   45.6050 O   0  0  0  0  0  0  0  0  0  0  0  0
   55.9120   25.3290   46.7520 N   0  0  0  0  0  0  0  0  0  0  0  0
   57.2260   25.8860   46.5850 C   0  0  0  0  0  0  0  0  0  0  0  0
   57.4430   27.2770   46.5730 C   0  0  0  0  0  0  0  0  0  0  0  0
   58.7360   27.8020   46.3880 C   0  0  0  0  0  0  0  0  0  0  0  0
   58.9420   29.2720   46.3500 C   0  0  0  0  0  0  0  0  0  0  0  0
   60.0930   29.7440   46.5730 O   0  0  0  0  0  0  0  0  0  0  0  0
   57.8410   30.1690   46.1170 N   0  0  0  0  0  0  0  0  0  0  0  0
   58.0030   31.5280   45.6760 C   0  0  0  0  0  0  0  0  0  0  0  0
   57.6440   31.8760   44.3650 C   0  0  0  0  0  0  0  0  0  0  0  0
   57.8040   33.1890   43.9130 C   0  0  0  0  0  0  0  0  0  0  0  0
   58.3220   34.1660   44.7650 C   0  0  0  0  0  0  0  0  0  0  0  0
   58.6860   33.8360   46.0780 C   0  0  0  0  0  0  0  0  0  0  0  0
   59.2310   34.8570   46.9900 C   0  0  0  0  0  0  0  0  0  0  0  0
   59.6880   35.9270   46.5060 O   0  0  0  0  0  0  0  0  0  0  0  0
   59.2940   34.6610   48.4080 N   0  0  0  0  0  0  0  0  0  0  0  0
   60.2460   33.8120   49.1240 C   0  0  0  0  0  0  0  0  0  0  0  0
   59.8630   33.6360   50.6000 C   0  0  0  0  0  0  0  0  0  0  0  0
   59.0130   32.4090   50.8180 C   0  0  0  0  0  0  0  0  0  0  0  0
   59.3040   31.2110   50.1460 C   0  0  0  0  0  0  0  0  0  0  0  0
   58.5170   30.0810   50.3800 C   0  0  0  0  0  0  0  0  0  0  0  0
   57.4810   30.1420   51.2590 N   0  0  0  0  0  0  0  0  0  0  0  0
   57.1780   31.2880   51.9270 C   0  0  0  0  0  0  0  0  0  0  0  0
   57.9410   32.4400   51.7210 C   0  0  0  0  0  0  0  0  0  0  0  0
   58.5560   32.5100   46.5180 C   0  0  0  0  0  0  0  0  0  0  0  0
   59.8180   26.9130   46.2640 C   0  0  0  0  0  0  0  0  0  0  0  0
   59.6080   25.5320   46.3060 C   0  0  0  0  0  0  0  0  0  0  0  0
   58.3190   25.0200   46.4680 C   0  0  0  0  0  0  0  0  0  0  0  0
   58.1310   23.6760   46.5010 F   0  0  0  0  0  0  0  0  0  0  0  0
   54.9827   21.3349   48.1820 H   0  0  0  0  0  0  0  0  0  0  0  0
   56.1990   22.6364   47.5060 H   0  0  0  0  0  0  0  0  0  0  0  0
   54.1259   20.9656   45.9558 H   0  0  0  0  0  0  0  0  0  0  0  0
   56.6137   22.7353   41.9885 H   0  0  0  0  0  0  0  0  0  0  0  0
   56.5927   27.9613   46.7097 H   0  0  0  0  0  0  0  0  0  0  0  0
   56.8910   29.8660   46.4240 H   0  0  0  0  0  0  0  0  0  0  0  0
   57.2343   31.1111   43.6890 H   0  0  0  0  0  0  0  0  0  0  0  0
   57.5210   33.4531   42.8833 H   0  0  0  0  0  0  0  0  0  0  0  0
   58.4450   35.1981   44.4050 H   0  0  0  0  0  0  0  0  0  0  0  0
   60.2711   32.8229   48.6433 H   0  0  0  0  0  0  0  0  0  0  0  0
   61.2316   34.2988   49.0846 H   0  0  0  0  0  0  0  0  0  0  0  0
   60.7820   33.5427   51.1972 H   0  0  0  0  0  0  0  0  0  0  0  0
   59.2778   34.5152   50.9076 H   0  0  0  0  0  0  0  0  0  0  0  0
   60.1461   31.1627   49.4400 H   0  0  0  0  0  0  0  0  0  0  0  0
   58.7354   29.1406   49.8527 H   0  0  0  0  0  0  0  0  0  0  0  0
   56.3318   31.3074   52.6296 H   0  0  0  0  0  0  0  0  0  0  0  0
   57.7020   33.3662   52.2642 H   0  0  0  0  0  0  0  0  0  0  0  0
   58.8893   32.2360   47.5299 H   0  0  0  0  0  0  0  0  0  0  0  0
   60.8366   27.3070   46.1331 H   0  0  0  0  0  0  0  0  0  0  0  0
   60.4620   24.8452   46.2110 H   0  0  0  0  0  0  0  0  0  0  0  0
  1  2  2  0
  2  3  1  0
  3  4  1  0
  4  5  2  0
  5  6  1  0
  6  7  1  0
  7  8  1  0
  8  9  2  0
  8 10  1  0
 10 11  1  0
 11 12  2  0
 12 13  1  0
 13 14  1  0
 14 15  2  0
 14 16  1  0
 16 17  1  0
 17 18  2  0
 18 19  1  0
 19 20  2  0
 20 21  1  0
 21 22  1  0
 22 23  2  0
 22 24  1  0
 24 25  1  0
 25 26  1  0
 26 27  1  0
 27 28  2  0
 28 29  1  0
 29 30  2  0
 30 31  1  0
 31 32  2  0
 21 33  2  0
 13 34  2  0
 34 35  1  0
 35 36  2  0
 36 37  1  0
  7  3  2  0
 36 11  1  0
 33 17  1  0
 32 27  1  0
  1 38  1  0
  1 39  1  0
  2 40  1  0
  5 41  1  0
 12 42  1  0
 16 43  1  0
 18 44  1  0
 19 45  1  0
 20 46  1  0
 25 47  1  0
 25 48  1  0
 26 49  1  0
 26 50  1  0
 28 51  1  0
 29 52  1  0
 31 53  1  0
 32 54  1  0
 33 55  1  0
 34 56  1  0
 35 57  1  0
M  CHG  3   6  -1  10  -1  24  -1
M  END
>  <UniqueID>  (59) 
57

>  <SMILES>  (59) 
C=Cc1nc[n-]c1C(=O)[N-]c1cc(C(=O)Nc2cccc(C(=O)[N-]CCc3ccncc3)c2)ccc1F

>  <Energy>  (59) 
101.58756207321798

>  <Genealogy>  (59) 
C=Cc1nc[n-]c1C(=O)[N-]c1cc(C(=O)Nc2cccc(C(=O)[N-]CCc3ccncc3)c2)ccc1F (protonated)
C=Cc1nc[n-]c1C(=O)[N-]c1cc(C(=O)Nc2cccc(C(=O)[N-]CCc3ccncc3)c2)ccc1F (3D coordinates assigned)
C=Cc1nc[n-]c1C(=O)[N-]c1cc(C(=O)Nc2cccc(C(=O)[N-]CCc3ccncc3)c2)ccc1F (optimized conformer: 101.58756207321798 kcal/mol)

>  <smiles>  (59) 
C=Cc1nc[nH]c1C(=O)Nc1cc(C(=O)Nc2cccc(C(=O)NCCc3ccncc3)c2)ccc1F

>  <score_type>  (59) 
oracle

>  <origin>  (59) 
adg

>  <m_score__min__energy>  (59) 
-13.48

>  <m_primary>  (59) 
energy

$$$$
59:0
     RDKit          3D

 57 60  0  0  0  0  0  0  0  0999 V2000
   63.7010   34.5300   46.3450 O   0  0  0  0  0  0  0  0  0  0  0  0
   63.1940   33.8630   47.2860 C   0  0  0  0  0  0  0  0  0  0  0  0
   63.9450   32.6970   47.8530 C   0  0  0  0  0  0  0  0  0  0  0  0
   63.3780   32.2840   49.1800 C   0  0  0  0  0  0  0  0  0  0  0  0
   62.0590   32.1190   49.4160 N   0  0  0  0  0  0  0  0  0  0  0  0
   61.8030   31.6740   50.6790 C   0  0  0  0  0  0  0  0  0  0  0  0
   60.4070   31.4310   51.1730 C   0  0  0  0  0  0  0  0  0  0  0  0
   59.5240   31.2230   50.0730 O   0  0  0  0  0  0  0  0  0  0  0  0
   59.2490   29.9790   49.4800 C   0  0  0  0  0  0  0  0  0  0  0  0
   58.8930   29.0310   50.2300 O   0  0  0  0  0  0  0  0  0  0  0  0
   59.3660   29.7290   48.0280 C   0  0  0  0  0  0  0  0  0  0  0  0
   60.5900   29.9090   47.3660 C   0  0  0  0  0  0  0  0  0  0  0  0
   60.6940   29.6720   45.9940 C   0  0  0  0  0  0  0  0  0  0  0  0
   59.5660   29.2980   45.2600 C   0  0  0  0  0  0  0  0  0  0  0  0
   58.3230   29.1730   45.8970 C   0  0  0  0  0  0  0  0  0  0  0  0
   56.8780   28.8330   44.9420 S   0  0  0  0  0  0  0  0  0  0  0  0
   56.0040   30.0480   44.8680 O   0  0  0  0  0  0  0  0  0  0  0  0
   57.3010   28.4800   43.5490 O   0  0  0  0  0  0  0  0  0  0  0  0
   55.9850   27.5070   45.6200 N   0  0  0  0  0  0  0  0  0  0  0  0
   56.8290   26.6740   46.4710 C   0  0  0  0  0  0  0  0  0  0  0  0
   57.1780   25.3760   45.7920 C   0  0  0  0  0  0  0  0  0  0  0  0
   58.4040   24.7480   46.0530 C   0  0  0  0  0  0  0  0  0  0  0  0
   58.7460   23.5610   45.4000 C   0  0  0  0  0  0  0  0  0  0  0  0
   57.8450   22.9730   44.5050 C   0  0  0  0  0  0  0  0  0  0  0  0
   56.6250   23.5920   44.2370 C   0  0  0  0  0  0  0  0  0  0  0  0
   56.2800   24.7790   44.8910 C   0  0  0  0  0  0  0  0  0  0  0  0
   58.2290   29.3840   47.2810 C   0  0  0  0  0  0  0  0  0  0  0  0
   62.9360   31.4920   51.4730 C   0  0  0  0  0  0  0  0  0  0  0  0
   64.2850   31.8720   50.5380 S   0  0  0  0  0  0  0  0  0  0  0  0
   61.8960   34.1830   47.8180 N   0  0  0  0  0  0  0  0  0  0  0  0
   60.7410   33.9400   47.2670 C   0  0  0  0  0  0  0  0  0  0  0  0
   60.3880   34.6180   46.0930 C   0  0  0  0  0  0  0  0  0  0  0  0
   59.1420   34.3840   45.5070 C   0  0  0  0  0  0  0  0  0  0  0  0
   58.2610   33.4730   46.0900 C   0  0  0  0  0  0  0  0  0  0  0  0
   56.6790   33.1810   45.3740 Cl  0  0  0  0  0  0  0  0  0  0  0  0
   58.6490   32.7960   47.2520 C   0  0  0  0  0  0  0  0  0  0  0  0
   59.8670   33.0450   47.8100 N   0  0  0  0  0  0  0  0  0  0  0  0
   63.8762   31.8507   47.1537 H   0  0  0  0  0  0  0  0  0  0  0  0
   64.9942   32.9938   47.9980 H   0  0  0  0  0  0  0  0  0  0  0  0
   61.3140   32.3060   48.7060 H   0  0  0  0  0  0  0  0  0  0  0  0
   60.3999   30.5400   51.8180 H   0  0  0  0  0  0  0  0  0  0  0  0
   60.0699   32.3098   51.7423 H   0  0  0  0  0  0  0  0  0  0  0  0
   61.4737   30.2391   47.9318 H   0  0  0  0  0  0  0  0  0  0  0  0
   61.6659   29.7800   45.4903 H   0  0  0  0  0  0  0  0  0  0  0  0
   59.6528   29.1013   44.1812 H   0  0  0  0  0  0  0  0  0  0  0  0
   57.7564   27.2195   46.6998 H   0  0  0  0  0  0  0  0  0  0  0  0
   56.2745   26.4455   47.3931 H   0  0  0  0  0  0  0  0  0  0  0  0
   59.1020   25.1931   46.7774 H   0  0  0  0  0  0  0  0  0  0  0  0
   59.7217   23.0895   45.5891 H   0  0  0  0  0  0  0  0  0  0  0  0
   58.0994   22.0226   44.0131 H   0  0  0  0  0  0  0  0  0  0  0  0
   55.9317   23.1455   43.5090 H   0  0  0  0  0  0  0  0  0  0  0  0
   55.3029   25.2466   44.6996 H   0  0  0  0  0  0  0  0  0  0  0  0
   57.2567   29.2782   47.7844 H   0  0  0  0  0  0  0  0  0  0  0  0
   62.9465   31.1599   52.5216 H   0  0  0  0  0  0  0  0  0  0  0  0
   61.0889   35.3313   45.6348 H   0  0  0  0  0  0  0  0  0  0  0  0
   58.8561   34.9167   44.5881 H   0  0  0  0  0  0  0  0  0  0  0  0
   57.9712   32.0634   47.7145 H   0  0  0  0  0  0  0  0  0  0  0  0
  1  2  2  0
  2  3  1  0
  3  4  1  0
  4  5  2  0
  5  6  1  0
  6  7  1  0
  7  8  1  0
  8  9  1  0
  9 10  2  0
  9 11  1  0
 11 12  2  0
 12 13  1  0
 13 14  2  0
 14 15  1  0
 15 16  1  0
 16 17  2  0
 16 18  2  0
 16 19  1  0
 19 20  1  0
 20 21  1  0
 21 22  2  0
 22 23  1  0
 23 24  2  0
 24 25  1  0
 25 26  2  0
 15 27  2  0
  6 28  2  0
 28 29  1  0
  2 30  1  0
 30 31  2  3
 31 32  1  0
 32 33  2  0
 33 34  1  0
 34 35  1  0
 34 36  2  0
 36 37  1  0
 29  4  1  0
 37 31  1  0
 27 11  1  0
 26 21  1  0
  3 38  1  0
  3 39  1  0
  5 40  1  0
  7 41  1  0
  7 42  1  0
 12 43  1  0
 13 44  1  0
 14 45  1  0
 20 46  1  0
 20 47  1  0
 22 48  1  0
 23 49  1  0
 24 50  1  0
 25 51  1  0
 26 52  1  0
 27 53  1  0
 28 54  1  0
 32 55  1  0
 33 56  1  0
 36 57  1  0
M  CHG  3   5   1  19  -1  37  -1
M  END
>  <UniqueID>  (60) 
58

>  <SMILES>  (60) 
O=C(Cc1[nH+]c(COC(=O)c2cccc(S(=O)(=O)[N-]Cc3ccccc3)c2)cs1)N=c1ccc(Cl)c[n-]1

>  <Energy>  (60) 
96.09668281466034

>  <Genealogy>  (60) 
O=C(Cc1[nH+]c(COC(=O)c2cccc(S(=O)(=O)[N-]Cc3ccccc3)c2)cs1)N=c1ccc(Cl)c[n-]1 (protonated)
O=C(Cc1[nH+]c(COC(=O)c2cccc(S(=O)(=O)[N-]Cc3ccccc3)c2)cs1)N=c1ccc(Cl)c[n-]1 (3D coordinates assigned)
O=C(Cc1[nH+]c(COC(=O)c2cccc(S(=O)(=O)[N-]Cc3ccccc3)c2)cs1)N=c1ccc(Cl)c[n-]1 (optimized conformer: 96.09668281466034 kcal/mol)

>  <smiles>  (60) 
O=C(Cc1nc(COC(=O)c2cccc(S(=O)(=O)NCc3ccccc3)c2)cs1)N=c1ccc(Cl)c[nH]1

>  <score_type>  (60) 
oracle

>  <origin>  (60) 
adg

>  <m_score__min__energy>  (60) 
-10.44

>  <m_primary>  (60) 
energy

$$$$
60:0
     RDKit          3D

 38 40  0  0  0  0  0  0  0  0999 V2000
   54.4570   29.6200   43.3690 O   0  0  0  0  0  0  0  0  0  0  0  0
   55.5520   29.6650   43.9880 C   0  0  0  0  0  0  0  0  0  0  0  0
   56.6840   30.4660   43.4020 C   0  0  0  0  0  0  0  0  0  0  0  0
   57.2350   31.3730   44.4060 N   0  0  0  0  0  0  0  0  0  0  0  0
   57.8830   32.6050   44.0540 C   0  0  0  0  0  0  0  0  0  0  0  0
   57.9980   32.9310   42.8410 O   0  0  0  0  0  0  0  0  0  0  0  0
   58.4190   33.5010   45.0940 C   0  0  0  0  0  0  0  0  0  0  0  0
   59.5910   34.2450   45.0000 C   0  0  0  0  0  0  0  0  0  0  0  0
   59.8570   35.0090   46.1420 C   0  0  0  0  0  0  0  0  0  0  0  0
   58.9000   34.8750   47.1400 C   0  0  0  0  0  0  0  0  0  0  0  0
   57.7240   33.8020   46.5990 S   0  0  0  0  0  0  0  0  0  0  0  0
   55.6700   28.9640   45.2320 N   0  0  0  0  0  0  0  0  0  0  0  0
   56.6630   27.9380   45.5240 C   0  0  0  0  0  0  0  0  0  0  0  0
   58.0000   28.5820   45.6970 C   0  0  0  0  0  0  0  0  0  0  0  0
   59.1030   28.2670   44.9070 C   0  0  0  0  0  0  0  0  0  0  0  0
   60.3710   29.2570   45.3910 S   0  0  0  0  0  0  0  0  0  0  0  0
   59.4690   30.0510   46.5730 C   0  0  0  0  0  0  0  0  0  0  0  0
   59.9580   31.1320   47.4590 C   0  0  0  0  0  0  0  0  0  0  0  0
   59.2220   31.5320   48.5900 C   0  0  0  0  0  0  0  0  0  0  0  0
   59.6970   32.5530   49.4190 C   0  0  0  0  0  0  0  0  0  0  0  0
   60.9070   33.1860   49.1290 C   0  0  0  0  0  0  0  0  0  0  0  0
   61.6470   32.7980   48.0100 C   0  0  0  0  0  0  0  0  0  0  0  0
   61.1770   31.7780   47.1770 C   0  0  0  0  0  0  0  0  0  0  0  0
   58.2030   29.5740   46.6070 N   0  0  0  0  0  0  0  0  0  0  0  0
   57.4736   29.7814   43.0589 H   0  0  0  0  0  0  0  0  0  0  0  0
   56.3041   31.0568   42.5555 H   0  0  0  0  0  0  0  0  0  0  0  0
   57.1620   31.0940   45.4100 H   0  0  0  0  0  0  0  0  0  0  0  0
   60.2443   34.2338   44.1151 H   0  0  0  0  0  0  0  0  0  0  0  0
   60.7416   35.6555   46.2402 H   0  0  0  0  0  0  0  0  0  0  0  0
   58.9099   35.3831   48.1156 H   0  0  0  0  0  0  0  0  0  0  0  0
   56.3862   27.4110   46.4490 H   0  0  0  0  0  0  0  0  0  0  0  0
   56.7048   27.2178   44.6936 H   0  0  0  0  0  0  0  0  0  0  0  0
   59.1375   27.5083   44.1113 H   0  0  0  0  0  0  0  0  0  0  0  0
   58.2671   31.0383   48.8233 H   0  0  0  0  0  0  0  0  0  0  0  0
   59.1159   32.8581   50.3017 H   0  0  0  0  0  0  0  0  0  0  0  0
   61.2775   33.9902   49.7817 H   0  0  0  0  0  0  0  0  0  0  0  0
   62.6014   33.2957   47.7835 H   0  0  0  0  0  0  0  0  0  0  0  0
   61.7632   31.4783   46.2958 H   0  0  0  0  0  0  0  0  0  0  0  0
  1  2  2  0
  2  3  1  0
  3  4  1  0
  4  5  1  0
  5  6  2  0
  5  7  1  0
  7  8  2  0
  8  9  1  0
  9 10  2  0
 10 11  1  0
  2 12  1  0
 12 13  1  0
 13 14  1  0
 14 15  2  0
 15 16  1  0
 16 17  1  0
 17 18  1  0
 18 19  2  0
 19 20  1  0
 20 21  2  0
 21 22  1  0
 22 23  2  0
 17 24  2  0
 11  7  1  0
 24 14  1  0
 23 18  1  0
  3 25  1  0
  3 26  1  0
  4 27  1  0
  8 28  1  0
  9 29  1  0
 10 30  1  0
 13 31  1  0
 13 32  1  0
 15 33  1  0
 19 34  1  0
 20 35  1  0
 21 36  1  0
 22 37  1  0
 23 38  1  0
M  CHG  1  12  -1
M  END
>  <UniqueID>  (61) 
59

>  <SMILES>  (61) 
O=C(CNC(=O)c1cccs1)[N-]Cc1csc(-c2ccccc2)n1

>  <Energy>  (61) 
90.87025344652798

>  <Genealogy>  (61) 
O=C(CNC(=O)c1cccs1)[N-]Cc1csc(-c2ccccc2)n1 (protonated)
O=C(CNC(=O)c1cccs1)[N-]Cc1csc(-c2ccccc2)n1 (3D coordinates assigned)
O=C(CNC(=O)c1cccs1)[N-]Cc1csc(-c2ccccc2)n1 (optimized conformer: 90.87025344652798 kcal/mol)

>  <smiles>  (61) 
O=C(CNC(=O)c1cccs1)NCc1csc(-c2ccccc2)n1

>  <score_type>  (61) 
oracle

>  <origin>  (61) 
adg

>  <m_score__min__energy>  (61) 
-11.109999999999999

>  <m_primary>  (61) 
energy

$$$$
61:0
     RDKit          3D

 55 58  0  0  0  0  0  0  0  0999 V2000
   55.8980   30.0260   44.3560 N   0  0  0  0  0  0  0  0  0  0  0  0
   56.6730   30.8480   44.6100 C   0  0  0  0  0  0  0  0  0  0  0  0
   57.6360   31.8690   44.9270 C   0  0  0  0  0  0  0  0  0  0  0  0
   57.9440   32.8590   43.9850 C   0  0  0  0  0  0  0  0  0  0  0  0
   58.8850   33.8460   44.2880 C   0  0  0  0  0  0  0  0  0  0  0  0
   59.5220   33.8490   45.5330 C   0  0  0  0  0  0  0  0  0  0  0  0
   59.2180   32.8630   46.4860 C   0  0  0  0  0  0  0  0  0  0  0  0
   59.9580   32.8360   47.7980 C   0  0  0  0  0  0  0  0  0  0  0  0
   60.0720   31.4480   48.2840 N   0  0  0  0  0  0  0  0  0  0  0  0
   58.8580   31.0390   49.0310 C   0  0  0  0  0  0  0  0  0  0  0  0
   59.0110   29.6370   49.6600 C   0  0  0  0  0  0  0  0  0  0  0  0
   60.2610   28.9040   49.1340 C   0  0  0  0  0  0  0  0  0  0  0  0
   60.1640   28.6330   47.6850 N   0  0  0  0  0  0  0  0  0  0  0  0
   59.1280   27.8350   47.0890 C   0  0  0  0  0  0  0  0  0  0  0  0
   58.4640   26.9510   47.8780 N   0  0  0  0  0  0  0  0  0  0  0  0
   57.4900   26.1360   47.4030 C   0  0  0  0  0  0  0  0  0  0  0  0
   57.1160   26.1900   46.0530 C   0  0  0  0  0  0  0  0  0  0  0  0
   56.0500   25.2810   45.5580 C   0  0  0  0  0  0  0  0  0  0  0  0
   54.8460   25.6400   45.6620 O   0  0  0  0  0  0  0  0  0  0  0  0
   56.3630   23.9920   44.8940 C   0  0  0  0  0  0  0  0  0  0  0  0
   56.3780   23.9290   43.4880 C   0  0  0  0  0  0  0  0  0  0  0  0
   56.6490   22.7240   42.8360 C   0  0  0  0  0  0  0  0  0  0  0  0
   56.9050   21.5690   43.5760 C   0  0  0  0  0  0  0  0  0  0  0  0
   56.8930   21.6170   44.9700 C   0  0  0  0  0  0  0  0  0  0  0  0
   56.6220   22.8180   45.6370 C   0  0  0  0  0  0  0  0  0  0  0  0
   56.6740   22.8180   47.3970 Cl  0  0  0  0  0  0  0  0  0  0  0  0
   57.7850   27.0980   45.2050 C   0  0  0  0  0  0  0  0  0  0  0  0
   57.5010   27.1490   43.9760 O   0  0  0  0  0  0  0  0  0  0  0  0
   58.7850   27.9400   45.7250 C   0  0  0  0  0  0  0  0  0  0  0  0
   59.4090   28.9220   44.8690 C   0  0  0  0  0  0  0  0  0  0  0  0
   59.9150   29.7050   44.1820 N   0  0  0  0  0  0  0  0  0  0  0  0
   61.5040   29.7690   49.4390 C   0  0  0  0  0  0  0  0  0  0  0  0
   61.2780   31.2650   49.1150 C   0  0  0  0  0  0  0  0  0  0  0  0
   58.2740   31.8700   46.1750 C   0  0  0  0  0  0  0  0  0  0  0  0
   57.4441   32.8592   43.0052 H   0  0  0  0  0  0  0  0  0  0  0  0
   59.1253   34.6219   43.5463 H   0  0  0  0  0  0  0  0  0  0  0  0
   60.2640   34.6266   45.7668 H   0  0  0  0  0  0  0  0  0  0  0  0
   60.9646   33.2566   47.6573 H   0  0  0  0  0  0  0  0  0  0  0  0
   59.4043   33.4333   48.5374 H   0  0  0  0  0  0  0  0  0  0  0  0
   58.6711   31.7692   49.8321 H   0  0  0  0  0  0  0  0  0  0  0  0
   58.0182   31.0033   48.3214 H   0  0  0  0  0  0  0  0  0  0  0  0
   59.0947   29.7442   50.7516 H   0  0  0  0  0  0  0  0  0  0  0  0
   58.1269   29.0424   49.3864 H   0  0  0  0  0  0  0  0  0  0  0  0
   60.3431   27.9304   49.6393 H   0  0  0  0  0  0  0  0  0  0  0  0
   60.6810   29.2630   47.0300 H   0  0  0  0  0  0  0  0  0  0  0  0
   56.9904   25.4283   48.0809 H   0  0  0  0  0  0  0  0  0  0  0  0
   56.1748   24.8352   42.8985 H   0  0  0  0  0  0  0  0  0  0  0  0
   56.6607   22.6853   41.7367 H   0  0  0  0  0  0  0  0  0  0  0  0
   57.1162   20.6207   43.0601 H   0  0  0  0  0  0  0  0  0  0  0  0
   57.0979   20.7048   45.5495 H   0  0  0  0  0  0  0  0  0  0  0  0
   61.7478   29.6722   50.5073 H   0  0  0  0  0  0  0  0  0  0  0  0
   62.3261   29.4094   48.8027 H   0  0  0  0  0  0  0  0  0  0  0  0
   61.1554   31.8225   50.0553 H   0  0  0  0  0  0  0  0  0  0  0  0
   62.1491   31.6391   48.5571 H   0  0  0  0  0  0  0  0  0  0  0  0
   58.0348   31.0906   46.9135 H   0  0  0  0  0  0  0  0  0  0  0  0
  1  2  3  0
  2  3  1  0
  3  4  2  0
  4  5  1  0
  5  6  2  0
  6  7  1  0
  7  8  1  0
  8  9  1  0
  9 10  1  0
 10 11  1  0
 11 12  1  0
 12 13  1  0
 13 14  1  0
 14 15  1  0
 15 16  1  0
 16 17  2  0
 17 18  1  0
 18 19  2  0
 18 20  1  0
 20 21  2  0
 21 22  1  0
 22 23  2  0
 23 24  1  0
 24 25  2  0
 25 26  1  0
 17 27  1  0
 27 28  2  0
 27 29  1  0
 29 30  1  0
 30 31  3  0
 12 32  1  0
 32 33  1  0
  7 34  2  0
 34  3  1  0
 33  9  1  0
 29 14  2  0
 25 20  1  0
  4 35  1  0
  5 36  1  0
  6 37  1  0
  8 38  1  0
  8 39  1  0
 10 40  1  0
 10 41  1  0
 11 42  1  0
 11 43  1  0
 12 44  1  0
 13 45  1  0
 16 46  1  0
 21 47  1  0
 22 48  1  0
 23 49  1  0
 24 50  1  0
 32 51  1  0
 32 52  1  0
 33 53  1  0
 33 54  1  0
 34 55  1  0
M  CHG  1  15  -1
M  END
>  <UniqueID>  (62) 
60

>  <SMILES>  (62) 
N#Cc1cccc(CN2CCC(Nc3[n-]cc(C(=O)c4ccccc4Cl)c(=O)c3C#N)CC2)c1

>  <Energy>  (62) 
78.88574419567306

>  <Genealogy>  (62) 
N#Cc1cccc(CN2CCC(Nc3[n-]cc(C(=O)c4ccccc4Cl)c(=O)c3C#N)CC2)c1 (protonated)
N#Cc1cccc(CN2CCC(Nc3[n-]cc(C(=O)c4ccccc4Cl)c(=O)c3C#N)CC2)c1 (3D coordinates assigned)
N#Cc1cccc(CN2CCC(Nc3[n-]cc(C(=O)c4ccccc4Cl)c(=O)c3C#N)CC2)c1 (nonaromatic ring conformer: 78.88574419567306 kcal/mol)

>  <smiles>  (62) 
N#Cc1cccc(CN2CCC(Nc3[nH]cc(C(=O)c4ccccc4Cl)c(=O)c3C#N)CC2)c1

>  <score_type>  (62) 
oracle

>  <origin>  (62) 
adg

>  <m_score__min__energy>  (62) 
-10.720000000000001

>  <m_primary>  (62) 
energy

$$$$
62:0
     RDKit          3D

 55 57  0  0  0  0  0  0  0  0999 V2000
   60.6240   28.5770   47.1860 H   0  0  0  0  0  0  0  0  0  0  0  0
   60.7680   28.3000   48.1460 O   0  0  0  0  0  0  0  0  0  0  0  0
   60.0590   28.8860   49.1930 C   0  0  0  0  0  0  0  0  0  0  0  0
   60.3760   28.5270   50.5120 C   0  0  0  0  0  0  0  0  0  0  0  0
   61.2041   27.8291   50.7048 H   0  0  0  0  0  0  0  0  0  0  0  0
   59.6470   29.0500   51.5800 C   0  0  0  0  0  0  0  0  0  0  0  0
   59.9033   28.7784   52.6147 H   0  0  0  0  0  0  0  0  0  0  0  0
   58.5910   29.9200   51.3210 C   0  0  0  0  0  0  0  0  0  0  0  0
   57.9945   30.3244   52.1521 H   0  0  0  0  0  0  0  0  0  0  0  0
   58.2980   30.2690   50.0410 N   0  0  0  0  0  0  0  0  0  0  0  0
   58.9990   29.8070   48.9690 C   0  0  0  0  0  0  0  0  0  0  0  0
   58.6210   30.2150   47.7870 N   0  0  0  0  0  0  0  0  0  0  0  0
   59.3910   30.7370   46.6960 C   0  0  0  0  0  0  0  0  0  0  0  0
   60.0650   29.9480   45.9780 O   0  0  0  0  0  0  0  0  0  0  0  0
   59.5350   32.2100   46.5020 C   0  0  0  0  0  0  0  0  0  0  0  0
   60.5990   32.8720   47.1480 C   0  0  0  0  0  0  0  0  0  0  0  0
   61.2994   32.2943   47.7691 H   0  0  0  0  0  0  0  0  0  0  0  0
   60.7770   34.2510   47.0110 C   0  0  0  0  0  0  0  0  0  0  0  0
   61.6067   34.7513   47.5318 H   0  0  0  0  0  0  0  0  0  0  0  0
   59.9070   34.9940   46.2170 C   0  0  0  0  0  0  0  0  0  0  0  0
   60.0548   36.0783   46.1052 H   0  0  0  0  0  0  0  0  0  0  0  0
   58.8490   34.3640   45.5640 C   0  0  0  0  0  0  0  0  0  0  0  0
   58.1639   34.9566   44.9399 H   0  0  0  0  0  0  0  0  0  0  0  0
   58.6490   32.9800   45.6950 C   0  0  0  0  0  0  0  0  0  0  0  0
   57.5120   32.3830   44.9700 C   0  0  0  0  0  0  0  0  0  0  0  0
   56.3410   32.6670   45.3510 O   0  0  0  0  0  0  0  0  0  0  0  0
   57.7130   31.4880   43.8520 N   0  0  0  0  0  0  0  0  0  0  0  0
   57.4950   30.0410   43.9910 C   0  0  0  0  0  0  0  0  0  0  0  0
   57.6367   29.5580   43.0129 H   0  0  0  0  0  0  0  0  0  0  0  0
   58.2157   29.6411   44.7195 H   0  0  0  0  0  0  0  0  0  0  0  0
   56.1010   29.7630   44.4830 C   0  0  0  0  0  0  0  0  0  0  0  0
   55.2000   30.6210   44.2790 O   0  0  0  0  0  0  0  0  0  0  0  0
   55.7710   28.5740   45.2150 N   0  0  0  0  0  0  0  0  0  0  0  0
   56.6810   27.5680   45.6850 C   0  0  0  0  0  0  0  0  0  0  0  0
   58.0710   27.7880   45.6950 C   0  0  0  0  0  0  0  0  0  0  0  0
   58.4743   28.7530   45.3540 H   0  0  0  0  0  0  0  0  0  0  0  0
   58.9410   26.7890   46.1350 C   0  0  0  0  0  0  0  0  0  0  0  0
   60.0254   26.9729   46.1508 H   0  0  0  0  0  0  0  0  0  0  0  0
   58.4370   25.5570   46.5550 C   0  0  0  0  0  0  0  0  0  0  0  0
   59.1222   24.7776   46.9197 H   0  0  0  0  0  0  0  0  0  0  0  0
   57.0610   25.3140   46.5120 C   0  0  0  0  0  0  0  0  0  0  0  0
   56.6678   24.3385   46.8342 H   0  0  0  0  0  0  0  0  0  0  0  0
   56.1740   26.3120   46.0580 C   0  0  0  0  0  0  0  0  0  0  0  0
   54.7890   26.0910   45.9630 O   0  0  0  0  0  0  0  0  0  0  0  0
   54.1920   24.8440   45.6200 C   0  0  0  0  0  0  0  0  0  0  0  0
   53.9305   24.2978   46.5383 H   0  0  0  0  0  0  0  0  0  0  0  0
   53.2822   25.0235   45.0284 H   0  0  0  0  0  0  0  0  0  0  0  0
   54.9023   24.2478   45.0284 H   0  0  0  0  0  0  0  0  0  0  0  0
   58.1460   32.0250   42.5550 C   0  0  0  0  0  0  0  0  0  0  0  0
   59.0212   31.4589   42.2036 H   0  0  0  0  0  0  0  0  0  0  0  0
   58.4041   33.0870   42.6797 H   0  0  0  0  0  0  0  0  0  0  0  0
   57.0270   31.9090   41.5240 C   0  0  0  0  0  0  0  0  0  0  0  0
   56.0612   31.8089   42.0408 H   0  0  0  0  0  0  0  0  0  0  0  0
   57.0140   32.8106   40.8940 H   0  0  0  0  0  0  0  0  0  0  0  0
   57.1992   31.0239   40.8940 H   0  0  0  0  0  0  0  0  0  0  0  0
  1  2  1  0
  2  3  1  0
  3  4  2  0
  4  5  1  0
  4  6  1  0
  6  7  1  0
  6  8  2  0
  8  9  1  0
  8 10  1  0
 10 11  1  0
 11 12  2  0
 12 13  1  0
 13 14  2  0
 13 15  1  0
 15 16  2  0
 16 17  1  0
 16 18  1  0
 18 19  1  0
 18 20  2  0
 20 21  1  0
 20 22  1  0
 22 23  1  0
 22 24  2  0
 24 25  1  0
 25 26  2  0
 25 27  1  0
 27 28  1  0
 28 29  1  0
 28 30  1  0
 28 31  1  0
 31 32  2  0
 31 33  1  0
 33 34  1  0
 34 35  2  0
 35 36  1  0
 35 37  1  0
 37 38  1  0
 37 39  2  0
 39 40  1  0
 39 41  1  0
 41 42  1  0
 41 43  2  0
 43 44  1  0
 44 45  1  0
 45 46  1  0
 45 47  1  0
 45 48  1  0
 27 49  1  0
 49 50  1  0
 49 51  1  0
 49 52  1  0
 52 53  1  0
 52 54  1  0
 52 55  1  0
 11  3  1  0
 24 15  1  0
 43 34  1  0
M  CHG  2  10  -1  33  -1
M  END
>  <UniqueID>  (63) 
61

>  <SMILES>  (63) 
CCN(CC(=O)[N-]c1ccccc1OC)C(=O)c1ccccc1C(=O)/N=c1/[n-]cccc1O

>  <Energy>  (63) 
75.01111208407903

>  <Genealogy>  (63) 
CCN(CC(=O)[N-]c1ccccc1OC)C(=O)c1ccccc1C(=O)N=c1[n-]cccc1O (protonated)
CCN(CC(=O)[N-]c1ccccc1OC)C(=O)c1ccccc1C(=O)/N=c1/[n-]cccc1O (cis-trans isomerization)
CCN(CC(=O)[N-]c1ccccc1OC)C(=O)c1ccccc1C(=O)/N=c1/[n-]cccc1O (3D coordinates assigned)
CCN(CC(=O)[N-]c1ccccc1OC)C(=O)c1ccccc1C(=O)/N=c1/[n-]cccc1O (optimized conformer: 75.01111208407903 kcal/mol)

>  <smiles>  (63) 
CCN(CC(=O)Nc1ccccc1OC)C(=O)c1ccccc1C(=O)N=c1[nH]cccc1O

>  <score_type>  (63) 
oracle

>  <origin>  (63) 
adg

>  <m_score__min__energy>  (63) 
-12.050000000000001

>  <m_primary>  (63) 
energy

$$$$
63:0
     RDKit          3D

 41 43  0  0  0  0  0  0  0  0999 V2000
   55.1460   26.3570   45.9970 N   0  0  0  0  0  0  0  0  0  0  0  0
   56.5580   26.3680   45.8000 C   0  0  0  0  0  0  0  0  0  0  0  0
   57.1230   25.3350   45.3500 O   0  0  0  0  0  0  0  0  0  0  0  0
   57.3540   27.5770   46.1190 C   0  0  0  0  0  0  0  0  0  0  0  0
   57.3790   28.6740   45.2440 C   0  0  0  0  0  0  0  0  0  0  0  0
   58.1070   29.7790   45.5500 N   0  0  0  0  0  0  0  0  0  0  0  0
   58.8260   29.8780   46.7000 C   0  0  0  0  0  0  0  0  0  0  0  0
   58.8540   28.7970   47.5990 C   0  0  0  0  0  0  0  0  0  0  0  0
   58.0990   27.6530   47.3060 C   0  0  0  0  0  0  0  0  0  0  0  0
   59.5970   28.8880   48.9040 C   0  0  0  0  0  0  0  0  0  0  0  0
   60.6020   30.0500   48.9150 C   0  0  0  0  0  0  0  0  0  0  0  0
   60.0240   31.2930   48.3630 N   0  0  0  0  0  0  0  0  0  0  0  0
   58.9080   31.8160   49.1800 C   0  0  0  0  0  0  0  0  0  0  0  0
   59.3500   33.0330   49.9300 C   0  0  0  0  0  0  0  0  0  0  0  0
   59.1540   33.1040   51.1750 O   0  0  0  0  0  0  0  0  0  0  0  0
   59.9920   34.1060   49.2330 N   0  0  0  0  0  0  0  0  0  0  0  0
   61.1950   33.9650   48.4650 C   0  0  0  0  0  0  0  0  0  0  0  0
   62.3780   33.6640   49.1540 C   0  0  0  0  0  0  0  0  0  0  0  0
   63.5670   33.4350   48.4600 C   0  0  0  0  0  0  0  0  0  0  0  0
   63.5880   33.5140   47.0690 C   0  0  0  0  0  0  0  0  0  0  0  0
   62.4270   33.8460   46.3690 C   0  0  0  0  0  0  0  0  0  0  0  0
   61.2230   34.0990   47.0520 C   0  0  0  0  0  0  0  0  0  0  0  0
   60.0500   34.5660   46.2760 C   0  0  0  0  0  0  0  0  0  0  0  0
   59.3820   33.7520   45.5850 O   0  0  0  0  0  0  0  0  0  0  0  0
   59.6990   35.9090   46.2590 O   0  0  0  0  0  0  0  0  0  0  0  0
   59.6540   31.1140   46.9420 C   0  0  0  0  0  0  0  0  0  0  0  0
   54.6820   27.0710   46.6030 H   0  0  0  0  0  0  0  0  0  0  0  0
   56.8061   28.6387   44.3056 H   0  0  0  0  0  0  0  0  0  0  0  0
   58.0903   26.8089   48.0113 H   0  0  0  0  0  0  0  0  0  0  0  0
   58.8707   29.0391   49.7162 H   0  0  0  0  0  0  0  0  0  0  0  0
   60.1586   27.9521   49.0409 H   0  0  0  0  0  0  0  0  0  0  0  0
   60.9171   30.2360   49.9523 H   0  0  0  0  0  0  0  0  0  0  0  0
   61.4555   29.7644   48.2825 H   0  0  0  0  0  0  0  0  0  0  0  0
   58.0667   32.0791   48.5219 H   0  0  0  0  0  0  0  0  0  0  0  0
   58.5928   31.0441   49.8975 H   0  0  0  0  0  0  0  0  0  0  0  0
   62.3691   33.6077   50.2525 H   0  0  0  0  0  0  0  0  0  0  0  0
   64.4875   33.1922   49.0111 H   0  0  0  0  0  0  0  0  0  0  0  0
   64.5211   33.3144   46.5217 H   0  0  0  0  0  0  0  0  0  0  0  0
   62.4535   33.9106   45.2712 H   0  0  0  0  0  0  0  0  0  0  0  0
   59.0765   31.9919   46.6169 H   0  0  0  0  0  0  0  0  0  0  0  0
   60.5873   31.0018   46.3707 H   0  0  0  0  0  0  0  0  0  0  0  0
  1  2  1  0
  2  3  2  0
  2  4  1  0
  4  5  2  0
  5  6  1  0
  6  7  2  0
  7  8  1  0
  8  9  2  0
  8 10  1  0
 10 11  1  0
 11 12  1  0
 12 13  1  0
 13 14  1  0
 14 15  2  0
 14 16  1  0
 16 17  1  0
 17 18  2  0
 18 19  1  0
 19 20  2  0
 20 21  1  0
 21 22  2  0
 22 23  1  0
 23 24  2  0
 23 25  1  0
 12 26  1  0
  9  4  1  0
 22 17  1  0
 26  7  1  0
  1 27  1  0
  5 28  1  0
  9 29  1  0
 10 30  1  0
 10 31  1  0
 11 32  1  0
 11 33  1  0
 13 34  1  0
 13 35  1  0
 18 36  1  0
 19 37  1  0
 20 38  1  0
 21 39  1  0
 26 40  1  0
 26 41  1  0
M  CHG  3   1  -1  16  -1  25  -1
M  END
>  <UniqueID>  (64) 
62

>  <SMILES>  (64) 
[NH-]C(=O)c1cnc2c(c1)CCN(CC(=O)[N-]c1ccccc1C(=O)[O-])C2

>  <Energy>  (64) 
58.50976151402179

>  <Genealogy>  (64) 
[NH-]C(=O)c1cnc2c(c1)CCN(CC(=O)[N-]c1ccccc1C(=O)[O-])C2 (protonated)
[NH-]C(=O)c1cnc2c(c1)CCN(CC(=O)[N-]c1ccccc1C(=O)[O-])C2 (3D coordinates assigned)
[NH-]C(=O)c1cnc2c(c1)CCN(CC(=O)[N-]c1ccccc1C(=O)[O-])C2 (nonaromatic ring conformer: 58.50976151402179 kcal/mol)

>  <smiles>  (64) 
NC(=O)c1cnc2c(c1)CCN(CC(=O)Nc1ccccc1C(=O)O)C2

>  <score_type>  (64) 
oracle

>  <origin>  (64) 
adg

>  <m_score__min__energy>  (64) 
-13.67

>  <m_primary>  (64) 
energy

$$$$
64:0
     RDKit          3D

 48 50  0  0  1  0  0  0  0  0999 V2000
   56.7560   24.0180   43.3840 C   0  0  0  0  0  0  0  0  0  0  0  0
   57.3090   24.1280   44.7720 C   0  0  0  0  0  0  0  0  0  0  0  0
   58.3400   25.1360   44.9110 N   0  0  0  0  0  0  0  0  0  0  0  0
   58.0850   26.3980   45.0280 C   0  0  0  0  0  0  0  0  0  0  0  0
   58.1950   27.0580   46.2550 C   0  0  0  0  0  0  0  0  0  0  0  0
   57.9200   28.4130   46.3750 C   0  0  0  0  0  0  0  0  0  0  0  0
   57.5300   29.0900   45.2320 C   0  0  0  0  0  0  0  0  0  0  0  0
   57.2140   30.5100   45.2280 C   0  0  0  0  0  0  0  0  0  0  0  0
   56.2760   30.8920   44.4860 O   0  0  0  0  0  0  0  0  0  0  0  0
   57.8850   31.4800   45.9940 N   0  0  0  0  0  0  0  0  0  0  0  0
   57.4810   32.8650   45.9060 C   0  0  0  0  0  0  0  0  0  0  0  0
   58.6370   33.8120   45.8020 C   0  0  0  0  0  0  0  0  0  0  0  0
   59.8430   33.3930   46.3710 N   0  0  0  0  0  0  0  0  0  0  0  0
   60.7120   34.3460   46.9480 C   0  0  0  0  0  0  0  0  0  0  0  0
   62.0620   33.8280   47.2910 C   0  0  0  0  0  0  0  0  0  0  0  0
   63.1490   33.6760   46.4240 C   0  0  0  0  0  0  0  0  0  0  0  0
   64.1460   33.1800   47.1710 N   0  0  0  0  0  0  0  0  0  0  0  0
   63.7630   33.0090   48.4450 C   0  0  0  0  0  0  0  0  0  0  0  0
   64.5310   32.4920   49.6080 C   0  0  0  0  0  0  0  0  0  0  0  0
   62.4940   33.4040   48.5170 N   0  0  0  0  0  0  0  0  0  0  0  0
   60.1450   32.0270   46.4920 C   0  0  0  0  0  0  0  0  0  0  0  0
   58.9880   31.1760   46.8930 C   0  0  0  0  0  0  0  0  0  0  0  0
   57.4220   28.4260   44.0180 C   0  0  0  0  0  0  0  0  0  0  0  0
   57.6990   27.0970   43.9270 N   0  0  0  0  0  0  0  0  0  0  0  0
   55.6783   23.8036   43.4346 H   0  0  0  0  0  0  0  0  0  0  0  0
   56.9166   24.9657   42.8491 H   0  0  0  0  0  0  0  0  0  0  0  0
   57.2671   23.2039   42.8491 H   0  0  0  0  0  0  0  0  0  0  0  0
   56.4842   24.3786   45.4553 H   0  0  0  0  0  0  0  0  0  0  0  0
   57.7728   23.1595   45.0104 H   0  0  0  0  0  0  0  0  0  0  0  0
   58.5063   26.4912   47.1449 H   0  0  0  0  0  0  0  0  0  0  0  0
   58.0086   28.9298   47.3420 H   0  0  0  0  0  0  0  0  0  0  0  0
   56.8470   32.9882   45.0155 H   0  0  0  0  0  0  0  0  0  0  0  0
   56.9424   33.1077   46.8339 H   0  0  0  0  0  0  0  0  0  0  0  0
   58.8196   33.9996   44.7336 H   0  0  0  0  0  0  0  0  0  0  0  0
   58.3374   34.6995   46.3787 H   0  0  0  0  0  0  0  0  0  0  0  0
   60.8340   35.1746   46.2348 H   0  0  0  0  0  0  0  0  0  0  0  0
   60.2480   34.6557   47.8960 H   0  0  0  0  0  0  0  0  0  0  0  0
   63.1797   33.9143   45.3505 H   0  0  0  0  0  0  0  0  0  0  0  0
   65.0830   32.9650   46.7890 H   0  0  0  0  0  0  0  0  0  0  0  0
   64.0473   32.8176   50.5408 H   0  0  0  0  0  0  0  0  0  0  0  0
   64.5554   31.3929   49.5719 H   0  0  0  0  0  0  0  0  0  0  0  0
   65.5585   32.8830   49.5719 H   0  0  0  0  0  0  0  0  0  0  0  0
   60.5158   31.6687   45.5203 H   0  0  0  0  0  0  0  0  0  0  0  0
   60.8932   31.9396   47.2936 H   0  0  0  0  0  0  0  0  0  0  0  0
   59.2577   30.1129   46.8095 H   0  0  0  0  0  0  0  0  0  0  0  0
   58.7030   31.3785   47.9360 H   0  0  0  0  0  0  0  0  0  0  0  0
   57.1093   28.9797   43.1204 H   0  0  0  0  0  0  0  0  0  0  0  0
   57.6060   26.6310   42.9980 H   0  0  0  0  0  0  0  0  0  0  0  0
  1  2  1  0
  2  3  1  0
  3  4  2  0
  4  5  1  0
  5  6  2  0
  6  7  1  0
  7  8  1  0
  8  9  2  0
  8 10  1  0
 10 11  1  0
 11 12  1  0
 12 13  1  0
 13 14  1  0
 14 15  1  0
 15 16  2  0
 16 17  1  0
 17 18  1  0
 18 19  1  0
 18 20  2  0
 13 21  1  0
 21 22  1  0
  7 23  2  0
 23 24  1  0
 24  4  1  0
 22 10  1  0
 20 15  1  0
  1 25  1  0
  1 26  1  0
  1 27  1  0
  2 28  1  0
  2 29  1  0
  5 30  1  0
  6 31  1  0
 11 32  1  0
 11 33  1  0
 12 34  1  0
 12 35  1  0
 14 36  1  0
 14 37  1  0
 16 38  1  0
 17 39  1  0
 19 40  1  0
 19 41  1  0
 19 42  1  0
 21 43  1  0
 21 44  1  0
 22 45  1  0
 22 46  1  0
 23 47  1  0
 24 48  1  0
M  END
>  <smiles>  (65) 
CCN=c1ccc(C(=O)N2CCN(Cc3c[nH]c(C)n3)CC2)c[nH]1

>  <score_type>  (65) 
oracle

>  <origin>  (65) 
adg

>  <m_score__min__energy>  (65) 
-7.6699999999999999

>  <m_primary>  (65) 
energy

$$$$
65:0
     RDKit          3D

 41 43  0  0  0  0  0  0  0  0999 V2000
   60.1880   28.1690   47.5720 O   0  0  0  0  0  0  0  0  0  0  0  0
   60.1190   28.7050   46.4360 C   0  0  0  0  0  0  0  0  0  0  0  0
   60.7320   29.9870   46.2310 N   0  0  0  0  0  0  0  0  0  0  0  0
   60.4890   31.0920   46.8810 C   0  0  0  0  0  0  0  0  0  0  0  0
   59.2130   31.4160   47.3880 C   0  0  0  0  0  0  0  0  0  0  0  0
   59.0270   32.6210   48.0700 C   0  0  0  0  0  0  0  0  0  0  0  0
   60.0740   33.4670   48.2570 N   0  0  0  0  0  0  0  0  0  0  0  0
   61.3190   33.1720   47.8000 C   0  0  0  0  0  0  0  0  0  0  0  0
   61.5480   31.9790   47.1110 C   0  0  0  0  0  0  0  0  0  0  0  0
   59.4550   28.0030   45.3760 N   0  0  0  0  0  0  0  0  0  0  0  0
   58.4460   26.9880   45.5200 C   0  0  0  0  0  0  0  0  0  0  0  0
   58.8060   25.6320   45.6140 C   0  0  0  0  0  0  0  0  0  0  0  0
   57.8340   24.6530   45.8160 C   0  0  0  0  0  0  0  0  0  0  0  0
   56.4940   25.0150   45.9460 C   0  0  0  0  0  0  0  0  0  0  0  0
   56.1170   26.3580   45.8770 C   0  0  0  0  0  0  0  0  0  0  0  0
   54.7700   26.6850   46.0050 O   0  0  0  0  0  0  0  0  0  0  0  0
   57.0880   27.3600   45.6660 C   0  0  0  0  0  0  0  0  0  0  0  0
   56.6820   28.7850   45.6000 C   0  0  0  0  0  0  0  0  0  0  0  0
   57.3560   29.6620   46.2060 O   0  0  0  0  0  0  0  0  0  0  0  0
   55.5230   29.1650   44.8520 N   0  0  0  0  0  0  0  0  0  0  0  0
   55.5770   29.7410   43.5160 C   0  0  0  0  0  0  0  0  0  0  0  0
   56.5000   30.9280   43.5110 C   0  0  0  0  0  0  0  0  0  0  0  0
   57.2520   31.2280   42.3630 C   0  0  0  0  0  0  0  0  0  0  0  0
   58.1460   32.3020   42.3670 C   0  0  0  0  0  0  0  0  0  0  0  0
   58.3000   33.0800   43.5170 C   0  0  0  0  0  0  0  0  0  0  0  0
   57.5610   32.7860   44.6660 C   0  0  0  0  0  0  0  0  0  0  0  0
   56.6660   31.7110   44.6660 C   0  0  0  0  0  0  0  0  0  0  0  0
   58.3696   30.7240   47.2472 H   0  0  0  0  0  0  0  0  0  0  0  0
   58.0316   32.8854   48.4562 H   0  0  0  0  0  0  0  0  0  0  0  0
   62.1480   33.8740   47.9730 H   0  0  0  0  0  0  0  0  0  0  0  0
   62.5583   31.7365   46.7497 H   0  0  0  0  0  0  0  0  0  0  0  0
   59.8633   25.3411   45.5274 H   0  0  0  0  0  0  0  0  0  0  0  0
   58.1248   23.5937   45.8729 H   0  0  0  0  0  0  0  0  0  0  0  0
   55.7301   24.2393   46.1036 H   0  0  0  0  0  0  0  0  0  0  0  0
   55.9487   28.9862   42.8075 H   0  0  0  0  0  0  0  0  0  0  0  0
   54.5684   30.0635   43.2181 H   0  0  0  0  0  0  0  0  0  0  0  0
   57.1366   30.6149   41.4570 H   0  0  0  0  0  0  0  0  0  0  0  0
   58.7290   32.5350   41.4638 H   0  0  0  0  0  0  0  0  0  0  0  0
   59.0040   33.9252   43.5181 H   0  0  0  0  0  0  0  0  0  0  0  0
   57.6831   33.4000   45.5705 H   0  0  0  0  0  0  0  0  0  0  0  0
   56.0899   31.4777   45.5736 H   0  0  0  0  0  0  0  0  0  0  0  0
  1  2  2  0
  2  3  1  0
  3  4  2  3
  4  5  1  0
  5  6  2  0
  6  7  1  0
  7  8  1  0
  8  9  2  0
  2 10  1  0
 10 11  1  0
 11 12  2  0
 12 13  1  0
 13 14  2  0
 14 15  1  0
 15 16  1  0
 15 17  2  0
 17 18  1  0
 18 19  2  0
 18 20  1  0
 20 21  1  0
 21 22  1  0
 22 23  2  0
 23 24  1  0
 24 25  2  0
 25 26  1  0
 26 27  2  0
  9  4  1  0
 17 11  1  0
 27 22  1  0
  5 28  1  0
  6 29  1  0
  8 30  1  0
  9 31  1  0
 12 32  1  0
 13 33  1  0
 14 34  1  0
 21 35  1  0
 21 36  1  0
 23 37  1  0
 24 38  1  0
 25 39  1  0
 26 40  1  0
 27 41  1  0
M  CHG  4   7  -1  10  -1  16  -1  20  -1
M  END
>  <UniqueID>  (66) 
63

>  <SMILES>  (66) 
O=C(N=c1cc[n-]cc1)[N-]c1cccc([O-])c1C(=O)[N-]Cc1ccccc1

>  <Energy>  (66) 
57.9637904766093

>  <Genealogy>  (66) 
O=C(N=c1cc[n-]cc1)[N-]c1cccc([O-])c1C(=O)[N-]Cc1ccccc1 (protonated)
O=C(N=c1cc[n-]cc1)[N-]c1cccc([O-])c1C(=O)[N-]Cc1ccccc1 (3D coordinates assigned)
O=C(N=c1cc[n-]cc1)[N-]c1cccc([O-])c1C(=O)[N-]Cc1ccccc1 (optimized conformer: 57.9637904766093 kcal/mol)

>  <smiles>  (66) 
O=C(N=c1cc[nH]cc1)Nc1cccc(O)c1C(=O)NCc1ccccc1

>  <score_type>  (66) 
oracle

>  <origin>  (66) 
adg

>  <m_score__min__energy>  (66) 
-15.18

>  <m_primary>  (66) 
energy

$$$$
66:0
     RDKit          3D

 63 67  0  0  0  0  0  0  0  0999 V2000
   54.7471   28.8021   43.3877 H   0  0  0  0  0  0  0  0  0  0  0  0
   55.2240   29.7120   43.7810 C   0  0  0  0  0  0  0  0  0  0  0  0
   54.7536   30.2668   44.6062 H   0  0  0  0  0  0  0  0  0  0  0  0
   56.3710   30.1420   43.2580 C   0  0  0  0  0  0  0  0  0  0  0  0
   56.8189   29.5676   42.4337 H   0  0  0  0  0  0  0  0  0  0  0  0
   57.0680   31.3500   43.7310 C   0  0  0  0  0  0  0  0  0  0  0  0
   56.9780   31.8070   44.9540 O   0  0  0  0  0  0  0  0  0  0  0  0
   57.7240   32.8860   45.0050 C   0  0  0  0  0  0  0  0  0  0  0  0
   57.8650   33.6180   46.0680 N   0  0  0  0  0  0  0  0  0  0  0  0
   58.9330   33.4370   47.0550 C   0  0  1  0  0  0  0  0  0  0  0  0
   59.1209   34.3862   47.5782 H   0  0  0  0  0  0  0  0  0  0  0  0
   58.4930   32.3880   48.0980 C   0  0  0  0  0  0  0  0  0  0  0  0
   57.3983   32.4196   48.2008 H   0  0  0  0  0  0  0  0  0  0  0  0
   58.9761   32.6229   49.0579 H   0  0  0  0  0  0  0  0  0  0  0  0
   58.9170   30.9760   47.6680 C   0  0  0  0  0  0  0  0  0  0  0  0
   58.4708   30.7568   46.6868 H   0  0  0  0  0  0  0  0  0  0  0  0
   58.5663   30.2722   48.4372 H   0  0  0  0  0  0  0  0  0  0  0  0
   60.3990   30.8330   47.5630 N   0  0  1  0  0  0  0  0  0  0  0  0
   60.7570   30.5260   48.5000 H   0  0  0  0  0  0  0  0  0  0  0  0
   60.7640   29.7810   46.5810 C   0  0  0  0  0  0  0  0  0  0  0  0
   61.0178   30.2609   45.6243 H   0  0  0  0  0  0  0  0  0  0  0  0
   61.6206   29.2215   46.9849 H   0  0  0  0  0  0  0  0  0  0  0  0
   59.6330   28.8030   46.3520 C   0  0  0  0  0  0  0  0  0  0  0  0
   59.2530   27.8980   47.3550 C   0  0  0  0  0  0  0  0  0  0  0  0
   59.7915   27.8866   48.3141 H   0  0  0  0  0  0  0  0  0  0  0  0
   58.1940   27.0110   47.1420 C   0  0  0  0  0  0  0  0  0  0  0  0
   57.9057   26.3050   47.9347 H   0  0  0  0  0  0  0  0  0  0  0  0
   57.4940   27.0140   45.9220 C   0  0  0  0  0  0  0  0  0  0  0  0
   56.3460   26.1020   45.7040 C   0  0  0  0  0  0  0  0  0  0  0  0
   55.1820   26.4730   46.0150 O   0  0  0  0  0  0  0  0  0  0  0  0
   56.5430   24.7810   45.1700 N   0  0  0  0  0  0  0  0  0  0  0  0
   56.5780   23.6210   46.0400 C   0  0  0  0  0  0  0  0  0  0  0  0
   56.1670   23.7020   47.3880 C   0  0  0  0  0  0  0  0  0  0  0  0
   55.8197   24.6632   47.7947 H   0  0  0  0  0  0  0  0  0  0  0  0
   56.1970   22.5740   48.2100 C   0  0  0  0  0  0  0  0  0  0  0  0
   55.8751   22.6512   49.2590 H   0  0  0  0  0  0  0  0  0  0  0  0
   56.6340   21.3490   47.7050 C   0  0  0  0  0  0  0  0  0  0  0  0
   56.6671   20.4650   48.3588 H   0  0  0  0  0  0  0  0  0  0  0  0
   57.0290   21.2450   46.3710 C   0  0  0  0  0  0  0  0  0  0  0  0
   57.3769   20.2785   45.9774 H   0  0  0  0  0  0  0  0  0  0  0  0
   56.9850   22.3670   45.5280 C   0  0  0  0  0  0  0  0  0  0  0  0
   57.4300   22.2330   44.0960 C   0  0  0  0  0  0  0  0  0  0  0  0
   57.1627   21.2312   43.7288 H   0  0  0  0  0  0  0  0  0  0  0  0
   58.5190   22.3823   44.0527 H   0  0  0  0  0  0  0  0  0  0  0  0
   56.7600   23.2840   43.2120 C   0  0  0  0  0  0  0  0  0  0  0  0
   55.6777   23.0910   43.1752 H   0  0  0  0  0  0  0  0  0  0  0  0
   57.1872   23.2260   42.2000 H   0  0  0  0  0  0  0  0  0  0  0  0
   57.0040   24.6840   43.7760 C   0  0  0  0  0  0  0  0  0  0  0  0
   56.4578   25.4177   43.1650 H   0  0  0  0  0  0  0  0  0  0  0  0
   58.0847   24.8877   43.7503 H   0  0  0  0  0  0  0  0  0  0  0  0
   57.9010   27.8980   44.9070 C   0  0  0  0  0  0  0  0  0  0  0  0
   57.3815   27.8923   43.9374 H   0  0  0  0  0  0  0  0  0  0  0  0
   58.9610   28.7840   45.1210 C   0  0  0  0  0  0  0  0  0  0  0  0
   59.2700   29.4705   44.3190 H   0  0  0  0  0  0  0  0  0  0  0  0
   61.0970   32.1120   47.2450 C   0  0  0  0  0  0  0  0  0  0  0  0
   62.0380   31.8813   46.7242 H   0  0  0  0  0  0  0  0  0  0  0  0
   61.2808   32.6394   48.1927 H   0  0  0  0  0  0  0  0  0  0  0  0
   60.2520   33.0310   46.3530 C   0  0  0  0  0  0  0  0  0  0  0  0
   60.0128   32.5025   45.4184 H   0  0  0  0  0  0  0  0  0  0  0  0
   60.8309   33.9432   46.1464 H   0  0  0  0  0  0  0  0  0  0  0  0
   58.3320   33.1750   43.8360 N   0  0  0  0  0  0  0  0  0  0  0  0
   57.9080   32.1900   43.0210 C   0  0  0  0  0  0  0  0  0  0  0  0
   58.1845   32.0723   41.9628 H   0  0  0  0  0  0  0  0  0  0  0  0
  1  2  1  0
  2  3  1  0
  2  4  2  0
  4  5  1  0
  4  6  1  0
  6  7  1  0
  7  8  1  0
  8  9  2  0
  9 10  1  0
 10 11  1  6
 10 12  1  0
 12 13  1  0
 12 14  1  0
 12 15  1  0
 15 16  1  0
 15 17  1  0
 15 18  1  0
 18 19  1  6
 18 20  1  0
 20 21  1  0
 20 22  1  0
 20 23  1  0
 23 24  2  0
 24 25  1  0
 24 26  1  0
 26 27  1  0
 26 28  2  0
 28 29  1  0
 29 30  2  0
 29 31  1  0
 31 32  1  0
 32 33  2  0
 33 34  1  0
 33 35  1  0
 35 36  1  0
 35 37  2  0
 37 38  1  0
 37 39  1  0
 39 40  1  0
 39 41  2  0
 41 42  1  0
 42 43  1  0
 42 44  1  0
 42 45  1  0
 45 46  1  0
 45 47  1  0
 45 48  1  0
 48 49  1  0
 48 50  1  0
 28 51  1  0
 51 52  1  0
 51 53  2  0
 53 54  1  0
 18 55  1  0
 55 56  1  0
 55 57  1  0
 55 58  1  0
 58 59  1  0
 58 60  1  0
  8 61  1  0
 61 62  1  0
 62 63  1  0
 62  6  2  0
 58 10  1  0
 53 23  1  0
 48 31  1  0
 41 32  1  0
M  CHG  2  18   1  61  -1
M  END
>  <UniqueID>  (67) 
64

>  <SMILES>  (67) 
C=Cc1c[n-]/c(=N/C2CC[NH+](Cc3ccc(C(=O)N4CCCc5ccccc54)cc3)CC2)o1

>  <Energy>  (67) 
112.30462216439979

>  <Genealogy>  (67) 
C=Cc1c[n-]c(=NC2CC[NH+](Cc3ccc(C(=O)N4CCCc5ccccc54)cc3)CC2)o1 (protonated)
C=Cc1c[n-]/c(=N/C2CC[NH+](Cc3ccc(C(=O)N4CCCc5ccccc54)cc3)CC2)o1 (cis-trans isomerization)
C=Cc1c[n-]/c(=N/C2CC[NH+](Cc3ccc(C(=O)N4CCCc5ccccc54)cc3)CC2)o1 (3D coordinates assigned)
C=Cc1c[n-]/c(=N/C2CC[NH+](Cc3ccc(C(=O)N4CCCc5ccccc54)cc3)CC2)o1 (nonaromatic ring conformer: 112.30462216439979 kcal/mol)

>  <smiles>  (67) 
C=Cc1c[nH]c(=NC2CCN(Cc3ccc(C(=O)N4CCCc5ccccc54)cc3)CC2)o1

>  <score_type>  (67) 
oracle

>  <origin>  (67) 
adg

>  <m_score__min__energy>  (67) 
-9.3300000000000001

>  <m_primary>  (67) 
energy

$$$$
67:0
     RDKit          3D

 51 54  0  0  1  0  0  0  0  0999 V2000
   55.6630   22.7000   46.9880 C   0  0  0  0  0  0  0  0  0  0  0  0
   55.9720   22.9590   45.5710 C   0  0  0  0  0  0  0  0  0  0  0  0
   56.0230   21.8810   44.7130 C   0  0  0  0  0  0  0  0  0  0  0  0
   56.3130   22.1260   43.3940 C   0  0  0  0  0  0  0  0  0  0  0  0
   56.3580   21.1470   42.6190 O   0  0  0  0  0  0  0  0  0  0  0  0
   56.5380   23.3570   42.9490 N   0  0  0  0  0  0  0  0  0  0  0  0
   56.5010   24.4580   43.7560 C   0  0  0  0  0  0  0  0  0  0  0  0
   56.2130   24.2580   45.0910 C   0  0  0  0  0  0  0  0  0  0  0  0
   56.1590   25.4080   46.0220 C   0  0  0  0  0  0  0  0  0  0  0  0
   55.1470   26.1320   45.9740 O   0  0  0  0  0  0  0  0  0  0  0  0
   57.2650   25.5730   46.8750 N   0  0  0  0  0  0  0  0  0  0  0  0
   58.1410   26.4750   46.6180 C   0  0  0  0  0  0  0  0  0  0  0  0
   57.8440   27.7860   46.3150 C   0  0  0  0  0  0  0  0  0  0  0  0
   58.8600   28.6890   46.0510 C   0  0  0  0  0  0  0  0  0  0  0  0
   58.6000   30.0580   45.7260 N   0  0  0  0  0  0  0  0  0  0  0  0
   58.3650   30.4370   44.3730 C   0  0  0  0  0  0  0  0  0  0  0  0
   57.8310   31.8340   44.2020 C   0  0  0  0  0  0  0  0  0  0  0  0
   58.4500   32.7240   45.1580 N   0  0  0  0  0  0  0  0  0  0  0  0
   58.1420   34.1130   44.9260 C   0  0  0  0  0  0  0  0  0  0  0  0
   59.2430   35.0500   45.3370 C   0  0  0  0  0  0  0  0  0  0  0  0
   60.4380   34.3350   46.0020 C   0  0  0  0  0  0  0  0  0  0  0  0
   59.5670   35.3100   46.7410 C   0  0  0  0  0  0  0  0  0  0  0  0
   58.0720   32.3470   46.5050 C   0  0  0  0  0  0  0  0  0  0  0  0
   58.5940   31.0000   46.8530 C   0  0  0  0  0  0  0  0  0  0  0  0
   60.1150   28.2030   46.1120 N   0  0  0  0  0  0  0  0  0  0  0  0
   60.4060   26.9260   46.4070 C   0  0  0  0  0  0  0  0  0  0  0  0
   59.4410   26.0470   46.6630 N   0  0  0  0  0  0  0  0  0  0  0  0
   56.3506   23.2763   47.6245 H   0  0  0  0  0  0  0  0  0  0  0  0
   54.6269   23.0035   47.1988 H   0  0  0  0  0  0  0  0  0  0  0  0
   55.7808   21.6268   47.1988 H   0  0  0  0  0  0  0  0  0  0  0  0
   55.8374   20.8585   45.0736 H   0  0  0  0  0  0  0  0  0  0  0  0
   56.7520   23.4840   41.9450 H   0  0  0  0  0  0  0  0  0  0  0  0
   56.6932   25.4651   43.3576 H   0  0  0  0  0  0  0  0  0  0  0  0
   56.7954   28.1166   46.2827 H   0  0  0  0  0  0  0  0  0  0  0  0
   59.3158   30.3627   43.8249 H   0  0  0  0  0  0  0  0  0  0  0  0
   57.5925   29.7562   43.9861 H   0  0  0  0  0  0  0  0  0  0  0  0
   58.0509   32.1851   43.1830 H   0  0  0  0  0  0  0  0  0  0  0  0
   56.7438   31.8264   44.3694 H   0  0  0  0  0  0  0  0  0  0  0  0
   57.9499   34.2520   43.8518 H   0  0  0  0  0  0  0  0  0  0  0  0
   57.2642   34.3563   45.5427 H   0  0  0  0  0  0  0  0  0  0  0  0
   59.0452   35.7333   44.4980 H   0  0  0  0  0  0  0  0  0  0  0  0
   60.3875   33.2599   46.2292 H   0  0  0  0  0  0  0  0  0  0  0  0
   61.5136   34.2312   45.7964 H   0  0  0  0  0  0  0  0  0  0  0  0
   58.8927   34.9452   47.5298 H   0  0  0  0  0  0  0  0  0  0  0  0
   59.7676   36.2236   47.3198 H   0  0  0  0  0  0  0  0  0  0  0  0
   58.4811   33.0839   47.2119 H   0  0  0  0  0  0  0  0  0  0  0  0
   56.9739   32.3207   46.5639 H   0  0  0  0  0  0  0  0  0  0  0  0
   59.6258   31.1113   47.2176 H   0  0  0  0  0  0  0  0  0  0  0  0
   57.9209   30.5826   47.6163 H   0  0  0  0  0  0  0  0  0  0  0  0
   60.9060   28.8580   45.9160 H   0  0  0  0  0  0  0  0  0  0  0  0
   61.4568   26.6022   46.4374 H   0  0  0  0  0  0  0  0  0  0  0  0
  1  2  1  0
  2  3  2  0
  3  4  1  0
  4  5  2  0
  4  6  1  0
  6  7  1  0
  7  8  2  0
  8  9  1  0
  9 10  2  0
  9 11  1  0
 11 12  2  0
 12 13  1  0
 13 14  2  0
 14 15  1  0
 15 16  1  0
 16 17  1  0
 17 18  1  0
 18 19  1  0
 19 20  1  0
 20 21  1  0
 21 22  1  0
 18 23  1  0
 23 24  1  0
 14 25  1  0
 25 26  1  0
 26 27  2  0
  8  2  1  0
 27 12  1  0
 24 15  1  0
 22 20  1  0
  1 28  1  0
  1 29  1  0
  1 30  1  0
  3 31  1  0
  6 32  1  0
  7 33  1  0
 13 34  1  0
 16 35  1  0
 16 36  1  0
 17 37  1  0
 17 38  1  0
 19 39  1  0
 19 40  1  0
 20 41  1  0
 21 42  1  0
 21 43  1  0
 22 44  1  0
 22 45  1  0
 23 46  1  0
 23 47  1  0
 24 48  1  0
 24 49  1  0
 25 50  1  0
 26 51  1  0
M  END
>  <smiles>  (68) 
Cc1cc(=O)[nH]cc1C(=O)N=c1cc(N2CCN(CC3CC3)CC2)[nH]cn1

>  <score_type>  (68) 
oracle

>  <origin>  (68) 
adg

>  <m_score__min__energy>  (68) 
-8.4700000000000006

>  <m_primary>  (68) 
energy

$$$$
68:0
     RDKit          3D

 70 75  0  0  0  0  0  0  0  0999 V2000
   55.0574   22.9676   46.4983 H   0  0  0  0  0  0  0  0  0  0  0  0
   56.0150   23.3860   46.1550 C   0  0  0  0  0  0  0  0  0  0  0  0
   56.4360   24.5200   46.7290 C   0  0  0  0  0  0  0  0  0  0  0  0
   56.9634   24.4426   47.6912 H   0  0  0  0  0  0  0  0  0  0  0  0
   56.2410   25.8620   46.1600 C   0  0  0  0  0  0  0  0  0  0  0  0
   55.1780   26.6920   46.0330 N   0  0  0  0  0  0  0  0  0  0  0  0
   55.9530   27.6020   45.4470 N   0  0  0  0  0  0  0  0  0  0  0  0
   55.9580   28.8380   44.9100 C   0  0  0  0  0  0  0  0  0  0  0  0
   55.0572   29.4688   44.8819 H   0  0  0  0  0  0  0  0  0  0  0  0
   57.2050   29.2730   44.3820 C   0  0  0  0  0  0  0  0  0  0  0  0
   57.3520   30.6260   43.8100 C   0  0  0  0  0  0  0  0  0  0  0  0
   56.9000   30.8380   42.6520 O   0  0  0  0  0  0  0  0  0  0  0  0
   58.0640   31.7170   44.5300 C   0  0  0  0  0  0  0  0  0  0  0  0
   58.1580   33.0070   43.9810 C   0  0  0  0  0  0  0  0  0  0  0  0
   57.7607   33.2017   42.9739 H   0  0  0  0  0  0  0  0  0  0  0  0
   58.7520   34.0440   44.7040 C   0  0  0  0  0  0  0  0  0  0  0  0
   58.8359   35.0453   44.2564 H   0  0  0  0  0  0  0  0  0  0  0  0
   59.2390   33.8160   45.9900 C   0  0  0  0  0  0  0  0  0  0  0  0
   59.6839   34.6437   46.5617 H   0  0  0  0  0  0  0  0  0  0  0  0
   59.1640   32.5320   46.5600 C   0  0  0  0  0  0  0  0  0  0  0  0
   59.5740   32.2860   47.9190 N   0  0  0  0  0  0  0  0  0  0  0  0
   60.0250   31.3690   48.1390 H   0  0  0  0  0  0  0  0  0  0  0  0
   59.3130   33.1770   49.0130 C   0  0  0  0  0  0  0  0  0  0  0  0
   59.4670   34.4160   48.8530 O   0  0  0  0  0  0  0  0  0  0  0  0
   58.8760   32.6400   50.3240 C   0  0  0  0  0  0  0  0  0  0  0  0
   57.7540   31.8490   50.5150 C   0  0  0  0  0  0  0  0  0  0  0  0
   57.0792   31.4593   49.7386 H   0  0  0  0  0  0  0  0  0  0  0  0
   57.6550   31.6490   51.8810 C   0  0  0  0  0  0  0  0  0  0  0  0
   56.5970   30.9510   52.5690 N   0  0  0  0  0  0  0  0  0  0  0  0
   56.8980   29.9740   53.6250 C   0  0  0  0  0  0  0  0  0  0  0  0
   57.9812   29.7829   53.6405 H   0  0  0  0  0  0  0  0  0  0  0  0
   56.5663   30.3860   54.5895 H   0  0  0  0  0  0  0  0  0  0  0  0
   56.1570   28.6500   53.3760 C   0  0  0  0  0  0  0  0  0  0  0  0
   56.7835   28.0152   52.7322 H   0  0  0  0  0  0  0  0  0  0  0  0
   55.9724   28.1908   54.3584 H   0  0  0  0  0  0  0  0  0  0  0  0
   54.7770   28.8370   52.6900 C   0  0  0  0  0  0  0  0  0  0  0  0
   54.9375   28.6780   51.6135 H   0  0  0  0  0  0  0  0  0  0  0  0
   53.8050   27.8520   53.1690 N   0  0  0  0  0  0  0  0  0  0  0  0
   53.3170   27.4150   52.3520 H   0  0  0  0  0  0  0  0  0  0  0  0
   53.0810   28.3510   53.7360 H   0  0  0  0  0  0  0  0  0  0  0  0
   54.2260   30.2590   52.8820 C   0  0  0  0  0  0  0  0  0  0  0  0
   53.2471   30.3412   52.3870 H   0  0  0  0  0  0  0  0  0  0  0  0
   54.1162   30.4637   53.9572 H   0  0  0  0  0  0  0  0  0  0  0  0
   55.1950   31.2800   52.2680 C   0  0  0  0  0  0  0  0  0  0  0  0
   55.0578   31.2897   51.1766 H   0  0  0  0  0  0  0  0  0  0  0  0
   54.9739   32.2660   52.7026 H   0  0  0  0  0  0  0  0  0  0  0  0
   58.7010   32.3270   52.4750 C   0  0  0  0  0  0  0  0  0  0  0  0
   58.8933   32.3764   53.5569 H   0  0  0  0  0  0  0  0  0  0  0  0
   59.4500   32.9190   51.5230 N   0  0  0  0  0  0  0  0  0  0  0  0
   60.6140   33.7640   51.7840 C   0  0  0  0  0  0  0  0  0  0  0  0
   60.7561   33.8672   52.8699 H   0  0  0  0  0  0  0  0  0  0  0  0
   61.5085   33.3035   51.3393 H   0  0  0  0  0  0  0  0  0  0  0  0
   60.4532   34.7572   51.3393 H   0  0  0  0  0  0  0  0  0  0  0  0
   58.5770   31.4910   45.8200 C   0  0  0  0  0  0  0  0  0  0  0  0
   58.5179   30.4832   46.2569 H   0  0  0  0  0  0  0  0  0  0  0  0
   58.3340   28.3830   44.4090 C   0  0  0  0  0  0  0  0  0  0  0  0
   59.2864   28.7096   43.9660 H   0  0  0  0  0  0  0  0  0  0  0  0
   58.2480   27.0950   44.9930 C   0  0  0  0  0  0  0  0  0  0  0  0
   59.0977   26.3977   45.0342 H   0  0  0  0  0  0  0  0  0  0  0  0
   57.0040   26.7940   45.5050 C   0  0  0  0  0  0  0  0  0  0  0  0
   56.7380   22.6550   45.0970 C   0  0  0  0  0  0  0  0  0  0  0  0
   56.0270   22.0540   44.1050 N   0  0  0  0  0  0  0  0  0  0  0  0
   56.6320   21.3520   43.1100 C   0  0  0  0  0  0  0  0  0  0  0  0
   56.0256   20.8882   42.3181 H   0  0  0  0  0  0  0  0  0  0  0  0
   58.0220   21.2190   43.0920 C   0  0  0  0  0  0  0  0  0  0  0  0
   58.5185   20.6681   42.2796 H   0  0  0  0  0  0  0  0  0  0  0  0
   58.7730   21.7940   44.1180 C   0  0  0  0  0  0  0  0  0  0  0  0
   59.8679   21.6882   44.1240 H   0  0  0  0  0  0  0  0  0  0  0  0
   58.1350   22.5030   45.1360 C   0  0  0  0  0  0  0  0  0  0  0  0
   58.7188   22.9384   45.9604 H   0  0  0  0  0  0  0  0  0  0  0  0
  1  2  1  0
  2  3  2  0
  3  4  1  0
  3  5  1  0
  5  6  1  0
  6  7  1  0
  7  8  1  0
  8  9  1  0
  8 10  2  0
 10 11  1  0
 11 12  2  0
 11 13  1  0
 13 14  2  0
 14 15  1  0
 14 16  1  0
 16 17  1  0
 16 18  2  0
 18 19  1  0
 18 20  1  0
 20 21  1  0
 21 22  1  0
 21 23  1  0
 23 24  2  0
 23 25  1  0
 25 26  2  0
 26 27  1  0
 26 28  1  0
 28 29  1  0
 29 30  1  0
 30 31  1  0
 30 32  1  0
 30 33  1  0
 33 34  1  0
 33 35  1  0
 33 36  1  0
 36 37  1  0
 36 38  1  0
 38 39  1  0
 38 40  1  0
 36 41  1  0
 41 42  1  0
 41 43  1  0
 41 44  1  0
 44 45  1  0
 44 46  1  0
 28 47  2  0
 47 48  1  0
 47 49  1  0
 49 50  1  0
 50 51  1  0
 50 52  1  0
 50 53  1  0
 20 54  2  0
 54 55  1  0
 10 56  1  0
 56 57  1  0
 56 58  2  0
 58 59  1  0
 58 60  1  0
  2 61  1  0
 61 62  2  0
 62 63  1  0
 63 64  1  0
 63 65  2  0
 65 66  1  0
 65 67  1  0
 67 68  1  0
 67 69  2  0
 69 70  1  0
 60  5  2  0
 69 61  1  0
 60  7  1  0
 54 13  1  0
 49 25  1  0
 44 29  1  0
M  CHG  1   6  -1
M  END
>  <UniqueID>  (69) 
65

>  <SMILES>  (69) 
Cn1cc(N2CCC(N)CC2)cc1C(=O)Nc1cccc(C(=O)c2ccc3c(/C=C\c4ccccn4)[n-]n3c2)c1

>  <Energy>  (69) 
140.29443981373362

>  <Genealogy>  (69) 
Cn1cc(N2CCC(N)CC2)cc1C(=O)Nc1cccc(C(=O)c2ccc3c(C=Cc4ccccn4)[n-]n3c2)c1 (protonated)
Cn1cc(N2CCC(N)CC2)cc1C(=O)Nc1cccc(C(=O)c2ccc3c(/C=C\c4ccccn4)[n-]n3c2)c1 (cis-trans isomerization)
Cn1cc(N2CCC(N)CC2)cc1C(=O)Nc1cccc(C(=O)c2ccc3c(/C=C\c4ccccn4)[n-]n3c2)c1 (3D coordinates assigned)
Cn1cc(N2CCC(N)CC2)cc1C(=O)Nc1cccc(C(=O)c2ccc3c(/C=C\c4ccccn4)[n-]n3c2)c1 (nonaromatic ring conformer: 140.29443981373362 kcal/mol)

>  <smiles>  (69) 
Cn1cc(N2CCC(N)CC2)cc1C(=O)Nc1cccc(C(=O)c2ccc3c(C=Cc4ccccn4)[nH]n3c2)c1

>  <score_type>  (69) 
oracle

>  <origin>  (69) 
adg

>  <m_score__min__energy>  (69) 
-12.970000000000001

>  <m_primary>  (69) 
energy

$$$$
69:0
     RDKit          3D

 68 71  0  0  0  0  0  0  0  0999 V2000
   58.2650   32.6070   42.5150 C   0  0  0  0  0  0  0  0  0  0  0  0
   58.4970   33.2150   43.8710 C   0  0  0  0  0  0  0  0  0  0  0  0
   59.4770   34.2050   44.0330 C   0  0  0  0  0  0  0  0  0  0  0  0
   59.6640   34.8170   45.2720 C   0  0  0  0  0  0  0  0  0  0  0  0
   58.8750   34.4520   46.3630 C   0  0  0  0  0  0  0  0  0  0  0  0
   57.8880   33.4670   46.2260 C   0  0  0  0  0  0  0  0  0  0  0  0
   57.0300   33.1110   47.4120 C   0  0  0  0  0  0  0  0  0  0  0  0
   57.6810   32.8590   44.9670 C   0  0  0  0  0  0  0  0  0  0  0  0
   56.6410   31.8850   44.7950 N   0  0  0  0  0  0  0  0  0  0  0  0
   56.8460   30.6030   44.8650 C   0  0  0  0  0  0  0  0  0  0  0  0
   55.9050   29.7410   45.3030 N   0  0  0  0  0  0  0  0  0  0  0  0
   56.3390   28.4550   45.2220 C   0  0  0  0  0  0  0  0  0  0  0  0
   55.5380   27.3920   45.6240 O   0  0  0  0  0  0  0  0  0  0  0  0
   57.6230   28.2840   44.7080 C   0  0  0  0  0  0  0  0  0  0  0  0
   58.3090   26.9540   44.4880 C   0  0  0  0  0  0  0  0  0  0  0  0
   59.0090   26.4400   45.6970 N   0  0  1  0  0  0  0  0  0  0  0  0
   58.6310   27.2220   46.9090 C   0  0  0  0  0  0  0  0  0  0  0  0
   59.8140   27.8050   47.6470 C   0  0  0  0  0  0  0  0  0  0  0  0
   60.9830   27.4690   47.3150 O   0  0  0  0  0  0  0  0  0  0  0  0
   59.6160   28.7750   48.6780 N   0  0  0  0  0  0  0  0  0  0  0  0
   60.2900   30.0380   48.6340 C   0  0  0  0  0  0  0  0  0  0  0  0
   61.4220   30.1330   48.0930 O   0  0  0  0  0  0  0  0  0  0  0  0
   59.6270   31.2090   49.1230 N   0  0  0  0  0  0  0  0  0  0  0  0
   59.8990   32.5330   48.5680 C   0  0  0  0  0  0  0  0  0  0  0  0
   61.3870   32.7760   48.5190 C   0  0  0  0  0  0  0  0  0  0  0  0
   62.1550   32.7310   49.6950 C   0  0  0  0  0  0  0  0  0  0  0  0
   63.5440   32.8870   49.6360 C   0  0  0  0  0  0  0  0  0  0  0  0
   64.1770   33.0810   48.4070 C   0  0  0  0  0  0  0  0  0  0  0  0
   63.4220   33.1260   47.2300 C   0  0  0  0  0  0  0  0  0  0  0  0
   62.0320   32.9680   47.2840 C   0  0  0  0  0  0  0  0  0  0  0  0
   58.7790   24.9800   45.8790 C   0  0  0  0  0  0  0  0  0  0  0  0
   57.4430   24.5310   45.3360 C   0  0  0  0  0  0  0  0  0  0  0  0
   56.2880   24.6430   46.1280 C   0  0  0  0  0  0  0  0  0  0  0  0
   55.0530   24.2080   45.6380 C   0  0  0  0  0  0  0  0  0  0  0  0
   54.9610   23.6560   44.3580 C   0  0  0  0  0  0  0  0  0  0  0  0
   56.1070   23.5310   43.5660 C   0  0  0  0  0  0  0  0  0  0  0  0
   57.3450   23.9570   44.0560 C   0  0  0  0  0  0  0  0  0  0  0  0
   58.2610   29.8120   44.3970 S   0  0  0  0  0  0  0  0  0  0  0  0
   57.8751   31.5852   42.6331 H   0  0  0  0  0  0  0  0  0  0  0  0
   57.5360   33.2158   41.9601 H   0  0  0  0  0  0  0  0  0  0  0  0
   59.2142   32.5754   41.9601 H   0  0  0  0  0  0  0  0  0  0  0  0
   60.1020   34.5006   43.1775 H   0  0  0  0  0  0  0  0  0  0  0  0
   60.4369   35.5908   45.3895 H   0  0  0  0  0  0  0  0  0  0  0  0
   59.0286   34.9404   47.3366 H   0  0  0  0  0  0  0  0  0  0  0  0
   57.5753   33.3373   48.3401 H   0  0  0  0  0  0  0  0  0  0  0  0
   56.0999   33.6975   47.3809 H   0  0  0  0  0  0  0  0  0  0  0  0
   56.7883   32.0383   47.3809 H   0  0  0  0  0  0  0  0  0  0  0  0
   57.5507   26.2170   44.1850 H   0  0  0  0  0  0  0  0  0  0  0  0
   59.0737   27.1086   43.7125 H   0  0  0  0  0  0  0  0  0  0  0  0
   60.0340   26.6040   45.5580 H   0  0  0  0  0  0  0  0  0  0  0  0
   57.9735   28.0476   46.5989 H   0  0  0  0  0  0  0  0  0  0  0  0
   58.1319   26.5257   47.5991 H   0  0  0  0  0  0  0  0  0  0  0  0
   58.7550   28.7010   49.2610 H   0  0  0  0  0  0  0  0  0  0  0  0
   58.7880   31.0950   49.7340 H   0  0  0  0  0  0  0  0  0  0  0  0
   59.4863   32.5931   47.5501 H   0  0  0  0  0  0  0  0  0  0  0  0
   59.4294   33.2957   49.2065 H   0  0  0  0  0  0  0  0  0  0  0  0
   61.6622   32.5725   50.6656 H   0  0  0  0  0  0  0  0  0  0  0  0
   64.1391   32.8567   50.5607 H   0  0  0  0  0  0  0  0  0  0  0  0
   65.2699   33.1985   48.3640 H   0  0  0  0  0  0  0  0  0  0  0  0
   63.9204   33.2855   46.2624 H   0  0  0  0  0  0  0  0  0  0  0  0
   61.4416   32.9941   46.3562 H   0  0  0  0  0  0  0  0  0  0  0  0
   59.5750   24.4299   45.3557 H   0  0  0  0  0  0  0  0  0  0  0  0
   58.7863   24.7734   46.9594 H   0  0  0  0  0  0  0  0  0  0  0  0
   56.3557   25.0746   47.1375 H   0  0  0  0  0  0  0  0  0  0  0  0
   54.1517   24.3006   46.2618 H   0  0  0  0  0  0  0  0  0  0  0  0
   53.9871   23.3196   43.9729 H   0  0  0  0  0  0  0  0  0  0  0  0
   56.0342   23.0975   42.5576 H   0  0  0  0  0  0  0  0  0  0  0  0
   58.2472   23.8426   43.4371 H   0  0  0  0  0  0  0  0  0  0  0  0
  1  2  1  0
  2  3  2  0
  3  4  1  0
  4  5  2  0
  5  6  1  0
  6  7  1  0
  6  8  2  0
  8  9  1  0
  9 10  2  3
 10 11  1  0
 11 12  1  0
 12 13  1  0
 12 14  2  0
 14 15  1  0
 15 16  1  0
 16 17  1  0
 17 18  1  0
 18 19  2  0
 18 20  1  0
 20 21  1  0
 21 22  2  0
 21 23  1  0
 23 24  1  0
 24 25  1  0
 25 26  2  0
 26 27  1  0
 27 28  2  0
 28 29  1  0
 29 30  2  0
 16 31  1  0
 31 32  1  0
 32 33  2  0
 33 34  1  0
 34 35  2  0
 35 36  1  0
 36 37  2  0
 14 38  1  0
  8  2  1  0
 38 10  1  0
 30 25  1  0
 37 32  1  0
  1 39  1  0
  1 40  1  0
  1 41  1  0
  3 42  1  0
  4 43  1  0
  5 44  1  0
  7 45  1  0
  7 46  1  0
  7 47  1  0
 15 48  1  0
 15 49  1  0
 16 50  1  6
 17 51  1  0
 17 52  1  0
 20 53  1  0
 23 54  1  0
 24 55  1  0
 24 56  1  0
 26 57  1  0
 27 58  1  0
 28 59  1  0
 29 60  1  0
 30 61  1  0
 31 62  1  0
 31 63  1  0
 33 64  1  0
 34 65  1  0
 35 66  1  0
 36 67  1  0
 37 68  1  0
M  CHG  3  11  -1  13  -1  16   1
M  END
>  <UniqueID>  (70) 
66

>  <SMILES>  (70) 
Cc1cccc(C)c1N=c1[n-]c([O-])c(C[N@@H+](CC(=O)NC(=O)NCc2ccccc2)Cc2ccccc2)s1

>  <Energy>  (70) 
111.04452603203421

>  <Genealogy>  (70) 
Cc1cccc(C)c1N=c1[n-]c([O-])c(C[NH+](CC(=O)NC(=O)NCc2ccccc2)Cc2ccccc2)s1 (protonated)
Cc1cccc(C)c1N=c1[n-]c([O-])c(C[N@@H+](CC(=O)NC(=O)NCc2ccccc2)Cc2ccccc2)s1 (chirality)
Cc1cccc(C)c1N=c1[n-]c([O-])c(C[N@@H+](CC(=O)NC(=O)NCc2ccccc2)Cc2ccccc2)s1 (3D coordinates assigned)
Cc1cccc(C)c1N=c1[n-]c([O-])c(C[N@@H+](CC(=O)NC(=O)NCc2ccccc2)Cc2ccccc2)s1 (optimized conformer: 111.04452603203421 kcal/mol)

>  <smiles>  (70) 
Cc1cccc(C)c1N=c1[nH]c(O)c(CN(CC(=O)NC(=O)NCc2ccccc2)Cc2ccccc2)s1

>  <score_type>  (70) 
oracle

>  <origin>  (70) 
adg

>  <m_score__min__energy>  (70) 
-14.050000000000001

>  <m_primary>  (70) 
energy

$$$$
70:0
     RDKit          3D

 61 64  0  0  0  0  0  0  0  0999 V2000
   59.0670   21.8980   44.2810 C   0  0  0  0  0  0  0  0  0  0  0  0
   57.7900   22.6680   44.4270 C   0  0  0  0  0  0  0  0  0  0  0  0
   56.7670   22.5220   43.4780 C   0  0  0  0  0  0  0  0  0  0  0  0
   55.5900   23.2660   43.5920 C   0  0  0  0  0  0  0  0  0  0  0  0
   55.4280   24.1690   44.6450 C   0  0  0  0  0  0  0  0  0  0  0  0
   56.4570   24.3470   45.5870 C   0  0  0  0  0  0  0  0  0  0  0  0
   56.2780   25.2870   46.7490 C   0  0  0  0  0  0  0  0  0  0  0  0
   55.6090   26.5010   46.3000 N   0  0  0  0  0  0  0  0  0  0  0  0
   56.2690   27.5350   45.5630 C   0  0  0  0  0  0  0  0  0  0  0  0
   55.6500   28.5880   45.2490 O   0  0  0  0  0  0  0  0  0  0  0  0
   57.6990   27.3590   45.1560 C   0  0  0  0  0  0  0  0  0  0  0  0
   58.5940   28.0650   46.0990 N   0  0  0  0  0  0  0  0  0  0  0  0
   59.4900   27.3720   46.8860 C   0  0  0  0  0  0  0  0  0  0  0  0
   59.6160   25.8690   46.8060 C   0  0  0  0  0  0  0  0  0  0  0  0
   60.3030   28.0440   47.7510 N   0  0  0  0  0  0  0  0  0  0  0  0
   60.2330   29.3930   47.8910 C   0  0  0  0  0  0  0  0  0  0  0  0
   61.0780   30.0590   48.7940 C   0  0  0  0  0  0  0  0  0  0  0  0
   60.9900   31.4440   48.9500 C   0  0  0  0  0  0  0  0  0  0  0  0
   60.0550   32.1820   48.2110 C   0  0  0  0  0  0  0  0  0  0  0  0
   59.8970   33.9230   48.4600 S   0  0  0  0  0  0  0  0  0  0  0  0
   59.3070   34.1780   49.8200 O   0  0  0  0  0  0  0  0  0  0  0  0
   61.2600   34.5580   48.4190 O   0  0  0  0  0  0  0  0  0  0  0  0
   58.8880   34.6580   47.2330 N   0  0  0  0  0  0  0  0  0  0  0  0
   59.6580   34.9620   46.0020 C   0  0  0  0  0  0  0  0  0  0  0  0
   59.4370   33.9270   44.8900 C   0  0  0  0  0  0  0  0  0  0  0  0
   57.9530   33.8450   44.4980 C   0  0  0  0  0  0  0  0  0  0  0  0
   57.0090   34.1770   45.6670 C   0  0  0  0  0  0  0  0  0  0  0  0
   57.6650   33.8510   47.0130 C   0  0  0  0  0  0  0  0  0  0  0  0
   59.2240   31.5230   47.2950 C   0  0  0  0  0  0  0  0  0  0  0  0
   59.3070   30.1250   47.1320 C   0  0  0  0  0  0  0  0  0  0  0  0
   58.4830   29.4300   46.2330 C   0  0  0  0  0  0  0  0  0  0  0  0
   57.6350   30.0690   45.5490 O   0  0  0  0  0  0  0  0  0  0  0  0
   57.6350   23.5910   45.4730 C   0  0  0  0  0  0  0  0  0  0  0  0
   59.4660   21.6574   45.2774 H   0  0  0  0  0  0  0  0  0  0  0  0
   58.8725   20.9665   43.7292 H   0  0  0  0  0  0  0  0  0  0  0  0
   59.8000   22.5048   43.7292 H   0  0  0  0  0  0  0  0  0  0  0  0
   56.8921   21.8192   42.6411 H   0  0  0  0  0  0  0  0  0  0  0  0
   54.7880   23.1401   42.8497 H   0  0  0  0  0  0  0  0  0  0  0  0
   54.4937   24.7421   44.7378 H   0  0  0  0  0  0  0  0  0  0  0  0
   55.6685   24.7988   47.5237 H   0  0  0  0  0  0  0  0  0  0  0  0
   57.2636   25.5461   47.1632 H   0  0  0  0  0  0  0  0  0  0  0  0
   57.9463   26.2872   45.1550 H   0  0  0  0  0  0  0  0  0  0  0  0
   57.8379   27.7798   44.1492 H   0  0  0  0  0  0  0  0  0  0  0  0
   59.6512   25.4494   47.8222 H   0  0  0  0  0  0  0  0  0  0  0  0
   58.7493   25.4565   46.2688 H   0  0  0  0  0  0  0  0  0  0  0  0
   60.5393   25.6065   46.2688 H   0  0  0  0  0  0  0  0  0  0  0  0
   60.9930   27.5100   48.3270 H   0  0  0  0  0  0  0  0  0  0  0  0
   61.8121   29.4873   49.3807 H   0  0  0  0  0  0  0  0  0  0  0  0
   61.6579   31.9585   49.6565 H   0  0  0  0  0  0  0  0  0  0  0  0
   59.3487   35.9496   45.6292 H   0  0  0  0  0  0  0  0  0  0  0  0
   60.7256   34.9409   46.2660 H   0  0  0  0  0  0  0  0  0  0  0  0
   60.0263   34.2164   44.0074 H   0  0  0  0  0  0  0  0  0  0  0  0
   59.7555   32.9417   45.2612 H   0  0  0  0  0  0  0  0  0  0  0  0
   57.7652   34.5575   43.6812 H   0  0  0  0  0  0  0  0  0  0  0  0
   57.7481   32.8089   44.1904 H   0  0  0  0  0  0  0  0  0  0  0  0
   56.7627   35.2487   45.6372 H   0  0  0  0  0  0  0  0  0  0  0  0
   56.0980   33.5690   45.5650 H   0  0  0  0  0  0  0  0  0  0  0  0
   56.9480   34.0621   47.8201 H   0  0  0  0  0  0  0  0  0  0  0  0
   57.9498   32.7885   47.0087 H   0  0  0  0  0  0  0  0  0  0  0  0
   58.5019   32.1004   46.6990 H   0  0  0  0  0  0  0  0  0  0  0  0
   58.4420   23.7231   46.2087 H   0  0  0  0  0  0  0  0  0  0  0  0
  1  2  1  0
  2  3  2  0
  3  4  1  0
  4  5  2  0
  5  6  1  0
  6  7  1  0
  7  8  1  0
  8  9  1  0
  9 10  2  0
  9 11  1  0
 11 12  1  0
 12 13  1  0
 13 14  1  0
 13 15  2  0
 15 16  1  0
 16 17  2  0
 17 18  1  0
 18 19  2  0
 19 20  1  0
 20 21  2  0
 20 22  2  0
 20 23  1  0
 23 24  1  0
 24 25  1  0
 25 26  1  0
 26 27  1  0
 27 28  1  0
 19 29  1  0
 29 30  2  0
 30 31  1  0
 31 32  2  0
  6 33  2  0
 33  2  1  0
 31 12  1  0
 30 16  1  0
 28 23  1  0
  1 34  1  0
  1 35  1  0
  1 36  1  0
  3 37  1  0
  4 38  1  0
  5 39  1  0
  7 40  1  0
  7 41  1  0
 11 42  1  0
 11 43  1  0
 14 44  1  0
 14 45  1  0
 14 46  1  0
 15 47  1  0
 17 48  1  0
 18 49  1  0
 24 50  1  0
 24 51  1  0
 25 52  1  0
 25 53  1  0
 26 54  1  0
 26 55  1  0
 27 56  1  0
 27 57  1  0
 28 58  1  0
 28 59  1  0
 29 60  1  0
 33 61  1  0
M  CHG  2   8  -1  15   1
M  END
>  <UniqueID>  (71) 
67

>  <SMILES>  (71) 
Cc1cccc(C[N-]C(=O)Cn2c(C)[nH+]c3ccc(S(=O)(=O)N4CCCCC4)cc3c2=O)c1

>  <Energy>  (71) 
71.41298959689034

>  <Genealogy>  (71) 
Cc1cccc(C[N-]C(=O)Cn2c(C)[nH+]c3ccc(S(=O)(=O)N4CCCCC4)cc3c2=O)c1 (protonated)
Cc1cccc(C[N-]C(=O)Cn2c(C)[nH+]c3ccc(S(=O)(=O)N4CCCCC4)cc3c2=O)c1 (3D coordinates assigned)
Cc1cccc(C[N-]C(=O)Cn2c(C)[nH+]c3ccc(S(=O)(=O)N4CCCCC4)cc3c2=O)c1 (nonaromatic ring conformer: 71.41298959689034 kcal/mol)

>  <smiles>  (71) 
Cc1cccc(CNC(=O)Cn2c(C)nc3ccc(S(=O)(=O)N4CCCCC4)cc3c2=O)c1

>  <score_type>  (71) 
oracle

>  <origin>  (71) 
adg

>  <m_score__min__energy>  (71) 
-10.5

>  <m_primary>  (71) 
energy

$$$$
71:0
     RDKit          3D

 56 59  0  0  0  0  0  0  0  0999 V2000
   57.1205   22.0168   45.4324 H   0  0  0  0  0  0  0  0  0  0  0  0
   56.6280   22.9940   45.5440 C   0  0  0  0  0  0  0  0  0  0  0  0
   57.2880   24.0250   46.1370 N   0  0  0  0  0  0  0  0  0  0  0  0
   56.7200   25.2550   46.2940 C   0  0  0  0  0  0  0  0  0  0  0  0
   57.3640   26.2250   46.8770 N   0  0  0  0  0  0  0  0  0  0  0  0
   58.7830   26.4550   46.8450 C   0  0  0  0  0  0  0  0  0  0  0  0
   59.5070   25.9100   45.9690 O   0  0  0  0  0  0  0  0  0  0  0  0
   59.4000   27.3850   47.8470 C   0  0  0  0  0  0  0  0  0  0  0  0
   60.4796   27.4352   47.6423 H   0  0  0  0  0  0  0  0  0  0  0  0
   59.1538   26.9692   48.8352 H   0  0  0  0  0  0  0  0  0  0  0  0
   58.8460   28.8340   47.8460 C   0  0  2  0  0  0  0  0  0  0  0  0
   57.8685   28.7318   47.3520 H   0  0  0  0  0  0  0  0  0  0  0  0
   59.6770   29.7590   47.0500 N   0  0  0  0  0  0  0  0  0  0  0  0
   59.2040   30.1150   45.6930 C   0  0  0  0  0  0  0  0  0  0  0  0
   59.2875   29.2301   45.0449 H   0  0  0  0  0  0  0  0  0  0  0  0
   59.8284   30.9415   45.3228 H   0  0  0  0  0  0  0  0  0  0  0  0
   57.7760   30.5800   45.6960 C   0  0  0  0  0  0  0  0  0  0  0  0
   56.8850   29.8210   45.2300 O   0  0  0  0  0  0  0  0  0  0  0  0
   57.4210   31.8400   46.2720 N   0  0  0  0  0  0  0  0  0  0  0  0
   58.2660   32.9980   46.2800 C   0  0  0  0  0  0  0  0  0  0  0  0
   58.8110   33.4360   47.5060 C   0  0  0  0  0  0  0  0  0  0  0  0
   58.4800   32.7210   48.7890 C   0  0  0  0  0  0  0  0  0  0  0  0
   58.7707   33.3489   49.6442 H   0  0  0  0  0  0  0  0  0  0  0  0
   57.3987   32.5232   48.8301 H   0  0  0  0  0  0  0  0  0  0  0  0
   59.0288   31.7686   48.8301 H   0  0  0  0  0  0  0  0  0  0  0  0
   59.6200   34.5820   47.5380 C   0  0  0  0  0  0  0  0  0  0  0  0
   60.0285   34.9364   48.4959 H   0  0  0  0  0  0  0  0  0  0  0  0
   59.9090   35.2740   46.3630 C   0  0  0  0  0  0  0  0  0  0  0  0
   60.5350   36.1778   46.3986 H   0  0  0  0  0  0  0  0  0  0  0  0
   59.4070   34.8240   45.1430 C   0  0  0  0  0  0  0  0  0  0  0  0
   59.6412   35.3755   44.2205 H   0  0  0  0  0  0  0  0  0  0  0  0
   58.6050   33.6730   45.0810 C   0  0  0  0  0  0  0  0  0  0  0  0
   58.1220   33.2030   43.7350 C   0  0  0  0  0  0  0  0  0  0  0  0
   57.3397   32.4418   43.8715 H   0  0  0  0  0  0  0  0  0  0  0  0
   57.7103   34.0556   43.1750 H   0  0  0  0  0  0  0  0  0  0  0  0
   58.9630   32.7682   43.1750 H   0  0  0  0  0  0  0  0  0  0  0  0
   60.8000   30.4770   47.6420 C   0  0  0  0  0  0  0  0  0  0  0  0
   61.7110   31.1810   46.8190 C   0  0  0  0  0  0  0  0  0  0  0  0
   61.6117   31.1161   45.7254 H   0  0  0  0  0  0  0  0  0  0  0  0
   62.7330   31.9560   47.3690 C   0  0  0  0  0  0  0  0  0  0  0  0
   63.4349   32.4876   46.7097 H   0  0  0  0  0  0  0  0  0  0  0  0
   62.8650   32.0570   48.7500 C   0  0  0  0  0  0  0  0  0  0  0  0
   63.6573   32.6858   49.1824 H   0  0  0  0  0  0  0  0  0  0  0  0
   61.9940   31.3620   49.5850 C   0  0  0  0  0  0  0  0  0  0  0  0
   62.1054   31.4442   50.6763 H   0  0  0  0  0  0  0  0  0  0  0  0
   60.9770   30.5590   49.0510 C   0  0  0  0  0  0  0  0  0  0  0  0
   60.0270   29.5960   50.2390 S   0  0  0  0  0  0  0  0  0  0  0  0
   58.5370   29.4210   49.2290 C   0  0  0  0  0  0  0  0  0  0  0  0
   57.8323   28.7548   49.7482 H   0  0  0  0  0  0  0  0  0  0  0  0
   58.1050   30.4222   49.0844 H   0  0  0  0  0  0  0  0  0  0  0  0
   55.4120   25.4710   45.8380 C   0  0  0  0  0  0  0  0  0  0  0  0
   54.8010   26.7110   45.9900 O   0  0  0  0  0  0  0  0  0  0  0  0
   54.7160   24.4230   45.2260 C   0  0  0  0  0  0  0  0  0  0  0  0
   53.6898   24.5814   44.8628 H   0  0  0  0  0  0  0  0  0  0  0  0
   55.3250   23.1770   45.0770 C   0  0  0  0  0  0  0  0  0  0  0  0
   54.7847   22.3478   44.5969 H   0  0  0  0  0  0  0  0  0  0  0  0
  1  2  1  0
  2  3  1  0
  3  4  1  0
  4  5  2  0
  5  6  1  0
  6  7  2  0
  6  8  1  0
  8  9  1  0
  8 10  1  0
  8 11  1  0
 11 12  1  6
 11 13  1  0
 13 14  1  0
 14 15  1  0
 14 16  1  0
 14 17  1  0
 17 18  2  0
 17 19  1  0
 19 20  1  0
 20 21  2  0
 21 22  1  0
 22 23  1  0
 22 24  1  0
 22 25  1  0
 21 26  1  0
 26 27  1  0
 26 28  2  0
 28 29  1  0
 28 30  1  0
 30 31  1  0
 30 32  2  0
 32 33  1  0
 33 34  1  0
 33 35  1  0
 33 36  1  0
 13 37  1  0
 37 38  2  0
 38 39  1  0
 38 40  1  0
 40 41  1  0
 40 42  2  0
 42 43  1  0
 42 44  1  0
 44 45  1  0
 44 46  2  0
 46 47  1  0
 47 48  1  0
 48 49  1  0
 48 50  1  0
  4 51  1  0
 51 52  1  0
 51 53  2  0
 53 54  1  0
 53 55  1  0
 55 56  1  0
 55  2  2  0
 48 11  1  0
 32 20  1  0
 46 37  1  0
M  CHG  3   3  -1  19  -1  52  -1
M  END
>  <UniqueID>  (72) 
68

>  <SMILES>  (72) 
Cc1cccc(C)c1[N-]C(=O)CN1c2ccccc2SC[C@@H]1CC(=O)/N=c1\[n-]cccc1[O-]

>  <Energy>  (72) 
78.2533539931767

>  <Genealogy>  (72) 
Cc1cccc(C)c1[N-]C(=O)CN1c2ccccc2SCC1CC(=O)N=c1[n-]cccc1[O-] (protonated)
Cc1cccc(C)c1[N-]C(=O)CN1c2ccccc2SC[C@@H]1CC(=O)N=c1[n-]cccc1[O-] (chirality)
Cc1cccc(C)c1[N-]C(=O)CN1c2ccccc2SC[C@@H]1CC(=O)/N=c1\[n-]cccc1[O-] (cis-trans isomerization)
Cc1cccc(C)c1[N-]C(=O)CN1c2ccccc2SC[C@@H]1CC(=O)/N=c1\[n-]cccc1[O-] (3D coordinates assigned)
Cc1cccc(C)c1[N-]C(=O)CN1c2ccccc2SC[C@@H]1CC(=O)/N=c1\[n-]cccc1[O-] (nonaromatic ring conformer: 78.2533539931767 kcal/mol)

>  <smiles>  (72) 
Cc1cccc(C)c1NC(=O)CN1c2ccccc2SCC1CC(=O)N=c1[nH]cccc1O

>  <score_type>  (72) 
oracle

>  <origin>  (72) 
adg

>  <m_score__min__energy>  (72) 
-15.050000000000001

>  <m_primary>  (72) 
energy

$$$$
72:0
     RDKit          3D

 56 59  0  0  0  0  0  0  0  0999 V2000
   55.0760   28.3350   44.5030 H   0  0  0  0  0  0  0  0  0  0  0  0
   55.1870   29.3350   44.7860 N   0  0  0  0  0  0  0  0  0  0  0  0
   56.7600   29.8350   44.2720 S   0  0  0  0  0  0  0  0  0  0  0  0
   56.7300   31.3130   44.0000 O   0  0  0  0  0  0  0  0  0  0  0  0
   57.1370   29.1040   43.0160 O   0  0  0  0  0  0  0  0  0  0  0  0
   57.9410   29.4830   45.5280 C   0  0  0  0  0  0  0  0  0  0  0  0
   58.6360   28.2670   45.5210 C   0  0  0  0  0  0  0  0  0  0  0  0
   58.4666   27.5438   44.7097 H   0  0  0  0  0  0  0  0  0  0  0  0
   59.5440   27.9690   46.5410 C   0  0  0  0  0  0  0  0  0  0  0  0
   60.0854   27.0116   46.5248 H   0  0  0  0  0  0  0  0  0  0  0  0
   59.7730   28.8800   47.5880 C   0  0  0  0  0  0  0  0  0  0  0  0
   60.6860   28.4680   48.6870 C   0  0  0  0  0  0  0  0  0  0  0  0
   61.7681   28.4957   48.4914 H   0  0  0  0  0  0  0  0  0  0  0  0
   60.2810   28.0650   49.9000 C   0  0  0  0  0  0  0  0  0  0  0  0
   59.2249   28.1894   50.1813 H   0  0  0  0  0  0  0  0  0  0  0  0
   61.2190   27.4570   50.8700 C   0  0  0  0  0  0  0  0  0  0  0  0
   61.4290   26.0690   50.7990 C   0  0  0  0  0  0  0  0  0  0  0  0
   60.8006   25.4581   50.1342 H   0  0  0  0  0  0  0  0  0  0  0  0
   62.3970   25.4730   51.5400 N   0  0  0  0  0  0  0  0  0  0  0  0
   62.5370   24.4410   51.4610 H   0  0  0  0  0  0  0  0  0  0  0  0
   63.2110   26.1910   52.3540 C   0  0  0  0  0  0  0  0  0  0  0  0
   64.0055   25.6818   52.9193 H   0  0  0  0  0  0  0  0  0  0  0  0
   63.0470   27.5720   52.4790 C   0  0  0  0  0  0  0  0  0  0  0  0
   63.9190   28.2960   53.3750 C   0  0  0  0  0  0  0  0  0  0  0  0
   64.6180   28.8760   54.0930 N   0  0  0  0  0  0  0  0  0  0  0  0
   62.0180   28.2280   51.7690 C   0  0  0  0  0  0  0  0  0  0  0  0
   61.8470   29.5100   51.9880 N   0  0  0  0  0  0  0  0  0  0  0  0
   61.6030   30.5640   51.0470 C   0  0  0  0  0  0  0  0  0  0  0  0
   60.3320   31.1410   50.9670 C   0  0  0  0  0  0  0  0  0  0  0  0
   59.5168   30.7615   51.6006 H   0  0  0  0  0  0  0  0  0  0  0  0
   60.0940   32.1980   50.0850 C   0  0  0  0  0  0  0  0  0  0  0  0
   59.0956   32.6572   50.0380 H   0  0  0  0  0  0  0  0  0  0  0  0
   61.1270   32.6790   49.2550 C   0  0  0  0  0  0  0  0  0  0  0  0
   60.9480   33.7770   48.4000 O   0  0  0  0  0  0  0  0  0  0  0  0
   59.7900   34.6070   48.3810 C   0  0  0  0  0  0  0  0  0  0  0  0
   59.1554   34.3735   49.2486 H   0  0  0  0  0  0  0  0  0  0  0  0
   60.0914   35.6639   48.4261 H   0  0  0  0  0  0  0  0  0  0  0  0
   59.0240   34.3540   47.1160 C   0  0  0  0  0  0  0  0  0  0  0  0
   59.5320   34.8020   45.8850 C   0  0  0  0  0  0  0  0  0  0  0  0
   60.5072   35.3094   45.8466 H   0  0  0  0  0  0  0  0  0  0  0  0
   58.8020   34.6050   44.7080 C   0  0  0  0  0  0  0  0  0  0  0  0
   59.2067   34.9517   43.7457 H   0  0  0  0  0  0  0  0  0  0  0  0
   57.5590   33.9680   44.7540 C   0  0  0  0  0  0  0  0  0  0  0  0
   56.9859   33.8142   43.8278 H   0  0  0  0  0  0  0  0  0  0  0  0
   57.0430   33.5260   45.9760 C   0  0  0  0  0  0  0  0  0  0  0  0
   56.0641   33.0255   46.0107 H   0  0  0  0  0  0  0  0  0  0  0  0
   57.7710   33.7200   47.1540 C   0  0  0  0  0  0  0  0  0  0  0  0
   57.3608   33.3747   48.1145 H   0  0  0  0  0  0  0  0  0  0  0  0
   62.3820   32.0520   49.2920 C   0  0  0  0  0  0  0  0  0  0  0  0
   63.6940   32.6250   48.2740 Cl  0  0  0  0  0  0  0  0  0  0  0  0
   62.6140   30.9910   50.1730 C   0  0  0  0  0  0  0  0  0  0  0  0
   63.5929   30.4893   50.1807 H   0  0  0  0  0  0  0  0  0  0  0  0
   59.0730   30.1050   47.5820 C   0  0  0  0  0  0  0  0  0  0  0  0
   59.2442   30.8352   48.3867 H   0  0  0  0  0  0  0  0  0  0  0  0
   58.1640   30.3980   46.5620 C   0  0  0  0  0  0  0  0  0  0  0  0
   57.6204   31.3543   46.5723 H   0  0  0  0  0  0  0  0  0  0  0  0
  1  2  1  0
  2  3  1  0
  3  4  2  0
  3  5  2  0
  3  6  1  0
  6  7  2  0
  7  8  1  0
  7  9  1  0
  9 10  1  0
  9 11  2  0
 11 12  1  0
 12 13  1  0
 12 14  2  0
 14 15  1  0
 14 16  1  0
 16 17  2  0
 17 18  1  0
 17 19  1  0
 19 20  1  0
 19 21  1  0
 21 22  1  0
 21 23  2  0
 23 24  1  0
 24 25  3  0
 23 26  1  0
 26 27  2  3
 27 28  1  0
 28 29  2  0
 29 30  1  0
 29 31  1  0
 31 32  1  0
 31 33  2  0
 33 34  1  0
 34 35  1  0
 35 36  1  0
 35 37  1  0
 35 38  1  0
 38 39  2  0
 39 40  1  0
 39 41  1  0
 41 42  1  0
 41 43  2  0
 43 44  1  0
 43 45  1  0
 45 46  1  0
 45 47  2  0
 47 48  1  0
 33 49  1  0
 49 50  1  0
 49 51  2  0
 51 52  1  0
 11 53  1  0
 53 54  1  0
 53 55  2  0
 55 56  1  0
 55  6  1  0
 26 16  1  0
 51 28  1  0
 47 38  1  0
M  CHG  1   2  -1
M  END
>  <UniqueID>  (73) 
69

>  <SMILES>  (73) 
N#Cc1c[nH]cc(/C=C/c2ccc(S([NH-])(=O)=O)cc2)c1=Nc1ccc(OCc2ccccc2)c(Cl)c1

>  <Energy>  (73) 
76.77856149309594

>  <Genealogy>  (73) 
N#Cc1c[nH]cc(C=Cc2ccc(S([NH-])(=O)=O)cc2)c1=Nc1ccc(OCc2ccccc2)c(Cl)c1 (protonated)
N#Cc1c[nH]cc(/C=C/c2ccc(S([NH-])(=O)=O)cc2)c1=Nc1ccc(OCc2ccccc2)c(Cl)c1 (cis-trans isomerization)
N#Cc1c[nH]cc(/C=C/c2ccc(S([NH-])(=O)=O)cc2)c1=Nc1ccc(OCc2ccccc2)c(Cl)c1 (3D coordinates assigned)
N#Cc1c[nH]cc(/C=C/c2ccc(S([NH-])(=O)=O)cc2)c1=Nc1ccc(OCc2ccccc2)c(Cl)c1 (optimized conformer: 76.77856149309594 kcal/mol)

>  <smiles>  (73) 
N#Cc1c[nH]cc(C=Cc2ccc(S(N)(=O)=O)cc2)c1=Nc1ccc(OCc2ccccc2)c(Cl)c1

>  <score_type>  (73) 
oracle

>  <origin>  (73) 
adg

>  <m_score__min__energy>  (73) 
-13.699999999999999

>  <m_primary>  (73) 
energy

$$$$
73:0
     RDKit          3D

 58 61  0  0  0  0  0  0  0  0999 V2000
   59.9105   28.0541   48.5348 H   0  0  0  0  0  0  0  0  0  0  0  0
   60.2480   29.0500   48.2120 C   0  0  0  0  0  0  0  0  0  0  0  0
   60.4570   30.0730   49.0830 N   0  0  0  0  0  0  0  0  0  0  0  0
   60.8800   31.1900   48.4510 C   0  0  0  0  0  0  0  0  0  0  0  0
   61.1080   32.3000   49.0900 N   0  0  0  0  0  0  0  0  0  0  0  0
   60.6640   33.6070   48.6960 C   0  0  0  0  0  0  0  0  0  0  0  0
   61.1510   34.6090   49.2830 O   0  0  0  0  0  0  0  0  0  0  0  0
   59.7080   33.8110   47.5810 C   0  0  0  0  0  0  0  0  0  0  0  0
   60.0880   34.5630   46.4550 C   0  0  0  0  0  0  0  0  0  0  0  0
   61.0970   34.9978   46.4016 H   0  0  0  0  0  0  0  0  0  0  0  0
   59.1890   34.7600   45.4040 C   0  0  0  0  0  0  0  0  0  0  0  0
   59.4903   35.3545   44.5289 H   0  0  0  0  0  0  0  0  0  0  0  0
   57.9080   34.2040   45.4610 C   0  0  0  0  0  0  0  0  0  0  0  0
   57.0360   34.4030   44.4420 F   0  0  0  0  0  0  0  0  0  0  0  0
   57.5270   33.4420   46.5680 C   0  0  0  0  0  0  0  0  0  0  0  0
   56.5205   33.0001   46.6101 H   0  0  0  0  0  0  0  0  0  0  0  0
   58.4220   33.2400   47.6220 C   0  0  0  0  0  0  0  0  0  0  0  0
   58.1202   32.6320   48.4876 H   0  0  0  0  0  0  0  0  0  0  0  0
   60.9900   30.9650   46.7790 S   0  0  0  0  0  0  0  0  0  0  0  0
   60.4950   29.3640   46.8820 C   0  0  0  0  0  0  0  0  0  0  0  0
   60.3390   28.2380   45.4990 S   0  0  0  0  0  0  0  0  0  0  0  0
   58.7680   28.9410   44.9750 C   0  0  0  0  0  0  0  0  0  0  0  0
   58.7880   30.0920   44.1750 C   0  0  0  0  0  0  0  0  0  0  0  0
   59.7503   30.5323   43.8747 H   0  0  0  0  0  0  0  0  0  0  0  0
   57.5940   30.6830   43.7570 C   0  0  0  0  0  0  0  0  0  0  0  0
   57.6179   31.5821   43.1237 H   0  0  0  0  0  0  0  0  0  0  0  0
   56.3710   30.1340   44.1420 C   0  0  0  0  0  0  0  0  0  0  0  0
   55.4316   30.6002   43.8101 H   0  0  0  0  0  0  0  0  0  0  0  0
   56.3360   28.9950   44.9470 C   0  0  0  0  0  0  0  0  0  0  0  0
   55.3674   28.5721   45.2518 H   0  0  0  0  0  0  0  0  0  0  0  0
   57.5290   28.3830   45.3720 C   0  0  0  0  0  0  0  0  0  0  0  0
   57.4580   27.1920   46.2960 C   0  0  0  0  0  0  0  0  0  0  0  0
   56.7452   27.4031   47.1068 H   0  0  0  0  0  0  0  0  0  0  0  0
   58.4575   27.0024   46.7145 H   0  0  0  0  0  0  0  0  0  0  0  0
   57.0170   26.0100   45.5620 N   0  0  0  0  0  0  0  0  0  0  0  0
   57.7360   25.4390   45.0610 H   0  0  0  0  0  0  0  0  0  0  0  0
   55.6470   25.5870   45.5340 C   0  0  0  0  0  0  0  0  0  0  0  0
   54.7430   26.3440   45.9820 O   0  0  0  0  0  0  0  0  0  0  0  0
   55.2850   24.2720   44.9030 C   0  0  0  0  0  0  0  0  0  0  0  0
   55.8048   24.1854   43.9374 H   0  0  0  0  0  0  0  0  0  0  0  0
   54.1936   24.2465   44.7684 H   0  0  0  0  0  0  0  0  0  0  0  0
   55.6780   23.1020   45.7770 C   0  0  0  0  0  0  0  0  0  0  0  0
   54.6870   22.5320   46.6000 C   0  0  0  0  0  0  0  0  0  0  0  0
   53.6633   22.9338   46.5754 H   0  0  0  0  0  0  0  0  0  0  0  0
   54.9880   21.4640   47.4460 C   0  0  0  0  0  0  0  0  0  0  0  0
   54.2019   21.0252   48.0780 H   0  0  0  0  0  0  0  0  0  0  0  0
   56.2830   20.9530   47.4910 C   0  0  0  0  0  0  0  0  0  0  0  0
   56.5185   20.1101   48.1573 H   0  0  0  0  0  0  0  0  0  0  0  0
   57.2820   21.5100   46.6910 C   0  0  0  0  0  0  0  0  0  0  0  0
   58.3012   21.0979   46.7297 H   0  0  0  0  0  0  0  0  0  0  0  0
   57.0030   22.5900   45.8370 C   0  0  0  0  0  0  0  0  0  0  0  0
   58.3290   23.2210   44.8400 S   0  0  0  0  0  0  0  0  0  0  0  0
   57.7990   24.0420   43.7010 O   0  0  0  0  0  0  0  0  0  0  0  0
   59.2140   24.1020   45.6760 O   0  0  0  0  0  0  0  0  0  0  0  0
   59.3060   21.8720   44.2100 C   0  0  0  0  0  0  0  0  0  0  0  0
   59.7224   21.2971   45.0503 H   0  0  0  0  0  0  0  0  0  0  0  0
   58.6722   21.2160   43.5953 H   0  0  0  0  0  0  0  0  0  0  0  0
   60.1270   22.2696   43.5953 H   0  0  0  0  0  0  0  0  0  0  0  0
  1  2  1  0
  2  3  1  0
  3  4  1  0
  4  5  2  0
  5  6  1  0
  6  7  2  0
  6  8  1  0
  8  9  2  0
  9 10  1  0
  9 11  1  0
 11 12  1  0
 11 13  2  0
 13 14  1  0
 13 15  1  0
 15 16  1  0
 15 17  2  0
 17 18  1  0
  4 19  1  0
 19 20  1  0
 20 21  1  0
 21 22  1  0
 22 23  2  0
 23 24  1  0
 23 25  1  0
 25 26  1  0
 25 27  2  0
 27 28  1  0
 27 29  1  0
 29 30  1  0
 29 31  2  0
 31 32  1  0
 32 33  1  0
 32 34  1  0
 32 35  1  0
 35 36  1  0
 35 37  1  0
 37 38  2  0
 37 39  1  0
 39 40  1  0
 39 41  1  0
 39 42  1  0
 42 43  2  0
 43 44  1  0
 43 45  1  0
 45 46  1  0
 45 47  2  0
 47 48  1  0
 47 49  1  0
 49 50  1  0
 49 51  2  0
 51 52  1  0
 52 53  2  0
 52 54  2  0
 52 55  1  0
 55 56  1  0
 55 57  1  0
 55 58  1  0
 20  2  2  0
 31 22  1  0
 51 42  1  0
 17  8  1  0
M  CHG  1   3  -1
M  END
>  <UniqueID>  (74) 
70

>  <SMILES>  (74) 
CS(=O)(=O)c1ccccc1CC(=O)NCc1ccccc1Sc1c[n-]/c(=N/C(=O)c2ccc(F)cc2)s1

>  <Energy>  (74) 
93.32266643604697

>  <Genealogy>  (74) 
CS(=O)(=O)c1ccccc1CC(=O)NCc1ccccc1Sc1c[n-]c(=NC(=O)c2ccc(F)cc2)s1 (protonated)
CS(=O)(=O)c1ccccc1CC(=O)NCc1ccccc1Sc1c[n-]/c(=N/C(=O)c2ccc(F)cc2)s1 (cis-trans isomerization)
CS(=O)(=O)c1ccccc1CC(=O)NCc1ccccc1Sc1c[n-]/c(=N/C(=O)c2ccc(F)cc2)s1 (3D coordinates assigned)
CS(=O)(=O)c1ccccc1CC(=O)NCc1ccccc1Sc1c[n-]/c(=N/C(=O)c2ccc(F)cc2)s1 (optimized conformer: 93.32266643604697 kcal/mol)

>  <smiles>  (74) 
CS(=O)(=O)c1ccccc1CC(=O)NCc1ccccc1Sc1c[nH]c(=NC(=O)c2ccc(F)cc2)s1

>  <score_type>  (74) 
oracle

>  <origin>  (74) 
adg

>  <m_score__min__energy>  (74) 
-11.51

>  <m_primary>  (74) 
energy

$$$$
74:0
     RDKit          3D

 62 65  0  0  0  0  0  0  0  0999 V2000
   56.2830   30.0360   45.1720 O   0  0  0  0  0  0  0  0  0  0  0  0
   57.4680   30.2690   44.8140 C   0  0  0  0  0  0  0  0  0  0  0  0
   58.2210   29.2570   44.1230 N   0  0  0  0  0  0  0  0  0  0  0  0
   57.8740   27.8620   44.1150 C   0  0  0  0  0  0  0  0  0  0  0  0
   58.0600   27.1130   42.9440 C   0  0  0  0  0  0  0  0  0  0  0  0
   57.7670   25.7470   42.9200 C   0  0  0  0  0  0  0  0  0  0  0  0
   57.2940   25.1090   44.0740 C   0  0  0  0  0  0  0  0  0  0  0  0
   56.9790   23.3750   44.0660 S   0  0  0  0  0  0  0  0  0  0  0  0
   56.7700   22.9250   42.6470 O   0  0  0  0  0  0  0  0  0  0  0  0
   58.1650   22.6420   44.6300 O   0  0  0  0  0  0  0  0  0  0  0  0
   55.5510   23.0240   45.0050 N   0  0  0  0  0  0  0  0  0  0  0  0
   54.4300   23.8730   44.5490 C   0  0  0  0  0  0  0  0  0  0  0  0
   53.2440   23.8740   45.5400 C   0  0  0  0  0  0  0  0  0  0  0  0
   53.3250   22.7040   46.5240 C   0  0  0  0  0  0  0  0  0  0  0  0
   54.6580   22.7170   47.2910 C   0  0  0  0  0  0  0  0  0  0  0  0
   55.8260   23.2400   46.4340 C   0  0  0  0  0  0  0  0  0  0  0  0
   57.1270   25.8450   45.2540 C   0  0  0  0  0  0  0  0  0  0  0  0
   57.4190   27.2130   45.2770 C   0  0  0  0  0  0  0  0  0  0  0  0
   58.0570   31.6050   45.0680 C   0  0  0  0  0  0  0  0  0  0  0  0
   57.4010   32.7750   44.6430 C   0  0  0  0  0  0  0  0  0  0  0  0
   57.9590   34.0300   44.8980 C   0  0  0  0  0  0  0  0  0  0  0  0
   59.1760   34.1340   45.5770 C   0  0  0  0  0  0  0  0  0  0  0  0
   59.8490   32.9810   45.9950 C   0  0  0  0  0  0  0  0  0  0  0  0
   61.3620   33.1340   46.8830 S   0  0  0  0  0  0  0  0  0  0  0  0
   62.3430   33.8990   46.0410 O   0  0  0  0  0  0  0  0  0  0  0  0
   61.9320   31.7720   47.1700 O   0  0  0  0  0  0  0  0  0  0  0  0
   61.0700   33.9850   48.3820 N   0  0  0  0  0  0  0  0  0  0  0  0
   59.6250   33.9890   48.7230 C   0  0  0  0  0  0  0  0  0  0  0  0
   59.2610   32.9730   49.8150 C   0  0  0  0  0  0  0  0  0  0  0  0
   60.0580   33.2310   51.1060 C   0  0  0  0  0  0  0  0  0  0  0  0
   61.4470   33.8370   50.8360 C   0  0  0  0  0  0  0  0  0  0  0  0
   61.9510   33.4500   49.4420 C   0  0  0  0  0  0  0  0  0  0  0  0
   59.2910   31.7190   45.7360 C   0  0  0  0  0  0  0  0  0  0  0  0
   58.9980   29.5680   43.4950 H   0  0  0  0  0  0  0  0  0  0  0  0
   58.4399   27.6052   42.0365 H   0  0  0  0  0  0  0  0  0  0  0  0
   57.9080   25.1715   41.9932 H   0  0  0  0  0  0  0  0  0  0  0  0
   54.7937   24.9047   44.4337 H   0  0  0  0  0  0  0  0  0  0  0  0
   54.0671   23.4619   43.5954 H   0  0  0  0  0  0  0  0  0  0  0  0
   53.2539   24.8170   46.1063 H   0  0  0  0  0  0  0  0  0  0  0  0
   52.3144   23.7705   44.9611 H   0  0  0  0  0  0  0  0  0  0  0  0
   52.4960   22.7812   47.2429 H   0  0  0  0  0  0  0  0  0  0  0  0
   53.2579   21.7644   45.9560 H   0  0  0  0  0  0  0  0  0  0  0  0
   54.5507   23.3642   48.1739 H   0  0  0  0  0  0  0  0  0  0  0  0
   54.8902   21.6801   47.5757 H   0  0  0  0  0  0  0  0  0  0  0  0
   55.9577   24.3163   46.6190 H   0  0  0  0  0  0  0  0  0  0  0  0
   56.7412   22.6945   46.7075 H   0  0  0  0  0  0  0  0  0  0  0  0
   56.7653   25.3460   46.1651 H   0  0  0  0  0  0  0  0  0  0  0  0
   57.2921   27.7840   46.2086 H   0  0  0  0  0  0  0  0  0  0  0  0
   56.4433   32.7010   44.1069 H   0  0  0  0  0  0  0  0  0  0  0  0
   57.4387   34.9395   44.5632 H   0  0  0  0  0  0  0  0  0  0  0  0
   59.6060   35.1252   45.7834 H   0  0  0  0  0  0  0  0  0  0  0  0
   59.3512   34.9945   49.0751 H   0  0  0  0  0  0  0  0  0  0  0  0
   59.0729   33.7061   47.8146 H   0  0  0  0  0  0  0  0  0  0  0  0
   58.1862   33.0531   50.0352 H   0  0  0  0  0  0  0  0  0  0  0  0
   59.5090   31.9657   49.4490 H   0  0  0  0  0  0  0  0  0  0  0  0
   59.4874   33.9269   51.7386 H   0  0  0  0  0  0  0  0  0  0  0  0
   60.2096   32.2610   51.6021 H   0  0  0  0  0  0  0  0  0  0  0  0
   61.3811   34.9329   50.9037 H   0  0  0  0  0  0  0  0  0  0  0  0
   62.1520   33.4474   51.5852 H   0  0  0  0  0  0  0  0  0  0  0  0
   62.9645   33.8543   49.3029 H   0  0  0  0  0  0  0  0  0  0  0  0
   61.9549   32.3525   49.3677 H   0  0  0  0  0  0  0  0  0  0  0  0
   59.8226   30.8114   46.0578 H   0  0  0  0  0  0  0  0  0  0  0  0
  1  2  2  0
  2  3  1  0
  3  4  1  0
  4  5  2  0
  5  6  1  0
  6  7  2  0
  7  8  1  0
  8  9  2  0
  8 10  2  0
  8 11  1  0
 11 12  1  0
 12 13  1  0
 13 14  1  0
 14 15  1  0
 15 16  1  0
  7 17  1  0
 17 18  2  0
  2 19  1  0
 19 20  2  0
 20 21  1  0
 21 22  2  0
 22 23  1  0
 23 24  1  0
 24 25  2  0
 24 26  2  0
 24 27  1  0
 27 28  1  0
 28 29  1  0
 29 30  1  0
 30 31  1  0
 31 32  1  0
 23 33  2  0
 18  4  1  0
 33 19  1  0
 16 11  1  0
 32 27  1  0
  3 34  1  0
  5 35  1  0
  6 36  1  0
 12 37  1  0
 12 38  1  0
 13 39  1  0
 13 40  1  0
 14 41  1  0
 14 42  1  0
 15 43  1  0
 15 44  1  0
 16 45  1  0
 16 46  1  0
 17 47  1  0
 18 48  1  0
 20 49  1  0
 21 50  1  0
 22 51  1  0
 28 52  1  0
 28 53  1  0
 29 54  1  0
 29 55  1  0
 30 56  1  0
 30 57  1  0
 31 58  1  0
 31 59  1  0
 32 60  1  0
 32 61  1  0
 33 62  1  0
M  END
>  <UniqueID>  (75) 
71

>  <SMILES>  (75) 
O=C(Nc1ccc(S(=O)(=O)N2CCCCC2)cc1)c1cccc(S(=O)(=O)N2CCCCC2)c1

>  <Energy>  (75) 
77.30333469076412

>  <Genealogy>  (75) 
O=C(Nc1ccc(S(=O)(=O)N2CCCCC2)cc1)c1cccc(S(=O)(=O)N2CCCCC2)c1 (3D coordinates assigned)
O=C(Nc1ccc(S(=O)(=O)N2CCCCC2)cc1)c1cccc(S(=O)(=O)N2CCCCC2)c1 (nonaromatic ring conformer: 77.30333469076412 kcal/mol)

>  <smiles>  (75) 
O=C(Nc1ccc(S(=O)(=O)N2CCCCC2)cc1)c1cccc(S(=O)(=O)N2CCCCC2)c1

>  <score_type>  (75) 
oracle

>  <origin>  (75) 
adg

>  <m_score__min__energy>  (75) 
-11.07

>  <m_primary>  (75) 
energy

$$$$
75:0
     RDKit          3D

 61 63  0  0  0  0  0  0  0  0999 V2000
   56.8719   31.6367   45.9988 H   0  0  0  0  0  0  0  0  0  0  0  0
   57.7040   32.0910   45.4410 C   0  0  0  0  0  0  0  0  0  0  0  0
   57.7230   31.8780   44.1160 C   0  0  0  0  0  0  0  0  0  0  0  0
   58.1332   32.6849   43.4910 H   0  0  0  0  0  0  0  0  0  0  0  0
   57.2390   30.6450   43.3990 C   0  0  0  0  0  0  0  0  0  0  0  0
   58.1092   30.1179   42.9807 H   0  0  0  0  0  0  0  0  0  0  0  0
   56.5421   30.9721   42.6133 H   0  0  0  0  0  0  0  0  0  0  0  0
   56.4730   29.6750   44.3230 C   0  0  0  0  0  0  0  0  0  0  0  0
   55.6373   29.2476   43.7495 H   0  0  0  0  0  0  0  0  0  0  0  0
   56.1523   30.2701   45.1908 H   0  0  0  0  0  0  0  0  0  0  0  0
   57.3130   28.5020   44.8930 C   0  0  0  0  0  0  0  0  0  0  0  0
   56.6071   27.7821   45.3329 H   0  0  0  0  0  0  0  0  0  0  0  0
   58.1150   27.8370   43.7630 C   0  0  0  0  0  0  0  0  0  0  0  0
   58.8933   27.1917   44.1964 H   0  0  0  0  0  0  0  0  0  0  0  0
   57.4396   27.2303   43.1419 H   0  0  0  0  0  0  0  0  0  0  0  0
   58.5861   28.6131   43.1419 H   0  0  0  0  0  0  0  0  0  0  0  0
   58.2680   28.9480   46.0110 C   0  0  0  0  0  0  0  0  0  0  0  0
   57.8122   28.7351   46.9892 H   0  0  0  0  0  0  0  0  0  0  0  0
   59.2178   28.4003   45.9221 H   0  0  0  0  0  0  0  0  0  0  0  0
   58.4577   30.0279   45.9221 H   0  0  0  0  0  0  0  0  0  0  0  0
   58.6790   32.8690   46.2310 C   0  0  0  0  0  0  0  0  0  0  0  0
   58.3800   34.4420   46.7420 S   0  0  0  0  0  0  0  0  0  0  0  0
   59.9600   34.7220   47.2370 C   0  0  0  0  0  0  0  0  0  0  0  0
   60.3424   35.6454   47.6964 H   0  0  0  0  0  0  0  0  0  0  0  0
   60.6990   33.5740   46.9610 C   0  0  0  0  0  0  0  0  0  0  0  0
   62.1890   33.5100   47.1280 C   0  0  0  0  0  0  0  0  0  0  0  0
   62.6649   33.8205   46.1861 H   0  0  0  0  0  0  0  0  0  0  0  0
   62.4656   34.1799   47.9555 H   0  0  0  0  0  0  0  0  0  0  0  0
   62.6720   32.0950   47.4840 C   0  0  0  0  0  0  0  0  0  0  0  0
   62.1550   31.3681   46.8403 H   0  0  0  0  0  0  0  0  0  0  0  0
   63.7599   32.0516   47.3275 H   0  0  0  0  0  0  0  0  0  0  0  0
   62.4020   31.7790   48.8520 O   0  0  0  0  0  0  0  0  0  0  0  0
   61.1400   31.5220   49.4100 C   0  0  0  0  0  0  0  0  0  0  0  0
   60.6010   30.2390   49.2450 C   0  0  0  0  0  0  0  0  0  0  0  0
   61.1499   29.4911   48.6539 H   0  0  0  0  0  0  0  0  0  0  0  0
   59.3750   29.8980   49.8220 C   0  0  0  0  0  0  0  0  0  0  0  0
   58.9550   28.8932   49.6673 H   0  0  0  0  0  0  0  0  0  0  0  0
   58.6810   30.8350   50.5970 C   0  0  0  0  0  0  0  0  0  0  0  0
   57.4890   30.4990   51.2500 C   0  0  0  0  0  0  0  0  0  0  0  0
   57.0725   29.4861   51.1471 H   0  0  0  0  0  0  0  0  0  0  0  0
   56.8250   31.4540   52.0360 C   0  0  0  0  0  0  0  0  0  0  0  0
   55.5700   31.0850   52.7870 C   0  0  0  0  0  0  0  0  0  0  0  0
   55.8160   30.3175   53.5356 H   0  0  0  0  0  0  0  0  0  0  0  0
   55.1790   31.9946   53.2663 H   0  0  0  0  0  0  0  0  0  0  0  0
   54.5070   30.5470   51.8700 C   0  0  0  0  0  0  0  0  0  0  0  0
   54.3770   29.3020   51.6990 O   0  0  0  0  0  0  0  0  0  0  0  0
   53.5980   31.4580   51.2390 N   0  0  0  0  0  0  0  0  0  0  0  0
   52.2180   31.1120   50.9030 C   0  0  0  0  0  0  0  0  0  0  0  0
   52.2134   30.5008   49.9884 H   0  0  0  0  0  0  0  0  0  0  0  0
   51.7835   30.5523   51.7444 H   0  0  0  0  0  0  0  0  0  0  0  0
   51.3950   32.3400   50.6740 C   0  0  0  0  0  0  0  0  0  0  0  0
   51.0320   33.0440   51.6520 O   0  0  0  0  0  0  0  0  0  0  0  0
   50.9920   32.6900   49.3890 O   0  0  0  0  0  0  0  0  0  0  0  0
   57.3760   32.7410   52.1450 C   0  0  0  0  0  0  0  0  0  0  0  0
   56.8704   33.5021   52.7574 H   0  0  0  0  0  0  0  0  0  0  0  0
   58.5310   33.0520   51.4980 N   0  0  0  0  0  0  0  0  0  0  0  0
   59.1960   32.1420   50.7380 C   0  0  0  0  0  0  0  0  0  0  0  0
   60.4040   32.4890   50.1230 C   0  0  0  0  0  0  0  0  0  0  0  0
   60.7802   33.5200   50.1964 H   0  0  0  0  0  0  0  0  0  0  0  0
   59.9850   32.5540   46.4070 N   0  0  0  0  0  0  0  0  0  0  0  0
   60.4310   31.6760   46.0710 H   0  0  0  0  0  0  0  0  0  0  0  0
  1  2  1  0
  2  3  2  0
  3  4  1  0
  3  5  1  0
  5  6  1  0
  5  7  1  0
  5  8  1  0
  8  9  1  0
  8 10  1  0
  8 11  1  0
 11 12  1  0
 11 13  1  0
 13 14  1  0
 13 15  1  0
 13 16  1  0
 11 17  1  0
 17 18  1  0
 17 19  1  0
 17 20  1  0
  2 21  1  0
 21 22  1  0
 22 23  1  0
 23 24  1  0
 23 25  2  0
 25 26  1  0
 26 27  1  0
 26 28  1  0
 26 29  1  0
 29 30  1  0
 29 31  1  0
 29 32  1  0
 32 33  1  0
 33 34  2  0
 34 35  1  0
 34 36  1  0
 36 37  1  0
 36 38  2  0
 38 39  1  0
 39 40  1  0
 39 41  2  0
 41 42  1  0
 42 43  1  0
 42 44  1  0
 42 45  1  0
 45 46  2  0
 45 47  1  0
 47 48  1  0
 48 49  1  0
 48 50  1  0
 48 51  1  0
 51 52  2  0
 51 53  1  0
 41 54  1  0
 54 55  1  0
 54 56  2  0
 56 57  1  0
 57 58  2  0
 58 59  1  0
 25 60  1  0
 60 61  1  0
 60 21  2  0
 58 33  1  0
 57 38  1  0
M  CHG  3  47  -1  53  -1  60   1
M  END
>  <UniqueID>  (76) 
72

>  <SMILES>  (76) 
CC(C)CC/C=C\c1[nH+]c(CCOc2ccc3cc(CC(=O)[N-]CC(=O)[O-])cnc3c2)cs1

>  <Energy>  (76) 
81.35117212334099

>  <Genealogy>  (76) 
CC(C)CCC=Cc1[nH+]c(CCOc2ccc3cc(CC(=O)[N-]CC(=O)[O-])cnc3c2)cs1 (protonated)
CC(C)CC/C=C\c1[nH+]c(CCOc2ccc3cc(CC(=O)[N-]CC(=O)[O-])cnc3c2)cs1 (cis-trans isomerization)
CC(C)CC/C=C\c1[nH+]c(CCOc2ccc3cc(CC(=O)[N-]CC(=O)[O-])cnc3c2)cs1 (3D coordinates assigned)
CC(C)CC/C=C\c1[nH+]c(CCOc2ccc3cc(CC(=O)[N-]CC(=O)[O-])cnc3c2)cs1 (optimized conformer: 81.35117212334099 kcal/mol)

>  <smiles>  (76) 
CC(C)CCC=Cc1nc(CCOc2ccc3cc(CC(=O)NCC(=O)O)cnc3c2)cs1

>  <score_type>  (76) 
oracle

>  <origin>  (76) 
adg

>  <m_score__min__energy>  (76) 
-13.130000000000001

>  <m_primary>  (76) 
energy

$$$$
76:0
     RDKit          3D

 48 51  0  0  0  0  0  0  0  0999 V2000
   52.7100   28.2070   53.0220 C   0  0  0  0  0  0  0  0  0  0  0  0
   53.8420   28.9070   52.8940 C   0  0  0  0  0  0  0  0  0  0  0  0
   55.0520   28.3450   53.0970 N   0  0  0  0  0  0  0  0  0  0  0  0
   55.9610   29.3400   53.0820 C   0  0  0  0  0  0  0  0  0  0  0  0
   57.4060   29.1510   53.3160 C   0  0  0  0  0  0  0  0  0  0  0  0
   57.8130   28.0760   53.8290 O   0  0  0  0  0  0  0  0  0  0  0  0
   58.3700   30.1310   52.9090 N   0  0  0  0  0  0  0  0  0  0  0  0
   58.5450   30.5670   51.6960 C   0  0  0  0  0  0  0  0  0  0  0  0
   59.6550   30.2850   50.9850 N   0  0  0  0  0  0  0  0  0  0  0  0
   59.6320   30.8800   49.7610 C   0  0  0  0  0  0  0  0  0  0  0  0
   60.7670   30.7400   48.7910 C   0  0  0  0  0  0  0  0  0  0  0  0
   60.5770   29.5490   47.9350 N   0  0  0  0  0  0  0  0  0  0  0  0
   60.0200   29.9340   46.6200 C   0  0  0  0  0  0  0  0  0  0  0  0
   60.1850   28.8110   45.5700 C   0  0  0  0  0  0  0  0  0  0  0  0
   59.8210   27.3960   46.0910 C   0  0  0  0  0  0  0  0  0  0  0  0
   60.6280   26.8210   47.1190 O   0  0  0  0  0  0  0  0  0  0  0  0
   60.2180   27.1090   48.4450 C   0  0  0  0  0  0  0  0  0  0  0  0
   59.7160   28.5520   48.6120 C   0  0  0  0  0  0  0  0  0  0  0  0
   58.5040   31.6580   49.4980 C   0  0  0  0  0  0  0  0  0  0  0  0
   57.5030   31.5900   50.8460 S   0  0  0  0  0  0  0  0  0  0  0  0
   55.3400   30.5550   52.8720 C   0  0  0  0  0  0  0  0  0  0  0  0
   53.9890   30.2890   52.7030 C   0  0  0  0  0  0  0  0  0  0  0  0
   53.0870   31.2430   52.4020 C   0  0  0  0  0  0  0  0  0  0  0  0
   52.1920   31.2390   51.2320 C   0  0  0  0  0  0  0  0  0  0  0  0
   52.2340   30.3330   50.2370 N   0  0  0  0  0  0  0  0  0  0  0  0
   51.3470   30.8150   49.3400 C   0  0  0  0  0  0  0  0  0  0  0  0
   51.0890   30.2270   48.2580 O   0  0  0  0  0  0  0  0  0  0  0  0
   50.7680   31.9840   49.6880 N   0  0  0  0  0  0  0  0  0  0  0  0
   51.3260   32.2430   50.8820 C   0  0  0  0  0  0  0  0  0  0  0  0
   51.0540   33.3800   51.6320 O   0  0  0  0  0  0  0  0  0  0  0  0
   51.7392   28.6948   52.8496 H   0  0  0  0  0  0  0  0  0  0  0  0
   52.7495   27.1434   53.2997 H   0  0  0  0  0  0  0  0  0  0  0  0
   55.2420   27.3380   53.3020 H   0  0  0  0  0  0  0  0  0  0  0  0
   60.8130   31.6374   48.1566 H   0  0  0  0  0  0  0  0  0  0  0  0
   61.7038   30.6246   49.3559 H   0  0  0  0  0  0  0  0  0  0  0  0
   58.9489   30.1546   46.7388 H   0  0  0  0  0  0  0  0  0  0  0  0
   60.5707   30.8167   46.2629 H   0  0  0  0  0  0  0  0  0  0  0  0
   59.5345   29.0412   44.7133 H   0  0  0  0  0  0  0  0  0  0  0  0
   61.2510   28.7843   45.3001 H   0  0  0  0  0  0  0  0  0  0  0  0
   58.7917   27.4463   46.4758 H   0  0  0  0  0  0  0  0  0  0  0  0
   59.9816   26.7395   45.2231 H   0  0  0  0  0  0  0  0  0  0  0  0
   59.4055   26.4201   48.7193 H   0  0  0  0  0  0  0  0  0  0  0  0
   61.0949   26.9854   49.0975 H   0  0  0  0  0  0  0  0  0  0  0  0
   58.7024   28.6210   48.1903 H   0  0  0  0  0  0  0  0  0  0  0  0
   59.7313   28.7821   49.6876 H   0  0  0  0  0  0  0  0  0  0  0  0
   58.3051   32.2171   48.5718 H   0  0  0  0  0  0  0  0  0  0  0  0
   55.8230   31.5429   52.8441 H   0  0  0  0  0  0  0  0  0  0  0  0
   53.0123   32.0988   53.0891 H   0  0  0  0  0  0  0  0  0  0  0  0
  1  2  2  0
  2  3  1  0
  3  4  1  0
  4  5  1  0
  5  6  2  0
  5  7  1  0
  7  8  2  3
  8  9  1  0
  9 10  1  0
 10 11  1  0
 11 12  1  0
 12 13  1  0
 13 14  1  0
 14 15  1  0
 15 16  1  0
 16 17  1  0
 17 18  1  0
 10 19  2  0
 19 20  1  0
  4 21  2  0
 21 22  1  0
 22 23  2  3
 23 24  1  0
 24 25  1  0
 25 26  1  0
 26 27  2  0
 26 28  1  0
 28 29  1  0
 29 30  1  0
 22  2  1  0
 29 24  2  0
 20  8  1  0
 18 12  1  0
  1 31  1  0
  1 32  1  0
  3 33  1  0
 11 34  1  0
 11 35  1  0
 13 36  1  0
 13 37  1  0
 14 38  1  0
 14 39  1  0
 15 40  1  0
 15 41  1  0
 17 42  1  0
 17 43  1  0
 18 44  1  0
 18 45  1  0
 19 46  1  0
 21 47  1  0
 23 48  1  0
M  CHG  4   9  -1  25  -1  28  -1  30  -1
M  END
>  <UniqueID>  (77) 
73

>  <SMILES>  (77) 
C=c1[nH]c(C(=O)N=c2[n-]c(CN3CCCOCC3)cs2)cc1=Cc1[n-]c(=O)[n-]c1[O-]

>  <Energy>  (77) 
173.20405049433455

>  <Genealogy>  (77) 
C=c1[nH]c(C(=O)N=c2[n-]c(CN3CCCOCC3)cs2)cc1=Cc1[n-]c(=O)[n-]c1[O-] (protonated)
C=c1[nH]c(C(=O)N=c2[n-]c(CN3CCCOCC3)cs2)cc1=Cc1[n-]c(=O)[n-]c1[O-] (3D coordinates assigned)
C=c1[nH]c(C(=O)N=c2[n-]c(CN3CCCOCC3)cs2)cc1=Cc1[n-]c(=O)[n-]c1[O-] (nonaromatic ring conformer: 173.20405049433455 kcal/mol)

>  <smiles>  (77) 
C=c1[nH]c(C(=O)N=c2[nH]c(CN3CCCOCC3)cs2)cc1=Cc1[nH]c(=O)[nH]c1O

>  <score_type>  (77) 
oracle

>  <origin>  (77) 
adg

>  <m_score__min__energy>  (77) 
-16.59

>  <m_primary>  (77) 
energy

$$$$
77:0
     RDKit          3D

 79 83  0  0  0  0  0  0  0  0999 V2000
   55.4480   29.7390   44.2630 C   0  0  0  0  0  0  0  0  0  0  0  0
   56.7850   29.3640   43.6260 C   0  0  0  0  0  0  0  0  0  0  0  0
   57.8950   29.4640   44.6040 N   0  0  0  0  0  0  0  0  0  0  0  0
   58.8560   30.5340   44.2530 C   0  0  0  0  0  0  0  0  0  0  0  0
   58.4820   31.8370   44.9200 C   0  0  0  0  0  0  0  0  0  0  0  0
   57.4000   32.6000   44.4440 C   0  0  0  0  0  0  0  0  0  0  0  0
   57.0760   33.8170   45.0510 C   0  0  0  0  0  0  0  0  0  0  0  0
   57.8450   34.2980   46.1150 C   0  0  0  0  0  0  0  0  0  0  0  0
   58.9490   33.5630   46.5790 C   0  0  0  0  0  0  0  0  0  0  0  0
   59.7200   34.0060   47.6600 O   0  0  0  0  0  0  0  0  0  0  0  0
   61.1150   33.8890   47.7660 C   0  0  0  0  0  0  0  0  0  0  0  0
   61.7060   34.0220   49.0300 C   0  0  0  0  0  0  0  0  0  0  0  0
   63.0850   33.8610   49.1840 C   0  0  0  0  0  0  0  0  0  0  0  0
   63.8840   33.5710   48.0780 C   0  0  0  0  0  0  0  0  0  0  0  0
   63.3030   33.4290   46.8120 C   0  0  0  0  0  0  0  0  0  0  0  0
   61.9230   33.5800   46.6570 C   0  0  0  0  0  0  0  0  0  0  0  0
   59.2590   32.3340   45.9830 C   0  0  0  0  0  0  0  0  0  0  0  0
   57.4650   29.5050   46.0280 C   0  0  0  0  0  0  0  0  0  0  0  0
   58.4930   28.9750   47.0190 C   0  0  0  0  0  0  0  0  0  0  0  0
   59.2210   29.8750   47.8190 C   0  0  0  0  0  0  0  0  0  0  0  0
   60.1840   29.4160   48.7340 C   0  0  0  0  0  0  0  0  0  0  0  0
   60.9580   30.3830   49.5530 C   0  0  0  0  0  0  0  0  0  0  0  0
   62.0570   30.8200   49.1170 O   0  0  0  0  0  0  0  0  0  0  0  0
   60.5110   30.7890   50.8540 N   0  0  0  0  0  0  0  0  0  0  0  0
   60.4600   32.2210   51.1940 C   0  0  0  0  0  0  0  0  0  0  0  0
   59.0230   32.7360   51.4210 C   0  0  0  0  0  0  0  0  0  0  0  0
   57.8680   31.7840   51.0410 C   0  0  0  0  0  0  0  0  0  0  0  0
   57.6400   30.5170   51.9210 C   0  0  1  0  0  0  0  0  0  0  0  0
   56.2440   30.0080   51.9760 N   0  0  0  0  0  0  0  0  0  0  0  0
   55.9370   29.1850   53.1520 C   0  0  0  0  0  0  0  0  0  0  0  0
   54.4200   29.2250   53.3340 C   0  0  0  0  0  0  0  0  0  0  0  0
   53.9130   30.2070   52.2850 C   0  0  0  0  0  0  0  0  0  0  0  0
   55.1500   30.9710   51.8640 C   0  0  0  0  0  0  0  0  0  0  0  0
   58.6000   29.3460   51.6390 C   0  0  0  0  0  0  0  0  0  0  0  0
   60.0790   29.7380   51.7920 C   0  0  0  0  0  0  0  0  0  0  0  0
   60.4200   28.0360   48.8390 C   0  0  0  0  0  0  0  0  0  0  0  0
   59.6720   27.1330   48.0860 C   0  0  0  0  0  0  0  0  0  0  0  0
   58.6990   27.5910   47.1940 C   0  0  0  0  0  0  0  0  0  0  0  0
   57.9400   26.6590   46.4970 O   0  0  0  0  0  0  0  0  0  0  0  0
   55.5435   29.7122   45.3585 H   0  0  0  0  0  0  0  0  0  0  0  0
   55.1615   30.7522   43.9446 H   0  0  0  0  0  0  0  0  0  0  0  0
   54.6764   29.0226   43.9446 H   0  0  0  0  0  0  0  0  0  0  0  0
   56.7273   28.3304   43.2541 H   0  0  0  0  0  0  0  0  0  0  0  0
   56.9850   30.0639   42.8013 H   0  0  0  0  0  0  0  0  0  0  0  0
   59.8622   30.2365   44.5833 H   0  0  0  0  0  0  0  0  0  0  0  0
   58.8359   30.6796   43.1629 H   0  0  0  0  0  0  0  0  0  0  0  0
   56.8069   32.2377   43.5913 H   0  0  0  0  0  0  0  0  0  0  0  0
   56.2140   34.3975   44.6906 H   0  0  0  0  0  0  0  0  0  0  0  0
   57.5848   35.2552   46.5905 H   0  0  0  0  0  0  0  0  0  0  0  0
   61.0809   34.2543   49.9048 H   0  0  0  0  0  0  0  0  0  0  0  0
   63.5418   33.9631   50.1795 H   0  0  0  0  0  0  0  0  0  0  0  0
   64.9709   33.4538   48.2005 H   0  0  0  0  0  0  0  0  0  0  0  0
   63.9328   33.1987   45.9401 H   0  0  0  0  0  0  0  0  0  0  0  0
   61.4665   33.4568   45.6638 H   0  0  0  0  0  0  0  0  0  0  0  0
   60.1176   31.7519   46.3491 H   0  0  0  0  0  0  0  0  0  0  0  0
   57.2445   30.5505   46.2893 H   0  0  0  0  0  0  0  0  0  0  0  0
   56.5885   28.8450   46.1069 H   0  0  0  0  0  0  0  0  0  0  0  0
   59.0334   30.9550   47.7268 H   0  0  0  0  0  0  0  0  0  0  0  0
   61.0401   32.3837   52.1143 H   0  0  0  0  0  0  0  0  0  0  0  0
   60.8779   32.7767   50.3416 H   0  0  0  0  0  0  0  0  0  0  0  0
   58.9202   32.9718   52.4905 H   0  0  0  0  0  0  0  0  0  0  0  0
   58.9180   33.5965   50.7438 H   0  0  0  0  0  0  0  0  0  0  0  0
   56.9384   32.3716   51.0675 H   0  0  0  0  0  0  0  0  0  0  0  0
   58.1550   31.3852   50.0568 H   0  0  0  0  0  0  0  0  0  0  0  0
   57.8771   30.9231   52.9154 H   0  0  0  0  0  0  0  0  0  0  0  0
   56.2717   28.1501   52.9880 H   0  0  0  0  0  0  0  0  0  0  0  0
   56.4523   29.5658   54.0461 H   0  0  0  0  0  0  0  0  0  0  0  0
   53.9861   28.2277   53.1693 H   0  0  0  0  0  0  0  0  0  0  0  0
   54.1378   29.5316   54.3520 H   0  0  0  0  0  0  0  0  0  0  0  0
   53.4746   29.6723   51.4295 H   0  0  0  0  0  0  0  0  0  0  0  0
   53.1218   30.8660   52.6719 H   0  0  0  0  0  0  0  0  0  0  0  0
   55.0515   31.3258   50.8275 H   0  0  0  0  0  0  0  0  0  0  0  0
   55.3178   31.8622   52.4866 H   0  0  0  0  0  0  0  0  0  0  0  0
   58.3775   28.5315   52.3441 H   0  0  0  0  0  0  0  0  0  0  0  0
   58.4459   29.0354   50.5951 H   0  0  0  0  0  0  0  0  0  0  0  0
   60.2382   30.1009   52.8181 H   0  0  0  0  0  0  0  0  0  0  0  0
   60.6752   28.8411   51.5681 H   0  0  0  0  0  0  0  0  0  0  0  0
   61.2003   27.6652   49.5200 H   0  0  0  0  0  0  0  0  0  0  0  0
   59.8487   26.0527   48.1946 H   0  0  0  0  0  0  0  0  0  0  0  0
  1  2  1  0
  2  3  1  0
  3  4  1  0
  4  5  1  0
  5  6  2  0
  6  7  1  0
  7  8  2  0
  8  9  1  0
  9 10  1  0
 10 11  1  0
 11 12  2  0
 12 13  1  0
 13 14  2  0
 14 15  1  0
 15 16  2  0
  9 17  2  0
  3 18  1  0
 18 19  1  0
 19 20  2  0
 20 21  1  0
 21 22  1  0
 22 23  2  0
 22 24  1  0
 24 25  1  0
 25 26  1  0
 26 27  1  0
 27 28  1  0
 28 29  1  0
 29 30  1  0
 30 31  1  0
 31 32  1  0
 32 33  1  0
 28 34  1  0
 34 35  1  0
 21 36  2  0
 36 37  1  0
 37 38  2  0
 38 39  1  0
 17  5  1  0
 38 19  1  0
 16 11  1  0
 35 24  1  0
 33 29  1  0
  1 40  1  0
  1 41  1  0
  1 42  1  0
  2 43  1  0
  2 44  1  0
  4 45  1  0
  4 46  1  0
  6 47  1  0
  7 48  1  0
  8 49  1  0
 12 50  1  0
 13 51  1  0
 14 52  1  0
 15 53  1  0
 16 54  1  0
 17 55  1  0
 18 56  1  0
 18 57  1  0
 20 58  1  0
 25 59  1  0
 25 60  1  0
 26 61  1  0
 26 62  1  0
 27 63  1  0
 27 64  1  0
 28 65  1  1
 30 66  1  0
 30 67  1  0
 31 68  1  0
 31 69  1  0
 32 70  1  0
 32 71  1  0
 33 72  1  0
 33 73  1  0
 34 74  1  0
 34 75  1  0
 35 76  1  0
 35 77  1  0
 36 78  1  0
 37 79  1  0
M  CHG  1  39  -1
M  END
>  <UniqueID>  (78) 
74

>  <SMILES>  (78) 
CCN(Cc1cccc(Oc2ccccc2)c1)Cc1cc(C(=O)N2CCC[C@@H](N3CCCC3)CC2)ccc1[O-]

>  <Energy>  (78) 
118.19970411163415

>  <Genealogy>  (78) 
CCN(Cc1cccc(Oc2ccccc2)c1)Cc1cc(C(=O)N2CCCC(N3CCCC3)CC2)ccc1[O-] (protonated)
CCN(Cc1cccc(Oc2ccccc2)c1)Cc1cc(C(=O)N2CCC[C@@H](N3CCCC3)CC2)ccc1[O-] (chirality)
CCN(Cc1cccc(Oc2ccccc2)c1)Cc1cc(C(=O)N2CCC[C@@H](N3CCCC3)CC2)ccc1[O-] (3D coordinates assigned)
CCN(Cc1cccc(Oc2ccccc2)c1)Cc1cc(C(=O)N2CCC[C@@H](N3CCCC3)CC2)ccc1[O-] (nonaromatic ring conformer: 118.19970411163415 kcal/mol)

>  <smiles>  (78) 
CCN(Cc1cccc(Oc2ccccc2)c1)Cc1cc(C(=O)N2CCCC(N3CCCC3)CC2)ccc1O

>  <score_type>  (78) 
oracle

>  <origin>  (78) 
adg

>  <m_score__min__energy>  (78) 
-11.6

>  <m_primary>  (78) 
energy

$$$$
78:0
     RDKit          3D

 50 53  0  0  0  0  0  0  0  0999 V2000
   54.3050   26.7120   45.1630 H   0  0  0  0  0  0  0  0  0  0  0  0
   54.7890   26.4100   45.9990 O   0  0  0  0  0  0  0  0  0  0  0  0
   56.1730   26.5210   46.1420 C   0  0  0  0  0  0  0  0  0  0  0  0
   56.8830   25.4450   46.6890 C   0  0  0  0  0  0  0  0  0  0  0  0
   56.3466   24.5335   46.9914 H   0  0  0  0  0  0  0  0  0  0  0  0
   58.2680   25.5220   46.8530 C   0  0  0  0  0  0  0  0  0  0  0  0
   58.8203   24.6705   47.2772 H   0  0  0  0  0  0  0  0  0  0  0  0
   58.9510   26.6810   46.4780 C   0  0  0  0  0  0  0  0  0  0  0  0
   60.0406   26.7447   46.6151 H   0  0  0  0  0  0  0  0  0  0  0  0
   58.2530   27.7600   45.9290 C   0  0  0  0  0  0  0  0  0  0  0  0
   58.7942   28.6749   45.6461 H   0  0  0  0  0  0  0  0  0  0  0  0
   56.8600   27.6820   45.7360 C   0  0  0  0  0  0  0  0  0  0  0  0
   56.1210   28.7960   45.2080 N   0  0  0  0  0  0  0  0  0  0  0  0
   56.6240   29.8810   44.6950 C   0  0  0  0  0  0  0  0  0  0  0  0
   57.1650   30.8150   45.5210 N   0  0  0  0  0  0  0  0  0  0  0  0
   57.6690   31.9790   45.0320 C   0  0  0  0  0  0  0  0  0  0  0  0
   58.3720   33.1830   46.1550 S   0  0  0  0  0  0  0  0  0  0  0  0
   58.7550   31.9410   47.3880 C   0  0  0  0  0  0  0  0  0  0  0  0
   59.3880   30.7510   47.0120 C   0  0  0  0  0  0  0  0  0  0  0  0
   59.6545   30.5800   45.9586 H   0  0  0  0  0  0  0  0  0  0  0  0
   59.6820   29.7800   47.9720 C   0  0  0  0  0  0  0  0  0  0  0  0
   60.1679   28.8413   47.6675 H   0  0  0  0  0  0  0  0  0  0  0  0
   59.3630   29.9920   49.3200 C   0  0  0  0  0  0  0  0  0  0  0  0
   59.6640   28.9580   50.2680 N   0  0  0  0  0  0  0  0  0  0  0  0
   60.9260   28.3070   50.4610 C   0  0  0  0  0  0  0  0  0  0  0  0
   61.1640   27.1990   49.9110 O   0  0  0  0  0  0  0  0  0  0  0  0
   61.8920   28.8450   51.3720 N   0  0  0  0  0  0  0  0  0  0  0  0
   62.8670   29.8560   51.0790 C   0  0  0  0  0  0  0  0  0  0  0  0
   64.1030   29.9110   51.7430 C   0  0  0  0  0  0  0  0  0  0  0  0
   64.3487   29.1593   52.5075 H   0  0  0  0  0  0  0  0  0  0  0  0
   65.0200   30.9160   51.4360 C   0  0  0  0  0  0  0  0  0  0  0  0
   65.9919   30.9428   51.9505 H   0  0  0  0  0  0  0  0  0  0  0  0
   64.7150   31.8900   50.4800 C   0  0  0  0  0  0  0  0  0  0  0  0
   65.9270   33.1210   50.1360 Cl  0  0  0  0  0  0  0  0  0  0  0  0
   63.4600   31.8730   49.8270 C   0  0  0  0  0  0  0  0  0  0  0  0
   63.1070   32.9250   48.8000 C   0  0  0  0  0  0  0  0  0  0  0  0
   64.0290   32.9680   47.7680 F   0  0  0  0  0  0  0  0  0  0  0  0
   63.0710   34.1690   49.4040 F   0  0  0  0  0  0  0  0  0  0  0  0
   61.8650   32.6480   48.2560 F   0  0  0  0  0  0  0  0  0  0  0  0
   62.5450   30.8480   50.1440 C   0  0  0  0  0  0  0  0  0  0  0  0
   61.5628   30.8271   49.6492 H   0  0  0  0  0  0  0  0  0  0  0  0
   58.7010   31.1800   49.6910 C   0  0  0  0  0  0  0  0  0  0  0  0
   58.4133   31.3432   50.7401 H   0  0  0  0  0  0  0  0  0  0  0  0
   58.4090   32.1520   48.7280 C   0  0  0  0  0  0  0  0  0  0  0  0
   57.9063   33.0844   49.0245 H   0  0  0  0  0  0  0  0  0  0  0  0
   57.6300   32.2320   43.6600 C   0  0  0  0  0  0  0  0  0  0  0  0
   58.0346   33.1681   43.2478 H   0  0  0  0  0  0  0  0  0  0  0  0
   57.0650   31.2680   42.8240 C   0  0  0  0  0  0  0  0  0  0  0  0
   57.0060   31.4610   41.5810 O   0  0  0  0  0  0  0  0  0  0  0  0
   56.5730   30.1190   43.3540 N   0  0  0  0  0  0  0  0  0  0  0  0
  1  2  1  0
  2  3  1  0
  3  4  2  0
  4  5  1  0
  4  6  1  0
  6  7  1  0
  6  8  2  0
  8  9  1  0
  8 10  1  0
 10 11  1  0
 10 12  2  0
 12 13  1  0
 13 14  2  0
 14 15  1  0
 15 16  1  0
 16 17  1  0
 17 18  1  0
 18 19  2  0
 19 20  1  0
 19 21  1  0
 21 22  1  0
 21 23  2  0
 23 24  1  0
 24 25  1  0
 25 26  2  0
 25 27  1  0
 27 28  1  0
 28 29  2  0
 29 30  1  0
 29 31  1  0
 31 32  1  0
 31 33  2  0
 33 34  1  0
 33 35  1  0
 35 36  1  0
 36 37  1  0
 36 38  1  0
 36 39  1  0
 35 40  2  0
 40 41  1  0
 23 42  1  0
 42 43  1  0
 42 44  2  0
 44 45  1  0
 16 46  2  0
 46 47  1  0
 46 48  1  0
 48 49  2  0
 48 50  1  0
 12  3  1  0
 50 14  1  0
 44 18  1  0
 40 28  1  0
M  CHG  4  15  -1  24  -1  27  -1  50  -1
M  END
>  <UniqueID>  (79) 
75

>  <SMILES>  (79) 
O=C([N-]c1ccc(Sc2cc(=O)[n-]/c(=N\c3ccccc3O)[n-]2)cc1)[N-]c1ccc(Cl)c(C(F)(F)F)c1

>  <Energy>  (79) 
67.47555385013418

>  <Genealogy>  (79) 
O=C([N-]c1ccc(Sc2cc(=O)[n-]c(=Nc3ccccc3O)[n-]2)cc1)[N-]c1ccc(Cl)c(C(F)(F)F)c1 (protonated)
O=C([N-]c1ccc(Sc2cc(=O)[n-]/c(=N\c3ccccc3O)[n-]2)cc1)[N-]c1ccc(Cl)c(C(F)(F)F)c1 (cis-trans isomerization)
O=C([N-]c1ccc(Sc2cc(=O)[n-]/c(=N\c3ccccc3O)[n-]2)cc1)[N-]c1ccc(Cl)c(C(F)(F)F)c1 (3D coordinates assigned)
O=C([N-]c1ccc(Sc2cc(=O)[n-]/c(=N\c3ccccc3O)[n-]2)cc1)[N-]c1ccc(Cl)c(C(F)(F)F)c1 (optimized conformer: 67.47555385013418 kcal/mol)

>  <smiles>  (79) 
O=C(Nc1ccc(Sc2cc(=O)[nH]c(=Nc3ccccc3O)[nH]2)cc1)Nc1ccc(Cl)c(C(F)(F)F)c1

>  <score_type>  (79) 
oracle

>  <origin>  (79) 
adg

>  <m_score__min__energy>  (79) 
-14.32

>  <m_primary>  (79) 
energy

$$$$
79:0
     RDKit          3D

 51 55  0  0  0  0  0  0  0  0999 V2000
   58.2470   35.6380   51.9540 H   0  0  0  0  0  0  0  0  0  0  0  0
   58.2160   34.7910   52.5090 O   0  0  0  0  0  0  0  0  0  0  0  0
   59.3090   33.9330   52.5530 C   0  0  0  0  0  0  0  0  0  0  0  0
   60.1920   33.8990   53.5750 N   0  0  0  0  0  0  0  0  0  0  0  0
   61.0910   32.9580   53.2140 C   0  0  0  0  0  0  0  0  0  0  0  0
   62.1930   32.6160   53.9890 O   0  0  0  0  0  0  0  0  0  0  0  0
   60.7790   32.4010   51.9890 C   0  0  0  0  0  0  0  0  0  0  0  0
   59.6380   33.0230   51.5700 C   0  0  0  0  0  0  0  0  0  0  0  0
   58.9860   32.7840   50.2480 C   0  0  0  0  0  0  0  0  0  0  0  0
   59.1879   33.6423   49.5903 H   0  0  0  0  0  0  0  0  0  0  0  0
   57.9056   32.6618   50.4148 H   0  0  0  0  0  0  0  0  0  0  0  0
   59.5090   31.5230   49.5860 C   0  0  0  0  0  0  0  0  0  0  0  0
   58.8090   31.0150   48.4800 C   0  0  0  0  0  0  0  0  0  0  0  0
   57.9038   31.5315   48.1280 H   0  0  0  0  0  0  0  0  0  0  0  0
   59.2480   29.8550   47.8150 C   0  0  0  0  0  0  0  0  0  0  0  0
   58.5390   29.3150   46.6830 N   0  0  0  0  0  0  0  0  0  0  0  0
   58.6060   28.2850   46.5090 H   0  0  0  0  0  0  0  0  0  0  0  0
   57.7370   30.1340   45.7720 C   0  0  0  0  0  0  0  0  0  0  0  0
   58.3952   30.5774   45.0103 H   0  0  0  0  0  0  0  0  0  0  0  0
   57.2389   30.9250   46.3519 H   0  0  0  0  0  0  0  0  0  0  0  0
   56.6920   29.3010   45.0950 C   0  0  0  0  0  0  0  0  0  0  0  0
   55.5750   29.8100   44.8080 O   0  0  0  0  0  0  0  0  0  0  0  0
   57.0160   27.9680   44.6790 N   0  0  0  0  0  0  0  0  0  0  0  0
   57.1540   26.8920   45.4070 C   0  0  0  0  0  0  0  0  0  0  0  0
   58.4160   26.4150   45.5910 N   0  0  0  0  0  0  0  0  0  0  0  0
   58.6800   25.2990   46.3210 C   0  0  0  0  0  0  0  0  0  0  0  0
   59.7167   24.9499   46.4366 H   0  0  0  0  0  0  0  0  0  0  0  0
   57.6370   24.5970   46.9230 C   0  0  0  0  0  0  0  0  0  0  0  0
   57.8415   23.6837   47.5009 H   0  0  0  0  0  0  0  0  0  0  0  0
   56.3320   25.0660   46.7840 C   0  0  0  0  0  0  0  0  0  0  0  0
   55.5015   24.5239   47.2599 H   0  0  0  0  0  0  0  0  0  0  0  0
   56.0740   26.2230   46.0420 C   0  0  0  0  0  0  0  0  0  0  0  0
   54.7710   26.7030   46.0030 O   0  0  0  0  0  0  0  0  0  0  0  0
   60.4070   29.2090   48.2670 C   0  0  0  0  0  0  0  0  0  0  0  0
   60.7561   28.2981   47.7588 H   0  0  0  0  0  0  0  0  0  0  0  0
   61.1220   29.7100   49.3550 C   0  0  0  0  0  0  0  0  0  0  0  0
   62.0326   29.1926   49.6912 H   0  0  0  0  0  0  0  0  0  0  0  0
   60.6940   30.8660   50.0260 C   0  0  0  0  0  0  0  0  0  0  0  0
   61.5330   31.3860   51.1860 C   0  0  1  0  0  0  0  0  0  0  0  0
   61.7649   30.5332   51.8409 H   0  0  0  0  0  0  0  0  0  0  0  0
   62.8290   31.9830   50.6780 C   0  0  0  0  0  0  0  0  0  0  0  0
   64.0030   31.8760   51.4420 C   0  0  0  0  0  0  0  0  0  0  0  0
   63.9800   31.3536   52.4098 H   0  0  0  0  0  0  0  0  0  0  0  0
   65.2010   32.4300   50.9790 C   0  0  0  0  0  0  0  0  0  0  0  0
   66.1164   32.3409   51.5824 H   0  0  0  0  0  0  0  0  0  0  0  0
   65.2370   33.0960   49.7520 C   0  0  0  0  0  0  0  0  0  0  0  0
   66.1808   33.5300   49.3903 H   0  0  0  0  0  0  0  0  0  0  0  0
   64.0760   33.2120   48.9830 C   0  0  0  0  0  0  0  0  0  0  0  0
   64.1130   33.8760   47.7640 O   0  0  0  0  0  0  0  0  0  0  0  0
   62.8760   32.6580   49.4420 C   0  0  0  0  0  0  0  0  0  0  0  0
   61.9637   32.7499   48.8343 H   0  0  0  0  0  0  0  0  0  0  0  0
  1  2  1  0
  2  3  1  0
  3  4  1  0
  4  5  1  0
  5  6  1  0
  5  7  2  0
  7  8  1  0
  8  9  1  0
  9 10  1  0
  9 11  1  0
  9 12  1  0
 12 13  2  0
 13 14  1  0
 13 15  1  0
 15 16  1  0
 16 17  1  0
 16 18  1  0
 18 19  1  0
 18 20  1  0
 18 21  1  0
 21 22  2  0
 21 23  1  0
 23 24  2  0
 24 25  1  0
 25 26  1  0
 26 27  1  0
 26 28  2  0
 28 29  1  0
 28 30  1  0
 30 31  1  0
 30 32  2  0
 32 33  1  0
 15 34  2  0
 34 35  1  0
 34 36  1  0
 36 37  1  0
 36 38  2  0
 38 39  1  0
 39 40  1  1
 39 41  1  0
 41 42  2  0
 42 43  1  0
 42 44  1  0
 44 45  1  0
 44 46  2  0
 46 47  1  0
 46 48  1  0
 48 49  1  0
 48 50  2  0
 50 51  1  0
  8  3  2  0
 38 12  1  0
 50 41  1  0
 39  7  1  0
 32 24  1  0
M  CHG  5   4  -1   6  -1  25  -1  33  -1  49  -1
M  END
>  <UniqueID>  (80) 
76

>  <SMILES>  (80) 
O=C(CNc1ccc2c(c1)Cc1c(O)[n-]c([O-])c1[C@@H]2c1cccc([O-])c1)/N=c1/[n-]cccc1[O-]

>  <Energy>  (80) 
99.83085708929063

>  <Genealogy>  (80) 
O=C(CNc1ccc2c(c1)Cc1c(O)[n-]c([O-])c1C2c1cccc([O-])c1)N=c1[n-]cccc1[O-] (protonated)
O=C(CNc1ccc2c(c1)Cc1c(O)[n-]c([O-])c1[C@@H]2c1cccc([O-])c1)N=c1[n-]cccc1[O-] (chirality)
O=C(CNc1ccc2c(c1)Cc1c(O)[n-]c([O-])c1[C@@H]2c1cccc([O-])c1)/N=c1/[n-]cccc1[O-] (cis-trans isomerization)
O=C(CNc1ccc2c(c1)Cc1c(O)[n-]c([O-])c1[C@@H]2c1cccc([O-])c1)/N=c1/[n-]cccc1[O-] (3D coordinates assigned)
O=C(CNc1ccc2c(c1)Cc1c(O)[n-]c([O-])c1[C@@H]2c1cccc([O-])c1)/N=c1/[n-]cccc1[O-] (nonaromatic ring conformer: 99.83085708929063 kcal/mol)

>  <smiles>  (80) 
O=C(CNc1ccc2c(c1)Cc1c(O)[nH]c(O)c1C2c1cccc(O)c1)N=c1[nH]cccc1O

>  <score_type>  (80) 
oracle

>  <origin>  (80) 
adg

>  <m_score__min__energy>  (80) 
-16.809999999999999

>  <m_primary>  (80) 
energy

$$$$
80:0
     RDKit          3D

 53 56  0  0  0  0  0  0  0  0999 V2000
   64.1460   32.9780   50.2740 C   0  0  0  0  0  0  0  0  0  0  0  0
   63.7140   31.5930   50.1200 N   0  0  0  0  0  0  0  0  0  0  0  0
   62.6140   31.1890   49.2820 C   0  0  0  0  0  0  0  0  0  0  0  0
   61.5820   30.3650   49.7710 C   0  0  0  0  0  0  0  0  0  0  0  0
   60.5170   29.9950   48.9440 C   0  0  0  0  0  0  0  0  0  0  0  0
   60.4670   30.4260   47.6070 C   0  0  0  0  0  0  0  0  0  0  0  0
   59.3340   30.0340   46.7390 C   0  0  0  0  0  0  0  0  0  0  0  0
   58.2020   29.8250   47.2540 O   0  0  0  0  0  0  0  0  0  0  0  0
   59.5190   29.8620   45.3250 N   0  0  0  0  0  0  0  0  0  0  0  0
   58.4260   29.8890   44.3920 C   0  0  0  0  0  0  0  0  0  0  0  0
   57.5950   28.5210   43.8690 S   0  0  0  0  0  0  0  0  0  0  0  0
   56.4030   29.3410   43.0200 C   0  0  0  0  0  0  0  0  0  0  0  0
   56.6360   30.7050   43.1420 C   0  0  0  0  0  0  0  0  0  0  0  0
   57.7750   31.0310   43.9060 C   0  0  0  0  0  0  0  0  0  0  0  0
   58.2260   32.4320   44.1070 C   0  0  0  0  0  0  0  0  0  0  0  0
   58.3300   33.2150   43.1270 O   0  0  0  0  0  0  0  0  0  0  0  0
   58.5230   32.9290   45.4200 N   0  0  0  0  0  0  0  0  0  0  0  0
   57.4350   33.1450   46.3800 C   0  0  0  0  0  0  0  0  0  0  0  0
   57.9340   32.8890   47.8040 C   0  0  0  0  0  0  0  0  0  0  0  0
   59.2070   33.5770   48.0650 N   0  0  0  0  0  0  0  0  0  0  0  0
   59.7000   33.6750   49.4160 C   0  0  0  0  0  0  0  0  0  0  0  0
   60.4280   34.6500   49.7530 O   0  0  0  0  0  0  0  0  0  0  0  0
   59.3160   32.6510   50.4510 C   0  0  0  0  0  0  0  0  0  0  0  0
   60.1010   32.7630   51.7520 C   0  0  0  0  0  0  0  0  0  0  0  0
   58.6520   33.2180   51.7000 C   0  0  0  0  0  0  0  0  0  0  0  0
   59.9050   34.2850   46.9830 C   0  0  0  0  0  0  0  0  0  0  0  0
   59.8630   33.4680   45.6830 C   0  0  0  0  0  0  0  0  0  0  0  0
   61.4950   31.2500   47.1180 C   0  0  0  0  0  0  0  0  0  0  0  0
   62.5580   31.6270   47.9450 C   0  0  0  0  0  0  0  0  0  0  0  0
   63.5350   32.4200   47.4400 F   0  0  0  0  0  0  0  0  0  0  0  0
   64.2220   33.2216   51.3440 H   0  0  0  0  0  0  0  0  0  0  0  0
   65.1283   33.1109   49.7971 H   0  0  0  0  0  0  0  0  0  0  0  0
   63.4135   33.6458   49.7971 H   0  0  0  0  0  0  0  0  0  0  0  0
   64.2440   30.8640   50.6490 H   0  0  0  0  0  0  0  0  0  0  0  0
   61.6140   30.0097   50.8116 H   0  0  0  0  0  0  0  0  0  0  0  0
   59.7114   29.3612   49.3431 H   0  0  0  0  0  0  0  0  0  0  0  0
   60.4910   29.7500   44.9630 H   0  0  0  0  0  0  0  0  0  0  0  0
   55.5768   28.8771   42.4613 H   0  0  0  0  0  0  0  0  0  0  0  0
   55.9876   31.4653   42.6821 H   0  0  0  0  0  0  0  0  0  0  0  0
   57.0793   34.1828   46.2998 H   0  0  0  0  0  0  0  0  0  0  0  0
   56.6125   32.4500   46.1555 H   0  0  0  0  0  0  0  0  0  0  0  0
   57.1794   33.2524   48.5171 H   0  0  0  0  0  0  0  0  0  0  0  0
   58.0978   31.8076   47.9212 H   0  0  0  0  0  0  0  0  0  0  0  0
   59.0760   31.8435   49.7436 H   0  0  0  0  0  0  0  0  0  0  0  0
   60.3723   31.8548   52.3102 H   0  0  0  0  0  0  0  0  0  0  0  0
   61.0520   33.2297   52.0482 H   0  0  0  0  0  0  0  0  0  0  0  0
   57.8749   32.6390   52.2205 H   0  0  0  0  0  0  0  0  0  0  0  0
   58.1207   34.1500   51.9429 H   0  0  0  0  0  0  0  0  0  0  0  0
   59.4179   35.2568   46.8145 H   0  0  0  0  0  0  0  0  0  0  0  0
   60.9555   34.4298   47.2755 H   0  0  0  0  0  0  0  0  0  0  0  0
   60.1562   34.1173   44.8449 H   0  0  0  0  0  0  0  0  0  0  0  0
   60.5570   32.6212   45.7892 H   0  0  0  0  0  0  0  0  0  0  0  0
   61.4633   31.6014   46.0761 H   0  0  0  0  0  0  0  0  0  0  0  0
  1  2  1  0
  2  3  1  0
  3  4  2  0
  4  5  1  0
  5  6  2  0
  6  7  1  0
  7  8  2  0
  7  9  1  0
  9 10  1  0
 10 11  1  0
 11 12  1  0
 12 13  2  0
 13 14  1  0
 14 15  1  0
 15 16  2  0
 15 17  1  0
 17 18  1  0
 18 19  1  0
 19 20  1  0
 20 21  1  0
 21 22  2  0
 21 23  1  0
 23 24  1  0
 24 25  1  0
 20 26  1  0
 26 27  1  0
  6 28  1  0
 28 29  2  0
 29 30  1  0
 29  3  1  0
 14 10  2  0
 27 17  1  0
 25 23  1  0
  1 31  1  0
  1 32  1  0
  1 33  1  0
  2 34  1  0
  4 35  1  0
  5 36  1  0
  9 37  1  0
 12 38  1  0
 13 39  1  0
 18 40  1  0
 18 41  1  0
 19 42  1  0
 19 43  1  0
 23 44  1  0
 24 45  1  0
 24 46  1  0
 25 47  1  0
 25 48  1  0
 26 49  1  0
 26 50  1  0
 27 51  1  0
 27 52  1  0
 28 53  1  0
M  END
>  <UniqueID>  (81) 
77

>  <SMILES>  (81) 
CNc1ccc(C(=O)Nc2sccc2C(=O)N2CCN(C(=O)C3CC3)CC2)cc1F

>  <Energy>  (81) 
355.3287229460095

>  <Genealogy>  (81) 
CNc1ccc(C(=O)Nc2sccc2C(=O)N2CCN(C(=O)C3CC3)CC2)cc1F (3D coordinates assigned)
CNc1ccc(C(=O)Nc2sccc2C(=O)N2CCN(C(=O)C3CC3)CC2)cc1F (nonaromatic ring conformer: 355.3287229460095 kcal/mol)

>  <smiles>  (81) 
CNc1ccc(C(=O)Nc2sccc2C(=O)N2CCN(C(=O)C3CC3)CC2)cc1F

>  <score_type>  (81) 
oracle

>  <origin>  (81) 
adg

>  <m_score__min__energy>  (81) 
-7.3099999999999996

>  <m_primary>  (81) 
energy

$$$$
81:0
     RDKit          3D

 52 54  0  0  0  0  0  0  0  0999 V2000
   59.5470   35.3840   46.9680 N   0  0  0  0  0  0  0  0  0  0  0  0
   59.1460   34.9460   45.6660 C   0  0  0  0  0  0  0  0  0  0  0  0
   59.2640   35.7390   44.6870 O   0  0  0  0  0  0  0  0  0  0  0  0
   58.6100   33.5800   45.4450 C   0  0  0  0  0  0  0  0  0  0  0  0
   58.4280   33.0730   44.1480 C   0  0  0  0  0  0  0  0  0  0  0  0
   57.9110   31.7890   43.9570 C   0  0  0  0  0  0  0  0  0  0  0  0
   57.5870   30.9830   45.0570 C   0  0  0  0  0  0  0  0  0  0  0  0
   56.8710   29.3960   44.7920 S   0  0  0  0  0  0  0  0  0  0  0  0
   57.2590   28.8680   43.4400 O   0  0  0  0  0  0  0  0  0  0  0  0
   55.3710   29.5250   44.8540 O   0  0  0  0  0  0  0  0  0  0  0  0
   57.4010   28.2970   46.0360 N   0  0  0  0  0  0  0  0  0  0  0  0
   58.8470   28.0740   45.9770 C   0  0  0  0  0  0  0  0  0  0  0  0
   59.5920   29.1430   46.7320 C   0  0  0  0  0  0  0  0  0  0  0  0
   59.4220   29.2900   48.1170 C   0  0  0  0  0  0  0  0  0  0  0  0
   60.1270   30.2720   48.8150 C   0  0  0  0  0  0  0  0  0  0  0  0
   60.9940   31.1480   48.1370 C   0  0  0  0  0  0  0  0  0  0  0  0
   61.6510   32.2550   48.8650 C   0  0  0  0  0  0  0  0  0  0  0  0
   62.7890   32.0850   49.3830 O   0  0  0  0  0  0  0  0  0  0  0  0
   61.0220   33.5380   48.9380 N   0  0  0  0  0  0  0  0  0  0  0  0
   59.8510   33.7910   49.7700 C   0  0  0  0  0  0  0  0  0  0  0  0
   60.1170   33.2910   51.1960 C   0  0  0  0  0  0  0  0  0  0  0  0
   59.1540   32.1890   51.5620 C   0  0  0  0  0  0  0  0  0  0  0  0
   57.7720   32.3620   51.3590 C   0  0  0  0  0  0  0  0  0  0  0  0
   56.8810   31.3050   51.6090 C   0  0  0  0  0  0  0  0  0  0  0  0
   57.3700   30.0760   52.0720 C   0  0  0  0  0  0  0  0  0  0  0  0
   58.7440   29.8980   52.2880 C   0  0  0  0  0  0  0  0  0  0  0  0
   59.6350   30.9470   52.0210 C   0  0  0  0  0  0  0  0  0  0  0  0
   61.1640   30.9980   46.7490 C   0  0  0  0  0  0  0  0  0  0  0  0
   60.4740   29.9990   46.0540 C   0  0  0  0  0  0  0  0  0  0  0  0
   57.7860   31.4740   46.3550 C   0  0  0  0  0  0  0  0  0  0  0  0
   58.2880   32.7640   46.5490 C   0  0  0  0  0  0  0  0  0  0  0  0
   59.8200   36.3850   47.1190 H   0  0  0  0  0  0  0  0  0  0  0  0
   59.6470   34.7170   47.7630 H   0  0  0  0  0  0  0  0  0  0  0  0
   58.6940   33.6904   43.2773 H   0  0  0  0  0  0  0  0  0  0  0  0
   57.7572   31.4082   42.9365 H   0  0  0  0  0  0  0  0  0  0  0  0
   59.0777   27.0941   46.4203 H   0  0  0  0  0  0  0  0  0  0  0  0
   59.1626   28.1060   44.9237 H   0  0  0  0  0  0  0  0  0  0  0  0
   58.7289   28.6274   48.6561 H   0  0  0  0  0  0  0  0  0  0  0  0
   60.0035   30.3616   49.9044 H   0  0  0  0  0  0  0  0  0  0  0  0
   59.6444   34.8712   49.7931 H   0  0  0  0  0  0  0  0  0  0  0  0
   58.9833   33.2598   49.3518 H   0  0  0  0  0  0  0  0  0  0  0  0
   61.1459   32.9070   51.2581 H   0  0  0  0  0  0  0  0  0  0  0  0
   59.9796   34.1282   51.8961 H   0  0  0  0  0  0  0  0  0  0  0  0
   57.3878   33.3293   51.0030 H   0  0  0  0  0  0  0  0  0  0  0  0
   55.8024   31.4417   51.4418 H   0  0  0  0  0  0  0  0  0  0  0  0
   56.6731   29.2475   52.2668 H   0  0  0  0  0  0  0  0  0  0  0  0
   59.1222   28.9368   52.6663 H   0  0  0  0  0  0  0  0  0  0  0  0
   60.7148   30.7996   52.1706 H   0  0  0  0  0  0  0  0  0  0  0  0
   61.8442   31.6708   46.2061 H   0  0  0  0  0  0  0  0  0  0  0  0
   60.6234   29.8837   44.9703 H   0  0  0  0  0  0  0  0  0  0  0  0
   57.5464   30.8423   47.2231 H   0  0  0  0  0  0  0  0  0  0  0  0
   58.4329   33.1455   47.5705 H   0  0  0  0  0  0  0  0  0  0  0  0
  1  2  1  0
  2  3  2  0
  2  4  1  0
  4  5  2  0
  5  6  1  0
  6  7  2  0
  7  8  1  0
  8  9  2  0
  8 10  2  0
  8 11  1  0
 11 12  1  0
 12 13  1  0
 13 14  2  0
 14 15  1  0
 15 16  2  0
 16 17  1  0
 17 18  2  0
 17 19  1  0
 19 20  1  0
 20 21  1  0
 21 22  1  0
 22 23  2  0
 23 24  1  0
 24 25  2  0
 25 26  1  0
 26 27  2  0
 16 28  1  0
 28 29  2  0
  7 30  1  0
 30 31  2  0
 31  4  1  0
 29 13  1  0
 27 22  1  0
  1 32  1  0
  1 33  1  0
  5 34  1  0
  6 35  1  0
 12 36  1  0
 12 37  1  0
 14 38  1  0
 15 39  1  0
 20 40  1  0
 20 41  1  0
 21 42  1  0
 21 43  1  0
 23 44  1  0
 24 45  1  0
 25 46  1  0
 26 47  1  0
 27 48  1  0
 28 49  1  0
 29 50  1  0
 30 51  1  0
 31 52  1  0
M  CHG  2  11  -1  19  -1
M  END
>  <UniqueID>  (82) 
78

>  <SMILES>  (82) 
NC(=O)c1ccc(S(=O)(=O)[N-]Cc2ccc(C(=O)[N-]CCc3ccccc3)cc2)cc1

>  <Energy>  (82) 
49.2652521817007

>  <Genealogy>  (82) 
NC(=O)c1ccc(S(=O)(=O)[N-]Cc2ccc(C(=O)[N-]CCc3ccccc3)cc2)cc1 (protonated)
NC(=O)c1ccc(S(=O)(=O)[N-]Cc2ccc(C(=O)[N-]CCc3ccccc3)cc2)cc1 (3D coordinates assigned)
NC(=O)c1ccc(S(=O)(=O)[N-]Cc2ccc(C(=O)[N-]CCc3ccccc3)cc2)cc1 (optimized conformer: 49.2652521817007 kcal/mol)

>  <smiles>  (82) 
NC(=O)c1ccc(S(=O)(=O)NCc2ccc(C(=O)NCCc3ccccc3)cc2)cc1

>  <score_type>  (82) 
oracle

>  <origin>  (82) 
adg

>  <m_score__min__energy>  (82) 
-11.699999999999999

>  <m_primary>  (82) 
energy

$$$$
