0:0
     RDKit          3D

 50 53  0  0  0  0  0  0  0  0999 V2000
   58.9623   30.1042   50.9346 H   0  0  0  0  0  0  0  0  0  0  0  0
   59.6710   30.4530   50.1690 C   0  0  0  0  0  0  0  0  0  0  0  0
   60.3030   31.6180   50.3710 C   0  0  0  0  0  0  0  0  0  0  0  0
   59.7460   32.7880   51.0560 C   0  0  0  0  0  0  0  0  0  0  0  0
   58.5700   32.8730   51.5020 O   0  0  0  0  0  0  0  0  0  0  0  0
   60.7010   33.8380   51.1890 N   0  0  0  0  0  0  0  0  0  0  0  0
   61.8590   33.3100   50.5460 C   0  0  0  0  0  0  0  0  0  0  0  0
   63.0640   33.9910   50.3700 C   0  0  0  0  0  0  0  0  0  0  0  0
   63.2350   35.2420   50.8720 F   0  0  0  0  0  0  0  0  0  0  0  0
   64.0900   33.3660   49.6450 C   0  0  0  0  0  0  0  0  0  0  0  0
   65.0551   33.8764   49.5105 H   0  0  0  0  0  0  0  0  0  0  0  0
   63.8890   32.0880   49.0890 C   0  0  0  0  0  0  0  0  0  0  0  0
   64.6941   31.6122   48.5098 H   0  0  0  0  0  0  0  0  0  0  0  0
   62.6690   31.4160   49.2680 C   0  0  0  0  0  0  0  0  0  0  0  0
   62.4990   30.4281   48.8151 H   0  0  0  0  0  0  0  0  0  0  0  0
   61.6730   32.0330   50.0370 C   0  0  0  0  0  0  0  0  0  0  0  0
   59.8760   29.6200   48.9800 C   0  0  0  0  0  0  0  0  0  0  0  0
   59.9210   30.0530   47.6720 C   0  0  0  0  0  0  0  0  0  0  0  0
   59.7390   31.3900   47.2890 O   0  0  0  0  0  0  0  0  0  0  0  0
   60.7240   32.2220   46.6860 C   0  0  0  0  0  0  0  0  0  0  0  0
   60.5338   32.2900   45.6047 H   0  0  0  0  0  0  0  0  0  0  0  0
   61.7214   31.7910   46.8577 H   0  0  0  0  0  0  0  0  0  0  0  0
   60.6610   33.6270   47.3060 C   0  0  0  0  0  0  0  0  0  0  0  0
   61.6161   34.1399   47.1197 H   0  0  0  0  0  0  0  0  0  0  0  0
   60.4722   33.5132   48.3837 H   0  0  0  0  0  0  0  0  0  0  0  0
   59.6120   34.4040   46.7600 O   0  0  0  0  0  0  0  0  0  0  0  0
   58.3640   33.8570   47.1020 C   0  0  0  0  0  0  0  0  0  0  0  0
   58.2695   33.8156   48.1972 H   0  0  0  0  0  0  0  0  0  0  0  0
   57.5621   34.4862   46.6883 H   0  0  0  0  0  0  0  0  0  0  0  0
   58.2832   32.8410   46.6883 H   0  0  0  0  0  0  0  0  0  0  0  0
   60.1480   28.9190   46.8930 C   0  0  0  0  0  0  0  0  0  0  0  0
   60.3580   28.8660   45.1040 S   0  0  0  0  0  0  0  0  0  0  0  0
   58.7850   29.6640   44.7390 C   0  0  0  0  0  0  0  0  0  0  0  0
   58.7600   30.9940   44.2970 C   0  0  0  0  0  0  0  0  0  0  0  0
   59.7035   31.5468   44.1776 H   0  0  0  0  0  0  0  0  0  0  0  0
   57.5480   31.6230   44.0070 C   0  0  0  0  0  0  0  0  0  0  0  0
   57.5400   32.6612   43.6437 H   0  0  0  0  0  0  0  0  0  0  0  0
   56.3480   30.9350   44.1780 C   0  0  0  0  0  0  0  0  0  0  0  0
   55.3942   31.4288   43.9406 H   0  0  0  0  0  0  0  0  0  0  0  0
   56.3530   29.6200   44.6500 C   0  0  0  0  0  0  0  0  0  0  0  0
   55.1450   28.9610   44.8540 O   0  0  0  0  0  0  0  0  0  0  0  0
   57.5700   28.9780   44.9310 C   0  0  0  0  0  0  0  0  0  0  0  0
   57.5410   27.3390   45.5760 Cl  0  0  0  0  0  0  0  0  0  0  0  0
   60.2100   27.8320   47.6980 N   0  0  0  0  0  0  0  0  0  0  0  0
   60.4410   26.4480   47.2970 C   0  0  0  0  0  0  0  0  0  0  0  0
   60.5460   25.8192   48.1934 H   0  0  0  0  0  0  0  0  0  0  0  0
   59.5897   26.0929   46.6977 H   0  0  0  0  0  0  0  0  0  0  0  0
   61.3615   26.3887   46.6977 H   0  0  0  0  0  0  0  0  0  0  0  0
   60.0790   28.2570   48.9680 C   0  0  0  0  0  0  0  0  0  0  0  0
   60.1266   27.6149   49.8599 H   0  0  0  0  0  0  0  0  0  0  0  0
  1  2  1  0
  2  3  2  0
  3  4  1  0
  4  5  2  0
  4  6  1  0
  6  7  1  0
  7  8  2  0
  8  9  1  0
  8 10  1  0
 10 11  1  0
 10 12  2  0
 12 13  1  0
 12 14  1  0
 14 15  1  0
 14 16  2  0
  2 17  1  0
 17 18  1  0
 18 19  1  0
 19 20  1  0
 20 21  1  0
 20 22  1  0
 20 23  1  0
 23 24  1  0
 23 25  1  0
 23 26  1  0
 26 27  1  0
 27 28  1  0
 27 29  1  0
 27 30  1  0
 18 31  2  0
 31 32  1  0
 32 33  1  0
 33 34  2  0
 34 35  1  0
 34 36  1  0
 36 37  1  0
 36 38  2  0
 38 39  1  0
 38 40  1  0
 40 41  1  0
 40 42  2  0
 42 43  1  0
 31 44  1  0
 44 45  1  0
 45 46  1  0
 45 47  1  0
 45 48  1  0
 44 49  1  0
 49 50  1  0
 16  3  1  0
 49 17  2  0
 16  7  1  0
 42 33  1  0
M  CHG  2   6  -1  41  -1
M  END
>  <UniqueID>  (1) 
1

>  <SMILES>  (1) 
COCCOc1c(/C=C2/C(=O)[N-]c3c(F)cccc32)cn(C)c1Sc1cccc([O-])c1Cl

>  <Energy>  (1) 
117.81124788011321

>  <Genealogy>  (1) 
COCCOc1c(C=C2C(=O)[N-]c3c(F)cccc32)cn(C)c1Sc1cccc([O-])c1Cl (protonated)
COCCOc1c(/C=C2/C(=O)[N-]c3c(F)cccc32)cn(C)c1Sc1cccc([O-])c1Cl (cis-trans isomerization)
COCCOc1c(/C=C2/C(=O)[N-]c3c(F)cccc32)cn(C)c1Sc1cccc([O-])c1Cl (3D coordinates assigned)
COCCOc1c(/C=C2/C(=O)[N-]c3c(F)cccc32)cn(C)c1Sc1cccc([O-])c1Cl (nonaromatic ring conformer: 117.81124788011321 kcal/mol)

>  <smiles>  (1) 
COCCOc1c(C=C2C(=O)Nc3c(F)cccc32)cn(C)c1Sc1cccc(O)c1Cl

>  <score_type>  (1) 
oracle

>  <origin>  (1) 
adg

>  <m_score__min__energy>  (1) 
-12.77

>  <m_primary>  (1) 
energy

$$$$
1:0
     RDKit          3D

 61 64  0  0  0  0  0  0  0  0999 V2000
   53.2950   23.9320   45.6160 C   0  0  0  0  0  0  0  0  0  0  0  0
   54.7220   24.3410   45.4950 C   0  0  0  0  0  0  0  0  0  0  0  0
   55.1500   25.6050   45.7070 N   0  0  0  0  0  0  0  0  0  0  0  0
   56.4800   25.5250   45.5020 C   0  0  0  0  0  0  0  0  0  0  0  0
   57.3980   26.6820   45.5950 C   0  0  0  0  0  0  0  0  0  0  0  0
   58.2700   26.7060   46.5100 O   0  0  0  0  0  0  0  0  0  0  0  0
   57.3480   27.7590   44.6250 N   0  0  1  0  0  0  0  0  0  0  0  0
   56.4460   28.8260   45.1200 C   0  0  0  0  0  0  0  0  0  0  0  0
   56.3900   30.0130   44.1440 C   0  0  0  0  0  0  0  0  0  0  0  0
   57.7970   30.5080   43.7320 C   0  0  1  0  0  0  0  0  0  0  0  0
   57.9400   32.0170   43.8520 C   0  0  0  0  0  0  0  0  0  0  0  0
   57.4930   32.7230   42.9090 O   0  0  0  0  0  0  0  0  0  0  0  0
   58.5580   32.6760   44.9820 N   0  0  0  0  0  0  0  0  0  0  0  0
   59.2390   33.9570   44.7620 C   0  0  0  0  0  0  0  0  0  0  0  0
   60.0180   34.3830   46.0140 C   0  0  0  0  0  0  0  0  0  0  0  0
   59.1470   34.4470   47.2090 N   0  0  0  0  0  0  0  0  0  0  0  0
   59.9720   34.5830   48.4270 C   0  0  0  0  0  0  0  0  0  0  0  0
   61.1780   33.6780   48.3660 C   0  0  0  0  0  0  0  0  0  0  0  0
   61.0170   32.2830   48.4110 C   0  0  0  0  0  0  0  0  0  0  0  0
   62.1330   31.4430   48.3330 C   0  0  0  0  0  0  0  0  0  0  0  0
   63.4130   31.9880   48.2060 C   0  0  0  0  0  0  0  0  0  0  0  0
   63.5820   33.3750   48.1620 C   0  0  0  0  0  0  0  0  0  0  0  0
   62.4700   34.2180   48.2430 C   0  0  0  0  0  0  0  0  0  0  0  0
   58.1700   33.3260   47.3160 C   0  0  0  0  0  0  0  0  0  0  0  0
   58.4540   32.1670   46.3550 C   0  0  0  0  0  0  0  0  0  0  0  0
   58.9340   29.7390   44.4270 C   0  0  0  0  0  0  0  0  0  0  0  0
   58.7300   28.2200   44.2890 C   0  0  0  0  0  0  0  0  0  0  0  0
   56.8030   24.2170   45.1820 C   0  0  0  0  0  0  0  0  0  0  0  0
   58.1510   23.6500   44.8780 C   0  0  0  0  0  0  0  0  0  0  0  0
   55.6970   23.5150   45.1850 O   0  0  0  0  0  0  0  0  0  0  0  0
   53.0247   23.8545   46.6795 H   0  0  0  0  0  0  0  0  0  0  0  0
   52.6557   24.6831   45.1290 H   0  0  0  0  0  0  0  0  0  0  0  0
   53.1506   22.9563   45.1290 H   0  0  0  0  0  0  0  0  0  0  0  0
   56.9120   27.3960   43.7440 H   0  0  0  0  0  0  0  0  0  0  0  0
   56.8130   29.1811   46.0943 H   0  0  0  0  0  0  0  0  0  0  0  0
   55.4332   28.4068   45.2127 H   0  0  0  0  0  0  0  0  0  0  0  0
   55.8518   30.8419   44.6271 H   0  0  0  0  0  0  0  0  0  0  0  0
   55.8752   29.6730   43.2333 H   0  0  0  0  0  0  0  0  0  0  0  0
   57.8994   30.2760   42.6616 H   0  0  0  0  0  0  0  0  0  0  0  0
   59.9390   33.8532   43.9198 H   0  0  0  0  0  0  0  0  0  0  0  0
   58.4829   34.7243   44.5395 H   0  0  0  0  0  0  0  0  0  0  0  0
   60.8217   33.6549   46.1980 H   0  0  0  0  0  0  0  0  0  0  0  0
   60.4277   35.3882   45.8358 H   0  0  0  0  0  0  0  0  0  0  0  0
   60.3090   35.6261   48.5188 H   0  0  0  0  0  0  0  0  0  0  0  0
   59.3627   34.2974   49.2972 H   0  0  0  0  0  0  0  0  0  0  0  0
   60.0105   31.8500   48.5078 H   0  0  0  0  0  0  0  0  0  0  0  0
   62.0024   30.3515   48.3717 H   0  0  0  0  0  0  0  0  0  0  0  0
   64.2885   31.3253   48.1406 H   0  0  0  0  0  0  0  0  0  0  0  0
   64.5905   33.8031   48.0636 H   0  0  0  0  0  0  0  0  0  0  0  0
   62.6065   35.3090   48.2103 H   0  0  0  0  0  0  0  0  0  0  0  0
   58.1976   32.9384   48.3451 H   0  0  0  0  0  0  0  0  0  0  0  0
   57.1840   33.7324   47.0466 H   0  0  0  0  0  0  0  0  0  0  0  0
   59.3997   31.6814   46.6374 H   0  0  0  0  0  0  0  0  0  0  0  0
   57.6325   31.4376   46.4116 H   0  0  0  0  0  0  0  0  0  0  0  0
   58.9499   30.0053   45.4942 H   0  0  0  0  0  0  0  0  0  0  0  0
   59.8871   30.0116   43.9503 H   0  0  0  0  0  0  0  0  0  0  0  0
   59.4369   27.7135   44.9626 H   0  0  0  0  0  0  0  0  0  0  0  0
   58.9002   27.9708   43.2312 H   0  0  0  0  0  0  0  0  0  0  0  0
   58.6765   23.4290   45.8188 H   0  0  0  0  0  0  0  0  0  0  0  0
   58.0364   22.7238   44.2957 H   0  0  0  0  0  0  0  0  0  0  0  0
   58.7329   24.3796   44.2957 H   0  0  0  0  0  0  0  0  0  0  0  0
  1  2  1  0
  2  3  2  0
  3  4  1  0
  4  5  1  0
  5  6  2  0
  5  7  1  0
  7  8  1  0
  8  9  1  0
  9 10  1  0
 10 11  1  0
 11 12  2  0
 11 13  1  0
 13 14  1  0
 14 15  1  0
 15 16  1  0
 16 17  1  0
 17 18  1  0
 18 19  2  0
 19 20  1  0
 20 21  2  0
 21 22  1  0
 22 23  2  0
 16 24  1  0
 24 25  1  0
 10 26  1  0
 26 27  1  0
  4 28  2  0
 28 29  1  0
 28 30  1  0
 30  2  1  0
 27  7  1  0
 25 13  1  0
 23 18  1  0
  1 31  1  0
  1 32  1  0
  1 33  1  0
  7 34  1  6
  8 35  1  0
  8 36  1  0
  9 37  1  0
  9 38  1  0
 10 39  1  6
 14 40  1  0
 14 41  1  0
 15 42  1  0
 15 43  1  0
 17 44  1  0
 17 45  1  0
 19 46  1  0
 20 47  1  0
 21 48  1  0
 22 49  1  0
 23 50  1  0
 24 51  1  0
 24 52  1  0
 25 53  1  0
 25 54  1  0
 26 55  1  0
 26 56  1  0
 27 57  1  0
 27 58  1  0
 29 59  1  0
 29 60  1  0
 29 61  1  0
M  CHG  1   7   1
M  END
>  <UniqueID>  (2) 
2

>  <SMILES>  (2) 
Cc1nc(C(=O)[NH+]2CCC(C(=O)N3CCN(Cc4ccccc4)CC3)CC2)c(C)o1

>  <Energy>  (2) 
111.7566800640488

>  <Genealogy>  (2) 
Cc1nc(C(=O)[NH+]2CCC(C(=O)N3CCN(Cc4ccccc4)CC3)CC2)c(C)o1 (protonated)
Cc1nc(C(=O)[NH+]2CCC(C(=O)N3CCN(Cc4ccccc4)CC3)CC2)c(C)o1 (3D coordinates assigned)
Cc1nc(C(=O)[NH+]2CCC(C(=O)N3CCN(Cc4ccccc4)CC3)CC2)c(C)o1 (nonaromatic ring conformer: 111.7566800640488 kcal/mol)

>  <smiles>  (2) 
Cc1nc(C(=O)N2CCC(C(=O)N3CCN(Cc4ccccc4)CC3)CC2)c(C)o1

>  <score_type>  (2) 
oracle

>  <origin>  (2) 
adg

>  <m_score__min__energy>  (2) 
-8.1699999999999999

>  <m_primary>  (2) 
energy

$$$$
2:0
     RDKit          3D

 55 58  0  0  0  0  0  0  0  0999 V2000
   57.3610   29.6710   50.2540 H   0  0  0  0  0  0  0  0  0  0  0  0
   57.3590   29.8860   51.2450 O   0  0  0  0  0  0  0  0  0  0  0  0
   57.8010   31.1150   51.7250 C   0  0  0  0  0  0  0  0  0  0  0  0
   57.6180   31.4650   53.0690 C   0  0  0  0  0  0  0  0  0  0  0  0
   57.1014   30.7734   53.7508 H   0  0  0  0  0  0  0  0  0  0  0  0
   58.0900   32.6900   53.5450 C   0  0  0  0  0  0  0  0  0  0  0  0
   57.9548   32.9571   54.6035 H   0  0  0  0  0  0  0  0  0  0  0  0
   58.7340   33.5770   52.6780 C   0  0  0  0  0  0  0  0  0  0  0  0
   59.1201   34.5328   53.0619 H   0  0  0  0  0  0  0  0  0  0  0  0
   58.8910   33.2570   51.3240 C   0  0  0  0  0  0  0  0  0  0  0  0
   59.5780   34.1900   50.4710 N   0  0  0  0  0  0  0  0  0  0  0  0
   59.8830   34.0210   49.2180 C   0  0  0  0  0  0  0  0  0  0  0  0
   58.9280   33.7450   48.2880 N   0  0  0  0  0  0  0  0  0  0  0  0
   59.2340   33.6180   46.9700 C   0  0  0  0  0  0  0  0  0  0  0  0
   58.1440   33.3220   45.9760 C   0  0  0  0  0  0  0  0  0  0  0  0
   57.6105   34.2560   45.7456 H   0  0  0  0  0  0  0  0  0  0  0  0
   57.4692   32.5778   46.4240 H   0  0  0  0  0  0  0  0  0  0  0  0
   58.6990   32.7330   44.6700 C   0  0  0  0  0  0  0  0  0  0  0  0
   59.6736   32.2663   44.8757 H   0  0  0  0  0  0  0  0  0  0  0  0
   58.7985   33.5507   43.9410 H   0  0  0  0  0  0  0  0  0  0  0  0
   57.7740   31.6950   44.0870 C   0  0  0  0  0  0  0  0  0  0  0  0
   57.4940   31.6850   42.7120 C   0  0  0  0  0  0  0  0  0  0  0  0
   57.9243   32.4594   42.0600 H   0  0  0  0  0  0  0  0  0  0  0  0
   56.6720   30.6970   42.1680 C   0  0  0  0  0  0  0  0  0  0  0  0
   56.4549   30.6968   41.0896 H   0  0  0  0  0  0  0  0  0  0  0  0
   56.1240   29.7080   42.9890 C   0  0  0  0  0  0  0  0  0  0  0  0
   55.4754   28.9326   42.5553 H   0  0  0  0  0  0  0  0  0  0  0  0
   56.3990   29.7010   44.3670 C   0  0  0  0  0  0  0  0  0  0  0  0
   55.8570   28.7050   45.2470 N   0  0  0  0  0  0  0  0  0  0  0  0
   56.6010   27.1800   45.6040 S   0  0  0  0  0  0  0  0  0  0  0  0
   55.5410   26.1480   45.8690 O   0  0  0  0  0  0  0  0  0  0  0  0
   57.4560   26.7480   44.4460 O   0  0  0  0  0  0  0  0  0  0  0  0
   57.6300   27.3520   47.0500 C   0  0  0  0  0  0  0  0  0  0  0  0
   57.0077   27.6596   47.9033 H   0  0  0  0  0  0  0  0  0  0  0  0
   58.1116   26.3861   47.2624 H   0  0  0  0  0  0  0  0  0  0  0  0
   58.6940   28.3860   46.8150 C   0  0  0  0  0  0  0  0  0  0  0  0
   59.4760   28.3480   45.6470 C   0  0  0  0  0  0  0  0  0  0  0  0
   59.3244   27.5436   44.9122 H   0  0  0  0  0  0  0  0  0  0  0  0
   60.4450   29.3280   45.4160 C   0  0  0  0  0  0  0  0  0  0  0  0
   61.0579   29.2905   44.5033 H   0  0  0  0  0  0  0  0  0  0  0  0
   60.6360   30.3560   46.3440 C   0  0  0  0  0  0  0  0  0  0  0  0
   61.4026   31.1239   46.1633 H   0  0  0  0  0  0  0  0  0  0  0  0
   59.8540   30.4090   47.5010 C   0  0  0  0  0  0  0  0  0  0  0  0
   60.0022   31.2214   48.2276 H   0  0  0  0  0  0  0  0  0  0  0  0
   58.8830   29.4300   47.7360 C   0  0  0  0  0  0  0  0  0  0  0  0
   58.2653   29.4777   48.6449 H   0  0  0  0  0  0  0  0  0  0  0  0
   57.2280   30.6930   44.9080 C   0  0  0  0  0  0  0  0  0  0  0  0
   57.4535   30.6875   45.9846 H   0  0  0  0  0  0  0  0  0  0  0  0
   60.5630   33.7710   46.5580 C   0  0  0  0  0  0  0  0  0  0  0  0
   60.8378   33.6700   45.4977 H   0  0  0  0  0  0  0  0  0  0  0  0
   61.5300   34.0540   47.5200 C   0  0  0  0  0  0  0  0  0  0  0  0
   62.5821   34.1762   47.2230 H   0  0  0  0  0  0  0  0  0  0  0  0
   61.1740   34.1790   48.8240 N   0  0  0  0  0  0  0  0  0  0  0  0
   58.4410   32.0070   50.8550 C   0  0  0  0  0  0  0  0  0  0  0  0
   58.5929   31.7304   49.8012 H   0  0  0  0  0  0  0  0  0  0  0  0
  1  2  1  0
  2  3  1  0
  3  4  2  0
  4  5  1  0
  4  6  1  0
  6  7  1  0
  6  8  2  0
  8  9  1  0
  8 10  1  0
 10 11  1  0
 11 12  2  0
 12 13  1  0
 13 14  2  0
 14 15  1  0
 15 16  1  0
 15 17  1  0
 15 18  1  0
 18 19  1  0
 18 20  1  0
 18 21  1  0
 21 22  2  0
 22 23  1  0
 22 24  1  0
 24 25  1  0
 24 26  2  0
 26 27  1  0
 26 28  1  0
 28 29  1  0
 29 30  1  0
 30 31  2  0
 30 32  2  0
 30 33  1  0
 33 34  1  0
 33 35  1  0
 33 36  1  0
 36 37  2  0
 37 38  1  0
 37 39  1  0
 39 40  1  0
 39 41  2  0
 41 42  1  0
 41 43  1  0
 43 44  1  0
 43 45  2  0
 45 46  1  0
 28 47  2  0
 47 48  1  0
 14 49  1  0
 49 50  1  0
 49 51  2  0
 51 52  1  0
 51 53  1  0
 10 54  2  0
 54 55  1  0
 54  3  1  0
 53 12  1  0
 47 21  1  0
 45 36  1  0
M  CHG  2  29  -1  53  -1
M  END
>  <UniqueID>  (3) 
3

>  <SMILES>  (3) 
O=S(=O)(Cc1ccccc1)[N-]c1cccc(CCc2cc[n-]/c(=N/c3cccc(O)c3)n2)c1

>  <Energy>  (3) 
60.45319965700942

>  <Genealogy>  (3) 
O=S(=O)(Cc1ccccc1)[N-]c1cccc(CCc2cc[n-]c(=Nc3cccc(O)c3)n2)c1 (protonated)
O=S(=O)(Cc1ccccc1)[N-]c1cccc(CCc2cc[n-]/c(=N/c3cccc(O)c3)n2)c1 (cis-trans isomerization)
O=S(=O)(Cc1ccccc1)[N-]c1cccc(CCc2cc[n-]/c(=N/c3cccc(O)c3)n2)c1 (3D coordinates assigned)
O=S(=O)(Cc1ccccc1)[N-]c1cccc(CCc2cc[n-]/c(=N/c3cccc(O)c3)n2)c1 (optimized conformer: 60.45319965700942 kcal/mol)

>  <smiles>  (3) 
O=S(=O)(Cc1ccccc1)Nc1cccc(CCc2cc[nH]c(=Nc3cccc(O)c3)n2)c1

>  <score_type>  (3) 
oracle

>  <origin>  (3) 
adg

>  <m_score__min__energy>  (3) 
-13.33

>  <m_primary>  (3) 
energy

$$$$
3:0
     RDKit          3D

 72 75  0  0  0  0  0  0  0  0999 V2000
   56.4911   23.8754   47.0108 H   0  0  0  0  0  0  0  0  0  0  0  0
   56.5780   24.7350   46.3300 C   0  0  0  0  0  0  0  0  0  0  0  0
   55.7040   25.6410   46.3410 O   0  0  0  0  0  0  0  0  0  0  0  0
   57.7170   24.8310   45.4020 C   0  0  0  0  0  0  0  0  0  0  0  0
   57.6579   24.2754   44.4545 H   0  0  0  0  0  0  0  0  0  0  0  0
   58.8220   25.5530   45.6390 C   0  0  0  0  0  0  0  0  0  0  0  0
   59.7895   25.0302   45.6148 H   0  0  0  0  0  0  0  0  0  0  0  0
   58.8310   27.0000   45.9300 C   0  0  0  0  0  0  0  0  0  0  0  0
   59.5470   27.9000   45.1220 C   0  0  0  0  0  0  0  0  0  0  0  0
   60.0992   27.5288   44.2460 H   0  0  0  0  0  0  0  0  0  0  0  0
   59.5610   29.2650   45.4260 C   0  0  0  0  0  0  0  0  0  0  0  0
   60.1154   29.9645   44.7831 H   0  0  0  0  0  0  0  0  0  0  0  0
   58.8690   29.7450   46.5500 C   0  0  0  0  0  0  0  0  0  0  0  0
   58.8620   31.1930   46.8600 C   0  0  0  0  0  0  0  0  0  0  0  0
   58.3530   32.1060   45.9910 C   0  0  0  0  0  0  0  0  0  0  0  0
   57.7710   31.6780   44.6940 C   0  0  0  0  0  0  0  0  0  0  0  0
   58.1490   32.3130   43.4990 C   0  0  0  0  0  0  0  0  0  0  0  0
   58.8775   33.1369   43.5227 H   0  0  0  0  0  0  0  0  0  0  0  0
   57.6020   31.9010   42.2790 C   0  0  0  0  0  0  0  0  0  0  0  0
   57.9074   32.3953   41.3450 H   0  0  0  0  0  0  0  0  0  0  0  0
   56.6680   30.8620   42.2460 C   0  0  0  0  0  0  0  0  0  0  0  0
   56.2395   30.5381   41.2861 H   0  0  0  0  0  0  0  0  0  0  0  0
   56.2780   30.2340   43.4330 C   0  0  0  0  0  0  0  0  0  0  0  0
   55.5396   29.4191   43.4061 H   0  0  0  0  0  0  0  0  0  0  0  0
   56.8250   30.6400   44.6540 C   0  0  0  0  0  0  0  0  0  0  0  0
   56.5138   30.1453   45.5859 H   0  0  0  0  0  0  0  0  0  0  0  0
   58.4480   33.5970   46.2430 C   0  0  0  0  0  0  0  0  0  0  0  0
   58.3649   33.7857   47.3235 H   0  0  0  0  0  0  0  0  0  0  0  0
   57.6317   34.0978   45.7019 H   0  0  0  0  0  0  0  0  0  0  0  0
   59.7780   34.1500   45.7400 C   0  0  0  0  0  0  0  0  0  0  0  0
   60.4133   34.4142   46.5982 H   0  0  0  0  0  0  0  0  0  0  0  0
   60.2846   33.3880   45.1296 H   0  0  0  0  0  0  0  0  0  0  0  0
   59.5950   35.0466   45.1296 H   0  0  0  0  0  0  0  0  0  0  0  0
   59.3480   31.5800   48.2000 C   0  0  0  0  0  0  0  0  0  0  0  0
   60.5080   30.9990   48.7300 C   0  0  0  0  0  0  0  0  0  0  0  0
   61.0863   30.2829   48.1278 H   0  0  0  0  0  0  0  0  0  0  0  0
   60.9330   31.3260   50.0210 C   0  0  0  0  0  0  0  0  0  0  0  0
   61.8388   30.8584   50.4343 H   0  0  0  0  0  0  0  0  0  0  0  0
   60.2060   32.2520   50.7950 C   0  0  0  0  0  0  0  0  0  0  0  0
   60.5850   32.6190   52.0980 O   0  0  0  0  0  0  0  0  0  0  0  0
   61.7360   33.3920   52.4390 C   0  0  0  0  0  0  0  0  0  0  0  0
   61.7104   34.3418   51.8846 H   0  0  0  0  0  0  0  0  0  0  0  0
   61.7262   33.5823   53.5224 H   0  0  0  0  0  0  0  0  0  0  0  0
   63.0240   32.6340   52.0820 C   0  0  0  0  0  0  0  0  0  0  0  0
   63.6438   32.5390   52.9858 H   0  0  0  0  0  0  0  0  0  0  0  0
   62.7424   31.6451   51.6910 H   0  0  0  0  0  0  0  0  0  0  0  0
   63.8030   33.3380   51.0380 N   0  0  0  0  0  0  0  0  0  0  0  0
   64.2540   32.4070   49.9710 C   0  0  0  0  0  0  0  0  0  0  0  0
   65.1959   31.9351   50.2875 H   0  0  0  0  0  0  0  0  0  0  0  0
   63.4623   31.6585   49.8192 H   0  0  0  0  0  0  0  0  0  0  0  0
   64.4860   33.1260   48.6330 C   0  0  0  0  0  0  0  0  0  0  0  0
   65.2660   33.8892   48.7714 H   0  0  0  0  0  0  0  0  0  0  0  0
   64.7911   32.3719   47.8926 H   0  0  0  0  0  0  0  0  0  0  0  0
   63.2550   33.7860   48.1310 N   0  0  0  0  0  0  0  0  0  0  0  0
   62.5750   32.9600   47.1210 C   0  0  0  0  0  0  0  0  0  0  0  0
   61.9531   32.2045   47.6234 H   0  0  0  0  0  0  0  0  0  0  0  0
   61.9384   33.5998   46.4922 H   0  0  0  0  0  0  0  0  0  0  0  0
   63.3252   32.4581   46.4922 H   0  0  0  0  0  0  0  0  0  0  0  0
   62.3130   34.1740   49.2070 C   0  0  0  0  0  0  0  0  0  0  0  0
   61.7441   35.0579   48.8827 H   0  0  0  0  0  0  0  0  0  0  0  0
   61.6404   33.3253   49.4001 H   0  0  0  0  0  0  0  0  0  0  0  0
   63.0550   34.5080   50.5100 C   0  0  0  0  0  0  0  0  0  0  0  0
   63.7649   35.3254   50.3153 H   0  0  0  0  0  0  0  0  0  0  0  0
   62.3077   34.8019   51.2617 H   0  0  0  0  0  0  0  0  0  0  0  0
   59.0500   32.8300   50.2580 C   0  0  0  0  0  0  0  0  0  0  0  0
   58.4778   33.5573   50.8527 H   0  0  0  0  0  0  0  0  0  0  0  0
   58.6160   32.4920   48.9740 C   0  0  0  0  0  0  0  0  0  0  0  0
   57.6978   32.9423   48.5690 H   0  0  0  0  0  0  0  0  0  0  0  0
   58.1750   28.8420   47.3710 C   0  0  0  0  0  0  0  0  0  0  0  0
   57.6322   29.2104   48.2540 H   0  0  0  0  0  0  0  0  0  0  0  0
   58.1710   27.4770   47.0710 C   0  0  0  0  0  0  0  0  0  0  0  0
   57.6469   26.7729   47.7340 H   0  0  0  0  0  0  0  0  0  0  0  0
  1  2  1  0
  2  3  2  0
  2  4  1  0
  4  5  1  0
  4  6  2  0
  6  7  1  0
  6  8  1  0
  8  9  2  0
  9 10  1  0
  9 11  1  0
 11 12  1  0
 11 13  2  0
 13 14  1  0
 14 15  2  0
 15 16  1  0
 16 17  2  0
 17 18  1  0
 17 19  1  0
 19 20  1  0
 19 21  2  0
 21 22  1  0
 21 23  1  0
 23 24  1  0
 23 25  2  0
 25 26  1  0
 15 27  1  0
 27 28  1  0
 27 29  1  0
 27 30  1  0
 30 31  1  0
 30 32  1  0
 30 33  1  0
 14 34  1  0
 34 35  2  0
 35 36  1  0
 35 37  1  0
 37 38  1  0
 37 39  2  0
 39 40  1  0
 40 41  1  0
 41 42  1  0
 41 43  1  0
 41 44  1  0
 44 45  1  0
 44 46  1  0
 44 47  1  0
 47 48  1  0
 48 49  1  0
 48 50  1  0
 48 51  1  0
 51 52  1  0
 51 53  1  0
 51 54  1  0
 54 55  1  0
 55 56  1  0
 55 57  1  0
 55 58  1  0
 54 59  1  0
 59 60  1  0
 59 61  1  0
 59 62  1  0
 62 63  1  0
 62 64  1  0
 39 65  1  0
 65 66  1  0
 65 67  2  0
 67 68  1  0
 13 69  1  0
 69 70  1  0
 69 71  2  0
 71 72  1  0
 71  8  1  0
 25 16  1  0
 67 34  1  0
 62 47  1  0
M  END
>  <UniqueID>  (4) 
4

>  <SMILES>  (4) 
CC/C(=C(/c1ccc(/C=C\C=O)cc1)c1ccc(OCCN2CCN(C)CC2)cc1)c1ccccc1

>  <Energy>  (4) 
109.02924450974982

>  <Genealogy>  (4) 
CC/C(=C(/c1ccc(/C=C\C=O)cc1)c1ccc(OCCN2CCN(C)CC2)cc1)c1ccccc1 (cis-trans isomerization)
CC/C(=C(/c1ccc(/C=C\C=O)cc1)c1ccc(OCCN2CCN(C)CC2)cc1)c1ccccc1 (3D coordinates assigned)
CC/C(=C(/c1ccc(/C=C\C=O)cc1)c1ccc(OCCN2CCN(C)CC2)cc1)c1ccccc1 (nonaromatic ring conformer: 109.02924450974982 kcal/mol)

>  <smiles>  (4) 
CCC(=C(c1ccc(C=CC=O)cc1)c1ccc(OCCN2CCN(C)CC2)cc1)c1ccccc1

>  <score_type>  (4) 
oracle

>  <origin>  (4) 
adg

>  <m_score__min__energy>  (4) 
-10.26

>  <m_primary>  (4) 
energy

$$$$
4:0
     RDKit          3D

 67 71  0  0  0  0  0  0  0  0999 V2000
   57.5470   31.9100   50.7110 N   0  0  0  0  0  0  0  0  0  0  0  0
   58.4860   32.5860   51.5580 C   0  0  0  0  0  0  0  0  0  0  0  0
   58.0430   33.6780   52.3280 C   0  0  0  0  0  0  0  0  0  0  0  0
   58.9070   34.3150   53.2200 C   0  0  0  0  0  0  0  0  0  0  0  0
   60.2190   33.8630   53.3650 C   0  0  0  0  0  0  0  0  0  0  0  0
   60.6750   32.7840   52.6020 C   0  0  0  0  0  0  0  0  0  0  0  0
   59.8330   32.1550   51.6750 C   0  0  0  0  0  0  0  0  0  0  0  0
   60.3850   31.1200   50.8520 N   0  0  0  0  0  0  0  0  0  0  0  0
   59.6380   30.0590   50.2380 C   0  0  0  0  0  0  0  0  0  0  0  0
   58.9920   29.2720   50.9740 O   0  0  0  0  0  0  0  0  0  0  0  0
   59.6370   29.8470   48.7740 C   0  0  0  0  0  0  0  0  0  0  0  0
   59.8510   30.9180   47.8910 C   0  0  0  0  0  0  0  0  0  0  0  0
   59.8190   30.7170   46.5100 C   0  0  0  0  0  0  0  0  0  0  0  0
   59.5990   29.4360   45.9850 C   0  0  0  0  0  0  0  0  0  0  0  0
   59.5380   29.2380   44.4960 C   0  0  0  0  0  0  0  0  0  0  0  0
   58.2950   28.5710   44.1240 N   0  0  0  0  0  0  0  0  0  0  0  0
   57.0330   28.8350   44.7450 C   0  0  0  0  0  0  0  0  0  0  0  0
   56.7510   28.3140   45.8580 O   0  0  0  0  0  0  0  0  0  0  0  0
   56.0290   29.6900   44.0270 C   0  0  0  0  0  0  0  0  0  0  0  0
   56.6790   30.8700   43.3450 C   0  0  0  0  0  0  0  0  0  0  0  0
   56.7190   30.8810   42.0430 N   0  0  0  0  0  0  0  0  0  0  0  0
   57.2690   31.9930   41.2640 C   0  0  0  0  0  0  0  0  0  0  0  0
   58.5040   32.5880   41.9490 C   0  0  0  0  0  0  0  0  0  0  0  0
   58.2280   32.8220   43.4150 C   0  0  0  0  0  0  0  0  0  0  0  0
   58.9060   33.8370   44.1070 C   0  0  0  0  0  0  0  0  0  0  0  0
   58.7010   34.0200   45.4880 C   0  0  0  0  0  0  0  0  0  0  0  0
   59.3450   35.0260   46.2260 O   0  0  0  0  0  0  0  0  0  0  0  0
   59.6480   34.9660   47.6220 C   0  0  0  0  0  0  0  0  0  0  0  0
   60.9380   34.2260   47.8580 C   0  0  0  0  0  0  0  0  0  0  0  0
   61.7290   33.8100   46.7710 C   0  0  0  0  0  0  0  0  0  0  0  0
   62.9260   33.1170   46.9940 C   0  0  0  0  0  0  0  0  0  0  0  0
   63.3340   32.8280   48.2970 C   0  0  0  0  0  0  0  0  0  0  0  0
   62.5450   33.2250   49.3820 C   0  0  0  0  0  0  0  0  0  0  0  0
   61.3480   33.9150   49.1640 C   0  0  0  0  0  0  0  0  0  0  0  0
   57.8210   33.1710   46.1630 C   0  0  0  0  0  0  0  0  0  0  0  0
   57.1600   32.1440   45.4880 C   0  0  0  0  0  0  0  0  0  0  0  0
   57.3540   31.9590   44.1090 C   0  0  0  0  0  0  0  0  0  0  0  0
   59.4160   28.3580   46.8630 C   0  0  0  0  0  0  0  0  0  0  0  0
   59.4380   28.5600   48.2480 C   0  0  0  0  0  0  0  0  0  0  0  0
   57.6580   30.9010   50.4740 H   0  0  0  0  0  0  0  0  0  0  0  0
   56.6590   32.3830   50.4250 H   0  0  0  0  0  0  0  0  0  0  0  0
   57.0067   34.0324   52.2258 H   0  0  0  0  0  0  0  0  0  0  0  0
   58.5533   35.1740   53.8091 H   0  0  0  0  0  0  0  0  0  0  0  0
   60.8946   34.3557   54.0797 H   0  0  0  0  0  0  0  0  0  0  0  0
   61.7066   32.4246   52.7307 H   0  0  0  0  0  0  0  0  0  0  0  0
   60.0455   31.9240   48.2912 H   0  0  0  0  0  0  0  0  0  0  0  0
   59.9673   31.5687   45.8298 H   0  0  0  0  0  0  0  0  0  0  0  0
   59.5875   30.2173   43.9975 H   0  0  0  0  0  0  0  0  0  0  0  0
   60.3870   28.6124   44.1833 H   0  0  0  0  0  0  0  0  0  0  0  0
   55.5184   29.0781   43.2688 H   0  0  0  0  0  0  0  0  0  0  0  0
   55.3165   30.0763   44.7707 H   0  0  0  0  0  0  0  0  0  0  0  0
   57.5528   31.6271   40.2662 H   0  0  0  0  0  0  0  0  0  0  0  0
   56.5017   32.7771   41.1841 H   0  0  0  0  0  0  0  0  0  0  0  0
   59.3480   31.8902   41.8455 H   0  0  0  0  0  0  0  0  0  0  0  0
   58.7492   33.5489   41.4731 H   0  0  0  0  0  0  0  0  0  0  0  0
   59.6028   34.4946   43.5667 H   0  0  0  0  0  0  0  0  0  0  0  0
   59.7421   35.9891   48.0149 H   0  0  0  0  0  0  0  0  0  0  0  0
   58.8358   34.4315   48.1364 H   0  0  0  0  0  0  0  0  0  0  0  0
   61.4063   34.0297   45.7426 H   0  0  0  0  0  0  0  0  0  0  0  0
   63.5448   32.8004   46.1414 H   0  0  0  0  0  0  0  0  0  0  0  0
   64.2763   32.2878   48.4710 H   0  0  0  0  0  0  0  0  0  0  0  0
   62.8666   32.9941   50.4083 H   0  0  0  0  0  0  0  0  0  0  0  0
   60.7253   34.2152   50.0196 H   0  0  0  0  0  0  0  0  0  0  0  0
   57.6469   33.3137   47.2397 H   0  0  0  0  0  0  0  0  0  0  0  0
   56.4827   31.4751   46.0392 H   0  0  0  0  0  0  0  0  0  0  0  0
   59.2541   27.3471   46.4607 H   0  0  0  0  0  0  0  0  0  0  0  0
   59.2987   27.7065   48.9278 H   0  0  0  0  0  0  0  0  0  0  0  0
  1  2  1  0
  2  3  2  0
  3  4  1  0
  4  5  2  0
  5  6  1  0
  6  7  2  0
  7  8  1  0
  8  9  1  0
  9 10  2  0
  9 11  1  0
 11 12  2  0
 12 13  1  0
 13 14  2  0
 14 15  1  0
 15 16  1  0
 16 17  1  0
 17 18  2  0
 17 19  1  0
 19 20  1  0
 20 21  2  0
 21 22  1  0
 22 23  1  0
 23 24  1  0
 24 25  2  0
 25 26  1  0
 26 27  1  0
 27 28  1  0
 28 29  1  0
 29 30  2  0
 30 31  1  0
 31 32  2  0
 32 33  1  0
 33 34  2  0
 26 35  2  0
 35 36  1  0
 36 37  2  0
 14 38  1  0
 38 39  2  0
  7  2  1  0
 39 11  1  0
 37 20  1  0
 37 24  1  0
 34 29  1  0
  1 40  1  0
  1 41  1  0
  3 42  1  0
  4 43  1  0
  5 44  1  0
  6 45  1  0
 12 46  1  0
 13 47  1  0
 15 48  1  0
 15 49  1  0
 19 50  1  0
 19 51  1  0
 22 52  1  0
 22 53  1  0
 23 54  1  0
 23 55  1  0
 25 56  1  0
 28 57  1  0
 28 58  1  0
 30 59  1  0
 31 60  1  0
 32 61  1  0
 33 62  1  0
 34 63  1  0
 35 64  1  0
 36 65  1  0
 38 66  1  0
 39 67  1  0
M  CHG  2   8  -1  16  -1
M  END
>  <UniqueID>  (5) 
5

>  <SMILES>  (5) 
Nc1ccccc1[N-]C(=O)c1ccc(C[N-]C(=O)CC2=NCCc3cc(OCc4ccccc4)ccc32)cc1

>  <Energy>  (5) 
80.2033816718424

>  <Genealogy>  (5) 
Nc1ccccc1[N-]C(=O)c1ccc(C[N-]C(=O)CC2=NCCc3cc(OCc4ccccc4)ccc32)cc1 (protonated)
Nc1ccccc1[N-]C(=O)c1ccc(C[N-]C(=O)CC2=NCCc3cc(OCc4ccccc4)ccc32)cc1 (3D coordinates assigned)
Nc1ccccc1[N-]C(=O)c1ccc(C[N-]C(=O)CC2=NCCc3cc(OCc4ccccc4)ccc32)cc1 (nonaromatic ring conformer: 80.2033816718424 kcal/mol)

>  <smiles>  (5) 
Nc1ccccc1NC(=O)c1ccc(CNC(=O)CC2=NCCc3cc(OCc4ccccc4)ccc32)cc1

>  <score_type>  (5) 
oracle

>  <origin>  (5) 
adg

>  <m_score__min__energy>  (5) 
-12.789999999999999

>  <m_primary>  (5) 
energy

$$$$
5:0
     RDKit          3D

 35 37  0  0  0  0  0  0  0  0999 V2000
   56.0970   29.8560   42.9790 C   0  0  0  0  0  0  0  0  0  0  0  0
   56.7910   29.6540   44.1010 C   0  0  0  0  0  0  0  0  0  0  0  0
   56.7470   28.4990   44.7950 N   0  0  0  0  0  0  0  0  0  0  0  0
   57.5910   28.6410   45.8400 C   0  0  0  0  0  0  0  0  0  0  0  0
   57.8510   27.7010   46.7620 C   0  0  0  0  0  0  0  0  0  0  0  0
   57.3630   26.3130   46.6870 C   0  0  0  0  0  0  0  0  0  0  0  0
   58.1000   25.2510   47.0530 N   0  0  0  0  0  0  0  0  0  0  0  0
   57.2500   24.2120   46.9060 C   0  0  0  0  0  0  0  0  0  0  0  0
   57.5860   23.0230   47.1440 O   0  0  0  0  0  0  0  0  0  0  0  0
   56.0090   24.5490   46.4960 N   0  0  0  0  0  0  0  0  0  0  0  0
   56.0910   25.8840   46.3730 C   0  0  0  0  0  0  0  0  0  0  0  0
   55.0160   26.6970   46.0270 O   0  0  0  0  0  0  0  0  0  0  0  0
   58.1900   29.8880   45.8090 C   0  0  0  0  0  0  0  0  0  0  0  0
   57.6790   30.5410   44.7020 C   0  0  0  0  0  0  0  0  0  0  0  0
   57.9910   31.9330   44.3050 C   0  0  0  0  0  0  0  0  0  0  0  0
   57.9420   32.2440   43.0840 O   0  0  0  0  0  0  0  0  0  0  0  0
   58.3110   32.9440   45.2830 N   0  0  0  0  0  0  0  0  0  0  0  0
   57.7020   32.8980   46.6260 C   0  0  0  0  0  0  0  0  0  0  0  0
   58.6960   33.3680   47.6830 C   0  0  0  0  0  0  0  0  0  0  0  0
   59.1690   34.6990   47.3410 N   0  0  0  0  0  0  0  0  0  0  0  0
   59.4660   35.0250   45.9850 C   0  0  0  0  0  0  0  0  0  0  0  0
   59.9390   36.1590   45.7080 O   0  0  0  0  0  0  0  0  0  0  0  0
   59.2490   34.0160   44.8930 C   0  0  0  0  0  0  0  0  0  0  0  0
   56.1705   30.8191   42.4527 H   0  0  0  0  0  0  0  0  0  0  0  0
   55.4516   29.0594   42.5806 H   0  0  0  0  0  0  0  0  0  0  0  0
   56.2010   27.6480   44.5300 H   0  0  0  0  0  0  0  0  0  0  0  0
   58.4671   27.9848   47.6280 H   0  0  0  0  0  0  0  0  0  0  0  0
   55.1450   27.4860   45.4060 H   0  0  0  0  0  0  0  0  0  0  0  0
   58.9273   30.2822   46.5239 H   0  0  0  0  0  0  0  0  0  0  0  0
   56.8181   33.5525   46.6447 H   0  0  0  0  0  0  0  0  0  0  0  0
   57.4122   31.8604   46.8484 H   0  0  0  0  0  0  0  0  0  0  0  0
   58.2020   33.3950   48.6655 H   0  0  0  0  0  0  0  0  0  0  0  0
   59.5480   32.6733   47.7217 H   0  0  0  0  0  0  0  0  0  0  0  0
   58.8439   34.5340   44.0112 H   0  0  0  0  0  0  0  0  0  0  0  0
   60.2199   33.5452   44.6792 H   0  0  0  0  0  0  0  0  0  0  0  0
  1  2  2  0
  2  3  1  0
  3  4  1  0
  4  5  2  3
  5  6  1  0
  6  7  1  0
  7  8  1  0
  8  9  2  0
  8 10  1  0
 10 11  1  0
 11 12  1  0
  4 13  1  0
 13 14  2  0
 14 15  1  0
 15 16  2  0
 15 17  1  0
 17 18  1  0
 18 19  1  0
 19 20  1  0
 20 21  1  0
 21 22  2  0
 21 23  1  0
 14  2  1  0
 23 17  1  0
 11  6  2  0
  1 24  1  0
  1 25  1  0
  3 26  1  0
  5 27  1  0
 12 28  1  0
 13 29  1  0
 18 30  1  0
 18 31  1  0
 19 32  1  0
 19 33  1  0
 23 34  1  0
 23 35  1  0
M  CHG  3   7  -1  10  -1  20  -1
M  END
>  <UniqueID>  (6) 
6

>  <SMILES>  (6) 
C=c1[nH]c(=Cc2[n-]c(=O)[n-]c2O)cc1C(=O)N1CC[N-]C(=O)C1

>  <Energy>  (6) 
101.15167153383167

>  <Genealogy>  (6) 
C=c1[nH]c(=Cc2[n-]c(=O)[n-]c2O)cc1C(=O)N1CC[N-]C(=O)C1 (protonated)
C=c1[nH]c(=Cc2[n-]c(=O)[n-]c2O)cc1C(=O)N1CC[N-]C(=O)C1 (3D coordinates assigned)
C=c1[nH]c(=Cc2[n-]c(=O)[n-]c2O)cc1C(=O)N1CC[N-]C(=O)C1 (nonaromatic ring conformer: 101.15167153383167 kcal/mol)

>  <smiles>  (6) 
C=c1[nH]c(=Cc2[nH]c(=O)[nH]c2O)cc1C(=O)N1CCNC(=O)C1

>  <score_type>  (6) 
oracle

>  <origin>  (6) 
adg

>  <m_score__min__energy>  (6) 
-13.67

>  <m_primary>  (6) 
energy

$$$$
6:0
     RDKit          3D

 50 53  0  0  0  0  0  0  0  0999 V2000
   62.4010   33.7220   45.6630 H   0  0  0  0  0  0  0  0  0  0  0  0
   63.3900   33.8210   45.6960 O   0  0  0  0  0  0  0  0  0  0  0  0
   63.8510   33.4470   46.9740 C   0  0  0  0  0  0  0  0  0  0  0  0
   64.9037   33.7449   46.8598 H   0  0  0  0  0  0  0  0  0  0  0  0
   62.9680   33.8990   48.0970 C   0  0  0  0  0  0  0  0  0  0  0  0
   62.1341   34.5296   47.7549 H   0  0  0  0  0  0  0  0  0  0  0  0
   63.4246   34.5331   48.8713 H   0  0  0  0  0  0  0  0  0  0  0  0
   62.5330   32.5480   48.5020 N   0  0  0  0  0  0  0  0  0  0  0  0
   61.6930   31.9570   49.4910 C   0  0  0  0  0  0  0  0  0  0  0  0
   61.6370   30.7010   49.5890 O   0  0  0  0  0  0  0  0  0  0  0  0
   60.9150   32.8190   50.4400 C   0  0  0  0  0  0  0  0  0  0  0  0
   61.5876   33.5726   50.8755 H   0  0  0  0  0  0  0  0  0  0  0  0
   60.4917   32.1791   51.2283 H   0  0  0  0  0  0  0  0  0  0  0  0
   59.7870   33.5170   49.7320 C   0  0  0  0  0  0  0  0  0  0  0  0
   59.3000   34.5570   50.2500 O   0  0  0  0  0  0  0  0  0  0  0  0
   59.2150   32.9780   48.4750 C   0  0  0  0  0  0  0  0  0  0  0  0
   59.3190   33.5100   47.1930 C   0  0  0  0  0  0  0  0  0  0  0  0
   60.0810   34.7390   46.7860 C   0  0  0  0  0  0  0  0  0  0  0  0
   60.4150   35.2778   47.6850 H   0  0  0  0  0  0  0  0  0  0  0  0
   60.9563   34.4463   46.1875 H   0  0  0  0  0  0  0  0  0  0  0  0
   59.4296   35.3929   46.1875 H   0  0  0  0  0  0  0  0  0  0  0  0
   58.5660   32.6820   46.3670 C   0  0  0  0  0  0  0  0  0  0  0  0
   58.3110   32.8610   44.9210 C   0  0  0  0  0  0  0  0  0  0  0  0
   58.4860   33.9910   44.3940 O   0  0  0  0  0  0  0  0  0  0  0  0
   57.7590   31.8060   44.1190 N   0  0  0  0  0  0  0  0  0  0  0  0
   57.2350   30.6970   44.5550 C   0  0  0  0  0  0  0  0  0  0  0  0
   55.9270   30.5790   44.8400 N   0  0  0  0  0  0  0  0  0  0  0  0
   55.7190   29.3320   45.2310 N   0  0  0  0  0  0  0  0  0  0  0  0
   54.7800   28.9640   45.4980 H   0  0  0  0  0  0  0  0  0  0  0  0
   56.8790   28.6420   45.1890 C   0  0  0  0  0  0  0  0  0  0  0  0
   57.0290   27.2090   45.5480 C   0  0  0  0  0  0  0  0  0  0  0  0
   58.2750   26.5640   45.4250 C   0  0  0  0  0  0  0  0  0  0  0  0
   59.1474   27.1271   45.0618 H   0  0  0  0  0  0  0  0  0  0  0  0
   58.4120   25.2130   45.7610 C   0  0  0  0  0  0  0  0  0  0  0  0
   59.3901   24.7194   45.6625 H   0  0  0  0  0  0  0  0  0  0  0  0
   57.3100   24.4900   46.2210 C   0  0  0  0  0  0  0  0  0  0  0  0
   57.4200   23.4280   46.4856 H   0  0  0  0  0  0  0  0  0  0  0  0
   56.0680   25.1160   46.3450 C   0  0  0  0  0  0  0  0  0  0  0  0
   55.1998   24.5454   46.7066 H   0  0  0  0  0  0  0  0  0  0  0  0
   55.9250   26.4650   46.0110 C   0  0  0  0  0  0  0  0  0  0  0  0
   54.9429   26.9504   46.1102 H   0  0  0  0  0  0  0  0  0  0  0  0
   57.8840   29.4860   44.7480 C   0  0  0  0  0  0  0  0  0  0  0  0
   58.9468   29.2516   44.5883 H   0  0  0  0  0  0  0  0  0  0  0  0
   58.0420   31.6710   47.0880 N   0  0  0  0  0  0  0  0  0  0  0  0
   57.4190   30.9100   46.7370 H   0  0  0  0  0  0  0  0  0  0  0  0
   58.4310   31.8430   48.3630 C   0  0  0  0  0  0  0  0  0  0  0  0
   58.1646   31.1775   49.1973 H   0  0  0  0  0  0  0  0  0  0  0  0
   63.4070   32.0830   47.4070 C   0  0  0  0  0  0  0  0  0  0  0  0
   62.8553   31.5460   46.6214 H   0  0  0  0  0  0  0  0  0  0  0  0
   64.1923   31.3570   47.6645 H   0  0  0  0  0  0  0  0  0  0  0  0
  1  2  1  0
  2  3  1  0
  3  4  1  0
  3  5  1  0
  5  6  1  0
  5  7  1  0
  5  8  1  0
  8  9  1  0
  9 10  2  0
  9 11  1  0
 11 12  1  0
 11 13  1  0
 11 14  1  0
 14 15  2  0
 14 16  1  0
 16 17  1  0
 17 18  1  0
 18 19  1  0
 18 20  1  0
 18 21  1  0
 17 22  2  0
 22 23  1  0
 23 24  2  0
 23 25  1  0
 25 26  2  0
 26 27  1  0
 27 28  1  0
 28 29  1  0
 28 30  1  0
 30 31  1  0
 31 32  2  0
 32 33  1  0
 32 34  1  0
 34 35  1  0
 34 36  2  0
 36 37  1  0
 36 38  1  0
 38 39  1  0
 38 40  2  0
 40 41  1  0
 30 42  2  0
 42 43  1  0
 22 44  1  0
 44 45  1  0
 44 46  1  0
 46 47  1  0
  8 48  1  0
 48 49  1  0
 48 50  1  0
 48  3  1  0
 46 16  2  0
 42 26  1  0
 40 31  1  0
M  CHG  1  27  -1
M  END
>  <UniqueID>  (7) 
7

>  <SMILES>  (7) 
Cc1c(C(=O)CC(=O)N2CC(O)C2)c[nH]c1C(=O)/N=c1\cc(-c2ccccc2)[nH][n-]1

>  <Energy>  (7) 
164.0802492282039

>  <Genealogy>  (7) 
Cc1c(C(=O)CC(=O)N2CC(O)C2)c[nH]c1C(=O)N=c1cc(-c2ccccc2)[nH][n-]1 (protonated)
Cc1c(C(=O)CC(=O)N2CC(O)C2)c[nH]c1C(=O)/N=c1\cc(-c2ccccc2)[nH][n-]1 (cis-trans isomerization)
Cc1c(C(=O)CC(=O)N2CC(O)C2)c[nH]c1C(=O)/N=c1\cc(-c2ccccc2)[nH][n-]1 (3D coordinates assigned)
Cc1c(C(=O)CC(=O)N2CC(O)C2)c[nH]c1C(=O)/N=c1\cc(-c2ccccc2)[nH][n-]1 (nonaromatic ring conformer: 164.0802492282039 kcal/mol)

>  <smiles>  (7) 
Cc1c(C(=O)CC(=O)N2CC(O)C2)c[nH]c1C(=O)N=c1cc(-c2ccccc2)[nH][nH]1

>  <score_type>  (7) 
oracle

>  <origin>  (7) 
adg

>  <m_score__min__energy>  (7) 
-11.029999999999999

>  <m_primary>  (7) 
energy

$$$$
7:0
     RDKit          3D

 59 62  0  0  0  0  0  0  0  0999 V2000
   53.2720   28.4356   52.6999 H   0  0  0  0  0  0  0  0  0  0  0  0
   54.3710   28.4000   52.7290 C   0  0  0  0  0  0  0  0  0  0  0  0
   54.8868   27.4373   52.8601 H   0  0  0  0  0  0  0  0  0  0  0  0
   55.0800   29.5270   52.6050 C   0  0  0  0  0  0  0  0  0  0  0  0
   54.5870   30.8220   52.4270 C   0  0  0  0  0  0  0  0  0  0  0  0
   53.2950   31.2020   52.3840 C   0  0  0  0  0  0  0  0  0  0  0  0
   52.8400   31.5826   53.3103 H   0  0  0  0  0  0  0  0  0  0  0  0
   52.4510   31.1410   51.1760 C   0  0  0  0  0  0  0  0  0  0  0  0
   51.4030   31.9830   50.8800 C   0  0  0  0  0  0  0  0  0  0  0  0
   51.0140   33.0870   51.6270 O   0  0  0  0  0  0  0  0  0  0  0  0
   50.7840   31.5900   49.7490 N   0  0  0  0  0  0  0  0  0  0  0  0
   51.4780   30.4870   49.3970 C   0  0  0  0  0  0  0  0  0  0  0  0
   51.1990   29.8010   48.3790 O   0  0  0  0  0  0  0  0  0  0  0  0
   52.4850   30.1780   50.2370 N   0  0  0  0  0  0  0  0  0  0  0  0
   53.1030   29.3380   50.1940 H   0  0  0  0  0  0  0  0  0  0  0  0
   55.7020   31.6500   52.3620 C   0  0  0  0  0  0  0  0  0  0  0  0
   55.7047   32.7420   52.2300 H   0  0  0  0  0  0  0  0  0  0  0  0
   56.8060   30.8300   52.4960 C   0  0  0  0  0  0  0  0  0  0  0  0
   58.2320   31.2920   52.4880 C   0  0  0  0  0  0  0  0  0  0  0  0
   58.2530   32.3734   52.2875 H   0  0  0  0  0  0  0  0  0  0  0  0
   58.6683   31.0587   53.4705 H   0  0  0  0  0  0  0  0  0  0  0  0
   59.0680   30.5740   51.4180 C   0  0  0  0  0  0  0  0  0  0  0  0
   59.6070   29.3380   51.6920 C   0  0  0  0  0  0  0  0  0  0  0  0
   59.3780   28.6330   53.0130 C   0  0  0  0  0  0  0  0  0  0  0  0
   59.6020   29.3225   53.8403 H   0  0  0  0  0  0  0  0  0  0  0  0
   58.3287   28.3097   53.0790 H   0  0  0  0  0  0  0  0  0  0  0  0
   60.0371   27.7548   53.0790 H   0  0  0  0  0  0  0  0  0  0  0  0
   60.3280   28.5040   50.6500 C   0  0  0  0  0  0  0  0  0  0  0  0
   61.2417   28.1001   51.1105 H   0  0  0  0  0  0  0  0  0  0  0  0
   59.6147   27.7287   50.3336 H   0  0  0  0  0  0  0  0  0  0  0  0
   60.7290   29.2500   49.3840 C   0  0  0  0  0  0  0  0  0  0  0  0
   61.6592   29.8056   49.5738 H   0  0  0  0  0  0  0  0  0  0  0  0
   60.8746   28.5164   48.5774 H   0  0  0  0  0  0  0  0  0  0  0  0
   59.6320   30.2390   48.9530 C   0  0  2  0  0  0  0  0  0  0  0  0
   58.6768   29.7017   48.8582 H   0  0  0  0  0  0  0  0  0  0  0  0
   59.8170   30.7870   47.4740 C   0  0  0  0  0  0  0  0  0  0  0  0
   59.1770   29.7720   46.4930 C   0  0  0  0  0  0  0  0  0  0  0  0
   58.6755   28.9766   47.0638 H   0  0  0  0  0  0  0  0  0  0  0  0
   58.4409   30.2885   45.8595 H   0  0  0  0  0  0  0  0  0  0  0  0
   59.9604   29.3305   45.8595 H   0  0  0  0  0  0  0  0  0  0  0  0
   61.3100   30.9360   47.0680 C   0  0  0  0  0  0  0  0  0  0  0  0
   61.9317   30.9980   47.9733 H   0  0  0  0  0  0  0  0  0  0  0  0
   61.6166   30.0640   46.4717 H   0  0  0  0  0  0  0  0  0  0  0  0
   61.4382   31.8514   46.4717 H   0  0  0  0  0  0  0  0  0  0  0  0
   59.1250   32.1310   47.2450 C   0  0  0  0  0  0  0  0  0  0  0  0
   59.1440   32.6180   46.1210 O   0  0  0  0  0  0  0  0  0  0  0  0
   58.4400   32.9300   48.3190 C   0  0  0  0  0  0  0  0  0  0  0  0
   59.0654   33.8062   48.5452 H   0  0  0  0  0  0  0  0  0  0  0  0
   57.4486   33.1951   47.9231 H   0  0  0  0  0  0  0  0  0  0  0  0
   58.1940   32.1720   49.6230 C   0  0  0  0  0  0  0  0  0  0  0  0
   57.9773   32.9047   50.4143 H   0  0  0  0  0  0  0  0  0  0  0  0
   57.3528   31.4869   49.4411 H   0  0  0  0  0  0  0  0  0  0  0  0
   59.3940   31.3020   50.0780 C   0  0  1  0  0  0  0  0  0  0  0  0
   60.6280   32.2120   50.3170 C   0  0  0  0  0  0  0  0  0  0  0  0
   60.7910   32.3322   51.3982 H   0  0  0  0  0  0  0  0  0  0  0  0
   61.5169   31.7516   49.8611 H   0  0  0  0  0  0  0  0  0  0  0  0
   60.4508   33.1973   49.8611 H   0  0  0  0  0  0  0  0  0  0  0  0
   56.4270   29.5450   52.6330 N   0  0  0  0  0  0  0  0  0  0  0  0
   57.0580   28.7220   52.7620 H   0  0  0  0  0  0  0  0  0  0  0  0
  1  2  1  0
  2  3  1  0
  2  4  2  0
  4  5  1  0
  5  6  2  0
  6  7  1  0
  6  8  1  0
  8  9  2  0
  9 10  1  0
  9 11  1  0
 11 12  1  0
 12 13  2  0
 12 14  1  0
 14 15  1  0
  5 16  1  0
 16 17  1  0
 16 18  2  0
 18 19  1  0
 19 20  1  0
 19 21  1  0
 19 22  1  0
 22 23  2  0
 23 24  1  0
 24 25  1  0
 24 26  1  0
 24 27  1  0
 23 28  1  0
 28 29  1  0
 28 30  1  0
 28 31  1  0
 31 32  1  0
 31 33  1  0
 31 34  1  0
 34 35  1  6
 34 36  1  0
 36 37  1  0
 37 38  1  0
 37 39  1  0
 37 40  1  0
 36 41  1  0
 41 42  1  0
 41 43  1  0
 41 44  1  0
 36 45  1  0
 45 46  2  0
 45 47  1  0
 47 48  1  0
 47 49  1  0
 47 50  1  0
 50 51  1  0
 50 52  1  0
 50 53  1  0
 53 54  1  1
 54 55  1  0
 54 56  1  0
 54 57  1  0
 18 58  1  0
 58 59  1  0
 58  4  1  0
 14  8  1  0
 53 22  1  0
 53 34  1  0
M  CHG  2  10  -1  11  -1
M  END
>  <UniqueID>  (8) 
8

>  <SMILES>  (8) 
C=c1[nH]c(CC2=C(C)CC[C@@H]3C(C)(C)C(=O)CC[C@@]23C)c/c1=C\c1[nH]c(=O)[n-]c1[O-]

>  <Energy>  (8) 
137.91375083073163

>  <Genealogy>  (8) 
C=c1[nH]c(CC2=C(C)CCC3C(C)(C)C(=O)CCC23C)cc1=Cc1[nH]c(=O)[n-]c1[O-] (protonated)
C=c1[nH]c(CC2=C(C)CC[C@@H]3C(C)(C)C(=O)CC[C@@]23C)cc1=Cc1[nH]c(=O)[n-]c1[O-] (chirality)
C=c1[nH]c(CC2=C(C)CC[C@@H]3C(C)(C)C(=O)CC[C@@]23C)c/c1=C\c1[nH]c(=O)[n-]c1[O-] (cis-trans isomerization)
C=c1[nH]c(CC2=C(C)CC[C@@H]3C(C)(C)C(=O)CC[C@@]23C)c/c1=C\c1[nH]c(=O)[n-]c1[O-] (3D coordinates assigned)
C=c1[nH]c(CC2=C(C)CC[C@@H]3C(C)(C)C(=O)CC[C@@]23C)c/c1=C\c1[nH]c(=O)[n-]c1[O-] (nonaromatic ring conformer: 137.91375083073163 kcal/mol)

>  <smiles>  (8) 
C=c1[nH]c(CC2=C(C)CCC3C(C)(C)C(=O)CCC23C)cc1=Cc1[nH]c(=O)[nH]c1O

>  <score_type>  (8) 
oracle

>  <origin>  (8) 
adg

>  <m_score__min__energy>  (8) 
-15.960000000000001

>  <m_primary>  (8) 
energy

$$$$
8:0
     RDKit          3D

 47 50  0  0  0  0  0  0  0  0999 V2000
   53.5800   28.4670   52.7230 C   0  0  0  0  0  0  0  0  0  0  0  0
   54.5970   29.3380   52.7540 C   0  0  0  0  0  0  0  0  0  0  0  0
   55.8300   28.8250   53.0170 N   0  0  0  0  0  0  0  0  0  0  0  0
   56.9720   29.5440   52.8880 C   0  0  0  0  0  0  0  0  0  0  0  0
   56.9260   30.8540   52.4090 C   0  0  0  0  0  0  0  0  0  0  0  0
   58.1750   31.6280   52.2220 C   0  0  0  0  0  0  0  0  0  0  0  0
   58.9690   31.7510   53.1950 O   0  0  0  0  0  0  0  0  0  0  0  0
   58.5010   32.2500   50.9630 N   0  0  0  0  0  0  0  0  0  0  0  0
   58.1320   31.6280   49.6860 C   0  0  0  0  0  0  0  0  0  0  0  0
   59.3170   31.6680   48.7070 C   0  0  0  0  0  0  0  0  0  0  0  0
   60.0740   32.9560   48.7170 N   0  0  0  0  0  0  0  0  0  0  0  0
   60.4900   33.4910   47.3930 C   0  0  0  0  0  0  0  0  0  0  0  0
   59.6970   32.9600   46.1970 C   0  0  0  0  0  0  0  0  0  0  0  0
   59.2330   34.3810   45.8860 C   0  0  0  0  0  0  0  0  0  0  0  0
   60.0210   34.9140   47.0790 C   0  0  0  0  0  0  0  0  0  0  0  0
   59.4570   34.0190   49.5340 C   0  0  0  0  0  0  0  0  0  0  0  0
   59.2320   33.5200   50.9620 C   0  0  0  0  0  0  0  0  0  0  0  0
   55.6740   31.4350   52.1720 C   0  0  0  0  0  0  0  0  0  0  0  0
   54.4790   30.7220   52.4070 C   0  0  0  0  0  0  0  0  0  0  0  0
   53.3170   31.4170   52.3080 C   0  0  0  0  0  0  0  0  0  0  0  0
   52.3370   31.3330   51.2100 C   0  0  0  0  0  0  0  0  0  0  0  0
   52.3920   30.4060   50.2380 N   0  0  0  0  0  0  0  0  0  0  0  0
   51.3900   30.7650   49.4070 C   0  0  0  0  0  0  0  0  0  0  0  0
   51.1110   30.1170   48.3640 O   0  0  0  0  0  0  0  0  0  0  0  0
   50.7200   31.8770   49.7720 N   0  0  0  0  0  0  0  0  0  0  0  0
   51.3400   32.2340   50.9080 C   0  0  0  0  0  0  0  0  0  0  0  0
   51.0200   33.3760   51.6350 O   0  0  0  0  0  0  0  0  0  0  0  0
   52.5592   28.8205   52.5155 H   0  0  0  0  0  0  0  0  0  0  0  0
   53.7655   27.3981   52.9050 H   0  0  0  0  0  0  0  0  0  0  0  0
   57.9376   29.0936   53.1616 H   0  0  0  0  0  0  0  0  0  0  0  0
   57.8434   30.5814   49.8629 H   0  0  0  0  0  0  0  0  0  0  0  0
   57.2896   32.1842   49.2489 H   0  0  0  0  0  0  0  0  0  0  0  0
   60.0115   30.8572   48.9721 H   0  0  0  0  0  0  0  0  0  0  0  0
   58.8973   31.5549   47.6965 H   0  0  0  0  0  0  0  0  0  0  0  0
   61.5643   33.2742   47.4870 H   0  0  0  0  0  0  0  0  0  0  0  0
   60.3179   32.5065   45.4103 H   0  0  0  0  0  0  0  0  0  0  0  0
   58.9662   32.1479   46.3257 H   0  0  0  0  0  0  0  0  0  0  0  0
   59.5804   34.7622   44.9144 H   0  0  0  0  0  0  0  0  0  0  0  0
   58.1599   34.6028   45.7894 H   0  0  0  0  0  0  0  0  0  0  0  0
   60.8322   35.6066   46.8099 H   0  0  0  0  0  0  0  0  0  0  0  0
   59.5262   35.5232   47.8497 H   0  0  0  0  0  0  0  0  0  0  0  0
   60.1227   34.8944   49.5551 H   0  0  0  0  0  0  0  0  0  0  0  0
   58.4884   34.2962   49.0925 H   0  0  0  0  0  0  0  0  0  0  0  0
   60.2068   33.3749   51.4506 H   0  0  0  0  0  0  0  0  0  0  0  0
   58.6371   34.2683   51.5062 H   0  0  0  0  0  0  0  0  0  0  0  0
   55.6210   32.4671   51.7954 H   0  0  0  0  0  0  0  0  0  0  0  0
   53.0836   32.1116   53.1284 H   0  0  0  0  0  0  0  0  0  0  0  0
  1  2  2  0
  2  3  1  0
  3  4  2  0
  4  5  1  0
  5  6  1  0
  6  7  2  0
  6  8  1  0
  8  9  1  0
  9 10  1  0
 10 11  1  0
 11 12  1  0
 12 13  1  0
 13 14  1  0
 14 15  1  0
 11 16  1  0
 16 17  1  0
  5 18  2  0
 18 19  1  0
 19 20  2  3
 20 21  1  0
 21 22  1  0
 22 23  1  0
 23 24  2  0
 23 25  1  0
 25 26  1  0
 26 27  1  0
 19  2  1  0
 26 21  2  0
 17  8  1  0
 15 12  1  0
  1 28  1  0
  1 29  1  0
  4 30  1  0
  9 31  1  0
  9 32  1  0
 10 33  1  0
 10 34  1  0
 12 35  1  0
 13 36  1  0
 13 37  1  0
 14 38  1  0
 14 39  1  0
 15 40  1  0
 15 41  1  0
 16 42  1  0
 16 43  1  0
 17 44  1  0
 17 45  1  0
 18 46  1  0
 20 47  1  0
M  CHG  3  22  -1  25  -1  27  -1
M  END
>  <UniqueID>  (9) 
9

>  <SMILES>  (9) 
C=c1ncc(C(=O)N2CCN(C3CCC3)CC2)cc1=Cc1[n-]c(=O)[n-]c1[O-]

>  <Energy>  (9) 
175.55883197154415

>  <Genealogy>  (9) 
C=c1ncc(C(=O)N2CCN(C3CCC3)CC2)cc1=Cc1[n-]c(=O)[n-]c1[O-] (protonated)
C=c1ncc(C(=O)N2CCN(C3CCC3)CC2)cc1=Cc1[n-]c(=O)[n-]c1[O-] (3D coordinates assigned)
C=c1ncc(C(=O)N2CCN(C3CCC3)CC2)cc1=Cc1[n-]c(=O)[n-]c1[O-] (nonaromatic ring conformer: 175.55883197154415 kcal/mol)

>  <smiles>  (9) 
C=c1ncc(C(=O)N2CCN(C3CCC3)CC2)cc1=Cc1[nH]c(=O)[nH]c1O

>  <score_type>  (9) 
oracle

>  <origin>  (9) 
adg

>  <m_score__min__energy>  (9) 
-17.719999999999999

>  <m_primary>  (9) 
energy

$$$$
9:0
     RDKit          3D

 29 31  0  0  0  0  0  0  0  0999 V2000
   58.9340   35.8020   48.5700 H   0  0  0  0  0  0  0  0  0  0  0  0
   59.3880   34.9210   48.3620 O   0  0  0  0  0  0  0  0  0  0  0  0
   59.0550   34.1790   47.2310 C   0  0  0  0  0  0  0  0  0  0  0  0
   58.8170   34.8450   46.0090 C   0  0  0  0  0  0  0  0  0  0  0  0
   58.8952   35.9412   45.9616 H   0  0  0  0  0  0  0  0  0  0  0  0
   58.4810   34.1200   44.8520 C   0  0  0  0  0  0  0  0  0  0  0  0
   58.2976   34.6322   43.8959 H   0  0  0  0  0  0  0  0  0  0  0  0
   58.3870   32.7290   44.9530 C   0  0  0  0  0  0  0  0  0  0  0  0
   58.0880   31.7550   44.0130 C   0  0  0  0  0  0  0  0  0  0  0  0
   57.8000   31.9640   42.7230 C   0  0  0  0  0  0  0  0  0  0  0  0
   57.7925   32.9875   42.3200 H   0  0  0  0  0  0  0  0  0  0  0  0
   57.5708   31.1123   42.0656 H   0  0  0  0  0  0  0  0  0  0  0  0
   58.1470   30.5330   44.7050 C   0  0  0  0  0  0  0  0  0  0  0  0
   57.9480   29.3110   44.1750 C   0  0  0  0  0  0  0  0  0  0  0  0
   58.2085   29.1521   43.1182 H   0  0  0  0  0  0  0  0  0  0  0  0
   57.3970   28.1710   44.9410 C   0  0  0  0  0  0  0  0  0  0  0  0
   56.0280   28.0860   45.2540 C   0  0  0  0  0  0  0  0  0  0  0  0
   55.1440   29.0820   44.8560 O   0  0  0  0  0  0  0  0  0  0  0  0
   55.5550   27.0110   45.9350 N   0  0  0  0  0  0  0  0  0  0  0  0
   56.3780   25.9990   46.3090 C   0  0  0  0  0  0  0  0  0  0  0  0
   55.9170   25.0160   46.9430 O   0  0  0  0  0  0  0  0  0  0  0  0
   57.6980   26.0450   45.9940 N   0  0  0  0  0  0  0  0  0  0  0  0
   58.2220   27.0980   45.3150 C   0  0  0  0  0  0  0  0  0  0  0  0
   59.4500   27.1040   45.0360 O   0  0  0  0  0  0  0  0  0  0  0  0
   58.4740   30.7510   46.0060 N   0  0  0  0  0  0  0  0  0  0  0  0
   58.6250   30.0420   46.7580 H   0  0  0  0  0  0  0  0  0  0  0  0
   58.6140   32.0810   46.1410 C   0  0  0  0  0  0  0  0  0  0  0  0
   58.9520   32.7740   47.3020 C   0  0  0  0  0  0  0  0  0  0  0  0
   59.1333   32.2405   48.2467 H   0  0  0  0  0  0  0  0  0  0  0  0
  1  2  1  0
  2  3  1  0
  3  4  2  0
  4  5  1  0
  4  6  1  0
  6  7  1  0
  6  8  2  0
  8  9  1  0
  9 10  2  0
 10 11  1  0
 10 12  1  0
  9 13  1  0
 13 14  2  0
 14 15  1  0
 14 16  1  0
 16 17  2  0
 17 18  1  0
 17 19  1  0
 19 20  1  0
 20 21  2  0
 20 22  1  0
 22 23  1  0
 23 24  2  0
 13 25  1  0
 25 26  1  0
 25 27  1  0
 27 28  2  0
 28 29  1  0
 28  3  1  0
 27  8  1  0
 23 16  1  0
M  CHG  3  18  -1  19  -1  22  -1
M  END
>  <UniqueID>  (10) 
10

>  <SMILES>  (10) 
C=c1/c(=C/c2c([O-])[n-]c(=O)[n-]c2=O)[nH]c2cc(O)ccc12

>  <Energy>  (10) 
76.94925088207545

>  <Genealogy>  (10) 
C=c1c(=Cc2c([O-])[n-]c(=O)[n-]c2=O)[nH]c2cc(O)ccc12 (protonated)
C=c1/c(=C/c2c([O-])[n-]c(=O)[n-]c2=O)[nH]c2cc(O)ccc12 (cis-trans isomerization)
C=c1/c(=C/c2c([O-])[n-]c(=O)[n-]c2=O)[nH]c2cc(O)ccc12 (3D coordinates assigned)
C=c1/c(=C/c2c([O-])[n-]c(=O)[n-]c2=O)[nH]c2cc(O)ccc12 (optimized conformer: 76.94925088207545 kcal/mol)

>  <smiles>  (10) 
C=c1c(=Cc2c(O)[nH]c(=O)[nH]c2=O)[nH]c2cc(O)ccc12

>  <score_type>  (10) 
oracle

>  <origin>  (10) 
adg

>  <m_score__min__energy>  (10) 
-14.48

>  <m_primary>  (10) 
energy

$$$$
10:0
     RDKit          3D

 70 74  0  0  0  0  0  0  0  0999 V2000
   55.1150   25.4070   45.5680 H   0  0  0  0  0  0  0  0  0  0  0  0
   55.2180   26.2950   46.0380 O   0  0  0  0  0  0  0  0  0  0  0  0
   56.2360   27.1980   45.7350 C   0  0  0  0  0  0  0  0  0  0  0  0
   55.8970   28.4170   45.2500 N   0  0  0  0  0  0  0  0  0  0  0  0
   56.8300   29.3420   44.9170 C   0  0  0  0  0  0  0  0  0  0  0  0
   56.4500   30.4680   44.4960 O   0  0  0  0  0  0  0  0  0  0  0  0
   58.1650   29.0540   45.0420 N   0  0  0  0  0  0  0  0  0  0  0  0
   59.1780   30.0860   44.7370 C   0  0  0  0  0  0  0  0  0  0  0  0
   60.1316   29.5872   44.5094 H   0  0  0  0  0  0  0  0  0  0  0  0
   58.8109   30.6701   43.8802 H   0  0  0  0  0  0  0  0  0  0  0  0
   59.3960   31.0480   45.8890 C   0  0  0  0  0  0  0  0  0  0  0  0
   60.5300   30.8810   46.7010 C   0  0  0  0  0  0  0  0  0  0  0  0
   61.2373   30.0660   46.4874 H   0  0  0  0  0  0  0  0  0  0  0  0
   60.7690   31.7400   47.7780 C   0  0  0  0  0  0  0  0  0  0  0  0
   61.6561   31.5900   48.4109 H   0  0  0  0  0  0  0  0  0  0  0  0
   59.8830   32.7930   48.0560 C   0  0  0  0  0  0  0  0  0  0  0  0
   60.1350   33.7100   49.1900 C   0  0  0  0  0  0  0  0  0  0  0  0
   59.6060   34.8540   49.2010 O   0  0  0  0  0  0  0  0  0  0  0  0
   60.9750   33.3100   50.2860 N   0  0  0  0  0  0  0  0  0  0  0  0
   60.7320   32.0880   51.0320 C   0  0  0  0  0  0  0  0  0  0  0  0
   60.3423   32.3460   52.0278 H   0  0  0  0  0  0  0  0  0  0  0  0
   60.0024   31.4789   50.4783 H   0  0  0  0  0  0  0  0  0  0  0  0
   62.0250   31.2750   51.1940 C   0  0  0  0  0  0  0  0  0  0  0  0
   61.9968   30.7914   52.1816 H   0  0  0  0  0  0  0  0  0  0  0  0
   62.0407   30.5718   50.3483 H   0  0  0  0  0  0  0  0  0  0  0  0
   63.2930   32.0420   51.1000 N   0  0  0  0  0  0  0  0  0  0  0  0
   64.5570   31.3100   51.1870 C   0  0  0  0  0  0  0  0  0  0  0  0
   64.6110   29.9950   51.7150 C   0  0  0  0  0  0  0  0  0  0  0  0
   63.6883   29.5173   52.0761 H   0  0  0  0  0  0  0  0  0  0  0  0
   65.8210   29.2970   51.7830 C   0  0  0  0  0  0  0  0  0  0  0  0
   65.8413   28.2773   52.1951 H   0  0  0  0  0  0  0  0  0  0  0  0
   67.0010   29.8850   51.3320 C   0  0  0  0  0  0  0  0  0  0  0  0
   67.9494   29.3306   51.3878 H   0  0  0  0  0  0  0  0  0  0  0  0
   66.9770   31.1770   50.8100 C   0  0  0  0  0  0  0  0  0  0  0  0
   67.9086   31.6426   50.4559 H   0  0  0  0  0  0  0  0  0  0  0  0
   65.7730   31.8830   50.7350 C   0  0  0  0  0  0  0  0  0  0  0  0
   65.7686   32.9009   50.3181 H   0  0  0  0  0  0  0  0  0  0  0  0
   63.3380   33.4840   50.7600 C   0  0  0  0  0  0  0  0  0  0  0  0
   64.0221   33.9815   51.4633 H   0  0  0  0  0  0  0  0  0  0  0  0
   63.6738   33.5482   49.7145 H   0  0  0  0  0  0  0  0  0  0  0  0
   61.9920   34.1910   50.8260 C   0  0  0  0  0  0  0  0  0  0  0  0
   61.7530   34.4344   51.8718 H   0  0  0  0  0  0  0  0  0  0  0  0
   62.0294   35.1218   50.2410 H   0  0  0  0  0  0  0  0  0  0  0  0
   58.7370   32.9510   47.2590 C   0  0  0  0  0  0  0  0  0  0  0  0
   58.0248   33.7595   47.4805 H   0  0  0  0  0  0  0  0  0  0  0  0
   58.4960   32.0890   46.1880 C   0  0  0  0  0  0  0  0  0  0  0  0
   57.5948   32.2241   45.5719 H   0  0  0  0  0  0  0  0  0  0  0  0
   58.5530   27.8340   45.5410 C   0  0  0  0  0  0  0  0  0  0  0  0
   59.7780   27.5660   45.6850 O   0  0  0  0  0  0  0  0  0  0  0  0
   57.5920   26.8840   45.9200 C   0  0  0  0  0  0  0  0  0  0  0  0
   58.0250   25.5950   46.5030 C   0  0  0  0  0  0  0  0  0  0  0  0
   57.5222   25.2575   47.4213 H   0  0  0  0  0  0  0  0  0  0  0  0
   58.9860   24.8060   45.9950 C   0  0  0  0  0  0  0  0  0  0  0  0
   60.0252   25.1498   46.1040 H   0  0  0  0  0  0  0  0  0  0  0  0
   58.7730   23.5160   45.3020 C   0  0  0  0  0  0  0  0  0  0  0  0
   59.6330   22.6080   45.4530 O   0  0  0  0  0  0  0  0  0  0  0  0
   57.5690   23.2530   44.5620 N   0  0  0  0  0  0  0  0  0  0  0  0
   56.3430   23.2330   45.0060 C   0  0  0  0  0  0  0  0  0  0  0  0
   55.3610   23.7250   44.2030 N   0  0  0  0  0  0  0  0  0  0  0  0
   54.0490   23.7070   44.5580 C   0  0  0  0  0  0  0  0  0  0  0  0
   53.2898   24.1138   43.8739 H   0  0  0  0  0  0  0  0  0  0  0  0
   53.6620   23.1720   45.7920 C   0  0  0  0  0  0  0  0  0  0  0  0
   52.2120   23.0830   46.1650 C   0  0  0  0  0  0  0  0  0  0  0  0
   52.1150   23.0770   47.2607 H   0  0  0  0  0  0  0  0  0  0  0  0
   51.6738   23.9498   45.7539 H   0  0  0  0  0  0  0  0  0  0  0  0
   51.7838   22.1569   45.7539 H   0  0  0  0  0  0  0  0  0  0  0  0
   54.6470   22.6370   46.6300 C   0  0  0  0  0  0  0  0  0  0  0  0
   54.3626   22.1940   47.5958 H   0  0  0  0  0  0  0  0  0  0  0  0
   55.9880   22.6630   46.2460 C   0  0  0  0  0  0  0  0  0  0  0  0
   56.7619   22.2424   46.9050 H   0  0  0  0  0  0  0  0  0  0  0  0
  1  2  1  0
  2  3  1  0
  3  4  1  0
  4  5  1  0
  5  6  2  0
  5  7  1  0
  7  8  1  0
  8  9  1  0
  8 10  1  0
  8 11  1  0
 11 12  2  0
 12 13  1  0
 12 14  1  0
 14 15  1  0
 14 16  2  0
 16 17  1  0
 17 18  2  0
 17 19  1  0
 19 20  1  0
 20 21  1  0
 20 22  1  0
 20 23  1  0
 23 24  1  0
 23 25  1  0
 23 26  1  0
 26 27  1  0
 27 28  2  0
 28 29  1  0
 28 30  1  0
 30 31  1  0
 30 32  2  0
 32 33  1  0
 32 34  1  0
 34 35  1  0
 34 36  2  0
 36 37  1  0
 26 38  1  0
 38 39  1  0
 38 40  1  0
 38 41  1  0
 41 42  1  0
 41 43  1  0
 16 44  1  0
 44 45  1  0
 44 46  2  0
 46 47  1  0
  7 48  1  0
 48 49  2  0
 48 50  1  0
 50 51  1  0
 51 52  1  0
 51 53  2  0
 53 54  1  0
 53 55  1  0
 55 56  2  0
 55 57  1  0
 57 58  2  0
 58 59  1  0
 59 60  1  0
 60 61  1  0
 60 62  2  0
 62 63  1  0
 63 64  1  0
 63 65  1  0
 63 66  1  0
 62 67  1  0
 67 68  1  0
 67 69  2  0
 69 70  1  0
 50  3  2  0
 69 58  1  0
 46 11  1  0
 41 19  1  0
 36 27  1  0
M  CHG  2   4  -1  59  -1
M  END
>  <UniqueID>  (11) 
11

>  <SMILES>  (11) 
Cc1cc/c(=N\C(=O)/C=C\c2c(O)[n-]c(=O)n(Cc3ccc(C(=O)N4CCN(c5ccccc5)CC4)cc3)c2=O)[n-]c1

>  <Energy>  (11) 
106.3243372263854

>  <Genealogy>  (11) 
Cc1ccc(=NC(=O)C=Cc2c(O)[n-]c(=O)n(Cc3ccc(C(=O)N4CCN(c5ccccc5)CC4)cc3)c2=O)[n-]c1 (protonated)
Cc1cc/c(=N\C(=O)/C=C\c2c(O)[n-]c(=O)n(Cc3ccc(C(=O)N4CCN(c5ccccc5)CC4)cc3)c2=O)[n-]c1 (cis-trans isomerization)
Cc1cc/c(=N\C(=O)/C=C\c2c(O)[n-]c(=O)n(Cc3ccc(C(=O)N4CCN(c5ccccc5)CC4)cc3)c2=O)[n-]c1 (3D coordinates assigned)
Cc1cc/c(=N\C(=O)/C=C\c2c(O)[n-]c(=O)n(Cc3ccc(C(=O)N4CCN(c5ccccc5)CC4)cc3)c2=O)[n-]c1 (nonaromatic ring conformer: 106.3243372263854 kcal/mol)

>  <smiles>  (11) 
Cc1ccc(=NC(=O)C=Cc2c(O)[nH]c(=O)n(Cc3ccc(C(=O)N4CCN(c5ccccc5)CC4)cc3)c2=O)[nH]c1

>  <score_type>  (11) 
oracle

>  <origin>  (11) 
adg

>  <m_score__min__energy>  (11) 
-14.039999999999999

>  <m_primary>  (11) 
energy

$$$$
11:0
     RDKit          3D

 56 59  0  0  0  0  0  0  0  0999 V2000
   55.9365   30.4178   44.3796 H   0  0  0  0  0  0  0  0  0  0  0  0
   56.3150   29.3850   44.3870 C   0  0  0  0  0  0  0  0  0  0  0  0
   55.6693   28.5602   44.0514 H   0  0  0  0  0  0  0  0  0  0  0  0
   57.5660   29.1310   44.8060 C   0  0  0  0  0  0  0  0  0  0  0  0
   58.1650   27.8670   44.8640 C   0  0  0  0  0  0  0  0  0  0  0  0
   57.6020   26.6780   44.5730 C   0  0  0  0  0  0  0  0  0  0  0  0
   57.5310   26.3852   43.5151 H   0  0  0  0  0  0  0  0  0  0  0  0
   57.0750   25.7450   45.5870 C   0  0  0  0  0  0  0  0  0  0  0  0
   57.8110   24.7620   46.1380 N   0  0  0  0  0  0  0  0  0  0  0  0
   56.9790   24.2240   47.0540 C   0  0  0  0  0  0  0  0  0  0  0  0
   57.3090   23.2500   47.7800 O   0  0  0  0  0  0  0  0  0  0  0  0
   55.7700   24.8170   47.1410 N   0  0  0  0  0  0  0  0  0  0  0  0
   55.8500   25.7870   46.2140 C   0  0  0  0  0  0  0  0  0  0  0  0
   54.8420   26.7150   45.9850 O   0  0  0  0  0  0  0  0  0  0  0  0
   59.4540   28.0690   45.3350 C   0  0  0  0  0  0  0  0  0  0  0  0
   60.2171   27.2964   45.5102 H   0  0  0  0  0  0  0  0  0  0  0  0
   59.5940   29.4240   45.5410 C   0  0  0  0  0  0  0  0  0  0  0  0
   60.8580   30.0770   46.0150 C   0  0  0  0  0  0  0  0  0  0  0  0
   60.8758   30.0862   47.1148 H   0  0  0  0  0  0  0  0  0  0  0  0
   61.7249   29.5139   45.6389 H   0  0  0  0  0  0  0  0  0  0  0  0
   60.9005   31.1098   45.6389 H   0  0  0  0  0  0  0  0  0  0  0  0
   58.4510   30.0780   45.2210 N   0  0  0  0  0  0  0  0  0  0  0  0
   58.2630   31.5380   45.2760 C   0  0  0  0  0  0  0  0  0  0  0  0
   58.8313   32.0067   44.4591 H   0  0  0  0  0  0  0  0  0  0  0  0
   57.1911   31.7617   45.1711 H   0  0  0  0  0  0  0  0  0  0  0  0
   58.7470   32.0860   46.5940 C   0  0  0  0  0  0  0  0  0  0  0  0
   58.5240   31.3750   47.7820 C   0  0  0  0  0  0  0  0  0  0  0  0
   58.0039   30.4063   47.7497 H   0  0  0  0  0  0  0  0  0  0  0  0
   58.9580   31.8890   49.0060 C   0  0  0  0  0  0  0  0  0  0  0  0
   58.7682   31.3261   49.9318 H   0  0  0  0  0  0  0  0  0  0  0  0
   59.6350   33.1190   49.0650 C   0  0  0  0  0  0  0  0  0  0  0  0
   60.0790   33.6550   50.3790 C   0  0  0  0  0  0  0  0  0  0  0  0
   59.2320   34.2410   51.1100 O   0  0  0  0  0  0  0  0  0  0  0  0
   61.4640   33.5720   50.8050 N   0  0  0  0  0  0  0  0  0  0  0  0
   61.5530   34.0350   51.7400 H   0  0  0  0  0  0  0  0  0  0  0  0
   61.8750   32.1500   50.9700 C   0  0  0  0  0  0  0  0  0  0  0  0
   62.4835   32.0619   51.8821 H   0  0  0  0  0  0  0  0  0  0  0  0
   60.9605   31.5422   51.0349 H   0  0  0  0  0  0  0  0  0  0  0  0
   62.6970   31.6340   49.7760 C   0  0  0  0  0  0  0  0  0  0  0  0
   62.9976   30.5950   49.9764 H   0  0  0  0  0  0  0  0  0  0  0  0
   62.0655   31.7042   48.8781 H   0  0  0  0  0  0  0  0  0  0  0  0
   63.9170   32.4460   49.5370 N   0  0  0  0  0  0  0  0  0  0  0  0
   65.1070   31.8160   50.1290 C   0  0  0  0  0  0  0  0  0  0  0  0
   65.0347   31.8543   51.2260 H   0  0  0  0  0  0  0  0  0  0  0  0
   65.1679   30.7675   49.8019 H   0  0  0  0  0  0  0  0  0  0  0  0
   66.0083   32.3551   49.8019 H   0  0  0  0  0  0  0  0  0  0  0  0
   63.7960   33.8520   49.9880 C   0  0  0  0  0  0  0  0  0  0  0  0
   64.1298   33.9235   51.0337 H   0  0  0  0  0  0  0  0  0  0  0  0
   64.4210   34.4817   49.3377 H   0  0  0  0  0  0  0  0  0  0  0  0
   62.3460   34.3420   49.8910 C   0  0  0  0  0  0  0  0  0  0  0  0
   62.3066   35.4067   50.1647 H   0  0  0  0  0  0  0  0  0  0  0  0
   61.9945   34.1973   48.8588 H   0  0  0  0  0  0  0  0  0  0  0  0
   59.8490   33.8350   47.8740 C   0  0  0  0  0  0  0  0  0  0  0  0
   60.3621   34.8075   47.9057 H   0  0  0  0  0  0  0  0  0  0  0  0
   59.4140   33.3190   46.6500 C   0  0  0  0  0  0  0  0  0  0  0  0
   59.5960   33.8838   45.7238 H   0  0  0  0  0  0  0  0  0  0  0  0
  1  2  1  0
  2  3  1  0
  2  4  2  0
  4  5  1  0
  5  6  2  0
  6  7  1  0
  6  8  1  0
  8  9  1  0
  9 10  1  0
 10 11  2  0
 10 12  1  0
 12 13  1  0
 13 14  1  0
  5 15  1  0
 15 16  1  0
 15 17  2  0
 17 18  1  0
 18 19  1  0
 18 20  1  0
 18 21  1  0
 17 22  1  0
 22 23  1  0
 23 24  1  0
 23 25  1  0
 23 26  1  0
 26 27  2  0
 27 28  1  0
 27 29  1  0
 29 30  1  0
 29 31  2  0
 31 32  1  0
 32 33  2  0
 32 34  1  0
 34 35  1  0
 34 36  1  0
 36 37  1  0
 36 38  1  0
 36 39  1  0
 39 40  1  0
 39 41  1  0
 39 42  1  0
 42 43  1  0
 43 44  1  0
 43 45  1  0
 43 46  1  0
 42 47  1  0
 47 48  1  0
 47 49  1  0
 47 50  1  0
 50 51  1  0
 50 52  1  0
 31 53  1  0
 53 54  1  0
 53 55  2  0
 55 56  1  0
 22  4  1  0
 55 26  1  0
 13  8  2  0
 50 34  1  0
M  CHG  4   9  -1  12  -1  14  -1  34   1
M  END
>  <UniqueID>  (12) 
12

>  <SMILES>  (12) 
C=c1/c(=C/c2[n-]c(=O)[n-]c2[O-])cc(C)n1Cc1ccc(C(=O)[NH+]2CCN(C)CC2)cc1

>  <Energy>  (12) 
140.49030333744946

>  <Genealogy>  (12) 
C=c1c(=Cc2[n-]c(=O)[n-]c2[O-])cc(C)n1Cc1ccc(C(=O)[NH+]2CCN(C)CC2)cc1 (protonated)
C=c1/c(=C/c2[n-]c(=O)[n-]c2[O-])cc(C)n1Cc1ccc(C(=O)[NH+]2CCN(C)CC2)cc1 (cis-trans isomerization)
C=c1/c(=C/c2[n-]c(=O)[n-]c2[O-])cc(C)n1Cc1ccc(C(=O)[NH+]2CCN(C)CC2)cc1 (3D coordinates assigned)
C=c1/c(=C/c2[n-]c(=O)[n-]c2[O-])cc(C)n1Cc1ccc(C(=O)[NH+]2CCN(C)CC2)cc1 (nonaromatic ring conformer: 140.49030333744946 kcal/mol)

>  <smiles>  (12) 
C=c1c(=Cc2[nH]c(=O)[nH]c2O)cc(C)n1Cc1ccc(C(=O)N2CCN(C)CC2)cc1

>  <score_type>  (12) 
oracle

>  <origin>  (12) 
adg

>  <m_score__min__energy>  (12) 
-16.100000000000001

>  <m_primary>  (12) 
energy

$$$$
12:0
     RDKit          3D

 52 55  0  0  0  0  0  0  0  0999 V2000
   52.4430   24.0680   44.5470 C   0  0  0  0  0  0  0  0  0  0  0  0
   53.1230   24.4660   45.6210 C   0  0  0  0  0  0  0  0  0  0  0  0
   54.5240   24.9230   45.5640 C   0  0  0  0  0  0  0  0  0  0  0  0
   55.6250   24.2090   45.1100 C   0  0  0  0  0  0  0  0  0  0  0  0
   56.6670   25.0930   45.2720 C   0  0  0  0  0  0  0  0  0  0  0  0
   57.8670   24.8630   44.9660 O   0  0  0  0  0  0  0  0  0  0  0  0
   56.2140   26.2520   45.7910 N   0  0  0  0  0  0  0  0  0  0  0  0
   56.9890   27.4170   46.1270 C   0  0  0  0  0  0  0  0  0  0  0  0
   58.0660   27.3310   47.0190 C   0  0  0  0  0  0  0  0  0  0  0  0
   58.7850   28.4890   47.3120 C   0  0  0  0  0  0  0  0  0  0  0  0
   58.4450   29.6660   46.7260 N   0  0  0  0  0  0  0  0  0  0  0  0
   57.4120   29.7380   45.8460 C   0  0  0  0  0  0  0  0  0  0  0  0
   57.1130   30.8850   45.3080 N   0  0  0  0  0  0  0  0  0  0  0  0
   57.8470   32.1140   45.4550 C   0  0  0  0  0  0  0  0  0  0  0  0
   57.8430   33.0310   44.3980 C   0  0  0  0  0  0  0  0  0  0  0  0
   58.5360   34.2370   44.5090 C   0  0  0  0  0  0  0  0  0  0  0  0
   59.2190   34.5500   45.6860 C   0  0  0  0  0  0  0  0  0  0  0  0
   59.1950   33.6680   46.7800 C   0  0  0  0  0  0  0  0  0  0  0  0
   59.9200   34.0220   48.0280 C   0  0  0  0  0  0  0  0  0  0  0  0
   59.3780   34.8340   48.8310 O   0  0  0  0  0  0  0  0  0  0  0  0
   61.2440   33.5000   48.3160 N   0  0  0  0  0  0  0  0  0  0  0  0
   62.2120   33.8560   47.2460 C   0  0  0  0  0  0  0  0  0  0  0  0
   63.3380   32.8100   47.0700 C   0  0  0  0  0  0  0  0  0  0  0  0
   63.6890   32.1290   48.3310 N   0  0  0  0  0  0  0  0  0  0  0  0
   64.4570   33.0020   49.2330 C   0  0  0  0  0  0  0  0  0  0  0  0
   62.5260   31.4940   49.0000 C   0  0  0  0  0  0  0  0  0  0  0  0
   61.1670   32.0440   48.5250 C   0  0  0  0  0  0  0  0  0  0  0  0
   58.5030   32.4490   46.6550 C   0  0  0  0  0  0  0  0  0  0  0  0
   56.6890   28.6190   45.5680 N   0  0  0  0  0  0  0  0  0  0  0  0
   54.9050   26.1540   45.9680 N   0  0  0  0  0  0  0  0  0  0  0  0
   51.3989   23.7369   44.6486 H   0  0  0  0  0  0  0  0  0  0  0  0
   52.9255   24.0704   43.5585 H   0  0  0  0  0  0  0  0  0  0  0  0
   52.6154   24.4532   46.5968 H   0  0  0  0  0  0  0  0  0  0  0  0
   55.6566   23.1827   44.7154 H   0  0  0  0  0  0  0  0  0  0  0  0
   58.3387   26.3696   47.4787 H   0  0  0  0  0  0  0  0  0  0  0  0
   59.6277   28.4493   48.0179 H   0  0  0  0  0  0  0  0  0  0  0  0
   57.2908   32.8000   43.4751 H   0  0  0  0  0  0  0  0  0  0  0  0
   58.5443   34.9438   43.6662 H   0  0  0  0  0  0  0  0  0  0  0  0
   59.7798   35.4936   45.7575 H   0  0  0  0  0  0  0  0  0  0  0  0
   61.5900   33.9400   49.2000 H   0  0  0  0  0  0  0  0  0  0  0  0
   61.6655   33.9446   46.2955 H   0  0  0  0  0  0  0  0  0  0  0  0
   62.6887   34.8032   47.5385 H   0  0  0  0  0  0  0  0  0  0  0  0
   63.0050   32.0542   46.3435 H   0  0  0  0  0  0  0  0  0  0  0  0
   64.2344   33.3442   46.7219 H   0  0  0  0  0  0  0  0  0  0  0  0
   64.2285   32.7422   50.2772 H   0  0  0  0  0  0  0  0  0  0  0  0
   65.5326   32.8649   49.0480 H   0  0  0  0  0  0  0  0  0  0  0  0
   64.1840   34.0514   49.0480 H   0  0  0  0  0  0  0  0  0  0  0  0
   62.5546   30.4134   48.7962 H   0  0  0  0  0  0  0  0  0  0  0  0
   62.6083   31.7188   50.0736 H   0  0  0  0  0  0  0  0  0  0  0  0
   60.8901   31.5566   47.5785 H   0  0  0  0  0  0  0  0  0  0  0  0
   60.4099   31.8348   49.2951 H   0  0  0  0  0  0  0  0  0  0  0  0
   58.4743   31.7502   47.5041 H   0  0  0  0  0  0  0  0  0  0  0  0
  1  2  2  0
  2  3  1  0
  3  4  2  0
  4  5  1  0
  5  6  2  0
  5  7  1  0
  7  8  1  0
  8  9  1  0
  9 10  2  0
 10 11  1  0
 11 12  1  0
 12 13  2  3
 13 14  1  0
 14 15  2  0
 15 16  1  0
 16 17  2  0
 17 18  1  0
 18 19  1  0
 19 20  2  0
 19 21  1  0
 21 22  1  0
 22 23  1  0
 23 24  1  0
 24 25  1  0
 24 26  1  0
 26 27  1  0
 18 28  2  0
 12 29  1  0
  7 30  1  0
 30  3  1  0
 29  8  2  0
 28 14  1  0
 27 21  1  0
  1 31  1  0
  1 32  1  0
  2 33  1  0
  4 34  1  0
  9 35  1  0
 10 36  1  0
 15 37  1  0
 16 38  1  0
 17 39  1  0
 21 40  1  0
 22 41  1  0
 22 42  1  0
 23 43  1  0
 23 44  1  0
 25 45  1  0
 25 46  1  0
 25 47  1  0
 26 48  1  0
 26 49  1  0
 27 50  1  0
 27 51  1  0
 28 52  1  0
M  CHG  3  11  -1  21   1  30  -1
M  END
>  <UniqueID>  (13) 
13

>  <SMILES>  (13) 
C=Cc1cc(=O)n(-c2cc[n-]c(=Nc3cccc(C(=O)[NH+]4CCN(C)CC4)c3)n2)[n-]1

>  <Energy>  (13) 
109.81033210925644

>  <Genealogy>  (13) 
C=Cc1cc(=O)n(-c2cc[n-]c(=Nc3cccc(C(=O)[NH+]4CCN(C)CC4)c3)n2)[n-]1 (protonated)
C=Cc1cc(=O)n(-c2cc[n-]c(=Nc3cccc(C(=O)[NH+]4CCN(C)CC4)c3)n2)[n-]1 (3D coordinates assigned)
C=Cc1cc(=O)n(-c2cc[n-]c(=Nc3cccc(C(=O)[NH+]4CCN(C)CC4)c3)n2)[n-]1 (nonaromatic ring conformer: 109.81033210925644 kcal/mol)

>  <smiles>  (13) 
C=Cc1cc(=O)n(-c2cc[nH]c(=Nc3cccc(C(=O)N4CCN(C)CC4)c3)n2)[nH]1

>  <score_type>  (13) 
oracle

>  <origin>  (13) 
adg

>  <m_score__min__energy>  (13) 
-11.75

>  <m_primary>  (13) 
energy

$$$$
13:0
     RDKit          3D

 41 43  0  0  0  0  0  0  0  0999 V2000
   55.0750   26.3550   45.9760 N   0  0  0  0  0  0  0  0  0  0  0  0
   56.1720   25.4960   46.2770 C   0  0  0  0  0  0  0  0  0  0  0  0
   56.0080   24.2460   46.2730 O   0  0  0  0  0  0  0  0  0  0  0  0
   57.4880   26.0590   46.6020 C   0  0  0  0  0  0  0  0  0  0  0  0
   57.7220   27.3010   47.1890 C   0  0  0  0  0  0  0  0  0  0  0  0
   59.0870   27.5570   47.3870 C   0  0  0  0  0  0  0  0  0  0  0  0
   59.6970   29.0500   48.0850 S   0  0  0  0  0  0  0  0  0  0  0  0
   60.9810   29.4270   47.4010 O   0  0  0  0  0  0  0  0  0  0  0  0
   59.9710   28.8640   49.5540 O   0  0  0  0  0  0  0  0  0  0  0  0
   58.5330   30.3190   47.8730 N   0  0  0  0  0  0  0  0  0  0  0  0
   58.8910   31.6290   47.3980 C   0  0  0  0  0  0  0  0  0  0  0  0
   59.6760   32.4810   48.1970 C   0  0  0  0  0  0  0  0  0  0  0  0
   60.0000   33.7670   47.7640 C   0  0  0  0  0  0  0  0  0  0  0  0
   59.5500   34.2220   46.5230 C   0  0  0  0  0  0  0  0  0  0  0  0
   59.9730   35.8320   45.9730 Cl  0  0  0  0  0  0  0  0  0  0  0  0
   58.7660   33.3900   45.7160 C   0  0  0  0  0  0  0  0  0  0  0  0
   58.4180   32.0990   46.1470 C   0  0  0  0  0  0  0  0  0  0  0  0
   57.6390   31.2270   45.2380 C   0  0  0  0  0  0  0  0  0  0  0  0
   56.5170   31.6260   44.8170 O   0  0  0  0  0  0  0  0  0  0  0  0
   58.1240   29.9320   44.8350 N   0  0  0  0  0  0  0  0  0  0  0  0
   59.5120   29.5020   44.9340 C   0  0  0  0  0  0  0  0  0  0  0  0
   59.6080   28.2320   44.0970 C   0  0  0  0  0  0  0  0  0  0  0  0
   58.1720   27.7400   43.9290 C   0  0  0  0  0  0  0  0  0  0  0  0
   57.2880   28.9610   44.1460 C   0  0  0  0  0  0  0  0  0  0  0  0
   59.9280   26.5290   46.9580 C   0  0  0  0  0  0  0  0  0  0  0  0
   58.9680   25.2940   46.3350 S   0  0  0  0  0  0  0  0  0  0  0  0
   55.1510   27.0780   45.2220 H   0  0  0  0  0  0  0  0  0  0  0  0
   56.9232   28.0043   47.4669 H   0  0  0  0  0  0  0  0  0  0  0  0
   57.5290   30.0720   48.0060 H   0  0  0  0  0  0  0  0  0  0  0  0
   60.0383   32.1289   49.1741 H   0  0  0  0  0  0  0  0  0  0  0  0
   60.6108   34.4235   48.4011 H   0  0  0  0  0  0  0  0  0  0  0  0
   58.4193   33.7498   44.7360 H   0  0  0  0  0  0  0  0  0  0  0  0
   60.1834   30.2766   44.5349 H   0  0  0  0  0  0  0  0  0  0  0  0
   59.8099   29.3251   45.9780 H   0  0  0  0  0  0  0  0  0  0  0  0
   60.0557   28.4515   43.1165 H   0  0  0  0  0  0  0  0  0  0  0  0
   60.2436   27.4745   44.5790 H   0  0  0  0  0  0  0  0  0  0  0  0
   58.0221   27.3332   42.9180 H   0  0  0  0  0  0  0  0  0  0  0  0
   57.9335   26.9355   44.6402 H   0  0  0  0  0  0  0  0  0  0  0  0
   56.9467   29.3642   43.1812 H   0  0  0  0  0  0  0  0  0  0  0  0
   56.3878   28.7135   44.7278 H   0  0  0  0  0  0  0  0  0  0  0  0
   61.0264   26.5262   47.0167 H   0  0  0  0  0  0  0  0  0  0  0  0
  1  2  1  0
  2  3  2  0
  2  4  1  0
  4  5  2  0
  5  6  1  0
  6  7  1  0
  7  8  2  0
  7  9  2  0
  7 10  1  0
 10 11  1  0
 11 12  2  0
 12 13  1  0
 13 14  2  0
 14 15  1  0
 14 16  1  0
 16 17  2  0
 17 18  1  0
 18 19  2  0
 18 20  1  0
 20 21  1  0
 21 22  1  0
 22 23  1  0
 23 24  1  0
  6 25  2  0
 25 26  1  0
 26  4  1  0
 17 11  1  0
 24 20  1  0
  1 27  1  0
  5 28  1  0
 10 29  1  0
 12 30  1  0
 13 31  1  0
 16 32  1  0
 21 33  1  0
 21 34  1  0
 22 35  1  0
 22 36  1  0
 23 37  1  0
 23 38  1  0
 24 39  1  0
 24 40  1  0
 25 41  1  0
M  CHG  1   1  -1
M  END
>  <UniqueID>  (14) 
14

>  <SMILES>  (14) 
[NH-]C(=O)c1cc(S(=O)(=O)Nc2ccc(Cl)cc2C(=O)N2CCCC2)cs1

>  <Energy>  (14) 
75.64748112232378

>  <Genealogy>  (14) 
[NH-]C(=O)c1cc(S(=O)(=O)Nc2ccc(Cl)cc2C(=O)N2CCCC2)cs1 (protonated)
[NH-]C(=O)c1cc(S(=O)(=O)Nc2ccc(Cl)cc2C(=O)N2CCCC2)cs1 (3D coordinates assigned)
[NH-]C(=O)c1cc(S(=O)(=O)Nc2ccc(Cl)cc2C(=O)N2CCCC2)cs1 (nonaromatic ring conformer: 75.64748112232378 kcal/mol)

>  <smiles>  (14) 
NC(=O)c1cc(S(=O)(=O)Nc2ccc(Cl)cc2C(=O)N2CCCC2)cs1

>  <score_type>  (14) 
oracle

>  <origin>  (14) 
adg

>  <m_score__min__energy>  (14) 
-12.449999999999999

>  <m_primary>  (14) 
energy

$$$$
14:0
     RDKit          3D

 62 65  0  0  0  0  0  0  0  0999 V2000
   57.7080   25.6500   43.2260 C   0  0  0  0  0  0  0  0  0  0  0  0
   58.2910   26.9250   43.8270 C   0  0  0  0  0  0  0  0  0  0  0  0
   57.6870   27.1960   45.1400 N   0  0  0  0  0  0  0  0  0  0  0  0
   57.7520   28.5050   45.7560 C   0  0  0  0  0  0  0  0  0  0  0  0
   57.9000   28.6090   47.0040 O   0  0  0  0  0  0  0  0  0  0  0  0
   57.6500   29.7450   44.9690 C   0  0  0  0  0  0  0  0  0  0  0  0
   57.1550   29.7160   43.6550 C   0  0  0  0  0  0  0  0  0  0  0  0
   57.0360   30.9030   42.9270 C   0  0  0  0  0  0  0  0  0  0  0  0
   57.3980   32.1230   43.5080 C   0  0  0  0  0  0  0  0  0  0  0  0
   57.8780   32.1620   44.8260 C   0  0  0  0  0  0  0  0  0  0  0  0
   58.3410   33.6960   45.5610 S   0  0  0  0  0  0  0  0  0  0  0  0
   58.6450   34.6960   44.4810 O   0  0  0  0  0  0  0  0  0  0  0  0
   57.1880   34.2210   46.3710 O   0  0  0  0  0  0  0  0  0  0  0  0
   59.7340   33.5160   46.5960 N   0  0  0  0  0  0  0  0  0  0  0  0
   59.4230   33.9910   47.9590 C   0  0  0  0  0  0  0  0  0  0  0  0
   60.6900   34.2590   48.8000 C   0  0  0  0  0  0  0  0  0  0  0  0
   61.8610   33.5980   48.2100 N   0  0  0  0  0  0  0  0  0  0  0  0
   62.7620   32.8230   49.0260 C   0  0  0  0  0  0  0  0  0  0  0  0
   62.2710   31.8000   49.8530 C   0  0  0  0  0  0  0  0  0  0  0  0
   63.1410   31.0660   50.6640 C   0  0  0  0  0  0  0  0  0  0  0  0
   64.5130   31.3640   50.6790 C   0  0  0  0  0  0  0  0  0  0  0  0
   65.4350   30.6200   51.4860 N   0  0  0  0  0  0  0  0  0  0  0  0
   66.8230   30.3880   51.2090 C   0  0  0  0  0  0  0  0  0  0  0  0
   67.4160   29.0110   51.1990 C   0  0  0  0  0  0  0  0  0  0  0  0
   67.5760   31.3750   51.0050 O   0  0  0  0  0  0  0  0  0  0  0  0
   65.0060   32.3680   49.8390 C   0  0  0  0  0  0  0  0  0  0  0  0
   64.1380   33.0980   49.0250 C   0  0  0  0  0  0  0  0  0  0  0  0
   62.1530   33.8020   46.7860 C   0  0  0  0  0  0  0  0  0  0  0  0
   60.8910   34.2240   46.0300 C   0  0  0  0  0  0  0  0  0  0  0  0
   57.9930   30.9710   45.5560 C   0  0  0  0  0  0  0  0  0  0  0  0
   57.1810   26.0800   45.8950 C   0  0  0  0  0  0  0  0  0  0  0  0
   57.9270   25.0550   46.4300 C   0  0  0  0  0  0  0  0  0  0  0  0
   57.0140   24.2660   47.1020 C   0  0  0  0  0  0  0  0  0  0  0  0
   57.3370   23.1040   47.7900 O   0  0  0  0  0  0  0  0  0  0  0  0
   55.7580   24.7500   47.0250 N   0  0  0  0  0  0  0  0  0  0  0  0
   55.8740   25.8710   46.2860 C   0  0  0  0  0  0  0  0  0  0  0  0
   54.8040   26.7070   45.9940 O   0  0  0  0  0  0  0  0  0  0  0  0
   57.3979   24.9719   44.0347 H   0  0  0  0  0  0  0  0  0  0  0  0
   56.8360   25.9028   42.6049 H   0  0  0  0  0  0  0  0  0  0  0  0
   58.4696   25.1558   42.6049 H   0  0  0  0  0  0  0  0  0  0  0  0
   59.3780   26.8054   43.9459 H   0  0  0  0  0  0  0  0  0  0  0  0
   58.0746   27.7678   43.1541 H   0  0  0  0  0  0  0  0  0  0  0  0
   56.8610   28.7592   43.1989 H   0  0  0  0  0  0  0  0  0  0  0  0
   56.6568   30.8779   41.8947 H   0  0  0  0  0  0  0  0  0  0  0  0
   57.3061   33.0544   42.9300 H   0  0  0  0  0  0  0  0  0  0  0  0
   58.8468   34.9249   47.8833 H   0  0  0  0  0  0  0  0  0  0  0  0
   58.8501   33.1994   48.4642 H   0  0  0  0  0  0  0  0  0  0  0  0
   60.8716   35.3431   48.8419 H   0  0  0  0  0  0  0  0  0  0  0  0
   60.5319   33.8561   49.8113 H   0  0  0  0  0  0  0  0  0  0  0  0
   61.1944   31.5747   49.8627 H   0  0  0  0  0  0  0  0  0  0  0  0
   62.7497   30.2524   51.2924 H   0  0  0  0  0  0  0  0  0  0  0  0
   67.5638   28.6679   52.2336 H   0  0  0  0  0  0  0  0  0  0  0  0
   66.7348   28.3222   50.6780 H   0  0  0  0  0  0  0  0  0  0  0  0
   68.3846   29.0327   50.6780 H   0  0  0  0  0  0  0  0  0  0  0  0
   66.0845   32.5837   49.8197 H   0  0  0  0  0  0  0  0  0  0  0  0
   64.5354   33.8942   48.3784 H   0  0  0  0  0  0  0  0  0  0  0  0
   62.9156   34.5880   46.6828 H   0  0  0  0  0  0  0  0  0  0  0  0
   62.5200   32.8560   46.3612 H   0  0  0  0  0  0  0  0  0  0  0  0
   60.7454   35.3095   46.1327 H   0  0  0  0  0  0  0  0  0  0  0  0
   60.9951   33.9726   44.9642 H   0  0  0  0  0  0  0  0  0  0  0  0
   58.3542   30.9984   46.5946 H   0  0  0  0  0  0  0  0  0  0  0  0
   59.0122   24.8984   46.3419 H   0  0  0  0  0  0  0  0  0  0  0  0
  1  2  1  0
  2  3  1  0
  3  4  1  0
  4  5  2  0
  4  6  1  0
  6  7  2  0
  7  8  1  0
  8  9  2  0
  9 10  1  0
 10 11  1  0
 11 12  2  0
 11 13  2  0
 11 14  1  0
 14 15  1  0
 15 16  1  0
 16 17  1  0
 17 18  1  0
 18 19  2  0
 19 20  1  0
 20 21  2  0
 21 22  1  0
 22 23  1  0
 23 24  1  0
 23 25  2  0
 21 26  1  0
 26 27  2  0
 17 28  1  0
 28 29  1  0
 10 30  2  0
  3 31  1  0
 31 32  1  0
 32 33  2  0
 33 34  1  0
 33 35  1  0
 35 36  1  0
 36 37  1  0
 30  6  1  0
 36 31  2  0
 29 14  1  0
 27 18  1  0
  1 38  1  0
  1 39  1  0
  1 40  1  0
  2 41  1  0
  2 42  1  0
  7 43  1  0
  8 44  1  0
  9 45  1  0
 15 46  1  0
 15 47  1  0
 16 48  1  0
 16 49  1  0
 19 50  1  0
 20 51  1  0
 24 52  1  0
 24 53  1  0
 24 54  1  0
 26 55  1  0
 27 56  1  0
 28 57  1  0
 28 58  1  0
 29 59  1  0
 29 60  1  0
 30 61  1  0
 32 62  1  0
M  CHG  4  22  -1  34  -1  35  -1  37  -1
M  END
>  <UniqueID>  (15) 
15

>  <SMILES>  (15) 
CCN(C(=O)c1cccc(S(=O)(=O)N2CCN(c3ccc([N-]C(C)=O)cc3)CC2)c1)c1cc([O-])[n-]c1[O-]

>  <Energy>  (15) 
112.33336186318544

>  <Genealogy>  (15) 
CCN(C(=O)c1cccc(S(=O)(=O)N2CCN(c3ccc([N-]C(C)=O)cc3)CC2)c1)c1cc([O-])[n-]c1[O-] (protonated)
CCN(C(=O)c1cccc(S(=O)(=O)N2CCN(c3ccc([N-]C(C)=O)cc3)CC2)c1)c1cc([O-])[n-]c1[O-] (3D coordinates assigned)
CCN(C(=O)c1cccc(S(=O)(=O)N2CCN(c3ccc([N-]C(C)=O)cc3)CC2)c1)c1cc([O-])[n-]c1[O-] (nonaromatic ring conformer: 112.33336186318544 kcal/mol)

>  <smiles>  (15) 
CCN(C(=O)c1cccc(S(=O)(=O)N2CCN(c3ccc(NC(C)=O)cc3)CC2)c1)c1cc(O)[nH]c1O

>  <score_type>  (15) 
oracle

>  <origin>  (15) 
adg

>  <m_score__min__energy>  (15) 
-18.739999999999998

>  <m_primary>  (15) 
energy

$$$$
15:0
     RDKit          3D

 67 70  0  0  0  0  0  0  0  0999 V2000
   60.9100   31.0320   46.7840 C   0  0  0  0  0  0  0  0  0  0  0  0
   60.3450   32.2030   46.4430 C   0  0  0  0  0  0  0  0  0  0  0  0
   60.9730   33.4600   46.3650 C   0  0  0  0  0  0  0  0  0  0  0  0
   62.2230   33.8530   46.6770 C   0  0  0  0  0  0  0  0  0  0  0  0
   62.9370   33.5160   47.9150 C   0  0  0  0  0  0  0  0  0  0  0  0
   64.1040   32.8270   47.9140 N   0  0  0  0  0  0  0  0  0  0  0  0
   64.3990   32.6780   49.2150 C   0  0  0  0  0  0  0  0  0  0  0  0
   65.4850   32.0070   49.7740 C   0  0  0  0  0  0  0  0  0  0  0  0
   65.5720   31.9620   51.1770 C   0  0  0  0  0  0  0  0  0  0  0  0
   64.5790   32.5730   51.9740 C   0  0  0  0  0  0  0  0  0  0  0  0
   63.4900   33.2410   51.3770 C   0  0  0  0  0  0  0  0  0  0  0  0
   63.4360   33.2770   49.9800 C   0  0  0  0  0  0  0  0  0  0  0  0
   62.5090   33.8350   49.1710 N   0  0  0  0  0  0  0  0  0  0  0  0
   61.3070   34.5900   49.5470 C   0  0  0  0  0  0  0  0  0  0  0  0
   60.0640   33.7480   49.4010 C   0  0  0  0  0  0  0  0  0  0  0  0
   59.1730   34.1260   48.5950 O   0  0  0  0  0  0  0  0  0  0  0  0
   59.8710   32.5260   50.1490 N   0  0  0  0  0  0  0  0  0  0  0  0
   60.6100   32.2810   51.3920 C   0  0  0  0  0  0  0  0  0  0  0  0
   59.8250   31.3580   52.3320 C   0  0  0  0  0  0  0  0  0  0  0  0
   59.3150   30.1510   51.6530 N   0  0  0  0  0  0  0  0  0  0  0  0
   60.3810   29.1820   51.3440 C   0  0  0  0  0  0  0  0  0  0  0  0
   58.4990   30.4950   50.4720 C   0  0  0  0  0  0  0  0  0  0  0  0
   59.2520   31.3800   49.4710 C   0  0  0  0  0  0  0  0  0  0  0  0
   60.0210   34.3360   45.8740 C   0  0  0  0  0  0  0  0  0  0  0  0
   58.8590   33.6170   45.7020 C   0  0  0  0  0  0  0  0  0  0  0  0
   57.5820   34.1950   45.1690 C   0  0  0  0  0  0  0  0  0  0  0  0
   59.0470   32.3200   46.0430 N   0  0  0  0  0  0  0  0  0  0  0  0
   58.0270   31.2580   45.9950 C   0  0  0  0  0  0  0  0  0  0  0  0
   57.4490   31.1190   44.5800 C   0  0  0  0  0  0  0  0  0  0  0  0
   56.3510   30.1260   44.5620 N   0  0  0  0  0  0  0  0  0  0  0  0
   56.7590   28.8840   45.2390 C   0  0  0  0  0  0  0  0  0  0  0  0
   55.9360   29.8240   43.1810 C   0  0  0  0  0  0  0  0  0  0  0  0
   60.3035   30.1146   46.8064 H   0  0  0  0  0  0  0  0  0  0  0  0
   61.9788   30.9911   47.0407 H   0  0  0  0  0  0  0  0  0  0  0  0
   62.7529   34.4783   45.9434 H   0  0  0  0  0  0  0  0  0  0  0  0
   64.6350   32.4670   47.0900 H   0  0  0  0  0  0  0  0  0  0  0  0
   66.2470   31.5296   49.1405 H   0  0  0  0  0  0  0  0  0  0  0  0
   66.4182   31.4480   51.6563 H   0  0  0  0  0  0  0  0  0  0  0  0
   64.6558   32.5274   53.0704 H   0  0  0  0  0  0  0  0  0  0  0  0
   62.7099   33.7173   51.9890 H   0  0  0  0  0  0  0  0  0  0  0  0
   61.3999   34.9135   50.5942 H   0  0  0  0  0  0  0  0  0  0  0  0
   61.2189   35.4588   48.8781 H   0  0  0  0  0  0  0  0  0  0  0  0
   61.5739   31.8099   51.1493 H   0  0  0  0  0  0  0  0  0  0  0  0
   60.7656   33.2442   51.9000 H   0  0  0  0  0  0  0  0  0  0  0  0
   60.4877   31.0461   53.1527 H   0  0  0  0  0  0  0  0  0  0  0  0
   58.9562   31.9225   52.7015 H   0  0  0  0  0  0  0  0  0  0  0  0
   60.8072   28.7946   52.2811 H   0  0  0  0  0  0  0  0  0  0  0  0
   59.9617   28.3494   50.7601 H   0  0  0  0  0  0  0  0  0  0  0  0
   61.1699   29.6786   50.7601 H   0  0  0  0  0  0  0  0  0  0  0  0
   58.2025   29.5645   49.9658 H   0  0  0  0  0  0  0  0  0  0  0  0
   57.6249   31.0617   50.8252 H   0  0  0  0  0  0  0  0  0  0  0  0
   60.0365   30.7839   48.9819 H   0  0  0  0  0  0  0  0  0  0  0  0
   58.5358   31.7566   48.7259 H   0  0  0  0  0  0  0  0  0  0  0  0
   60.1652   35.4055   45.6611 H   0  0  0  0  0  0  0  0  0  0  0  0
   56.9340   34.4883   46.0081 H   0  0  0  0  0  0  0  0  0  0  0  0
   57.8080   35.0786   44.5540 H   0  0  0  0  0  0  0  0  0  0  0  0
   57.0673   33.4421   44.5540 H   0  0  0  0  0  0  0  0  0  0  0  0
   58.4862   30.3036   46.2921 H   0  0  0  0  0  0  0  0  0  0  0  0
   57.2112   31.5221   46.6840 H   0  0  0  0  0  0  0  0  0  0  0  0
   57.0604   32.0939   44.2506 H   0  0  0  0  0  0  0  0  0  0  0  0
   58.2462   30.7792   43.9026 H   0  0  0  0  0  0  0  0  0  0  0  0
   56.7118   29.0278   46.3285 H   0  0  0  0  0  0  0  0  0  0  0  0
   56.0818   28.0678   44.9471 H   0  0  0  0  0  0  0  0  0  0  0  0
   57.7883   28.6284   44.9471 H   0  0  0  0  0  0  0  0  0  0  0  0
   55.0467   29.1768   43.1986 H   0  0  0  0  0  0  0  0  0  0  0  0
   55.6973   30.7611   42.6567 H   0  0  0  0  0  0  0  0  0  0  0  0
   56.7542   29.3086   42.6567 H   0  0  0  0  0  0  0  0  0  0  0  0
  1  2  2  0
  2  3  1  0
  3  4  2  3
  4  5  1  0
  5  6  2  0
  6  7  1  0
  7  8  2  0
  8  9  1  0
  9 10  2  0
 10 11  1  0
 11 12  2  0
 12 13  1  0
 13 14  1  0
 14 15  1  0
 15 16  2  0
 15 17  1  0
 17 18  1  0
 18 19  1  0
 19 20  1  0
 20 21  1  0
 20 22  1  0
 22 23  1  0
  3 24  1  0
 24 25  2  0
 25 26  1  0
 25 27  1  0
 27 28  1  0
 28 29  1  0
 29 30  1  0
 30 31  1  0
 30 32  1  0
 27  2  1  0
 13  5  1  0
 23 17  1  0
 12  7  1  0
  1 33  1  0
  1 34  1  0
  4 35  1  0
  6 36  1  0
  8 37  1  0
  9 38  1  0
 10 39  1  0
 11 40  1  0
 14 41  1  0
 14 42  1  0
 18 43  1  0
 18 44  1  0
 19 45  1  0
 19 46  1  0
 21 47  1  0
 21 48  1  0
 21 49  1  0
 22 50  1  0
 22 51  1  0
 23 52  1  0
 23 53  1  0
 24 54  1  0
 26 55  1  0
 26 56  1  0
 26 57  1  0
 28 58  1  0
 28 59  1  0
 29 60  1  0
 29 61  1  0
 31 62  1  0
 31 63  1  0
 31 64  1  0
 32 65  1  0
 32 66  1  0
 32 67  1  0
M  CHG  1   6   1
M  END
>  <UniqueID>  (16) 
16

>  <SMILES>  (16) 
C=c1c(=Cc2[nH+]c3ccccc3n2CC(=O)N2CCN(C)CC2)cc(C)n1CCN(C)C

>  <Energy>  (16) 
148.6380394182066

>  <Genealogy>  (16) 
C=c1c(=Cc2[nH+]c3ccccc3n2CC(=O)N2CCN(C)CC2)cc(C)n1CCN(C)C (protonated)
C=c1c(=Cc2[nH+]c3ccccc3n2CC(=O)N2CCN(C)CC2)cc(C)n1CCN(C)C (3D coordinates assigned)
C=c1c(=Cc2[nH+]c3ccccc3n2CC(=O)N2CCN(C)CC2)cc(C)n1CCN(C)C (nonaromatic ring conformer: 148.6380394182066 kcal/mol)

>  <smiles>  (16) 
C=c1c(=Cc2nc3ccccc3n2CC(=O)N2CCN(C)CC2)cc(C)n1CCN(C)C

>  <score_type>  (16) 
oracle

>  <origin>  (16) 
adg

>  <m_score__min__energy>  (16) 
-7.4699999999999998

>  <m_primary>  (16) 
energy

$$$$
16:0
     RDKit          3D

 52 55  0  0  0  0  0  0  0  0999 V2000
   64.8470   35.5860   52.3790 C   0  0  0  0  0  0  0  0  0  0  0  0
   64.2710   34.5320   51.8010 C   0  0  0  0  0  0  0  0  0  0  0  0
   63.1840   34.6870   50.7680 C   0  0  0  0  0  0  0  0  0  0  0  0
   62.5760   33.3900   50.3920 N   0  0  1  0  0  0  0  0  0  0  0  0
   61.1290   33.4560   50.5010 C   0  0  0  0  0  0  0  0  0  0  0  0
   60.5740   33.2350   51.6130 O   0  0  0  0  0  0  0  0  0  0  0  0
   60.2860   33.8360   49.3480 C   0  0  0  0  0  0  0  0  0  0  0  0
   60.7830   33.8380   48.1070 C   0  0  0  0  0  0  0  0  0  0  0  0
   59.9260   34.1960   46.9660 C   0  0  0  0  0  0  0  0  0  0  0  0
   59.8570   35.4040   46.6130 O   0  0  0  0  0  0  0  0  0  0  0  0
   59.1830   33.1850   46.2530 N   0  0  0  0  0  0  0  0  0  0  0  0
   59.5860   31.7740   46.3520 C   0  0  0  0  0  0  0  0  0  0  0  0
   58.9520   30.9420   45.2360 C   0  0  0  0  0  0  0  0  0  0  0  0
   57.4880   31.1300   45.2250 N   0  0  0  0  0  0  0  0  0  0  0  0
   56.7920   30.2700   44.2370 C   0  0  0  0  0  0  0  0  0  0  0  0
   57.0390   28.7870   44.4390 C   0  0  0  0  0  0  0  0  0  0  0  0
   57.8410   28.0610   43.5220 C   0  0  0  0  0  0  0  0  0  0  0  0
   58.0900   26.6910   43.7150 C   0  0  0  0  0  0  0  0  0  0  0  0
   57.5150   26.0760   44.8220 C   0  0  0  0  0  0  0  0  0  0  0  0
   56.7250   26.7550   45.6900 C   0  0  0  0  0  0  0  0  0  0  0  0
   56.4490   28.1090   45.5310 C   0  0  0  0  0  0  0  0  0  0  0  0
   56.2900   25.8990   46.6850 O   0  0  0  0  0  0  0  0  0  0  0  0
   56.8560   24.6060   46.4330 C   0  0  0  0  0  0  0  0  0  0  0  0
   57.6200   24.7600   45.2270 O   0  0  0  0  0  0  0  0  0  0  0  0
   57.0240   32.5410   45.2480 C   0  0  0  0  0  0  0  0  0  0  0  0
   58.1640   33.5710   45.2700 C   0  0  0  0  0  0  0  0  0  0  0  0
   62.1690   33.4010   47.8840 C   0  0  0  0  0  0  0  0  0  0  0  0
   62.6290   33.2910   46.7130 O   0  0  0  0  0  0  0  0  0  0  0  0
   62.9980   33.0450   49.0480 C   0  0  0  0  0  0  0  0  0  0  0  0
   64.1110   32.4780   48.8660 O   0  0  0  0  0  0  0  0  0  0  0  0
   65.6376   35.4380   53.1294 H   0  0  0  0  0  0  0  0  0  0  0  0
   64.5317   36.6038   52.1056 H   0  0  0  0  0  0  0  0  0  0  0  0
   64.5979   33.5210   52.0857 H   0  0  0  0  0  0  0  0  0  0  0  0
   62.3989   35.3405   51.1761 H   0  0  0  0  0  0  0  0  0  0  0  0
   63.6381   35.1200   49.8645 H   0  0  0  0  0  0  0  0  0  0  0  0
   62.9210   32.6340   51.0350 H   0  0  0  0  0  0  0  0  0  0  0  0
   59.2364   34.1208   49.5131 H   0  0  0  0  0  0  0  0  0  0  0  0
   60.6811   31.7065   46.2729 H   0  0  0  0  0  0  0  0  0  0  0  0
   59.2439   31.3795   47.3201 H   0  0  0  0  0  0  0  0  0  0  0  0
   59.3658   31.2590   44.2673 H   0  0  0  0  0  0  0  0  0  0  0  0
   59.1748   29.8792   45.4115 H   0  0  0  0  0  0  0  0  0  0  0  0
   55.7107   30.4559   44.3155 H   0  0  0  0  0  0  0  0  0  0  0  0
   57.1916   30.5306   43.2458 H   0  0  0  0  0  0  0  0  0  0  0  0
   58.2727   28.5752   42.6507 H   0  0  0  0  0  0  0  0  0  0  0  0
   58.7192   26.1238   43.0133 H   0  0  0  0  0  0  0  0  0  0  0  0
   55.7900   28.6379   46.2352 H   0  0  0  0  0  0  0  0  0  0  0  0
   57.5065   24.3004   47.2657 H   0  0  0  0  0  0  0  0  0  0  0  0
   56.0827   23.8300   46.3344 H   0  0  0  0  0  0  0  0  0  0  0  0
   56.4133   32.7194   44.3507 H   0  0  0  0  0  0  0  0  0  0  0  0
   56.4548   32.6748   46.1797 H   0  0  0  0  0  0  0  0  0  0  0  0
   58.6243   33.6236   44.2723 H   0  0  0  0  0  0  0  0  0  0  0  0
   57.7529   34.5525   45.5487 H   0  0  0  0  0  0  0  0  0  0  0  0
  1  2  2  0
  2  3  1  0
  3  4  1  0
  4  5  1  0
  5  6  2  0
  5  7  1  0
  7  8  2  0
  8  9  1  0
  9 10  2  0
  9 11  1  0
 11 12  1  0
 12 13  1  0
 13 14  1  0
 14 15  1  0
 15 16  1  0
 16 17  2  0
 17 18  1  0
 18 19  2  0
 19 20  1  0
 20 21  2  0
 20 22  1  0
 22 23  1  0
 23 24  1  0
 14 25  1  0
 25 26  1  0
  8 27  1  0
 27 28  2  0
 27 29  1  0
 29 30  2  0
 29  4  1  0
 26 11  1  0
 21 16  1  0
 24 19  1  0
  1 31  1  0
  1 32  1  0
  2 33  1  0
  3 34  1  0
  3 35  1  0
  4 36  1  1
  7 37  1  0
 12 38  1  0
 12 39  1  0
 13 40  1  0
 13 41  1  0
 15 42  1  0
 15 43  1  0
 17 44  1  0
 18 45  1  0
 21 46  1  0
 23 47  1  0
 23 48  1  0
 25 49  1  0
 25 50  1  0
 26 51  1  0
 26 52  1  0
M  CHG  1   4   1
M  END
>  <UniqueID>  (17) 
17

>  <SMILES>  (17) 
C=CC[N@H+]1C(=O)C=C(C(=O)N2CCN(Cc3ccc4c(c3)OCO4)CC2)C(=O)C1=O

>  <Energy>  (17) 
100.43711661550819

>  <Genealogy>  (17) 
C=CC[NH+]1C(=O)C=C(C(=O)N2CCN(Cc3ccc4c(c3)OCO4)CC2)C(=O)C1=O (protonated)
C=CC[N@H+]1C(=O)C=C(C(=O)N2CCN(Cc3ccc4c(c3)OCO4)CC2)C(=O)C1=O (chirality)
C=CC[N@H+]1C(=O)C=C(C(=O)N2CCN(Cc3ccc4c(c3)OCO4)CC2)C(=O)C1=O (3D coordinates assigned)
C=CC[N@H+]1C(=O)C=C(C(=O)N2CCN(Cc3ccc4c(c3)OCO4)CC2)C(=O)C1=O (nonaromatic ring conformer: 100.43711661550819 kcal/mol)

>  <smiles>  (17) 
C=CCN1C(=O)C=C(C(=O)N2CCN(Cc3ccc4c(c3)OCO4)CC2)C(=O)C1=O

>  <score_type>  (17) 
oracle

>  <origin>  (17) 
adg

>  <m_score__min__energy>  (17) 
-7.2300000000000004

>  <m_primary>  (17) 
energy

$$$$
17:0
     RDKit          3D

 43 45  0  0  0  0  0  0  0  0999 V2000
   61.1390   29.4930   45.7000 C   0  0  0  0  0  0  0  0  0  0  0  0
   59.9510   29.1250   45.2080 C   0  0  0  0  0  0  0  0  0  0  0  0
   59.8490   28.2320   44.2000 N   0  0  0  0  0  0  0  0  0  0  0  0
   58.5460   27.9310   44.0570 C   0  0  0  0  0  0  0  0  0  0  0  0
   58.0400   26.9050   43.0930 C   0  0  0  0  0  0  0  0  0  0  0  0
   57.7940   28.6310   44.9830 C   0  0  0  0  0  0  0  0  0  0  0  0
   56.3380   28.5190   45.1830 C   0  0  0  0  0  0  0  0  0  0  0  0
   55.6140   29.5290   44.9910 O   0  0  0  0  0  0  0  0  0  0  0  0
   55.7340   27.2960   45.6240 N   0  0  0  0  0  0  0  0  0  0  0  0
   56.4170   26.2460   46.3770 C   0  0  0  0  0  0  0  0  0  0  0  0
   56.6400   25.0250   45.5230 C   0  0  0  0  0  0  0  0  0  0  0  0
   55.5640   24.4300   44.8450 C   0  0  0  0  0  0  0  0  0  0  0  0
   55.7600   23.2660   44.0940 C   0  0  0  0  0  0  0  0  0  0  0  0
   57.0340   22.6820   44.0140 C   0  0  0  0  0  0  0  0  0  0  0  0
   57.2560   21.4420   43.2000 C   0  0  0  0  0  0  0  0  0  0  0  0
   58.1140   23.2940   44.6640 C   0  0  0  0  0  0  0  0  0  0  0  0
   57.9200   24.4590   45.4110 C   0  0  0  0  0  0  0  0  0  0  0  0
   58.6720   29.4390   45.7000 C   0  0  0  0  0  0  0  0  0  0  0  0
   58.2910   30.2910   46.6750 C   0  0  0  0  0  0  0  0  0  0  0  0
   58.3630   31.7550   46.6130 C   0  0  0  0  0  0  0  0  0  0  0  0
   59.2900   32.7060   47.6470 S   0  0  0  0  0  0  0  0  0  0  0  0
   58.6660   34.1380   47.0270 C   0  0  0  0  0  0  0  0  0  0  0  0
   59.0080   35.2860   47.4110 O   0  0  0  0  0  0  0  0  0  0  0  0
   57.7370   33.9290   46.0690 N   0  0  0  0  0  0  0  0  0  0  0  0
   57.5550   32.6000   45.8510 C   0  0  0  0  0  0  0  0  0  0  0  0
   56.6090   32.1280   44.9450 O   0  0  0  0  0  0  0  0  0  0  0  0
   61.1920   30.2226   46.5215 H   0  0  0  0  0  0  0  0  0  0  0  0
   62.0631   29.0661   45.2831 H   0  0  0  0  0  0  0  0  0  0  0  0
   60.6380   27.7990   43.6690 H   0  0  0  0  0  0  0  0  0  0  0  0
   57.6204   26.0542   43.6498 H   0  0  0  0  0  0  0  0  0  0  0  0
   57.2583   27.3505   42.4602 H   0  0  0  0  0  0  0  0  0  0  0  0
   58.8693   26.5559   42.4602 H   0  0  0  0  0  0  0  0  0  0  0  0
   57.3900   26.6260   46.7219 H   0  0  0  0  0  0  0  0  0  0  0  0
   55.7871   25.9636   47.2334 H   0  0  0  0  0  0  0  0  0  0  0  0
   54.5625   24.8811   44.9046 H   0  0  0  0  0  0  0  0  0  0  0  0
   54.9125   22.8066   43.5642 H   0  0  0  0  0  0  0  0  0  0  0  0
   57.4095   20.5848   43.8721 H   0  0  0  0  0  0  0  0  0  0  0  0
   56.3766   21.2576   42.5655 H   0  0  0  0  0  0  0  0  0  0  0  0
   58.1448   21.5742   42.5655 H   0  0  0  0  0  0  0  0  0  0  0  0
   59.1196   22.8552   44.5859 H   0  0  0  0  0  0  0  0  0  0  0  0
   58.7746   24.9351   45.9139 H   0  0  0  0  0  0  0  0  0  0  0  0
   57.8906   29.8480   47.5988 H   0  0  0  0  0  0  0  0  0  0  0  0
   55.9560   31.4010   45.2100 H   0  0  0  0  0  0  0  0  0  0  0  0
  1  2  2  0
  2  3  1  0
  3  4  1  0
  4  5  1  0
  4  6  2  0
  6  7  1  0
  7  8  2  0
  7  9  1  0
  9 10  1  0
 10 11  1  0
 11 12  2  0
 12 13  1  0
 13 14  2  0
 14 15  1  0
 14 16  1  0
 16 17  2  0
  6 18  1  0
 18 19  2  3
 19 20  1  0
 20 21  1  0
 21 22  1  0
 22 23  2  0
 22 24  1  0
 24 25  1  0
 25 26  1  0
 18  2  1  0
 25 20  2  0
 17 11  1  0
  1 27  1  0
  1 28  1  0
  3 29  1  0
  5 30  1  0
  5 31  1  0
  5 32  1  0
 10 33  1  0
 10 34  1  0
 12 35  1  0
 13 36  1  0
 15 37  1  0
 15 38  1  0
 15 39  1  0
 16 40  1  0
 17 41  1  0
 19 42  1  0
 26 43  1  0
M  CHG  2   9  -1  24  -1
M  END
>  <UniqueID>  (18) 
18

>  <SMILES>  (18) 
C=c1[nH]c(C)c(C(=O)[N-]Cc2ccc(C)cc2)c1=Cc1sc(=O)[n-]c1O

>  <Energy>  (18) 
112.45717535155174

>  <Genealogy>  (18) 
C=c1[nH]c(C)c(C(=O)[N-]Cc2ccc(C)cc2)c1=Cc1sc(=O)[n-]c1O (protonated)
C=c1[nH]c(C)c(C(=O)[N-]Cc2ccc(C)cc2)c1=Cc1sc(=O)[n-]c1O (3D coordinates assigned)
C=c1[nH]c(C)c(C(=O)[N-]Cc2ccc(C)cc2)c1=Cc1sc(=O)[n-]c1O (optimized conformer: 112.45717535155174 kcal/mol)

>  <smiles>  (18) 
C=c1[nH]c(C)c(C(=O)NCc2ccc(C)cc2)c1=Cc1sc(=O)[nH]c1O

>  <score_type>  (18) 
oracle

>  <origin>  (18) 
adg

>  <m_score__min__energy>  (18) 
-12.449999999999999

>  <m_primary>  (18) 
energy

$$$$
18:0
     RDKit          3D

 60 63  0  0  0  0  0  0  0  0999 V2000
   55.6396   28.7586   44.6519 H   0  0  0  0  0  0  0  0  0  0  0  0
   56.4950   29.4200   44.8540 C   0  0  0  0  0  0  0  0  0  0  0  0
   56.4120   30.7400   44.5710 N   0  0  0  0  0  0  0  0  0  0  0  0
   57.4510   31.5820   44.8040 C   0  0  0  0  0  0  0  0  0  0  0  0
   57.3520   32.8510   44.5270 N   0  0  0  0  0  0  0  0  0  0  0  0
   57.0140   33.8950   45.4950 C   0  0  0  0  0  0  0  0  0  0  0  0
   57.0508   34.8760   44.9988 H   0  0  0  0  0  0  0  0  0  0  0  0
   56.0024   33.7086   45.8849 H   0  0  0  0  0  0  0  0  0  0  0  0
   57.9860   33.8800   46.6330 C   0  0  0  0  0  0  0  0  0  0  0  0
   59.0390   34.6580   46.7210 O   0  0  0  0  0  0  0  0  0  0  0  0
   59.7230   34.3990   47.7970 N   0  0  0  0  0  0  0  0  0  0  0  0
   59.0800   33.4010   48.4390 C   0  0  0  0  0  0  0  0  0  0  0  0
   59.5550   32.7670   49.7160 C   0  0  0  0  0  0  0  0  0  0  0  0
   60.5317   32.2948   49.5343 H   0  0  0  0  0  0  0  0  0  0  0  0
   59.7310   33.8310   50.8030 C   0  0  0  0  0  0  0  0  0  0  0  0
   59.6530   33.3594   51.7937 H   0  0  0  0  0  0  0  0  0  0  0  0
   60.7193   34.3024   50.6981 H   0  0  0  0  0  0  0  0  0  0  0  0
   58.9471   34.5955   50.6981 H   0  0  0  0  0  0  0  0  0  0  0  0
   58.5790   31.6780   50.1690 C   0  0  0  0  0  0  0  0  0  0  0  0
   58.5501   31.6457   51.2681 H   0  0  0  0  0  0  0  0  0  0  0  0
   57.5740   31.9023   49.7822 H   0  0  0  0  0  0  0  0  0  0  0  0
   58.9117   30.7035   49.7822 H   0  0  0  0  0  0  0  0  0  0  0  0
   57.9580   33.0360   47.7230 C   0  0  0  0  0  0  0  0  0  0  0  0
   57.2186   32.2581   47.9641 H   0  0  0  0  0  0  0  0  0  0  0  0
   58.6420   31.0690   45.3420 C   0  0  0  0  0  0  0  0  0  0  0  0
   59.6150   31.8510   45.5410 O   0  0  0  0  0  0  0  0  0  0  0  0
   58.7440   29.7290   45.6410 N   0  0  0  0  0  0  0  0  0  0  0  0
   60.0230   29.1780   46.1460 C   0  0  0  0  0  0  0  0  0  0  0  0
   60.7778   29.2242   45.3472 H   0  0  0  0  0  0  0  0  0  0  0  0
   59.8636   28.1349   46.4565 H   0  0  0  0  0  0  0  0  0  0  0  0
   60.5050   29.9690   47.3280 C   0  0  0  0  0  0  0  0  0  0  0  0
   60.1380   29.6340   48.4870 O   0  0  0  0  0  0  0  0  0  0  0  0
   61.4050   31.0700   47.1340 N   0  0  0  0  0  0  0  0  0  0  0  0
   61.6220   31.3570   46.1540 H   0  0  0  0  0  0  0  0  0  0  0  0
   62.2280   31.5890   48.1890 C   0  0  0  0  0  0  0  0  0  0  0  0
   62.3350   30.8950   49.4060 C   0  0  0  0  0  0  0  0  0  0  0  0
   61.7974   29.9451   49.5424 H   0  0  0  0  0  0  0  0  0  0  0  0
   63.1190   31.4030   50.4430 C   0  0  0  0  0  0  0  0  0  0  0  0
   63.2041   30.8484   51.3891 H   0  0  0  0  0  0  0  0  0  0  0  0
   63.7950   32.6130   50.2820 C   0  0  0  0  0  0  0  0  0  0  0  0
   64.4119   33.0110   51.1011 H   0  0  0  0  0  0  0  0  0  0  0  0
   63.6890   33.3190   49.0820 C   0  0  0  0  0  0  0  0  0  0  0  0
   64.2153   34.2778   48.9645 H   0  0  0  0  0  0  0  0  0  0  0  0
   62.9150   32.8140   48.0230 C   0  0  0  0  0  0  0  0  0  0  0  0
   62.8190   33.5890   46.7370 C   0  0  0  0  0  0  0  0  0  0  0  0
   62.6866   34.6576   46.9619 H   0  0  0  0  0  0  0  0  0  0  0  0
   63.7414   33.4484   46.1544 H   0  0  0  0  0  0  0  0  0  0  0  0
   61.9588   33.2276   46.1544 H   0  0  0  0  0  0  0  0  0  0  0  0
   57.6700   28.8970   45.4040 C   0  0  0  0  0  0  0  0  0  0  0  0
   57.7190   27.4460   45.6770 C   0  0  0  0  0  0  0  0  0  0  0  0
   57.7390   26.9810   47.0010 C   0  0  0  0  0  0  0  0  0  0  0  0
   57.7161   27.6982   47.8348 H   0  0  0  0  0  0  0  0  0  0  0  0
   57.7880   25.6080   47.2630 C   0  0  0  0  0  0  0  0  0  0  0  0
   57.7935   25.2464   48.3018 H   0  0  0  0  0  0  0  0  0  0  0  0
   57.8300   24.6950   46.2050 C   0  0  0  0  0  0  0  0  0  0  0  0
   57.8670   23.6153   46.4121 H   0  0  0  0  0  0  0  0  0  0  0  0
   57.8250   25.1530   44.8840 C   0  0  0  0  0  0  0  0  0  0  0  0
   57.8620   24.4336   44.0527 H   0  0  0  0  0  0  0  0  0  0  0  0
   57.7730   26.5250   44.6190 C   0  0  0  0  0  0  0  0  0  0  0  0
   57.7744   26.8834   43.5790 H   0  0  0  0  0  0  0  0  0  0  0  0
  1  2  1  0
  2  3  1  0
  3  4  1  0
  4  5  2  0
  5  6  1  0
  6  7  1  0
  6  8  1  0
  6  9  1  0
  9 10  1  0
 10 11  1  0
 11 12  2  0
 12 13  1  0
 13 14  1  0
 13 15  1  0
 15 16  1  0
 15 17  1  0
 15 18  1  0
 13 19  1  0
 19 20  1  0
 19 21  1  0
 19 22  1  0
 12 23  1  0
 23 24  1  0
  4 25  1  0
 25 26  2  0
 25 27  1  0
 27 28  1  0
 28 29  1  0
 28 30  1  0
 28 31  1  0
 31 32  2  0
 31 33  1  0
 33 34  1  0
 33 35  1  0
 35 36  2  0
 36 37  1  0
 36 38  1  0
 38 39  1  0
 38 40  2  0
 40 41  1  0
 40 42  1  0
 42 43  1  0
 42 44  2  0
 44 45  1  0
 45 46  1  0
 45 47  1  0
 45 48  1  0
 27 49  1  0
 49 50  1  0
 50 51  2  0
 51 52  1  0
 51 53  1  0
 53 54  1  0
 53 55  2  0
 55 56  1  0
 55 57  1  0
 57 58  1  0
 57 59  2  0
 59 60  1  0
 49  2  2  0
 59 50  1  0
 23  9  2  0
 44 35  1  0
M  CHG  1   3  -1
M  END
>  <UniqueID>  (19) 
19

>  <SMILES>  (19) 
Cc1ccccc1NC(=O)Cn1c(-c2ccccc2)c[n-]/c(=N\Cc2cc(C(C)C)no2)c1=O

>  <Energy>  (19) 
102.48362050302113

>  <Genealogy>  (19) 
Cc1ccccc1NC(=O)Cn1c(-c2ccccc2)c[n-]c(=NCc2cc(C(C)C)no2)c1=O (protonated)
Cc1ccccc1NC(=O)Cn1c(-c2ccccc2)c[n-]/c(=N\Cc2cc(C(C)C)no2)c1=O (cis-trans isomerization)
Cc1ccccc1NC(=O)Cn1c(-c2ccccc2)c[n-]/c(=N\Cc2cc(C(C)C)no2)c1=O (3D coordinates assigned)
Cc1ccccc1NC(=O)Cn1c(-c2ccccc2)c[n-]/c(=N\Cc2cc(C(C)C)no2)c1=O (optimized conformer: 102.48362050302113 kcal/mol)

>  <smiles>  (19) 
Cc1ccccc1NC(=O)Cn1c(-c2ccccc2)c[nH]c(=NCc2cc(C(C)C)no2)c1=O

>  <score_type>  (19) 
oracle

>  <origin>  (19) 
adg

>  <m_score__min__energy>  (19) 
-10.4

>  <m_primary>  (19) 
energy

$$$$
19:0
     RDKit          3D

 47 49  0  0  0  0  0  0  0  0999 V2000
   58.0814   27.5619   43.2017 H   0  0  0  0  0  0  0  0  0  0  0  0
   57.7800   27.0230   44.1120 C   0  0  0  0  0  0  0  0  0  0  0  0
   57.2189   26.0802   44.0327 H   0  0  0  0  0  0  0  0  0  0  0  0
   58.0970   27.5160   45.3200 C   0  0  0  0  0  0  0  0  0  0  0  0
   57.7840   26.9460   46.5660 C   0  0  0  0  0  0  0  0  0  0  0  0
   57.2730   25.7420   46.8910 C   0  0  0  0  0  0  0  0  0  0  0  0
   57.5105   25.3508   47.8913 H   0  0  0  0  0  0  0  0  0  0  0  0
   56.4260   24.9040   46.0280 C   0  0  0  0  0  0  0  0  0  0  0  0
   56.7450   23.6570   45.6160 N   0  0  0  0  0  0  0  0  0  0  0  0
   55.6310   23.2370   44.9770 C   0  0  0  0  0  0  0  0  0  0  0  0
   55.5340   22.0960   44.4510 O   0  0  0  0  0  0  0  0  0  0  0  0
   54.6320   24.1450   44.9730 N   0  0  0  0  0  0  0  0  0  0  0  0
   53.2720   23.9770   44.4720 C   0  0  0  0  0  0  0  0  0  0  0  0
   52.5768   23.8911   45.3201 H   0  0  0  0  0  0  0  0  0  0  0  0
   52.9968   24.8480   43.8591 H   0  0  0  0  0  0  0  0  0  0  0  0
   53.2170   23.0652   43.8591 H   0  0  0  0  0  0  0  0  0  0  0  0
   55.1250   25.1800   45.6700 C   0  0  0  0  0  0  0  0  0  0  0  0
   54.4110   26.3300   45.9890 O   0  0  0  0  0  0  0  0  0  0  0  0
   58.1380   27.8830   47.5200 C   0  0  0  0  0  0  0  0  0  0  0  0
   57.9990   27.7943   48.6076 H   0  0  0  0  0  0  0  0  0  0  0  0
   58.6980   28.9490   46.8490 C   0  0  0  0  0  0  0  0  0  0  0  0
   59.3100   30.1400   47.5240 C   0  0  0  0  0  0  0  0  0  0  0  0
   59.2463   30.0160   48.6151 H   0  0  0  0  0  0  0  0  0  0  0  0
   60.3652   30.2283   47.2260 H   0  0  0  0  0  0  0  0  0  0  0  0
   58.7675   31.0493   47.2260 H   0  0  0  0  0  0  0  0  0  0  0  0
   58.6840   28.7310   45.5120 N   0  0  0  0  0  0  0  0  0  0  0  0
   59.1400   29.6930   44.4930 C   0  0  0  0  0  0  0  0  0  0  0  0
   59.7290   30.4814   44.9844 H   0  0  0  0  0  0  0  0  0  0  0  0
   59.7492   29.1503   43.7552 H   0  0  0  0  0  0  0  0  0  0  0  0
   57.9560   30.3400   43.7570 C   0  0  0  0  0  0  0  0  0  0  0  0
   58.3259   31.1967   43.1746 H   0  0  0  0  0  0  0  0  0  0  0  0
   57.5059   29.5776   43.1042 H   0  0  0  0  0  0  0  0  0  0  0  0
   56.8930   30.8220   44.7070 C   0  0  0  0  0  0  0  0  0  0  0  0
   56.1000   29.9820   45.2130 O   0  0  0  0  0  0  0  0  0  0  0  0
   56.6740   32.2160   44.9600 N   0  0  0  0  0  0  0  0  0  0  0  0
   57.6580   33.1460   45.4250 C   0  0  0  0  0  0  0  0  0  0  0  0
   58.2760   34.0480   44.5440 C   0  0  0  0  0  0  0  0  0  0  0  0
   57.9873   34.0635   43.4827 H   0  0  0  0  0  0  0  0  0  0  0  0
   59.2580   34.9270   45.0130 C   0  0  0  0  0  0  0  0  0  0  0  0
   59.7282   35.6439   44.3239 H   0  0  0  0  0  0  0  0  0  0  0  0
   59.6420   34.8950   46.3560 C   0  0  0  0  0  0  0  0  0  0  0  0
   60.4098   35.5911   46.7246 H   0  0  0  0  0  0  0  0  0  0  0  0
   59.0500   33.9770   47.2340 C   0  0  0  0  0  0  0  0  0  0  0  0
   59.4560   33.9340   48.6140 C   0  0  0  0  0  0  0  0  0  0  0  0
   59.7820   33.9000   49.7250 N   0  0  0  0  0  0  0  0  0  0  0  0
   58.0670   33.0960   46.7630 C   0  0  0  0  0  0  0  0  0  0  0  0
   57.6152   32.3626   47.4471 H   0  0  0  0  0  0  0  0  0  0  0  0
  1  2  1  0
  2  3  1  0
  2  4  2  0
  4  5  1  0
  5  6  2  0
  6  7  1  0
  6  8  1  0
  8  9  1  0
  9 10  1  0
 10 11  2  0
 10 12  1  0
 12 13  1  0
 13 14  1  0
 13 15  1  0
 13 16  1  0
 12 17  1  0
 17 18  1  0
  5 19  1  0
 19 20  1  0
 19 21  2  0
 21 22  1  0
 22 23  1  0
 22 24  1  0
 22 25  1  0
 21 26  1  0
 26 27  1  0
 27 28  1  0
 27 29  1  0
 27 30  1  0
 30 31  1  0
 30 32  1  0
 30 33  1  0
 33 34  2  0
 33 35  1  0
 35 36  1  0
 36 37  2  0
 37 38  1  0
 37 39  1  0
 39 40  1  0
 39 41  2  0
 41 42  1  0
 41 43  1  0
 43 44  1  0
 44 45  3  0
 43 46  2  0
 46 47  1  0
 26  4  1  0
 46 36  1  0
 17  8  2  0
M  CHG  3   9  -1  18  -1  35  -1
M  END
>  <UniqueID>  (20) 
20

>  <SMILES>  (20) 
C=c1/c(=C\c2[n-]c(=O)n(C)c2[O-])cc(C)n1CCC(=O)[N-]c1cccc(C#N)c1

>  <Energy>  (20) 
121.75416835612121

>  <Genealogy>  (20) 
C=c1c(=Cc2[n-]c(=O)n(C)c2[O-])cc(C)n1CCC(=O)[N-]c1cccc(C#N)c1 (protonated)
C=c1/c(=C\c2[n-]c(=O)n(C)c2[O-])cc(C)n1CCC(=O)[N-]c1cccc(C#N)c1 (cis-trans isomerization)
C=c1/c(=C\c2[n-]c(=O)n(C)c2[O-])cc(C)n1CCC(=O)[N-]c1cccc(C#N)c1 (3D coordinates assigned)
C=c1/c(=C\c2[n-]c(=O)n(C)c2[O-])cc(C)n1CCC(=O)[N-]c1cccc(C#N)c1 (optimized conformer: 121.75416835612121 kcal/mol)

>  <smiles>  (20) 
C=c1c(=Cc2[nH]c(=O)n(C)c2O)cc(C)n1CCC(=O)Nc1cccc(C#N)c1

>  <score_type>  (20) 
oracle

>  <origin>  (20) 
adg

>  <m_score__min__energy>  (20) 
-15.609999999999999

>  <m_primary>  (20) 
energy

$$$$
20:0
     RDKit          3D

 20 20  0  0  0  0  0  0  0  0999 V2000
   58.2230   33.8420   44.4630 O   0  0  0  0  0  0  0  0  0  0  0  0
   58.2030   32.7130   43.9070 C   0  0  0  0  0  0  0  0  0  0  0  0
   58.2820   32.6330   42.5220 O   0  0  0  0  0  0  0  0  0  0  0  0
   58.0950   31.4870   44.7100 C   0  0  0  0  0  0  0  0  0  0  0  0
   57.7420   31.5710   45.9180 O   0  0  0  0  0  0  0  0  0  0  0  0
   58.3770   30.2030   44.1310 N   0  0  0  0  0  0  0  0  0  0  0  0
   58.2920   28.9850   44.8930 C   0  0  0  0  0  0  0  0  0  0  0  0
   56.9920   28.4970   45.1540 C   0  0  0  0  0  0  0  0  0  0  0  0
   55.5170   29.5630   44.4850 Br  0  0  0  0  0  0  0  0  0  0  0  0
   56.6070   27.3450   45.8560 C   0  0  0  0  0  0  0  0  0  0  0  0
   55.2420   27.0870   45.9610 O   0  0  0  0  0  0  0  0  0  0  0  0
   57.4270   26.4120   46.4790 C   0  0  0  0  0  0  0  0  0  0  0  0
   58.8060   26.3730   46.5580 C   0  0  0  0  0  0  0  0  0  0  0  0
   59.7270   27.2480   46.0150 C   0  0  0  0  0  0  0  0  0  0  0  0
   59.5210   28.4040   45.2660 C   0  0  0  0  0  0  0  0  0  0  0  0
   60.5710   28.9890   44.8800 O   0  0  0  0  0  0  0  0  0  0  0  0
   58.5750   30.1330   43.1070 H   0  0  0  0  0  0  0  0  0  0  0  0
   56.9030   25.5857   46.9815 H   0  0  0  0  0  0  0  0  0  0  0  0
   59.2268   25.5328   47.1298 H   0  0  0  0  0  0  0  0  0  0  0  0
   60.7807   26.9936   46.2022 H   0  0  0  0  0  0  0  0  0  0  0  0
  1  2  2  0
  2  3  1  0
  2  4  1  0
  4  5  2  0
  4  6  1  0
  6  7  1  0
  7  8  2  0
  8  9  1  0
  8 10  1  0
 10 11  1  0
 10 12  2  0
 12 13  1  0
 13 14  2  0
 14 15  1  0
 15 16  2  0
 15  7  1  0
  6 17  1  0
 12 18  1  0
 13 19  1  0
 14 20  1  0
M  CHG  2   3  -1  11  -1
M  END
>  <UniqueID>  (21) 
21

>  <SMILES>  (21) 
O=C([O-])C(=O)Nc1c(Br)c([O-])cccc1=O

>  <Energy>  (21) 
48.01720956631213

>  <Genealogy>  (21) 
O=C([O-])C(=O)Nc1c(Br)c([O-])cccc1=O (protonated)
O=C([O-])C(=O)Nc1c(Br)c([O-])cccc1=O (3D coordinates assigned)
O=C([O-])C(=O)Nc1c(Br)c([O-])cccc1=O (optimized conformer: 48.01720956631213 kcal/mol)

>  <smiles>  (21) 
O=C(O)C(=O)Nc1c(Br)c(O)cccc1=O

>  <score_type>  (21) 
oracle

>  <origin>  (21) 
adg

>  <m_score__min__energy>  (21) 
-9.9900000000000002

>  <m_primary>  (21) 
energy

$$$$
21:0
     RDKit          3D

 34 36  0  0  0  0  0  0  0  0999 V2000
   60.3300   27.1210   45.7090 C   0  0  0  0  0  0  0  0  0  0  0  0
   59.5310   28.3980   45.6090 C   0  0  0  0  0  0  0  0  0  0  0  0
   60.0780   29.5610   46.1630 C   0  0  0  0  0  0  0  0  0  0  0  0
   59.3820   30.7630   46.1460 C   0  0  0  0  0  0  0  0  0  0  0  0
   59.9570   31.8620   46.7010 N   0  0  0  0  0  0  0  0  0  0  0  0
   59.3150   33.0520   46.7330 C   0  0  0  0  0  0  0  0  0  0  0  0
   59.8730   34.0550   47.2480 O   0  0  0  0  0  0  0  0  0  0  0  0
   58.0690   33.1640   46.2130 N   0  0  0  0  0  0  0  0  0  0  0  0
   57.4380   32.1030   45.6460 C   0  0  0  0  0  0  0  0  0  0  0  0
   56.2720   32.2720   45.2050 O   0  0  0  0  0  0  0  0  0  0  0  0
   58.0910   30.8410   45.5750 C   0  0  0  0  0  0  0  0  0  0  0  0
   57.5230   29.6730   44.9890 C   0  0  0  0  0  0  0  0  0  0  0  0
   56.1930   29.7150   44.3500 C   0  0  0  0  0  0  0  0  0  0  0  0
   56.0050   30.4250   43.3270 O   0  0  0  0  0  0  0  0  0  0  0  0
   55.1440   28.9660   44.8710 O   0  0  0  0  0  0  0  0  0  0  0  0
   58.2460   28.4430   45.0000 C   0  0  0  0  0  0  0  0  0  0  0  0
   57.6830   27.2580   44.3670 N   0  0  0  0  0  0  0  0  0  0  0  0
   57.6250   26.1430   45.2850 C   0  0  0  0  0  0  0  0  0  0  0  0
   57.1980   26.3220   46.6170 C   0  0  0  0  0  0  0  0  0  0  0  0
   57.1200   25.2320   47.4890 C   0  0  0  0  0  0  0  0  0  0  0  0
   57.4500   23.9500   47.0420 C   0  0  0  0  0  0  0  0  0  0  0  0
   57.3740   22.8700   47.9110 O   0  0  0  0  0  0  0  0  0  0  0  0
   57.8570   23.7570   45.7190 C   0  0  0  0  0  0  0  0  0  0  0  0
   57.9360   24.8420   44.8430 C   0  0  0  0  0  0  0  0  0  0  0  0
   60.4876   26.8691   46.7681 H   0  0  0  0  0  0  0  0  0  0  0  0
   59.7809   26.3053   45.2159 H   0  0  0  0  0  0  0  0  0  0  0  0
   61.3037   27.2581   45.2159 H   0  0  0  0  0  0  0  0  0  0  0  0
   61.0777   29.5225   46.6204 H   0  0  0  0  0  0  0  0  0  0  0  0
   58.2610   27.0230   43.5280 H   0  0  0  0  0  0  0  0  0  0  0  0
   56.7210   27.4160   43.9960 H   0  0  0  0  0  0  0  0  0  0  0  0
   56.9244   27.3264   46.9725 H   0  0  0  0  0  0  0  0  0  0  0  0
   56.7980   25.3841   48.5298 H   0  0  0  0  0  0  0  0  0  0  0  0
   58.1159   22.7477   45.3666 H   0  0  0  0  0  0  0  0  0  0  0  0
   58.2436   24.6793   43.7995 H   0  0  0  0  0  0  0  0  0  0  0  0
  1  2  1  0
  2  3  2  0
  3  4  1  0
  4  5  1  0
  5  6  1  0
  6  7  2  0
  6  8  1  0
  8  9  1  0
  9 10  2  0
  9 11  1  0
 11 12  1  0
 12 13  1  0
 13 14  2  0
 13 15  1  0
 12 16  2  0
 16 17  1  0
 17 18  1  0
 18 19  2  0
 19 20  1  0
 20 21  2  0
 21 22  1  0
 21 23  1  0
 23 24  2  0
 16  2  1  0
 24 18  1  0
 11  4  2  0
  1 25  1  0
  1 26  1  0
  1 27  1  0
  3 28  1  0
 17 29  1  0
 17 30  1  0
 19 31  1  0
 20 32  1  0
 23 33  1  0
 24 34  1  0
M  CHG  5   5  -1   8  -1  15  -1  17   1  22  -1
M  END
>  <UniqueID>  (22) 
22

>  <SMILES>  (22) 
Cc1cc2[n-]c(=O)[n-]c(=O)c2c(C(=O)[O-])c1[NH2+]c1ccc([O-])cc1

>  <Energy>  (22) 
60.58459298099531

>  <Genealogy>  (22) 
Cc1cc2[n-]c(=O)[n-]c(=O)c2c(C(=O)[O-])c1[NH2+]c1ccc([O-])cc1 (protonated)
Cc1cc2[n-]c(=O)[n-]c(=O)c2c(C(=O)[O-])c1[NH2+]c1ccc([O-])cc1 (3D coordinates assigned)
Cc1cc2[n-]c(=O)[n-]c(=O)c2c(C(=O)[O-])c1[NH2+]c1ccc([O-])cc1 (optimized conformer: 60.58459298099531 kcal/mol)

>  <smiles>  (22) 
Cc1cc2[nH]c(=O)[nH]c(=O)c2c(C(=O)O)c1Nc1ccc(O)cc1

>  <score_type>  (22) 
oracle

>  <origin>  (22) 
adg

>  <m_score__min__energy>  (22) 
-12.5

>  <m_primary>  (22) 
energy

$$$$
22:0
     RDKit          3D

 41 43  0  0  0  0  0  0  0  0999 V2000
   63.2785   35.0876   49.3000 H   0  0  0  0  0  0  0  0  0  0  0  0
   62.9010   34.2130   48.7500 C   0  0  0  0  0  0  0  0  0  0  0  0
   61.3520   33.5770   48.8530 S   0  0  0  0  0  0  0  0  0  0  0  0
   61.5710   32.3200   47.7550 C   0  0  0  0  0  0  0  0  0  0  0  0
   60.6020   31.2720   47.3550 C   0  0  0  0  0  0  0  0  0  0  0  0
   60.1540   31.1690   46.0850 N   0  0  0  0  0  0  0  0  0  0  0  0
   59.3390   30.1300   46.0540 N   0  0  0  0  0  0  0  0  0  0  0  0
   58.8390   29.7880   45.2040 H   0  0  0  0  0  0  0  0  0  0  0  0
   59.2890   29.6060   47.2870 C   0  0  0  0  0  0  0  0  0  0  0  0
   58.3260   28.1460   47.7060 S   0  0  0  0  0  0  0  0  0  0  0  0
   58.0830   27.6240   45.9740 C   0  0  0  0  0  0  0  0  0  0  0  0
   58.5321   28.3734   45.3057 H   0  0  0  0  0  0  0  0  0  0  0  0
   58.5635   26.6448   45.8315 H   0  0  0  0  0  0  0  0  0  0  0  0
   56.6280   27.4930   45.6550 C   0  0  0  0  0  0  0  0  0  0  0  0
   56.0700   26.3660   45.7590 O   0  0  0  0  0  0  0  0  0  0  0  0
   55.8890   28.6530   45.2440 N   0  0  0  0  0  0  0  0  0  0  0  0
   56.3600   29.6600   44.5710 C   0  0  0  0  0  0  0  0  0  0  0  0
   56.9070   30.7630   45.1310 N   0  0  0  0  0  0  0  0  0  0  0  0
   57.3250   31.6470   44.1860 C   0  0  0  0  0  0  0  0  0  0  0  0
   57.9840   32.9370   44.5590 C   0  0  0  0  0  0  0  0  0  0  0  0
   58.0279   33.0229   45.6548 H   0  0  0  0  0  0  0  0  0  0  0  0
   59.0042   32.9598   44.1483 H   0  0  0  0  0  0  0  0  0  0  0  0
   57.4045   33.7770   44.1483 H   0  0  0  0  0  0  0  0  0  0  0  0
   57.1270   31.2290   42.8670 C   0  0  0  0  0  0  0  0  0  0  0  0
   57.4670   31.9950   41.6290 C   0  0  0  0  0  0  0  0  0  0  0  0
   57.8988   32.9678   41.9067 H   0  0  0  0  0  0  0  0  0  0  0  0
   58.1971   31.4260   41.0347 H   0  0  0  0  0  0  0  0  0  0  0  0
   56.5553   32.1548   41.0347 H   0  0  0  0  0  0  0  0  0  0  0  0
   56.3750   29.7240   42.8930 S   0  0  0  0  0  0  0  0  0  0  0  0
   60.0620   30.3030   48.1450 N   0  0  0  0  0  0  0  0  0  0  0  0
   60.2880   29.9970   49.5600 C   0  0  0  0  0  0  0  0  0  0  0  0
   59.9370   28.9759   49.7699 H   0  0  0  0  0  0  0  0  0  0  0  0
   59.7338   30.7227   50.1734 H   0  0  0  0  0  0  0  0  0  0  0  0
   61.7720   30.0970   49.8990 C   0  0  0  0  0  0  0  0  0  0  0  0
   61.8987   30.1055   50.9916 H   0  0  0  0  0  0  0  0  0  0  0  0
   62.3040   29.2327   49.4749 H   0  0  0  0  0  0  0  0  0  0  0  0
   62.1833   31.0249   49.4749 H   0  0  0  0  0  0  0  0  0  0  0  0
   62.8850   32.3880   47.2970 C   0  0  0  0  0  0  0  0  0  0  0  0
   63.3049   31.6788   46.5685 H   0  0  0  0  0  0  0  0  0  0  0  0
   63.6220   33.4430   47.8500 C   0  0  0  0  0  0  0  0  0  0  0  0
   64.6733   33.6419   47.5945 H   0  0  0  0  0  0  0  0  0  0  0  0
  1  2  1  0
  2  3  1  0
  3  4  1  0
  4  5  1  0
  5  6  2  0
  6  7  1  0
  7  8  1  0
  7  9  2  0
  9 10  1  0
 10 11  1  0
 11 12  1  0
 11 13  1  0
 11 14  1  0
 14 15  2  0
 14 16  1  0
 16 17  2  0
 17 18  1  0
 18 19  1  0
 19 20  1  0
 20 21  1  0
 20 22  1  0
 20 23  1  0
 19 24  2  0
 24 25  1  0
 25 26  1  0
 25 27  1  0
 25 28  1  0
 24 29  1  0
  9 30  1  0
 30 31  1  0
 31 32  1  0
 31 33  1  0
 31 34  1  0
 34 35  1  0
 34 36  1  0
 34 37  1  0
  4 38  2  0
 38 39  1  0
 38 40  1  0
 40 41  1  0
 40  2  2  0
 30  5  1  0
 29 17  1  0
M  CHG  2   7   1  18  -1
M  END
>  <UniqueID>  (23) 
23

>  <SMILES>  (23) 
CCn1c(-c2cccs2)n[nH+]c1SCC(=O)/N=c1\[n-]c(C)c(C)s1

>  <Energy>  (23) 
127.61824872228519

>  <Genealogy>  (23) 
CCn1c(-c2cccs2)n[nH+]c1SCC(=O)N=c1[n-]c(C)c(C)s1 (protonated)
CCn1c(-c2cccs2)n[nH+]c1SCC(=O)/N=c1\[n-]c(C)c(C)s1 (cis-trans isomerization)
CCn1c(-c2cccs2)n[nH+]c1SCC(=O)/N=c1\[n-]c(C)c(C)s1 (3D coordinates assigned)
CCn1c(-c2cccs2)n[nH+]c1SCC(=O)/N=c1\[n-]c(C)c(C)s1 (optimized conformer: 127.61824872228519 kcal/mol)

>  <smiles>  (23) 
CCn1c(SCC(=O)N=c2[nH]c(C)c(C)s2)nnc1-c1cccs1

>  <score_type>  (23) 
oracle

>  <origin>  (23) 
adg

>  <m_score__min__energy>  (23) 
-8.6999999999999993

>  <m_primary>  (23) 
energy

$$$$
23:0
     RDKit          3D

 57 60  0  0  0  0  0  0  0  0999 V2000
   59.3040   26.6850   48.0030 O   0  0  0  0  0  0  0  0  0  0  0  0
   58.3710   26.6640   47.1540 C   0  0  0  0  0  0  0  0  0  0  0  0
   57.4450   25.5690   47.1750 N   0  0  0  0  0  0  0  0  0  0  0  0
   57.3420   24.5320   46.1880 C   0  0  0  0  0  0  0  0  0  0  0  0
   58.4780   23.7720   45.8470 C   0  0  0  0  0  0  0  0  0  0  0  0
   58.3960   22.7560   44.8980 C   0  0  0  0  0  0  0  0  0  0  0  0
   57.1760   22.4770   44.2800 C   0  0  0  0  0  0  0  0  0  0  0  0
   57.0630   21.0770   42.9830 Br  0  0  0  0  0  0  0  0  0  0  0  0
   56.0320   23.2060   44.6220 C   0  0  0  0  0  0  0  0  0  0  0  0
   56.0930   24.2330   45.5850 C   0  0  0  0  0  0  0  0  0  0  0  0
   54.8520   24.9860   45.9170 C   0  0  0  0  0  0  0  0  0  0  0  0
   53.7750   24.3700   46.1400 O   0  0  0  0  0  0  0  0  0  0  0  0
   54.8500   26.3730   45.9960 O   0  0  0  0  0  0  0  0  0  0  0  0
   58.2060   27.8120   46.2310 C   0  0  0  0  0  0  0  0  0  0  0  0
   56.9650   28.0790   45.6280 C   0  0  0  0  0  0  0  0  0  0  0  0
   56.8090   29.1820   44.7880 C   0  0  0  0  0  0  0  0  0  0  0  0
   57.8880   30.0350   44.5390 C   0  0  0  0  0  0  0  0  0  0  0  0
   57.6610   31.4320   43.4930 S   0  0  0  0  0  0  0  0  0  0  0  0
   56.4530   31.1990   42.6310 O   0  0  0  0  0  0  0  0  0  0  0  0
   58.8640   31.6080   42.6090 O   0  0  0  0  0  0  0  0  0  0  0  0
   57.4080   32.8800   44.4200 N   0  0  0  0  0  0  0  0  0  0  0  0
   58.3860   33.4120   45.3330 C   0  0  0  0  0  0  0  0  0  0  0  0
   58.8420   34.7350   45.2310 C   0  0  0  0  0  0  0  0  0  0  0  0
   59.7850   35.2240   46.1350 C   0  0  0  0  0  0  0  0  0  0  0  0
   60.2700   34.4080   47.1600 C   0  0  0  0  0  0  0  0  0  0  0  0
   59.8160   33.0850   47.2870 C   0  0  0  0  0  0  0  0  0  0  0  0
   60.3130   32.2250   48.3880 C   0  0  0  0  0  0  0  0  0  0  0  0
   61.5550   32.1410   48.5970 O   0  0  0  0  0  0  0  0  0  0  0  0
   59.4050   31.4940   49.2380 N   0  0  0  0  0  0  0  0  0  0  0  0
   59.6060   30.0590   49.4620 C   0  0  0  0  0  0  0  0  0  0  0  0
   59.0900   29.6670   50.8520 C   0  0  0  0  0  0  0  0  0  0  0  0
   57.7670   30.1260   51.0510 O   0  0  0  0  0  0  0  0  0  0  0  0
   57.7580   31.5410   51.0680 C   0  0  0  0  0  0  0  0  0  0  0  0
   58.1540   32.1050   49.6970 C   0  0  0  0  0  0  0  0  0  0  0  0
   58.9050   32.5860   46.3440 C   0  0  0  0  0  0  0  0  0  0  0  0
   59.1250   29.7830   45.1480 C   0  0  0  0  0  0  0  0  0  0  0  0
   59.2840   28.6770   45.9880 C   0  0  0  0  0  0  0  0  0  0  0  0
   59.4405   23.9834   46.3357 H   0  0  0  0  0  0  0  0  0  0  0  0
   59.2918   22.1740   44.6357 H   0  0  0  0  0  0  0  0  0  0  0  0
   55.0739   22.9749   44.1336 H   0  0  0  0  0  0  0  0  0  0  0  0
   56.1104   27.4135   45.8197 H   0  0  0  0  0  0  0  0  0  0  0  0
   55.8336   29.3810   44.3201 H   0  0  0  0  0  0  0  0  0  0  0  0
   56.5990   33.4810   44.1410 H   0  0  0  0  0  0  0  0  0  0  0  0
   58.4546   35.3886   44.4356 H   0  0  0  0  0  0  0  0  0  0  0  0
   60.1488   36.2578   46.0403 H   0  0  0  0  0  0  0  0  0  0  0  0
   61.0107   34.8034   47.8707 H   0  0  0  0  0  0  0  0  0  0  0  0
   59.0576   29.4906   48.6964 H   0  0  0  0  0  0  0  0  0  0  0  0
   60.6802   29.8309   49.3984 H   0  0  0  0  0  0  0  0  0  0  0  0
   59.1083   28.5712   50.9464 H   0  0  0  0  0  0  0  0  0  0  0  0
   59.7389   30.1307   51.6096 H   0  0  0  0  0  0  0  0  0  0  0  0
   56.7475   31.8921   51.3242 H   0  0  0  0  0  0  0  0  0  0  0  0
   58.4855   31.8892   51.8160 H   0  0  0  0  0  0  0  0  0  0  0  0
   57.3564   31.8881   48.9712 H   0  0  0  0  0  0  0  0  0  0  0  0
   58.2977   33.1920   49.7850 H   0  0  0  0  0  0  0  0  0  0  0  0
   58.5925   31.5327   46.3970 H   0  0  0  0  0  0  0  0  0  0  0  0
   59.9738   30.4581   44.9643 H   0  0  0  0  0  0  0  0  0  0  0  0
   60.2584   28.4839   46.4606 H   0  0  0  0  0  0  0  0  0  0  0  0
  1  2  2  0
  2  3  1  0
  3  4  1  0
  4  5  2  0
  5  6  1  0
  6  7  2  0
  7  8  1  0
  7  9  1  0
  9 10  2  0
 10 11  1  0
 11 12  2  0
 11 13  1  0
  2 14  1  0
 14 15  2  0
 15 16  1  0
 16 17  2  0
 17 18  1  0
 18 19  2  0
 18 20  2  0
 18 21  1  0
 21 22  1  0
 22 23  2  0
 23 24  1  0
 24 25  2  0
 25 26  1  0
 26 27  1  0
 27 28  2  0
 27 29  1  0
 29 30  1  0
 30 31  1  0
 31 32  1  0
 32 33  1  0
 33 34  1  0
 26 35  2  0
 17 36  1  0
 36 37  2  0
 10  4  1  0
 37 14  1  0
 35 22  1  0
 34 29  1  0
  5 38  1  0
  6 39  1  0
  9 40  1  0
 15 41  1  0
 16 42  1  0
 21 43  1  0
 23 44  1  0
 24 45  1  0
 25 46  1  0
 30 47  1  0
 30 48  1  0
 31 49  1  0
 31 50  1  0
 33 51  1  0
 33 52  1  0
 34 53  1  0
 34 54  1  0
 35 55  1  0
 36 56  1  0
 37 57  1  0
M  CHG  2   3  -1  13  -1
M  END
>  <UniqueID>  (24) 
24

>  <SMILES>  (24) 
O=C([N-]c1ccc(Br)cc1C(=O)[O-])c1ccc(S(=O)(=O)Nc2cccc(C(=O)N3CCOCC3)c2)cc1

>  <Energy>  (24) 
81.55528747193503

>  <Genealogy>  (24) 
O=C([N-]c1ccc(Br)cc1C(=O)[O-])c1ccc(S(=O)(=O)Nc2cccc(C(=O)N3CCOCC3)c2)cc1 (protonated)
O=C([N-]c1ccc(Br)cc1C(=O)[O-])c1ccc(S(=O)(=O)Nc2cccc(C(=O)N3CCOCC3)c2)cc1 (3D coordinates assigned)
O=C([N-]c1ccc(Br)cc1C(=O)[O-])c1ccc(S(=O)(=O)Nc2cccc(C(=O)N3CCOCC3)c2)cc1 (nonaromatic ring conformer: 81.55528747193503 kcal/mol)

>  <smiles>  (24) 
O=C(Nc1ccc(Br)cc1C(=O)O)c1ccc(S(=O)(=O)Nc2cccc(C(=O)N3CCOCC3)c2)cc1

>  <score_type>  (24) 
oracle

>  <origin>  (24) 
adg

>  <m_score__min__energy>  (24) 
-14.300000000000001

>  <m_primary>  (24) 
energy

$$$$
24:0
     RDKit          3D

 56 58  0  0  0  0  0  0  0  0999 V2000
   57.1160   31.5530   42.2280 C   0  0  0  0  0  0  0  0  0  0  0  0
   57.7080   31.7760   43.6000 C   0  0  0  0  0  0  0  0  0  0  0  0
   58.1100   33.0750   43.9430 C   0  0  0  0  0  0  0  0  0  0  0  0
   58.6630   33.3260   45.1900 C   0  0  0  0  0  0  0  0  0  0  0  0
   58.8170   32.2870   46.1060 C   0  0  0  0  0  0  0  0  0  0  0  0
   59.5580   32.5970   47.6810 S   0  0  0  0  0  0  0  0  0  0  0  0
   60.3160   31.3680   48.0990 O   0  0  0  0  0  0  0  0  0  0  0  0
   58.4920   32.8650   48.7080 O   0  0  0  0  0  0  0  0  0  0  0  0
   60.6610   33.9540   47.5870 N   0  0  0  0  0  0  0  0  0  0  0  0
   61.3620   34.1920   48.8650 C   0  0  0  0  0  0  0  0  0  0  0  0
   62.4520   33.1430   49.1530 C   0  0  0  0  0  0  0  0  0  0  0  0
   63.2450   32.7350   47.8990 C   0  0  0  0  0  0  0  0  0  0  0  0
   63.0470   33.7230   46.7510 C   0  0  0  0  0  0  0  0  0  0  0  0
   61.5530   33.8610   46.4030 C   0  0  0  0  0  0  0  0  0  0  0  0
   58.4060   30.9930   45.7480 C   0  0  0  0  0  0  0  0  0  0  0  0
   58.5750   30.0470   46.5690 O   0  0  0  0  0  0  0  0  0  0  0  0
   57.8360   30.7510   44.5160 N   0  0  0  0  0  0  0  0  0  0  0  0
   57.4140   29.3750   44.1730 C   0  0  0  0  0  0  0  0  0  0  0  0
   56.1460   29.0000   44.8980 C   0  0  0  0  0  0  0  0  0  0  0  0
   55.1560   29.7790   44.8590 O   0  0  0  0  0  0  0  0  0  0  0  0
   56.0060   27.7470   45.5820 N   0  0  0  0  0  0  0  0  0  0  0  0
   57.0100   27.1350   46.4460 C   0  0  0  0  0  0  0  0  0  0  0  0
   57.1340   25.6700   46.1540 C   0  0  0  0  0  0  0  0  0  0  0  0
   57.4640   24.8810   47.0790 O   0  0  0  0  0  0  0  0  0  0  0  0
   56.8310   25.1730   44.8410 N   0  0  0  0  0  0  0  0  0  0  0  0
   57.1590   23.8480   44.3870 C   0  0  0  0  0  0  0  0  0  0  0  0
   58.3550   23.2170   44.7810 C   0  0  0  0  0  0  0  0  0  0  0  0
   58.6660   21.9380   44.3090 C   0  0  0  0  0  0  0  0  0  0  0  0
   57.7970   21.2820   43.4340 C   0  0  0  0  0  0  0  0  0  0  0  0
   56.6190   21.9090   43.0210 C   0  0  0  0  0  0  0  0  0  0  0  0
   56.3020   23.1900   43.4880 C   0  0  0  0  0  0  0  0  0  0  0  0
   55.1530   23.7820   43.0760 F   0  0  0  0  0  0  0  0  0  0  0  0
   56.0910   31.1669   42.3293 H   0  0  0  0  0  0  0  0  0  0  0  0
   57.0964   32.5054   41.6779 H   0  0  0  0  0  0  0  0  0  0  0  0
   57.7296   30.8244   41.6779 H   0  0  0  0  0  0  0  0  0  0  0  0
   57.9865   33.8963   43.2218 H   0  0  0  0  0  0  0  0  0  0  0  0
   58.9800   34.3452   45.4560 H   0  0  0  0  0  0  0  0  0  0  0  0
   61.8319   35.1859   48.8281 H   0  0  0  0  0  0  0  0  0  0  0  0
   60.6153   34.1228   49.6698 H   0  0  0  0  0  0  0  0  0  0  0  0
   63.1536   33.5607   49.8901 H   0  0  0  0  0  0  0  0  0  0  0  0
   61.9472   32.2410   49.5292 H   0  0  0  0  0  0  0  0  0  0  0  0
   64.3146   32.6947   48.1526 H   0  0  0  0  0  0  0  0  0  0  0  0
   62.8774   31.7522   47.5690 H   0  0  0  0  0  0  0  0  0  0  0  0
   63.4407   34.7060   47.0487 H   0  0  0  0  0  0  0  0  0  0  0  0
   63.5831   33.3491   45.8662 H   0  0  0  0  0  0  0  0  0  0  0  0
   61.4215   34.7709   45.7990 H   0  0  0  0  0  0  0  0  0  0  0  0
   61.2675   32.9470   45.8616 H   0  0  0  0  0  0  0  0  0  0  0  0
   57.2400   29.3123   43.0887 H   0  0  0  0  0  0  0  0  0  0  0  0
   58.2097   28.6792   44.4775 H   0  0  0  0  0  0  0  0  0  0  0  0
   57.9812   27.6217   46.2730 H   0  0  0  0  0  0  0  0  0  0  0  0
   56.7019   27.2632   47.4942 H   0  0  0  0  0  0  0  0  0  0  0  0
   56.2940   25.7980   44.1980 H   0  0  0  0  0  0  0  0  0  0  0  0
   59.0473   23.7325   45.4629 H   0  0  0  0  0  0  0  0  0  0  0  0
   59.5974   21.4472   44.6276 H   0  0  0  0  0  0  0  0  0  0  0  0
   58.0400   20.2726   43.0705 H   0  0  0  0  0  0  0  0  0  0  0  0
   55.9384   21.3945   42.3267 H   0  0  0  0  0  0  0  0  0  0  0  0
  1  2  1  0
  2  3  2  0
  3  4  1  0
  4  5  2  0
  5  6  1  0
  6  7  2  0
  6  8  2  0
  6  9  1  0
  9 10  1  0
 10 11  1  0
 11 12  1  0
 12 13  1  0
 13 14  1  0
  5 15  1  0
 15 16  2  0
 15 17  1  0
 17 18  1  0
 18 19  1  0
 19 20  2  0
 19 21  1  0
 21 22  1  0
 22 23  1  0
 23 24  2  0
 23 25  1  0
 25 26  1  0
 26 27  2  0
 27 28  1  0
 28 29  2  0
 29 30  1  0
 30 31  2  0
 31 32  1  0
 17  2  1  0
 31 26  1  0
 14  9  1  0
  1 33  1  0
  1 34  1  0
  1 35  1  0
  3 36  1  0
  4 37  1  0
 10 38  1  0
 10 39  1  0
 11 40  1  0
 11 41  1  0
 12 42  1  0
 12 43  1  0
 13 44  1  0
 13 45  1  0
 14 46  1  0
 14 47  1  0
 18 48  1  0
 18 49  1  0
 22 50  1  0
 22 51  1  0
 25 52  1  0
 27 53  1  0
 28 54  1  0
 29 55  1  0
 30 56  1  0
M  CHG  1  21  -1
M  END
>  <UniqueID>  (25) 
25

>  <SMILES>  (25) 
Cc1ccc(S(=O)(=O)N2CCCCC2)c(=O)n1CC(=O)[N-]CC(=O)Nc1ccccc1F

>  <Energy>  (25) 
69.45245062517691

>  <Genealogy>  (25) 
Cc1ccc(S(=O)(=O)N2CCCCC2)c(=O)n1CC(=O)[N-]CC(=O)Nc1ccccc1F (protonated)
Cc1ccc(S(=O)(=O)N2CCCCC2)c(=O)n1CC(=O)[N-]CC(=O)Nc1ccccc1F (3D coordinates assigned)
Cc1ccc(S(=O)(=O)N2CCCCC2)c(=O)n1CC(=O)[N-]CC(=O)Nc1ccccc1F (nonaromatic ring conformer: 69.45245062517691 kcal/mol)

>  <smiles>  (25) 
Cc1ccc(S(=O)(=O)N2CCCCC2)c(=O)n1CC(=O)NCC(=O)Nc1ccccc1F

>  <score_type>  (25) 
oracle

>  <origin>  (25) 
adg

>  <m_score__min__energy>  (25) 
-11.960000000000001

>  <m_primary>  (25) 
energy

$$$$
25:0
     RDKit          3D

 40 42  0  0  0  0  0  0  0  0999 V2000
   58.2160   29.1540   47.5260 O   0  0  0  0  0  0  0  0  0  0  0  0
   58.3480   29.3800   46.2900 C   0  0  0  0  0  0  0  0  0  0  0  0
   58.4170   28.2100   45.3380 C   0  0  0  0  0  0  0  0  0  0  0  0
   57.5320   27.0700   45.7940 C   0  0  0  0  0  0  0  0  0  0  0  0
   56.1310   27.1820   45.7440 C   0  0  0  0  0  0  0  0  0  0  0  0
   55.5250   28.3300   45.2460 O   0  0  0  0  0  0  0  0  0  0  0  0
   55.3510   26.1620   46.1870 N   0  0  0  0  0  0  0  0  0  0  0  0
   55.8990   25.0240   46.6830 C   0  0  0  0  0  0  0  0  0  0  0  0
   55.1560   24.0940   47.0880 O   0  0  0  0  0  0  0  0  0  0  0  0
   57.2480   24.8880   46.7410 N   0  0  0  0  0  0  0  0  0  0  0  0
   58.0730   25.8780   46.3110 C   0  0  0  0  0  0  0  0  0  0  0  0
   59.3190   25.7100   46.3760 O   0  0  0  0  0  0  0  0  0  0  0  0
   58.3660   30.7450   45.8130 N   0  0  0  0  0  0  0  0  0  0  0  0
   58.6860   31.8290   46.7110 C   0  0  0  0  0  0  0  0  0  0  0  0
   57.7600   32.4220   47.3290 O   0  0  0  0  0  0  0  0  0  0  0  0
   60.0840   32.2500   46.9520 C   0  0  0  0  0  0  0  0  0  0  0  0
   60.9760   31.3350   47.5350 C   0  0  0  0  0  0  0  0  0  0  0  0
   62.3100   31.6860   47.7520 C   0  0  0  0  0  0  0  0  0  0  0  0
   62.7640   32.9580   47.3990 C   0  0  0  0  0  0  0  0  0  0  0  0
   61.8820   33.8860   46.8400 C   0  0  0  0  0  0  0  0  0  0  0  0
   60.5420   33.5450   46.6190 C   0  0  0  0  0  0  0  0  0  0  0  0
   59.4340   34.8080   45.9900 S   0  0  0  0  0  0  0  0  0  0  0  0
   57.9220   31.0610   44.4780 C   0  0  0  0  0  0  0  0  0  0  0  0
   56.9930   30.2310   43.8280 C   0  0  0  0  0  0  0  0  0  0  0  0
   56.5650   30.5320   42.5310 C   0  0  0  0  0  0  0  0  0  0  0  0
   57.0650   31.6590   41.8720 C   0  0  0  0  0  0  0  0  0  0  0  0
   57.9960   32.4840   42.5080 C   0  0  0  0  0  0  0  0  0  0  0  0
   58.4270   32.1860   43.8040 C   0  0  0  0  0  0  0  0  0  0  0  0
   58.0889   28.5404   44.3414 H   0  0  0  0  0  0  0  0  0  0  0  0
   59.4559   27.8497   45.3092 H   0  0  0  0  0  0  0  0  0  0  0  0
   60.6211   30.3344   47.8228 H   0  0  0  0  0  0  0  0  0  0  0  0
   63.0034   30.9599   48.2013 H   0  0  0  0  0  0  0  0  0  0  0  0
   63.8174   33.2299   47.5612 H   0  0  0  0  0  0  0  0  0  0  0  0
   62.2422   34.8902   46.5720 H   0  0  0  0  0  0  0  0  0  0  0  0
   58.3420   34.2850   46.7090 H   0  0  0  0  0  0  0  0  0  0  0  0
   56.6007   29.3408   44.3414 H   0  0  0  0  0  0  0  0  0  0  0  0
   55.8341   29.8812   42.0288 H   0  0  0  0  0  0  0  0  0  0  0  0
   56.7255   31.8962   40.8529 H   0  0  0  0  0  0  0  0  0  0  0  0
   58.3905   33.3695   41.9881 H   0  0  0  0  0  0  0  0  0  0  0  0
   59.1648   32.8350   44.2985 H   0  0  0  0  0  0  0  0  0  0  0  0
  1  2  2  0
  2  3  1  0
  3  4  1  0
  4  5  2  0
  5  6  1  0
  5  7  1  0
  7  8  1  0
  8  9  2  0
  8 10  1  0
 10 11  1  0
 11 12  2  0
  2 13  1  0
 13 14  1  0
 14 15  2  0
 14 16  1  0
 16 17  2  0
 17 18  1  0
 18 19  2  0
 19 20  1  0
 20 21  2  0
 21 22  1  0
 13 23  1  0
 23 24  2  0
 24 25  1  0
 25 26  2  0
 26 27  1  0
 27 28  2  0
 11  4  1  0
 21 16  1  0
 28 23  1  0
  3 29  1  0
  3 30  1  0
 17 31  1  0
 18 32  1  0
 19 33  1  0
 20 34  1  0
 22 35  1  0
 24 36  1  0
 25 37  1  0
 26 38  1  0
 27 39  1  0
 28 40  1  0
M  CHG  3   6  -1   7  -1  10  -1
M  END
>  <UniqueID>  (26) 
26

>  <SMILES>  (26) 
O=C(Cc1c([O-])[n-]c(=O)[n-]c1=O)N(C(=O)c1ccccc1S)c1ccccc1

>  <Energy>  (26) 
58.25868569196152

>  <Genealogy>  (26) 
O=C(Cc1c([O-])[n-]c(=O)[n-]c1=O)N(C(=O)c1ccccc1S)c1ccccc1 (protonated)
O=C(Cc1c([O-])[n-]c(=O)[n-]c1=O)N(C(=O)c1ccccc1S)c1ccccc1 (3D coordinates assigned)
O=C(Cc1c([O-])[n-]c(=O)[n-]c1=O)N(C(=O)c1ccccc1S)c1ccccc1 (optimized conformer: 58.25868569196152 kcal/mol)

>  <smiles>  (26) 
O=C(Cc1c(O)[nH]c(=O)[nH]c1=O)N(C(=O)c1ccccc1S)c1ccccc1

>  <score_type>  (26) 
oracle

>  <origin>  (26) 
adg

>  <m_score__min__energy>  (26) 
-15.83

>  <m_primary>  (26) 
energy

$$$$
26:0
     RDKit          3D

 49 52  0  0  0  0  0  0  0  0999 V2000
   60.4150   28.0510   47.7230 O   0  0  0  0  0  0  0  0  0  0  0  0
   59.7550   28.3190   46.6850 C   0  0  0  0  0  0  0  0  0  0  0  0
   60.2040   29.3850   45.8370 N   0  0  0  0  0  0  0  0  0  0  0  0
   59.5260   30.6310   45.6260 C   0  0  0  0  0  0  0  0  0  0  0  0
   58.4360   30.7350   44.7450 C   0  0  0  0  0  0  0  0  0  0  0  0
   57.7900   31.9620   44.5690 C   0  0  0  0  0  0  0  0  0  0  0  0
   58.2140   33.0860   45.2800 C   0  0  0  0  0  0  0  0  0  0  0  0
   59.2810   32.9870   46.1830 C   0  0  0  0  0  0  0  0  0  0  0  0
   59.8240   34.4190   47.0520 S   0  0  0  0  0  0  0  0  0  0  0  0
   58.9580   34.6460   48.2610 O   0  0  0  0  0  0  0  0  0  0  0  0
   59.7010   35.6100   46.1430 O   0  0  0  0  0  0  0  0  0  0  0  0
   61.4900   34.2130   47.5330 N   0  0  0  0  0  0  0  0  0  0  0  0
   62.2940   33.7680   46.3850 C   0  0  0  0  0  0  0  0  0  0  0  0
   63.7520   33.5100   46.8200 C   0  0  0  0  0  0  0  0  0  0  0  0
   63.9350   33.7140   48.2090 O   0  0  0  0  0  0  0  0  0  0  0  0
   63.0470   32.8830   48.9320 C   0  0  0  0  0  0  0  0  0  0  0  0
   61.5760   33.2300   48.6270 C   0  0  0  0  0  0  0  0  0  0  0  0
   59.9310   31.7560   46.3560 C   0  0  0  0  0  0  0  0  0  0  0  0
   58.5790   27.4960   46.3440 C   0  0  0  0  0  0  0  0  0  0  0  0
   57.2460   27.8380   46.5050 C   0  0  0  0  0  0  0  0  0  0  0  0
   56.5270   26.7720   46.0120 C   0  0  0  0  0  0  0  0  0  0  0  0
   55.1400   26.7200   45.9510 O   0  0  0  0  0  0  0  0  0  0  0  0
   57.3480   25.8000   45.5580 N   0  0  0  0  0  0  0  0  0  0  0  0
   56.9740   24.5420   44.9660 C   0  0  0  0  0  0  0  0  0  0  0  0
   56.9440   24.3950   43.5680 C   0  0  0  0  0  0  0  0  0  0  0  0
   56.5870   23.1730   42.9910 C   0  0  0  0  0  0  0  0  0  0  0  0
   56.2630   22.0830   43.8030 C   0  0  0  0  0  0  0  0  0  0  0  0
   55.9090   20.8690   43.2280 O   0  0  0  0  0  0  0  0  0  0  0  0
   56.2980   22.2140   45.1930 C   0  0  0  0  0  0  0  0  0  0  0  0
   56.6520   23.4360   45.7740 C   0  0  0  0  0  0  0  0  0  0  0  0
   58.6080   26.2460   45.7470 C   0  0  0  0  0  0  0  0  0  0  0  0
   58.0904   29.8487   44.1926 H   0  0  0  0  0  0  0  0  0  0  0  0
   56.9456   32.0421   43.8686 H   0  0  0  0  0  0  0  0  0  0  0  0
   57.7092   34.0519   45.1310 H   0  0  0  0  0  0  0  0  0  0  0  0
   61.8661   32.8388   45.9807 H   0  0  0  0  0  0  0  0  0  0  0  0
   62.2840   34.5536   45.6152 H   0  0  0  0  0  0  0  0  0  0  0  0
   64.0169   32.4707   46.5758 H   0  0  0  0  0  0  0  0  0  0  0  0
   64.3974   34.2215   46.2841 H   0  0  0  0  0  0  0  0  0  0  0  0
   63.2322   31.8348   48.6546 H   0  0  0  0  0  0  0  0  0  0  0  0
   63.2237   33.0401   50.0063 H   0  0  0  0  0  0  0  0  0  0  0  0
   61.0423   32.3143   48.3327 H   0  0  0  0  0  0  0  0  0  0  0  0
   61.1200   33.6635   49.5293 H   0  0  0  0  0  0  0  0  0  0  0  0
   60.7641   31.6735   47.0695 H   0  0  0  0  0  0  0  0  0  0  0  0
   56.8456   28.7672   46.9366 H   0  0  0  0  0  0  0  0  0  0  0  0
   57.2034   25.2480   42.9236 H   0  0  0  0  0  0  0  0  0  0  0  0
   56.5611   23.0693   41.8962 H   0  0  0  0  0  0  0  0  0  0  0  0
   56.0467   21.3546   45.8320 H   0  0  0  0  0  0  0  0  0  0  0  0
   56.6789   23.5330   46.8694 H   0  0  0  0  0  0  0  0  0  0  0  0
   59.5209   25.6990   45.4688 H   0  0  0  0  0  0  0  0  0  0  0  0
  1  2  2  0
  2  3  1  0
  3  4  1  0
  4  5  2  0
  5  6  1  0
  6  7  2  0
  7  8  1  0
  8  9  1  0
  9 10  2  0
  9 11  2  0
  9 12  1  0
 12 13  1  0
 13 14  1  0
 14 15  1  0
 15 16  1  0
 16 17  1  0
  8 18  2  0
  2 19  1  0
 19 20  1  0
 20 21  2  0
 21 22  1  0
 21 23  1  0
 23 24  1  0
 24 25  2  0
 25 26  1  0
 26 27  2  0
 27 28  1  0
 27 29  1  0
 29 30  2  0
 23 31  1  0
 18  4  1  0
 31 19  2  0
 17 12  1  0
 30 24  1  0
  5 32  1  0
  6 33  1  0
  7 34  1  0
 13 35  1  0
 13 36  1  0
 14 37  1  0
 14 38  1  0
 16 39  1  0
 16 40  1  0
 17 41  1  0
 17 42  1  0
 18 43  1  0
 20 44  1  0
 25 45  1  0
 26 46  1  0
 29 47  1  0
 30 48  1  0
 31 49  1  0
M  CHG  3   3  -1  22  -1  28  -1
M  END
>  <UniqueID>  (27) 
27

>  <SMILES>  (27) 
O=C([N-]c1cccc(S(=O)(=O)N2CCOCC2)c1)c1cc([O-])n(-c2ccc([O-])cc2)c1

>  <Energy>  (27) 
96.69636782272599

>  <Genealogy>  (27) 
O=C([N-]c1cccc(S(=O)(=O)N2CCOCC2)c1)c1cc([O-])n(-c2ccc([O-])cc2)c1 (protonated)
O=C([N-]c1cccc(S(=O)(=O)N2CCOCC2)c1)c1cc([O-])n(-c2ccc([O-])cc2)c1 (3D coordinates assigned)
O=C([N-]c1cccc(S(=O)(=O)N2CCOCC2)c1)c1cc([O-])n(-c2ccc([O-])cc2)c1 (nonaromatic ring conformer: 96.69636782272599 kcal/mol)

>  <smiles>  (27) 
O=C(Nc1cccc(S(=O)(=O)N2CCOCC2)c1)c1cc(O)n(-c2ccc(O)cc2)c1

>  <score_type>  (27) 
oracle

>  <origin>  (27) 
adg

>  <m_score__min__energy>  (27) 
-15.23

>  <m_primary>  (27) 
energy

$$$$
27:0
     RDKit          3D

 77 82  0  0  0  0  0  0  0  0999 V2000
   57.3910   26.5050   46.4650 O   0  0  0  0  0  0  0  0  0  0  0  0
   58.6520   26.5070   46.4510 C   0  0  0  0  0  0  0  0  0  0  0  0
   59.3790   25.3470   46.0050 N   0  0  0  0  0  0  0  0  0  0  0  0
   58.7710   24.1460   45.4950 C   0  0  0  0  0  0  0  0  0  0  0  0
   59.5250   22.9900   45.2220 C   0  0  0  0  0  0  0  0  0  0  0  0
   58.9020   21.8490   44.7130 C   0  0  0  0  0  0  0  0  0  0  0  0
   57.5300   21.8510   44.4520 C   0  0  0  0  0  0  0  0  0  0  0  0
   56.7620   23.0040   44.6920 C   0  0  0  0  0  0  0  0  0  0  0  0
   55.3090   23.0140   44.3900 C   0  0  0  0  0  0  0  0  0  0  0  0
   54.9160   23.1200   43.1960 O   0  0  0  0  0  0  0  0  0  0  0  0
   54.3320   22.9380   45.4410 N   0  0  0  0  0  0  0  0  0  0  0  0
   54.7510   22.2820   46.6880 C   0  0  0  0  0  0  0  0  0  0  0  0
   53.7560   22.5320   47.8230 C   0  0  0  0  0  0  0  0  0  0  0  0
   52.3420   22.1580   47.3830 C   0  0  0  0  0  0  0  0  0  0  0  0
   51.9570   22.9220   46.1470 C   0  0  0  0  0  0  0  0  0  0  0  0
   50.6090   23.2310   45.9060 C   0  0  0  0  0  0  0  0  0  0  0  0
   50.2430   23.9330   44.7570 C   0  0  0  0  0  0  0  0  0  0  0  0
   51.2150   24.3260   43.8370 C   0  0  0  0  0  0  0  0  0  0  0  0
   52.5560   24.0060   44.0550 C   0  0  0  0  0  0  0  0  0  0  0  0
   52.9440   23.2830   45.2020 C   0  0  0  0  0  0  0  0  0  0  0  0
   57.3980   24.1510   45.2040 C   0  0  0  0  0  0  0  0  0  0  0  0
   59.3690   27.7260   46.8820 C   0  0  0  0  0  0  0  0  0  0  0  0
   59.3750   28.1230   48.2310 C   0  0  0  0  0  0  0  0  0  0  0  0
   60.0770   29.2630   48.6290 C   0  0  0  0  0  0  0  0  0  0  0  0
   60.7830   30.0290   47.6870 C   0  0  0  0  0  0  0  0  0  0  0  0
   61.5090   31.2040   48.0990 N   0  0  0  0  0  0  0  0  0  0  0  0
   62.1980   31.2080   49.4000 C   0  0  0  0  0  0  0  0  0  0  0  0
   61.4540   32.0410   50.4640 C   0  0  0  0  0  0  0  0  0  0  0  0
   61.6330   33.5620   50.3430 C   0  0  0  0  0  0  0  0  0  0  0  0
   61.2000   34.0790   49.0260 N   0  0  0  0  0  0  0  0  0  0  0  0
   59.7390   33.9550   48.8130 C   0  0  0  0  0  0  0  0  0  0  0  0
   59.3270   34.0850   47.3630 C   0  0  0  0  0  0  0  0  0  0  0  0
   59.7890   35.1630   46.5870 C   0  0  0  0  0  0  0  0  0  0  0  0
   59.3940   35.2920   45.2510 C   0  0  0  0  0  0  0  0  0  0  0  0
   58.5480   34.3410   44.6770 C   0  0  0  0  0  0  0  0  0  0  0  0
   58.0980   33.2570   45.4340 C   0  0  0  0  0  0  0  0  0  0  0  0
   58.4890   33.1250   46.7710 C   0  0  0  0  0  0  0  0  0  0  0  0
   62.0170   33.6720   47.8530 C   0  0  0  0  0  0  0  0  0  0  0  0
   61.5680   32.3560   47.1790 C   0  0  0  0  0  0  0  0  0  0  0  0
   60.7770   29.6340   46.3410 C   0  0  0  0  0  0  0  0  0  0  0  0
   60.0830   28.4870   45.9430 C   0  0  0  0  0  0  0  0  0  0  0  0
   60.4220   25.4050   45.9590 H   0  0  0  0  0  0  0  0  0  0  0  0
   60.6088   22.9852   45.4102 H   0  0  0  0  0  0  0  0  0  0  0  0
   59.4949   20.9436   44.5165 H   0  0  0  0  0  0  0  0  0  0  0  0
   57.0474   20.9452   44.0563 H   0  0  0  0  0  0  0  0  0  0  0  0
   54.8264   21.1987   46.5126 H   0  0  0  0  0  0  0  0  0  0  0  0
   55.7227   22.7026   46.9861 H   0  0  0  0  0  0  0  0  0  0  0  0
   54.0382   21.9216   48.6935 H   0  0  0  0  0  0  0  0  0  0  0  0
   53.7770   23.5995   48.0874 H   0  0  0  0  0  0  0  0  0  0  0  0
   52.3025   21.0797   47.1693 H   0  0  0  0  0  0  0  0  0  0  0  0
   51.6392   22.4099   48.1908 H   0  0  0  0  0  0  0  0  0  0  0  0
   49.8382   22.9185   46.6258 H   0  0  0  0  0  0  0  0  0  0  0  0
   49.1857   24.1770   44.5763 H   0  0  0  0  0  0  0  0  0  0  0  0
   50.9242   24.8892   42.9380 H   0  0  0  0  0  0  0  0  0  0  0  0
   53.3170   24.3206   43.3256 H   0  0  0  0  0  0  0  0  0  0  0  0
   56.8103   25.0643   45.3785 H   0  0  0  0  0  0  0  0  0  0  0  0
   58.8235   27.5322   48.9772 H   0  0  0  0  0  0  0  0  0  0  0  0
   60.0769   29.5629   49.6873 H   0  0  0  0  0  0  0  0  0  0  0  0
   62.2797   30.1712   49.7584 H   0  0  0  0  0  0  0  0  0  0  0  0
   63.1872   31.6656   49.2512 H   0  0  0  0  0  0  0  0  0  0  0  0
   60.3802   31.8167   50.3828 H   0  0  0  0  0  0  0  0  0  0  0  0
   61.8885   31.7576   51.4340 H   0  0  0  0  0  0  0  0  0  0  0  0
   61.0370   34.0511   51.1276 H   0  0  0  0  0  0  0  0  0  0  0  0
   62.7049   33.7829   50.4535 H   0  0  0  0  0  0  0  0  0  0  0  0
   59.4162   32.9694   49.1796 H   0  0  0  0  0  0  0  0  0  0  0  0
   59.2611   34.7809   49.3603 H   0  0  0  0  0  0  0  0  0  0  0  0
   60.4642   35.9084   47.0325 H   0  0  0  0  0  0  0  0  0  0  0  0
   59.7502   36.1433   44.6524 H   0  0  0  0  0  0  0  0  0  0  0  0
   58.2356   34.4457   43.6275 H   0  0  0  0  0  0  0  0  0  0  0  0
   57.4355   32.5062   44.9786 H   0  0  0  0  0  0  0  0  0  0  0  0
   58.1387   32.2656   47.3614 H   0  0  0  0  0  0  0  0  0  0  0  0
   61.9651   34.4758   47.1038 H   0  0  0  0  0  0  0  0  0  0  0  0
   63.0355   33.4965   48.2295 H   0  0  0  0  0  0  0  0  0  0  0  0
   60.5662   32.5098   46.7516 H   0  0  0  0  0  0  0  0  0  0  0  0
   62.3207   32.1157   46.4137 H   0  0  0  0  0  0  0  0  0  0  0  0
   61.3216   30.2302   45.5940 H   0  0  0  0  0  0  0  0  0  0  0  0
   60.0967   28.1790   44.8871 H   0  0  0  0  0  0  0  0  0  0  0  0
  1  2  2  0
  2  3  1  0
  3  4  1  0
  4  5  2  0
  5  6  1  0
  6  7  2  0
  7  8  1  0
  8  9  1  0
  9 10  2  0
  9 11  1  0
 11 12  1  0
 12 13  1  0
 13 14  1  0
 14 15  1  0
 15 16  2  0
 16 17  1  0
 17 18  2  0
 18 19  1  0
 19 20  2  0
  8 21  2  0
  2 22  1  0
 22 23  2  0
 23 24  1  0
 24 25  2  0
 25 26  1  0
 26 27  1  0
 27 28  1  0
 28 29  1  0
 29 30  1  0
 30 31  1  0
 31 32  1  0
 32 33  2  0
 33 34  1  0
 34 35  2  0
 35 36  1  0
 36 37  2  0
 30 38  1  0
 38 39  1  0
 25 40  1  0
 40 41  2  0
 21  4  1  0
 41 22  1  0
 20 11  1  0
 39 26  1  0
 20 15  1  0
 37 32  1  0
  3 42  1  0
  5 43  1  0
  6 44  1  0
  7 45  1  0
 12 46  1  0
 12 47  1  0
 13 48  1  0
 13 49  1  0
 14 50  1  0
 14 51  1  0
 16 52  1  0
 17 53  1  0
 18 54  1  0
 19 55  1  0
 21 56  1  0
 23 57  1  0
 24 58  1  0
 27 59  1  0
 27 60  1  0
 28 61  1  0
 28 62  1  0
 29 63  1  0
 29 64  1  0
 31 65  1  0
 31 66  1  0
 33 67  1  0
 34 68  1  0
 35 69  1  0
 36 70  1  0
 37 71  1  0
 38 72  1  0
 38 73  1  0
 39 74  1  0
 39 75  1  0
 40 76  1  0
 41 77  1  0
M  END
>  <UniqueID>  (28) 
28

>  <SMILES>  (28) 
O=C(Nc1cccc(C(=O)N2CCCc3ccccc32)c1)c1ccc(N2CCCN(Cc3ccccc3)CC2)cc1

>  <Energy>  (28) 
116.31328613073394

>  <Genealogy>  (28) 
O=C(Nc1cccc(C(=O)N2CCCc3ccccc32)c1)c1ccc(N2CCCN(Cc3ccccc3)CC2)cc1 (3D coordinates assigned)
O=C(Nc1cccc(C(=O)N2CCCc3ccccc32)c1)c1ccc(N2CCCN(Cc3ccccc3)CC2)cc1 (nonaromatic ring conformer: 116.31328613073394 kcal/mol)

>  <smiles>  (28) 
O=C(Nc1cccc(C(=O)N2CCCc3ccccc32)c1)c1ccc(N2CCCN(Cc3ccccc3)CC2)cc1

>  <score_type>  (28) 
oracle

>  <origin>  (28) 
adg

>  <m_score__min__energy>  (28) 
-8.0399999999999991

>  <m_primary>  (28) 
energy

$$$$
28:0
     RDKit          3D

 47 49  0  0  0  0  0  0  0  0999 V2000
   62.1570   33.8290   46.5920 C   0  0  0  0  0  0  0  0  0  0  0  0
   61.4450   32.9390   47.5750 C   0  0  0  0  0  0  0  0  0  0  0  0
   62.1160   32.5570   48.7500 C   0  0  0  0  0  0  0  0  0  0  0  0
   61.5030   31.7100   49.6750 C   0  0  0  0  0  0  0  0  0  0  0  0
   60.2140   31.2340   49.4390 C   0  0  0  0  0  0  0  0  0  0  0  0
   59.5300   31.6100   48.2810 C   0  0  0  0  0  0  0  0  0  0  0  0
   60.1210   32.4820   47.3550 C   0  0  0  0  0  0  0  0  0  0  0  0
   59.3840   32.8320   46.1750 N   0  0  0  0  0  0  0  0  0  0  0  0
   58.0440   33.3430   46.2150 C   0  0  0  0  0  0  0  0  0  0  0  0
   57.4190   33.4120   47.3090 O   0  0  0  0  0  0  0  0  0  0  0  0
   57.3620   33.7530   44.9460 C   0  0  0  0  0  0  0  0  0  0  0  0
   58.0340   32.8400   43.5140 S   0  0  0  0  0  0  0  0  0  0  0  0
   57.8480   31.2330   44.2780 C   0  0  0  0  0  0  0  0  0  0  0  0
   58.9370   30.5910   44.7720 N   0  0  0  0  0  0  0  0  0  0  0  0
   58.8170   29.4080   45.4250 C   0  0  0  0  0  0  0  0  0  0  0  0
   59.8510   28.8490   45.8790 O   0  0  0  0  0  0  0  0  0  0  0  0
   57.5460   28.8280   45.6030 C   0  0  0  0  0  0  0  0  0  0  0  0
   57.3560   27.6010   46.4670 C   0  0  0  0  0  0  0  0  0  0  0  0
   57.2810   26.3390   45.6040 C   0  0  0  0  0  0  0  0  0  0  0  0
   57.8990   25.2200   46.3060 N   0  0  0  0  0  0  0  0  0  0  0  0
   58.4830   24.0940   45.6480 C   0  0  0  0  0  0  0  0  0  0  0  0
   59.6670   23.7490   45.9060 O   0  0  0  0  0  0  0  0  0  0  0  0
   57.7000   23.3530   44.6510 C   0  0  0  0  0  0  0  0  0  0  0  0
   56.6620   23.8690   43.8850 C   0  0  0  0  0  0  0  0  0  0  0  0
   56.1010   22.9290   43.0130 C   0  0  0  0  0  0  0  0  0  0  0  0
   56.6970   21.6770   43.0830 C   0  0  0  0  0  0  0  0  0  0  0  0
   57.9210   21.7380   44.2340 S   0  0  0  0  0  0  0  0  0  0  0  0
   56.4390   29.5060   45.0650 C   0  0  0  0  0  0  0  0  0  0  0  0
   55.1540   28.9940   45.2070 O   0  0  0  0  0  0  0  0  0  0  0  0
   56.6140   30.6860   44.4150 N   0  0  0  0  0  0  0  0  0  0  0  0
   62.7536   34.5747   47.1379 H   0  0  0  0  0  0  0  0  0  0  0  0
   62.8202   33.2203   45.9598 H   0  0  0  0  0  0  0  0  0  0  0  0
   61.4176   34.3424   45.9598 H   0  0  0  0  0  0  0  0  0  0  0  0
   63.1332   32.9289   48.9422 H   0  0  0  0  0  0  0  0  0  0  0  0
   62.0375   31.4179   50.5910 H   0  0  0  0  0  0  0  0  0  0  0  0
   59.7352   30.5614   50.1659 H   0  0  0  0  0  0  0  0  0  0  0  0
   58.5191   31.2189   48.0935 H   0  0  0  0  0  0  0  0  0  0  0  0
   59.7700   32.5380   45.2490 H   0  0  0  0  0  0  0  0  0  0  0  0
   56.2856   33.5435   45.0327 H   0  0  0  0  0  0  0  0  0  0  0  0
   57.5351   34.8277   44.7877 H   0  0  0  0  0  0  0  0  0  0  0  0
   58.2043   27.5136   47.1619 H   0  0  0  0  0  0  0  0  0  0  0  0
   56.4143   27.7041   47.0261 H   0  0  0  0  0  0  0  0  0  0  0  0
   56.2273   26.1017   45.3957 H   0  0  0  0  0  0  0  0  0  0  0  0
   57.8166   26.5140   44.6593 H   0  0  0  0  0  0  0  0  0  0  0  0
   56.3162   24.9108   43.9567 H   0  0  0  0  0  0  0  0  0  0  0  0
   55.2659   23.1605   42.3355 H   0  0  0  0  0  0  0  0  0  0  0  0
   56.4164   20.7959   42.4873 H   0  0  0  0  0  0  0  0  0  0  0  0
  1  2  1  0
  2  3  2  0
  3  4  1  0
  4  5  2  0
  5  6  1  0
  6  7  2  0
  7  8  1  0
  8  9  1  0
  9 10  2  0
  9 11  1  0
 11 12  1  0
 12 13  1  0
 13 14  2  0
 14 15  1  0
 15 16  2  0
 15 17  1  0
 17 18  1  0
 18 19  1  0
 19 20  1  0
 20 21  1  0
 21 22  2  0
 21 23  1  0
 23 24  2  0
 24 25  1  0
 25 26  2  0
 26 27  1  0
 17 28  2  0
 28 29  1  0
 28 30  1  0
  7  2  1  0
 30 13  1  0
 27 23  1  0
  1 31  1  0
  1 32  1  0
  1 33  1  0
  3 34  1  0
  4 35  1  0
  5 36  1  0
  6 37  1  0
  8 38  1  0
 11 39  1  0
 11 40  1  0
 18 41  1  0
 18 42  1  0
 19 43  1  0
 19 44  1  0
 24 45  1  0
 25 46  1  0
 26 47  1  0
M  CHG  3  20  -1  29  -1  30  -1
M  END
>  <UniqueID>  (29) 
29

>  <SMILES>  (29) 
Cc1ccccc1NC(=O)CSc1nc(=O)c(CC[N-]C(=O)c2cccs2)c([O-])[n-]1

>  <Energy>  (29) 
68.83146771777523

>  <Genealogy>  (29) 
Cc1ccccc1NC(=O)CSc1nc(=O)c(CC[N-]C(=O)c2cccs2)c([O-])[n-]1 (protonated)
Cc1ccccc1NC(=O)CSc1nc(=O)c(CC[N-]C(=O)c2cccs2)c([O-])[n-]1 (3D coordinates assigned)
Cc1ccccc1NC(=O)CSc1nc(=O)c(CC[N-]C(=O)c2cccs2)c([O-])[n-]1 (optimized conformer: 68.83146771777523 kcal/mol)

>  <smiles>  (29) 
Cc1ccccc1NC(=O)CSc1nc(=O)c(CCNC(=O)c2cccs2)c(O)[nH]1

>  <score_type>  (29) 
oracle

>  <origin>  (29) 
adg

>  <m_score__min__energy>  (29) 
-17.010000000000002

>  <m_primary>  (29) 
energy

$$$$
29:0
     RDKit          3D

 48 50  0  0  0  0  0  0  0  0999 V2000
   59.4140   30.1230   49.7680 C   0  0  0  0  0  0  0  0  0  0  0  0
   60.8400   29.9360   49.2640 C   0  0  0  0  0  0  0  0  0  0  0  0
   61.3200   31.1720   48.5730 C   0  0  0  0  0  0  0  0  0  0  0  0
   62.2800   31.9740   49.0820 N   0  0  0  0  0  0  0  0  0  0  0  0
   62.3680   32.9730   48.1870 C   0  0  0  0  0  0  0  0  0  0  0  0
   63.2700   34.1540   48.3450 C   0  0  0  0  0  0  0  0  0  0  0  0
   61.4440   32.7680   47.1830 C   0  0  0  0  0  0  0  0  0  0  0  0
   61.1750   33.6610   46.0080 C   0  0  0  0  0  0  0  0  0  0  0  0
   60.1820   34.6990   46.3580 N   0  0  0  0  0  0  0  0  0  0  0  0
   59.5730   34.4640   47.6950 C   0  0  0  0  0  0  0  0  0  0  0  0
   58.5440   33.3170   47.7480 C   0  0  0  0  0  0  0  0  0  0  0  0
   57.4610   33.4730   46.6710 C   0  0  0  0  0  0  0  0  0  0  0  0
   57.8870   32.8710   45.4040 N   0  0  0  0  0  0  0  0  0  0  0  0
   57.7310   31.4510   45.2120 C   0  0  0  0  0  0  0  0  0  0  0  0
   56.6830   31.0150   44.6640 O   0  0  0  0  0  0  0  0  0  0  0  0
   58.7580   30.5410   45.6440 N   0  0  0  0  0  0  0  0  0  0  0  0
   58.6870   29.1100   45.5500 C   0  0  0  0  0  0  0  0  0  0  0  0
   59.7480   28.2190   45.3980 C   0  0  0  0  0  0  0  0  0  0  0  0
   59.3370   26.8800   45.4020 C   0  0  0  0  0  0  0  0  0  0  0  0
   57.9680   26.7140   45.5720 C   0  0  0  0  0  0  0  0  0  0  0  0
   57.2630   28.2330   45.7200 S   0  0  0  0  0  0  0  0  0  0  0  0
   58.7850   33.6320   44.5280 C   0  0  0  0  0  0  0  0  0  0  0  0
   59.2470   34.9210   45.2280 C   0  0  0  0  0  0  0  0  0  0  0  0
   60.7770   31.6260   47.4220 N   0  0  0  0  0  0  0  0  0  0  0  0
   59.4110   30.1234   50.8680 H   0  0  0  0  0  0  0  0  0  0  0  0
   59.0176   31.0808   49.3999 H   0  0  0  0  0  0  0  0  0  0  0  0
   58.7841   29.2998   49.3999 H   0  0  0  0  0  0  0  0  0  0  0  0
   61.4996   29.7195   50.1173 H   0  0  0  0  0  0  0  0  0  0  0  0
   60.8567   29.1005   48.5487 H   0  0  0  0  0  0  0  0  0  0  0  0
   63.4248   34.3566   49.4150 H   0  0  0  0  0  0  0  0  0  0  0  0
   64.2384   33.9422   47.8681 H   0  0  0  0  0  0  0  0  0  0  0  0
   62.8108   35.0325   47.8681 H   0  0  0  0  0  0  0  0  0  0  0  0
   62.1130   34.1471   45.7015 H   0  0  0  0  0  0  0  0  0  0  0  0
   60.7747   33.0515   45.1845 H   0  0  0  0  0  0  0  0  0  0  0  0
   60.3821   34.2299   48.4025 H   0  0  0  0  0  0  0  0  0  0  0  0
   59.0239   35.3826   47.9492 H   0  0  0  0  0  0  0  0  0  0  0  0
   59.0669   32.3619   47.5916 H   0  0  0  0  0  0  0  0  0  0  0  0
   58.0537   33.3425   48.7324 H   0  0  0  0  0  0  0  0  0  0  0  0
   56.5403   32.9775   47.0127 H   0  0  0  0  0  0  0  0  0  0  0  0
   57.2838   34.5460   46.5062 H   0  0  0  0  0  0  0  0  0  0  0  0
   59.6210   30.9370   46.0770 H   0  0  0  0  0  0  0  0  0  0  0  0
   60.7961   28.5338   45.2868 H   0  0  0  0  0  0  0  0  0  0  0  0
   60.0339   26.0374   45.2816 H   0  0  0  0  0  0  0  0  0  0  0  0
   57.4358   25.7519   45.6043 H   0  0  0  0  0  0  0  0  0  0  0  0
   59.6634   33.0159   44.2854 H   0  0  0  0  0  0  0  0  0  0  0  0
   58.2457   33.8984   43.6070 H   0  0  0  0  0  0  0  0  0  0  0  0
   59.7501   35.5561   44.4839 H   0  0  0  0  0  0  0  0  0  0  0  0
   58.3466   35.3905   45.6510 H   0  0  0  0  0  0  0  0  0  0  0  0
  1  2  1  0
  2  3  1  0
  3  4  2  0
  4  5  1  0
  5  6  1  0
  5  7  2  0
  7  8  1  0
  8  9  1  0
  9 10  1  0
 10 11  1  0
 11 12  1  0
 12 13  1  0
 13 14  1  0
 14 15  2  0
 14 16  1  0
 16 17  1  0
 17 18  2  0
 18 19  1  0
 19 20  2  0
 20 21  1  0
 13 22  1  0
 22 23  1  0
  7 24  1  0
 24  3  1  0
 23  9  1  0
 21 17  1  0
  1 25  1  0
  1 26  1  0
  1 27  1  0
  2 28  1  0
  2 29  1  0
  6 30  1  0
  6 31  1  0
  6 32  1  0
  8 33  1  0
  8 34  1  0
 10 35  1  0
 10 36  1  0
 11 37  1  0
 11 38  1  0
 12 39  1  0
 12 40  1  0
 16 41  1  0
 18 42  1  0
 19 43  1  0
 20 44  1  0
 22 45  1  0
 22 46  1  0
 23 47  1  0
 23 48  1  0
M  CHG  1  24  -1
M  END
>  <UniqueID>  (30) 
30

>  <SMILES>  (30) 
CCc1nc(C)c(CN2CCCN(C(=O)Nc3cccs3)CC2)[n-]1

>  <Energy>  (30) 
110.8891154189375

>  <Genealogy>  (30) 
CCc1nc(C)c(CN2CCCN(C(=O)Nc3cccs3)CC2)[n-]1 (protonated)
CCc1nc(C)c(CN2CCCN(C(=O)Nc3cccs3)CC2)[n-]1 (3D coordinates assigned)
CCc1nc(C)c(CN2CCCN(C(=O)Nc3cccs3)CC2)[n-]1 (nonaromatic ring conformer: 110.8891154189375 kcal/mol)

>  <smiles>  (30) 
CCc1nc(C)c(CN2CCCN(C(=O)Nc3cccs3)CC2)[nH]1

>  <score_type>  (30) 
oracle

>  <origin>  (30) 
adg

>  <m_score__min__energy>  (30) 
-6.6299999999999999

>  <m_primary>  (30) 
energy

$$$$
30:0
     RDKit          3D

 28 29  0  0  0  0  0  0  0  0999 V2000
   54.7240   27.0910   46.6770 H   0  0  0  0  0  0  0  0  0  0  0  0
   54.8290   26.3130   45.9880 N   0  0  0  0  0  0  0  0  0  0  0  0
   56.4830   25.8110   46.0420 S   0  0  0  0  0  0  0  0  0  0  0  0
   56.6920   24.6620   45.0960 O   0  0  0  0  0  0  0  0  0  0  0  0
   56.8170   25.3570   47.4350 O   0  0  0  0  0  0  0  0  0  0  0  0
   57.5180   27.1550   45.5750 C   0  0  0  0  0  0  0  0  0  0  0  0
   58.9120   27.0100   45.5540 C   0  0  0  0  0  0  0  0  0  0  0  0
   59.3677   26.0446   45.8192 H   0  0  0  0  0  0  0  0  0  0  0  0
   59.7230   28.0890   45.1970 C   0  0  0  0  0  0  0  0  0  0  0  0
   60.8160   27.9682   45.1699 H   0  0  0  0  0  0  0  0  0  0  0  0
   59.1500   29.3220   44.8740 C   0  0  0  0  0  0  0  0  0  0  0  0
   59.7949   30.1666   44.5897 H   0  0  0  0  0  0  0  0  0  0  0  0
   57.7550   29.4900   44.9100 C   0  0  0  0  0  0  0  0  0  0  0  0
   57.1530   30.8060   44.5820 C   0  0  0  0  0  0  0  0  0  0  0  0
   55.9010   30.9100   44.4990 O   0  0  0  0  0  0  0  0  0  0  0  0
   57.9490   31.9910   44.4230 N   0  0  0  0  0  0  0  0  0  0  0  0
   58.1690   32.8940   45.3330 C   0  0  0  0  0  0  0  0  0  0  0  0
   58.6230   34.5530   44.8920 S   0  0  0  0  0  0  0  0  0  0  0  0
   59.4110   34.7010   46.5340 C   0  0  0  0  0  0  0  0  0  0  0  0
   59.3126   35.7333   46.9011 H   0  0  0  0  0  0  0  0  0  0  0  0
   60.4796   34.4496   46.4633 H   0  0  0  0  0  0  0  0  0  0  0  0
   58.7090   33.7410   47.4980 C   0  0  0  0  0  0  0  0  0  0  0  0
   57.8471   34.2398   47.9652 H   0  0  0  0  0  0  0  0  0  0  0  0
   59.3931   33.4227   48.2984 H   0  0  0  0  0  0  0  0  0  0  0  0
   58.2620   32.6020   46.7210 N   0  0  0  0  0  0  0  0  0  0  0  0
   58.2980   31.6330   47.1060 H   0  0  0  0  0  0  0  0  0  0  0  0
   56.9440   28.3900   45.2480 C   0  0  0  0  0  0  0  0  0  0  0  0
   55.8497   28.5015   45.2553 H   0  0  0  0  0  0  0  0  0  0  0  0
  1  2  1  0
  2  3  1  0
  3  4  2  0
  3  5  2  0
  3  6  1  0
  6  7  2  0
  7  8  1  0
  7  9  1  0
  9 10  1  0
  9 11  2  0
 11 12  1  0
 11 13  1  0
 13 14  1  0
 14 15  2  0
 14 16  1  0
 16 17  2  0
 17 18  1  0
 18 19  1  0
 19 20  1  0
 19 21  1  0
 19 22  1  0
 22 23  1  0
 22 24  1  0
 22 25  1  0
 25 26  1  0
 13 27  2  0
 27 28  1  0
 27  6  1  0
 25 17  1  0
M  CHG  1   2  -1
M  END
>  <UniqueID>  (31) 
31

>  <SMILES>  (31) 
[NH-]S(=O)(=O)c1cccc(C(=O)/N=C2\NCCS2)c1

>  <Energy>  (31) 
40.56829652254034

>  <Genealogy>  (31) 
[NH-]S(=O)(=O)c1cccc(C(=O)N=C2NCCS2)c1 (protonated)
[NH-]S(=O)(=O)c1cccc(C(=O)/N=C2\NCCS2)c1 (cis-trans isomerization)
[NH-]S(=O)(=O)c1cccc(C(=O)/N=C2\NCCS2)c1 (3D coordinates assigned)
[NH-]S(=O)(=O)c1cccc(C(=O)/N=C2\NCCS2)c1 (nonaromatic ring conformer: 40.56829652254034 kcal/mol)

>  <smiles>  (31) 
NS(=O)(=O)c1cccc(C(=O)N=C2NCCS2)c1

>  <score_type>  (31) 
oracle

>  <origin>  (31) 
adg

>  <m_score__min__energy>  (31) 
-10.470000000000001

>  <m_primary>  (31) 
energy

$$$$
31:0
     RDKit          3D

 42 44  0  0  1  0  0  0  0  0999 V2000
   56.9680   30.7580   42.6860 C   0  0  0  0  0  0  0  0  0  0  0  0
   56.6640   30.8450   44.1650 C   0  0  0  0  0  0  0  0  0  0  0  0
   55.7020   30.1380   44.5210 O   0  0  0  0  0  0  0  0  0  0  0  0
   57.4820   31.7030   44.9900 C   0  0  0  0  0  0  0  0  0  0  0  0
   57.2210   33.0770   44.9020 C   0  0  0  0  0  0  0  0  0  0  0  0
   57.9460   34.0260   45.5780 C   0  0  0  0  0  0  0  0  0  0  0  0
   58.9720   33.5900   46.3740 C   0  0  0  0  0  0  0  0  0  0  0  0
   59.2360   32.2430   46.4680 C   0  0  0  0  0  0  0  0  0  0  0  0
   58.5120   31.2630   45.7920 C   0  0  0  0  0  0  0  0  0  0  0  0
   58.8970   29.8770   45.9530 C   0  0  0  0  0  0  0  0  0  0  0  0
   60.1770   29.5210   45.5040 C   0  0  0  0  0  0  0  0  0  0  0  0
   60.6170   28.1940   45.5920 C   0  0  0  0  0  0  0  0  0  0  0  0
   59.8410   27.2280   46.0980 N   0  0  0  0  0  0  0  0  0  0  0  0
   58.6030   27.6210   46.5210 C   0  0  0  0  0  0  0  0  0  0  0  0
   57.8810   26.6650   47.0090 N   0  0  0  0  0  0  0  0  0  0  0  0
   57.5290   25.5620   46.2290 C   0  0  0  0  0  0  0  0  0  0  0  0
   56.2770   25.3970   45.6400 C   0  0  0  0  0  0  0  0  0  0  0  0
   56.0000   24.2710   44.8760 C   0  0  0  0  0  0  0  0  0  0  0  0
   56.9210   23.2760   44.6590 C   0  0  0  0  0  0  0  0  0  0  0  0
   56.6120   21.8580   43.7120 S   0  0  0  0  0  0  0  0  0  0  0  0
   58.1190   21.0920   43.3160 N   0  0  0  0  0  0  0  0  0  0  0  0
   55.8070   20.8360   44.4630 O   0  0  0  0  0  0  0  0  0  0  0  0
   55.9330   22.1950   42.4250 O   0  0  0  0  0  0  0  0  0  0  0  0
   58.1740   23.4420   45.2480 C   0  0  0  0  0  0  0  0  0  0  0  0
   58.4530   24.5660   46.0130 C   0  0  0  0  0  0  0  0  0  0  0  0
   58.1740   28.8820   46.4430 N   0  0  0  0  0  0  0  0  0  0  0  0
   58.0167   30.4579   42.5443 H   0  0  0  0  0  0  0  0  0  0  0  0
   56.3071   30.0129   42.2190 H   0  0  0  0  0  0  0  0  0  0  0  0
   56.8013   31.7399   42.2190 H   0  0  0  0  0  0  0  0  0  0  0  0
   56.3936   33.4116   44.2589 H   0  0  0  0  0  0  0  0  0  0  0  0
   57.7120   35.0967   45.4842 H   0  0  0  0  0  0  0  0  0  0  0  0
   59.5818   34.3132   46.9353 H   0  0  0  0  0  0  0  0  0  0  0  0
   60.0663   31.9212   47.1139 H   0  0  0  0  0  0  0  0  0  0  0  0
   60.8402   30.2892   45.0797 H   0  0  0  0  0  0  0  0  0  0  0  0
   61.6262   27.9393   45.2361 H   0  0  0  0  0  0  0  0  0  0  0  0
   60.1740   26.2620   46.1560 H   0  0  0  0  0  0  0  0  0  0  0  0
   55.5020   26.1647   45.7813 H   0  0  0  0  0  0  0  0  0  0  0  0
   55.0012   24.1720   44.4259 H   0  0  0  0  0  0  0  0  0  0  0  0
   58.5470   20.7220   44.2110 H   0  0  0  0  0  0  0  0  0  0  0  0
   57.9300   20.2780   42.6800 H   0  0  0  0  0  0  0  0  0  0  0  0
   58.9490   22.6746   45.1049 H   0  0  0  0  0  0  0  0  0  0  0  0
   59.4515   24.6642   46.4640 H   0  0  0  0  0  0  0  0  0  0  0  0
  1  2  1  0
  2  3  2  0
  2  4  1  0
  4  5  2  0
  5  6  1  0
  6  7  2  0
  7  8  1  0
  8  9  2  0
  9 10  1  0
 10 11  1  0
 11 12  2  0
 12 13  1  0
 13 14  1  0
 14 15  2  0
 15 16  1  0
 16 17  2  0
 17 18  1  0
 18 19  2  0
 19 20  1  0
 20 21  1  0
 20 22  2  0
 20 23  2  0
 19 24  1  0
 24 25  2  0
 14 26  1  0
  9  4  1  0
 26 10  2  0
 25 16  1  0
  1 27  1  0
  1 28  1  0
  1 29  1  0
  5 30  1  0
  6 31  1  0
  7 32  1  0
  8 33  1  0
 11 34  1  0
 12 35  1  0
 13 36  1  0
 17 37  1  0
 18 38  1  0
 21 39  1  0
 21 40  1  0
 24 41  1  0
 25 42  1  0
M  END
>  <smiles>  (32) 
CC(=O)c1ccccc1-c1cc[nH]c(=Nc2ccc(S(N)(=O)=O)cc2)n1

>  <score_type>  (32) 
oracle

>  <origin>  (32) 
adg

>  <m_score__min__energy>  (32) 
-9.5399999999999991

>  <m_primary>  (32) 
energy

$$$$
32:0
     RDKit          3D

 43 45  0  0  0  0  0  0  0  0999 V2000
   58.2383   31.3550   44.0270 H   0  0  0  0  0  0  0  0  0  0  0  0
   57.4540   30.5840   44.0490 C   0  0  0  0  0  0  0  0  0  0  0  0
   56.5866   30.6625   43.3771 H   0  0  0  0  0  0  0  0  0  0  0  0
   57.5550   29.5520   44.8920 C   0  0  0  0  0  0  0  0  0  0  0  0
   58.5830   29.2500   45.8040 C   0  0  0  0  0  0  0  0  0  0  0  0
   59.7130   29.9020   46.1520 C   0  0  0  0  0  0  0  0  0  0  0  0
   60.5613   29.8098   45.4578 H   0  0  0  0  0  0  0  0  0  0  0  0
   59.9460   30.7410   47.3810 C   0  0  0  0  0  0  0  0  0  0  0  0
   59.2853   30.3789   48.1825 H   0  0  0  0  0  0  0  0  0  0  0  0
   61.0087   30.6438   47.6478 H   0  0  0  0  0  0  0  0  0  0  0  0
   59.6700   32.2110   47.1570 C   0  0  0  0  0  0  0  0  0  0  0  0
   60.4820   33.2030   47.7400 C   0  0  0  0  0  0  0  0  0  0  0  0
   61.3096   32.9120   48.4036 H   0  0  0  0  0  0  0  0  0  0  0  0
   60.2420   34.5560   47.4800 C   0  0  0  0  0  0  0  0  0  0  0  0
   60.8715   35.3253   47.9510 H   0  0  0  0  0  0  0  0  0  0  0  0
   59.2040   34.9330   46.6230 C   0  0  0  0  0  0  0  0  0  0  0  0
   59.0091   35.9982   46.4296 H   0  0  0  0  0  0  0  0  0  0  0  0
   58.4140   33.9550   46.0120 C   0  0  0  0  0  0  0  0  0  0  0  0
   57.1180   34.4280   44.9260 Cl  0  0  0  0  0  0  0  0  0  0  0  0
   58.6530   32.6010   46.2670 C   0  0  0  0  0  0  0  0  0  0  0  0
   58.0411   31.8352   45.7679 H   0  0  0  0  0  0  0  0  0  0  0  0
   58.2160   28.0490   46.3940 C   0  0  0  0  0  0  0  0  0  0  0  0
   58.7797   27.5006   47.1631 H   0  0  0  0  0  0  0  0  0  0  0  0
   57.0120   27.6710   45.8360 C   0  0  0  0  0  0  0  0  0  0  0  0
   56.2520   26.4640   46.2240 C   0  0  0  0  0  0  0  0  0  0  0  0
   56.8270   25.5880   46.9200 O   0  0  0  0  0  0  0  0  0  0  0  0
   54.9090   26.2150   45.7870 N   0  0  0  0  0  0  0  0  0  0  0  0
   54.2830   24.9060   45.6470 C   0  0  0  0  0  0  0  0  0  0  0  0
   54.0382   24.5072   46.6425 H   0  0  0  0  0  0  0  0  0  0  0  0
   53.3604   24.9996   45.0553 H   0  0  0  0  0  0  0  0  0  0  0  0
   55.2340   23.9740   44.9530 C   0  0  0  0  0  0  0  0  0  0  0  0
   55.1940   22.5950   45.2100 C   0  0  0  0  0  0  0  0  0  0  0  0
   54.4636   22.1847   45.9229 H   0  0  0  0  0  0  0  0  0  0  0  0
   56.0880   21.7490   44.5540 C   0  0  0  0  0  0  0  0  0  0  0  0
   56.0718   20.6675   44.7543 H   0  0  0  0  0  0  0  0  0  0  0  0
   57.0030   22.2780   43.6430 C   0  0  0  0  0  0  0  0  0  0  0  0
   57.7124   21.6185   43.1216 H   0  0  0  0  0  0  0  0  0  0  0  0
   57.0090   23.6530   43.4000 C   0  0  0  0  0  0  0  0  0  0  0  0
   57.7231   24.0798   42.6803 H   0  0  0  0  0  0  0  0  0  0  0  0
   56.1340   24.4660   44.0510 N   0  0  0  0  0  0  0  0  0  0  0  0
   56.1610   25.4920   43.8500 H   0  0  0  0  0  0  0  0  0  0  0  0
   56.6070   28.5900   44.9410 N   0  0  0  0  0  0  0  0  0  0  0  0
   55.7110   28.5920   44.4090 H   0  0  0  0  0  0  0  0  0  0  0  0
  1  2  1  0
  2  3  1  0
  2  4  2  0
  4  5  1  0
  5  6  2  0
  6  7  1  0
  6  8  1  0
  8  9  1  0
  8 10  1  0
  8 11  1  0
 11 12  2  0
 12 13  1  0
 12 14  1  0
 14 15  1  0
 14 16  2  0
 16 17  1  0
 16 18  1  0
 18 19  1  0
 18 20  2  0
 20 21  1  0
  5 22  1  0
 22 23  1  0
 22 24  2  0
 24 25  1  0
 25 26  2  0
 25 27  1  0
 27 28  1  0
 28 29  1  0
 28 30  1  0
 28 31  1  0
 31 32  2  0
 32 33  1  0
 32 34  1  0
 34 35  1  0
 34 36  2  0
 36 37  1  0
 36 38  1  0
 38 39  1  0
 38 40  2  0
 40 41  1  0
 24 42  1  0
 42 43  1  0
 42  4  1  0
 20 11  1  0
 40 31  1  0
M  CHG  2  27  -1  40   1
M  END
>  <UniqueID>  (33) 
32

>  <SMILES>  (33) 
C=c1[nH]c(C(=O)[N-]Cc2cccc[nH+]2)c/c1=C/Cc1cccc(Cl)c1

>  <Energy>  (33) 
80.37050529737063

>  <Genealogy>  (33) 
C=c1[nH]c(C(=O)[N-]Cc2cccc[nH+]2)cc1=CCc1cccc(Cl)c1 (protonated)
C=c1[nH]c(C(=O)[N-]Cc2cccc[nH+]2)c/c1=C/Cc1cccc(Cl)c1 (cis-trans isomerization)
C=c1[nH]c(C(=O)[N-]Cc2cccc[nH+]2)c/c1=C/Cc1cccc(Cl)c1 (3D coordinates assigned)
C=c1[nH]c(C(=O)[N-]Cc2cccc[nH+]2)c/c1=C/Cc1cccc(Cl)c1 (optimized conformer: 80.37050529737063 kcal/mol)

>  <smiles>  (33) 
C=c1[nH]c(C(=O)NCc2ccccn2)cc1=CCc1cccc(Cl)c1

>  <score_type>  (33) 
oracle

>  <origin>  (33) 
adg

>  <m_score__min__energy>  (33) 
-9

>  <m_primary>  (33) 
energy

$$$$
33:0
     RDKit          3D

 55 58  0  0  0  0  0  0  0  0999 V2000
   59.0123   30.9511   48.7631 H   0  0  0  0  0  0  0  0  0  0  0  0
   58.8670   30.1440   48.0300 C   0  0  0  0  0  0  0  0  0  0  0  0
   58.9521   29.0934   48.3446 H   0  0  0  0  0  0  0  0  0  0  0  0
   58.5860   30.4410   46.7520 C   0  0  0  0  0  0  0  0  0  0  0  0
   58.3770   29.5260   45.7160 C   0  0  0  0  0  0  0  0  0  0  0  0
   58.5130   28.1870   45.7720 C   0  0  0  0  0  0  0  0  0  0  0  0
   59.5268   27.7682   45.6893 H   0  0  0  0  0  0  0  0  0  0  0  0
   57.3900   27.2480   45.9370 C   0  0  0  0  0  0  0  0  0  0  0  0
   57.5050   26.0670   46.5700 N   0  0  0  0  0  0  0  0  0  0  0  0
   56.2420   25.5840   46.5670 C   0  0  0  0  0  0  0  0  0  0  0  0
   55.9420   24.4700   47.0690 O   0  0  0  0  0  0  0  0  0  0  0  0
   55.3270   26.3960   45.9950 N   0  0  0  0  0  0  0  0  0  0  0  0
   56.0650   27.4500   45.6140 C   0  0  0  0  0  0  0  0  0  0  0  0
   55.5280   28.5930   45.0320 O   0  0  0  0  0  0  0  0  0  0  0  0
   58.0480   30.2760   44.5930 C   0  0  0  0  0  0  0  0  0  0  0  0
   57.8168   29.8897   43.5893 H   0  0  0  0  0  0  0  0  0  0  0  0
   58.0680   31.6010   44.9830 C   0  0  0  0  0  0  0  0  0  0  0  0
   57.7920   32.7640   44.0790 C   0  0  0  0  0  0  0  0  0  0  0  0
   57.5800   33.6572   44.6850 H   0  0  0  0  0  0  0  0  0  0  0  0
   58.6706   32.9516   43.4442 H   0  0  0  0  0  0  0  0  0  0  0  0
   56.9228   32.5368   43.4442 H   0  0  0  0  0  0  0  0  0  0  0  0
   58.4040   31.7030   46.2870 N   0  0  0  0  0  0  0  0  0  0  0  0
   58.5540   32.9310   47.0210 C   0  0  0  0  0  0  0  0  0  0  0  0
   57.5270   33.5770   47.3670 O   0  0  0  0  0  0  0  0  0  0  0  0
   59.8580   33.4170   47.3780 N   0  0  0  0  0  0  0  0  0  0  0  0
   60.0370   34.1320   48.6500 C   0  0  0  0  0  0  0  0  0  0  0  0
   59.4991   35.0902   48.6003 H   0  0  0  0  0  0  0  0  0  0  0  0
   59.6398   33.5018   49.4593 H   0  0  0  0  0  0  0  0  0  0  0  0
   61.5170   34.4060   48.9360 C   0  0  0  0  0  0  0  0  0  0  0  0
   61.8478   35.2754   48.3489 H   0  0  0  0  0  0  0  0  0  0  0  0
   61.6482   34.6123   50.0085 H   0  0  0  0  0  0  0  0  0  0  0  0
   62.3200   33.2320   48.5650 N   0  0  0  0  0  0  0  0  0  0  0  0
   63.1680   32.5780   49.5260 C   0  0  0  0  0  0  0  0  0  0  0  0
   63.9050   31.6180   49.1660 O   0  0  0  0  0  0  0  0  0  0  0  0
   63.1510   32.9790   50.8680 O   0  0  0  0  0  0  0  0  0  0  0  0
   62.4490   32.2670   51.8870 C   0  0  0  0  0  0  0  0  0  0  0  0
   62.7170   31.2013   51.8379 H   0  0  0  0  0  0  0  0  0  0  0  0
   62.7259   32.6753   52.8702 H   0  0  0  0  0  0  0  0  0  0  0  0
   60.9640   32.4180   51.6880 C   0  0  0  0  0  0  0  0  0  0  0  0
   60.2820   33.5380   52.1960 C   0  0  0  0  0  0  0  0  0  0  0  0
   60.8416   34.3344   52.7085 H   0  0  0  0  0  0  0  0  0  0  0  0
   58.8950   33.6430   52.0520 C   0  0  0  0  0  0  0  0  0  0  0  0
   58.3670   34.5232   52.4476 H   0  0  0  0  0  0  0  0  0  0  0  0
   58.1780   32.6310   51.4060 C   0  0  0  0  0  0  0  0  0  0  0  0
   57.0866   32.7139   51.2961 H   0  0  0  0  0  0  0  0  0  0  0  0
   58.8490   31.5140   50.9000 C   0  0  0  0  0  0  0  0  0  0  0  0
   58.2852   30.7194   50.3894 H   0  0  0  0  0  0  0  0  0  0  0  0
   60.2370   31.4050   51.0420 C   0  0  0  0  0  0  0  0  0  0  0  0
   60.7606   30.5223   50.6460 H   0  0  0  0  0  0  0  0  0  0  0  0
   62.1940   32.6650   47.2130 C   0  0  0  0  0  0  0  0  0  0  0  0
   63.1122   32.8826   46.6476 H   0  0  0  0  0  0  0  0  0  0  0  0
   62.0389   31.5801   47.3080 H   0  0  0  0  0  0  0  0  0  0  0  0
   60.9950   33.2570   46.4620 C   0  0  0  0  0  0  0  0  0  0  0  0
   61.2718   34.2386   46.0499 H   0  0  0  0  0  0  0  0  0  0  0  0
   60.7085   32.5773   45.6460 H   0  0  0  0  0  0  0  0  0  0  0  0
  1  2  1  0
  2  3  1  0
  2  4  2  0
  4  5  1  0
  5  6  2  0
  6  7  1  0
  6  8  1  0
  8  9  1  0
  9 10  1  0
 10 11  2  0
 10 12  1  0
 12 13  1  0
 13 14  1  0
  5 15  1  0
 15 16  1  0
 15 17  2  0
 17 18  1  0
 18 19  1  0
 18 20  1  0
 18 21  1  0
 17 22  1  0
 22 23  1  0
 23 24  2  0
 23 25  1  0
 25 26  1  0
 26 27  1  0
 26 28  1  0
 26 29  1  0
 29 30  1  0
 29 31  1  0
 29 32  1  0
 32 33  1  0
 33 34  2  0
 33 35  1  0
 35 36  1  0
 36 37  1  0
 36 38  1  0
 36 39  1  0
 39 40  2  0
 40 41  1  0
 40 42  1  0
 42 43  1  0
 42 44  2  0
 44 45  1  0
 44 46  1  0
 46 47  1  0
 46 48  2  0
 48 49  1  0
 32 50  1  0
 50 51  1  0
 50 52  1  0
 50 53  1  0
 53 54  1  0
 53 55  1  0
 22  4  1  0
 53 25  1  0
 13  8  2  0
 48 39  1  0
M  CHG  3   9  -1  12  -1  14  -1
M  END
>  <UniqueID>  (34) 
33

>  <SMILES>  (34) 
C=c1/c(=C/c2[n-]c(=O)[n-]c2[O-])cc(C)n1C(=O)N1CCN(C(=O)OCc2ccccc2)CC1

>  <Energy>  (34) 
126.54577166524224

>  <Genealogy>  (34) 
C=c1c(=Cc2[n-]c(=O)[n-]c2[O-])cc(C)n1C(=O)N1CCN(C(=O)OCc2ccccc2)CC1 (protonated)
C=c1/c(=C/c2[n-]c(=O)[n-]c2[O-])cc(C)n1C(=O)N1CCN(C(=O)OCc2ccccc2)CC1 (cis-trans isomerization)
C=c1/c(=C/c2[n-]c(=O)[n-]c2[O-])cc(C)n1C(=O)N1CCN(C(=O)OCc2ccccc2)CC1 (3D coordinates assigned)
C=c1/c(=C/c2[n-]c(=O)[n-]c2[O-])cc(C)n1C(=O)N1CCN(C(=O)OCc2ccccc2)CC1 (nonaromatic ring conformer: 126.54577166524224 kcal/mol)

>  <smiles>  (34) 
C=c1c(=Cc2[nH]c(=O)[nH]c2O)cc(C)n1C(=O)N1CCN(C(=O)OCc2ccccc2)CC1

>  <score_type>  (34) 
oracle

>  <origin>  (34) 
adg

>  <m_score__min__energy>  (34) 
-17.75

>  <m_primary>  (34) 
energy

$$$$
34:0
     RDKit          3D

 80 83  0  0  0  0  0  0  0  0999 V2000
   64.3920   33.9280   51.3480 C   0  0  0  0  0  0  0  0  0  0  0  0
   64.2270   32.9150   50.3070 N   0  0  0  0  0  0  0  0  0  0  0  0
   64.8790   31.6130   50.4450 C   0  0  0  0  0  0  0  0  0  0  0  0
   63.4550   33.1990   49.1270 C   0  0  0  0  0  0  0  0  0  0  0  0
   64.1150   33.3690   47.9010 C   0  0  0  0  0  0  0  0  0  0  0  0
   63.3890   33.6440   46.7400 C   0  0  0  0  0  0  0  0  0  0  0  0
   62.0000   33.7600   46.7930 C   0  0  0  0  0  0  0  0  0  0  0  0
   61.3310   33.5980   48.0090 C   0  0  0  0  0  0  0  0  0  0  0  0
   62.0450   33.3000   49.1860 C   0  0  0  0  0  0  0  0  0  0  0  0
   61.3650   33.2130   50.4510 N   0  0  0  0  0  0  0  0  0  0  0  0
   60.1120   33.8590   50.7410 C   0  0  0  0  0  0  0  0  0  0  0  0
   59.4660   34.4320   49.8240 O   0  0  0  0  0  0  0  0  0  0  0  0
   59.6070   33.8890   52.1630 C   0  0  0  0  0  0  0  0  0  0  0  0
   59.7480   32.5720   52.9710 C   0  0  2  0  0  0  0  0  0  0  0  0
   60.2930   31.4400   52.2120 N   0  0  0  0  0  0  0  0  0  0  0  0
   61.4830   30.6790   52.4720 C   0  0  0  0  0  0  0  0  0  0  0  0
   62.5850   31.2650   52.6500 O   0  0  0  0  0  0  0  0  0  0  0  0
   61.4080   29.2000   52.5500 C   0  0  0  0  0  0  0  0  0  0  0  0
   62.5140   28.4530   52.0950 C   0  0  0  0  0  0  0  0  0  0  0  0
   62.4590   27.0610   52.0340 C   0  0  0  0  0  0  0  0  0  0  0  0
   61.3000   26.3890   52.4170 C   0  0  0  0  0  0  0  0  0  0  0  0
   60.1990   27.1070   52.8850 C   0  0  0  0  0  0  0  0  0  0  0  0
   60.2450   28.5070   52.9870 C   0  0  0  0  0  0  0  0  0  0  0  0
   59.1350   29.1840   53.5930 N   0  0  0  0  0  0  0  0  0  0  0  0
   58.5360   32.2450   53.8280 C   0  0  0  0  0  0  0  0  0  0  0  0
   58.5930   32.5620   55.0470 O   0  0  0  0  0  0  0  0  0  0  0  0
   57.3050   31.6720   53.3540 N   0  0  0  0  0  0  0  0  0  0  0  0
   57.0510   30.8740   52.1550 C   0  0  2  0  0  0  0  0  0  0  0  0
   57.3770   31.7240   50.9150 C   0  0  0  0  0  0  0  0  0  0  0  0
   58.3220   31.0110   49.9790 C   0  0  0  0  0  0  0  0  0  0  0  0
   58.7270   31.6150   48.7760 C   0  0  0  0  0  0  0  0  0  0  0  0
   59.5920   30.9430   47.9050 C   0  0  0  0  0  0  0  0  0  0  0  0
   60.0450   29.6590   48.2190 C   0  0  0  0  0  0  0  0  0  0  0  0
   59.6490   29.0510   49.4150 C   0  0  0  0  0  0  0  0  0  0  0  0
   58.7970   29.7240   50.2950 C   0  0  0  0  0  0  0  0  0  0  0  0
   55.6170   30.4130   52.1220 C   0  0  0  0  0  0  0  0  0  0  0  0
   55.3370   29.1900   52.2700 O   0  0  0  0  0  0  0  0  0  0  0  0
   54.6000   31.3600   51.9670 O   0  0  0  0  0  0  0  0  0  0  0  0
   53.3260   31.0400   51.4190 C   0  0  0  0  0  0  0  0  0  0  0  0
   52.2630   31.3050   52.4490 C   0  0  0  0  0  0  0  0  0  0  0  0
   52.3550   30.7110   53.7200 C   0  0  0  0  0  0  0  0  0  0  0  0
   51.3410   30.9020   54.6630 C   0  0  0  0  0  0  0  0  0  0  0  0
   50.2240   31.6740   54.3440 C   0  0  0  0  0  0  0  0  0  0  0  0
   50.1230   32.2710   53.0830 C   0  0  0  0  0  0  0  0  0  0  0  0
   51.1390   32.0940   52.1380 C   0  0  0  0  0  0  0  0  0  0  0  0
   51.0270   32.7090   50.8940 O   0  0  0  0  0  0  0  0  0  0  0  0
   64.3147   33.4532   52.3372 H   0  0  0  0  0  0  0  0  0  0  0  0
   65.3792   34.4021   51.2450 H   0  0  0  0  0  0  0  0  0  0  0  0
   63.6063   34.6909   51.2450 H   0  0  0  0  0  0  0  0  0  0  0  0
   64.9986   31.3741   51.5121 H   0  0  0  0  0  0  0  0  0  0  0  0
   64.2613   30.8407   49.9634 H   0  0  0  0  0  0  0  0  0  0  0  0
   65.8674   31.6450   49.9634 H   0  0  0  0  0  0  0  0  0  0  0  0
   65.2108   33.2852   47.8537 H   0  0  0  0  0  0  0  0  0  0  0  0
   63.9139   33.7694   45.7815 H   0  0  0  0  0  0  0  0  0  0  0  0
   61.4312   33.9790   45.8773 H   0  0  0  0  0  0  0  0  0  0  0  0
   60.2368   33.7042   48.0474 H   0  0  0  0  0  0  0  0  0  0  0  0
   61.7900   32.6160   51.1970 H   0  0  0  0  0  0  0  0  0  0  0  0
   60.1626   34.6723   52.6994 H   0  0  0  0  0  0  0  0  0  0  0  0
   58.5249   34.0711   52.0859 H   0  0  0  0  0  0  0  0  0  0  0  0
   60.5436   32.7836   53.7005 H   0  0  0  0  0  0  0  0  0  0  0  0
   63.4313   28.9747   51.7844 H   0  0  0  0  0  0  0  0  0  0  0  0
   63.3325   26.4921   51.6827 H   0  0  0  0  0  0  0  0  0  0  0  0
   61.2530   25.2920   52.3504 H   0  0  0  0  0  0  0  0  0  0  0  0
   59.2844   26.5704   53.1774 H   0  0  0  0  0  0  0  0  0  0  0  0
   58.4310   28.6800   54.1730 H   0  0  0  0  0  0  0  0  0  0  0  0
   58.9250   30.1790   53.3490 H   0  0  0  0  0  0  0  0  0  0  0  0
   57.6906   29.9791   52.1642 H   0  0  0  0  0  0  0  0  0  0  0  0
   56.4423   31.9435   50.3781 H   0  0  0  0  0  0  0  0  0  0  0  0
   57.8653   32.6496   51.2539 H   0  0  0  0  0  0  0  0  0  0  0  0
   58.3624   32.6203   48.5181 H   0  0  0  0  0  0  0  0  0  0  0  0
   59.9159   31.4265   46.9715 H   0  0  0  0  0  0  0  0  0  0  0  0
   60.7128   29.1264   47.5259 H   0  0  0  0  0  0  0  0  0  0  0  0
   60.0088   28.0416   49.6632 H   0  0  0  0  0  0  0  0  0  0  0  0
   58.4962   29.2459   51.2389 H   0  0  0  0  0  0  0  0  0  0  0  0
   53.1409   31.6622   50.5310 H   0  0  0  0  0  0  0  0  0  0  0  0
   53.3042   29.9787   51.1306 H   0  0  0  0  0  0  0  0  0  0  0  0
   53.2290   30.0931   53.9735 H   0  0  0  0  0  0  0  0  0  0  0  0
   51.4242   30.4424   55.6589 H   0  0  0  0  0  0  0  0  0  0  0  0
   49.4223   31.8134   55.0842 H   0  0  0  0  0  0  0  0  0  0  0  0
   49.2423   32.8812   52.8339 H   0  0  0  0  0  0  0  0  0  0  0  0
  1  2  1  0
  2  3  1  0
  2  4  1  0
  4  5  2  0
  5  6  1  0
  6  7  2  0
  7  8  1  0
  8  9  2  0
  9 10  1  0
 10 11  1  0
 11 12  2  0
 11 13  1  0
 13 14  1  0
 14 15  1  0
 15 16  1  0
 16 17  2  0
 16 18  1  0
 18 19  2  0
 19 20  1  0
 20 21  2  0
 21 22  1  0
 22 23  2  0
 23 24  1  0
 14 25  1  0
 25 26  2  0
 25 27  1  0
 27 28  1  0
 28 29  1  0
 29 30  1  0
 30 31  2  0
 31 32  1  0
 32 33  2  0
 33 34  1  0
 34 35  2  0
 28 36  1  0
 36 37  2  0
 36 38  1  0
 38 39  1  0
 39 40  1  0
 40 41  2  0
 41 42  1  0
 42 43  2  0
 43 44  1  0
 44 45  2  0
 45 46  1  0
  9  4  1  0
 23 18  1  0
 35 30  1  0
 45 40  1  0
  1 47  1  0
  1 48  1  0
  1 49  1  0
  3 50  1  0
  3 51  1  0
  3 52  1  0
  5 53  1  0
  6 54  1  0
  7 55  1  0
  8 56  1  0
 10 57  1  0
 13 58  1  0
 13 59  1  0
 14 60  1  1
 19 61  1  0
 20 62  1  0
 21 63  1  0
 22 64  1  0
 24 65  1  0
 24 66  1  0
 28 67  1  1
 29 68  1  0
 29 69  1  0
 31 70  1  0
 32 71  1  0
 33 72  1  0
 34 73  1  0
 35 74  1  0
 39 75  1  0
 39 76  1  0
 41 77  1  0
 42 78  1  0
 43 79  1  0
 44 80  1  0
M  CHG  3  15  -1  27  -1  46  -1
M  END
>  <UniqueID>  (35) 
34

>  <SMILES>  (35) 
CN(C)c1ccccc1NC(=O)C[C@H]([N-]C(=O)c1ccccc1N)C(=O)[N-][C@H](Cc1ccccc1)C(=O)OCc1ccccc1[O-]

>  <Energy>  (35) 
96.03758971713007

>  <Genealogy>  (35) 
CN(C)c1ccccc1NC(=O)CC([N-]C(=O)c1ccccc1N)C(=O)[N-]C(Cc1ccccc1)C(=O)OCc1ccccc1[O-] (protonated)
CN(C)c1ccccc1NC(=O)C[C@H]([N-]C(=O)c1ccccc1N)C(=O)[N-][C@H](Cc1ccccc1)C(=O)OCc1ccccc1[O-] (chirality)
CN(C)c1ccccc1NC(=O)C[C@H]([N-]C(=O)c1ccccc1N)C(=O)[N-][C@H](Cc1ccccc1)C(=O)OCc1ccccc1[O-] (3D coordinates assigned)
CN(C)c1ccccc1NC(=O)C[C@H]([N-]C(=O)c1ccccc1N)C(=O)[N-][C@H](Cc1ccccc1)C(=O)OCc1ccccc1[O-] (optimized conformer: 96.03758971713007 kcal/mol)

>  <smiles>  (35) 
CN(C)c1ccccc1NC(=O)CC(NC(=O)c1ccccc1N)C(=O)NC(Cc1ccccc1)C(=O)OCc1ccccc1O

>  <score_type>  (35) 
oracle

>  <origin>  (35) 
adg

>  <m_score__min__energy>  (35) 
-16.140000000000001

>  <m_primary>  (35) 
energy

$$$$
35:0
     RDKit          3D

 62 66  0  0  0  0  0  0  0  0999 V2000
   59.5030   28.6280   48.6790 C   0  0  0  0  0  0  0  0  0  0  0  0
   59.0470   29.5680   47.8300 C   0  0  0  0  0  0  0  0  0  0  0  0
   58.6410   29.3250   46.5140 C   0  0  0  0  0  0  0  0  0  0  0  0
   58.5220   28.1320   45.8950 C   0  0  0  0  0  0  0  0  0  0  0  0
   57.3790   27.2200   46.0780 C   0  0  0  0  0  0  0  0  0  0  0  0
   57.4980   25.9800   46.5830 N   0  0  0  0  0  0  0  0  0  0  0  0
   56.2440   25.4850   46.4990 C   0  0  0  0  0  0  0  0  0  0  0  0
   55.9440   24.3290   46.8940 O   0  0  0  0  0  0  0  0  0  0  0  0
   55.3400   26.3240   45.9500 N   0  0  0  0  0  0  0  0  0  0  0  0
   56.0760   27.4140   45.6760 C   0  0  0  0  0  0  0  0  0  0  0  0
   55.5760   28.5430   45.0370 O   0  0  0  0  0  0  0  0  0  0  0  0
   58.3350   30.5540   45.9720 C   0  0  0  0  0  0  0  0  0  0  0  0
   58.5500   31.4920   46.9560 C   0  0  0  0  0  0  0  0  0  0  0  0
   58.3340   32.9200   46.7100 C   0  0  0  0  0  0  0  0  0  0  0  0
   57.2730   33.4590   47.1170 O   0  0  0  0  0  0  0  0  0  0  0  0
   59.3430   33.7340   46.0970 N   0  0  0  0  0  0  0  0  0  0  0  0
   60.5320   34.2420   46.7830 C   0  0  0  0  0  0  0  0  0  0  0  0
   60.2920   34.1990   48.3030 C   0  0  0  0  0  0  0  0  0  0  0  0
   61.6280   34.2180   49.0570 C   0  0  0  0  0  0  0  0  0  0  0  0
   62.4860   33.0480   48.7430 N   0  0  0  0  0  0  0  0  0  0  0  0
   63.9030   33.3910   49.0530 C   0  0  0  0  0  0  0  0  0  0  0  0
   64.2230   33.4430   50.5400 C   0  0  0  0  0  0  0  0  0  0  0  0
   64.8390   32.3530   49.6680 C   0  0  0  0  0  0  0  0  0  0  0  0
   62.1710   32.4030   47.4370 C   0  0  0  0  0  0  0  0  0  0  0  0
   61.7820   33.4300   46.3660 C   0  0  0  0  0  0  0  0  0  0  0  0
   58.9690   30.9050   48.1140 N   0  0  0  0  0  0  0  0  0  0  0  0
   59.3600   31.5240   49.4130 C   0  0  0  0  0  0  0  0  0  0  0  0
   58.1630   31.5980   50.3870 C   0  0  0  0  0  0  0  0  0  0  0  0
   58.0780   30.3970   51.3260 C   0  0  0  0  0  0  0  0  0  0  0  0
   59.3720   30.2620   52.1220 C   0  0  0  0  0  0  0  0  0  0  0  0
   60.5480   29.9750   51.1900 C   0  0  0  0  0  0  0  0  0  0  0  0
   60.6840   31.0100   50.0540 C   0  0  0  0  0  0  0  0  0  0  0  0
   59.8019   28.9075   49.7000 H   0  0  0  0  0  0  0  0  0  0  0  0
   59.5767   27.5804   48.3517 H   0  0  0  0  0  0  0  0  0  0  0  0
   59.3268   27.8214   45.2125 H   0  0  0  0  0  0  0  0  0  0  0  0
   54.7190   28.9790   45.3540 H   0  0  0  0  0  0  0  0  0  0  0  0
   57.9853   30.7487   44.9474 H   0  0  0  0  0  0  0  0  0  0  0  0
   60.7186   35.2867   46.4935 H   0  0  0  0  0  0  0  0  0  0  0  0
   59.6956   35.0741   48.6005 H   0  0  0  0  0  0  0  0  0  0  0  0
   59.7548   33.2722   48.5530 H   0  0  0  0  0  0  0  0  0  0  0  0
   62.1715   35.1348   48.7848 H   0  0  0  0  0  0  0  0  0  0  0  0
   61.4002   34.1808   50.1325 H   0  0  0  0  0  0  0  0  0  0  0  0
   63.9985   34.0470   48.1752 H   0  0  0  0  0  0  0  0  0  0  0  0
   64.8547   34.2507   50.9384 H   0  0  0  0  0  0  0  0  0  0  0  0
   63.6254   33.4542   51.4635 H   0  0  0  0  0  0  0  0  0  0  0  0
   65.9141   32.3753   49.4363 H   0  0  0  0  0  0  0  0  0  0  0  0
   64.8696   31.2539   49.7005 H   0  0  0  0  0  0  0  0  0  0  0  0
   63.0565   31.8489   47.0922 H   0  0  0  0  0  0  0  0  0  0  0  0
   61.3139   31.7304   47.5890 H   0  0  0  0  0  0  0  0  0  0  0  0
   62.6229   34.1224   46.2132 H   0  0  0  0  0  0  0  0  0  0  0  0
   61.5464   32.8876   45.4385 H   0  0  0  0  0  0  0  0  0  0  0  0
   59.6378   32.5578   49.1599 H   0  0  0  0  0  0  0  0  0  0  0  0
   58.2616   32.5102   50.9938 H   0  0  0  0  0  0  0  0  0  0  0  0
   57.2462   31.6039   49.7792 H   0  0  0  0  0  0  0  0  0  0  0  0
   57.2365   30.5369   52.0205 H   0  0  0  0  0  0  0  0  0  0  0  0
   57.9243   29.4847   50.7310 H   0  0  0  0  0  0  0  0  0  0  0  0
   59.5617   31.1993   52.6656 H   0  0  0  0  0  0  0  0  0  0  0  0
   59.2679   29.4265   52.8299 H   0  0  0  0  0  0  0  0  0  0  0  0
   61.4746   29.9815   51.7828 H   0  0  0  0  0  0  0  0  0  0  0  0
   60.3660   28.9959   50.7228 H   0  0  0  0  0  0  0  0  0  0  0  0
   61.2183   31.8818   50.4596 H   0  0  0  0  0  0  0  0  0  0  0  0
   61.2113   30.4834   49.2449 H   0  0  0  0  0  0  0  0  0  0  0  0
  1  2  2  0
  2  3  1  0
  3  4  2  3
  4  5  1  0
  5  6  1  0
  6  7  1  0
  7  8  2  0
  7  9  1  0
  9 10  1  0
 10 11  1  0
  3 12  1  0
 12 13  2  0
 13 14  1  0
 14 15  2  0
 14 16  1  0
 16 17  1  0
 17 18  1  0
 18 19  1  0
 19 20  1  0
 20 21  1  0
 21 22  1  0
 22 23  1  0
 20 24  1  0
 24 25  1  0
 13 26  1  0
 26 27  1  0
 27 28  1  0
 28 29  1  0
 29 30  1  0
 30 31  1  0
 31 32  1  0
 26  2  1  0
 32 27  1  0
 10  5  2  0
 25 17  1  0
 23 21  1  0
  1 33  1  0
  1 34  1  0
  4 35  1  0
 11 36  1  0
 12 37  1  0
 17 38  1  0
 18 39  1  0
 18 40  1  0
 19 41  1  0
 19 42  1  0
 21 43  1  0
 22 44  1  0
 22 45  1  0
 23 46  1  0
 23 47  1  0
 24 48  1  0
 24 49  1  0
 25 50  1  0
 25 51  1  0
 27 52  1  0
 28 53  1  0
 28 54  1  0
 29 55  1  0
 29 56  1  0
 30 57  1  0
 30 58  1  0
 31 59  1  0
 31 60  1  0
 32 61  1  0
 32 62  1  0
M  CHG  3   6  -1   9  -1  16  -1
M  END
>  <UniqueID>  (36) 
35

>  <SMILES>  (36) 
C=c1c(=Cc2[n-]c(=O)[n-]c2O)cc(C(=O)[N-]C2CCN(C3CC3)CC2)n1C1CCCCC1

>  <Energy>  (36) 
425.8031684367641

>  <Genealogy>  (36) 
C=c1c(=Cc2[n-]c(=O)[n-]c2O)cc(C(=O)[N-]C2CCN(C3CC3)CC2)n1C1CCCCC1 (protonated)
C=c1c(=Cc2[n-]c(=O)[n-]c2O)cc(C(=O)[N-]C2CCN(C3CC3)CC2)n1C1CCCCC1 (3D coordinates assigned)
C=c1c(=Cc2[n-]c(=O)[n-]c2O)cc(C(=O)[N-]C2CCN(C3CC3)CC2)n1C1CCCCC1 (nonaromatic ring conformer: 425.8031684367641 kcal/mol)

>  <smiles>  (36) 
C=c1c(=Cc2[nH]c(=O)[nH]c2O)cc(C(=O)NC2CCN(C3CC3)CC2)n1C1CCCCC1

>  <score_type>  (36) 
oracle

>  <origin>  (36) 
adg

>  <m_score__min__energy>  (36) 
-15.19

>  <m_primary>  (36) 
energy

$$$$
36:0
     RDKit          3D

 45 47  0  0  0  0  0  0  0  0999 V2000
   60.3250   28.2060   50.4390 C   0  0  0  0  0  0  0  0  0  0  0  0
   60.5850   28.9310   49.1600 C   0  0  0  0  0  0  0  0  0  0  0  0
   61.3140   30.0960   49.0240 C   0  0  0  0  0  0  0  0  0  0  0  0
   61.1350   30.4640   47.7020 C   0  0  0  0  0  0  0  0  0  0  0  0
   61.5570   31.7830   47.1300 C   0  0  0  0  0  0  0  0  0  0  0  0
   60.3370   29.5520   47.0930 N   0  0  0  0  0  0  0  0  0  0  0  0
   59.7390   29.6500   45.7540 C   0  0  0  0  0  0  0  0  0  0  0  0
   58.9060   30.9380   45.4980 C   0  0  2  0  0  0  0  0  0  0  0  0
   58.5270   31.7540   46.7450 C   0  0  0  0  0  0  0  0  0  0  0  0
   57.7150   33.0250   46.3840 C   0  0  0  0  0  0  0  0  0  0  0  0
   57.5590   33.2570   44.8670 C   0  0  0  0  0  0  0  0  0  0  0  0
   57.0490   31.9900   44.1540 C   0  0  0  0  0  0  0  0  0  0  0  0
   57.7050   30.7680   44.6580 N   0  0  0  0  0  0  0  0  0  0  0  0
   56.9000   29.5800   44.7040 C   0  0  0  0  0  0  0  0  0  0  0  0
   55.6570   29.6700   44.8900 O   0  0  0  0  0  0  0  0  0  0  0  0
   57.5050   28.2430   44.3960 C   0  0  0  0  0  0  0  0  0  0  0  0
   57.5090   27.3730   45.6140 C   0  0  0  0  0  0  0  0  0  0  0  0
   58.6070   27.0910   46.3390 N   0  0  0  0  0  0  0  0  0  0  0  0
   58.1430   26.2500   47.2900 C   0  0  0  0  0  0  0  0  0  0  0  0
   58.8860   25.7590   48.1790 O   0  0  0  0  0  0  0  0  0  0  0  0
   56.8230   25.9770   47.2110 N   0  0  0  0  0  0  0  0  0  0  0  0
   56.4380   26.6940   46.1430 C   0  0  0  0  0  0  0  0  0  0  0  0
   55.1370   26.7200   45.6570 O   0  0  0  0  0  0  0  0  0  0  0  0
   59.9810   28.6450   47.9920 N   0  0  0  0  0  0  0  0  0  0  0  0
   60.5611   28.8642   51.2881 H   0  0  0  0  0  0  0  0  0  0  0  0
   59.2658   27.9130   50.4856 H   0  0  0  0  0  0  0  0  0  0  0  0
   60.9566   27.3066   50.4856 H   0  0  0  0  0  0  0  0  0  0  0  0
   61.9043   30.6149   49.7936 H   0  0  0  0  0  0  0  0  0  0  0  0
   61.7809   32.4829   47.9486 H   0  0  0  0  0  0  0  0  0  0  0  0
   62.4554   31.6436   46.5108 H   0  0  0  0  0  0  0  0  0  0  0  0
   60.7445   32.1909   46.5108 H   0  0  0  0  0  0  0  0  0  0  0  0
   60.5522   29.6171   45.0140 H   0  0  0  0  0  0  0  0  0  0  0  0
   59.0363   28.8080   45.6692 H   0  0  0  0  0  0  0  0  0  0  0  0
   59.6446   31.5190   44.9262 H   0  0  0  0  0  0  0  0  0  0  0  0
   57.9208   31.1229   47.4115 H   0  0  0  0  0  0  0  0  0  0  0  0
   59.4574   32.0740   47.2369 H   0  0  0  0  0  0  0  0  0  0  0  0
   56.7116   32.9319   46.8251 H   0  0  0  0  0  0  0  0  0  0  0  0
   58.2735   33.8847   46.7828 H   0  0  0  0  0  0  0  0  0  0  0  0
   56.8412   34.0740   44.7019 H   0  0  0  0  0  0  0  0  0  0  0  0
   58.5451   33.5140   44.4529 H   0  0  0  0  0  0  0  0  0  0  0  0
   55.9646   31.9034   44.3168 H   0  0  0  0  0  0  0  0  0  0  0  0
   57.2853   32.0849   43.0839 H   0  0  0  0  0  0  0  0  0  0  0  0
   56.9178   27.7542   43.6046 H   0  0  0  0  0  0  0  0  0  0  0  0
   58.5428   28.3917   44.0632 H   0  0  0  0  0  0  0  0  0  0  0  0
   59.2720   27.8940   47.8420 H   0  0  0  0  0  0  0  0  0  0  0  0
  1  2  1  0
  2  3  1  0
  3  4  2  0
  4  5  1  0
  4  6  1  0
  6  7  1  0
  7  8  1  0
  8  9  1  0
  9 10  1  0
 10 11  1  0
 11 12  1  0
 12 13  1  0
 13 14  1  0
 14 15  2  0
 14 16  1  0
 16 17  1  0
 17 18  1  0
 18 19  1  0
 19 20  2  0
 19 21  1  0
 21 22  1  0
 22 23  1  0
  6 24  1  0
 24  2  2  0
 13  8  1  0
 22 17  2  0
  1 25  1  0
  1 26  1  0
  1 27  1  0
  3 28  1  0
  5 29  1  0
  5 30  1  0
  5 31  1  0
  7 32  1  0
  7 33  1  0
  8 34  1  6
  9 35  1  0
  9 36  1  0
 10 37  1  0
 10 38  1  0
 11 39  1  0
 11 40  1  0
 12 41  1  0
 12 42  1  0
 16 43  1  0
 16 44  1  0
 24 45  1  0
M  CHG  4  18  -1  21  -1  23  -1  24   1
M  END
>  <UniqueID>  (37) 
36

>  <SMILES>  (37) 
Cc1cc(C)n(C[C@@H]2CCCCN2C(=O)Cc2[n-]c(=O)[n-]c2[O-])[nH+]1

>  <Energy>  (37) 
114.20982638585747

>  <Genealogy>  (37) 
Cc1cc(C)n(CC2CCCCN2C(=O)Cc2[n-]c(=O)[n-]c2[O-])[nH+]1 (protonated)
Cc1cc(C)n(C[C@@H]2CCCCN2C(=O)Cc2[n-]c(=O)[n-]c2[O-])[nH+]1 (chirality)
Cc1cc(C)n(C[C@@H]2CCCCN2C(=O)Cc2[n-]c(=O)[n-]c2[O-])[nH+]1 (3D coordinates assigned)
Cc1cc(C)n(C[C@@H]2CCCCN2C(=O)Cc2[n-]c(=O)[n-]c2[O-])[nH+]1 (nonaromatic ring conformer: 114.20982638585747 kcal/mol)

>  <smiles>  (37) 
Cc1cc(C)n(CC2CCCCN2C(=O)Cc2[nH]c(=O)[nH]c2O)n1

>  <score_type>  (37) 
oracle

>  <origin>  (37) 
adg

>  <m_score__min__energy>  (37) 
-13.07

>  <m_primary>  (37) 
energy

$$$$
37:0
     RDKit          3D

 54 58  0  0  0  0  0  0  0  0999 V2000
   58.7180   27.5530   43.7280 C   0  0  0  0  0  0  0  0  0  0  0  0
   58.9540   27.3260   45.1970 C   0  0  0  0  0  0  0  0  0  0  0  0
   60.2690   27.1330   45.6590 C   0  0  0  0  0  0  0  0  0  0  0  0
   60.5190   26.8850   47.0080 C   0  0  0  0  0  0  0  0  0  0  0  0
   59.4630   26.8350   47.9180 C   0  0  0  0  0  0  0  0  0  0  0  0
   58.1530   27.0380   47.4820 C   0  0  0  0  0  0  0  0  0  0  0  0
   57.8810   27.2800   46.1240 C   0  0  0  0  0  0  0  0  0  0  0  0
   56.4760   27.4830   45.7030 C   0  0  0  0  0  0  0  0  0  0  0  0
   55.6090   26.6220   46.0060 O   0  0  0  0  0  0  0  0  0  0  0  0
   56.0870   28.5890   44.8770 N   0  0  0  0  0  0  0  0  0  0  0  0
   56.6880   29.8920   44.8580 C   0  0  0  0  0  0  0  0  0  0  0  0
   56.5190   30.7720   43.7730 C   0  0  0  0  0  0  0  0  0  0  0  0
   57.1300   32.0290   43.7830 C   0  0  0  0  0  0  0  0  0  0  0  0
   57.9300   32.4200   44.8670 C   0  0  0  0  0  0  0  0  0  0  0  0
   58.6230   33.7540   44.8540 C   0  0  0  0  0  0  0  0  0  0  0  0
   59.6750   33.7920   45.9160 C   0  0  0  0  0  0  0  0  0  0  0  0
   60.9810   33.5080   45.6650 N   0  0  0  0  0  0  0  0  0  0  0  0
   61.5340   33.5960   46.8830 C   0  0  0  0  0  0  0  0  0  0  0  0
   62.8630   33.3800   47.2310 C   0  0  0  0  0  0  0  0  0  0  0  0
   63.2160   33.4730   48.5950 C   0  0  0  0  0  0  0  0  0  0  0  0
   64.5780   33.2370   48.9870 N   0  0  0  0  0  0  0  0  0  0  0  0
   64.9500   32.7620   50.2910 C   0  0  0  0  0  0  0  0  0  0  0  0
   64.0720   32.3160   51.0790 O   0  0  0  0  0  0  0  0  0  0  0  0
   66.3580   32.7380   50.7140 C   0  0  0  0  0  0  0  0  0  0  0  0
   66.8950   32.0160   51.7650 C   0  0  0  0  0  0  0  0  0  0  0  0
   68.2420   32.3150   51.7720 C   0  0  0  0  0  0  0  0  0  0  0  0
   68.4450   33.1940   50.7290 C   0  0  0  0  0  0  0  0  0  0  0  0
   67.3050   33.4250   50.1180 O   0  0  0  0  0  0  0  0  0  0  0  0
   62.2260   33.8200   49.5530 C   0  0  0  0  0  0  0  0  0  0  0  0
   60.8910   34.0370   49.1600 C   0  0  0  0  0  0  0  0  0  0  0  0
   60.5860   33.9090   47.8090 C   0  0  0  0  0  0  0  0  0  0  0  0
   59.3890   34.0380   47.2220 N   0  0  0  0  0  0  0  0  0  0  0  0
   58.1330   31.5240   45.9290 C   0  0  0  0  0  0  0  0  0  0  0  0
   57.5190   30.2680   45.9200 C   0  0  0  0  0  0  0  0  0  0  0  0
   57.9310   28.3100   43.5958 H   0  0  0  0  0  0  0  0  0  0  0  0
   59.6479   27.9048   43.2573 H   0  0  0  0  0  0  0  0  0  0  0  0
   58.4027   26.6101   43.2573 H   0  0  0  0  0  0  0  0  0  0  0  0
   61.1079   27.1782   44.9489 H   0  0  0  0  0  0  0  0  0  0  0  0
   61.5509   26.7285   47.3554 H   0  0  0  0  0  0  0  0  0  0  0  0
   59.6632   26.6352   48.9810 H   0  0  0  0  0  0  0  0  0  0  0  0
   57.3262   27.0084   48.2069 H   0  0  0  0  0  0  0  0  0  0  0  0
   55.9033   30.4693   42.9132 H   0  0  0  0  0  0  0  0  0  0  0  0
   56.9828   32.7155   42.9362 H   0  0  0  0  0  0  0  0  0  0  0  0
   59.0911   33.9122   43.8712 H   0  0  0  0  0  0  0  0  0  0  0  0
   57.8854   34.5469   45.0467 H   0  0  0  0  0  0  0  0  0  0  0  0
   63.6172   33.1436   46.4660 H   0  0  0  0  0  0  0  0  0  0  0  0
   65.3100   33.2710   48.2420 H   0  0  0  0  0  0  0  0  0  0  0  0
   66.3597   31.3438   52.4518 H   0  0  0  0  0  0  0  0  0  0  0  0
   69.0009   31.9299   52.4690 H   0  0  0  0  0  0  0  0  0  0  0  0
   69.4138   33.6346   50.4509 H   0  0  0  0  0  0  0  0  0  0  0  0
   62.5049   33.9202   50.6123 H   0  0  0  0  0  0  0  0  0  0  0  0
   60.1165   34.2986   49.8960 H   0  0  0  0  0  0  0  0  0  0  0  0
   58.7783   31.8117   46.7721 H   0  0  0  0  0  0  0  0  0  0  0  0
   57.6901   29.5704   46.7531 H   0  0  0  0  0  0  0  0  0  0  0  0
  1  2  1  0
  2  3  2  0
  3  4  1  0
  4  5  2  0
  5  6  1  0
  6  7  2  0
  7  8  1  0
  8  9  2  0
  8 10  1  0
 10 11  1  0
 11 12  2  0
 12 13  1  0
 13 14  2  0
 14 15  1  0
 15 16  1  0
 16 17  2  0
 17 18  1  0
 18 19  2  0
 19 20  1  0
 20 21  1  0
 21 22  1  0
 22 23  2  0
 22 24  1  0
 24 25  2  0
 25 26  1  0
 26 27  2  0
 27 28  1  0
 20 29  2  0
 29 30  1  0
 30 31  2  0
 31 32  1  0
 14 33  1  0
 33 34  2  0
  7  2  1  0
 34 11  1  0
 32 16  1  0
 31 18  1  0
 28 24  1  0
  1 35  1  0
  1 36  1  0
  1 37  1  0
  3 38  1  0
  4 39  1  0
  5 40  1  0
  6 41  1  0
 12 42  1  0
 13 43  1  0
 15 44  1  0
 15 45  1  0
 19 46  1  0
 21 47  1  0
 25 48  1  0
 26 49  1  0
 27 50  1  0
 29 51  1  0
 30 52  1  0
 33 53  1  0
 34 54  1  0
M  CHG  2  10  -1  32  -1
M  END
>  <UniqueID>  (38) 
37

>  <SMILES>  (38) 
Cc1ccccc1C(=O)[N-]c1ccc(Cc2nc3cc(NC(=O)c4ccco4)ccc3[n-]2)cc1

>  <Energy>  (38) 
131.15555491513186

>  <Genealogy>  (38) 
Cc1ccccc1C(=O)[N-]c1ccc(Cc2nc3cc(NC(=O)c4ccco4)ccc3[n-]2)cc1 (protonated)
Cc1ccccc1C(=O)[N-]c1ccc(Cc2nc3cc(NC(=O)c4ccco4)ccc3[n-]2)cc1 (3D coordinates assigned)
Cc1ccccc1C(=O)[N-]c1ccc(Cc2nc3cc(NC(=O)c4ccco4)ccc3[n-]2)cc1 (optimized conformer: 131.15555491513186 kcal/mol)

>  <smiles>  (38) 
Cc1ccccc1C(=O)Nc1ccc(Cc2nc3cc(NC(=O)c4ccco4)ccc3[nH]2)cc1

>  <score_type>  (38) 
oracle

>  <origin>  (38) 
adg

>  <m_score__min__energy>  (38) 
-12.09

>  <m_primary>  (38) 
energy

$$$$
38:0
     RDKit          3D

 37 39  0  0  0  0  0  0  0  0999 V2000
   56.7520   19.7520   43.3010 H   0  0  0  0  0  0  0  0  0  0  0  0
   56.2240   20.6130   43.2160 O   0  0  0  0  0  0  0  0  0  0  0  0
   56.7790   21.8310   43.5940 C   0  0  0  0  0  0  0  0  0  0  0  0
   57.7490   21.9410   44.5180 N   0  0  0  0  0  0  0  0  0  0  0  0
   58.0130   23.2620   44.5930 C   0  0  0  0  0  0  0  0  0  0  0  0
   59.0230   23.8200   45.5130 C   0  0  0  0  0  0  0  0  0  0  0  0
   60.0960   23.1840   45.6910 O   0  0  0  0  0  0  0  0  0  0  0  0
   58.8280   25.0500   46.2250 N   0  0  0  0  0  0  0  0  0  0  0  0
   58.4380   26.3170   45.6710 C   0  0  0  0  0  0  0  0  0  0  0  0
   59.4350   27.1000   45.0780 C   0  0  0  0  0  0  0  0  0  0  0  0
   60.4606   26.7095   45.0024 H   0  0  0  0  0  0  0  0  0  0  0  0
   59.1420   28.3700   44.5820 C   0  0  0  0  0  0  0  0  0  0  0  0
   59.9370   28.9808   44.1293 H   0  0  0  0  0  0  0  0  0  0  0  0
   57.8420   28.8650   44.6600 C   0  0  0  0  0  0  0  0  0  0  0  0
   57.6187   29.8758   44.2880 H   0  0  0  0  0  0  0  0  0  0  0  0
   56.8200   28.0850   45.2080 C   0  0  0  0  0  0  0  0  0  0  0  0
   55.5260   28.5950   45.2310 O   0  0  0  0  0  0  0  0  0  0  0  0
   57.0990   26.7930   45.7060 C   0  0  0  0  0  0  0  0  0  0  0  0
   55.9890   25.9520   46.2060 C   0  0  0  0  0  0  0  0  0  0  0  0
   54.8740   25.9790   45.6180 O   0  0  0  0  0  0  0  0  0  0  0  0
   56.2080   25.0820   47.3280 N   0  0  0  0  0  0  0  0  0  0  0  0
   56.2330   23.7820   47.3150 C   0  0  0  0  0  0  0  0  0  0  0  0
   57.1500   23.0760   48.0080 N   0  0  0  0  0  0  0  0  0  0  0  0
   56.9850   21.7570   47.9090 N   0  0  0  0  0  0  0  0  0  0  0  0
   55.9370   21.4060   47.1300 C   0  0  0  0  0  0  0  0  0  0  0  0
   55.4990   19.9930   46.9220 C   0  0  0  0  0  0  0  0  0  0  0  0
   54.5412   19.9872   46.3810 H   0  0  0  0  0  0  0  0  0  0  0  0
   55.3844   19.5088   47.9030 H   0  0  0  0  0  0  0  0  0  0  0  0
   56.5370   19.2240   46.1120 C   0  0  0  0  0  0  0  0  0  0  0  0
   57.2293   18.7111   46.7959 H   0  0  0  0  0  0  0  0  0  0  0  0
   56.0306   18.4814   45.4779 H   0  0  0  0  0  0  0  0  0  0  0  0
   57.0999   19.9247   45.4779 H   0  0  0  0  0  0  0  0  0  0  0  0
   55.1320   22.7620   46.5330 S   0  0  0  0  0  0  0  0  0  0  0  0
   57.2010   23.9810   43.7310 C   0  0  0  0  0  0  0  0  0  0  0  0
   57.1892   25.0721   43.5921 H   0  0  0  0  0  0  0  0  0  0  0  0
   56.4120   23.0580   43.0830 C   0  0  0  0  0  0  0  0  0  0  0  0
   55.6480   23.2575   42.3172 H   0  0  0  0  0  0  0  0  0  0  0  0
  1  2  1  0
  2  3  1  0
  3  4  1  0
  4  5  1  0
  5  6  1  0
  6  7  2  0
  6  8  1  0
  8  9  1  0
  9 10  2  0
 10 11  1  0
 10 12  1  0
 12 13  1  0
 12 14  2  0
 14 15  1  0
 14 16  1  0
 16 17  1  0
 16 18  2  0
 18 19  1  0
 19 20  2  0
 19 21  1  0
 21 22  2  0
 22 23  1  0
 23 24  1  0
 24 25  2  0
 25 26  1  0
 26 27  1  0
 26 28  1  0
 26 29  1  0
 29 30  1  0
 29 31  1  0
 29 32  1  0
 25 33  1  0
  5 34  2  0
 34 35  1  0
 34 36  1  0
 36 37  1  0
 36  3  2  0
 18  9  1  0
 33 22  1  0
M  CHG  4   4  -1   8  -1  17  -1  23  -1
M  END
>  <UniqueID>  (39) 
38

>  <SMILES>  (39) 
CCc1n[n-]/c(=N/C(=O)c2c([O-])cccc2[N-]C(=O)c2ccc(O)[n-]2)s1

>  <Energy>  (39) 
108.77057752383715

>  <Genealogy>  (39) 
CCc1n[n-]c(=NC(=O)c2c([O-])cccc2[N-]C(=O)c2ccc(O)[n-]2)s1 (protonated)
CCc1n[n-]/c(=N/C(=O)c2c([O-])cccc2[N-]C(=O)c2ccc(O)[n-]2)s1 (cis-trans isomerization)
CCc1n[n-]/c(=N/C(=O)c2c([O-])cccc2[N-]C(=O)c2ccc(O)[n-]2)s1 (3D coordinates assigned)
CCc1n[n-]/c(=N/C(=O)c2c([O-])cccc2[N-]C(=O)c2ccc(O)[n-]2)s1 (optimized conformer: 108.77057752383715 kcal/mol)

>  <smiles>  (39) 
CCc1n[nH]c(=NC(=O)c2c(O)cccc2NC(=O)c2ccc(O)[nH]2)s1

>  <score_type>  (39) 
oracle

>  <origin>  (39) 
adg

>  <m_score__min__energy>  (39) 
-15.44

>  <m_primary>  (39) 
energy

$$$$
39:0
     RDKit          3D

 37 39  0  0  0  0  0  0  0  0999 V2000
   58.9794   31.2285   43.4907 H   0  0  0  0  0  0  0  0  0  0  0  0
   58.4090   31.2490   44.4310 C   0  0  0  0  0  0  0  0  0  0  0  0
   58.4530   32.3730   45.1650 C   0  0  0  0  0  0  0  0  0  0  0  0
   57.4610   33.7280   44.6410 Cl  0  0  0  0  0  0  0  0  0  0  0  0
   59.2400   32.5100   46.4150 C   0  0  0  0  0  0  0  0  0  0  0  0
   59.6610   33.6430   46.7770 O   0  0  0  0  0  0  0  0  0  0  0  0
   59.5540   31.3540   47.2050 N   0  0  0  0  0  0  0  0  0  0  0  0
   59.1540   30.4270   46.9320 H   0  0  0  0  0  0  0  0  0  0  0  0
   60.3830   31.4550   48.4050 C   0  0  0  0  0  0  0  0  0  0  0  0
   59.8350   32.0157   49.1766 H   0  0  0  0  0  0  0  0  0  0  0  0
   60.6135   30.4406   48.7626 H   0  0  0  0  0  0  0  0  0  0  0  0
   61.6660   32.1620   48.1020 C   0  0  0  0  0  0  0  0  0  0  0  0
   62.0740   33.7050   48.6320 S   0  0  0  0  0  0  0  0  0  0  0  0
   63.5380   33.7980   47.8090 C   0  0  0  0  0  0  0  0  0  0  0  0
   64.2376   34.6465   47.8337 H   0  0  0  0  0  0  0  0  0  0  0  0
   63.7130   32.6210   47.0930 C   0  0  0  0  0  0  0  0  0  0  0  0
   64.5931   32.4246   46.4630 H   0  0  0  0  0  0  0  0  0  0  0  0
   62.6630   31.7080   47.2490 C   0  0  0  0  0  0  0  0  0  0  0  0
   62.6312   30.7300   46.7466 H   0  0  0  0  0  0  0  0  0  0  0  0
   57.6430   30.0320   44.8020 C   0  0  0  0  0  0  0  0  0  0  0  0
   56.2340   30.0630   44.8110 C   0  0  0  0  0  0  0  0  0  0  0  0
   55.6120   31.1130   44.4940 O   0  0  0  0  0  0  0  0  0  0  0  0
   55.5270   28.9640   45.1760 N   0  0  0  0  0  0  0  0  0  0  0  0
   56.1260   27.8070   45.5540 C   0  0  0  0  0  0  0  0  0  0  0  0
   55.3320   26.7220   45.9090 O   0  0  0  0  0  0  0  0  0  0  0  0
   57.5280   27.7180   45.5850 C   0  0  0  0  0  0  0  0  0  0  0  0
   58.1690   26.5300   45.9800 C   0  0  0  0  0  0  0  0  0  0  0  0
   57.5677   25.6565   46.2722 H   0  0  0  0  0  0  0  0  0  0  0  0
   59.5660   26.4510   46.0040 C   0  0  0  0  0  0  0  0  0  0  0  0
   60.2120   25.2390   46.4070 N   0  0  0  0  0  0  0  0  0  0  0  0
   60.7940   25.2060   47.2740 H   0  0  0  0  0  0  0  0  0  0  0  0
   60.1130   24.3670   45.8410 H   0  0  0  0  0  0  0  0  0  0  0  0
   60.3290   27.5610   45.6270 C   0  0  0  0  0  0  0  0  0  0  0  0
   61.4272   27.4994   45.6420 H   0  0  0  0  0  0  0  0  0  0  0  0
   59.7070   28.7460   45.2320 C   0  0  0  0  0  0  0  0  0  0  0  0
   60.3196   29.6105   44.9365 H   0  0  0  0  0  0  0  0  0  0  0  0
   58.3000   28.8460   45.2080 C   0  0  0  0  0  0  0  0  0  0  0  0
  1  2  1  0
  2  3  2  0
  3  4  1  0
  3  5  1  0
  5  6  2  0
  5  7  1  0
  7  8  1  0
  7  9  1  0
  9 10  1  0
  9 11  1  0
  9 12  1  0
 12 13  1  0
 13 14  1  0
 14 15  1  0
 14 16  2  0
 16 17  1  0
 16 18  1  0
 18 19  1  0
  2 20  1  0
 20 21  1  0
 21 22  2  0
 21 23  1  0
 23 24  1  0
 24 25  1  0
 24 26  2  0
 26 27  1  0
 27 28  1  0
 27 29  2  0
 29 30  1  0
 30 31  1  0
 30 32  1  0
 29 33  1  0
 33 34  1  0
 33 35  2  0
 35 36  1  0
 35 37  1  0
 18 12  2  0
 37 20  2  0
 37 26  1  0
M  CHG  2  23  -1  25  -1
M  END
>  <UniqueID>  (40) 
39

>  <SMILES>  (40) 
Nc1ccc2c(/C=C(/Cl)C(=O)NCc3cccs3)c(=O)[n-]c([O-])c2c1

>  <Energy>  (40) 
78.48114607701923

>  <Genealogy>  (40) 
Nc1ccc2c(C=C(Cl)C(=O)NCc3cccs3)c(=O)[n-]c([O-])c2c1 (protonated)
Nc1ccc2c(/C=C(/Cl)C(=O)NCc3cccs3)c(=O)[n-]c([O-])c2c1 (cis-trans isomerization)
Nc1ccc2c(/C=C(/Cl)C(=O)NCc3cccs3)c(=O)[n-]c([O-])c2c1 (3D coordinates assigned)
Nc1ccc2c(/C=C(/Cl)C(=O)NCc3cccs3)c(=O)[n-]c([O-])c2c1 (optimized conformer: 78.48114607701923 kcal/mol)

>  <smiles>  (40) 
Nc1ccc2c(C=C(Cl)C(=O)NCc3cccs3)c(=O)[nH]c(O)c2c1

>  <score_type>  (40) 
oracle

>  <origin>  (40) 
adg

>  <m_score__min__energy>  (40) 
-13.23

>  <m_primary>  (40) 
energy

$$$$
40:0
     RDKit          3D

 59 62  0  0  0  0  0  0  0  0999 V2000
   67.1400   31.0640   50.6990 C   0  0  0  0  0  0  0  0  0  0  0  0
   66.0510   31.9570   51.3130 C   0  0  0  0  0  0  0  0  0  0  0  0
   65.8850   33.2660   50.5010 C   0  0  0  0  0  0  0  0  0  0  0  0
   64.8850   33.1210   49.3440 C   0  0  0  0  0  0  0  0  0  0  0  0
   63.6090   32.5510   49.8000 N   0  0  0  0  0  0  0  0  0  0  0  0
   62.4460   32.6670   48.9630 C   0  0  0  0  0  0  0  0  0  0  0  0
   62.1950   33.7700   48.4020 O   0  0  0  0  0  0  0  0  0  0  0  0
   61.5470   31.5140   48.7330 C   0  0  0  0  0  0  0  0  0  0  0  0
   60.6310   31.1130   49.7160 C   0  0  0  0  0  0  0  0  0  0  0  0
   59.7810   30.0300   49.4820 C   0  0  0  0  0  0  0  0  0  0  0  0
   59.8270   29.3690   48.2440 C   0  0  0  0  0  0  0  0  0  0  0  0
   59.0050   28.2710   47.9570 O   0  0  0  0  0  0  0  0  0  0  0  0
   58.5600   27.8840   46.6820 C   0  0  0  0  0  0  0  0  0  0  0  0
   58.6840   26.5400   46.3150 C   0  0  0  0  0  0  0  0  0  0  0  0
   58.2950   26.1130   45.0410 C   0  0  0  0  0  0  0  0  0  0  0  0
   57.7950   27.0320   44.1170 C   0  0  0  0  0  0  0  0  0  0  0  0
   57.6890   28.3860   44.4620 C   0  0  0  0  0  0  0  0  0  0  0  0
   57.2190   29.3490   43.5130 N   0  0  0  0  0  0  0  0  0  0  0  0
   56.8110   30.6830   43.8440 C   0  0  0  0  0  0  0  0  0  0  0  0
   55.7620   30.8460   44.5200 O   0  0  0  0  0  0  0  0  0  0  0  0
   57.6380   31.8860   43.4690 C   0  0  0  0  0  0  0  0  0  0  0  0
   58.1170   32.6160   44.7000 C   0  0  0  0  0  0  0  0  0  0  0  0
   58.7670   33.8580   44.5890 C   0  0  0  0  0  0  0  0  0  0  0  0
   59.2650   34.4980   45.7270 C   0  0  0  0  0  0  0  0  0  0  0  0
   59.1070   33.9110   46.9910 C   0  0  0  0  0  0  0  0  0  0  0  0
   59.6070   34.5350   48.1320 O   0  0  0  0  0  0  0  0  0  0  0  0
   58.4430   32.6860   47.1080 C   0  0  0  0  0  0  0  0  0  0  0  0
   57.9480   32.0410   45.9700 C   0  0  0  0  0  0  0  0  0  0  0  0
   58.0590   28.8070   45.7460 C   0  0  0  0  0  0  0  0  0  0  0  0
   60.7270   29.7710   47.3090 N   0  0  0  0  0  0  0  0  0  0  0  0
   61.5730   30.8140   47.5180 C   0  0  0  0  0  0  0  0  0  0  0  0
   63.4900   32.0080   51.1590 C   0  0  0  0  0  0  0  0  0  0  0  0
   64.7250   31.1660   51.4880 C   0  0  0  0  0  0  0  0  0  0  0  0
   67.7204   30.5881   51.5031 H   0  0  0  0  0  0  0  0  0  0  0  0
   66.6702   30.2878   50.0771 H   0  0  0  0  0  0  0  0  0  0  0  0
   67.8092   31.6768   50.0771 H   0  0  0  0  0  0  0  0  0  0  0  0
   66.3642   32.2624   52.3223 H   0  0  0  0  0  0  0  0  0  0  0  0
   65.5290   34.0572   51.1772 H   0  0  0  0  0  0  0  0  0  0  0  0
   66.8642   33.5143   50.0657 H   0  0  0  0  0  0  0  0  0  0  0  0
   64.6972   34.1133   48.9080 H   0  0  0  0  0  0  0  0  0  0  0  0
   65.3190   32.4396   48.5974 H   0  0  0  0  0  0  0  0  0  0  0  0
   60.5819   31.6525   50.6733 H   0  0  0  0  0  0  0  0  0  0  0  0
   59.0804   29.6971   50.2620 H   0  0  0  0  0  0  0  0  0  0  0  0
   59.0905   25.8132   47.0337 H   0  0  0  0  0  0  0  0  0  0  0  0
   58.3833   25.0514   44.7669 H   0  0  0  0  0  0  0  0  0  0  0  0
   57.4841   26.6932   43.1177 H   0  0  0  0  0  0  0  0  0  0  0  0
   58.5093   31.5558   42.8844 H   0  0  0  0  0  0  0  0  0  0  0  0
   57.0137   32.5702   42.8757 H   0  0  0  0  0  0  0  0  0  0  0  0
   58.8840   34.3281   43.6014 H   0  0  0  0  0  0  0  0  0  0  0  0
   59.7820   35.4642   45.6313 H   0  0  0  0  0  0  0  0  0  0  0  0
   60.5850   34.4630   48.3890 H   0  0  0  0  0  0  0  0  0  0  0  0
   58.3094   32.2278   48.0991 H   0  0  0  0  0  0  0  0  0  0  0  0
   57.4240   31.0790   46.0702 H   0  0  0  0  0  0  0  0  0  0  0  0
   57.9571   29.8664   46.0241 H   0  0  0  0  0  0  0  0  0  0  0  0
   62.2814   31.1105   46.7305 H   0  0  0  0  0  0  0  0  0  0  0  0
   63.4102   32.8365   51.8781 H   0  0  0  0  0  0  0  0  0  0  0  0
   62.5914   31.3767   51.2217 H   0  0  0  0  0  0  0  0  0  0  0  0
   64.6523   30.8267   52.5318 H   0  0  0  0  0  0  0  0  0  0  0  0
   64.7472   30.3188   50.7868 H   0  0  0  0  0  0  0  0  0  0  0  0
  1  2  1  0
  2  3  1  0
  3  4  1  0
  4  5  1  0
  5  6  1  0
  6  7  2  0
  6  8  1  0
  8  9  2  0
  9 10  1  0
 10 11  2  0
 11 12  1  0
 12 13  1  0
 13 14  2  0
 14 15  1  0
 15 16  2  0
 16 17  1  0
 17 18  1  0
 18 19  1  0
 19 20  2  0
 19 21  1  0
 21 22  1  0
 22 23  2  0
 23 24  1  0
 24 25  2  0
 25 26  1  0
 25 27  1  0
 27 28  2  0
 17 29  2  0
 11 30  1  0
 30 31  2  0
  5 32  1  0
 32 33  1  0
 33  2  1  0
 31  8  1  0
 29 13  1  0
 28 22  1  0
  1 34  1  0
  1 35  1  0
  1 36  1  0
  2 37  1  0
  3 38  1  0
  3 39  1  0
  4 40  1  0
  4 41  1  0
  9 42  1  0
 10 43  1  0
 14 44  1  0
 15 45  1  0
 16 46  1  0
 21 47  1  0
 21 48  1  0
 23 49  1  0
 24 50  1  0
 26 51  1  0
 27 52  1  0
 28 53  1  0
 29 54  1  0
 31 55  1  0
 32 56  1  0
 32 57  1  0
 33 58  1  0
 33 59  1  0
M  CHG  1  18  -1
M  END
>  <UniqueID>  (41) 
40

>  <SMILES>  (41) 
CC1CCN(C(=O)c2ccc(Oc3cccc([N-]C(=O)Cc4ccc(O)cc4)c3)nc2)CC1

>  <Energy>  (41) 
77.67151642563226

>  <Genealogy>  (41) 
CC1CCN(C(=O)c2ccc(Oc3cccc([N-]C(=O)Cc4ccc(O)cc4)c3)nc2)CC1 (protonated)
CC1CCN(C(=O)c2ccc(Oc3cccc([N-]C(=O)Cc4ccc(O)cc4)c3)nc2)CC1 (3D coordinates assigned)
CC1CCN(C(=O)c2ccc(Oc3cccc([N-]C(=O)Cc4ccc(O)cc4)c3)nc2)CC1 (nonaromatic ring conformer: 77.67151642563226 kcal/mol)

>  <smiles>  (41) 
CC1CCN(C(=O)c2ccc(Oc3cccc(NC(=O)Cc4ccc(O)cc4)c3)nc2)CC1

>  <score_type>  (41) 
oracle

>  <origin>  (41) 
adg

>  <m_score__min__energy>  (41) 
-10.390000000000001

>  <m_primary>  (41) 
energy

$$$$
41:0
     RDKit          3D

 63 66  0  0  0  0  0  0  0  0999 V2000
   58.0100   27.3590   47.1680 C   0  0  0  0  0  0  0  0  0  0  0  0
   57.5380   26.4160   46.1470 N   0  0  0  0  0  0  0  0  0  0  0  0
   58.3040   26.2570   44.8990 C   0  0  0  0  0  0  0  0  0  0  0  0
   58.6070   27.6180   44.2570 C   0  0  0  0  0  0  0  0  0  0  0  0
   57.7540   27.8620   43.0060 C   0  0  0  0  0  0  0  0  0  0  0  0
   56.9880   29.0990   43.1280 N   0  0  0  0  0  0  0  0  0  0  0  0
   56.5610   29.7140   44.3540 C   0  0  0  0  0  0  0  0  0  0  0  0
   55.4470   29.3750   44.8370 O   0  0  0  0  0  0  0  0  0  0  0  0
   57.3480   30.7640   45.0430 C   0  0  0  0  0  0  0  0  0  0  0  0
   57.1440   32.1240   44.7690 C   0  0  0  0  0  0  0  0  0  0  0  0
   57.9250   33.0980   45.4040 C   0  0  0  0  0  0  0  0  0  0  0  0
   58.9480   32.7230   46.2910 C   0  0  0  0  0  0  0  0  0  0  0  0
   59.7870   33.6670   46.9130 C   0  0  0  0  0  0  0  0  0  0  0  0
   59.5860   34.8990   46.7150 O   0  0  0  0  0  0  0  0  0  0  0  0
   60.8150   33.2490   47.7250 N   0  0  0  0  0  0  0  0  0  0  0  0
   61.0040   31.9040   47.9580 C   0  0  0  0  0  0  0  0  0  0  0  0
   60.1820   30.9840   47.3780 N   0  0  0  0  0  0  0  0  0  0  0  0
   59.1740   31.3590   46.5460 C   0  0  0  0  0  0  0  0  0  0  0  0
   58.3740   30.3880   45.9220 C   0  0  0  0  0  0  0  0  0  0  0  0
   62.0910   31.4250   48.9030 C   0  0  0  0  0  0  0  0  0  0  0  0
   63.5250   31.6580   48.3710 C   0  0  0  0  0  0  0  0  0  0  0  0
   64.0570   33.1010   48.4820 C   0  0  0  0  0  0  0  0  0  0  0  0
   63.1590   34.1480   47.8000 C   0  0  0  0  0  0  0  0  0  0  0  0
   61.7230   34.2340   48.3560 C   0  0  0  0  0  0  0  0  0  0  0  0
   56.3250   25.6500   46.3460 C   0  0  0  0  0  0  0  0  0  0  0  0
   55.2040   26.2270   46.2660 O   0  0  0  0  0  0  0  0  0  0  0  0
   56.3630   24.1530   46.5620 C   0  0  0  0  0  0  0  0  0  0  0  0
   56.4670   23.4060   45.2580 C   0  0  0  0  0  0  0  0  0  0  0  0
   55.5830   23.6900   44.2050 C   0  0  0  0  0  0  0  0  0  0  0  0
   55.7070   23.0290   42.9780 C   0  0  0  0  0  0  0  0  0  0  0  0
   56.7260   22.0890   42.7920 C   0  0  0  0  0  0  0  0  0  0  0  0
   57.6200   21.8140   43.8300 C   0  0  0  0  0  0  0  0  0  0  0  0
   57.4950   22.4690   45.0600 C   0  0  0  0  0  0  0  0  0  0  0  0
   57.8050   26.9495   48.1681 H   0  0  0  0  0  0  0  0  0  0  0  0
   59.0925   27.5151   47.0505 H   0  0  0  0  0  0  0  0  0  0  0  0
   57.4862   28.3191   47.0505 H   0  0  0  0  0  0  0  0  0  0  0  0
   59.2524   25.7465   45.1226 H   0  0  0  0  0  0  0  0  0  0  0  0
   57.7021   25.6652   44.1936 H   0  0  0  0  0  0  0  0  0  0  0  0
   58.3987   28.4114   44.9899 H   0  0  0  0  0  0  0  0  0  0  0  0
   59.6648   27.6251   43.9554 H   0  0  0  0  0  0  0  0  0  0  0  0
   58.4140   27.9326   42.1288 H   0  0  0  0  0  0  0  0  0  0  0  0
   57.0505   27.0240   42.8926 H   0  0  0  0  0  0  0  0  0  0  0  0
   56.3669   32.4274   44.0520 H   0  0  0  0  0  0  0  0  0  0  0  0
   57.7362   34.1636   45.2069 H   0  0  0  0  0  0  0  0  0  0  0  0
   60.3340   29.9660   47.5740 H   0  0  0  0  0  0  0  0  0  0  0  0
   58.5539   29.3219   46.1247 H   0  0  0  0  0  0  0  0  0  0  0  0
   61.9831   31.9619   49.8570 H   0  0  0  0  0  0  0  0  0  0  0  0
   61.9627   30.3384   49.0159 H   0  0  0  0  0  0  0  0  0  0  0  0
   64.2049   31.0035   48.9361 H   0  0  0  0  0  0  0  0  0  0  0  0
   63.4830   31.4376   47.2941 H   0  0  0  0  0  0  0  0  0  0  0  0
   64.1417   33.3584   49.5481 H   0  0  0  0  0  0  0  0  0  0  0  0
   65.0274   33.1254   47.9647 H   0  0  0  0  0  0  0  0  0  0  0  0
   63.6316   35.1339   47.9207 H   0  0  0  0  0  0  0  0  0  0  0  0
   63.0645   33.8356   46.7495 H   0  0  0  0  0  0  0  0  0  0  0  0
   61.7514   34.0453   49.4393 H   0  0  0  0  0  0  0  0  0  0  0  0
   61.3358   35.2391   48.1328 H   0  0  0  0  0  0  0  0  0  0  0  0
   57.2342   23.9046   47.1860 H   0  0  0  0  0  0  0  0  0  0  0  0
   55.4270   23.8532   47.0560 H   0  0  0  0  0  0  0  0  0  0  0  0
   54.7878   24.4369   44.3454 H   0  0  0  0  0  0  0  0  0  0  0  0
   55.0041   23.2483   42.1608 H   0  0  0  0  0  0  0  0  0  0  0  0
   56.8235   21.5665   41.8289 H   0  0  0  0  0  0  0  0  0  0  0  0
   58.4251   21.0797   43.6796 H   0  0  0  0  0  0  0  0  0  0  0  0
   58.2026   22.2500   45.8732 H   0  0  0  0  0  0  0  0  0  0  0  0
  1  2  1  0
  2  3  1  0
  3  4  1  0
  4  5  1  0
  5  6  1  0
  6  7  1  0
  7  8  2  0
  7  9  1  0
  9 10  2  0
 10 11  1  0
 11 12  2  0
 12 13  1  0
 13 14  2  0
 13 15  1  0
 15 16  1  0
 16 17  2  0
 17 18  1  0
 18 19  2  0
 16 20  1  0
 20 21  1  0
 21 22  1  0
 22 23  1  0
 23 24  1  0
  2 25  1  0
 25 26  2  0
 25 27  1  0
 27 28  1  0
 28 29  2  0
 29 30  1  0
 30 31  2  0
 31 32  1  0
 32 33  2  0
 19  9  1  0
 33 28  1  0
 18 12  1  0
 24 15  1  0
  1 34  1  0
  1 35  1  0
  1 36  1  0
  3 37  1  0
  3 38  1  0
  4 39  1  0
  4 40  1  0
  5 41  1  0
  5 42  1  0
 10 43  1  0
 11 44  1  0
 17 45  1  0
 19 46  1  0
 20 47  1  0
 20 48  1  0
 21 49  1  0
 21 50  1  0
 22 51  1  0
 22 52  1  0
 23 53  1  0
 23 54  1  0
 24 55  1  0
 24 56  1  0
 27 57  1  0
 27 58  1  0
 29 59  1  0
 30 60  1  0
 31 61  1  0
 32 62  1  0
 33 63  1  0
M  CHG  2   6  -1  17   1
M  END
>  <UniqueID>  (42) 
41

>  <SMILES>  (42) 
CN(CCC[N-]C(=O)c1ccc2c(=O)n3c([nH+]c2c1)CCCCC3)C(=O)Cc1ccccc1

>  <Energy>  (42) 
74.00632210748999

>  <Genealogy>  (42) 
CN(CCC[N-]C(=O)c1ccc2c(=O)n3c([nH+]c2c1)CCCCC3)C(=O)Cc1ccccc1 (protonated)
CN(CCC[N-]C(=O)c1ccc2c(=O)n3c([nH+]c2c1)CCCCC3)C(=O)Cc1ccccc1 (3D coordinates assigned)
CN(CCC[N-]C(=O)c1ccc2c(=O)n3c([nH+]c2c1)CCCCC3)C(=O)Cc1ccccc1 (nonaromatic ring conformer: 74.00632210748999 kcal/mol)

>  <smiles>  (42) 
CN(CCCNC(=O)c1ccc2c(=O)n3c(nc2c1)CCCCC3)C(=O)Cc1ccccc1

>  <score_type>  (42) 
oracle

>  <origin>  (42) 
adg

>  <m_score__min__energy>  (42) 
-7.9400000000000004

>  <m_primary>  (42) 
energy

$$$$
42:0
     RDKit          3D

 74 78  0  0  0  0  0  0  0  0999 V2000
   67.2420   31.9050   52.7880 C   0  0  0  0  0  0  0  0  0  0  0  0
   66.1430   32.0980   51.7700 C   0  0  0  0  0  0  0  0  0  0  0  0
   65.3760   30.9950   51.3410 C   0  0  0  0  0  0  0  0  0  0  0  0
   65.6190   29.7200   51.8460 O   0  0  0  0  0  0  0  0  0  0  0  0
   64.3520   31.1660   50.4060 C   0  0  0  0  0  0  0  0  0  0  0  0
   64.0800   32.4300   49.8630 C   0  0  0  0  0  0  0  0  0  0  0  0
   62.9920   32.6160   48.8730 C   0  0  0  0  0  0  0  0  0  0  0  0
   63.1040   33.5100   47.9900 O   0  0  0  0  0  0  0  0  0  0  0  0
   61.8390   31.7580   48.8790 N   0  0  0  0  0  0  0  0  0  0  0  0
   60.6200   32.0590   48.1790 C   0  0  0  0  0  0  0  0  0  0  0  0
   59.9460   33.2780   48.3730 C   0  0  0  0  0  0  0  0  0  0  0  0
   58.7580   33.5420   47.6880 C   0  0  0  0  0  0  0  0  0  0  0  0
   58.2250   32.5910   46.8130 C   0  0  0  0  0  0  0  0  0  0  0  0
   58.8700   31.3570   46.6290 C   0  0  0  0  0  0  0  0  0  0  0  0
   58.3080   30.3480   45.7030 C   0  0  0  0  0  0  0  0  0  0  0  0
   57.5260   30.7180   44.7850 O   0  0  0  0  0  0  0  0  0  0  0  0
   58.6290   28.9540   45.8370 N   0  0  0  0  0  0  0  0  0  0  0  0
   58.5140   28.3060   47.1540 C   0  0  0  0  0  0  0  0  0  0  0  0
   58.1240   26.8240   47.0210 C   0  0  0  0  0  0  0  0  0  0  0  0
   57.0970   26.6410   45.8880 C   0  0  0  0  0  0  0  0  0  0  0  0
   56.5920   25.2450   45.8600 N   0  0  0  0  0  0  0  0  0  0  0  0
   55.1850   24.9810   46.0150 C   0  0  0  0  0  0  0  0  0  0  0  0
   54.3180   25.8030   45.6120 O   0  0  0  0  0  0  0  0  0  0  0  0
   54.7600   23.7240   46.7000 C   0  0  0  0  0  0  0  0  0  0  0  0
   55.4830   22.5320   46.0820 C   0  0  0  0  0  0  0  0  0  0  0  0
   56.9620   22.7800   45.8870 C   0  0  0  0  0  0  0  0  0  0  0  0
   57.8100   21.6680   45.7580 C   0  0  0  0  0  0  0  0  0  0  0  0
   59.1540   21.8380   45.4280 C   0  0  0  0  0  0  0  0  0  0  0  0
   59.6540   23.1130   45.1820 C   0  0  0  0  0  0  0  0  0  0  0  0
   58.8240   24.2300   45.2920 C   0  0  0  0  0  0  0  0  0  0  0  0
   57.4710   24.0930   45.6880 C   0  0  0  0  0  0  0  0  0  0  0  0
   57.6420   27.1160   44.5080 C   0  0  0  0  0  0  0  0  0  0  0  0
   58.7990   28.1210   44.6400 C   0  0  0  0  0  0  0  0  0  0  0  0
   60.0700   31.1010   47.3140 C   0  0  0  0  0  0  0  0  0  0  0  0
   64.8480   33.5290   50.2800 C   0  0  0  0  0  0  0  0  0  0  0  0
   65.8760   33.3770   51.2230 C   0  0  0  0  0  0  0  0  0  0  0  0
   66.6740   34.5650   51.5970 C   0  0  0  0  0  0  0  0  0  0  0  0
   66.1070   35.5080   52.2120 O   0  0  0  0  0  0  0  0  0  0  0  0
   68.0770   34.6580   51.2750 N   0  0  0  0  0  0  0  0  0  0  0  0
   68.6380   33.8670   50.1760 C   0  0  0  0  0  0  0  0  0  0  0  0
   68.9140   35.6190   52.0010 C   0  0  0  0  0  0  0  0  0  0  0  0
   66.8203   31.9790   53.8013 H   0  0  0  0  0  0  0  0  0  0  0  0
   67.6977   30.9131   52.6521 H   0  0  0  0  0  0  0  0  0  0  0  0
   68.0084   32.6823   52.6521 H   0  0  0  0  0  0  0  0  0  0  0  0
   63.7521   30.2990   50.0921 H   0  0  0  0  0  0  0  0  0  0  0  0
   61.9380   30.8040   49.2940 H   0  0  0  0  0  0  0  0  0  0  0  0
   60.3562   34.0264   49.0670 H   0  0  0  0  0  0  0  0  0  0  0  0
   58.2402   34.5010   47.8374 H   0  0  0  0  0  0  0  0  0  0  0  0
   57.2961   32.8101   46.2660 H   0  0  0  0  0  0  0  0  0  0  0  0
   59.4817   28.3758   47.6724 H   0  0  0  0  0  0  0  0  0  0  0  0
   57.7263   28.8203   47.7241 H   0  0  0  0  0  0  0  0  0  0  0  0
   59.0227   26.2311   46.7954 H   0  0  0  0  0  0  0  0  0  0  0  0
   57.6769   26.4854   47.9673 H   0  0  0  0  0  0  0  0  0  0  0  0
   56.2394   27.2957   46.1022 H   0  0  0  0  0  0  0  0  0  0  0  0
   55.0090   23.7883   47.7695 H   0  0  0  0  0  0  0  0  0  0  0  0
   53.6743   23.5933   46.5806 H   0  0  0  0  0  0  0  0  0  0  0  0
   55.3568   21.6627   46.7440 H   0  0  0  0  0  0  0  0  0  0  0  0
   55.0431   22.3564   45.0892 H   0  0  0  0  0  0  0  0  0  0  0  0
   57.4110   20.6555   45.9185 H   0  0  0  0  0  0  0  0  0  0  0  0
   59.8190   20.9642   45.3621 H   0  0  0  0  0  0  0  0  0  0  0  0
   60.7092   23.2415   44.8993 H   0  0  0  0  0  0  0  0  0  0  0  0
   59.2258   25.2292   45.0683 H   0  0  0  0  0  0  0  0  0  0  0  0
   58.0004   26.2382   43.9503 H   0  0  0  0  0  0  0  0  0  0  0  0
   56.8194   27.6238   43.9832 H   0  0  0  0  0  0  0  0  0  0  0  0
   59.7485   27.5707   44.7149 H   0  0  0  0  0  0  0  0  0  0  0  0
   58.8043   28.7725   43.7537 H   0  0  0  0  0  0  0  0  0  0  0  0
   60.5837   30.1390   47.1704 H   0  0  0  0  0  0  0  0  0  0  0  0
   64.6406   34.5247   49.8609 H   0  0  0  0  0  0  0  0  0  0  0  0
   69.2282   33.0348   50.5872 H   0  0  0  0  0  0  0  0  0  0  0  0
   67.8208   33.4667   49.5580 H   0  0  0  0  0  0  0  0  0  0  0  0
   69.2860   34.5058   49.5580 H   0  0  0  0  0  0  0  0  0  0  0  0
   68.7861   35.4721   53.0836 H   0  0  0  0  0  0  0  0  0  0  0  0
   69.9691   35.4629   51.7319 H   0  0  0  0  0  0  0  0  0  0  0  0
   68.6146   36.6427   51.7319 H   0  0  0  0  0  0  0  0  0  0  0  0
  1  2  1  0
  2  3  2  0
  3  4  1  0
  3  5  1  0
  5  6  2  0
  6  7  1  0
  7  8  2  0
  7  9  1  0
  9 10  1  0
 10 11  2  0
 11 12  1  0
 12 13  2  0
 13 14  1  0
 14 15  1  0
 15 16  2  0
 15 17  1  0
 17 18  1  0
 18 19  1  0
 19 20  1  0
 20 21  1  0
 21 22  1  0
 22 23  2  0
 22 24  1  0
 24 25  1  0
 25 26  1  0
 26 27  2  0
 27 28  1  0
 28 29  2  0
 29 30  1  0
 30 31  2  0
 20 32  1  0
 32 33  1  0
 14 34  2  0
  6 35  1  0
 35 36  2  0
 36 37  1  0
 37 38  2  0
 37 39  1  0
 39 40  1  0
 39 41  1  0
 36  2  1  0
 34 10  1  0
 33 17  1  0
 31 21  1  0
 31 26  1  0
  1 42  1  0
  1 43  1  0
  1 44  1  0
  5 45  1  0
  9 46  1  0
 11 47  1  0
 12 48  1  0
 13 49  1  0
 18 50  1  0
 18 51  1  0
 19 52  1  0
 19 53  1  0
 20 54  1  0
 24 55  1  0
 24 56  1  0
 25 57  1  0
 25 58  1  0
 27 59  1  0
 28 60  1  0
 29 61  1  0
 30 62  1  0
 32 63  1  0
 32 64  1  0
 33 65  1  0
 33 66  1  0
 34 67  1  0
 35 68  1  0
 40 69  1  0
 40 70  1  0
 40 71  1  0
 41 72  1  0
 41 73  1  0
 41 74  1  0
M  CHG  1   4  -1
M  END
>  <UniqueID>  (43) 
42

>  <SMILES>  (43) 
Cc1c([O-])cc(C(=O)Nc2cccc(C(=O)N3CCC(N4C(=O)CCc5ccccc54)CC3)c2)cc1C(=O)N(C)C

>  <Energy>  (43) 
108.02098344118104

>  <Genealogy>  (43) 
Cc1c([O-])cc(C(=O)Nc2cccc(C(=O)N3CCC(N4C(=O)CCc5ccccc54)CC3)c2)cc1C(=O)N(C)C (protonated)
Cc1c([O-])cc(C(=O)Nc2cccc(C(=O)N3CCC(N4C(=O)CCc5ccccc54)CC3)c2)cc1C(=O)N(C)C (3D coordinates assigned)
Cc1c([O-])cc(C(=O)Nc2cccc(C(=O)N3CCC(N4C(=O)CCc5ccccc54)CC3)c2)cc1C(=O)N(C)C (nonaromatic ring conformer: 108.02098344118104 kcal/mol)

>  <smiles>  (43) 
Cc1c(O)cc(C(=O)Nc2cccc(C(=O)N3CCC(N4C(=O)CCc5ccccc54)CC3)c2)cc1C(=O)N(C)C

>  <score_type>  (43) 
oracle

>  <origin>  (43) 
adg

>  <m_score__min__energy>  (43) 
-13.710000000000001

>  <m_primary>  (43) 
energy

$$$$
43:0
     RDKit          3D

 54 57  0  0  0  0  0  0  0  0999 V2000
   57.0630   33.4030   45.2510 C   0  0  0  0  0  0  0  0  0  0  0  0
   58.0960   33.6380   46.3140 C   0  0  0  0  0  0  0  0  0  0  0  0
   59.1690   34.5110   46.0700 C   0  0  0  0  0  0  0  0  0  0  0  0
   60.1190   34.7510   47.0650 C   0  0  0  0  0  0  0  0  0  0  0  0
   60.0000   34.1380   48.3200 C   0  0  0  0  0  0  0  0  0  0  0  0
   61.0910   34.2330   49.2420 N   0  0  0  0  0  0  0  0  0  0  0  0
   62.2380   32.9400   49.3450 S   0  0  0  0  0  0  0  0  0  0  0  0
   63.5310   33.3610   48.7000 O   0  0  0  0  0  0  0  0  0  0  0  0
   62.5020   32.6040   50.7850 O   0  0  0  0  0  0  0  0  0  0  0  0
   61.5880   31.5280   48.5140 C   0  0  0  0  0  0  0  0  0  0  0  0
   61.0950   30.4480   49.2590 C   0  0  0  0  0  0  0  0  0  0  0  0
   60.4480   29.3860   48.6210 C   0  0  0  0  0  0  0  0  0  0  0  0
   60.2980   29.3800   47.2220 C   0  0  0  0  0  0  0  0  0  0  0  0
   59.5920   28.2630   46.5430 C   0  0  0  0  0  0  0  0  0  0  0  0
   59.0930   28.4200   45.2350 C   0  0  0  0  0  0  0  0  0  0  0  0
   58.4390   27.3650   44.5960 C   0  0  0  0  0  0  0  0  0  0  0  0
   58.2730   26.1400   45.2500 C   0  0  0  0  0  0  0  0  0  0  0  0
   57.3770   24.6980   44.3730 Br  0  0  0  0  0  0  0  0  0  0  0  0
   58.7640   25.9710   46.5490 C   0  0  0  0  0  0  0  0  0  0  0  0
   59.4190   27.0240   47.1930 C   0  0  0  0  0  0  0  0  0  0  0  0
   60.8120   30.4620   46.4780 C   0  0  0  0  0  0  0  0  0  0  0  0
   61.4450   31.5300   47.1200 C   0  0  0  0  0  0  0  0  0  0  0  0
   58.9160   33.2780   48.5810 C   0  0  0  0  0  0  0  0  0  0  0  0
   58.7430   32.6430   49.9020 C   0  0  0  0  0  0  0  0  0  0  0  0
   57.7690   31.8580   50.0760 O   0  0  0  0  0  0  0  0  0  0  0  0
   59.5550   33.0660   51.0230 N   0  0  0  0  0  0  0  0  0  0  0  0
   58.8970   34.1320   51.7790 C   0  0  0  0  0  0  0  0  0  0  0  0
   59.5160   34.1090   53.1680 C   0  0  0  0  0  0  0  0  0  0  0  0
   60.0890   32.7080   53.3260 C   0  0  0  0  0  0  0  0  0  0  0  0
   59.8110   32.0040   52.0020 C   0  0  0  0  0  0  0  0  0  0  0  0
   57.9710   33.0300   47.5720 C   0  0  0  0  0  0  0  0  0  0  0  0
   56.0943   33.1826   45.7234 H   0  0  0  0  0  0  0  0  0  0  0  0
   56.9695   34.3028   44.6252 H   0  0  0  0  0  0  0  0  0  0  0  0
   57.3680   32.5513   44.6252 H   0  0  0  0  0  0  0  0  0  0  0  0
   59.2612   35.0070   45.0925 H   0  0  0  0  0  0  0  0  0  0  0  0
   60.9649   35.4245   46.8629 H   0  0  0  0  0  0  0  0  0  0  0  0
   61.2180   30.4361   50.3520 H   0  0  0  0  0  0  0  0  0  0  0  0
   60.0535   28.5495   49.2165 H   0  0  0  0  0  0  0  0  0  0  0  0
   59.2195   29.3803   44.7136 H   0  0  0  0  0  0  0  0  0  0  0  0
   58.0529   27.4977   43.5746 H   0  0  0  0  0  0  0  0  0  0  0  0
   58.6343   25.0078   47.0642 H   0  0  0  0  0  0  0  0  0  0  0  0
   59.8024   26.8852   48.2146 H   0  0  0  0  0  0  0  0  0  0  0  0
   60.7139   30.4655   45.3824 H   0  0  0  0  0  0  0  0  0  0  0  0
   61.8317   32.3739   46.5298 H   0  0  0  0  0  0  0  0  0  0  0  0
   60.4810   33.4300   50.6850 H   0  0  0  0  0  0  0  0  0  0  0  0
   59.0737   35.1056   51.2985 H   0  0  0  0  0  0  0  0  0  0  0  0
   57.8083   33.9807   51.8220 H   0  0  0  0  0  0  0  0  0  0  0  0
   60.3129   34.8630   53.2477 H   0  0  0  0  0  0  0  0  0  0  0  0
   58.7791   34.3426   53.9506 H   0  0  0  0  0  0  0  0  0  0  0  0
   61.1713   32.7543   53.5172 H   0  0  0  0  0  0  0  0  0  0  0  0
   59.6367   32.1748   54.1752 H   0  0  0  0  0  0  0  0  0  0  0  0
   60.6824   31.4057   51.6973 H   0  0  0  0  0  0  0  0  0  0  0  0
   58.9553   31.3176   52.0835 H   0  0  0  0  0  0  0  0  0  0  0  0
   57.1263   32.3537   47.7697 H   0  0  0  0  0  0  0  0  0  0  0  0
  1  2  1  0
  2  3  2  0
  3  4  1  0
  4  5  2  0
  5  6  1  0
  6  7  1  0
  7  8  2  0
  7  9  2  0
  7 10  1  0
 10 11  2  0
 11 12  1  0
 12 13  2  0
 13 14  1  0
 14 15  2  0
 15 16  1  0
 16 17  2  0
 17 18  1  0
 17 19  1  0
 19 20  2  0
 13 21  1  0
 21 22  2  0
  5 23  1  0
 23 24  1  0
 24 25  2  0
 24 26  1  0
 26 27  1  0
 27 28  1  0
 28 29  1  0
 29 30  1  0
 23 31  2  0
 31  2  1  0
 22 10  1  0
 30 26  1  0
 20 14  1  0
  1 32  1  0
  1 33  1  0
  1 34  1  0
  3 35  1  0
  4 36  1  0
 11 37  1  0
 12 38  1  0
 15 39  1  0
 16 40  1  0
 19 41  1  0
 20 42  1  0
 21 43  1  0
 22 44  1  0
 26 45  1  0
 27 46  1  0
 27 47  1  0
 28 48  1  0
 28 49  1  0
 29 50  1  0
 29 51  1  0
 30 52  1  0
 30 53  1  0
 31 54  1  0
M  CHG  2   6  -1  26   1
M  END
>  <UniqueID>  (44) 
43

>  <SMILES>  (44) 
Cc1ccc([N-]S(=O)(=O)c2ccc(-c3ccc(Br)cc3)cc2)c(C(=O)[NH+]2CCCC2)c1

>  <Energy>  (44) 
80.7813745747954

>  <Genealogy>  (44) 
Cc1ccc([N-]S(=O)(=O)c2ccc(-c3ccc(Br)cc3)cc2)c(C(=O)[NH+]2CCCC2)c1 (protonated)
Cc1ccc([N-]S(=O)(=O)c2ccc(-c3ccc(Br)cc3)cc2)c(C(=O)[NH+]2CCCC2)c1 (3D coordinates assigned)
Cc1ccc([N-]S(=O)(=O)c2ccc(-c3ccc(Br)cc3)cc2)c(C(=O)[NH+]2CCCC2)c1 (nonaromatic ring conformer: 80.7813745747954 kcal/mol)

>  <smiles>  (44) 
Cc1ccc(NS(=O)(=O)c2ccc(-c3ccc(Br)cc3)cc2)c(C(=O)N2CCCC2)c1

>  <score_type>  (44) 
oracle

>  <origin>  (44) 
adg

>  <m_score__min__energy>  (44) 
-8.9499999999999993

>  <m_primary>  (44) 
energy

$$$$
44:0
     RDKit          3D

 45 47  0  0  0  0  0  0  0  0999 V2000
   64.2940   33.7730   50.4350 C   0  0  0  0  0  0  0  0  0  0  0  0
   63.5910   33.3650   49.3820 C   0  0  0  0  0  0  0  0  0  0  0  0
   64.1340   32.6910   48.2560 N   0  0  0  0  0  0  0  0  0  0  0  0
   63.0360   32.4440   47.3750 C   0  0  0  0  0  0  0  0  0  0  0  0
   61.8800   32.9060   47.8700 C   0  0  0  0  0  0  0  0  0  0  0  0
   60.5440   32.8180   47.2320 C   0  0  0  0  0  0  0  0  0  0  0  0
   60.3550   31.9140   46.3700 O   0  0  0  0  0  0  0  0  0  0  0  0
   59.4820   33.7570   47.5600 N   0  0  0  0  0  0  0  0  0  0  0  0
   58.1350   33.1280   47.5780 C   0  0  0  0  0  0  0  0  0  0  0  0
   57.4310   33.1510   46.2030 C   0  0  0  0  0  0  0  0  0  0  0  0
   58.4160   33.2940   45.1170 N   0  0  0  0  0  0  0  0  0  0  0  0
   57.7700   33.1150   43.7980 C   0  0  0  0  0  0  0  0  0  0  0  0
   58.1700   31.7840   43.1390 C   0  0  0  0  0  0  0  0  0  0  0  0
   57.8470   30.6000   44.0160 C   0  0  0  0  0  0  0  0  0  0  0  0
   58.8620   29.9650   44.7530 C   0  0  0  0  0  0  0  0  0  0  0  0
   58.5670   28.8500   45.5420 C   0  0  0  0  0  0  0  0  0  0  0  0
   57.2590   28.3620   45.6060 C   0  0  0  0  0  0  0  0  0  0  0  0
   56.2440   28.9900   44.8820 C   0  0  0  0  0  0  0  0  0  0  0  0
   56.5340   30.1030   44.0880 C   0  0  0  0  0  0  0  0  0  0  0  0
   59.1030   34.5990   45.2170 C   0  0  0  0  0  0  0  0  0  0  0  0
   59.5120   34.9360   46.6690 C   0  0  0  0  0  0  0  0  0  0  0  0
   62.1680   33.5190   49.1660 C   0  0  0  0  0  0  0  0  0  0  0  0
   61.3450   34.0810   49.9360 O   0  0  0  0  0  0  0  0  0  0  0  0
   63.7907   34.2892   51.2658 H   0  0  0  0  0  0  0  0  0  0  0  0
   65.3786   33.5942   50.4749 H   0  0  0  0  0  0  0  0  0  0  0  0
   65.1320   32.4250   48.0990 H   0  0  0  0  0  0  0  0  0  0  0  0
   63.1292   31.9345   46.4046 H   0  0  0  0  0  0  0  0  0  0  0  0
   59.6560   34.0950   48.5350 H   0  0  0  0  0  0  0  0  0  0  0  0
   58.2429   32.0809   47.8974 H   0  0  0  0  0  0  0  0  0  0  0  0
   57.5125   33.7113   48.2724 H   0  0  0  0  0  0  0  0  0  0  0  0
   56.8757   32.2114   46.0657 H   0  0  0  0  0  0  0  0  0  0  0  0
   56.7428   34.0085   46.1719 H   0  0  0  0  0  0  0  0  0  0  0  0
   56.6783   33.1317   43.9316 H   0  0  0  0  0  0  0  0  0  0  0  0
   58.1020   33.9333   43.1421 H   0  0  0  0  0  0  0  0  0  0  0  0
   57.6262   31.6808   42.1884 H   0  0  0  0  0  0  0  0  0  0  0  0
   59.2577   31.7991   42.9754 H   0  0  0  0  0  0  0  0  0  0  0  0
   59.8924   30.3474   44.7084 H   0  0  0  0  0  0  0  0  0  0  0  0
   59.3660   28.3554   46.1139 H   0  0  0  0  0  0  0  0  0  0  0  0
   57.0293   27.4833   46.2267 H   0  0  0  0  0  0  0  0  0  0  0  0
   55.2139   28.6081   44.9365 H   0  0  0  0  0  0  0  0  0  0  0  0
   55.7312   30.5923   43.5169 H   0  0  0  0  0  0  0  0  0  0  0  0
   60.0077   34.5715   44.5918 H   0  0  0  0  0  0  0  0  0  0  0  0
   58.4026   35.3754   44.8755 H   0  0  0  0  0  0  0  0  0  0  0  0
   60.5333   35.3446   46.6608 H   0  0  0  0  0  0  0  0  0  0  0  0
   58.7848   35.6640   47.0578 H   0  0  0  0  0  0  0  0  0  0  0  0
  1  2  2  0
  2  3  1  0
  3  4  1  0
  4  5  2  0
  5  6  1  0
  6  7  2  0
  6  8  1  0
  8  9  1  0
  9 10  1  0
 10 11  1  0
 11 12  1  0
 12 13  1  0
 13 14  1  0
 14 15  2  0
 15 16  1  0
 16 17  2  0
 17 18  1  0
 18 19  2  0
 11 20  1  0
 20 21  1  0
  5 22  1  0
 22 23  2  0
 22  2  1  0
 21  8  1  0
 19 14  1  0
  1 24  1  0
  1 25  1  0
  3 26  1  0
  4 27  1  0
  8 28  1  0
  9 29  1  0
  9 30  1  0
 10 31  1  0
 10 32  1  0
 12 33  1  0
 12 34  1  0
 13 35  1  0
 13 36  1  0
 15 37  1  0
 16 38  1  0
 17 39  1  0
 18 40  1  0
 19 41  1  0
 20 42  1  0
 20 43  1  0
 21 44  1  0
 21 45  1  0
M  CHG  1   8   1
M  END
>  <UniqueID>  (45) 
44

>  <SMILES>  (45) 
C=C1NC=C(C(=O)[NH+]2CCN(CCc3ccccc3)CC2)C1=O

>  <Energy>  (45) 
80.83959739063285

>  <Genealogy>  (45) 
C=C1NC=C(C(=O)[NH+]2CCN(CCc3ccccc3)CC2)C1=O (protonated)
C=C1NC=C(C(=O)[NH+]2CCN(CCc3ccccc3)CC2)C1=O (3D coordinates assigned)
C=C1NC=C(C(=O)[NH+]2CCN(CCc3ccccc3)CC2)C1=O (nonaromatic ring conformer: 80.83959739063285 kcal/mol)

>  <smiles>  (45) 
C=C1NC=C(C(=O)N2CCN(CCc3ccccc3)CC2)C1=O

>  <score_type>  (45) 
oracle

>  <origin>  (45) 
adg

>  <m_score__min__energy>  (45) 
-7.4400000000000004

>  <m_primary>  (45) 
energy

$$$$
45:0
     RDKit          3D

 46 48  0  0  0  0  0  0  0  0999 V2000
   58.1130   32.6790   43.2650 N   0  0  0  0  0  0  0  0  0  0  0  0
   58.5430   33.0480   44.2730 C   0  0  0  0  0  0  0  0  0  0  0  0
   59.0780   33.5060   45.5290 C   0  0  0  0  0  0  0  0  0  0  0  0
   58.3850   34.4610   46.2800 C   0  0  0  0  0  0  0  0  0  0  0  0
   58.9080   34.9110   47.4920 C   0  0  0  0  0  0  0  0  0  0  0  0
   60.1170   34.3980   47.9720 C   0  0  0  0  0  0  0  0  0  0  0  0
   60.6100   34.8650   49.1470 F   0  0  0  0  0  0  0  0  0  0  0  0
   60.8080   33.4100   47.2430 C   0  0  0  0  0  0  0  0  0  0  0  0
   62.1030   32.8250   47.7630 C   0  0  0  0  0  0  0  0  0  0  0  0
   61.9940   31.4070   48.1710 N   0  0  0  0  0  0  0  0  0  0  0  0
   61.6360   31.1550   49.5820 C   0  0  0  0  0  0  0  0  0  0  0  0
   60.1170   31.0160   49.8190 C   0  0  0  0  0  0  0  0  0  0  0  0
   59.3440   30.5100   48.5930 C   0  0  0  0  0  0  0  0  0  0  0  0
   60.2350   29.6510   47.6880 C   0  0  1  0  0  0  0  0  0  0  0  0
   59.4460   29.0350   46.5460 C   0  0  0  0  0  0  0  0  0  0  0  0
   59.6970   27.7160   46.1160 C   0  0  0  0  0  0  0  0  0  0  0  0
   58.9530   27.1590   45.0730 C   0  0  0  0  0  0  0  0  0  0  0  0
   57.9530   27.9050   44.4470 C   0  0  0  0  0  0  0  0  0  0  0  0
   57.6920   29.2170   44.8600 C   0  0  0  0  0  0  0  0  0  0  0  0
   56.4160   30.1530   44.0860 S   0  0  0  0  0  0  0  0  0  0  0  0
   56.8890   30.5530   42.4720 N   0  0  0  0  0  0  0  0  0  0  0  0
   55.1460   29.3490   44.0530 O   0  0  0  0  0  0  0  0  0  0  0  0
   56.1670   31.4150   44.8620 O   0  0  0  0  0  0  0  0  0  0  0  0
   58.4320   29.7760   45.9120 C   0  0  0  0  0  0  0  0  0  0  0  0
   61.4340   30.4730   47.1640 C   0  0  0  0  0  0  0  0  0  0  0  0
   60.2930   32.9930   46.0010 C   0  0  0  0  0  0  0  0  0  0  0  0
   57.4264   34.8576   45.9143 H   0  0  0  0  0  0  0  0  0  0  0  0
   58.3672   35.6727   48.0728 H   0  0  0  0  0  0  0  0  0  0  0  0
   62.8614   32.9008   46.9698 H   0  0  0  0  0  0  0  0  0  0  0  0
   62.3764   33.3977   48.6615 H   0  0  0  0  0  0  0  0  0  0  0  0
   62.1248   30.2236   49.9037 H   0  0  0  0  0  0  0  0  0  0  0  0
   61.9743   32.0268   50.1612 H   0  0  0  0  0  0  0  0  0  0  0  0
   59.9580   30.3083   50.6460 H   0  0  0  0  0  0  0  0  0  0  0  0
   59.7343   32.0217   50.0472 H   0  0  0  0  0  0  0  0  0  0  0  0
   58.4897   29.9059   48.9324 H   0  0  0  0  0  0  0  0  0  0  0  0
   59.0000   31.3809   48.0158 H   0  0  0  0  0  0  0  0  0  0  0  0
   60.6277   28.8209   48.2936 H   0  0  0  0  0  0  0  0  0  0  0  0
   60.4833   27.1219   46.6047 H   0  0  0  0  0  0  0  0  0  0  0  0
   59.1559   26.1292   44.7440 H   0  0  0  0  0  0  0  0  0  0  0  0
   57.3688   27.4611   43.6275 H   0  0  0  0  0  0  0  0  0  0  0  0
   57.9320   30.6010   42.4630 H   0  0  0  0  0  0  0  0  0  0  0  0
   56.5410   31.5200   42.2840 H   0  0  0  0  0  0  0  0  0  0  0  0
   58.2178   30.8025   46.2442 H   0  0  0  0  0  0  0  0  0  0  0  0
   62.2271   29.7754   46.8566 H   0  0  0  0  0  0  0  0  0  0  0  0
   61.0675   31.0824   46.3248 H   0  0  0  0  0  0  0  0  0  0  0  0
   60.8481   32.2598   45.3974 H   0  0  0  0  0  0  0  0  0  0  0  0
  1  2  3  0
  2  3  1  0
  3  4  2  0
  4  5  1  0
  5  6  2  0
  6  7  1  0
  6  8  1  0
  8  9  1  0
  9 10  1  0
 10 11  1  0
 11 12  1  0
 12 13  1  0
 13 14  1  0
 14 15  1  0
 15 16  2  0
 16 17  1  0
 17 18  2  0
 18 19  1  0
 19 20  1  0
 20 21  1  0
 20 22  2  0
 20 23  2  0
 19 24  2  0
 14 25  1  0
  8 26  2  0
 26  3  1  0
 25 10  1  0
 24 15  1  0
  4 27  1  0
  5 28  1  0
  9 29  1  0
  9 30  1  0
 11 31  1  0
 11 32  1  0
 12 33  1  0
 12 34  1  0
 13 35  1  0
 13 36  1  0
 14 37  1  1
 16 38  1  0
 17 39  1  0
 18 40  1  0
 21 41  1  0
 21 42  1  0
 24 43  1  0
 25 44  1  0
 25 45  1  0
 26 46  1  0
M  END
>  <UniqueID>  (46) 
45

>  <SMILES>  (46) 
N#Cc1ccc(F)c(CN2CCC[C@@H](c3cccc(S(N)(=O)=O)c3)C2)c1

>  <Energy>  (46) 
58.2227387241344

>  <Genealogy>  (46) 
N#Cc1ccc(F)c(CN2CCC[C@@H](c3cccc(S(N)(=O)=O)c3)C2)c1 (chirality)
N#Cc1ccc(F)c(CN2CCC[C@@H](c3cccc(S(N)(=O)=O)c3)C2)c1 (3D coordinates assigned)
N#Cc1ccc(F)c(CN2CCC[C@@H](c3cccc(S(N)(=O)=O)c3)C2)c1 (nonaromatic ring conformer: 58.2227387241344 kcal/mol)

>  <smiles>  (46) 
N#Cc1ccc(F)c(CN2CCCC(c3cccc(S(N)(=O)=O)c3)C2)c1

>  <score_type>  (46) 
oracle

>  <origin>  (46) 
adg

>  <m_score__min__energy>  (46) 
-8.5600000000000005

>  <m_primary>  (46) 
energy

$$$$
46:0
     RDKit          3D

 59 62  0  0  0  0  0  0  0  0999 V2000
   63.7420   33.1760   47.0930 C   0  0  0  0  0  0  0  0  0  0  0  0
   62.6010   33.9410   46.7240 O   0  0  0  0  0  0  0  0  0  0  0  0
   61.2900   33.5280   47.0000 C   0  0  0  0  0  0  0  0  0  0  0  0
   60.9830   33.0070   48.2580 C   0  0  0  0  0  0  0  0  0  0  0  0
   59.6570   32.6130   48.5230 C   0  0  0  0  0  0  0  0  0  0  0  0
   59.2600   32.1250   49.8210 N   0  0  0  0  0  0  0  0  0  0  0  0
   59.2920   30.6950   50.1540 C   0  0  0  0  0  0  0  0  0  0  0  0
   58.0760   30.3400   51.0230 C   0  0  0  0  0  0  0  0  0  0  0  0
   57.9020   31.2260   52.2100 N   0  0  0  0  0  0  0  0  0  0  0  0
   56.4890   31.6090   52.3890 C   0  0  0  0  0  0  0  0  0  0  0  0
   58.7870   32.4160   52.2320 C   0  0  0  0  0  0  0  0  0  0  0  0
   58.8940   33.0930   50.8600 C   0  0  0  0  0  0  0  0  0  0  0  0
   58.7180   32.7570   47.5490 N   0  0  0  0  0  0  0  0  0  0  0  0
   59.0390   33.2720   46.3310 C   0  0  0  0  0  0  0  0  0  0  0  0
   57.7580   33.4960   45.1020 S   0  0  0  0  0  0  0  0  0  0  0  0
   57.7080   31.7400   44.7470 C   0  0  0  0  0  0  0  0  0  0  0  0
   58.7230   30.9070   45.2300 C   0  0  0  0  0  0  0  0  0  0  0  0
   58.6540   29.5270   45.0250 C   0  0  0  0  0  0  0  0  0  0  0  0
   57.5600   28.9640   44.3410 C   0  0  0  0  0  0  0  0  0  0  0  0
   57.4470   27.5420   44.1580 N   0  0  0  0  0  0  0  0  0  0  0  0
   57.5710   26.6040   45.2440 C   0  0  0  0  0  0  0  0  0  0  0  0
   57.5010   27.0130   46.4370 O   0  0  0  0  0  0  0  0  0  0  0  0
   57.7240   25.1520   44.9830 C   0  0  0  0  0  0  0  0  0  0  0  0
   58.6930   24.4090   45.6840 C   0  0  0  0  0  0  0  0  0  0  0  0
   58.8630   23.0460   45.4300 C   0  0  0  0  0  0  0  0  0  0  0  0
   58.0730   22.4080   44.4730 C   0  0  0  0  0  0  0  0  0  0  0  0
   57.0940   23.1270   43.7730 C   0  0  0  0  0  0  0  0  0  0  0  0
   56.2710   22.4550   42.7130 C   0  0  0  0  0  0  0  0  0  0  0  0
   56.9330   24.5010   44.0180 C   0  0  0  0  0  0  0  0  0  0  0  0
   56.5700   29.8120   43.8170 C   0  0  0  0  0  0  0  0  0  0  0  0
   56.6400   31.1930   44.0260 C   0  0  0  0  0  0  0  0  0  0  0  0
   60.3120   33.6520   46.0640 N   0  0  0  0  0  0  0  0  0  0  0  0
   63.8127   33.1286   48.1897 H   0  0  0  0  0  0  0  0  0  0  0  0
   63.6477   32.1579   46.6873 H   0  0  0  0  0  0  0  0  0  0  0  0
   64.6480   33.6499   46.6873 H   0  0  0  0  0  0  0  0  0  0  0  0
   61.7620   32.9060   49.0280 H   0  0  0  0  0  0  0  0  0  0  0  0
   59.2650   30.1028   49.2274 H   0  0  0  0  0  0  0  0  0  0  0  0
   60.2150   30.4700   50.7085 H   0  0  0  0  0  0  0  0  0  0  0  0
   57.1721   30.4136   50.4004 H   0  0  0  0  0  0  0  0  0  0  0  0
   58.2434   29.3225   51.4059 H   0  0  0  0  0  0  0  0  0  0  0  0
   56.2592   31.6713   53.4629 H   0  0  0  0  0  0  0  0  0  0  0  0
   56.3119   32.5875   51.9188 H   0  0  0  0  0  0  0  0  0  0  0  0
   55.8420   30.8538   51.9188 H   0  0  0  0  0  0  0  0  0  0  0  0
   58.3841   33.1421   52.9533 H   0  0  0  0  0  0  0  0  0  0  0  0
   59.7942   32.0786   52.5180 H   0  0  0  0  0  0  0  0  0  0  0  0
   57.9236   33.5439   50.6052 H   0  0  0  0  0  0  0  0  0  0  0  0
   59.6770   33.8639   50.9108 H   0  0  0  0  0  0  0  0  0  0  0  0
   59.5768   31.3395   45.7721 H   0  0  0  0  0  0  0  0  0  0  0  0
   59.4584   28.8771   45.3999 H   0  0  0  0  0  0  0  0  0  0  0  0
   57.0630   27.1950   43.2520 H   0  0  0  0  0  0  0  0  0  0  0  0
   59.3213   24.9059   46.4378 H   0  0  0  0  0  0  0  0  0  0  0  0
   59.6211   22.4745   45.9855 H   0  0  0  0  0  0  0  0  0  0  0  0
   58.2189   21.3373   44.2671 H   0  0  0  0  0  0  0  0  0  0  0  0
   55.5026   21.8276   43.1882 H   0  0  0  0  0  0  0  0  0  0  0  0
   55.7856   23.2181   42.0869 H   0  0  0  0  0  0  0  0  0  0  0  0
   56.9217   21.8268   42.0869 H   0  0  0  0  0  0  0  0  0  0  0  0
   56.1830   25.0723   43.4513 H   0  0  0  0  0  0  0  0  0  0  0  0
   55.7356   29.3876   43.2394 H   0  0  0  0  0  0  0  0  0  0  0  0
   55.8550   31.8501   43.6234 H   0  0  0  0  0  0  0  0  0  0  0  0
  1  2  1  0
  2  3  1  0
  3  4  2  0
  4  5  1  0
  5  6  1  0
  6  7  1  0
  7  8  1  0
  8  9  1  0
  9 10  1  0
  9 11  1  0
 11 12  1  0
  5 13  2  0
 13 14  1  0
 14 15  1  0
 15 16  1  0
 16 17  2  0
 17 18  1  0
 18 19  2  0
 19 20  1  0
 20 21  1  0
 21 22  2  0
 21 23  1  0
 23 24  2  0
 24 25  1  0
 25 26  2  0
 26 27  1  0
 27 28  1  0
 27 29  2  0
 19 30  1  0
 30 31  2  0
 14 32  2  0
 32  3  1  0
 12  6  1  0
 31 16  1  0
 29 23  1  0
  1 33  1  0
  1 34  1  0
  1 35  1  0
  4 36  1  0
  7 37  1  0
  7 38  1  0
  8 39  1  0
  8 40  1  0
 10 41  1  0
 10 42  1  0
 10 43  1  0
 11 44  1  0
 11 45  1  0
 12 46  1  0
 12 47  1  0
 17 48  1  0
 18 49  1  0
 20 50  1  0
 24 51  1  0
 25 52  1  0
 26 53  1  0
 28 54  1  0
 28 55  1  0
 28 56  1  0
 29 57  1  0
 30 58  1  0
 31 59  1  0
M  END
>  <UniqueID>  (47) 
46

>  <SMILES>  (47) 
COc1cc(N2CCN(C)CC2)nc(Sc2ccc(NC(=O)c3cccc(C)c3)cc2)n1

>  <Energy>  (47) 
70.45417255229377

>  <Genealogy>  (47) 
COc1cc(N2CCN(C)CC2)nc(Sc2ccc(NC(=O)c3cccc(C)c3)cc2)n1 (3D coordinates assigned)
COc1cc(N2CCN(C)CC2)nc(Sc2ccc(NC(=O)c3cccc(C)c3)cc2)n1 (nonaromatic ring conformer: 70.45417255229377 kcal/mol)

>  <smiles>  (47) 
COc1cc(N2CCN(C)CC2)nc(Sc2ccc(NC(=O)c3cccc(C)c3)cc2)n1

>  <score_type>  (47) 
oracle

>  <origin>  (47) 
adg

>  <m_score__min__energy>  (47) 
-9.0500000000000007

>  <m_primary>  (47) 
energy

$$$$
47:0
     RDKit          3D

 57 60  0  0  0  0  0  0  0  0999 V2000
   51.4040   33.1740   52.7140 H   0  0  0  0  0  0  0  0  0  0  0  0
   51.0550   33.0990   51.7700 O   0  0  0  0  0  0  0  0  0  0  0  0
   51.3430   31.9820   50.9940 C   0  0  0  0  0  0  0  0  0  0  0  0
   50.8410   31.7750   49.7670 N   0  0  0  0  0  0  0  0  0  0  0  0
   51.4360   30.6210   49.3970 C   0  0  0  0  0  0  0  0  0  0  0  0
   51.2240   30.0740   48.2860 O   0  0  0  0  0  0  0  0  0  0  0  0
   52.2780   30.0990   50.3110 N   0  0  0  0  0  0  0  0  0  0  0  0
   52.1950   30.9600   51.3390 C   0  0  0  0  0  0  0  0  0  0  0  0
   53.0010   30.8360   52.5630 C   0  0  0  0  0  0  0  0  0  0  0  0
   52.4890   30.9178   53.5331 H   0  0  0  0  0  0  0  0  0  0  0  0
   54.3300   30.6280   52.5610 C   0  0  0  0  0  0  0  0  0  0  0  0
   55.3110   31.5900   52.3700 C   0  0  0  0  0  0  0  0  0  0  0  0
   55.1537   32.6492   52.1185 H   0  0  0  0  0  0  0  0  0  0  0  0
   56.5200   30.9590   52.5570 C   0  0  0  0  0  0  0  0  0  0  0  0
   57.8240   31.6420   52.5020 C   0  0  0  0  0  0  0  0  0  0  0  0
   58.3940   31.9520   53.5780 O   0  0  0  0  0  0  0  0  0  0  0  0
   58.4580   31.9380   51.2380 N   0  0  0  0  0  0  0  0  0  0  0  0
   58.1600   31.1380   50.0450 C   0  0  0  0  0  0  0  0  0  0  0  0
   57.7180   30.1786   50.3519 H   0  0  0  0  0  0  0  0  0  0  0  0
   57.4527   31.6909   49.4094 H   0  0  0  0  0  0  0  0  0  0  0  0
   59.4450   30.8730   49.2510 C   0  0  0  0  0  0  0  0  0  0  0  0
   60.1092   30.2303   49.8475 H   0  0  0  0  0  0  0  0  0  0  0  0
   59.1745   30.3802   48.3055 H   0  0  0  0  0  0  0  0  0  0  0  0
   60.1840   32.1960   48.9210 C   0  0  0  0  0  0  0  0  0  0  0  0
   61.1107   32.0053   48.3599 H   0  0  0  0  0  0  0  0  0  0  0  0
   59.3760   33.0740   48.0150 N   0  0  0  0  0  0  0  0  0  0  0  0
   60.2180   34.0750   47.3190 C   0  0  0  0  0  0  0  0  0  0  0  0
   60.7041   34.7161   48.0692 H   0  0  0  0  0  0  0  0  0  0  0  0
   60.9658   33.5371   46.7179 H   0  0  0  0  0  0  0  0  0  0  0  0
   59.3810   34.9610   46.3690 C   0  0  0  0  0  0  0  0  0  0  0  0
   59.2699   35.9560   46.8248 H   0  0  0  0  0  0  0  0  0  0  0  0
   59.9135   35.0066   45.4075 H   0  0  0  0  0  0  0  0  0  0  0  0
   58.0910   34.4350   46.1140 O   0  0  0  0  0  0  0  0  0  0  0  0
   58.2010   33.0710   45.7820 C   0  0  0  0  0  0  0  0  0  0  0  0
   57.2276   32.7037   45.4248 H   0  0  0  0  0  0  0  0  0  0  0  0
   58.9580   32.9521   44.9928 H   0  0  0  0  0  0  0  0  0  0  0  0
   58.6290   32.2600   47.0170 C   0  0  0  0  0  0  0  0  0  0  0  0
   57.7278   31.8537   47.4995 H   0  0  0  0  0  0  0  0  0  0  0  0
   59.3031   31.4627   46.6707 H   0  0  0  0  0  0  0  0  0  0  0  0
   60.5210   32.8660   50.2810 C   0  0  0  0  0  0  0  0  0  0  0  0
   61.1618   32.1895   50.8656 H   0  0  0  0  0  0  0  0  0  0  0  0
   61.0397   33.8157   50.0832 H   0  0  0  0  0  0  0  0  0  0  0  0
   59.2500   33.1640   51.0790 C   0  0  0  0  0  0  0  0  0  0  0  0
   59.5252   33.5512   52.0712 H   0  0  0  0  0  0  0  0  0  0  0  0
   58.6519   33.9128   50.5391 H   0  0  0  0  0  0  0  0  0  0  0  0
   56.3390   29.6510   52.8510 N   0  0  0  0  0  0  0  0  0  0  0  0
   57.4050   28.6520   53.0220 C   0  0  0  0  0  0  0  0  0  0  0  0
   57.0323   27.6668   52.7050 H   0  0  0  0  0  0  0  0  0  0  0  0
   58.2696   28.9451   52.4084 H   0  0  0  0  0  0  0  0  0  0  0  0
   57.8380   28.5790   54.4830 C   0  0  0  0  0  0  0  0  0  0  0  0
   56.9627   28.7266   55.1327 H   0  0  0  0  0  0  0  0  0  0  0  0
   58.2825   27.5933   54.6849 H   0  0  0  0  0  0  0  0  0  0  0  0
   58.5811   29.3645   54.6849 H   0  0  0  0  0  0  0  0  0  0  0  0
   54.9980   29.4320   52.8350 C   0  0  0  0  0  0  0  0  0  0  0  0
   54.4250   28.2320   53.0280 C   0  0  0  0  0  0  0  0  0  0  0  0
   55.0499   27.3516   53.2385 H   0  0  0  0  0  0  0  0  0  0  0  0
   53.3310   28.1301   52.9755 H   0  0  0  0  0  0  0  0  0  0  0  0
  1  2  1  0
  2  3  1  0
  3  4  1  0
  4  5  1  0
  5  6  2  0
  5  7  1  0
  7  8  1  0
  8  9  1  0
  9 10  1  0
  9 11  2  0
 11 12  1  0
 12 13  1  0
 12 14  2  0
 14 15  1  0
 15 16  2  0
 15 17  1  0
 17 18  1  0
 18 19  1  0
 18 20  1  0
 18 21  1  0
 21 22  1  0
 21 23  1  0
 21 24  1  0
 24 25  1  0
 24 26  1  0
 26 27  1  0
 27 28  1  0
 27 29  1  0
 27 30  1  0
 30 31  1  0
 30 32  1  0
 30 33  1  0
 33 34  1  0
 34 35  1  0
 34 36  1  0
 34 37  1  0
 37 38  1  0
 37 39  1  0
 24 40  1  0
 40 41  1  0
 40 42  1  0
 40 43  1  0
 43 44  1  0
 43 45  1  0
 14 46  1  0
 46 47  1  0
 47 48  1  0
 47 49  1  0
 47 50  1  0
 50 51  1  0
 50 52  1  0
 50 53  1  0
 46 54  1  0
 54 55  2  0
 55 56  1  0
 55 57  1  0
  8  3  2  0
 54 11  1  0
 43 17  1  0
 37 26  1  0
M  CHG  2   4  -1   7  -1
M  END
>  <UniqueID>  (48) 
47

>  <SMILES>  (48) 
C=c1/c(=C/c2[n-]c(=O)[n-]c2O)cc(C(=O)N2CCC(N3CCOCC3)CC2)n1CC

>  <Energy>  (48) 
140.18943668275338

>  <Genealogy>  (48) 
C=c1c(=Cc2[n-]c(=O)[n-]c2O)cc(C(=O)N2CCC(N3CCOCC3)CC2)n1CC (protonated)
C=c1/c(=C/c2[n-]c(=O)[n-]c2O)cc(C(=O)N2CCC(N3CCOCC3)CC2)n1CC (cis-trans isomerization)
C=c1/c(=C/c2[n-]c(=O)[n-]c2O)cc(C(=O)N2CCC(N3CCOCC3)CC2)n1CC (3D coordinates assigned)
C=c1/c(=C/c2[n-]c(=O)[n-]c2O)cc(C(=O)N2CCC(N3CCOCC3)CC2)n1CC (nonaromatic ring conformer: 140.18943668275338 kcal/mol)

>  <smiles>  (48) 
C=c1c(=Cc2[nH]c(=O)[nH]c2O)cc(C(=O)N2CCC(N3CCOCC3)CC2)n1CC

>  <score_type>  (48) 
oracle

>  <origin>  (48) 
adg

>  <m_score__min__energy>  (48) 
-13.65

>  <m_primary>  (48) 
energy

$$$$
48:0
     RDKit          3D

 44 47  0  0  0  0  0  0  0  0999 V2000
   55.8220   26.1190   46.3900 O   0  0  0  0  0  0  0  0  0  0  0  0
   56.6540   25.1820   46.5250 C   0  0  0  0  0  0  0  0  0  0  0  0
   56.5730   24.2880   47.7190 C   0  0  0  0  0  0  0  0  0  0  0  0
   57.3870   23.1390   47.4980 O   0  0  0  0  0  0  0  0  0  0  0  0
   56.9410   21.9360   46.9290 C   0  0  0  0  0  0  0  0  0  0  0  0
   55.9860   21.1280   47.5820 C   0  0  0  0  0  0  0  0  0  0  0  0
   55.5630   19.9270   47.0120 C   0  0  0  0  0  0  0  0  0  0  0  0
   56.0800   19.5150   45.7860 C   0  0  0  0  0  0  0  0  0  0  0  0
   57.0210   20.3030   45.1230 C   0  0  0  0  0  0  0  0  0  0  0  0
   57.4620   21.5200   45.6760 C   0  0  0  0  0  0  0  0  0  0  0  0
   58.4350   22.3120   44.9590 N   0  0  0  0  0  0  0  0  0  0  0  0
   58.1610   22.8370   43.8600 O   0  0  0  0  0  0  0  0  0  0  0  0
   59.7060   22.4690   45.4610 O   0  0  0  0  0  0  0  0  0  0  0  0
   57.6540   24.9490   45.5230 N   0  0  0  0  0  0  0  0  0  0  0  0
   57.8020   25.8050   44.3490 C   0  0  0  0  0  0  0  0  0  0  0  0
   58.0780   27.2130   44.7720 C   0  0  0  0  0  0  0  0  0  0  0  0
   59.2480   27.6570   45.3730 C   0  0  0  0  0  0  0  0  0  0  0  0
   59.0610   29.0110   45.5240 C   0  0  0  0  0  0  0  0  0  0  0  0
   60.0720   30.1800   46.1700 S   0  0  0  0  0  0  0  0  0  0  0  0
   59.3120   31.6950   46.0810 C   0  0  0  0  0  0  0  0  0  0  0  0
   59.9700   32.8310   46.5650 C   0  0  0  0  0  0  0  0  0  0  0  0
   59.3510   34.0790   46.4950 C   0  0  0  0  0  0  0  0  0  0  0  0
   58.0770   34.1970   45.9430 C   0  0  0  0  0  0  0  0  0  0  0  0
   57.4090   33.0700   45.4540 C   0  0  0  0  0  0  0  0  0  0  0  0
   58.0080   31.7910   45.5110 C   0  0  0  0  0  0  0  0  0  0  0  0
   57.2990   30.6540   45.0010 C   0  0  0  0  0  0  0  0  0  0  0  0
   56.1490   30.8100   44.5070 O   0  0  0  0  0  0  0  0  0  0  0  0
   57.8330   29.3480   45.0270 C   0  0  0  0  0  0  0  0  0  0  0  0
   57.2230   28.2410   44.5590 N   0  0  0  0  0  0  0  0  0  0  0  0
   56.9313   24.8276   48.6081 H   0  0  0  0  0  0  0  0  0  0  0  0
   55.5299   23.9777   47.8793 H   0  0  0  0  0  0  0  0  0  0  0  0
   55.5713   21.4480   48.5493 H   0  0  0  0  0  0  0  0  0  0  0  0
   54.8199   19.3043   47.5317 H   0  0  0  0  0  0  0  0  0  0  0  0
   55.7457   18.5667   45.3399 H   0  0  0  0  0  0  0  0  0  0  0  0
   57.4237   19.9690   44.1554 H   0  0  0  0  0  0  0  0  0  0  0  0
   58.2980   24.1320   45.6300 H   0  0  0  0  0  0  0  0  0  0  0  0
   58.6379   25.4390   43.7347 H   0  0  0  0  0  0  0  0  0  0  0  0
   56.8701   25.7802   43.7651 H   0  0  0  0  0  0  0  0  0  0  0  0
   60.1258   27.0608   45.6628 H   0  0  0  0  0  0  0  0  0  0  0  0
   60.9758   32.7399   47.0009 H   0  0  0  0  0  0  0  0  0  0  0  0
   59.8693   34.9713   46.8761 H   0  0  0  0  0  0  0  0  0  0  0  0
   57.5933   35.1836   45.8915 H   0  0  0  0  0  0  0  0  0  0  0  0
   56.4045   33.1802   45.0194 H   0  0  0  0  0  0  0  0  0  0  0  0
   56.2820   28.1820   44.1090 H   0  0  0  0  0  0  0  0  0  0  0  0
  1  2  2  0
  2  3  1  0
  3  4  1  0
  4  5  1  0
  5  6  2  0
  6  7  1  0
  7  8  2  0
  8  9  1  0
  9 10  2  0
 10 11  1  0
 11 12  2  0
 11 13  1  0
  2 14  1  0
 14 15  1  0
 15 16  1  0
 16 17  2  0
 17 18  1  0
 18 19  1  0
 19 20  1  0
 20 21  2  0
 21 22  1  0
 22 23  2  0
 23 24  1  0
 24 25  2  0
 25 26  1  0
 26 27  2  0
 26 28  1  0
 28 29  1  0
 10  5  1  0
 29 16  1  0
 28 18  2  0
 25 20  1  0
  3 30  1  0
  3 31  1  0
  6 32  1  0
  7 33  1  0
  8 34  1  0
  9 35  1  0
 14 36  1  0
 15 37  1  0
 15 38  1  0
 17 39  1  0
 21 40  1  0
 22 41  1  0
 23 42  1  0
 24 43  1  0
 29 44  1  0
M  CHG  2  11   1  13  -1
M  END
>  <UniqueID>  (49) 
48

>  <SMILES>  (49) 
O=C(COc1ccccc1[N+](=O)[O-])NCc1cc2sc3ccccc3c(=O)c2[nH]1

>  <Energy>  (49) 
84.58494067724394

>  <Genealogy>  (49) 
O=C(COc1ccccc1[N+](=O)[O-])NCc1cc2sc3ccccc3c(=O)c2[nH]1 (3D coordinates assigned)
O=C(COc1ccccc1[N+](=O)[O-])NCc1cc2sc3ccccc3c(=O)c2[nH]1 (optimized conformer: 84.58494067724394 kcal/mol)

>  <smiles>  (49) 
O=C(COc1ccccc1[N+](=O)[O-])NCc1cc2sc3ccccc3c(=O)c2[nH]1

>  <score_type>  (49) 
oracle

>  <origin>  (49) 
adg

>  <m_score__min__energy>  (49) 
-9.1300000000000008

>  <m_primary>  (49) 
energy

$$$$
49:0
     RDKit          3D

 27 28  0  0  0  0  0  0  0  0999 V2000
   57.9724   27.2130   44.0619 H   0  0  0  0  0  0  0  0  0  0  0  0
   57.5740   27.4390   45.0620 C   0  0  0  0  0  0  0  0  0  0  0  0
   57.4670   28.7400   45.4100 C   0  0  0  0  0  0  0  0  0  0  0  0
   56.3340   29.5510   44.8990 C   0  0  0  0  0  0  0  0  0  0  0  0
   55.1740   29.0660   44.8190 O   0  0  0  0  0  0  0  0  0  0  0  0
   56.5400   30.8670   44.5020 O   0  0  0  0  0  0  0  0  0  0  0  0
   58.4290   29.3990   46.3270 C   0  0  0  0  0  0  0  0  0  0  0  0
   59.5390   28.8480   46.5480 O   0  0  0  0  0  0  0  0  0  0  0  0
   58.1320   30.6380   46.9900 N   0  0  0  0  0  0  0  0  0  0  0  0
   58.6390   31.9340   46.6440 C   0  0  0  0  0  0  0  0  0  0  0  0
   60.0040   32.2530   46.7670 C   0  0  0  0  0  0  0  0  0  0  0  0
   60.7123   31.4984   47.1396 H   0  0  0  0  0  0  0  0  0  0  0  0
   60.4620   33.5260   46.4170 C   0  0  0  0  0  0  0  0  0  0  0  0
   61.5316   33.7678   46.5030 H   0  0  0  0  0  0  0  0  0  0  0  0
   59.5630   34.4920   45.9580 C   0  0  0  0  0  0  0  0  0  0  0  0
   59.9265   35.4912   45.6759 H   0  0  0  0  0  0  0  0  0  0  0  0
   58.2030   34.1900   45.8570 C   0  0  0  0  0  0  0  0  0  0  0  0
   57.4952   34.9535   45.5019 H   0  0  0  0  0  0  0  0  0  0  0  0
   57.7410   32.9180   46.2070 C   0  0  0  0  0  0  0  0  0  0  0  0
   56.6675   32.6879   46.1392 H   0  0  0  0  0  0  0  0  0  0  0  0
   57.1980   26.2960   45.9190 C   0  0  0  0  0  0  0  0  0  0  0  0
   58.0460   25.3640   46.3920 N   0  0  0  0  0  0  0  0  0  0  0  0
   57.2380   24.5200   47.0690 C   0  0  0  0  0  0  0  0  0  0  0  0
   57.6720   23.5040   47.6730 O   0  0  0  0  0  0  0  0  0  0  0  0
   55.9280   24.8470   47.0450 N   0  0  0  0  0  0  0  0  0  0  0  0
   55.9210   25.9690   46.3060 C   0  0  0  0  0  0  0  0  0  0  0  0
   54.7710   26.6830   45.9980 O   0  0  0  0  0  0  0  0  0  0  0  0
  1  2  1  0
  2  3  2  0
  3  4  1  0
  4  5  2  0
  4  6  1  0
  3  7  1  0
  7  8  2  0
  7  9  1  0
  9 10  1  0
 10 11  2  0
 11 12  1  0
 11 13  1  0
 13 14  1  0
 13 15  2  0
 15 16  1  0
 15 17  1  0
 17 18  1  0
 17 19  2  0
 19 20  1  0
  2 21  1  0
 21 22  1  0
 22 23  1  0
 23 24  2  0
 23 25  1  0
 25 26  1  0
 26 27  1  0
 19 10  1  0
 26 21  2  0
M  CHG  5   6  -1   9  -1  22  -1  25  -1  27  -1
M  END
>  <UniqueID>  (50) 
49

>  <SMILES>  (50) 
O=C([O-])/C(=C/c1[n-]c(=O)[n-]c1[O-])C(=O)[N-]c1ccccc1

>  <Energy>  (50) 
68.07961352797145

>  <Genealogy>  (50) 
O=C([O-])C(=Cc1[n-]c(=O)[n-]c1[O-])C(=O)[N-]c1ccccc1 (protonated)
O=C([O-])/C(=C/c1[n-]c(=O)[n-]c1[O-])C(=O)[N-]c1ccccc1 (cis-trans isomerization)
O=C([O-])/C(=C/c1[n-]c(=O)[n-]c1[O-])C(=O)[N-]c1ccccc1 (3D coordinates assigned)
O=C([O-])/C(=C/c1[n-]c(=O)[n-]c1[O-])C(=O)[N-]c1ccccc1 (optimized conformer: 68.07961352797145 kcal/mol)

>  <smiles>  (50) 
O=C(O)C(=Cc1[nH]c(=O)[nH]c1O)C(=O)Nc1ccccc1

>  <score_type>  (50) 
oracle

>  <origin>  (50) 
adg

>  <m_score__min__energy>  (50) 
-17.960000000000001

>  <m_primary>  (50) 
energy

$$$$
50:0
     RDKit          3D

 30 31  0  0  0  0  0  0  0  0999 V2000
   57.2470   31.2310   42.7600 C   0  0  0  0  0  0  0  0  0  0  0  0
   56.8820   31.1030   44.2080 C   0  0  0  0  0  0  0  0  0  0  0  0
   55.8500   30.4530   44.5200 O   0  0  0  0  0  0  0  0  0  0  0  0
   57.7170   31.7090   45.2780 C   0  0  0  0  0  0  0  0  0  0  0  0
   58.5100   30.9210   46.1520 C   0  0  0  0  0  0  0  0  0  0  0  0
   58.6240   29.4540   45.9600 C   0  0  0  0  0  0  0  0  0  0  0  0
   59.8200   28.8930   45.4930 C   0  0  0  0  0  0  0  0  0  0  0  0
   59.9270   27.5130   45.3210 C   0  0  0  0  0  0  0  0  0  0  0  0
   58.8420   26.6810   45.6120 C   0  0  0  0  0  0  0  0  0  0  0  0
   57.6320   27.2250   46.0800 C   0  0  0  0  0  0  0  0  0  0  0  0
   56.4840   26.3430   46.3920 C   0  0  0  0  0  0  0  0  0  0  0  0
   55.1600   26.7070   46.0020 N   0  0  0  0  0  0  0  0  0  0  0  0
   56.6640   25.2570   47.0080 O   0  0  0  0  0  0  0  0  0  0  0  0
   57.5320   28.6190   46.2480 C   0  0  0  0  0  0  0  0  0  0  0  0
   59.2480   31.5580   47.1760 C   0  0  0  0  0  0  0  0  0  0  0  0
   60.0950   30.8030   48.0740 C   0  0  0  0  0  0  0  0  0  0  0  0
   60.7720   30.1990   48.7920 N   0  0  0  0  0  0  0  0  0  0  0  0
   59.1910   32.9510   47.2990 C   0  0  0  0  0  0  0  0  0  0  0  0
   59.9100   33.6040   48.2940 O   0  0  0  0  0  0  0  0  0  0  0  0
   58.4360   33.6800   46.4410 N   0  0  0  0  0  0  0  0  0  0  0  0
   57.7110   33.1080   45.4480 C   0  0  0  0  0  0  0  0  0  0  0  0
   57.0210   33.8440   44.6920 O   0  0  0  0  0  0  0  0  0  0  0  0
   58.2818   31.5939   42.6734 H   0  0  0  0  0  0  0  0  0  0  0  0
   57.1608   30.2490   42.2719 H   0  0  0  0  0  0  0  0  0  0  0  0
   56.5663   31.9441   42.2719 H   0  0  0  0  0  0  0  0  0  0  0  0
   60.6769   29.5427   45.2614 H   0  0  0  0  0  0  0  0  0  0  0  0
   60.8686   27.0778   44.9550 H   0  0  0  0  0  0  0  0  0  0  0  0
   58.9350   25.5936   45.4741 H   0  0  0  0  0  0  0  0  0  0  0  0
   54.4860   27.1060   46.6920 H   0  0  0  0  0  0  0  0  0  0  0  0
   56.5900   29.0584   46.6081 H   0  0  0  0  0  0  0  0  0  0  0  0
  1  2  1  0
  2  3  2  0
  2  4  1  0
  4  5  2  0
  5  6  1  0
  6  7  2  0
  7  8  1  0
  8  9  2  0
  9 10  1  0
 10 11  1  0
 11 12  1  0
 11 13  2  0
 10 14  2  0
  5 15  1  0
 15 16  1  0
 16 17  3  0
 15 18  2  0
 18 19  1  0
 18 20  1  0
 20 21  1  0
 21 22  2  0
 21  4  1  0
 14  6  1  0
  1 23  1  0
  1 24  1  0
  1 25  1  0
  7 26  1  0
  8 27  1  0
  9 28  1  0
 12 29  1  0
 14 30  1  0
M  CHG  3  12  -1  19  -1  20  -1
M  END
>  <UniqueID>  (51) 
50

>  <SMILES>  (51) 
CC(=O)c1c(-c2cccc(C([NH-])=O)c2)c(C#N)c([O-])[n-]c1=O

>  <Energy>  (51) 
45.50094058057368

>  <Genealogy>  (51) 
CC(=O)c1c(-c2cccc(C([NH-])=O)c2)c(C#N)c([O-])[n-]c1=O (protonated)
CC(=O)c1c(-c2cccc(C([NH-])=O)c2)c(C#N)c([O-])[n-]c1=O (3D coordinates assigned)
CC(=O)c1c(-c2cccc(C([NH-])=O)c2)c(C#N)c([O-])[n-]c1=O (optimized conformer: 45.50094058057368 kcal/mol)

>  <smiles>  (51) 
CC(=O)c1c(-c2cccc(C(N)=O)c2)c(C#N)c(O)[nH]c1=O

>  <score_type>  (51) 
oracle

>  <origin>  (51) 
adg

>  <m_score__min__energy>  (51) 
-12.19

>  <m_primary>  (51) 
energy

$$$$
51:0
     RDKit          3D

 46 47  0  0  0  0  0  0  0  0999 V2000
   57.7290   28.4690   44.5700 C   0  0  0  0  0  0  0  0  0  0  0  0
   56.4670   29.6720   44.2100 S   0  0  0  0  0  0  0  0  0  0  0  0
   56.2490   29.7490   42.7240 O   0  0  0  0  0  0  0  0  0  0  0  0
   55.1870   29.2490   44.8710 O   0  0  0  0  0  0  0  0  0  0  0  0
   56.9430   31.2210   44.8350 N   0  0  0  0  0  0  0  0  0  0  0  0
   58.3960   31.3650   44.7810 C   0  0  0  0  0  0  0  0  0  0  0  0
   58.8000   32.6400   45.4690 C   0  0  0  0  0  0  0  0  0  0  0  0
   58.4970   33.8830   44.8880 C   0  0  0  0  0  0  0  0  0  0  0  0
   58.9150   35.0670   45.4980 C   0  0  0  0  0  0  0  0  0  0  0  0
   59.6430   35.0230   46.6890 C   0  0  0  0  0  0  0  0  0  0  0  0
   59.9500   33.7930   47.2780 C   0  0  0  0  0  0  0  0  0  0  0  0
   59.5250   32.5920   46.6780 C   0  0  0  0  0  0  0  0  0  0  0  0
   59.7980   31.3380   47.2500 O   0  0  0  0  0  0  0  0  0  0  0  0
   58.8190   30.4030   47.7010 C   0  0  0  0  0  0  0  0  0  0  0  0
   59.3440   29.5780   48.8400 C   0  0  0  0  0  0  0  0  0  0  0  0
   58.9330   28.3940   48.9780 O   0  0  0  0  0  0  0  0  0  0  0  0
   60.3390   30.1140   49.7300 N   0  0  0  0  0  0  0  0  0  0  0  0
   61.0770   29.3260   50.6790 C   0  0  0  0  0  0  0  0  0  0  0  0
   60.9250   28.0750   50.7260 O   0  0  0  0  0  0  0  0  0  0  0  0
   62.0150   29.9730   51.6620 C   0  0  0  0  0  0  0  0  0  0  0  0
   62.1260   31.3830   51.4620 O   0  0  0  0  0  0  0  0  0  0  0  0
   62.4500   32.0110   50.2490 C   0  0  0  0  0  0  0  0  0  0  0  0
   62.2360   33.3910   50.1400 C   0  0  0  0  0  0  0  0  0  0  0  0
   62.5310   34.0630   48.9500 C   0  0  0  0  0  0  0  0  0  0  0  0
   63.0380   33.3580   47.8550 C   0  0  0  0  0  0  0  0  0  0  0  0
   63.3900   34.1990   46.3570 Cl  0  0  0  0  0  0  0  0  0  0  0  0
   63.2570   31.9810   47.9530 C   0  0  0  0  0  0  0  0  0  0  0  0
   62.9690   31.3070   49.1440 C   0  0  0  0  0  0  0  0  0  0  0  0
   57.8371   28.3659   45.6598 H   0  0  0  0  0  0  0  0  0  0  0  0
   57.4451   27.4988   44.1363 H   0  0  0  0  0  0  0  0  0  0  0  0
   58.6845   28.7990   44.1363 H   0  0  0  0  0  0  0  0  0  0  0  0
   58.8681   30.5100   45.2870 H   0  0  0  0  0  0  0  0  0  0  0  0
   58.7223   31.3960   43.7310 H   0  0  0  0  0  0  0  0  0  0  0  0
   57.9275   33.9233   43.9477 H   0  0  0  0  0  0  0  0  0  0  0  0
   58.6705   36.0366   45.0397 H   0  0  0  0  0  0  0  0  0  0  0  0
   59.9753   35.9577   47.1643 H   0  0  0  0  0  0  0  0  0  0  0  0
   60.5262   33.7631   48.2145 H   0  0  0  0  0  0  0  0  0  0  0  0
   57.9262   30.9512   48.0361 H   0  0  0  0  0  0  0  0  0  0  0  0
   58.5691   29.7296   46.8679 H   0  0  0  0  0  0  0  0  0  0  0  0
   60.5500   31.1340   49.6640 H   0  0  0  0  0  0  0  0  0  0  0  0
   61.6416   29.7890   52.6802 H   0  0  0  0  0  0  0  0  0  0  0  0
   63.0123   29.5336   51.5128 H   0  0  0  0  0  0  0  0  0  0  0  0
   61.8328   33.9502   50.9971 H   0  0  0  0  0  0  0  0  0  0  0  0
   62.3639   35.1477   48.8755 H   0  0  0  0  0  0  0  0  0  0  0  0
   63.6568   31.4262   47.0914 H   0  0  0  0  0  0  0  0  0  0  0  0
   63.1481   30.2242   49.2185 H   0  0  0  0  0  0  0  0  0  0  0  0
  1  2  1  0
  2  3  2  0
  2  4  2  0
  2  5  1  0
  5  6  1  0
  6  7  1  0
  7  8  2  0
  8  9  1  0
  9 10  2  0
 10 11  1  0
 11 12  2  0
 12 13  1  0
 13 14  1  0
 14 15  1  0
 15 16  2  0
 15 17  1  0
 17 18  1  0
 18 19  2  0
 18 20  1  0
 20 21  1  0
 21 22  1  0
 22 23  2  0
 23 24  1  0
 24 25  2  0
 25 26  1  0
 25 27  1  0
 27 28  2  0
 12  7  1  0
 28 22  1  0
  1 29  1  0
  1 30  1  0
  1 31  1  0
  6 32  1  0
  6 33  1  0
  8 34  1  0
  9 35  1  0
 10 36  1  0
 11 37  1  0
 14 38  1  0
 14 39  1  0
 17 40  1  0
 20 41  1  0
 20 42  1  0
 23 43  1  0
 24 44  1  0
 27 45  1  0
 28 46  1  0
M  CHG  1   5  -1
M  END
>  <UniqueID>  (52) 
51

>  <SMILES>  (52) 
CS(=O)(=O)[N-]Cc1ccccc1OCC(=O)NC(=O)COc1ccc(Cl)cc1

>  <Energy>  (52) 
35.64795549556789

>  <Genealogy>  (52) 
CS(=O)(=O)[N-]Cc1ccccc1OCC(=O)NC(=O)COc1ccc(Cl)cc1 (protonated)
CS(=O)(=O)[N-]Cc1ccccc1OCC(=O)NC(=O)COc1ccc(Cl)cc1 (3D coordinates assigned)
CS(=O)(=O)[N-]Cc1ccccc1OCC(=O)NC(=O)COc1ccc(Cl)cc1 (optimized conformer: 35.64795549556789 kcal/mol)

>  <smiles>  (52) 
CS(=O)(=O)NCc1ccccc1OCC(=O)NC(=O)COc1ccc(Cl)cc1

>  <score_type>  (52) 
oracle

>  <origin>  (52) 
adg

>  <m_score__min__energy>  (52) 
-10.859999999999999

>  <m_primary>  (52) 
energy

$$$$
52:0
     RDKit          3D

 30 31  0  0  0  0  0  0  0  0999 V2000
   57.1985   31.2821   46.7151 H   0  0  0  0  0  0  0  0  0  0  0  0
   58.1470   31.4680   46.1900 C   0  0  0  0  0  0  0  0  0  0  0  0
   58.5920   32.7420   46.1500 C   0  0  0  0  0  0  0  0  0  0  0  0
   57.8660   33.7760   45.4470 C   0  0  0  0  0  0  0  0  0  0  0  0
   57.2850   34.6000   44.8800 N   0  0  0  0  0  0  0  0  0  0  0  0
   59.8240   33.1400   46.8740 C   0  0  0  0  0  0  0  0  0  0  0  0
   59.9280   34.4330   47.9520 S   0  0  0  0  0  0  0  0  0  0  0  0
   61.5660   34.2160   48.2630 C   0  0  0  0  0  0  0  0  0  0  0  0
   62.1850   34.8242   48.9389 H   0  0  0  0  0  0  0  0  0  0  0  0
   61.9970   33.1270   47.5100 C   0  0  0  0  0  0  0  0  0  0  0  0
   63.4220   32.6780   47.4770 C   0  0  0  0  0  0  0  0  0  0  0  0
   63.7935   32.5610   48.5057 H   0  0  0  0  0  0  0  0  0  0  0  0
   63.4908   31.7146   46.9505 H   0  0  0  0  0  0  0  0  0  0  0  0
   64.0306   33.4279   46.9505 H   0  0  0  0  0  0  0  0  0  0  0  0
   61.0360   32.5480   46.7360 N   0  0  0  0  0  0  0  0  0  0  0  0
   61.2380   31.7570   46.0870 H   0  0  0  0  0  0  0  0  0  0  0  0
   58.8310   30.2950   45.5840 C   0  0  0  0  0  0  0  0  0  0  0  0
   60.1120   29.9500   45.8450 N   0  0  0  0  0  0  0  0  0  0  0  0
   60.3110   28.8200   45.1380 C   0  0  0  0  0  0  0  0  0  0  0  0
   61.2515   28.2506   45.1040 H   0  0  0  0  0  0  0  0  0  0  0  0
   59.1590   28.4880   44.4660 C   0  0  0  0  0  0  0  0  0  0  0  0
   59.0204   27.6114   43.8162 H   0  0  0  0  0  0  0  0  0  0  0  0
   58.2310   29.4210   44.7410 N   0  0  0  0  0  0  0  0  0  0  0  0
   56.8450   29.4110   44.2670 C   0  0  0  0  0  0  0  0  0  0  0  0
   56.1746   29.6622   45.1021 H   0  0  0  0  0  0  0  0  0  0  0  0
   56.6077   28.4091   43.8798 H   0  0  0  0  0  0  0  0  0  0  0  0
   56.6580   30.4300   43.1490 C   0  0  0  0  0  0  0  0  0  0  0  0
   56.4757   31.4233   43.5850 H   0  0  0  0  0  0  0  0  0  0  0  0
   57.5651   30.4631   42.5276 H   0  0  0  0  0  0  0  0  0  0  0  0
   55.7983   30.1389   42.5276 H   0  0  0  0  0  0  0  0  0  0  0  0
  1  2  1  0
  2  3  2  0
  3  4  1  0
  4  5  3  0
  3  6  1  0
  6  7  1  0
  7  8  1  0
  8  9  1  0
  8 10  2  0
 10 11  1  0
 11 12  1  0
 11 13  1  0
 11 14  1  0
 10 15  1  0
 15 16  1  0
  2 17  1  0
 17 18  2  0
 18 19  1  0
 19 20  1  0
 19 21  2  0
 21 22  1  0
 21 23  1  0
 23 24  1  0
 24 25  1  0
 24 26  1  0
 24 27  1  0
 27 28  1  0
 27 29  1  0
 27 30  1  0
 15  6  2  0
 23 17  1  0
M  CHG  1  15   1
M  END
>  <UniqueID>  (53) 
52

>  <SMILES>  (53) 
CCn1ccnc1/C=C(\C#N)c1[nH+]c(C)cs1

>  <Energy>  (53) 
87.19836488062732

>  <Genealogy>  (53) 
CCn1ccnc1C=C(C#N)c1[nH+]c(C)cs1 (protonated)
CCn1ccnc1/C=C(\C#N)c1[nH+]c(C)cs1 (cis-trans isomerization)
CCn1ccnc1/C=C(\C#N)c1[nH+]c(C)cs1 (3D coordinates assigned)
CCn1ccnc1/C=C(\C#N)c1[nH+]c(C)cs1 (optimized conformer: 87.19836488062732 kcal/mol)

>  <smiles>  (53) 
CCn1ccnc1C=C(C#N)c1nc(C)cs1

>  <score_type>  (53) 
oracle

>  <origin>  (53) 
adg

>  <m_score__min__energy>  (53) 
-4.9199999999999999

>  <m_primary>  (53) 
energy

$$$$
53:0
     RDKit          3D

 43 45  0  0  0  0  0  0  0  0999 V2000
   58.9490   28.5940   44.1520 O   0  0  0  0  0  0  0  0  0  0  0  0
   58.6210   27.6140   44.8740 C   0  0  0  0  0  0  0  0  0  0  0  0
   57.6850   26.5730   44.3150 C   0  0  0  0  0  0  0  0  0  0  0  0
   57.2230   25.6360   45.3900 C   0  0  0  0  0  0  0  0  0  0  0  0
   58.0970   24.3130   45.9580 S   0  0  0  0  0  0  0  0  0  0  0  0
   56.9570   23.9700   47.1460 C   0  0  0  0  0  0  0  0  0  0  0  0
   57.0500   23.0160   47.9610 O   0  0  0  0  0  0  0  0  0  0  0  0
   55.9230   24.8390   47.1450 N   0  0  0  0  0  0  0  0  0  0  0  0
   56.0750   25.7720   46.1690 C   0  0  0  0  0  0  0  0  0  0  0  0
   55.1460   26.7870   45.9800 O   0  0  0  0  0  0  0  0  0  0  0  0
   59.2050   27.4910   46.2320 C   0  0  0  0  0  0  0  0  0  0  0  0
   60.1640   26.5080   46.5300 C   0  0  0  0  0  0  0  0  0  0  0  0
   60.7440   26.4480   47.8020 C   0  0  0  0  0  0  0  0  0  0  0  0
   60.3590   27.3510   48.7940 C   0  0  0  0  0  0  0  0  0  0  0  0
   59.3830   28.3210   48.5240 C   0  0  0  0  0  0  0  0  0  0  0  0
   58.9870   29.3230   49.5790 C   0  0  0  0  0  0  0  0  0  0  0  0
   58.9420   30.7520   49.0200 C   0  0  0  0  0  0  0  0  0  0  0  0
   60.2860   31.3020   48.8420 N   0  0  0  0  0  0  0  0  0  0  0  0
   60.7080   31.4780   47.1620 S   0  0  0  0  0  0  0  0  0  0  0  0
   61.1060   30.1420   46.6010 O   0  0  0  0  0  0  0  0  0  0  0  0
   61.8620   32.4290   46.9920 O   0  0  0  0  0  0  0  0  0  0  0  0
   59.2960   32.0900   46.2910 C   0  0  0  0  0  0  0  0  0  0  0  0
   58.6610   31.2740   45.3380 C   0  0  0  0  0  0  0  0  0  0  0  0
   57.5430   31.7370   44.6400 C   0  0  0  0  0  0  0  0  0  0  0  0
   57.0510   33.0220   44.8800 C   0  0  0  0  0  0  0  0  0  0  0  0
   57.6790   33.8470   45.8160 C   0  0  0  0  0  0  0  0  0  0  0  0
   58.8010   33.3930   46.5210 C   0  0  0  0  0  0  0  0  0  0  0  0
   59.6180   34.5990   47.7730 Br  0  0  0  0  0  0  0  0  0  0  0  0
   58.8200   28.3940   47.2390 C   0  0  0  0  0  0  0  0  0  0  0  0
   56.8108   27.0744   43.8742 H   0  0  0  0  0  0  0  0  0  0  0  0
   58.2216   25.9927   43.5500 H   0  0  0  0  0  0  0  0  0  0  0  0
   60.4604   25.7816   45.7590 H   0  0  0  0  0  0  0  0  0  0  0  0
   61.5065   25.6860   48.0209 H   0  0  0  0  0  0  0  0  0  0  0  0
   60.8224   27.3017   49.7904 H   0  0  0  0  0  0  0  0  0  0  0  0
   57.9907   29.0598   49.9639 H   0  0  0  0  0  0  0  0  0  0  0  0
   59.7409   29.2926   50.3794 H   0  0  0  0  0  0  0  0  0  0  0  0
   58.4296   30.7389   48.0467 H   0  0  0  0  0  0  0  0  0  0  0  0
   58.4025   31.3863   49.7387 H   0  0  0  0  0  0  0  0  0  0  0  0
   59.0476   30.2633   45.1406 H   0  0  0  0  0  0  0  0  0  0  0  0
   57.0497   31.0890   43.9006 H   0  0  0  0  0  0  0  0  0  0  0  0
   56.1688   33.3844   44.3318 H   0  0  0  0  0  0  0  0  0  0  0  0
   57.2901   34.8593   46.0006 H   0  0  0  0  0  0  0  0  0  0  0  0
   58.0690   29.1667   47.0178 H   0  0  0  0  0  0  0  0  0  0  0  0
  1  2  2  0
  2  3  1  0
  3  4  1  0
  4  5  1  0
  5  6  1  0
  6  7  2  0
  6  8  1  0
  8  9  1  0
  9 10  1  0
  2 11  1  0
 11 12  2  0
 12 13  1  0
 13 14  2  0
 14 15  1  0
 15 16  1  0
 16 17  1  0
 17 18  1  0
 18 19  1  0
 19 20  2  0
 19 21  2  0
 19 22  1  0
 22 23  2  0
 23 24  1  0
 24 25  2  0
 25 26  1  0
 26 27  2  0
 27 28  1  0
 15 29  2  0
  9  4  2  0
 29 11  1  0
 27 22  1  0
  3 30  1  0
  3 31  1  0
 12 32  1  0
 13 33  1  0
 14 34  1  0
 16 35  1  0
 16 36  1  0
 17 37  1  0
 17 38  1  0
 23 39  1  0
 24 40  1  0
 25 41  1  0
 26 42  1  0
 29 43  1  0
M  CHG  3   8  -1  10  -1  18  -1
M  END
>  <UniqueID>  (54) 
53

>  <SMILES>  (54) 
O=C(Cc1sc(=O)[n-]c1[O-])c1cccc(CC[N-]S(=O)(=O)c2ccccc2Br)c1

>  <Energy>  (54) 
76.08950435482306

>  <Genealogy>  (54) 
O=C(Cc1sc(=O)[n-]c1[O-])c1cccc(CC[N-]S(=O)(=O)c2ccccc2Br)c1 (protonated)
O=C(Cc1sc(=O)[n-]c1[O-])c1cccc(CC[N-]S(=O)(=O)c2ccccc2Br)c1 (3D coordinates assigned)
O=C(Cc1sc(=O)[n-]c1[O-])c1cccc(CC[N-]S(=O)(=O)c2ccccc2Br)c1 (optimized conformer: 76.08950435482306 kcal/mol)

>  <smiles>  (54) 
O=C(Cc1sc(=O)[nH]c1O)c1cccc(CCNS(=O)(=O)c2ccccc2Br)c1

>  <score_type>  (54) 
oracle

>  <origin>  (54) 
adg

>  <m_score__min__energy>  (54) 
-17.449999999999999

>  <m_primary>  (54) 
energy

$$$$
54:0
     RDKit          3D

 60 63  0  0  0  0  0  0  0  0999 V2000
   59.6630   35.9220   45.6160 C   0  0  0  0  0  0  0  0  0  0  0  0
   59.2320   35.3150   46.9490 C   0  0  0  0  0  0  0  0  0  0  0  0
   59.1070   33.8600   46.8350 N   0  0  0  0  0  0  0  0  0  0  0  0
   58.4030   33.2200   45.8810 C   0  0  0  0  0  0  0  0  0  0  0  0
   58.3880   31.8650   46.1570 C   0  0  0  0  0  0  0  0  0  0  0  0
   57.7000   30.8360   45.4350 N   0  0  0  0  0  0  0  0  0  0  0  0
   58.2630   29.5980   44.9740 C   0  0  0  0  0  0  0  0  0  0  0  0
   59.2890   29.6360   44.2440 O   0  0  0  0  0  0  0  0  0  0  0  0
   57.6640   28.2780   45.3100 C   0  0  0  0  0  0  0  0  0  0  0  0
   58.5830   27.2570   45.5790 C   0  0  0  0  0  0  0  0  0  0  0  0
   58.3620   25.9380   45.9630 C   0  0  0  0  0  0  0  0  0  0  0  0
   59.3760   25.2150   46.1500 O   0  0  0  0  0  0  0  0  0  0  0  0
   57.1560   25.3630   46.1430 N   0  0  0  0  0  0  0  0  0  0  0  0
   55.8830   25.7990   45.9920 C   0  0  0  0  0  0  0  0  0  0  0  0
   54.9020   24.9830   46.2460 N   0  0  0  0  0  0  0  0  0  0  0  0
   55.0360   23.6360   46.8040 C   0  0  0  0  0  0  0  0  0  0  0  0
   54.7380   22.5700   45.7420 C   0  0  0  0  0  0  0  0  0  0  0  0
   55.9870   22.2020   44.9940 C   0  0  0  0  0  0  0  0  0  0  0  0
   57.2370   22.2310   45.6330 C   0  0  0  0  0  0  0  0  0  0  0  0
   58.3830   21.8780   44.9150 C   0  0  0  0  0  0  0  0  0  0  0  0
   58.2730   21.4990   43.5750 C   0  0  0  0  0  0  0  0  0  0  0  0
   57.0100   21.4720   42.9730 C   0  0  0  0  0  0  0  0  0  0  0  0
   55.9060   21.8170   43.6900 N   0  0  0  0  0  0  0  0  0  0  0  0
   55.5580   27.0550   45.6180 N   0  0  0  0  0  0  0  0  0  0  0  0
   56.2630   28.1660   45.3060 C   0  0  0  0  0  0  0  0  0  0  0  0
   55.5900   29.1800   44.9820 O   0  0  0  0  0  0  0  0  0  0  0  0
   59.0710   31.6700   47.3390 C   0  0  0  0  0  0  0  0  0  0  0  0
   59.4960   32.9280   47.7380 C   0  0  0  0  0  0  0  0  0  0  0  0
   60.2260   33.2220   48.9870 C   0  0  0  0  0  0  0  0  0  0  0  0
   59.5660   33.2890   50.0600 O   0  0  0  0  0  0  0  0  0  0  0  0
   61.6620   33.3820   49.0170 N   0  0  0  0  0  0  0  0  0  0  0  0
   62.4760   33.2160   47.8030 C   0  0  0  0  0  0  0  0  0  0  0  0
   63.8830   32.7270   48.1600 C   0  0  0  0  0  0  0  0  0  0  0  0
   64.4590   33.5320   49.1700 O   0  0  0  0  0  0  0  0  0  0  0  0
   63.7210   33.3890   50.3670 C   0  0  0  0  0  0  0  0  0  0  0  0
   62.3090   33.9630   50.2030 C   0  0  0  0  0  0  0  0  0  0  0  0
   60.2907   36.8060   45.8016 H   0  0  0  0  0  0  0  0  0  0  0  0
   60.2367   35.1787   45.0430 H   0  0  0  0  0  0  0  0  0  0  0  0
   58.7721   36.2186   45.0430 H   0  0  0  0  0  0  0  0  0  0  0  0
   59.9837   35.5546   47.7155 H   0  0  0  0  0  0  0  0  0  0  0  0
   58.2550   35.7345   47.2310 H   0  0  0  0  0  0  0  0  0  0  0  0
   57.9169   33.6996   45.0187 H   0  0  0  0  0  0  0  0  0  0  0  0
   59.6403   27.5404   45.4703 H   0  0  0  0  0  0  0  0  0  0  0  0
   56.0635   23.4996   47.1724 H   0  0  0  0  0  0  0  0  0  0  0  0
   54.3141   23.5234   47.6263 H   0  0  0  0  0  0  0  0  0  0  0  0
   54.3344   21.6729   46.2342 H   0  0  0  0  0  0  0  0  0  0  0  0
   54.0056   22.9763   45.0289 H   0  0  0  0  0  0  0  0  0  0  0  0
   57.3136   22.5289   46.6891 H   0  0  0  0  0  0  0  0  0  0  0  0
   59.3684   21.8986   45.4035 H   0  0  0  0  0  0  0  0  0  0  0  0
   59.1693   21.2248   42.9993 H   0  0  0  0  0  0  0  0  0  0  0  0
   56.9095   21.1717   41.9196 H   0  0  0  0  0  0  0  0  0  0  0  0
   59.2429   30.7152   47.8574 H   0  0  0  0  0  0  0  0  0  0  0  0
   61.9942   32.4800   47.1426 H   0  0  0  0  0  0  0  0  0  0  0  0
   62.5568   34.1881   47.2945 H   0  0  0  0  0  0  0  0  0  0  0  0
   63.8227   31.6888   48.5184 H   0  0  0  0  0  0  0  0  0  0  0  0
   64.5137   32.7887   47.2609 H   0  0  0  0  0  0  0  0  0  0  0  0
   63.6497   32.3214   50.6222 H   0  0  0  0  0  0  0  0  0  0  0  0
   64.2360   33.9387   51.1686 H   0  0  0  0  0  0  0  0  0  0  0  0
   61.7131   33.7241   51.0962 H   0  0  0  0  0  0  0  0  0  0  0  0
   62.3760   35.0539   50.0785 H   0  0  0  0  0  0  0  0  0  0  0  0
  1  2  1  0
  2  3  1  0
  3  4  1  0
  4  5  2  0
  5  6  1  0
  6  7  1  0
  7  8  2  0
  7  9  1  0
  9 10  2  0
 10 11  1  0
 11 12  2  0
 11 13  1  0
 13 14  1  0
 14 15  2  3
 15 16  1  0
 16 17  1  0
 17 18  1  0
 18 19  2  0
 19 20  1  0
 20 21  2  0
 21 22  1  0
 22 23  2  0
 14 24  1  0
 24 25  1  0
 25 26  2  0
  5 27  1  0
 27 28  2  0
 28 29  1  0
 29 30  2  0
 29 31  1  0
 31 32  1  0
 32 33  1  0
 33 34  1  0
 34 35  1  0
 35 36  1  0
 28  3  1  0
 36 31  1  0
 25  9  1  0
 23 18  1  0
  1 37  1  0
  1 38  1  0
  1 39  1  0
  2 40  1  0
  2 41  1  0
  4 42  1  0
 10 43  1  0
 16 44  1  0
 16 45  1  0
 17 46  1  0
 17 47  1  0
 19 48  1  0
 20 49  1  0
 21 50  1  0
 22 51  1  0
 27 52  1  0
 32 53  1  0
 32 54  1  0
 33 55  1  0
 33 56  1  0
 35 57  1  0
 35 58  1  0
 36 59  1  0
 36 60  1  0
M  CHG  3   6  -1  13  -1  24  -1
M  END
>  <UniqueID>  (55) 
54

>  <SMILES>  (55) 
CCn1cc([N-]C(=O)c2cc(=O)[n-]c(=NCCc3ccccn3)[n-]c2=O)cc1C(=O)N1CCOCC1

>  <Energy>  (55) 
122.4248101846602

>  <Genealogy>  (55) 
CCn1cc([N-]C(=O)c2cc(=O)[n-]c(=NCCc3ccccn3)[n-]c2=O)cc1C(=O)N1CCOCC1 (protonated)
CCn1cc([N-]C(=O)c2cc(=O)[n-]c(=NCCc3ccccn3)[n-]c2=O)cc1C(=O)N1CCOCC1 (3D coordinates assigned)
CCn1cc([N-]C(=O)c2cc(=O)[n-]c(=NCCc3ccccn3)[n-]c2=O)cc1C(=O)N1CCOCC1 (nonaromatic ring conformer: 122.4248101846602 kcal/mol)

>  <smiles>  (55) 
CCn1cc(NC(=O)c2cc(=O)[nH]c(=NCCc3ccccn3)[nH]c2=O)cc1C(=O)N1CCOCC1

>  <score_type>  (55) 
oracle

>  <origin>  (55) 
adg

>  <m_score__min__energy>  (55) 
-14.4

>  <m_primary>  (55) 
energy

$$$$
55:0
     RDKit          3D

 64 68  0  0  0  0  0  0  0  0999 V2000
   65.8360   34.5980   52.2020 C   0  0  0  0  0  0  0  0  0  0  0  0
   64.5300   33.8630   52.2470 C   0  0  0  0  0  0  0  0  0  0  0  0
   63.9150   33.7940   53.3460 O   0  0  0  0  0  0  0  0  0  0  0  0
   63.9790   33.2360   51.0680 N   0  0  0  0  0  0  0  0  0  0  0  0
   64.8090   33.0810   49.8630 C   0  0  0  0  0  0  0  0  0  0  0  0
   64.0950   32.2590   48.7890 C   0  0  0  0  0  0  0  0  0  0  0  0
   62.7360   32.7830   48.5980 N   0  0  0  0  0  0  0  0  0  0  0  0
   62.2940   33.2270   47.2950 C   0  0  0  0  0  0  0  0  0  0  0  0
   63.1170   33.3440   46.3480 O   0  0  0  0  0  0  0  0  0  0  0  0
   60.8880   33.5860   47.0450 C   0  0  0  0  0  0  0  0  0  0  0  0
   60.2650   34.5810   47.8100 C   0  0  0  0  0  0  0  0  0  0  0  0
   58.9430   34.9440   47.5440 C   0  0  0  0  0  0  0  0  0  0  0  0
   58.2370   34.3120   46.5190 C   0  0  0  0  0  0  0  0  0  0  0  0
   58.8350   33.2920   45.7670 C   0  0  0  0  0  0  0  0  0  0  0  0
   58.0930   32.7160   44.6810 N   0  0  0  0  0  0  0  0  0  0  0  0
   57.8560   31.4550   44.4780 C   0  0  0  0  0  0  0  0  0  0  0  0
   58.4730   30.4430   45.1300 N   0  0  0  0  0  0  0  0  0  0  0  0
   57.9630   29.2320   44.7660 C   0  0  0  0  0  0  0  0  0  0  0  0
   58.4300   27.9610   45.3700 C   0  0  0  0  0  0  0  0  0  0  0  0
   58.0710   26.7390   44.7690 C   0  0  0  0  0  0  0  0  0  0  0  0
   58.5060   25.5250   45.3050 C   0  0  0  0  0  0  0  0  0  0  0  0
   59.3100   25.5120   46.4440 C   0  0  0  0  0  0  0  0  0  0  0  0
   59.6820   26.7130   47.0490 C   0  0  0  0  0  0  0  0  0  0  0  0
   59.2470   27.9400   46.5240 C   0  0  0  0  0  0  0  0  0  0  0  0
   59.6880   29.1490   47.1480 N   0  0  0  0  0  0  0  0  0  0  0  0
   60.0060   29.1650   48.5450 C   0  0  0  0  0  0  0  0  0  0  0  0
   60.6790   28.2160   49.0320 O   0  0  0  0  0  0  0  0  0  0  0  0
   59.5260   30.2530   49.4270 C   0  0  0  0  0  0  0  0  0  0  0  0
   58.8830   31.3790   48.8800 C   0  0  0  0  0  0  0  0  0  0  0  0
   58.4930   32.4410   49.7010 C   0  0  0  0  0  0  0  0  0  0  0  0
   58.7420   32.3930   51.0750 C   0  0  0  0  0  0  0  0  0  0  0  0
   59.3740   31.2780   51.6310 C   0  0  0  0  0  0  0  0  0  0  0  0
   59.7680   30.2140   50.8120 C   0  0  0  0  0  0  0  0  0  0  0  0
   56.9320   29.2910   43.8250 C   0  0  0  0  0  0  0  0  0  0  0  0
   56.6570   30.9040   43.4440 S   0  0  0  0  0  0  0  0  0  0  0  0
   60.1710   32.9370   46.0290 C   0  0  0  0  0  0  0  0  0  0  0  0
   61.8840   32.9990   49.7800 C   0  0  0  0  0  0  0  0  0  0  0  0
   62.6180   32.6760   51.0900 C   0  0  0  0  0  0  0  0  0  0  0  0
   66.1825   34.7930   53.2276 H   0  0  0  0  0  0  0  0  0  0  0  0
   66.5823   33.9874   51.6727 H   0  0  0  0  0  0  0  0  0  0  0  0
   65.7013   35.5528   51.6727 H   0  0  0  0  0  0  0  0  0  0  0  0
   65.0378   34.0773   49.4566 H   0  0  0  0  0  0  0  0  0  0  0  0
   65.7304   32.5508   50.1459 H   0  0  0  0  0  0  0  0  0  0  0  0
   64.6517   32.3286   47.8428 H   0  0  0  0  0  0  0  0  0  0  0  0
   64.0424   31.2068   49.1054 H   0  0  0  0  0  0  0  0  0  0  0  0
   60.8181   35.0769   48.6213 H   0  0  0  0  0  0  0  0  0  0  0  0
   58.4576   35.7287   48.1428 H   0  0  0  0  0  0  0  0  0  0  0  0
   57.2031   34.6171   46.2999 H   0  0  0  0  0  0  0  0  0  0  0  0
   57.4409   26.7408   43.8673 H   0  0  0  0  0  0  0  0  0  0  0  0
   58.2139   24.5778   44.8280 H   0  0  0  0  0  0  0  0  0  0  0  0
   59.6510   24.5550   46.8656 H   0  0  0  0  0  0  0  0  0  0  0  0
   60.3210   26.6982   47.9442 H   0  0  0  0  0  0  0  0  0  0  0  0
   59.5580   30.0490   46.6330 H   0  0  0  0  0  0  0  0  0  0  0  0
   58.6859   31.4237   47.7987 H   0  0  0  0  0  0  0  0  0  0  0  0
   57.9892   33.3160   49.2646 H   0  0  0  0  0  0  0  0  0  0  0  0
   58.4406   33.2326   51.7186 H   0  0  0  0  0  0  0  0  0  0  0  0
   59.5621   31.2364   52.7140 H   0  0  0  0  0  0  0  0  0  0  0  0
   60.2704   29.3411   51.2544 H   0  0  0  0  0  0  0  0  0  0  0  0
   56.3927   28.4290   43.4054 H   0  0  0  0  0  0  0  0  0  0  0  0
   60.6549   32.1477   45.4350 H   0  0  0  0  0  0  0  0  0  0  0  0
   61.5679   34.0524   49.8013 H   0  0  0  0  0  0  0  0  0  0  0  0
   61.0194   32.3235   49.7015 H   0  0  0  0  0  0  0  0  0  0  0  0
   62.0613   33.1099   51.9337 H   0  0  0  0  0  0  0  0  0  0  0  0
   62.6837   31.5837   51.2018 H   0  0  0  0  0  0  0  0  0  0  0  0
  1  2  1  0
  2  3  2  0
  2  4  1  0
  4  5  1  0
  5  6  1  0
  6  7  1  0
  7  8  1  0
  8  9  2  0
  8 10  1  0
 10 11  2  0
 11 12  1  0
 12 13  2  0
 13 14  1  0
 14 15  1  0
 15 16  2  3
 16 17  1  0
 17 18  1  0
 18 19  1  0
 19 20  2  0
 20 21  1  0
 21 22  2  0
 22 23  1  0
 23 24  2  0
 24 25  1  0
 25 26  1  0
 26 27  2  0
 26 28  1  0
 28 29  2  0
 29 30  1  0
 30 31  2  0
 31 32  1  0
 32 33  2  0
 18 34  2  0
 34 35  1  0
 14 36  2  0
  7 37  1  0
 37 38  1  0
 38  4  1  0
 36 10  1  0
 35 16  1  0
 24 19  1  0
 33 28  1  0
  1 39  1  0
  1 40  1  0
  1 41  1  0
  5 42  1  0
  5 43  1  0
  6 44  1  0
  6 45  1  0
 11 46  1  0
 12 47  1  0
 13 48  1  0
 20 49  1  0
 21 50  1  0
 22 51  1  0
 23 52  1  0
 25 53  1  0
 29 54  1  0
 30 55  1  0
 31 56  1  0
 32 57  1  0
 33 58  1  0
 34 59  1  0
 36 60  1  0
 37 61  1  0
 37 62  1  0
 38 63  1  0
 38 64  1  0
M  CHG  1  17  -1
M  END
>  <UniqueID>  (56) 
55

>  <SMILES>  (56) 
CC(=O)N1CCN(C(=O)c2cccc(N=c3[n-]c(-c4ccccc4NC(=O)c4ccccc4)cs3)c2)CC1

>  <Energy>  (56) 
121.07116332410789

>  <Genealogy>  (56) 
CC(=O)N1CCN(C(=O)c2cccc(N=c3[n-]c(-c4ccccc4NC(=O)c4ccccc4)cs3)c2)CC1 (protonated)
CC(=O)N1CCN(C(=O)c2cccc(N=c3[n-]c(-c4ccccc4NC(=O)c4ccccc4)cs3)c2)CC1 (3D coordinates assigned)
CC(=O)N1CCN(C(=O)c2cccc(N=c3[n-]c(-c4ccccc4NC(=O)c4ccccc4)cs3)c2)CC1 (nonaromatic ring conformer: 121.07116332410789 kcal/mol)

>  <smiles>  (56) 
CC(=O)N1CCN(C(=O)c2cccc(N=c3[nH]c(-c4ccccc4NC(=O)c4ccccc4)cs3)c2)CC1

>  <score_type>  (56) 
oracle

>  <origin>  (56) 
adg

>  <m_score__min__energy>  (56) 
-12.07

>  <m_primary>  (56) 
energy

$$$$
56:0
     RDKit          3D

 55 57  0  0  0  0  0  0  0  0999 V2000
   57.0190   32.9180   45.6180 C   0  0  0  0  0  0  0  0  0  0  0  0
   58.2570   33.7060   45.3110 C   0  0  0  0  0  0  0  0  0  0  0  0
   58.4530   34.0820   44.1230 O   0  0  0  0  0  0  0  0  0  0  0  0
   59.2170   34.0280   46.3410 N   0  0  0  0  0  0  0  0  0  0  0  0
   60.5330   34.5830   45.9850 C   0  0  0  0  0  0  0  0  0  0  0  0
   61.6380   33.8560   46.7610 C   0  0  0  0  0  0  0  0  0  0  0  0
   61.2590   33.6500   48.1640 N   0  0  0  0  0  0  0  0  0  0  0  0
   62.1000   32.8610   49.0150 C   0  0  0  0  0  0  0  0  0  0  0  0
   63.2200   33.4530   49.6170 C   0  0  0  0  0  0  0  0  0  0  0  0
   64.0570   32.7000   50.4430 C   0  0  0  0  0  0  0  0  0  0  0  0
   63.7750   31.3540   50.6820 C   0  0  0  0  0  0  0  0  0  0  0  0
   62.6560   30.7560   50.0970 C   0  0  0  0  0  0  0  0  0  0  0  0
   61.8140   31.4980   49.2500 C   0  0  0  0  0  0  0  0  0  0  0  0
   60.6250   30.9070   48.6930 N   0  0  0  0  0  0  0  0  0  0  0  0
   60.5020   30.4950   47.3210 C   0  0  0  0  0  0  0  0  0  0  0  0
   61.3810   30.8380   46.4820 O   0  0  0  0  0  0  0  0  0  0  0  0
   59.3190   29.7250   46.8610 C   0  0  0  0  0  0  0  0  0  0  0  0
   58.8960   28.5930   47.5750 C   0  0  0  0  0  0  0  0  0  0  0  0
   57.7900   27.8580   47.1480 C   0  0  0  0  0  0  0  0  0  0  0  0
   57.0790   28.2410   46.0080 C   0  0  0  0  0  0  0  0  0  0  0  0
   55.9380   27.4690   45.6210 N   0  0  0  0  0  0  0  0  0  0  0  0
   55.8300   25.7640   45.9130 S   0  0  0  0  0  0  0  0  0  0  0  0
   56.8140   24.8690   44.7290 C   0  0  0  0  0  0  0  0  0  0  0  0
   54.3990   25.3330   45.7650 O   0  0  0  0  0  0  0  0  0  0  0  0
   56.3030   25.4520   47.3040 O   0  0  0  0  0  0  0  0  0  0  0  0
   57.5070   29.3580   45.2590 C   0  0  0  0  0  0  0  0  0  0  0  0
   56.7990   29.7800   44.0010 C   0  0  0  0  0  0  0  0  0  0  0  0
   58.6060   30.1080   45.7100 C   0  0  0  0  0  0  0  0  0  0  0  0
   60.0200   34.2280   48.6910 C   0  0  0  0  0  0  0  0  0  0  0  0
   58.8540   33.8720   47.7610 C   0  0  0  0  0  0  0  0  0  0  0  0
   56.8954   32.8393   46.7082 H   0  0  0  0  0  0  0  0  0  0  0  0
   56.1444   33.4259   45.1855 H   0  0  0  0  0  0  0  0  0  0  0  0
   57.1089   31.9106   45.1855 H   0  0  0  0  0  0  0  0  0  0  0  0
   60.7019   34.4554   44.9056 H   0  0  0  0  0  0  0  0  0  0  0  0
   60.5550   35.6521   46.2430 H   0  0  0  0  0  0  0  0  0  0  0  0
   61.8207   32.8779   46.2921 H   0  0  0  0  0  0  0  0  0  0  0  0
   62.5459   34.4766   46.7347 H   0  0  0  0  0  0  0  0  0  0  0  0
   63.4401   34.5157   49.4376 H   0  0  0  0  0  0  0  0  0  0  0  0
   64.9387   33.1676   50.9054 H   0  0  0  0  0  0  0  0  0  0  0  0
   64.4357   30.7624   51.3328 H   0  0  0  0  0  0  0  0  0  0  0  0
   62.4324   29.6983   50.3003 H   0  0  0  0  0  0  0  0  0  0  0  0
   59.7620   30.9140   49.2770 H   0  0  0  0  0  0  0  0  0  0  0  0
   59.4411   28.2829   48.4787 H   0  0  0  0  0  0  0  0  0  0  0  0
   57.4748   26.9689   47.7139 H   0  0  0  0  0  0  0  0  0  0  0  0
   57.5267   24.2208   45.2599 H   0  0  0  0  0  0  0  0  0  0  0  0
   56.1572   24.2523   44.0979 H   0  0  0  0  0  0  0  0  0  0  0  0
   57.3659   25.5811   44.0979 H   0  0  0  0  0  0  0  0  0  0  0  0
   55.8812   30.3270   44.2627 H   0  0  0  0  0  0  0  0  0  0  0  0
   57.4588   30.4323   43.4101 H   0  0  0  0  0  0  0  0  0  0  0  0
   56.5391   28.8893   43.4101 H   0  0  0  0  0  0  0  0  0  0  0  0
   58.9133   31.0070   45.1557 H   0  0  0  0  0  0  0  0  0  0  0  0
   59.8248   33.8235   49.6951 H   0  0  0  0  0  0  0  0  0  0  0  0
   60.1215   35.3217   48.7497 H   0  0  0  0  0  0  0  0  0  0  0  0
   58.5619   32.8268   47.9408 H   0  0  0  0  0  0  0  0  0  0  0  0
   58.0225   34.5587   47.9780 H   0  0  0  0  0  0  0  0  0  0  0  0
  1  2  1  0
  2  3  2  0
  2  4  1  0
  4  5  1  0
  5  6  1  0
  6  7  1  0
  7  8  1  0
  8  9  2  0
  9 10  1  0
 10 11  2  0
 11 12  1  0
 12 13  2  0
 13 14  1  0
 14 15  1  0
 15 16  2  0
 15 17  1  0
 17 18  2  0
 18 19  1  0
 19 20  2  0
 20 21  1  0
 21 22  1  0
 22 23  1  0
 22 24  2  0
 22 25  2  0
 20 26  1  0
 26 27  1  0
 26 28  2  0
  7 29  1  0
 29 30  1  0
 30  4  1  0
 13  8  1  0
 28 17  1  0
  1 31  1  0
  1 32  1  0
  1 33  1  0
  5 34  1  0
  5 35  1  0
  6 36  1  0
  6 37  1  0
  9 38  1  0
 10 39  1  0
 11 40  1  0
 12 41  1  0
 14 42  1  0
 18 43  1  0
 19 44  1  0
 23 45  1  0
 23 46  1  0
 23 47  1  0
 27 48  1  0
 27 49  1  0
 27 50  1  0
 28 51  1  0
 29 52  1  0
 29 53  1  0
 30 54  1  0
 30 55  1  0
M  CHG  1  21  -1
M  END
>  <UniqueID>  (57) 
56

>  <SMILES>  (57) 
CC(=O)N1CCN(c2ccccc2NC(=O)c2ccc([N-]S(C)(=O)=O)c(C)c2)CC1

>  <Energy>  (57) 
69.65858542194142

>  <Genealogy>  (57) 
CC(=O)N1CCN(c2ccccc2NC(=O)c2ccc([N-]S(C)(=O)=O)c(C)c2)CC1 (protonated)
CC(=O)N1CCN(c2ccccc2NC(=O)c2ccc([N-]S(C)(=O)=O)c(C)c2)CC1 (3D coordinates assigned)
CC(=O)N1CCN(c2ccccc2NC(=O)c2ccc([N-]S(C)(=O)=O)c(C)c2)CC1 (nonaromatic ring conformer: 69.65858542194142 kcal/mol)

>  <smiles>  (57) 
CC(=O)N1CCN(c2ccccc2NC(=O)c2ccc(NS(C)(=O)=O)c(C)c2)CC1

>  <score_type>  (57) 
oracle

>  <origin>  (57) 
adg

>  <m_score__min__energy>  (57) 
-10.65

>  <m_primary>  (57) 
energy

$$$$
57:0
     RDKit          3D

 40 41  0  0  0  0  0  0  0  0999 V2000
   55.7580   22.6350   48.5980 C   0  0  0  0  0  0  0  0  0  0  0  0
   56.2530   23.4250   47.6530 C   0  0  0  0  0  0  0  0  0  0  0  0
   55.5710   24.4900   47.2580 O   0  0  0  0  0  0  0  0  0  0  0  0
   56.0320   25.3110   46.3230 C   0  0  0  0  0  0  0  0  0  0  0  0
   55.3300   26.3070   45.9960 O   0  0  0  0  0  0  0  0  0  0  0  0
   57.2880   25.0720   45.7220 C   0  0  0  0  0  0  0  0  0  0  0  0
   57.7630   25.9200   44.7740 C   0  0  0  0  0  0  0  0  0  0  0  0
   57.9810   27.3700   44.9440 C   0  0  0  0  0  0  0  0  0  0  0  0
   58.7380   27.8340   46.0280 C   0  0  0  0  0  0  0  0  0  0  0  0
   59.0000   29.1990   46.1720 C   0  0  0  0  0  0  0  0  0  0  0  0
   58.5160   30.1200   45.2310 C   0  0  0  0  0  0  0  0  0  0  0  0
   58.8170   31.5170   45.3930 N   0  0  0  0  0  0  0  0  0  0  0  0
   57.8460   32.5690   45.2680 C   0  0  0  0  0  0  0  0  0  0  0  0
   56.6150   32.3030   45.1980 O   0  0  0  0  0  0  0  0  0  0  0  0
   58.2840   34.0050   45.2990 C   0  0  0  0  0  0  0  0  0  0  0  0
   59.0230   34.3520   46.6090 C   0  0  0  0  0  0  0  0  0  0  0  0
   60.5370   34.2210   46.4110 C   0  0  0  0  0  0  0  0  0  0  0  0
   58.5670   33.4580   47.7710 C   0  0  0  0  0  0  0  0  0  0  0  0
   57.8030   29.6470   44.1150 C   0  0  0  0  0  0  0  0  0  0  0  0
   57.5420   28.2810   43.9710 C   0  0  0  0  0  0  0  0  0  0  0  0
   57.9610   23.9050   46.1580 C   0  0  0  0  0  0  0  0  0  0  0  0
   59.0530   23.5390   45.6490 O   0  0  0  0  0  0  0  0  0  0  0  0
   57.4240   23.1430   47.1020 O   0  0  0  0  0  0  0  0  0  0  0  0
   56.3230   21.7504   48.9270 H   0  0  0  0  0  0  0  0  0  0  0  0
   54.7828   22.8650   49.0520 H   0  0  0  0  0  0  0  0  0  0  0  0
   58.0070   25.4882   43.7922 H   0  0  0  0  0  0  0  0  0  0  0  0
   59.1278   27.1205   46.7690 H   0  0  0  0  0  0  0  0  0  0  0  0
   59.5902   29.5540   47.0297 H   0  0  0  0  0  0  0  0  0  0  0  0
   59.7770   31.7760   45.7130 H   0  0  0  0  0  0  0  0  0  0  0  0
   58.9588   34.1896   44.4501 H   0  0  0  0  0  0  0  0  0  0  0  0
   57.3861   34.6372   45.2358 H   0  0  0  0  0  0  0  0  0  0  0  0
   58.7757   35.3924   46.8667 H   0  0  0  0  0  0  0  0  0  0  0  0
   61.0327   34.1781   47.3920 H   0  0  0  0  0  0  0  0  0  0  0  0
   60.7551   33.3006   45.8494 H   0  0  0  0  0  0  0  0  0  0  0  0
   60.9099   35.0902   45.8494 H   0  0  0  0  0  0  0  0  0  0  0  0
   58.8147   33.9437   48.7264 H   0  0  0  0  0  0  0  0  0  0  0  0
   57.4797   33.3030   47.7096 H   0  0  0  0  0  0  0  0  0  0  0  0
   59.0799   32.4868   47.7096 H   0  0  0  0  0  0  0  0  0  0  0  0
   57.4488   30.3553   43.3515 H   0  0  0  0  0  0  0  0  0  0  0  0
   56.9901   27.9188   43.0911 H   0  0  0  0  0  0  0  0  0  0  0  0
  1  2  2  0
  2  3  1  0
  3  4  1  0
  4  5  2  0
  4  6  1  0
  6  7  2  3
  7  8  1  0
  8  9  2  0
  9 10  1  0
 10 11  2  0
 11 12  1  0
 12 13  1  0
 13 14  2  0
 13 15  1  0
 15 16  1  0
 16 17  1  0
 16 18  1  0
 11 19  1  0
 19 20  2  0
  6 21  1  0
 21 22  2  0
 21 23  1  0
 23  2  1  0
 20  8  1  0
  1 24  1  0
  1 25  1  0
  7 26  1  0
  9 27  1  0
 10 28  1  0
 12 29  1  0
 15 30  1  0
 15 31  1  0
 16 32  1  0
 17 33  1  0
 17 34  1  0
 17 35  1  0
 18 36  1  0
 18 37  1  0
 18 38  1  0
 19 39  1  0
 20 40  1  0
M  END
>  <UniqueID>  (58) 
57

>  <SMILES>  (58) 
C=c1oc(=O)c(=Cc2ccc(NC(=O)CC(C)C)cc2)c(=O)o1

>  <Energy>  (58) 
51.56142718939505

>  <Genealogy>  (58) 
C=c1oc(=O)c(=Cc2ccc(NC(=O)CC(C)C)cc2)c(=O)o1 (3D coordinates assigned)
C=c1oc(=O)c(=Cc2ccc(NC(=O)CC(C)C)cc2)c(=O)o1 (optimized conformer: 51.56142718939505 kcal/mol)

>  <smiles>  (58) 
C=c1oc(=O)c(=Cc2ccc(NC(=O)CC(C)C)cc2)c(=O)o1

>  <score_type>  (58) 
oracle

>  <origin>  (58) 
adg

>  <m_score__min__energy>  (58) 
-7.8600000000000003

>  <m_primary>  (58) 
energy

$$$$
58:0
     RDKit          3D

 50 53  0  0  1  0  0  0  0  0999 V2000
   57.2170   31.2450   42.6670 C   0  0  0  0  0  0  0  0  0  0  0  0
   56.7190   30.0670   42.8940 C   0  0  0  0  0  0  0  0  0  0  0  0
   56.3020   29.5120   44.2220 C   0  0  0  0  0  0  0  0  0  0  0  0
   57.3920   29.2930   45.1070 N   0  0  0  0  0  0  0  0  0  0  0  0
   58.0460   30.3250   45.8280 C   0  0  0  0  0  0  0  0  0  0  0  0
   57.5750   31.4910   45.7070 O   0  0  0  0  0  0  0  0  0  0  0  0
   59.2130   30.1260   46.6880 C   0  0  0  0  0  0  0  0  0  0  0  0
   59.8020   31.2750   47.4180 C   0  0  0  0  0  0  0  0  0  0  0  0
   61.0700   31.3210   47.4320 N   0  0  0  0  0  0  0  0  0  0  0  0
   61.9310   32.2630   48.0230 C   0  0  0  0  0  0  0  0  0  0  0  0
   63.3010   32.0760   47.9170 C   0  0  0  0  0  0  0  0  0  0  0  0
   64.1500   33.0000   48.5290 C   0  0  0  0  0  0  0  0  0  0  0  0
   63.6300   34.0770   49.2230 C   0  0  0  0  0  0  0  0  0  0  0  0
   62.2460   34.2090   49.2930 C   0  0  0  0  0  0  0  0  0  0  0  0
   61.3820   33.3160   48.7020 C   0  0  0  0  0  0  0  0  0  0  0  0
   59.6790   33.6050   48.8440 S   0  0  0  0  0  0  0  0  0  0  0  0
   59.2820   34.9260   48.2310 O   0  0  0  0  0  0  0  0  0  0  0  0
   59.2060   33.6440   50.2760 O   0  0  0  0  0  0  0  0  0  0  0  0
   58.8640   32.2300   48.0440 C   0  0  0  0  0  0  0  0  0  0  0  0
   59.6780   28.9040   46.7880 C   0  0  0  0  0  0  0  0  0  0  0  0
   60.7850   28.5910   47.5750 O   0  0  0  0  0  0  0  0  0  0  0  0
   59.0740   27.8190   46.0960 N   0  0  0  0  0  0  0  0  0  0  0  0
   57.9230   27.9820   45.2450 C   0  0  0  0  0  0  0  0  0  0  0  0
   57.3960   26.9050   44.7610 C   0  0  0  0  0  0  0  0  0  0  0  0
   57.0900   25.6620   45.4270 C   0  0  0  0  0  0  0  0  0  0  0  0
   58.0520   24.6410   45.5250 C   0  0  0  0  0  0  0  0  0  0  0  0
   57.7800   23.4230   46.0940 C   0  0  0  0  0  0  0  0  0  0  0  0
   56.5270   23.1460   46.6040 C   0  0  0  0  0  0  0  0  0  0  0  0
   55.5530   24.1290   46.5250 C   0  0  0  0  0  0  0  0  0  0  0  0
   55.8470   25.3470   45.9490 C   0  0  0  0  0  0  0  0  0  0  0  0
   54.8040   26.2800   45.9080 O   0  0  0  0  0  0  0  0  0  0  0  0
   57.4863   31.5401   41.6421 H   0  0  0  0  0  0  0  0  0  0  0  0
   57.3694   31.9475   43.4996 H   0  0  0  0  0  0  0  0  0  0  0  0
   56.5901   29.4092   42.0218 H   0  0  0  0  0  0  0  0  0  0  0  0
   55.6062   30.2213   44.6939 H   0  0  0  0  0  0  0  0  0  0  0  0
   55.8335   28.5347   44.0341 H   0  0  0  0  0  0  0  0  0  0  0  0
   63.7099   31.2183   47.3628 H   0  0  0  0  0  0  0  0  0  0  0  0
   65.2401   32.8704   48.4586 H   0  0  0  0  0  0  0  0  0  0  0  0
   64.2923   34.8099   49.7069 H   0  0  0  0  0  0  0  0  0  0  0  0
   61.8254   35.0631   49.8440 H   0  0  0  0  0  0  0  0  0  0  0  0
   58.2689   31.6917   48.7964 H   0  0  0  0  0  0  0  0  0  0  0  0
   58.2395   32.6461   47.2397 H   0  0  0  0  0  0  0  0  0  0  0  0
   61.3850   29.3580   47.9080 H   0  0  0  0  0  0  0  0  0  0  0  0
   59.5170   26.8670   46.2350 H   0  0  0  0  0  0  0  0  0  0  0  0
   57.1456   26.9415   43.6905 H   0  0  0  0  0  0  0  0  0  0  0  0
   59.0618   24.8263   45.1300 H   0  0  0  0  0  0  0  0  0  0  0  0
   58.5689   22.6582   46.1446 H   0  0  0  0  0  0  0  0  0  0  0  0
   56.3074   22.1700   47.0614 H   0  0  0  0  0  0  0  0  0  0  0  0
   54.5451   23.9375   46.9219 H   0  0  0  0  0  0  0  0  0  0  0  0
   54.4040   26.6640   46.7380 H   0  0  0  0  0  0  0  0  0  0  0  0
  1  2  2  0
  2  3  1  0
  3  4  1  0
  4  5  1  0
  5  6  2  0
  5  7  1  0
  7  8  1  0
  8  9  2  0
  9 10  1  0
 10 11  2  0
 11 12  1  0
 12 13  2  0
 13 14  1  0
 14 15  2  0
 15 16  1  0
 16 17  2  0
 16 18  2  0
 16 19  1  0
  7 20  2  0
 20 21  1  0
 20 22  1  0
 22 23  1  0
 23 24  2  0
 24 25  1  0
 25 26  2  0
 26 27  1  0
 27 28  2  0
 28 29  1  0
 29 30  2  0
 30 31  1  0
 23  4  1  0
 30 25  1  0
 19  8  1  0
 15 10  1  0
  1 32  1  0
  1 33  1  0
  2 34  1  0
  3 35  1  0
  3 36  1  0
 11 37  1  0
 12 38  1  0
 13 39  1  0
 14 40  1  0
 19 41  1  0
 19 42  1  0
 21 43  1  0
 22 44  1  0
 24 45  1  0
 26 46  1  0
 27 47  1  0
 28 48  1  0
 29 49  1  0
 31 50  1  0
M  END
>  <smiles>  (59) 
C=CCN1C(=O)C(C2=Nc3ccccc3S(=O)(=O)C2)=C(O)NC1=Cc1ccccc1O

>  <score_type>  (59) 
oracle

>  <origin>  (59) 
adg

>  <m_score__min__energy>  (59) 
-10.210000000000001

>  <m_primary>  (59) 
energy

$$$$
59:0
     RDKit          3D

 55 58  0  0  0  0  0  0  0  0999 V2000
   54.2680   28.6050   53.7100 C   0  0  0  0  0  0  0  0  0  0  0  0
   54.8380   29.6130   53.0270 C   0  0  0  0  0  0  0  0  0  0  0  0
   54.1640   30.7150   52.4820 C   0  0  0  0  0  0  0  0  0  0  0  0
   52.8370   30.9610   52.5090 C   0  0  0  0  0  0  0  0  0  0  0  0
   51.9880   31.0980   51.3070 C   0  0  0  0  0  0  0  0  0  0  0  0
   52.0360   30.2420   50.2700 N   0  0  0  0  0  0  0  0  0  0  0  0
   51.2500   30.8260   49.3410 C   0  0  0  0  0  0  0  0  0  0  0  0
   51.0550   30.3240   48.2050 O   0  0  0  0  0  0  0  0  0  0  0  0
   50.7290   32.0160   49.7070 N   0  0  0  0  0  0  0  0  0  0  0  0
   51.2150   32.1830   50.9480 C   0  0  0  0  0  0  0  0  0  0  0  0
   51.0230   33.3420   51.6950 O   0  0  0  0  0  0  0  0  0  0  0  0
   55.1410   31.5640   51.9940 C   0  0  0  0  0  0  0  0  0  0  0  0
   56.3550   30.9500   52.2250 C   0  0  0  0  0  0  0  0  0  0  0  0
   57.6440   31.6440   52.0420 C   0  0  0  0  0  0  0  0  0  0  0  0
   58.3990   31.7710   53.0470 O   0  0  0  0  0  0  0  0  0  0  0  0
   57.9580   32.3270   50.8050 N   0  0  0  0  0  0  0  0  0  0  0  0
   58.8890   33.4590   51.0690 C   0  0  0  0  0  0  0  0  0  0  0  0
   60.3500   33.1530   50.6990 C   0  0  0  0  0  0  0  0  0  0  0  0
   60.4520   32.6680   49.3150 N   0  0  0  0  0  0  0  0  0  0  0  0
   61.6990   32.7510   48.5890 C   0  0  0  0  0  0  0  0  0  0  0  0
   61.7670   32.3220   47.4050 O   0  0  0  0  0  0  0  0  0  0  0  0
   62.9280   33.3500   49.2290 C   0  0  0  0  0  0  0  0  0  0  0  0
   64.1050   33.4670   48.2680 C   0  0  0  0  0  0  0  0  0  0  0  0
   64.1420   32.4400   49.3910 C   0  0  0  0  0  0  0  0  0  0  0  0
   59.2770   32.0330   48.6980 C   0  0  0  0  0  0  0  0  0  0  0  0
   58.4300   31.3580   49.7810 C   0  0  0  0  0  0  0  0  0  0  0  0
   56.1800   29.7520   52.8400 N   0  0  0  0  0  0  0  0  0  0  0  0
   57.2420   28.8810   53.3730 C   0  0  0  0  0  0  0  0  0  0  0  0
   58.4860   28.8560   52.4680 C   0  0  0  0  0  0  0  0  0  0  0  0
   59.7890   28.9200   53.2540 C   0  0  0  0  0  0  0  0  0  0  0  0
   54.8883   27.7835   54.0979 H   0  0  0  0  0  0  0  0  0  0  0  0
   53.1814   28.6017   53.8809 H   0  0  0  0  0  0  0  0  0  0  0  0
   52.3549   31.0666   53.4921 H   0  0  0  0  0  0  0  0  0  0  0  0
   54.9809   32.5408   51.5141 H   0  0  0  0  0  0  0  0  0  0  0  0
   57.0740   32.7500   50.4400 H   0  0  0  0  0  0  0  0  0  0  0  0
   58.5560   34.3275   50.4817 H   0  0  0  0  0  0  0  0  0  0  0  0
   58.8638   33.6519   52.1517 H   0  0  0  0  0  0  0  0  0  0  0  0
   60.9474   34.0707   50.8036 H   0  0  0  0  0  0  0  0  0  0  0  0
   60.7259   32.3697   51.3736 H   0  0  0  0  0  0  0  0  0  0  0  0
   62.3821   34.0136   49.9158 H   0  0  0  0  0  0  0  0  0  0  0  0
   63.9974   33.1366   47.2243 H   0  0  0  0  0  0  0  0  0  0  0  0
   64.7633   34.2856   47.9415 H   0  0  0  0  0  0  0  0  0  0  0  0
   64.0606   31.3679   49.1588 H   0  0  0  0  0  0  0  0  0  0  0  0
   64.8373   32.2094   50.2116 H   0  0  0  0  0  0  0  0  0  0  0  0
   58.6745   32.7975   48.1855 H   0  0  0  0  0  0  0  0  0  0  0  0
   59.6096   31.2778   47.9707 H   0  0  0  0  0  0  0  0  0  0  0  0
   57.5555   30.8888   49.3066 H   0  0  0  0  0  0  0  0  0  0  0  0
   59.0586   30.6098   50.2861 H   0  0  0  0  0  0  0  0  0  0  0  0
   57.5353   29.2488   54.3673 H   0  0  0  0  0  0  0  0  0  0  0  0
   56.8430   27.8572   53.4248 H   0  0  0  0  0  0  0  0  0  0  0  0
   58.4750   27.9258   51.8810 H   0  0  0  0  0  0  0  0  0  0  0  0
   58.4443   29.7460   51.8230 H   0  0  0  0  0  0  0  0  0  0  0  0
   59.5681   28.9092   54.3315 H   0  0  0  0  0  0  0  0  0  0  0  0
   60.4140   28.0515   52.9991 H   0  0  0  0  0  0  0  0  0  0  0  0
   60.3259   29.8456   52.9991 H   0  0  0  0  0  0  0  0  0  0  0  0
  1  2  2  0
  2  3  1  0
  3  4  2  3
  4  5  1  0
  5  6  1  0
  6  7  1  0
  7  8  2  0
  7  9  1  0
  9 10  1  0
 10 11  1  0
  3 12  1  0
 12 13  2  0
 13 14  1  0
 14 15  2  0
 14 16  1  0
 16 17  1  0
 17 18  1  0
 18 19  1  0
 19 20  1  0
 20 21  2  0
 20 22  1  0
 22 23  1  0
 23 24  1  0
 19 25  1  0
 25 26  1  0
 13 27  1  0
 27 28  1  0
 28 29  1  0
 29 30  1  0
 27  2  1  0
 10  5  2  0
 26 16  1  0
 24 22  1  0
  1 31  1  0
  1 32  1  0
  4 33  1  0
 12 34  1  0
 16 35  1  0
 17 36  1  0
 17 37  1  0
 18 38  1  0
 18 39  1  0
 22 40  1  0
 23 41  1  0
 23 42  1  0
 24 43  1  0
 24 44  1  0
 25 45  1  0
 25 46  1  0
 26 47  1  0
 26 48  1  0
 28 49  1  0
 28 50  1  0
 29 51  1  0
 29 52  1  0
 30 53  1  0
 30 54  1  0
 30 55  1  0
M  CHG  4   6  -1   9  -1  11  -1  16   1
M  END
>  <UniqueID>  (60) 
58

>  <SMILES>  (60) 
C=c1c(=Cc2[n-]c(=O)[n-]c2[O-])cc(C(=O)[NH+]2CCN(C(=O)C3CC3)CC2)n1CCC

>  <Energy>  (60) 
399.26281060011854

>  <Genealogy>  (60) 
C=c1c(=Cc2[n-]c(=O)[n-]c2[O-])cc(C(=O)[NH+]2CCN(C(=O)C3CC3)CC2)n1CCC (protonated)
C=c1c(=Cc2[n-]c(=O)[n-]c2[O-])cc(C(=O)[NH+]2CCN(C(=O)C3CC3)CC2)n1CCC (3D coordinates assigned)
C=c1c(=Cc2[n-]c(=O)[n-]c2[O-])cc(C(=O)[NH+]2CCN(C(=O)C3CC3)CC2)n1CCC (nonaromatic ring conformer: 399.26281060011854 kcal/mol)

>  <smiles>  (60) 
C=c1c(=Cc2[nH]c(=O)[nH]c2O)cc(C(=O)N2CCN(C(=O)C3CC3)CC2)n1CCC

>  <score_type>  (60) 
oracle

>  <origin>  (60) 
adg

>  <m_score__min__energy>  (60) 
-15.449999999999999

>  <m_primary>  (60) 
energy

$$$$
60:0
     RDKit          3D

 49 52  0  0  0  0  0  0  0  0999 V2000
   64.1570   33.3660   47.6930 O   0  0  0  0  0  0  0  0  0  0  0  0
   63.1320   32.6630   47.8980 C   0  0  0  0  0  0  0  0  0  0  0  0
   61.8600   32.9520   47.2090 C   0  0  0  0  0  0  0  0  0  0  0  0
   61.6530   34.2180   46.6450 C   0  0  0  0  0  0  0  0  0  0  0  0
   60.4540   34.5150   45.9930 C   0  0  0  0  0  0  0  0  0  0  0  0
   59.4370   33.5550   45.9020 C   0  0  0  0  0  0  0  0  0  0  0  0
   59.6450   32.2660   46.4480 C   0  0  0  0  0  0  0  0  0  0  0  0
   60.8500   31.9810   47.1090 C   0  0  0  0  0  0  0  0  0  0  0  0
   58.5790   31.1950   46.3870 C   0  0  0  0  0  0  0  0  0  0  0  0
   57.4420   31.6020   45.5510 N   0  0  0  0  0  0  0  0  0  0  0  0
   56.7850   30.6550   44.6890 C   0  0  0  0  0  0  0  0  0  0  0  0
   56.6260   30.9240   43.4690 O   0  0  0  0  0  0  0  0  0  0  0  0
   56.3500   29.3800   45.1790 N   0  0  0  0  0  0  0  0  0  0  0  0
   57.1880   28.2300   45.3590 C   0  0  0  0  0  0  0  0  0  0  0  0
   57.4120   27.6750   46.6300 C   0  0  0  0  0  0  0  0  0  0  0  0
   58.2360   26.5560   46.7770 C   0  0  0  0  0  0  0  0  0  0  0  0
   58.8220   25.9550   45.6490 C   0  0  0  0  0  0  0  0  0  0  0  0
   59.7100   24.8330   45.7610 N   0  0  0  0  0  0  0  0  0  0  0  0
   59.3420   23.4500   45.6850 C   0  0  0  0  0  0  0  0  0  0  0  0
   60.1650   22.5930   45.2660 O   0  0  0  0  0  0  0  0  0  0  0  0
   58.0760   23.0070   46.1850 N   0  0  0  0  0  0  0  0  0  0  0  0
   56.7880   23.4920   45.7770 C   0  0  0  0  0  0  0  0  0  0  0  0
   56.2350   23.1850   44.5220 C   0  0  0  0  0  0  0  0  0  0  0  0
   54.9680   23.6630   44.1850 C   0  0  0  0  0  0  0  0  0  0  0  0
   54.2540   24.4260   45.1110 C   0  0  0  0  0  0  0  0  0  0  0  0
   54.7910   24.6910   46.3320 N   0  0  0  0  0  0  0  0  0  0  0  0
   56.0260   24.2400   46.6820 C   0  0  0  0  0  0  0  0  0  0  0  0
   58.5910   26.5060   44.3820 C   0  0  0  0  0  0  0  0  0  0  0  0
   57.7640   27.6240   44.2370 C   0  0  0  0  0  0  0  0  0  0  0  0
   57.0140   33.0010   45.5840 C   0  0  0  0  0  0  0  0  0  0  0  0
   58.1740   33.8900   45.1460 C   0  0  0  0  0  0  0  0  0  0  0  0
   63.1863   31.8198   48.6023 H   0  0  0  0  0  0  0  0  0  0  0  0
   62.4401   34.9831   46.7162 H   0  0  0  0  0  0  0  0  0  0  0  0
   60.3068   35.5100   45.5476 H   0  0  0  0  0  0  0  0  0  0  0  0
   61.0050   30.9868   47.5534 H   0  0  0  0  0  0  0  0  0  0  0  0
   59.0191   30.2784   45.9672 H   0  0  0  0  0  0  0  0  0  0  0  0
   58.2078   31.0244   47.4083 H   0  0  0  0  0  0  0  0  0  0  0  0
   56.9361   28.1238   47.5144 H   0  0  0  0  0  0  0  0  0  0  0  0
   58.4269   26.1438   47.7788 H   0  0  0  0  0  0  0  0  0  0  0  0
   56.7998   22.5691   43.8067 H   0  0  0  0  0  0  0  0  0  0  0  0
   54.5355   23.4406   43.1983 H   0  0  0  0  0  0  0  0  0  0  0  0
   53.2571   24.8128   44.8529 H   0  0  0  0  0  0  0  0  0  0  0  0
   56.4277   24.4643   47.6812 H   0  0  0  0  0  0  0  0  0  0  0  0
   59.0630   26.0565   43.4959 H   0  0  0  0  0  0  0  0  0  0  0  0
   57.5649   28.0299   43.2342 H   0  0  0  0  0  0  0  0  0  0  0  0
   56.1637   33.1420   44.9005 H   0  0  0  0  0  0  0  0  0  0  0  0
   56.7070   33.2700   46.6055 H   0  0  0  0  0  0  0  0  0  0  0  0
   58.3509   33.7442   44.0702 H   0  0  0  0  0  0  0  0  0  0  0  0
   57.9092   34.9363   45.3583 H   0  0  0  0  0  0  0  0  0  0  0  0
  1  2  2  0
  2  3  1  0
  3  4  2  0
  4  5  1  0
  5  6  2  0
  6  7  1  0
  7  8  2  0
  7  9  1  0
  9 10  1  0
 10 11  1  0
 11 12  2  0
 11 13  1  0
 13 14  1  0
 14 15  2  0
 15 16  1  0
 16 17  2  0
 17 18  1  0
 18 19  1  0
 19 20  2  0
 19 21  1  0
 21 22  1  0
 22 23  2  0
 23 24  1  0
 24 25  2  0
 25 26  1  0
 26 27  2  0
 17 28  1  0
 28 29  2  0
 10 30  1  0
 30 31  1  0
  8  3  1  0
 29 14  1  0
 31  6  1  0
 27 22  1  0
  2 32  1  0
  4 33  1  0
  5 34  1  0
  8 35  1  0
  9 36  1  0
  9 37  1  0
 15 38  1  0
 16 39  1  0
 23 40  1  0
 24 41  1  0
 25 42  1  0
 27 43  1  0
 28 44  1  0
 29 45  1  0
 30 46  1  0
 30 47  1  0
 31 48  1  0
 31 49  1  0
M  CHG  3  13  -1  18  -1  21  -1
M  END
>  <UniqueID>  (61) 
59

>  <SMILES>  (61) 
O=Cc1ccc2c(c1)CN(C(=O)[N-]c1ccc([N-]C(=O)[N-]c3cccnc3)cc1)CC2

>  <Energy>  (61) 
68.14977361415436

>  <Genealogy>  (61) 
O=Cc1ccc2c(c1)CN(C(=O)[N-]c1ccc([N-]C(=O)[N-]c3cccnc3)cc1)CC2 (protonated)
O=Cc1ccc2c(c1)CN(C(=O)[N-]c1ccc([N-]C(=O)[N-]c3cccnc3)cc1)CC2 (3D coordinates assigned)
O=Cc1ccc2c(c1)CN(C(=O)[N-]c1ccc([N-]C(=O)[N-]c3cccnc3)cc1)CC2 (nonaromatic ring conformer: 68.14977361415436 kcal/mol)

>  <smiles>  (61) 
O=Cc1ccc2c(c1)CN(C(=O)Nc1ccc(NC(=O)Nc3cccnc3)cc1)CC2

>  <score_type>  (61) 
oracle

>  <origin>  (61) 
adg

>  <m_score__min__energy>  (61) 
-13.65

>  <m_primary>  (61) 
energy

$$$$
61:0
     RDKit          3D

 45 48  0  0  1  0  0  0  0  0999 V2000
   56.0440   24.3050   45.2780 O   0  0  0  0  0  0  0  0  0  0  0  0
   56.3340   25.5210   45.4300 C   0  0  0  0  0  0  0  0  0  0  0  0
   55.3750   26.3780   45.9560 O   0  0  0  0  0  0  0  0  0  0  0  0
   57.6470   26.1040   45.0790 C   0  0  0  0  0  0  0  0  0  0  0  0
   58.4020   26.5350   46.2760 C   0  0  0  0  0  0  0  0  0  0  0  0
   57.8680   27.5090   47.0860 C   0  0  0  0  0  0  0  0  0  0  0  0
   58.5800   27.9070   48.2050 C   0  0  0  0  0  0  0  0  0  0  0  0
   59.8130   27.3320   48.5030 C   0  0  0  0  0  0  0  0  0  0  0  0
   60.4990   27.7950   49.6830 N   0  0  0  0  0  0  0  0  0  0  0  0
   61.0840   28.9670   49.6800 C   0  0  0  0  0  0  0  0  0  0  0  0
   61.5000   29.4840   50.8670 N   0  0  0  0  0  0  0  0  0  0  0  0
   62.1110   30.7050   50.8770 C   0  0  0  0  0  0  0  0  0  0  0  0
   62.3070   31.4080   49.6960 C   0  0  0  0  0  0  0  0  0  0  0  0
   61.8760   30.8570   48.5070 C   0  0  0  0  0  0  0  0  0  0  0  0
   62.0740   31.5380   47.4270 N   0  0  0  0  0  0  0  0  0  0  0  0
   60.9020   31.9950   46.7590 C   0  0  0  0  0  0  0  0  0  0  0  0
   60.7990   33.3620   46.5270 C   0  0  0  0  0  0  0  0  0  0  0  0
   59.6930   33.9090   45.8800 C   0  0  0  0  0  0  0  0  0  0  0  0
   59.5980   35.6540   45.6030 Cl  0  0  0  0  0  0  0  0  0  0  0  0
   58.6720   33.0780   45.4600 C   0  0  0  0  0  0  0  0  0  0  0  0
   58.7830   31.7150   45.6960 C   0  0  0  0  0  0  0  0  0  0  0  0
   57.7040   30.8350   45.2520 C   0  0  0  0  0  0  0  0  0  0  0  0
   56.4780   31.1690   44.8030 N   0  0  0  0  0  0  0  0  0  0  0  0
   55.7860   30.0740   44.4960 N   0  0  0  0  0  0  0  0  0  0  0  0
   56.5730   29.0170   44.7480 N   0  0  0  0  0  0  0  0  0  0  0  0
   57.7310   29.4860   45.2060 N   0  0  0  0  0  0  0  0  0  0  0  0
   59.8880   31.1940   46.3380 C   0  0  0  0  0  0  0  0  0  0  0  0
   61.2750   29.6520   48.5230 N   0  0  0  0  0  0  0  0  0  0  0  0
   60.3590   26.3510   47.6930 C   0  0  0  0  0  0  0  0  0  0  0  0
   59.6380   25.9570   46.5720 C   0  0  0  0  0  0  0  0  0  0  0  0
   55.1180   26.3490   46.9510 H   0  0  0  0  0  0  0  0  0  0  0  0
   58.2378   25.3488   44.5398 H   0  0  0  0  0  0  0  0  0  0  0  0
   57.4677   26.9911   44.4538 H   0  0  0  0  0  0  0  0  0  0  0  0
   56.8944   27.9632   46.8499 H   0  0  0  0  0  0  0  0  0  0  0  0
   58.1678   28.6847   48.8648 H   0  0  0  0  0  0  0  0  0  0  0  0
   61.3460   28.9480   51.7430 H   0  0  0  0  0  0  0  0  0  0  0  0
   62.4513   31.1359   51.8302 H   0  0  0  0  0  0  0  0  0  0  0  0
   62.7995   32.3915   49.7082 H   0  0  0  0  0  0  0  0  0  0  0  0
   61.6090   34.0266   46.8618 H   0  0  0  0  0  0  0  0  0  0  0  0
   57.7888   33.4887   44.9488 H   0  0  0  0  0  0  0  0  0  0  0  0
   56.3080   27.9990   44.6060 H   0  0  0  0  0  0  0  0  0  0  0  0
   59.9492   30.1096   46.5123 H   0  0  0  0  0  0  0  0  0  0  0  0
   60.9450   29.2250   47.6290 H   0  0  0  0  0  0  0  0  0  0  0  0
   61.3330   25.8976   47.9292 H   0  0  0  0  0  0  0  0  0  0  0  0
   60.0464   25.1797   45.9094 H   0  0  0  0  0  0  0  0  0  0  0  0
  1  2  2  0
  2  3  1  0
  2  4  1  0
  4  5  1  0
  5  6  2  0
  6  7  1  0
  7  8  2  0
  8  9  1  0
  9 10  2  0
 10 11  1  0
 11 12  1  0
 12 13  2  0
 13 14  1  0
 14 15  2  0
 15 16  1  0
 16 17  2  0
 17 18  1  0
 18 19  1  0
 18 20  2  0
 20 21  1  0
 21 22  1  0
 22 23  1  0
 23 24  2  0
 24 25  1  0
 25 26  1  0
 21 27  2  0
 14 28  1  0
  8 29  1  0
 29 30  2  0
 30  5  1  0
 28 10  1  0
 27 16  1  0
 26 22  2  0
  3 31  1  0
  4 32  1  0
  4 33  1  0
  6 34  1  0
  7 35  1  0
 11 36  1  0
 12 37  1  0
 13 38  1  0
 17 39  1  0
 20 40  1  0
 25 41  1  0
 27 42  1  0
 28 43  1  0
 29 44  1  0
 30 45  1  0
M  END
>  <smiles>  (62) 
O=C(O)Cc1ccc(N=c2[nH]ccc(=Nc3cc(Cl)cc(-c4nn[nH]n4)c3)[nH]2)cc1

>  <score_type>  (62) 
oracle

>  <origin>  (62) 
adg

>  <m_score__min__energy>  (62) 
-9.5500000000000007

>  <m_primary>  (62) 
energy

$$$$
62:0
     RDKit          3D

 48 50  0  0  0  0  0  0  0  0999 V2000
   61.1020   28.9820   44.6690 N   0  0  0  0  0  0  0  0  0  0  0  0
   60.3620   28.2670   45.1980 C   0  0  0  0  0  0  0  0  0  0  0  0
   59.4410   27.3750   45.8580 C   0  0  0  0  0  0  0  0  0  0  0  0
   58.5090   26.6640   45.0890 C   0  0  0  0  0  0  0  0  0  0  0  0
   57.6040   25.7980   45.7060 C   0  0  0  0  0  0  0  0  0  0  0  0
   57.6180   25.6440   47.0940 C   0  0  0  0  0  0  0  0  0  0  0  0
   58.5440   26.3480   47.8680 C   0  0  0  0  0  0  0  0  0  0  0  0
   59.4790   27.2050   47.2570 C   0  0  0  0  0  0  0  0  0  0  0  0
   60.4270   27.9590   48.0320 N   0  0  0  0  0  0  0  0  0  0  0  0
   60.1500   28.7410   49.2020 C   0  0  0  0  0  0  0  0  0  0  0  0
   59.9930   28.1760   50.3180 O   0  0  0  0  0  0  0  0  0  0  0  0
   60.1050   30.2200   49.1100 C   0  0  0  0  0  0  0  0  0  0  0  0
   61.2340   30.9450   48.6890 C   0  0  0  0  0  0  0  0  0  0  0  0
   61.1910   32.3390   48.6030 C   0  0  0  0  0  0  0  0  0  0  0  0
   60.0170   33.0330   48.9230 C   0  0  0  0  0  0  0  0  0  0  0  0
   59.9810   34.5350   48.8640 C   0  0  0  0  0  0  0  0  0  0  0  0
   59.0850   34.9640   47.7880 N   0  0  0  0  0  0  0  0  0  0  0  0
   59.7410   34.4880   46.2520 S   0  0  0  0  0  0  0  0  0  0  0  0
   59.6930   35.6490   45.2960 O   0  0  0  0  0  0  0  0  0  0  0  0
   61.1780   34.0830   46.4330 O   0  0  0  0  0  0  0  0  0  0  0  0
   58.8370   33.1250   45.5960 C   0  0  0  0  0  0  0  0  0  0  0  0
   58.8910   31.8690   46.2160 C   0  0  0  0  0  0  0  0  0  0  0  0
   58.1900   30.7880   45.6750 C   0  0  0  0  0  0  0  0  0  0  0  0
   57.4390   30.9480   44.5030 C   0  0  0  0  0  0  0  0  0  0  0  0
   56.5490   29.5870   43.8280 S   0  0  0  0  0  0  0  0  0  0  0  0
   55.5180   28.9150   45.0410 N   0  0  0  0  0  0  0  0  0  0  0  0
   55.7190   30.0480   42.6620 O   0  0  0  0  0  0  0  0  0  0  0  0
   57.5110   28.5370   43.3510 O   0  0  0  0  0  0  0  0  0  0  0  0
   57.3840   32.2050   43.8840 C   0  0  0  0  0  0  0  0  0  0  0  0
   58.0850   33.2860   44.4250 C   0  0  0  0  0  0  0  0  0  0  0  0
   58.8930   32.3170   49.3600 C   0  0  0  0  0  0  0  0  0  0  0  0
   58.9340   30.9230   49.4490 C   0  0  0  0  0  0  0  0  0  0  0  0
   58.4906   26.7887   43.9963 H   0  0  0  0  0  0  0  0  0  0  0  0
   56.8793   25.2365   45.0982 H   0  0  0  0  0  0  0  0  0  0  0  0
   56.8988   24.9673   47.5787 H   0  0  0  0  0  0  0  0  0  0  0  0
   58.5425   26.2319   48.9619 H   0  0  0  0  0  0  0  0  0  0  0  0
   62.1585   30.4104   48.4252 H   0  0  0  0  0  0  0  0  0  0  0  0
   62.0844   32.8948   48.2821 H   0  0  0  0  0  0  0  0  0  0  0  0
   59.6160   34.9302   49.8235 H   0  0  0  0  0  0  0  0  0  0  0  0
   60.9940   34.9169   48.6693 H   0  0  0  0  0  0  0  0  0  0  0  0
   59.0510   36.0100   47.7900 H   0  0  0  0  0  0  0  0  0  0  0  0
   59.4867   31.7340   47.1308 H   0  0  0  0  0  0  0  0  0  0  0  0
   58.2279   29.8071   46.1714 H   0  0  0  0  0  0  0  0  0  0  0  0
   54.5770   29.3500   44.9180 H   0  0  0  0  0  0  0  0  0  0  0  0
   56.7873   32.3405   42.9699 H   0  0  0  0  0  0  0  0  0  0  0  0
   58.0462   34.2673   43.9294 H   0  0  0  0  0  0  0  0  0  0  0  0
   57.9740   32.8557   49.6342 H   0  0  0  0  0  0  0  0  0  0  0  0
   58.0443   30.3711   49.7865 H   0  0  0  0  0  0  0  0  0  0  0  0
  1  2  3  0
  2  3  1  0
  3  4  2  0
  4  5  1  0
  5  6  2  0
  6  7  1  0
  7  8  2  0
  8  9  1  0
  9 10  1  0
 10 11  2  0
 10 12  1  0
 12 13  2  0
 13 14  1  0
 14 15  2  0
 15 16  1  0
 16 17  1  0
 17 18  1  0
 18 19  2  0
 18 20  2  0
 18 21  1  0
 21 22  2  0
 22 23  1  0
 23 24  2  0
 24 25  1  0
 25 26  1  0
 25 27  2  0
 25 28  2  0
 24 29  1  0
 29 30  2  0
 15 31  1  0
 31 32  2  0
  8  3  1  0
 32 12  1  0
 30 21  1  0
  4 33  1  0
  5 34  1  0
  6 35  1  0
  7 36  1  0
 13 37  1  0
 14 38  1  0
 16 39  1  0
 16 40  1  0
 17 41  1  0
 22 42  1  0
 23 43  1  0
 26 44  1  0
 29 45  1  0
 30 46  1  0
 31 47  1  0
 32 48  1  0
M  CHG  2   9  -1  26  -1
M  END
>  <UniqueID>  (63) 
60

>  <SMILES>  (63) 
N#Cc1ccccc1[N-]C(=O)c1ccc(CNS(=O)(=O)c2ccc(S([NH-])(=O)=O)cc2)cc1

>  <Energy>  (63) 
51.70143447385486

>  <Genealogy>  (63) 
N#Cc1ccccc1[N-]C(=O)c1ccc(CNS(=O)(=O)c2ccc(S([NH-])(=O)=O)cc2)cc1 (protonated)
N#Cc1ccccc1[N-]C(=O)c1ccc(CNS(=O)(=O)c2ccc(S([NH-])(=O)=O)cc2)cc1 (3D coordinates assigned)
N#Cc1ccccc1[N-]C(=O)c1ccc(CNS(=O)(=O)c2ccc(S([NH-])(=O)=O)cc2)cc1 (optimized conformer: 51.70143447385486 kcal/mol)

>  <smiles>  (63) 
N#Cc1ccccc1NC(=O)c1ccc(CNS(=O)(=O)c2ccc(S(N)(=O)=O)cc2)cc1

>  <score_type>  (63) 
oracle

>  <origin>  (63) 
adg

>  <m_score__min__energy>  (63) 
-13.06

>  <m_primary>  (63) 
energy

$$$$
63:0
     RDKit          3D

 60 63  0  0  0  0  0  0  0  0999 V2000
   57.8559   35.5698   44.4746 H   0  0  0  0  0  0  0  0  0  0  0  0
   57.9500   34.5720   44.9280 C   0  0  0  0  0  0  0  0  0  0  0  0
   57.1630   33.5550   44.4970 N   0  0  0  0  0  0  0  0  0  0  0  0
   57.2630   32.3120   45.0410 C   0  0  0  0  0  0  0  0  0  0  0  0
   56.4910   31.3450   44.6440 N   0  0  0  0  0  0  0  0  0  0  0  0
   56.8690   30.3110   43.6800 C   0  0  0  0  0  0  0  0  0  0  0  0
   55.9594   29.8687   43.2476 H   0  0  0  0  0  0  0  0  0  0  0  0
   57.4805   30.7681   42.8881 H   0  0  0  0  0  0  0  0  0  0  0  0
   57.6730   29.2310   44.3560 C   0  0  0  0  0  0  0  0  0  0  0  0
   59.0570   29.3870   44.5290 C   0  0  0  0  0  0  0  0  0  0  0  0
   59.5633   30.2761   44.1251 H   0  0  0  0  0  0  0  0  0  0  0  0
   59.7940   28.4160   45.2130 C   0  0  0  0  0  0  0  0  0  0  0  0
   60.8801   28.5387   45.3369 H   0  0  0  0  0  0  0  0  0  0  0  0
   59.1560   27.2900   45.7400 C   0  0  0  0  0  0  0  0  0  0  0  0
   59.7391   26.5317   46.2831 H   0  0  0  0  0  0  0  0  0  0  0  0
   57.7730   27.1260   45.5770 C   0  0  0  0  0  0  0  0  0  0  0  0
   56.9390   25.7410   46.2760 S   0  0  0  0  0  0  0  0  0  0  0  0
   55.4570   25.9880   46.3130 O   0  0  0  0  0  0  0  0  0  0  0  0
   57.4360   25.5120   47.6770 O   0  0  0  0  0  0  0  0  0  0  0  0
   57.2520   24.3000   45.2780 C   0  0  0  0  0  0  0  0  0  0  0  0
   57.4398   23.4352   45.9314 H   0  0  0  0  0  0  0  0  0  0  0  0
   56.3771   24.0966   44.6430 H   0  0  0  0  0  0  0  0  0  0  0  0
   58.1324   24.4779   44.6430 H   0  0  0  0  0  0  0  0  0  0  0  0
   57.0380   28.0920   44.8760 C   0  0  0  0  0  0  0  0  0  0  0  0
   55.9559   27.9567   44.7323 H   0  0  0  0  0  0  0  0  0  0  0  0
   58.1710   32.0810   46.0250 N   0  0  0  0  0  0  0  0  0  0  0  0
   58.9870   33.0650   46.4970 C   0  0  0  0  0  0  0  0  0  0  0  0
   59.9280   32.7730   47.5580 N   0  0  0  0  0  0  0  0  0  0  0  0
   61.2160   32.1220   47.2720 C   0  0  0  0  0  0  0  0  0  0  0  0
   61.8803   32.8464   46.7781 H   0  0  0  0  0  0  0  0  0  0  0  0
   61.0269   31.2556   46.6212 H   0  0  0  0  0  0  0  0  0  0  0  0
   61.8940   31.6190   48.5590 C   0  0  0  0  0  0  0  0  0  0  0  0
   62.9160   31.2968   48.3106 H   0  0  0  0  0  0  0  0  0  0  0  0
   61.2782   30.7942   48.9470 H   0  0  0  0  0  0  0  0  0  0  0  0
   61.9720   32.6420   49.6260 N   0  0  0  0  0  0  0  0  0  0  0  0
   63.5270   33.4430   49.6510 S   0  0  0  0  0  0  0  0  0  0  0  0
   63.4200   34.7050   50.4600 O   0  0  0  0  0  0  0  0  0  0  0  0
   63.9210   33.8210   48.2500 O   0  0  0  0  0  0  0  0  0  0  0  0
   64.7790   32.4110   50.3470 C   0  0  0  0  0  0  0  0  0  0  0  0
   66.1320   32.7160   50.1560 C   0  0  0  0  0  0  0  0  0  0  0  0
   66.4163   33.6216   49.6001 H   0  0  0  0  0  0  0  0  0  0  0  0
   67.1230   31.8740   50.6690 C   0  0  0  0  0  0  0  0  0  0  0  0
   68.1837   32.1119   50.5010 H   0  0  0  0  0  0  0  0  0  0  0  0
   66.7720   30.7270   51.3970 C   0  0  0  0  0  0  0  0  0  0  0  0
   67.8310   29.7990   51.9190 C   0  0  0  0  0  0  0  0  0  0  0  0
   67.8184   29.8100   53.0189 H   0  0  0  0  0  0  0  0  0  0  0  0
   67.6332   28.7781   51.5602 H   0  0  0  0  0  0  0  0  0  0  0  0
   68.8171   30.1291   51.5602 H   0  0  0  0  0  0  0  0  0  0  0  0
   65.4180   30.4230   51.5870 C   0  0  0  0  0  0  0  0  0  0  0  0
   65.1327   29.5184   52.1440 H   0  0  0  0  0  0  0  0  0  0  0  0
   64.4280   31.2640   51.0720 C   0  0  0  0  0  0  0  0  0  0  0  0
   63.3671   31.0245   51.2365 H   0  0  0  0  0  0  0  0  0  0  0  0
   60.8670   33.6260   49.6450 C   0  0  0  0  0  0  0  0  0  0  0  0
   61.2010   34.5405   49.1330 H   0  0  0  0  0  0  0  0  0  0  0  0
   60.6120   33.8198   50.6973 H   0  0  0  0  0  0  0  0  0  0  0  0
   59.6060   33.1090   48.9510 C   0  0  0  0  0  0  0  0  0  0  0  0
   58.8286   33.8870   48.9721 H   0  0  0  0  0  0  0  0  0  0  0  0
   59.2364   32.2137   49.4724 H   0  0  0  0  0  0  0  0  0  0  0  0
   58.8780   34.3540   45.9450 C   0  0  0  0  0  0  0  0  0  0  0  0
   59.5133   35.1749   46.3091 H   0  0  0  0  0  0  0  0  0  0  0  0
  1  2  1  0
  2  3  1  0
  3  4  1  0
  4  5  2  0
  5  6  1  0
  6  7  1  0
  6  8  1  0
  6  9  1  0
  9 10  2  0
 10 11  1  0
 10 12  1  0
 12 13  1  0
 12 14  2  0
 14 15  1  0
 14 16  1  0
 16 17  1  0
 17 18  2  0
 17 19  2  0
 17 20  1  0
 20 21  1  0
 20 22  1  0
 20 23  1  0
 16 24  2  0
 24 25  1  0
  4 26  1  0
 26 27  2  0
 27 28  1  0
 28 29  1  0
 29 30  1  0
 29 31  1  0
 29 32  1  0
 32 33  1  0
 32 34  1  0
 32 35  1  0
 35 36  1  0
 36 37  2  0
 36 38  2  0
 36 39  1  0
 39 40  2  0
 40 41  1  0
 40 42  1  0
 42 43  1  0
 42 44  2  0
 44 45  1  0
 45 46  1  0
 45 47  1  0
 45 48  1  0
 44 49  1  0
 49 50  1  0
 49 51  2  0
 51 52  1  0
 35 53  1  0
 53 54  1  0
 53 55  1  0
 53 56  1  0
 56 57  1  0
 56 58  1  0
 27 59  1  0
 59 60  1  0
 59  2  2  0
 24  9  1  0
 56 28  1  0
 51 39  1  0
M  CHG  1   3  -1
M  END
>  <UniqueID>  (64) 
61

>  <SMILES>  (64) 
Cc1ccc(S(=O)(=O)N2CCN(c3cc[n-]/c(=N\Cc4cccc(S(C)(=O)=O)c4)n3)CC2)cc1

>  <Energy>  (64) 
66.06609098050797

>  <Genealogy>  (64) 
Cc1ccc(S(=O)(=O)N2CCN(c3cc[n-]c(=NCc4cccc(S(C)(=O)=O)c4)n3)CC2)cc1 (protonated)
Cc1ccc(S(=O)(=O)N2CCN(c3cc[n-]/c(=N\Cc4cccc(S(C)(=O)=O)c4)n3)CC2)cc1 (cis-trans isomerization)
Cc1ccc(S(=O)(=O)N2CCN(c3cc[n-]/c(=N\Cc4cccc(S(C)(=O)=O)c4)n3)CC2)cc1 (3D coordinates assigned)
Cc1ccc(S(=O)(=O)N2CCN(c3cc[n-]/c(=N\Cc4cccc(S(C)(=O)=O)c4)n3)CC2)cc1 (nonaromatic ring conformer: 66.06609098050797 kcal/mol)

>  <smiles>  (64) 
Cc1ccc(S(=O)(=O)N2CCN(c3cc[nH]c(=NCc4cccc(S(C)(=O)=O)c4)n3)CC2)cc1

>  <score_type>  (64) 
oracle

>  <origin>  (64) 
adg

>  <m_score__min__energy>  (64) 
-12.32

>  <m_primary>  (64) 
energy

$$$$
64:0
     RDKit          3D

 34 35  0  0  0  0  0  0  0  0999 V2000
   59.1550   34.5670   45.9780 C   0  0  0  0  0  0  0  0  0  0  0  0
   58.5280   33.2920   45.4980 C   0  0  0  0  0  0  0  0  0  0  0  0
   58.5360   32.1500   46.3130 C   0  0  0  0  0  0  0  0  0  0  0  0
   57.9920   30.9490   45.8470 C   0  0  0  0  0  0  0  0  0  0  0  0
   57.4530   30.8710   44.5560 C   0  0  0  0  0  0  0  0  0  0  0  0
   56.7590   29.3600   43.9730 S   0  0  0  0  0  0  0  0  0  0  0  0
   55.8520   29.6360   42.8050 O   0  0  0  0  0  0  0  0  0  0  0  0
   57.8640   28.4570   43.5060 O   0  0  0  0  0  0  0  0  0  0  0  0
   55.8820   28.5630   45.2450 N   0  0  0  0  0  0  0  0  0  0  0  0
   56.7520   27.6250   45.9490 C   0  0  0  0  0  0  0  0  0  0  0  0
   56.0190   26.3290   46.1590 C   0  0  0  0  0  0  0  0  0  0  0  0
   54.7710   26.3150   45.9870 O   0  0  0  0  0  0  0  0  0  0  0  0
   56.6750   25.0920   46.4830 N   0  0  0  0  0  0  0  0  0  0  0  0
   57.1090   24.1690   45.6750 C   0  0  0  0  0  0  0  0  0  0  0  0
   58.3510   23.6420   45.7020 N   0  0  0  0  0  0  0  0  0  0  0  0
   58.4990   22.6670   44.7650 C   0  0  0  0  0  0  0  0  0  0  0  0
   59.7920   21.9470   44.5770 C   0  0  0  0  0  0  0  0  0  0  0  0
   57.3760   22.4300   43.9740 C   0  0  0  0  0  0  0  0  0  0  0  0
   56.1530   23.4620   44.4910 S   0  0  0  0  0  0  0  0  0  0  0  0
   57.4670   32.0050   43.7330 C   0  0  0  0  0  0  0  0  0  0  0  0
   58.0010   33.2100   44.2000 C   0  0  0  0  0  0  0  0  0  0  0  0
   59.1618   34.5809   47.0779 H   0  0  0  0  0  0  0  0  0  0  0  0
   60.1875   34.6313   45.6041 H   0  0  0  0  0  0  0  0  0  0  0  0
   58.5756   35.4240   45.6041 H   0  0  0  0  0  0  0  0  0  0  0  0
   58.9716   32.1995   47.3219 H   0  0  0  0  0  0  0  0  0  0  0  0
   57.9872   30.0615   46.4969 H   0  0  0  0  0  0  0  0  0  0  0  0
   57.6566   27.4427   45.3503 H   0  0  0  0  0  0  0  0  0  0  0  0
   57.0386   28.0482   46.9230 H   0  0  0  0  0  0  0  0  0  0  0  0
   60.2240   21.7065   45.5596 H   0  0  0  0  0  0  0  0  0  0  0  0
   59.6158   21.0171   44.0164 H   0  0  0  0  0  0  0  0  0  0  0  0
   60.4897   22.5865   44.0164 H   0  0  0  0  0  0  0  0  0  0  0  0
   57.3027   21.6977   43.1565 H   0  0  0  0  0  0  0  0  0  0  0  0
   57.0558   31.9470   42.7144 H   0  0  0  0  0  0  0  0  0  0  0  0
   58.0080   34.0960   43.5482 H   0  0  0  0  0  0  0  0  0  0  0  0
  1  2  1  0
  2  3  2  0
  3  4  1  0
  4  5  2  0
  5  6  1  0
  6  7  2  0
  6  8  2  0
  6  9  1  0
  9 10  1  0
 10 11  1  0
 11 12  2  0
 11 13  1  0
 13 14  2  3
 14 15  1  0
 15 16  1  0
 16 17  1  0
 16 18  2  0
 18 19  1  0
  5 20  1  0
 20 21  2  0
 21  2  1  0
 19 14  1  0
  1 22  1  0
  1 23  1  0
  1 24  1  0
  3 25  1  0
  4 26  1  0
 10 27  1  0
 10 28  1  0
 17 29  1  0
 17 30  1  0
 17 31  1  0
 18 32  1  0
 20 33  1  0
 21 34  1  0
M  CHG  2   9  -1  15  -1
M  END
>  <UniqueID>  (65) 
62

>  <SMILES>  (65) 
Cc1ccc(S(=O)(=O)[N-]CC(=O)N=c2[n-]c(C)cs2)cc1

>  <Energy>  (65) 
60.418944213858936

>  <Genealogy>  (65) 
Cc1ccc(S(=O)(=O)[N-]CC(=O)N=c2[n-]c(C)cs2)cc1 (protonated)
Cc1ccc(S(=O)(=O)[N-]CC(=O)N=c2[n-]c(C)cs2)cc1 (3D coordinates assigned)
Cc1ccc(S(=O)(=O)[N-]CC(=O)N=c2[n-]c(C)cs2)cc1 (optimized conformer: 60.418944213858936 kcal/mol)

>  <smiles>  (65) 
Cc1ccc(S(=O)(=O)NCC(=O)N=c2[nH]c(C)cs2)cc1

>  <score_type>  (65) 
oracle

>  <origin>  (65) 
adg

>  <m_score__min__energy>  (65) 
-10.84

>  <m_primary>  (65) 
energy

$$$$
65:0
     RDKit          3D

 61 64  0  0  0  0  0  0  0  0999 V2000
   54.3040   25.0960   45.6110 C   0  0  0  0  0  0  0  0  0  0  0  0
   55.0160   26.2760   45.9700 O   0  0  0  0  0  0  0  0  0  0  0  0
   56.4000   26.3290   46.2080 C   0  0  0  0  0  0  0  0  0  0  0  0
   57.0800   25.2890   46.8710 C   0  0  0  0  0  0  0  0  0  0  0  0
   58.4580   25.3710   47.0880 C   0  0  0  0  0  0  0  0  0  0  0  0
   59.1710   26.4850   46.6470 C   0  0  0  0  0  0  0  0  0  0  0  0
   58.5100   27.5250   45.9890 C   0  0  0  0  0  0  0  0  0  0  0  0
   57.1230   27.4590   45.7690 C   0  0  0  0  0  0  0  0  0  0  0  0
   56.4260   28.5770   45.0370 C   0  0  0  0  0  0  0  0  0  0  0  0
   56.9190   29.8710   45.5010 N   0  0  0  0  0  0  0  0  0  0  0  0
   57.6460   30.7690   44.6480 C   0  0  0  0  0  0  0  0  0  0  0  0
   57.8250   30.4780   43.4340 O   0  0  0  0  0  0  0  0  0  0  0  0
   58.1430   32.0620   45.1650 C   0  0  0  0  0  0  0  0  0  0  0  0
   57.4530   33.2350   44.8140 C   0  0  0  0  0  0  0  0  0  0  0  0
   57.8740   34.4760   45.2940 C   0  0  0  0  0  0  0  0  0  0  0  0
   58.9890   34.5620   46.1260 C   0  0  0  0  0  0  0  0  0  0  0  0
   59.7000   33.4080   46.4750 C   0  0  0  0  0  0  0  0  0  0  0  0
   60.8510   33.5200   47.3210 N   0  0  0  0  0  0  0  0  0  0  0  0
   62.1520   33.8480   46.7330 C   0  0  0  0  0  0  0  0  0  0  0  0
   63.2550   33.0520   47.4380 C   0  0  0  0  0  0  0  0  0  0  0  0
   63.1090   33.1090   48.9000 N   0  0  0  0  0  0  0  0  0  0  0  0
   64.0570   32.4040   49.7160 C   0  0  0  0  0  0  0  0  0  0  0  0
   65.3370   32.8610   49.7900 N   0  0  0  0  0  0  0  0  0  0  0  0
   66.2790   32.2300   50.5370 C   0  0  0  0  0  0  0  0  0  0  0  0
   65.9300   31.0840   51.2570 C   0  0  0  0  0  0  0  0  0  0  0  0
   66.9480   30.3560   52.0740 C   0  0  0  0  0  0  0  0  0  0  0  0
   64.6490   30.6300   51.2000 N   0  0  0  0  0  0  0  0  0  0  0  0
   63.6970   31.2620   50.4610 C   0  0  0  0  0  0  0  0  0  0  0  0
   62.2980   30.7230   50.4740 C   0  0  0  0  0  0  0  0  0  0  0  0
   61.9700   33.8040   49.5150 C   0  0  0  0  0  0  0  0  0  0  0  0
   60.6750   33.4520   48.7770 C   0  0  0  0  0  0  0  0  0  0  0  0
   59.2890   32.1530   45.9870 C   0  0  0  0  0  0  0  0  0  0  0  0
   60.2890   30.7350   46.3250 Cl  0  0  0  0  0  0  0  0  0  0  0  0
   53.9856   24.5684   46.5222 H   0  0  0  0  0  0  0  0  0  0  0  0
   53.4192   25.3681   45.0168 H   0  0  0  0  0  0  0  0  0  0  0  0
   54.9572   24.4401   45.0168 H   0  0  0  0  0  0  0  0  0  0  0  0
   56.5231   24.4070   47.2201 H   0  0  0  0  0  0  0  0  0  0  0  0
   58.9813   24.5549   47.6078 H   0  0  0  0  0  0  0  0  0  0  0  0
   60.2560   26.5451   46.8175 H   0  0  0  0  0  0  0  0  0  0  0  0
   59.0779   28.4005   45.6411 H   0  0  0  0  0  0  0  0  0  0  0  0
   56.6192   28.4805   43.9584 H   0  0  0  0  0  0  0  0  0  0  0  0
   55.3454   28.5143   45.2332 H   0  0  0  0  0  0  0  0  0  0  0  0
   56.6690   30.1740   46.4690 H   0  0  0  0  0  0  0  0  0  0  0  0
   56.5739   33.1744   44.1556 H   0  0  0  0  0  0  0  0  0  0  0  0
   57.3251   35.3876   45.0153 H   0  0  0  0  0  0  0  0  0  0  0  0
   59.3115   35.5410   46.5100 H   0  0  0  0  0  0  0  0  0  0  0  0
   62.1441   33.5926   45.6631 H   0  0  0  0  0  0  0  0  0  0  0  0
   62.3453   34.9239   46.8555 H   0  0  0  0  0  0  0  0  0  0  0  0
   63.2012   32.0022   47.1139 H   0  0  0  0  0  0  0  0  0  0  0  0
   64.2257   33.4948   47.1702 H   0  0  0  0  0  0  0  0  0  0  0  0
   67.3078   32.6173   50.5752 H   0  0  0  0  0  0  0  0  0  0  0  0
   66.7366   30.5072   53.1429 H   0  0  0  0  0  0  0  0  0  0  0  0
   66.9059   29.2820   51.8402 H   0  0  0  0  0  0  0  0  0  0  0  0
   67.9508   30.7431   51.8402 H   0  0  0  0  0  0  0  0  0  0  0  0
   61.9643   30.5944   51.5142 H   0  0  0  0  0  0  0  0  0  0  0  0
   61.6288   31.4277   49.9587 H   0  0  0  0  0  0  0  0  0  0  0  0
   62.2746   29.7515   49.9587 H   0  0  0  0  0  0  0  0  0  0  0  0
   61.8830   33.4979   50.5679 H   0  0  0  0  0  0  0  0  0  0  0  0
   62.1354   34.8897   49.4522 H   0  0  0  0  0  0  0  0  0  0  0  0
   60.3721   32.4313   49.0533 H   0  0  0  0  0  0  0  0  0  0  0  0
   59.9035   34.1808   49.0662 H   0  0  0  0  0  0  0  0  0  0  0  0
  1  2  1  0
  2  3  1  0
  3  4  2  0
  4  5  1  0
  5  6  2  0
  6  7  1  0
  7  8  2  0
  8  9  1  0
  9 10  1  0
 10 11  1  0
 11 12  2  0
 11 13  1  0
 13 14  2  0
 14 15  1  0
 15 16  2  0
 16 17  1  0
 17 18  1  0
 18 19  1  0
 19 20  1  0
 20 21  1  0
 21 22  1  0
 22 23  2  0
 23 24  1  0
 24 25  2  0
 25 26  1  0
 25 27  1  0
 27 28  2  0
 28 29  1  0
 21 30  1  0
 30 31  1  0
 17 32  2  0
 32 33  1  0
  8  3  1  0
 32 13  1  0
 31 18  1  0
 28 22  1  0
  1 34  1  0
  1 35  1  0
  1 36  1  0
  4 37  1  0
  5 38  1  0
  6 39  1  0
  7 40  1  0
  9 41  1  0
  9 42  1  0
 10 43  1  0
 14 44  1  0
 15 45  1  0
 16 46  1  0
 19 47  1  0
 19 48  1  0
 20 49  1  0
 20 50  1  0
 24 51  1  0
 26 52  1  0
 26 53  1  0
 26 54  1  0
 29 55  1  0
 29 56  1  0
 29 57  1  0
 30 58  1  0
 30 59  1  0
 31 60  1  0
 31 61  1  0
M  END
>  <UniqueID>  (66) 
63

>  <SMILES>  (66) 
COc1ccccc1CNC(=O)c1cccc(N2CCN(c3ncc(C)nc3C)CC2)c1Cl

>  <Energy>  (66) 
77.44712594521677

>  <Genealogy>  (66) 
COc1ccccc1CNC(=O)c1cccc(N2CCN(c3ncc(C)nc3C)CC2)c1Cl (3D coordinates assigned)
COc1ccccc1CNC(=O)c1cccc(N2CCN(c3ncc(C)nc3C)CC2)c1Cl (nonaromatic ring conformer: 77.44712594521677 kcal/mol)

>  <smiles>  (66) 
COc1ccccc1CNC(=O)c1cccc(N2CCN(c3ncc(C)nc3C)CC2)c1Cl

>  <score_type>  (66) 
oracle

>  <origin>  (66) 
adg

>  <m_score__min__energy>  (66) 
-9.4800000000000004

>  <m_primary>  (66) 
energy

$$$$
66:0
     RDKit          3D

 45 49  0  0  0  0  0  0  0  0999 V2000
   56.2790   23.9650   44.0030 C   0  0  0  0  0  0  0  0  0  0  0  0
   55.2220   24.3050   44.7360 C   0  0  0  0  0  0  0  0  0  0  0  0
   55.3270   25.1100   45.9670 C   0  0  0  0  0  0  0  0  0  0  0  0
   54.8010   26.2540   45.9790 O   0  0  0  0  0  0  0  0  0  0  0  0
   56.0510   24.6760   47.1260 N   0  0  0  0  0  0  0  0  0  0  0  0
   57.3560   25.1740   47.5500 C   0  0  0  0  0  0  0  0  0  0  0  0
   58.1950   25.5390   46.3270 C   0  0  0  0  0  0  0  0  0  0  0  0
   57.9960   26.9420   45.9710 N   0  0  0  0  0  0  0  0  0  0  0  0
   58.4910   28.0050   46.6410 C   0  0  0  0  0  0  0  0  0  0  0  0
   58.0200   29.1450   46.0200 C   0  0  0  0  0  0  0  0  0  0  0  0
   57.2880   28.6870   44.9570 C   0  0  0  0  0  0  0  0  0  0  0  0
   57.2540   27.3430   44.9480 N   0  0  0  0  0  0  0  0  0  0  0  0
   56.6350   29.6010   43.9710 C   0  0  0  0  0  0  0  0  0  0  0  0
   57.4820   30.8830   43.7950 C   0  0  0  0  0  0  0  0  0  0  0  0
   58.0090   31.4450   45.1140 C   0  0  0  0  0  0  0  0  0  0  0  0
   58.2900   30.5830   46.2170 C   0  0  0  0  0  0  0  0  0  0  0  0
   58.7620   31.1580   47.4280 C   0  0  0  0  0  0  0  0  0  0  0  0
   59.0470   32.5140   47.5220 C   0  0  0  0  0  0  0  0  0  0  0  0
   58.8630   33.3390   46.4030 C   0  0  0  0  0  0  0  0  0  0  0  0
   59.0740   34.6880   46.1380 C   0  0  0  0  0  0  0  0  0  0  0  0
   59.6420   35.6420   46.9780 O   0  0  0  0  0  0  0  0  0  0  0  0
   58.6790   34.9920   44.8820 N   0  0  0  0  0  0  0  0  0  0  0  0
   58.2320   33.8420   44.3330 C   0  0  0  0  0  0  0  0  0  0  0  0
   58.3380   32.8090   45.2440 C   0  0  0  0  0  0  0  0  0  0  0  0
   59.4050   32.8300   48.7610 C   0  0  0  0  0  0  0  0  0  0  0  0
   59.3730   31.5990   49.6070 C   0  0  0  0  0  0  0  0  0  0  0  0
   58.9210   30.5800   48.6130 C   0  0  0  0  0  0  0  0  0  0  0  0
   56.1460   23.3626   43.0923 H   0  0  0  0  0  0  0  0  0  0  0  0
   57.2859   24.2863   44.3077 H   0  0  0  0  0  0  0  0  0  0  0  0
   54.2261   23.9710   44.4094 H   0  0  0  0  0  0  0  0  0  0  0  0
   57.2194   26.0665   48.1783 H   0  0  0  0  0  0  0  0  0  0  0  0
   57.8735   24.3912   48.1240 H   0  0  0  0  0  0  0  0  0  0  0  0
   59.2581   25.3702   46.5537 H   0  0  0  0  0  0  0  0  0  0  0  0
   57.8834   24.9092   45.4806 H   0  0  0  0  0  0  0  0  0  0  0  0
   59.1496   27.9693   47.5213 H   0  0  0  0  0  0  0  0  0  0  0  0
   56.5459   29.0876   43.0022 H   0  0  0  0  0  0  0  0  0  0  0  0
   55.6364   29.8765   44.3410 H   0  0  0  0  0  0  0  0  0  0  0  0
   58.3400   30.6484   43.1478 H   0  0  0  0  0  0  0  0  0  0  0  0
   56.8267   31.6483   43.3535 H   0  0  0  0  0  0  0  0  0  0  0  0
   59.2480   36.5570   47.1220 H   0  0  0  0  0  0  0  0  0  0  0  0
   57.8406   33.7424   43.3098 H   0  0  0  0  0  0  0  0  0  0  0  0
   59.6808   33.8365   49.1087 H   0  0  0  0  0  0  0  0  0  0  0  0
   60.3688   31.3584   50.0075 H   0  0  0  0  0  0  0  0  0  0  0  0
   58.7324   31.6781   50.4977 H   0  0  0  0  0  0  0  0  0  0  0  0
   58.7468   29.5156   48.8290 H   0  0  0  0  0  0  0  0  0  0  0  0
  1  2  2  0
  2  3  1  0
  3  4  2  0
  3  5  1  0
  5  6  1  0
  6  7  1  0
  7  8  1  0
  8  9  1  0
  9 10  2  0
 10 11  1  0
 11 12  2  0
 11 13  1  0
 13 14  1  0
 14 15  1  0
 15 16  2  0
 16 17  1  0
 17 18  1  0
 18 19  1  0
 19 20  2  0
 20 21  1  0
 20 22  1  0
 22 23  1  0
 23 24  2  0
 18 25  2  0
 25 26  1  0
 26 27  1  0
 12  8  1  0
 24 15  1  0
 16 10  1  0
 27 17  2  0
 24 19  1  0
  1 28  1  0
  1 29  1  0
  2 30  1  0
  6 31  1  0
  6 32  1  0
  7 33  1  0
  7 34  1  0
  9 35  1  0
 13 36  1  0
 13 37  1  0
 14 38  1  0
 14 39  1  0
 21 40  1  0
 23 41  1  0
 25 42  1  0
 26 43  1  0
 26 44  1  0
 27 45  1  0
M  CHG  2   5  -1  22  -1
M  END
>  <UniqueID>  (67) 
64

>  <SMILES>  (67) 
C=CC(=O)[N-]CCn1cc2c(n1)CCc1c-2c2c(c3c(O)[n-]cc13)=CCC=2

>  <Energy>  (67) 
145.30052591977807

>  <Genealogy>  (67) 
C=CC(=O)[N-]CCn1cc2c(n1)CCc1c-2c2c(c3c(O)[n-]cc13)=CCC=2 (protonated)
C=CC(=O)[N-]CCn1cc2c(n1)CCc1c-2c2c(c3c(O)[n-]cc13)=CCC=2 (3D coordinates assigned)
C=CC(=O)[N-]CCn1cc2c(n1)CCc1c-2c2c(c3c(O)[n-]cc13)=CCC=2 (nonaromatic ring conformer: 145.30052591977807 kcal/mol)

>  <smiles>  (67) 
C=CC(=O)NCCn1cc2c(n1)CCc1c-2c2c(c3c(O)[nH]cc13)=CCC=2

>  <score_type>  (67) 
oracle

>  <origin>  (67) 
adg

>  <m_score__min__energy>  (67) 
-11.15

>  <m_primary>  (67) 
energy

$$$$
67:0
     RDKit          3D

 61 64  0  0  1  0  0  0  0  0999 V2000
   59.6610   27.6270   45.6740 C   0  0  0  0  0  0  0  0  0  0  0  0
   58.2950   28.0090   45.1880 C   0  0  0  0  0  0  0  0  0  0  0  0
   58.1680   27.4790   43.7540 C   0  0  0  0  0  0  0  0  0  0  0  0
   58.0530   29.4680   45.1650 C   0  0  0  0  0  0  0  0  0  0  0  0
   58.3100   30.2240   46.2950 C   0  0  0  0  0  0  0  0  0  0  0  0
   58.0970   31.5810   46.3140 C   0  0  0  0  0  0  0  0  0  0  0  0
   57.6090   32.2680   45.1960 C   0  0  0  0  0  0  0  0  0  0  0  0
   57.3900   33.7040   45.2490 C   0  0  0  0  0  0  0  0  0  0  0  0
   58.3570   34.6020   45.2860 C   0  0  0  0  0  0  0  0  0  0  0  0
   59.4830   34.4390   46.2120 C   0  0  0  0  0  0  0  0  0  0  0  0
   59.6250   35.2590   47.1520 O   0  0  0  0  0  0  0  0  0  0  0  0
   60.3890   33.3690   46.0340 N   0  0  0  0  0  0  0  0  0  0  0  0
   61.5100   33.1260   46.8720 C   0  0  0  0  0  0  0  0  0  0  0  0
   62.6690   33.8410   46.5540 C   0  0  0  0  0  0  0  0  0  0  0  0
   63.7860   33.6410   47.3390 C   0  0  0  0  0  0  0  0  0  0  0  0
   63.7270   32.7560   48.3960 C   0  0  0  0  0  0  0  0  0  0  0  0
   62.6170   32.0430   48.7350 C   0  0  0  0  0  0  0  0  0  0  0  0
   62.4730   31.0960   49.8540 C   0  0  0  0  0  0  0  0  0  0  0  0
   61.0930   30.8560   50.3080 C   0  0  0  0  0  0  0  0  0  0  0  0
   60.6090   29.5940   50.0940 N   0  0  0  0  0  0  0  0  0  0  0  0
   59.3950   29.2070   50.4020 N   0  0  0  0  0  0  0  0  0  0  0  0
   58.5730   30.1020   50.9640 C   0  0  0  0  0  0  0  0  0  0  0  0
   57.4050   29.7190   51.2560 O   0  0  0  0  0  0  0  0  0  0  0  0
   58.9810   31.4160   51.2220 C   0  0  0  0  0  0  0  0  0  0  0  0
   60.2620   31.7850   50.8840 C   0  0  0  0  0  0  0  0  0  0  0  0
   60.7020   33.1620   51.1840 C   0  0  0  0  0  0  0  0  0  0  0  0
   59.4500   34.0350   50.9690 C   0  0  0  0  0  0  0  0  0  0  0  0
   58.4900   33.6820   52.0550 C   0  0  0  0  0  0  0  0  0  0  0  0
   57.9710   32.2890   51.8450 C   0  0  0  0  0  0  0  0  0  0  0  0
   61.4810   32.2450   47.9390 C   0  0  0  0  0  0  0  0  0  0  0  0
   57.3610   31.4950   44.0840 C   0  0  0  0  0  0  0  0  0  0  0  0
   57.5740   30.1310   44.0580 C   0  0  0  0  0  0  0  0  0  0  0  0
   59.6713   27.6241   46.7739 H   0  0  0  0  0  0  0  0  0  0  0  0
   59.9150   26.6234   45.3023 H   0  0  0  0  0  0  0  0  0  0  0  0
   60.3988   28.3533   45.3023 H   0  0  0  0  0  0  0  0  0  0  0  0
   57.5576   27.5806   45.8827 H   0  0  0  0  0  0  0  0  0  0  0  0
   57.9117   26.4096   43.7797 H   0  0  0  0  0  0  0  0  0  0  0  0
   57.3772   28.0330   43.2270 H   0  0  0  0  0  0  0  0  0  0  0  0
   59.1240   27.6144   43.2270 H   0  0  0  0  0  0  0  0  0  0  0  0
   58.6935   29.7273   47.1984 H   0  0  0  0  0  0  0  0  0  0  0  0
   58.3160   32.1436   47.2335 H   0  0  0  0  0  0  0  0  0  0  0  0
   56.3513   34.0659   45.2589 H   0  0  0  0  0  0  0  0  0  0  0  0
   58.3182   35.4763   44.6196 H   0  0  0  0  0  0  0  0  0  0  0  0
   60.2320   32.7080   45.2400 H   0  0  0  0  0  0  0  0  0  0  0  0
   62.6895   34.5404   45.7053 H   0  0  0  0  0  0  0  0  0  0  0  0
   64.7181   34.1839   47.1234 H   0  0  0  0  0  0  0  0  0  0  0  0
   64.6337   32.6175   49.0033 H   0  0  0  0  0  0  0  0  0  0  0  0
   62.8986   30.1318   49.5389 H   0  0  0  0  0  0  0  0  0  0  0  0
   62.9959   31.5542   50.7064 H   0  0  0  0  0  0  0  0  0  0  0  0
   59.1200   28.2230   50.1990 H   0  0  0  0  0  0  0  0  0  0  0  0
   61.0528   33.2382   52.2238 H   0  0  0  0  0  0  0  0  0  0  0  0
   61.5406   33.4768   50.5455 H   0  0  0  0  0  0  0  0  0  0  0  0
   59.7159   35.1007   51.0296 H   0  0  0  0  0  0  0  0  0  0  0  0
   59.0087   33.8568   49.9773 H   0  0  0  0  0  0  0  0  0  0  0  0
   59.0021   33.7378   53.0269 H   0  0  0  0  0  0  0  0  0  0  0  0
   57.6474   34.3890   52.0376 H   0  0  0  0  0  0  0  0  0  0  0  0
   57.6861   31.8648   52.8191 H   0  0  0  0  0  0  0  0  0  0  0  0
   57.1049   32.3455   51.1692 H   0  0  0  0  0  0  0  0  0  0  0  0
   60.5548   31.6964   48.1652 H   0  0  0  0  0  0  0  0  0  0  0  0
   56.9767   31.9851   43.1773 H   0  0  0  0  0  0  0  0  0  0  0  0
   57.3577   29.5660   43.1393 H   0  0  0  0  0  0  0  0  0  0  0  0
  1  2  1  0
  2  3  1  0
  2  4  1  0
  4  5  2  0
  5  6  1  0
  6  7  2  0
  7  8  1  0
  8  9  2  0
  9 10  1  0
 10 11  2  0
 10 12  1  0
 12 13  1  0
 13 14  2  0
 14 15  1  0
 15 16  2  0
 16 17  1  0
 17 18  1  0
 18 19  1  0
 19 20  2  0
 20 21  1  0
 21 22  1  0
 22 23  2  0
 22 24  1  0
 24 25  2  0
 25 26  1  0
 26 27  1  0
 27 28  1  0
 28 29  1  0
 17 30  2  0
  7 31  1  0
 31 32  2  0
 32  4  1  0
 30 13  1  0
 25 19  1  0
 29 24  1  0
  1 33  1  0
  1 34  1  0
  1 35  1  0
  2 36  1  0
  3 37  1  0
  3 38  1  0
  3 39  1  0
  5 40  1  0
  6 41  1  0
  8 42  1  0
  9 43  1  0
 12 44  1  0
 14 45  1  0
 15 46  1  0
 16 47  1  0
 18 48  1  0
 18 49  1  0
 21 50  1  0
 26 51  1  0
 26 52  1  0
 27 53  1  0
 27 54  1  0
 28 55  1  0
 28 56  1  0
 29 57  1  0
 29 58  1  0
 30 59  1  0
 31 60  1  0
 32 61  1  0
M  END
>  <smiles>  (68) 
CC(C)c1ccc(C=CC(=O)Nc2cccc(Cc3n[nH]c(=O)c4c3CCCC4)c2)cc1

>  <score_type>  (68) 
oracle

>  <origin>  (68) 
adg

>  <m_score__min__energy>  (68) 
-11.48

>  <m_primary>  (68) 
energy

$$$$
68:0
     RDKit          3D

 44 46  0  0  0  0  0  0  0  0999 V2000
   65.3370   32.8820   49.7450 C   0  0  0  0  0  0  0  0  0  0  0  0
   64.1250   32.4520   49.3840 C   0  0  0  0  0  0  0  0  0  0  0  0
   63.4000   32.9180   48.3060 C   0  0  0  0  0  0  0  0  0  0  0  0
   62.2140   32.1960   48.3120 C   0  0  0  0  0  0  0  0  0  0  0  0
   61.0900   32.3180   47.3540 C   0  0  0  0  0  0  0  0  0  0  0  0
   60.3510   31.1760   47.0020 C   0  0  0  0  0  0  0  0  0  0  0  0
   59.2870   31.2670   46.1010 C   0  0  0  0  0  0  0  0  0  0  0  0
   58.9460   32.5020   45.5350 C   0  0  0  0  0  0  0  0  0  0  0  0
   57.5950   32.6330   44.4140 S   0  0  0  0  0  0  0  0  0  0  0  0
   58.0500   32.3890   43.0010 O   0  0  0  0  0  0  0  0  0  0  0  0
   57.0190   34.0180   44.4970 O   0  0  0  0  0  0  0  0  0  0  0  0
   56.3740   31.4800   44.8330 N   0  0  0  0  0  0  0  0  0  0  0  0
   56.5300   30.0790   44.6010 C   0  0  0  0  0  0  0  0  0  0  0  0
   55.7940   29.2520   45.2040 O   0  0  0  0  0  0  0  0  0  0  0  0
   57.5260   29.6250   43.6790 N   0  0  0  0  0  0  0  0  0  0  0  0
   57.7630   28.2080   43.4120 C   0  0  0  0  0  0  0  0  0  0  0  0
   58.5110   27.5790   44.5550 C   0  0  0  0  0  0  0  0  0  0  0  0
   58.0240   26.4170   45.1760 C   0  0  0  0  0  0  0  0  0  0  0  0
   58.7160   25.8520   46.2530 C   0  0  0  0  0  0  0  0  0  0  0  0
   59.8930   26.4440   46.7180 C   0  0  0  0  0  0  0  0  0  0  0  0
   60.3810   27.6040   46.1090 C   0  0  0  0  0  0  0  0  0  0  0  0
   59.6930   28.1710   45.0310 C   0  0  0  0  0  0  0  0  0  0  0  0
   59.6720   33.6460   45.8850 C   0  0  0  0  0  0  0  0  0  0  0  0
   60.7380   33.5570   46.7860 C   0  0  0  0  0  0  0  0  0  0  0  0
   62.2150   31.3500   49.3220 O   0  0  0  0  0  0  0  0  0  0  0  0
   63.3410   31.4740   49.9850 C   0  0  0  0  0  0  0  0  0  0  0  0
   63.6330   30.7450   51.0640 C   0  0  0  0  0  0  0  0  0  0  0  0
   65.8359   32.4467   50.6234 H   0  0  0  0  0  0  0  0  0  0  0  0
   65.8362   33.6714   49.1639 H   0  0  0  0  0  0  0  0  0  0  0  0
   63.6993   33.6986   47.5911 H   0  0  0  0  0  0  0  0  0  0  0  0
   60.6125   30.2013   47.4398 H   0  0  0  0  0  0  0  0  0  0  0  0
   58.7152   30.3657   45.8353 H   0  0  0  0  0  0  0  0  0  0  0  0
   58.1000   30.3330   43.1700 H   0  0  0  0  0  0  0  0  0  0  0  0
   56.7976   27.6964   43.2849 H   0  0  0  0  0  0  0  0  0  0  0  0
   58.3639   28.1124   42.4956 H   0  0  0  0  0  0  0  0  0  0  0  0
   57.0960   25.9499   44.8146 H   0  0  0  0  0  0  0  0  0  0  0  0
   58.3327   24.9402   46.7344 H   0  0  0  0  0  0  0  0  0  0  0  0
   60.4361   25.9971   47.5638 H   0  0  0  0  0  0  0  0  0  0  0  0
   61.3062   28.0710   46.4776 H   0  0  0  0  0  0  0  0  0  0  0  0
   60.0789   29.0840   44.5541 H   0  0  0  0  0  0  0  0  0  0  0  0
   59.4030   34.6197   45.4495 H   0  0  0  0  0  0  0  0  0  0  0  0
   61.3051   34.4611   47.0525 H   0  0  0  0  0  0  0  0  0  0  0  0
   64.5924   30.8897   51.5824 H   0  0  0  0  0  0  0  0  0  0  0  0
   62.9143   29.9994   51.4350 H   0  0  0  0  0  0  0  0  0  0  0  0
  1  2  2  0
  2  3  1  0
  3  4  2  0
  4  5  1  0
  5  6  2  0
  6  7  1  0
  7  8  2  0
  8  9  1  0
  9 10  2  0
  9 11  2  0
  9 12  1  0
 12 13  1  0
 13 14  2  0
 13 15  1  0
 15 16  1  0
 16 17  1  0
 17 18  2  0
 18 19  1  0
 19 20  2  0
 20 21  1  0
 21 22  2  0
  8 23  1  0
 23 24  2  0
  4 25  1  0
 25 26  1  0
 26 27  2  0
 26  2  1  0
 24  5  1  0
 22 17  1  0
  1 28  1  0
  1 29  1  0
  3 30  1  0
  6 31  1  0
  7 32  1  0
 15 33  1  0
 16 34  1  0
 16 35  1  0
 18 36  1  0
 19 37  1  0
 20 38  1  0
 21 39  1  0
 22 40  1  0
 23 41  1  0
 24 42  1  0
 27 43  1  0
 27 44  1  0
M  CHG  1  12  -1
M  END
>  <UniqueID>  (69) 
65

>  <SMILES>  (69) 
C=c1cc(-c2ccc(S(=O)(=O)[N-]C(=O)NCc3ccccc3)cc2)oc1=C

>  <Energy>  (69) 
74.18681803877959

>  <Genealogy>  (69) 
C=c1cc(-c2ccc(S(=O)(=O)[N-]C(=O)NCc3ccccc3)cc2)oc1=C (protonated)
C=c1cc(-c2ccc(S(=O)(=O)[N-]C(=O)NCc3ccccc3)cc2)oc1=C (3D coordinates assigned)
C=c1cc(-c2ccc(S(=O)(=O)[N-]C(=O)NCc3ccccc3)cc2)oc1=C (optimized conformer: 74.18681803877959 kcal/mol)

>  <smiles>  (69) 
C=c1cc(-c2ccc(S(=O)(=O)NC(=O)NCc3ccccc3)cc2)oc1=C

>  <score_type>  (69) 
oracle

>  <origin>  (69) 
adg

>  <m_score__min__energy>  (69) 
-10.24

>  <m_primary>  (69) 
energy

$$$$
69:0
     RDKit          3D

 56 58  0  0  0  0  0  0  0  0999 V2000
   57.4540   28.9870   44.1200 C   0  0  0  0  0  0  0  0  0  0  0  0
   57.3690   28.5100   45.5710 C   0  0  0  0  0  0  0  0  0  0  0  0
   58.7180   28.6090   46.3080 C   0  0  0  0  0  0  0  0  0  0  0  0
   59.4530   29.9430   46.0910 C   0  0  0  0  0  0  0  0  0  0  0  0
   58.9790   30.9930   47.0000 N   0  0  0  0  0  0  0  0  0  0  0  0
   59.3360   31.2270   48.2810 C   0  0  0  0  0  0  0  0  0  0  0  0
   60.3890   30.4800   49.0420 C   0  0  0  0  0  0  0  0  0  0  0  0
   59.6260   29.2520   50.1550 S   0  0  0  0  0  0  0  0  0  0  0  0
   58.6000   30.4410   51.0150 C   0  0  0  0  0  0  0  0  0  0  0  0
   57.3100   30.1310   51.3130 N   0  0  0  0  0  0  0  0  0  0  0  0
   56.5160   31.0050   51.9850 C   0  0  0  0  0  0  0  0  0  0  0  0
   55.0910   30.6430   52.2690 C   0  0  0  0  0  0  0  0  0  0  0  0
   57.0270   32.2500   52.3680 C   0  0  0  0  0  0  0  0  0  0  0  0
   58.3560   32.5510   52.0590 C   0  0  0  0  0  0  0  0  0  0  0  0
   58.9670   33.8330   52.5220 C   0  0  0  0  0  0  0  0  0  0  0  0
   59.1180   31.6360   51.4000 N   0  0  0  0  0  0  0  0  0  0  0  0
   58.6990   32.3050   48.7790 N   0  0  0  0  0  0  0  0  0  0  0  0
   57.9170   32.7720   47.8180 N   0  0  0  0  0  0  0  0  0  0  0  0
   58.0970   31.9810   46.7450 C   0  0  0  0  0  0  0  0  0  0  0  0
   57.2580   32.2440   45.1780 S   0  0  0  0  0  0  0  0  0  0  0  0
   57.5510   34.0470   45.1500 C   0  0  0  0  0  0  0  0  0  0  0  0
   59.0180   34.3400   45.1950 C   0  0  0  0  0  0  0  0  0  0  0  0
   59.6070   34.7270   44.1500 O   0  0  0  0  0  0  0  0  0  0  0  0
   59.7530   34.1420   46.4100 N   0  0  0  0  0  0  0  0  0  0  0  0
   61.2130   34.1460   46.4450 C   0  0  0  0  0  0  0  0  0  0  0  0
   61.6910   33.8450   47.8320 C   0  0  0  0  0  0  0  0  0  0  0  0
   62.9860   33.5250   48.1860 C   0  0  0  0  0  0  0  0  0  0  0  0
   62.9640   33.3650   49.5550 C   0  0  0  0  0  0  0  0  0  0  0  0
   61.6610   33.5980   49.9490 C   0  0  0  0  0  0  0  0  0  0  0  0
   60.9260   33.8800   48.8980 O   0  0  0  0  0  0  0  0  0  0  0  0
   57.6469   30.0698   44.1007 H   0  0  0  0  0  0  0  0  0  0  0  0
   58.2723   28.4595   43.6080 H   0  0  0  0  0  0  0  0  0  0  0  0
   56.5039   28.7747   43.6080 H   0  0  0  0  0  0  0  0  0  0  0  0
   56.6311   29.1289   46.1025 H   0  0  0  0  0  0  0  0  0  0  0  0
   57.0749   27.4502   45.5562 H   0  0  0  0  0  0  0  0  0  0  0  0
   58.5333   28.4871   47.3855 H   0  0  0  0  0  0  0  0  0  0  0  0
   59.3640   27.8191   45.8971 H   0  0  0  0  0  0  0  0  0  0  0  0
   60.5284   29.7864   46.2612 H   0  0  0  0  0  0  0  0  0  0  0  0
   59.2539   30.2738   45.0610 H   0  0  0  0  0  0  0  0  0  0  0  0
   61.0502   29.9625   48.3314 H   0  0  0  0  0  0  0  0  0  0  0  0
   60.9660   31.1961   49.6456 H   0  0  0  0  0  0  0  0  0  0  0  0
   54.9327   30.6028   53.3568 H   0  0  0  0  0  0  0  0  0  0  0  0
   54.4256   31.4006   51.8294 H   0  0  0  0  0  0  0  0  0  0  0  0
   54.8679   29.6596   51.8294 H   0  0  0  0  0  0  0  0  0  0  0  0
   56.3959   32.9763   52.9010 H   0  0  0  0  0  0  0  0  0  0  0  0
   58.9787   33.8575   53.6217 H   0  0  0  0  0  0  0  0  0  0  0  0
   59.9969   33.9064   52.1426 H   0  0  0  0  0  0  0  0  0  0  0  0
   58.3754   34.6792   52.1426 H   0  0  0  0  0  0  0  0  0  0  0  0
   57.1257   34.4686   44.2273 H   0  0  0  0  0  0  0  0  0  0  0  0
   57.0705   34.4994   46.0301 H   0  0  0  0  0  0  0  0  0  0  0  0
   59.2320   33.9200   47.2890 H   0  0  0  0  0  0  0  0  0  0  0  0
   61.5964   33.3815   45.7532 H   0  0  0  0  0  0  0  0  0  0  0  0
   61.5795   35.1383   46.1432 H   0  0  0  0  0  0  0  0  0  0  0  0
   63.8528   33.4198   47.5169 H   0  0  0  0  0  0  0  0  0  0  0  0
   63.8135   33.1042   50.2033 H   0  0  0  0  0  0  0  0  0  0  0  0
   61.2947   33.5541   50.9853 H   0  0  0  0  0  0  0  0  0  0  0  0
  1  2  1  0
  2  3  1  0
  3  4  1  0
  4  5  1  0
  5  6  1  0
  6  7  1  0
  7  8  1  0
  8  9  1  0
  9 10  2  0
 10 11  1  0
 11 12  1  0
 11 13  2  0
 13 14  1  0
 14 15  1  0
 14 16  2  0
  6 17  2  0
 17 18  1  0
 18 19  2  0
 19 20  1  0
 20 21  1  0
 21 22  1  0
 22 23  2  0
 22 24  1  0
 24 25  1  0
 25 26  1  0
 26 27  2  0
 27 28  1  0
 28 29  2  0
 29 30  1  0
 19  5  1  0
 30 26  1  0
 16  9  1  0
  1 31  1  0
  1 32  1  0
  1 33  1  0
  2 34  1  0
  2 35  1  0
  3 36  1  0
  3 37  1  0
  4 38  1  0
  4 39  1  0
  7 40  1  0
  7 41  1  0
 12 42  1  0
 12 43  1  0
 12 44  1  0
 13 45  1  0
 15 46  1  0
 15 47  1  0
 15 48  1  0
 21 49  1  0
 21 50  1  0
 24 51  1  0
 25 52  1  0
 25 53  1  0
 27 54  1  0
 28 55  1  0
 29 56  1  0
M  END
>  <UniqueID>  (70) 
66

>  <SMILES>  (70) 
CCCCn1c(CSc2nc(C)cc(C)n2)nnc1SCC(=O)NCc1ccco1

>  <Energy>  (70) 
93.96805296452247

>  <Genealogy>  (70) 
CCCCn1c(CSc2nc(C)cc(C)n2)nnc1SCC(=O)NCc1ccco1 (3D coordinates assigned)
CCCCn1c(CSc2nc(C)cc(C)n2)nnc1SCC(=O)NCc1ccco1 (optimized conformer: 93.96805296452247 kcal/mol)

>  <smiles>  (70) 
CCCCn1c(CSc2nc(C)cc(C)n2)nnc1SCC(=O)NCc1ccco1

>  <score_type>  (70) 
oracle

>  <origin>  (70) 
adg

>  <m_score__min__energy>  (70) 
-8.1799999999999997

>  <m_primary>  (70) 
energy

$$$$
70:0
     RDKit          3D

 58 61  0  0  0  0  0  0  0  0999 V2000
   54.6880   27.0920   46.7070 H   0  0  0  0  0  0  0  0  0  0  0  0
   54.7710   26.3310   45.9970 N   0  0  0  0  0  0  0  0  0  0  0  0
   56.3090   25.5800   46.2380 S   0  0  0  0  0  0  0  0  0  0  0  0
   56.5970   24.6400   45.0980 O   0  0  0  0  0  0  0  0  0  0  0  0
   56.2910   24.7950   47.5230 O   0  0  0  0  0  0  0  0  0  0  0  0
   57.5620   26.8150   46.3060 C   0  0  0  0  0  0  0  0  0  0  0  0
   58.7570   26.5860   47.0040 C   0  0  0  0  0  0  0  0  0  0  0  0
   58.9147   25.6298   47.5244 H   0  0  0  0  0  0  0  0  0  0  0  0
   59.7470   27.5710   47.0390 C   0  0  0  0  0  0  0  0  0  0  0  0
   60.6805   27.3902   47.5922 H   0  0  0  0  0  0  0  0  0  0  0  0
   59.5560   28.7850   46.3740 C   0  0  0  0  0  0  0  0  0  0  0  0
   60.3462   29.5499   46.3968 H   0  0  0  0  0  0  0  0  0  0  0  0
   58.3600   29.0370   45.6750 C   0  0  0  0  0  0  0  0  0  0  0  0
   58.1660   30.3130   44.9380 C   0  0  0  0  0  0  0  0  0  0  0  0
   58.6950   31.5110   45.4560 C   0  0  0  0  0  0  0  0  0  0  0  0
   59.2624   31.4896   46.3981 H   0  0  0  0  0  0  0  0  0  0  0  0
   58.5090   32.7350   44.7870 C   0  0  0  0  0  0  0  0  0  0  0  0
   59.1030   33.9970   45.3070 C   0  0  0  0  0  0  0  0  0  0  0  0
   59.2450   34.9840   44.5340 O   0  0  0  0  0  0  0  0  0  0  0  0
   59.6110   34.1080   46.6430 N   0  0  0  0  0  0  0  0  0  0  0  0
   60.1490   33.1580   47.3560 C   0  0  0  0  0  0  0  0  0  0  0  0
   61.4980   32.9910   47.3020 N   0  0  0  0  0  0  0  0  0  0  0  0
   62.1420   32.0430   48.0350 C   0  0  0  0  0  0  0  0  0  0  0  0
   63.2348   31.9411   47.9609 H   0  0  0  0  0  0  0  0  0  0  0  0
   61.4210   31.2000   48.8800 C   0  0  0  0  0  0  0  0  0  0  0  0
   61.9398   30.4380   49.4802 H   0  0  0  0  0  0  0  0  0  0  0  0
   60.0310   31.3340   48.9560 C   0  0  0  0  0  0  0  0  0  0  0  0
   59.2530   30.4540   49.8400 C   0  0  0  0  0  0  0  0  0  0  0  0
   59.0860   29.2550   49.4900 O   0  0  0  0  0  0  0  0  0  0  0  0
   58.7130   30.9200   51.0990 N   0  0  0  0  0  0  0  0  0  0  0  0
   58.1410   29.9280   52.0230 C   0  0  0  0  0  0  0  0  0  0  0  0
   57.3938   29.3285   51.4823 H   0  0  0  0  0  0  0  0  0  0  0  0
   58.9621   29.2983   52.3962 H   0  0  0  0  0  0  0  0  0  0  0  0
   57.4660   30.5890   53.2290 C   0  0  0  0  0  0  0  0  0  0  0  0
   56.8053   29.8569   53.7163 H   0  0  0  0  0  0  0  0  0  0  0  0
   58.2486   30.9279   53.9238 H   0  0  0  0  0  0  0  0  0  0  0  0
   56.6320   31.8110   52.8000 C   0  0  0  0  0  0  0  0  0  0  0  0
   56.2245   32.2635   53.7161 H   0  0  0  0  0  0  0  0  0  0  0  0
   55.4950   31.4190   51.9470 N   0  0  0  0  0  0  0  0  0  0  0  0
   55.7280   31.6320   50.9480 H   0  0  0  0  0  0  0  0  0  0  0  0
   55.2980   30.3940   52.0290 H   0  0  0  0  0  0  0  0  0  0  0  0
   54.6400   31.9630   52.2080 H   0  0  0  0  0  0  0  0  0  0  0  0
   57.5120   32.8740   52.0890 C   0  0  0  0  0  0  0  0  0  0  0  0
   56.9334   33.2982   51.2551 H   0  0  0  0  0  0  0  0  0  0  0  0
   57.7776   33.6227   52.8499 H   0  0  0  0  0  0  0  0  0  0  0  0
   58.8380   32.3270   51.5270 C   0  0  0  0  0  0  0  0  0  0  0  0
   59.1367   32.9371   50.6618 H   0  0  0  0  0  0  0  0  0  0  0  0
   59.5936   32.3758   52.3250 H   0  0  0  0  0  0  0  0  0  0  0  0
   59.3870   32.3230   48.2000 C   0  0  0  0  0  0  0  0  0  0  0  0
   58.2959   32.4472   48.2643 H   0  0  0  0  0  0  0  0  0  0  0  0
   57.7790   32.7460   43.5860 C   0  0  0  0  0  0  0  0  0  0  0  0
   57.6113   33.6968   43.0590 H   0  0  0  0  0  0  0  0  0  0  0  0
   57.2650   31.5620   43.0560 C   0  0  0  0  0  0  0  0  0  0  0  0
   56.7016   31.5846   42.1115 H   0  0  0  0  0  0  0  0  0  0  0  0
   57.4620   30.3490   43.7180 C   0  0  0  0  0  0  0  0  0  0  0  0
   56.9980   29.2100   43.1430 F   0  0  0  0  0  0  0  0  0  0  0  0
   57.3630   28.0420   45.6540 C   0  0  0  0  0  0  0  0  0  0  0  0
   56.4189   28.2285   45.1212 H   0  0  0  0  0  0  0  0  0  0  0  0
  1  2  1  0
  2  3  1  0
  3  4  2  0
  3  5  2  0
  3  6  1  0
  6  7  2  0
  7  8  1  0
  7  9  1  0
  9 10  1  0
  9 11  2  0
 11 12  1  0
 11 13  1  0
 13 14  1  0
 14 15  2  0
 15 16  1  0
 15 17  1  0
 17 18  1  0
 18 19  2  0
 18 20  1  0
 20 21  2  0
 21 22  1  0
 22 23  1  0
 23 24  1  0
 23 25  2  0
 25 26  1  0
 25 27  1  0
 27 28  1  0
 28 29  2  0
 28 30  1  0
 30 31  1  0
 31 32  1  0
 31 33  1  0
 31 34  1  0
 34 35  1  0
 34 36  1  0
 34 37  1  0
 37 38  1  0
 37 39  1  0
 39 40  1  0
 39 41  1  0
 39 42  1  0
 37 43  1  0
 43 44  1  0
 43 45  1  0
 43 46  1  0
 46 47  1  0
 46 48  1  0
 27 49  2  0
 49 50  1  0
 17 51  2  0
 51 52  1  0
 51 53  1  0
 53 54  1  0
 53 55  2  0
 55 56  1  0
 13 57  2  0
 57 58  1  0
 57  6  1  0
 55 14  1  0
 49 21  1  0
 46 30  1  0
M  CHG  3   2  -1  22  -1  39   1
M  END
>  <UniqueID>  (71) 
67

>  <SMILES>  (71) 
[NH-]S(=O)(=O)c1cccc(-c2cc(C(=O)/N=c3\cc(C(=O)N4CCC([NH3+])CC4)cc[n-]3)ccc2F)c1

>  <Energy>  (71) 
84.78058290424235

>  <Genealogy>  (71) 
[NH-]S(=O)(=O)c1cccc(-c2cc(C(=O)N=c3cc(C(=O)N4CCC([NH3+])CC4)cc[n-]3)ccc2F)c1 (protonated)
[NH-]S(=O)(=O)c1cccc(-c2cc(C(=O)/N=c3\cc(C(=O)N4CCC([NH3+])CC4)cc[n-]3)ccc2F)c1 (cis-trans isomerization)
[NH-]S(=O)(=O)c1cccc(-c2cc(C(=O)/N=c3\cc(C(=O)N4CCC([NH3+])CC4)cc[n-]3)ccc2F)c1 (3D coordinates assigned)
[NH-]S(=O)(=O)c1cccc(-c2cc(C(=O)/N=c3\cc(C(=O)N4CCC([NH3+])CC4)cc[n-]3)ccc2F)c1 (nonaromatic ring conformer: 84.78058290424235 kcal/mol)

>  <smiles>  (71) 
NC1CCN(C(=O)c2cc[nH]c(=NC(=O)c3ccc(F)c(-c4cccc(S(N)(=O)=O)c4)c3)c2)CC1

>  <score_type>  (71) 
oracle

>  <origin>  (71) 
adg

>  <m_score__min__energy>  (71) 
-13.06

>  <m_primary>  (71) 
energy

$$$$
71:0
     RDKit          3D

 51 54  0  0  1  0  0  0  0  0999 V2000
   64.4990   32.0900   48.8750 N   0  0  0  0  0  0  0  0  0  0  0  0
   64.6880   33.0050   49.9390 C   0  0  0  0  0  0  0  0  0  0  0  0
   65.8970   33.1680   50.5940 C   0  0  0  0  0  0  0  0  0  0  0  0
   66.0350   34.0740   51.6280 C   0  0  0  0  0  0  0  0  0  0  0  0
   64.9650   34.8620   52.0550 C   0  0  0  0  0  0  0  0  0  0  0  0
   63.7650   34.6920   51.3950 C   0  0  0  0  0  0  0  0  0  0  0  0
   63.6270   33.7780   50.3530 C   0  0  0  0  0  0  0  0  0  0  0  0
   62.3310   33.7070   49.7610 N   0  0  0  0  0  0  0  0  0  0  0  0
   62.1370   33.8270   48.3720 C   0  0  0  0  0  0  0  0  0  0  0  0
   63.1460   34.0010   47.6350 O   0  0  0  0  0  0  0  0  0  0  0  0
   60.8330   33.7610   47.7170 C   0  0  0  0  0  0  0  0  0  0  0  0
   60.7490   34.2130   46.4150 C   0  0  0  0  0  0  0  0  0  0  0  0
   59.5260   34.1750   45.7410 C   0  0  0  0  0  0  0  0  0  0  0  0
   58.3770   33.6950   46.3310 C   0  0  0  0  0  0  0  0  0  0  0  0
   57.1000   33.6570   45.6190 C   0  0  0  0  0  0  0  0  0  0  0  0
   57.2420   32.7720   44.4690 N   0  0  0  0  0  0  0  0  0  0  0  0
   57.0290   31.5010   44.5960 C   0  0  0  0  0  0  0  0  0  0  0  0
   57.9430   30.6620   45.2390 C   0  0  0  0  0  0  0  0  0  0  0  0
   57.7140   29.3030   45.3730 C   0  0  0  0  0  0  0  0  0  0  0  0
   58.6540   28.4340   46.0350 C   0  0  0  0  0  0  0  0  0  0  0  0
   58.9680   27.1880   45.5340 C   0  0  0  0  0  0  0  0  0  0  0  0
   59.8790   26.3400   46.1750 C   0  0  0  0  0  0  0  0  0  0  0  0
   60.5040   26.7170   47.3370 C   0  0  0  0  0  0  0  0  0  0  0  0
   60.2000   27.9570   47.8470 C   0  0  0  0  0  0  0  0  0  0  0  0
   59.2990   28.7940   47.2130 C   0  0  0  0  0  0  0  0  0  0  0  0
   56.5630   28.8420   44.8490 N   0  0  0  0  0  0  0  0  0  0  0  0
   55.6750   29.6670   44.2210 C   0  0  0  0  0  0  0  0  0  0  0  0
   55.9030   30.9860   44.0940 N   0  0  0  0  0  0  0  0  0  0  0  0
   58.4840   33.2450   47.6430 C   0  0  0  0  0  0  0  0  0  0  0  0
   59.7090   33.2870   48.3100 C   0  0  0  0  0  0  0  0  0  0  0  0
   64.2850   31.0800   49.1290 H   0  0  0  0  0  0  0  0  0  0  0  0
   64.5630   32.3800   47.8710 H   0  0  0  0  0  0  0  0  0  0  0  0
   66.7637   32.5650   50.2854 H   0  0  0  0  0  0  0  0  0  0  0  0
   67.0104   34.1766   52.1261 H   0  0  0  0  0  0  0  0  0  0  0  0
   65.0730   35.5838   52.8780 H   0  0  0  0  0  0  0  0  0  0  0  0
   62.8957   35.2934   51.6994 H   0  0  0  0  0  0  0  0  0  0  0  0
   61.5030   33.5630   50.3810 H   0  0  0  0  0  0  0  0  0  0  0  0
   61.6445   34.6027   45.9088 H   0  0  0  0  0  0  0  0  0  0  0  0
   59.4786   34.5405   44.7046 H   0  0  0  0  0  0  0  0  0  0  0  0
   56.3133   33.2757   46.2866 H   0  0  0  0  0  0  0  0  0  0  0  0
   56.8217   34.6680   45.2866 H   0  0  0  0  0  0  0  0  0  0  0  0
   58.8684   31.0924   45.6493 H   0  0  0  0  0  0  0  0  0  0  0  0
   58.4885   26.8506   44.6033 H   0  0  0  0  0  0  0  0  0  0  0  0
   60.0977   25.3539   45.7394 H   0  0  0  0  0  0  0  0  0  0  0  0
   61.2210   26.0524   47.8412 H   0  0  0  0  0  0  0  0  0  0  0  0
   60.6827   28.2903   48.7776 H   0  0  0  0  0  0  0  0  0  0  0  0
   59.0856   29.7780   47.6561 H   0  0  0  0  0  0  0  0  0  0  0  0
   56.2870   27.8500   44.8880 H   0  0  0  0  0  0  0  0  0  0  0  0
   54.7485   29.2415   43.8080 H   0  0  0  0  0  0  0  0  0  0  0  0
   57.5953   32.8527   48.1591 H   0  0  0  0  0  0  0  0  0  0  0  0
   59.7647   32.9250   49.3472 H   0  0  0  0  0  0  0  0  0  0  0  0
  1  2  1  0
  2  3  2  0
  3  4  1  0
  4  5  2  0
  5  6  1  0
  6  7  2  0
  7  8  1  0
  8  9  1  0
  9 10  2  0
  9 11  1  0
 11 12  2  0
 12 13  1  0
 13 14  2  0
 14 15  1  0
 15 16  1  0
 16 17  2  0
 17 18  1  0
 18 19  2  0
 19 20  1  0
 20 21  2  0
 21 22  1  0
 22 23  2  0
 23 24  1  0
 24 25  2  0
 19 26  1  0
 26 27  1  0
 27 28  2  0
 14 29  1  0
 29 30  2  0
  7  2  1  0
 30 11  1  0
 28 17  1  0
 25 20  1  0
  1 31  1  0
  1 32  1  0
  3 33  1  0
  4 34  1  0
  5 35  1  0
  6 36  1  0
  8 37  1  0
 12 38  1  0
 13 39  1  0
 15 40  1  0
 15 41  1  0
 18 42  1  0
 21 43  1  0
 22 44  1  0
 23 45  1  0
 24 46  1  0
 25 47  1  0
 26 48  1  0
 27 49  1  0
 29 50  1  0
 30 51  1  0
M  END
>  <smiles>  (72) 
Nc1ccccc1NC(=O)c1ccc(CN=c2cc(-c3ccccc3)[nH]cn2)cc1

>  <score_type>  (72) 
oracle

>  <origin>  (72) 
adg

>  <m_score__min__energy>  (72) 
-9.4399999999999995

>  <m_primary>  (72) 
energy

$$$$
72:0
     RDKit          3D

 67 70  0  0  0  0  0  0  0  0999 V2000
   56.6310   22.4110   43.0720 C   0  0  0  0  0  0  0  0  0  0  0  0
   55.4030   23.2110   43.4980 C   0  0  0  0  0  0  0  0  0  0  0  0
   55.8090   24.4320   44.1920 N   0  0  0  0  0  0  0  0  0  0  0  0
   55.3010   24.7850   45.4880 C   0  0  0  0  0  0  0  0  0  0  0  0
   54.4840   24.0270   46.0740 O   0  0  0  0  0  0  0  0  0  0  0  0
   55.6480   26.0300   46.1020 N   0  0  0  0  0  0  0  0  0  0  0  0
   56.9320   26.6650   46.0430 C   0  0  0  0  0  0  0  0  0  0  0  0
   58.1210   25.9220   46.1140 C   0  0  0  0  0  0  0  0  0  0  0  0
   59.3570   26.5720   46.0580 C   0  0  0  0  0  0  0  0  0  0  0  0
   59.4140   27.9630   45.9510 C   0  0  0  0  0  0  0  0  0  0  0  0
   58.2350   28.7190   45.9430 C   0  0  0  0  0  0  0  0  0  0  0  0
   58.3130   30.4840   45.8590 S   0  0  0  0  0  0  0  0  0  0  0  0
   58.2550   31.0220   47.2620 O   0  0  0  0  0  0  0  0  0  0  0  0
   59.6390   30.8920   45.2830 O   0  0  0  0  0  0  0  0  0  0  0  0
   57.0140   31.2080   44.9100 N   0  0  0  0  0  0  0  0  0  0  0  0
   57.0020   30.6470   43.5510 C   0  0  0  0  0  0  0  0  0  0  0  0
   57.7060   31.6320   42.6180 C   0  0  0  0  0  0  0  0  0  0  0  0
   57.9850   32.8650   43.4560 C   0  0  0  0  0  0  0  0  0  0  0  0
   57.1280   32.6640   44.7020 C   0  0  2  0  0  0  0  0  0  0  0  0
   57.5270   33.4450   45.9400 C   0  0  0  0  0  0  0  0  0  0  0  0
   56.7470   33.4490   46.9290 O   0  0  0  0  0  0  0  0  0  0  0  0
   58.7560   34.1750   46.0340 N   0  0  0  0  0  0  0  0  0  0  0  0
   59.8350   33.8650   46.9230 C   0  0  0  0  0  0  0  0  0  0  0  0
   61.1660   33.8330   46.4760 C   0  0  0  0  0  0  0  0  0  0  0  0
   62.1970   33.5290   47.3690 C   0  0  0  0  0  0  0  0  0  0  0  0
   61.9070   33.2620   48.7090 C   0  0  0  0  0  0  0  0  0  0  0  0
   60.5820   33.3100   49.1670 C   0  0  0  0  0  0  0  0  0  0  0  0
   60.2050   32.9660   50.8550 S   0  0  0  0  0  0  0  0  0  0  0  0
   61.1760   33.7120   51.7270 O   0  0  0  0  0  0  0  0  0  0  0  0
   58.8260   33.4760   51.1650 O   0  0  0  0  0  0  0  0  0  0  0  0
   60.2830   31.2560   51.2270 N   0  0  0  0  0  0  0  0  0  0  0  0
   59.3780   30.8790   52.3280 C   0  0  0  0  0  0  0  0  0  0  0  0
   57.9210   30.6400   51.8630 C   0  0  0  0  0  0  0  0  0  0  0  0
   57.7790   30.5970   50.4560 O   0  0  0  0  0  0  0  0  0  0  0  0
   58.7610   29.7530   49.9040 C   0  0  0  0  0  0  0  0  0  0  0  0
   60.1500   30.3990   50.0290 C   0  0  0  0  0  0  0  0  0  0  0  0
   59.5510   33.6190   48.2700 C   0  0  0  0  0  0  0  0  0  0  0  0
   56.9950   28.0620   45.9800 C   0  0  0  0  0  0  0  0  0  0  0  0
   57.1686   22.0608   43.9655 H   0  0  0  0  0  0  0  0  0  0  0  0
   56.3145   21.5453   42.4717 H   0  0  0  0  0  0  0  0  0  0  0  0
   57.2950   23.0503   42.4717 H   0  0  0  0  0  0  0  0  0  0  0  0
   54.8167   23.4781   42.6065 H   0  0  0  0  0  0  0  0  0  0  0  0
   54.7947   22.5976   44.1790 H   0  0  0  0  0  0  0  0  0  0  0  0
   56.4220   25.1010   43.6770 H   0  0  0  0  0  0  0  0  0  0  0  0
   58.0798   24.8273   46.2138 H   0  0  0  0  0  0  0  0  0  0  0  0
   60.2872   25.9863   46.0983 H   0  0  0  0  0  0  0  0  0  0  0  0
   60.3886   28.4670   45.8727 H   0  0  0  0  0  0  0  0  0  0  0  0
   57.5317   29.6830   43.5420 H   0  0  0  0  0  0  0  0  0  0  0  0
   55.9664   30.4840   43.2178 H   0  0  0  0  0  0  0  0  0  0  0  0
   58.6468   31.2011   42.2450 H   0  0  0  0  0  0  0  0  0  0  0  0
   57.0887   31.8701   41.7392 H   0  0  0  0  0  0  0  0  0  0  0  0
   59.0511   32.9257   43.7200 H   0  0  0  0  0  0  0  0  0  0  0  0
   57.7501   33.7999   42.9261 H   0  0  0  0  0  0  0  0  0  0  0  0
   56.1412   33.1135   44.5169 H   0  0  0  0  0  0  0  0  0  0  0  0
   61.3971   34.0474   45.4221 H   0  0  0  0  0  0  0  0  0  0  0  0
   63.2385   33.4999   47.0161 H   0  0  0  0  0  0  0  0  0  0  0  0
   62.7199   33.0134   49.4071 H   0  0  0  0  0  0  0  0  0  0  0  0
   59.7543   29.9539   52.7891 H   0  0  0  0  0  0  0  0  0  0  0  0
   59.3613   31.7174   53.0399 H   0  0  0  0  0  0  0  0  0  0  0  0
   57.5757   29.6814   52.2775 H   0  0  0  0  0  0  0  0  0  0  0  0
   57.3222   31.4894   52.2235 H   0  0  0  0  0  0  0  0  0  0  0  0
   58.7576   28.7927   50.4406 H   0  0  0  0  0  0  0  0  0  0  0  0
   58.5362   29.5903   48.8396 H   0  0  0  0  0  0  0  0  0  0  0  0
   60.9044   29.6003   50.0838 H   0  0  0  0  0  0  0  0  0  0  0  0
   60.2949   31.0409   49.1475 H   0  0  0  0  0  0  0  0  0  0  0  0
   58.5119   33.6684   48.6275 H   0  0  0  0  0  0  0  0  0  0  0  0
   56.0654   28.6497   45.9593 H   0  0  0  0  0  0  0  0  0  0  0  0
  1  2  1  0
  2  3  1  0
  3  4  1  0
  4  5  2  0
  4  6  1  0
  6  7  1  0
  7  8  2  0
  8  9  1  0
  9 10  2  0
 10 11  1  0
 11 12  1  0
 12 13  2  0
 12 14  2  0
 12 15  1  0
 15 16  1  0
 16 17  1  0
 17 18  1  0
 18 19  1  0
 19 20  1  0
 20 21  2  0
 20 22  1  0
 22 23  1  0
 23 24  2  0
 24 25  1  0
 25 26  2  0
 26 27  1  0
 27 28  1  0
 28 29  2  0
 28 30  2  0
 28 31  1  0
 31 32  1  0
 32 33  1  0
 33 34  1  0
 34 35  1  0
 35 36  1  0
 27 37  2  0
 11 38  2  0
 38  7  1  0
 19 15  1  0
 37 23  1  0
 36 31  1  0
  1 39  1  0
  1 40  1  0
  1 41  1  0
  2 42  1  0
  2 43  1  0
  3 44  1  0
  8 45  1  0
  9 46  1  0
 10 47  1  0
 16 48  1  0
 16 49  1  0
 17 50  1  0
 17 51  1  0
 18 52  1  0
 18 53  1  0
 19 54  1  6
 24 55  1  0
 25 56  1  0
 26 57  1  0
 32 58  1  0
 32 59  1  0
 33 60  1  0
 33 61  1  0
 35 62  1  0
 35 63  1  0
 36 64  1  0
 36 65  1  0
 37 66  1  0
 38 67  1  0
M  CHG  2   6  -1  22  -1
M  END
>  <UniqueID>  (73) 
68

>  <SMILES>  (73) 
CCNC(=O)[N-]c1cccc(S(=O)(=O)N2CCC[C@@H]2C(=O)[N-]c2cccc(S(=O)(=O)N3CCOCC3)c2)c1

>  <Energy>  (73) 
90.98940518850155

>  <Genealogy>  (73) 
CCNC(=O)[N-]c1cccc(S(=O)(=O)N2CCCC2C(=O)[N-]c2cccc(S(=O)(=O)N3CCOCC3)c2)c1 (protonated)
CCNC(=O)[N-]c1cccc(S(=O)(=O)N2CCC[C@@H]2C(=O)[N-]c2cccc(S(=O)(=O)N3CCOCC3)c2)c1 (chirality)
CCNC(=O)[N-]c1cccc(S(=O)(=O)N2CCC[C@@H]2C(=O)[N-]c2cccc(S(=O)(=O)N3CCOCC3)c2)c1 (3D coordinates assigned)
CCNC(=O)[N-]c1cccc(S(=O)(=O)N2CCC[C@@H]2C(=O)[N-]c2cccc(S(=O)(=O)N3CCOCC3)c2)c1 (nonaromatic ring conformer: 90.98940518850155 kcal/mol)

>  <smiles>  (73) 
CCNC(=O)Nc1cccc(S(=O)(=O)N2CCCC2C(=O)Nc2cccc(S(=O)(=O)N3CCOCC3)c2)c1

>  <score_type>  (73) 
oracle

>  <origin>  (73) 
adg

>  <m_score__min__energy>  (73) 
-12.73

>  <m_primary>  (73) 
energy

$$$$
73:0
     RDKit          3D

 42 44  0  0  0  0  0  0  0  0999 V2000
   62.7987   34.6184   49.3332 H   0  0  0  0  0  0  0  0  0  0  0  0
   61.8170   34.1440   49.4790 C   0  0  0  0  0  0  0  0  0  0  0  0
   61.5700   33.4330   50.6060 N   0  0  0  0  0  0  0  0  0  0  0  0
   60.3930   32.7860   50.8050 C   0  0  0  0  0  0  0  0  0  0  0  0
   60.2250   32.0250   51.9640 C   0  0  0  0  0  0  0  0  0  0  0  0
   61.0103   32.0257   52.7343 H   0  0  0  0  0  0  0  0  0  0  0  0
   59.0640   31.2590   52.1560 C   0  0  0  0  0  0  0  0  0  0  0  0
   58.8530   30.5000   53.3180 O   0  0  0  0  0  0  0  0  0  0  0  0
   58.4250   31.0360   54.5660 C   0  0  0  0  0  0  0  0  0  0  0  0
   58.8819   30.4638   55.3869 H   0  0  0  0  0  0  0  0  0  0  0  0
   58.7331   32.0895   54.6376 H   0  0  0  0  0  0  0  0  0  0  0  0
   57.3294   30.9687   54.6376 H   0  0  0  0  0  0  0  0  0  0  0  0
   58.0860   31.2270   51.1540 C   0  0  0  0  0  0  0  0  0  0  0  0
   56.9530   30.4200   51.3570 O   0  0  0  0  0  0  0  0  0  0  0  0
   55.7640   30.8470   52.0160 C   0  0  0  0  0  0  0  0  0  0  0  0
   55.9095   30.7948   53.1051 H   0  0  0  0  0  0  0  0  0  0  0  0
   55.5359   31.8832   51.7258 H   0  0  0  0  0  0  0  0  0  0  0  0
   54.9288   30.1926   51.7258 H   0  0  0  0  0  0  0  0  0  0  0  0
   58.2600   31.9860   49.9810 C   0  0  0  0  0  0  0  0  0  0  0  0
   57.5210   31.9048   49.1703 H   0  0  0  0  0  0  0  0  0  0  0  0
   59.3670   32.8500   49.8270 C   0  0  0  0  0  0  0  0  0  0  0  0
   59.5660   33.7050   48.6950 C   0  0  0  0  0  0  0  0  0  0  0  0
   58.6420   34.0460   47.8320 N   0  0  0  0  0  0  0  0  0  0  0  0
   58.4570   33.6370   46.4690 C   0  0  0  0  0  0  0  0  0  0  0  0
   59.2200   34.2370   45.4640 C   0  0  0  0  0  0  0  0  0  0  0  0
   59.9619   35.0065   45.7238 H   0  0  0  0  0  0  0  0  0  0  0  0
   59.0430   33.8620   44.1300 C   0  0  0  0  0  0  0  0  0  0  0  0
   59.6580   34.3246   43.3440 H   0  0  0  0  0  0  0  0  0  0  0  0
   58.0860   32.9000   43.7910 C   0  0  0  0  0  0  0  0  0  0  0  0
   57.9609   32.5963   42.7412 H   0  0  0  0  0  0  0  0  0  0  0  0
   57.2830   32.3200   44.7900 C   0  0  0  0  0  0  0  0  0  0  0  0
   56.2860   31.3320   44.4950 N   0  0  0  0  0  0  0  0  0  0  0  0
   56.5730   29.6400   44.2450 S   0  0  0  0  0  0  0  0  0  0  0  0
   55.5240   28.8590   44.9850 O   0  0  0  0  0  0  0  0  0  0  0  0
   57.9240   29.2610   44.7820 O   0  0  0  0  0  0  0  0  0  0  0  0
   56.4690   29.2650   42.5600 N   0  0  0  0  0  0  0  0  0  0  0  0
   55.5150   29.5490   42.2420 H   0  0  0  0  0  0  0  0  0  0  0  0
   56.5210   28.2270   42.4640 H   0  0  0  0  0  0  0  0  0  0  0  0
   57.4610   32.7090   46.1230 C   0  0  0  0  0  0  0  0  0  0  0  0
   56.8155   32.2844   46.9059 H   0  0  0  0  0  0  0  0  0  0  0  0
   60.8310   34.2750   48.5060 C   0  0  0  0  0  0  0  0  0  0  0  0
   61.0468   34.8305   47.5814 H   0  0  0  0  0  0  0  0  0  0  0  0
  1  2  1  0
  2  3  1  0
  3  4  1  0
  4  5  2  0
  5  6  1  0
  5  7  1  0
  7  8  1  0
  8  9  1  0
  9 10  1  0
  9 11  1  0
  9 12  1  0
  7 13  2  0
 13 14  1  0
 14 15  1  0
 15 16  1  0
 15 17  1  0
 15 18  1  0
 13 19  1  0
 19 20  1  0
 19 21  2  0
 21 22  1  0
 22 23  2  0
 23 24  1  0
 24 25  2  0
 25 26  1  0
 25 27  1  0
 27 28  1  0
 27 29  2  0
 29 30  1  0
 29 31  1  0
 31 32  1  0
 32 33  1  0
 33 34  2  0
 33 35  2  0
 33 36  1  0
 36 37  1  0
 36 38  1  0
 31 39  2  0
 39 40  1  0
 22 41  1  0
 41 42  1  0
 41  2  2  0
 21  4  1  0
 39 24  1  0
M  CHG  2   3  -1  32  -1
M  END
>  <UniqueID>  (74) 
69

>  <SMILES>  (74) 
COc1cc2[n-]cc/c(=N/c3cccc([N-]S(N)(=O)=O)c3)c2cc1OC

>  <Energy>  (74) 
66.11400542402369

>  <Genealogy>  (74) 
COc1cc2[n-]ccc(=Nc3cccc([N-]S(N)(=O)=O)c3)c2cc1OC (protonated)
COc1cc2[n-]cc/c(=N/c3cccc([N-]S(N)(=O)=O)c3)c2cc1OC (cis-trans isomerization)
COc1cc2[n-]cc/c(=N/c3cccc([N-]S(N)(=O)=O)c3)c2cc1OC (3D coordinates assigned)
COc1cc2[n-]cc/c(=N/c3cccc([N-]S(N)(=O)=O)c3)c2cc1OC (optimized conformer: 66.11400542402369 kcal/mol)

>  <smiles>  (74) 
COc1cc2[nH]ccc(=Nc3cccc(NS(N)(=O)=O)c3)c2cc1OC

>  <score_type>  (74) 
oracle

>  <origin>  (74) 
adg

>  <m_score__min__energy>  (74) 
-10.33

>  <m_primary>  (74) 
energy

$$$$
74:0
     RDKit          3D

 68 72  0  0  0  0  0  0  0  0999 V2000
   67.0470   30.7280   50.9320 C   0  0  0  0  0  0  0  0  0  0  0  0
   66.2480   29.4730   51.2710 C   0  0  0  0  0  0  0  0  0  0  0  0
   65.4340   29.6610   52.5560 C   0  0  0  0  0  0  0  0  0  0  0  0
   63.9480   29.5250   52.2690 C   0  0  0  0  0  0  0  0  0  0  0  0
   63.4780   28.2420   51.9680 C   0  0  0  0  0  0  0  0  0  0  0  0
   62.1450   28.0300   51.6150 C   0  0  0  0  0  0  0  0  0  0  0  0
   61.7160   26.6360   51.3660 C   0  0  0  0  0  0  0  0  0  0  0  0
   61.1090   26.3470   50.3010 O   0  0  0  0  0  0  0  0  0  0  0  0
   62.0440   25.6220   52.2560 O   0  0  0  0  0  0  0  0  0  0  0  0
   61.2770   29.1390   51.5080 C   0  0  0  0  0  0  0  0  0  0  0  0
   59.8680   29.0100   50.9510 C   0  0  0  0  0  0  0  0  0  0  0  0
   59.6470   29.9980   49.8350 C   0  0  0  0  0  0  0  0  0  0  0  0
   60.4310   29.9410   48.6710 C   0  0  0  0  0  0  0  0  0  0  0  0
   60.2510   30.8790   47.6510 C   0  0  0  0  0  0  0  0  0  0  0  0
   59.2800   31.8840   47.7760 C   0  0  0  0  0  0  0  0  0  0  0  0
   59.1010   32.8860   46.7020 C   0  0  0  0  0  0  0  0  0  0  0  0
   59.8170   34.0920   46.7990 C   0  0  0  0  0  0  0  0  0  0  0  0
   59.6260   35.1090   45.8640 C   0  0  0  0  0  0  0  0  0  0  0  0
   58.7160   34.9380   44.8230 C   0  0  0  0  0  0  0  0  0  0  0  0
   58.0050   33.7430   44.7020 C   0  0  0  0  0  0  0  0  0  0  0  0
   58.1950   32.6960   45.6240 C   0  0  0  0  0  0  0  0  0  0  0  0
   57.4720   31.4180   45.4000 C   0  0  0  0  0  0  0  0  0  0  0  0
   56.4150   31.2790   44.5690 N   0  0  0  0  0  0  0  0  0  0  0  0
   56.1160   29.9810   44.7530 C   0  0  0  0  0  0  0  0  0  0  0  0
   55.1750   29.3920   44.1590 O   0  0  0  0  0  0  0  0  0  0  0  0
   56.9090   29.4030   45.6150 O   0  0  0  0  0  0  0  0  0  0  0  0
   57.7700   30.2710   46.0490 N   0  0  0  0  0  0  0  0  0  0  0  0
   58.5050   31.9520   48.9440 C   0  0  0  0  0  0  0  0  0  0  0  0
   58.6850   31.0140   49.9650 C   0  0  0  0  0  0  0  0  0  0  0  0
   61.7830   30.4240   51.8110 C   0  0  0  0  0  0  0  0  0  0  0  0
   61.0140   31.4200   51.7060 O   0  0  0  0  0  0  0  0  0  0  0  0
   63.0920   30.6060   52.2080 N   0  0  0  0  0  0  0  0  0  0  0  0
   63.5510   31.9690   52.5690 C   0  0  0  0  0  0  0  0  0  0  0  0
   64.2990   32.6550   51.4010 C   0  0  2  0  0  0  0  0  0  0  0  0
   63.8620   34.1160   51.1340 C   0  0  0  0  0  0  0  0  0  0  0  0
   62.6180   34.2330   50.2380 C   0  0  2  0  0  0  0  0  0  0  0  0
   61.4550   33.8220   50.9190 O   0  0  0  0  0  0  0  0  0  0  0  0
   62.8260   33.4920   48.9070 C   0  0  0  0  0  0  0  0  0  0  0  0
   63.3950   32.1220   49.1230 C   0  0  0  0  0  0  0  0  0  0  0  0
   63.2220   31.2360   48.2470 O   0  0  0  0  0  0  0  0  0  0  0  0
   64.1990   31.8360   50.2310 O   0  0  0  0  0  0  0  0  0  0  0  0
   67.3627   31.2239   51.8617 H   0  0  0  0  0  0  0  0  0  0  0  0
   67.9348   30.4500   50.3450 H   0  0  0  0  0  0  0  0  0  0  0  0
   66.4195   31.4147   50.3450 H   0  0  0  0  0  0  0  0  0  0  0  0
   65.5611   29.2505   50.4411 H   0  0  0  0  0  0  0  0  0  0  0  0
   66.9537   28.6434   51.4254 H   0  0  0  0  0  0  0  0  0  0  0  0
   65.7326   28.8969   53.2888 H   0  0  0  0  0  0  0  0  0  0  0  0
   65.6285   30.6669   52.9565 H   0  0  0  0  0  0  0  0  0  0  0  0
   64.1698   27.3878   52.0103 H   0  0  0  0  0  0  0  0  0  0  0  0
   59.7237   27.9901   50.5649 H   0  0  0  0  0  0  0  0  0  0  0  0
   59.1478   29.2172   51.7562 H   0  0  0  0  0  0  0  0  0  0  0  0
   61.1911   29.1534   48.5617 H   0  0  0  0  0  0  0  0  0  0  0  0
   60.8737   30.8292   46.7456 H   0  0  0  0  0  0  0  0  0  0  0  0
   60.5348   34.2348   47.6202 H   0  0  0  0  0  0  0  0  0  0  0  0
   60.1943   36.0470   45.9485 H   0  0  0  0  0  0  0  0  0  0  0  0
   58.5574   35.7468   44.0946 H   0  0  0  0  0  0  0  0  0  0  0  0
   57.2882   33.6178   43.8771 H   0  0  0  0  0  0  0  0  0  0  0  0
   57.7528   32.7466   49.0567 H   0  0  0  0  0  0  0  0  0  0  0  0
   58.0701   31.0717   50.8752 H   0  0  0  0  0  0  0  0  0  0  0  0
   62.6761   32.5791   52.8380 H   0  0  0  0  0  0  0  0  0  0  0  0
   64.2485   31.8806   53.4150 H   0  0  0  0  0  0  0  0  0  0  0  0
   65.3544   32.7456   51.6977 H   0  0  0  0  0  0  0  0  0  0  0  0
   63.6414   34.5948   52.0994 H   0  0  0  0  0  0  0  0  0  0  0  0
   64.6897   34.6079   50.6022 H   0  0  0  0  0  0  0  0  0  0  0  0
   62.4695   35.2938   49.9878 H   0  0  0  0  0  0  0  0  0  0  0  0
   61.4650   32.8340   51.0130 H   0  0  0  0  0  0  0  0  0  0  0  0
   61.8572   33.3997   48.3943 H   0  0  0  0  0  0  0  0  0  0  0  0
   63.5381   34.0691   48.2988 H   0  0  0  0  0  0  0  0  0  0  0  0
  1  2  1  0
  2  3  1  0
  3  4  1  0
  4  5  2  0
  5  6  1  0
  6  7  1  0
  7  8  2  0
  7  9  1  0
  6 10  2  0
 10 11  1  0
 11 12  1  0
 12 13  2  0
 13 14  1  0
 14 15  2  0
 15 16  1  0
 16 17  2  0
 17 18  1  0
 18 19  2  0
 19 20  1  0
 20 21  2  0
 21 22  1  0
 22 23  2  0
 23 24  1  0
 24 25  2  0
 24 26  1  0
 26 27  1  0
 15 28  1  0
 28 29  2  0
 10 30  1  0
 30 31  2  0
 30 32  1  0
 32 33  1  0
 33 34  1  0
 34 35  1  0
 35 36  1  0
 36 37  1  0
 36 38  1  0
 38 39  1  0
 39 40  2  0
 39 41  1  0
 32  4  1  0
 41 34  1  0
 29 12  1  0
 21 16  1  0
 27 22  1  0
  1 42  1  0
  1 43  1  0
  1 44  1  0
  2 45  1  0
  2 46  1  0
  3 47  1  0
  3 48  1  0
  5 49  1  0
 11 50  1  0
 11 51  1  0
 13 52  1  0
 14 53  1  0
 17 54  1  0
 18 55  1  0
 19 56  1  0
 20 57  1  0
 28 58  1  0
 29 59  1  0
 33 60  1  0
 33 61  1  0
 34 62  1  1
 35 63  1  0
 35 64  1  0
 36 65  1  6
 37 66  1  0
 38 67  1  0
 38 68  1  0
M  CHG  2   9  -1  27  -1
M  END
>  <UniqueID>  (75) 
70

>  <SMILES>  (75) 
CCCc1cc(C(=O)[O-])c(Cc2ccc(-c3ccccc3-c3nc(=O)o[n-]3)cc2)c(=O)n1C[C@@H]1C[C@H](O)CC(=O)O1

>  <Energy>  (75) 
130.1247126183746

>  <Genealogy>  (75) 
CCCc1cc(C(=O)[O-])c(Cc2ccc(-c3ccccc3-c3nc(=O)o[n-]3)cc2)c(=O)n1CC1CC(O)CC(=O)O1 (protonated)
CCCc1cc(C(=O)[O-])c(Cc2ccc(-c3ccccc3-c3nc(=O)o[n-]3)cc2)c(=O)n1C[C@@H]1C[C@H](O)CC(=O)O1 (chirality)
CCCc1cc(C(=O)[O-])c(Cc2ccc(-c3ccccc3-c3nc(=O)o[n-]3)cc2)c(=O)n1C[C@@H]1C[C@H](O)CC(=O)O1 (3D coordinates assigned)
CCCc1cc(C(=O)[O-])c(Cc2ccc(-c3ccccc3-c3nc(=O)o[n-]3)cc2)c(=O)n1C[C@@H]1C[C@H](O)CC(=O)O1 (nonaromatic ring conformer: 130.1247126183746 kcal/mol)

>  <smiles>  (75) 
CCCc1cc(C(=O)O)c(Cc2ccc(-c3ccccc3-c3nc(=O)o[nH]3)cc2)c(=O)n1CC1CC(O)CC(=O)O1

>  <score_type>  (75) 
oracle

>  <origin>  (75) 
adg

>  <m_score__min__energy>  (75) 
-13.02

>  <m_primary>  (75) 
energy

$$$$
75:0
     RDKit          3D

 39 41  0  0  0  0  0  0  0  0999 V2000
   54.3730   26.7570   46.8270 H   0  0  0  0  0  0  0  0  0  0  0  0
   54.7030   26.3270   45.9720 O   0  0  0  0  0  0  0  0  0  0  0  0
   54.2480   25.0700   45.5880 C   0  0  0  0  0  0  0  0  0  0  0  0
   52.9960   24.8270   45.1640 N   0  0  0  0  0  0  0  0  0  0  0  0
   53.0000   23.4900   44.9780 C   0  0  0  0  0  0  0  0  0  0  0  0
   51.9870   22.8580   44.5800 O   0  0  0  0  0  0  0  0  0  0  0  0
   54.1710   22.8820   45.2610 N   0  0  0  0  0  0  0  0  0  0  0  0
   54.9720   23.8980   45.6260 C   0  0  0  0  0  0  0  0  0  0  0  0
   56.3500   23.7090   46.1090 C   0  0  0  0  0  0  0  0  0  0  0  0
   56.6248   22.7222   46.5098 H   0  0  0  0  0  0  0  0  0  0  0  0
   57.2920   24.6650   46.0910 C   0  0  0  0  0  0  0  0  0  0  0  0
   57.5610   25.4730   44.9990 C   0  0  0  0  0  0  0  0  0  0  0  0
   57.0731   25.4353   44.0138 H   0  0  0  0  0  0  0  0  0  0  0  0
   58.5660   26.3370   45.3950 C   0  0  0  0  0  0  0  0  0  0  0  0
   59.1400   27.4430   44.5570 C   0  0  0  0  0  0  0  0  0  0  0  0
   59.6345   28.1745   45.2130 H   0  0  0  0  0  0  0  0  0  0  0  0
   59.8663   27.0135   43.8513 H   0  0  0  0  0  0  0  0  0  0  0  0
   58.0350   28.1450   43.7630 C   0  0  0  0  0  0  0  0  0  0  0  0
   58.3635   28.2726   42.7210 H   0  0  0  0  0  0  0  0  0  0  0  0
   57.1241   27.5296   43.8013 H   0  0  0  0  0  0  0  0  0  0  0  0
   57.7360   29.4900   44.3540 C   0  0  0  0  0  0  0  0  0  0  0  0
   58.8410   30.4210   45.2160 S   0  0  0  0  0  0  0  0  0  0  0  0
   57.7710   31.7050   45.4020 C   0  0  0  0  0  0  0  0  0  0  0  0
   58.1050   33.0000   46.0590 C   0  0  0  0  0  0  0  0  0  0  0  0
   58.0730   32.8759   47.1515 H   0  0  0  0  0  0  0  0  0  0  0  0
   59.1140   33.3158   45.7553 H   0  0  0  0  0  0  0  0  0  0  0  0
   57.3746   33.7644   45.7553 H   0  0  0  0  0  0  0  0  0  0  0  0
   56.5910   31.4630   44.7890 N   0  0  0  0  0  0  0  0  0  0  0  0
   56.5620   30.2340   44.2050 C   0  0  0  0  0  0  0  0  0  0  0  0
   55.3540   29.7480   43.4690 C   0  0  0  0  0  0  0  0  0  0  0  0
   54.5844   29.4384   44.1914 H   0  0  0  0  0  0  0  0  0  0  0  0
   54.9594   30.5573   42.8372 H   0  0  0  0  0  0  0  0  0  0  0  0
   55.6298   28.8909   42.8372 H   0  0  0  0  0  0  0  0  0  0  0  0
   58.8420   26.0380   46.7230 C   0  0  0  0  0  0  0  0  0  0  0  0
   59.7200   26.6640   47.5100 C   0  0  0  0  0  0  0  0  0  0  0  0
   60.3237   27.4923   47.1106 H   0  0  0  0  0  0  0  0  0  0  0  0
   59.8398   26.3516   48.5579 H   0  0  0  0  0  0  0  0  0  0  0  0
   58.0690   25.0170   47.1410 N   0  0  0  0  0  0  0  0  0  0  0  0
   58.0420   24.6270   48.1100 H   0  0  0  0  0  0  0  0  0  0  0  0
  1  2  1  0
  2  3  1  0
  3  4  1  0
  4  5  1  0
  5  6  2  0
  5  7  1  0
  7  8  1  0
  8  9  1  0
  9 10  1  0
  9 11  2  0
 11 12  1  0
 12 13  1  0
 12 14  2  0
 14 15  1  0
 15 16  1  0
 15 17  1  0
 15 18  1  0
 18 19  1  0
 18 20  1  0
 18 21  1  0
 21 22  1  0
 22 23  1  0
 23 24  1  0
 24 25  1  0
 24 26  1  0
 24 27  1  0
 23 28  2  0
 28 29  1  0
 29 30  1  0
 30 31  1  0
 30 32  1  0
 30 33  1  0
 14 34  1  0
 34 35  2  0
 35 36  1  0
 35 37  1  0
 34 38  1  0
 38 39  1  0
  8  3  2  0
 38 11  1  0
 29 21  2  0
M  CHG  2   4  -1   7  -1
M  END
>  <UniqueID>  (76) 
71

>  <SMILES>  (76) 
C=c1[nH]/c(=C\c2[n-]c(=O)[n-]c2O)cc1CCc1sc(C)nc1C

>  <Energy>  (76) 
123.4286441693381

>  <Genealogy>  (76) 
C=c1[nH]c(=Cc2[n-]c(=O)[n-]c2O)cc1CCc1sc(C)nc1C (protonated)
C=c1[nH]/c(=C\c2[n-]c(=O)[n-]c2O)cc1CCc1sc(C)nc1C (cis-trans isomerization)
C=c1[nH]/c(=C\c2[n-]c(=O)[n-]c2O)cc1CCc1sc(C)nc1C (3D coordinates assigned)
C=c1[nH]/c(=C\c2[n-]c(=O)[n-]c2O)cc1CCc1sc(C)nc1C (optimized conformer: 123.4286441693381 kcal/mol)

>  <smiles>  (76) 
C=c1[nH]c(=Cc2[nH]c(=O)[nH]c2O)cc1CCc1sc(C)nc1C

>  <score_type>  (76) 
oracle

>  <origin>  (76) 
adg

>  <m_score__min__energy>  (76) 
-13.41

>  <m_primary>  (76) 
energy

$$$$
76:0
     RDKit          3D

 47 49  0  0  0  0  0  0  0  0999 V2000
   58.5124   27.1684   47.3078 H   0  0  0  0  0  0  0  0  0  0  0  0
   58.4400   28.2650   47.2610 C   0  0  0  0  0  0  0  0  0  0  0  0
   58.7246   28.8727   48.1326 H   0  0  0  0  0  0  0  0  0  0  0  0
   58.0070   28.8580   46.1470 C   0  0  0  0  0  0  0  0  0  0  0  0
   57.9020   30.1610   46.0390 O   0  0  0  0  0  0  0  0  0  0  0  0
   57.4590   30.4470   44.8380 C   0  0  0  0  0  0  0  0  0  0  0  0
   57.2230   31.8430   44.3490 C   0  0  0  0  0  0  0  0  0  0  0  0
   57.0520   31.8151   43.2627 H   0  0  0  0  0  0  0  0  0  0  0  0
   56.3469   32.2459   44.8783 H   0  0  0  0  0  0  0  0  0  0  0  0
   58.4150   32.7590   44.6390 C   0  0  0  0  0  0  0  0  0  0  0  0
   59.2759   32.1422   44.9364 H   0  0  0  0  0  0  0  0  0  0  0  0
   58.6404   33.3317   43.7273 H   0  0  0  0  0  0  0  0  0  0  0  0
   58.1050   33.7340   45.7460 C   0  0  0  0  0  0  0  0  0  0  0  0
   56.9160   33.8010   46.1650 O   0  0  0  0  0  0  0  0  0  0  0  0
   59.1340   34.4870   46.4210 N   0  0  0  0  0  0  0  0  0  0  0  0
   59.6460   35.6950   45.7680 C   0  0  0  0  0  0  0  0  0  0  0  0
   59.9544   36.4227   46.5331 H   0  0  0  0  0  0  0  0  0  0  0  0
   60.5109   35.4340   45.1404 H   0  0  0  0  0  0  0  0  0  0  0  0
   58.8570   36.1350   45.1404 H   0  0  0  0  0  0  0  0  0  0  0  0
   59.6780   34.0870   47.7280 C   0  0  0  0  0  0  0  0  0  0  0  0
   59.7714   34.9768   48.3680 H   0  0  0  0  0  0  0  0  0  0  0  0
   58.9952   33.3569   48.1872 H   0  0  0  0  0  0  0  0  0  0  0  0
   61.0350   33.4480   47.5670 C   0  0  0  0  0  0  0  0  0  0  0  0
   62.0680   34.2330   47.1510 N   0  0  0  0  0  0  0  0  0  0  0  0
   63.3220   33.7460   46.9600 C   0  0  0  0  0  0  0  0  0  0  0  0
   64.1277   34.4164   46.6263 H   0  0  0  0  0  0  0  0  0  0  0  0
   63.5870   32.3970   47.1870 C   0  0  0  0  0  0  0  0  0  0  0  0
   64.6001   31.9965   47.0348 H   0  0  0  0  0  0  0  0  0  0  0  0
   62.5550   31.5600   47.6090 C   0  0  0  0  0  0  0  0  0  0  0  0
   62.7553   30.4938   47.7911 H   0  0  0  0  0  0  0  0  0  0  0  0
   61.2600   32.0710   47.8030 C   0  0  0  0  0  0  0  0  0  0  0  0
   60.1710   31.1600   48.3010 C   0  0  0  0  0  0  0  0  0  0  0  0
   60.1689   31.1582   49.4010 H   0  0  0  0  0  0  0  0  0  0  0  0
   59.1977   31.5168   47.9330 H   0  0  0  0  0  0  0  0  0  0  0  0
   60.3503   30.1390   47.9330 H   0  0  0  0  0  0  0  0  0  0  0  0
   57.2620   29.2930   44.1070 C   0  0  0  0  0  0  0  0  0  0  0  0
   56.8995   29.2152   43.0714 H   0  0  0  0  0  0  0  0  0  0  0  0
   57.6170   28.2520   44.9520 C   0  0  0  0  0  0  0  0  0  0  0  0
   57.5520   26.9330   44.6900 C   0  0  0  0  0  0  0  0  0  0  0  0
   57.8514   26.5907   43.6884 H   0  0  0  0  0  0  0  0  0  0  0  0
   57.1040   25.9180   45.6630 C   0  0  0  0  0  0  0  0  0  0  0  0
   57.8800   24.9540   46.1910 N   0  0  0  0  0  0  0  0  0  0  0  0
   57.0590   24.3340   47.0660 C   0  0  0  0  0  0  0  0  0  0  0  0
   57.4290   23.3600   47.7720 O   0  0  0  0  0  0  0  0  0  0  0  0
   55.8130   24.8480   47.1330 N   0  0  0  0  0  0  0  0  0  0  0  0
   55.8640   25.8550   46.2450 C   0  0  0  0  0  0  0  0  0  0  0  0
   54.7950   26.6990   45.9730 O   0  0  0  0  0  0  0  0  0  0  0  0
  1  2  1  0
  2  3  1  0
  2  4  2  0
  4  5  1  0
  5  6  1  0
  6  7  1  0
  7  8  1  0
  7  9  1  0
  7 10  1  0
 10 11  1  0
 10 12  1  0
 10 13  1  0
 13 14  2  0
 13 15  1  0
 15 16  1  0
 16 17  1  0
 16 18  1  0
 16 19  1  0
 15 20  1  0
 20 21  1  0
 20 22  1  0
 20 23  1  0
 23 24  2  0
 24 25  1  0
 25 26  1  0
 25 27  2  0
 27 28  1  0
 27 29  1  0
 29 30  1  0
 29 31  2  0
 31 32  1  0
 32 33  1  0
 32 34  1  0
 32 35  1  0
  6 36  2  0
 36 37  1  0
 36 38  1  0
 38 39  2  0
 39 40  1  0
 39 41  1  0
 41 42  1  0
 42 43  1  0
 43 44  2  0
 43 45  1  0
 45 46  1  0
 46 47  1  0
 38  4  1  0
 46 41  2  0
 31 23  1  0
M  CHG  3  42  -1  45  -1  47  -1
M  END
>  <UniqueID>  (77) 
72

>  <SMILES>  (77) 
C=c1oc(CCC(=O)N(C)Cc2ncccc2C)c/c1=C\c1[n-]c(=O)[n-]c1[O-]

>  <Energy>  (77) 
106.16846219111386

>  <Genealogy>  (77) 
C=c1oc(CCC(=O)N(C)Cc2ncccc2C)cc1=Cc1[n-]c(=O)[n-]c1[O-] (protonated)
C=c1oc(CCC(=O)N(C)Cc2ncccc2C)c/c1=C\c1[n-]c(=O)[n-]c1[O-] (cis-trans isomerization)
C=c1oc(CCC(=O)N(C)Cc2ncccc2C)c/c1=C\c1[n-]c(=O)[n-]c1[O-] (3D coordinates assigned)
C=c1oc(CCC(=O)N(C)Cc2ncccc2C)c/c1=C\c1[n-]c(=O)[n-]c1[O-] (optimized conformer: 106.16846219111386 kcal/mol)

>  <smiles>  (77) 
C=c1oc(CCC(=O)N(C)Cc2ncccc2C)cc1=Cc1[nH]c(=O)[nH]c1O

>  <score_type>  (77) 
oracle

>  <origin>  (77) 
adg

>  <m_score__min__energy>  (77) 
-17.690000000000001

>  <m_primary>  (77) 
energy

$$$$
77:0
     RDKit          3D

 21 22  0  0  0  0  0  0  0  0999 V2000
   57.3880   32.2400   44.7500 C   0  0  0  0  0  0  0  0  0  0  0  0
   57.4460   30.9060   44.7200 C   0  0  0  0  0  0  0  0  0  0  0  0
   58.6300   30.3120   44.8280 O   0  0  0  0  0  0  0  0  0  0  0  0
   58.7830   28.9910   44.8020 C   0  0  0  0  0  0  0  0  0  0  0  0
   59.9360   28.5160   44.9740 O   0  0  0  0  0  0  0  0  0  0  0  0
   57.6480   28.1580   44.6300 C   0  0  0  0  0  0  0  0  0  0  0  0
   57.6810   26.8110   44.5730 C   0  0  0  0  0  0  0  0  0  0  0  0
   57.3100   25.8830   45.6570 C   0  0  0  0  0  0  0  0  0  0  0  0
   58.2190   24.5580   46.1780 S   0  0  0  0  0  0  0  0  0  0  0  0
   56.9890   24.0000   47.1750 C   0  0  0  0  0  0  0  0  0  0  0  0
   57.0730   22.9740   47.9000 O   0  0  0  0  0  0  0  0  0  0  0  0
   55.8780   24.7630   47.1090 N   0  0  0  0  0  0  0  0  0  0  0  0
   56.0510   25.8020   46.2480 C   0  0  0  0  0  0  0  0  0  0  0  0
   55.0350   26.7120   45.9810 O   0  0  0  0  0  0  0  0  0  0  0  0
   56.4320   28.7610   44.5500 N   0  0  0  0  0  0  0  0  0  0  0  0
   56.2950   30.1100   44.5870 C   0  0  0  0  0  0  0  0  0  0  0  0
   55.1460   30.6200   44.5000 O   0  0  0  0  0  0  0  0  0  0  0  0
   56.4176   32.7504   44.6621 H   0  0  0  0  0  0  0  0  0  0  0  0
   58.3107   32.8282   44.8626 H   0  0  0  0  0  0  0  0  0  0  0  0
   58.0170   26.3615   43.6269 H   0  0  0  0  0  0  0  0  0  0  0  0
   55.1770   27.4680   45.3230 H   0  0  0  0  0  0  0  0  0  0  0  0
  1  2  2  0
  2  3  1  0
  3  4  1  0
  4  5  2  0
  4  6  1  0
  6  7  2  3
  7  8  1  0
  8  9  1  0
  9 10  1  0
 10 11  2  0
 10 12  1  0
 12 13  1  0
 13 14  1  0
  6 15  1  0
 15 16  1  0
 16 17  2  0
 16  2  1  0
 13  8  2  0
  1 18  1  0
  1 19  1  0
  7 20  1  0
 14 21  1  0
M  CHG  2  12  -1  15  -1
M  END
>  <UniqueID>  (78) 
73

>  <SMILES>  (78) 
C=c1oc(=O)c(=Cc2sc(=O)[n-]c2O)[n-]c1=O

>  <Energy>  (78) 
67.54395439724108

>  <Genealogy>  (78) 
C=c1oc(=O)c(=Cc2sc(=O)[n-]c2O)[n-]c1=O (protonated)
C=c1oc(=O)c(=Cc2sc(=O)[n-]c2O)[n-]c1=O (3D coordinates assigned)
C=c1oc(=O)c(=Cc2sc(=O)[n-]c2O)[n-]c1=O (optimized conformer: 67.54395439724108 kcal/mol)

>  <smiles>  (78) 
C=c1oc(=O)c(=Cc2sc(=O)[nH]c2O)[nH]c1=O

>  <score_type>  (78) 
oracle

>  <origin>  (78) 
adg

>  <m_score__min__energy>  (78) 
-10.85

>  <m_primary>  (78) 
energy

$$$$
78:0
     RDKit          3D

 33 35  0  0  0  0  0  0  0  0999 V2000
   58.0426   25.6610   42.4686 H   0  0  0  0  0  0  0  0  0  0  0  0
   58.0880   26.7600   42.4840 C   0  0  0  0  0  0  0  0  0  0  0  0
   58.2633   27.3163   41.5514 H   0  0  0  0  0  0  0  0  0  0  0  0
   57.9300   27.4200   43.6370 C   0  0  0  0  0  0  0  0  0  0  0  0
   57.7880   26.8970   44.9310 C   0  0  0  0  0  0  0  0  0  0  0  0
   57.6570   25.6280   45.3660 C   0  0  0  0  0  0  0  0  0  0  0  0
   58.5449   25.1533   45.8090 H   0  0  0  0  0  0  0  0  0  0  0  0
   56.4230   24.8220   45.2980 C   0  0  0  0  0  0  0  0  0  0  0  0
   55.1760   25.3740   45.6320 C   0  0  0  0  0  0  0  0  0  0  0  0
   55.0730   26.7120   46.0010 O   0  0  0  0  0  0  0  0  0  0  0  0
   54.0590   24.5980   45.6000 N   0  0  0  0  0  0  0  0  0  0  0  0
   53.1340   25.0200   45.8410 H   0  0  0  0  0  0  0  0  0  0  0  0
   54.1330   23.2800   45.2690 C   0  0  0  0  0  0  0  0  0  0  0  0
   53.0920   22.5750   45.2430 O   0  0  0  0  0  0  0  0  0  0  0  0
   55.3330   22.7220   44.9690 N   0  0  0  0  0  0  0  0  0  0  0  0
   56.4760   23.4560   44.9830 C   0  0  0  0  0  0  0  0  0  0  0  0
   57.5730   22.9010   44.7060 O   0  0  0  0  0  0  0  0  0  0  0  0
   57.7940   27.9870   45.7850 C   0  0  0  0  0  0  0  0  0  0  0  0
   57.7264   27.9582   46.8825 H   0  0  0  0  0  0  0  0  0  0  0  0
   57.9010   29.1190   44.9970 C   0  0  0  0  0  0  0  0  0  0  0  0
   57.9360   30.5200   45.4880 C   0  0  0  0  0  0  0  0  0  0  0  0
   58.5620   30.8360   46.7090 C   0  0  0  0  0  0  0  0  0  0  0  0
   59.0300   30.0388   47.3052 H   0  0  0  0  0  0  0  0  0  0  0  0
   58.5930   32.1560   47.1690 C   0  0  0  0  0  0  0  0  0  0  0  0
   59.0843   32.3927   48.1243 H   0  0  0  0  0  0  0  0  0  0  0  0
   58.0020   33.1740   46.4190 C   0  0  0  0  0  0  0  0  0  0  0  0
   58.0293   34.2118   46.7826 H   0  0  0  0  0  0  0  0  0  0  0  0
   57.3760   32.8750   45.2070 C   0  0  0  0  0  0  0  0  0  0  0  0
   56.9091   33.6776   44.6172 H   0  0  0  0  0  0  0  0  0  0  0  0
   57.3420   31.5560   44.7420 C   0  0  0  0  0  0  0  0  0  0  0  0
   56.8476   31.3265   43.7865 H   0  0  0  0  0  0  0  0  0  0  0  0
   57.9790   28.7670   43.6970 N   0  0  0  0  0  0  0  0  0  0  0  0
   58.0700   29.4120   42.8800 H   0  0  0  0  0  0  0  0  0  0  0  0
  1  2  1  0
  2  3  1  0
  2  4  2  0
  4  5  1  0
  5  6  2  0
  6  7  1  0
  6  8  1  0
  8  9  2  0
  9 10  1  0
  9 11  1  0
 11 12  1  0
 11 13  1  0
 13 14  2  0
 13 15  1  0
 15 16  1  0
 16 17  2  0
  5 18  1  0
 18 19  1  0
 18 20  2  0
 20 21  1  0
 21 22  2  0
 22 23  1  0
 22 24  1  0
 24 25  1  0
 24 26  2  0
 26 27  1  0
 26 28  1  0
 28 29  1  0
 28 30  2  0
 30 31  1  0
 20 32  1  0
 32 33  1  0
 32  4  1  0
 16  8  1  0
 30 21  1  0
M  CHG  2  10  -1  15  -1
M  END
>  <UniqueID>  (79) 
74

>  <SMILES>  (79) 
C=c1[nH]c(-c2ccccc2)c/c1=C/c1c([O-])[nH]c(=O)[n-]c1=O

>  <Energy>  (79) 
79.4588262941229

>  <Genealogy>  (79) 
C=c1[nH]c(-c2ccccc2)cc1=Cc1c([O-])[nH]c(=O)[n-]c1=O (protonated)
C=c1[nH]c(-c2ccccc2)c/c1=C/c1c([O-])[nH]c(=O)[n-]c1=O (cis-trans isomerization)
C=c1[nH]c(-c2ccccc2)c/c1=C/c1c([O-])[nH]c(=O)[n-]c1=O (3D coordinates assigned)
C=c1[nH]c(-c2ccccc2)c/c1=C/c1c([O-])[nH]c(=O)[n-]c1=O (optimized conformer: 79.4588262941229 kcal/mol)

>  <smiles>  (79) 
C=c1[nH]c(-c2ccccc2)cc1=Cc1c(O)[nH]c(=O)[nH]c1=O

>  <score_type>  (79) 
oracle

>  <origin>  (79) 
adg

>  <m_score__min__energy>  (79) 
-13.470000000000001

>  <m_primary>  (79) 
energy

$$$$
79:0
     RDKit          3D

 44 46  0  0  0  0  0  0  0  0999 V2000
   63.3080   33.6020   46.6770 C   0  0  0  0  0  0  0  0  0  0  0  0
   61.6620   33.7880   47.3240 S   0  0  0  0  0  0  0  0  0  0  0  0
   60.7960   34.5130   46.3330 O   0  0  0  0  0  0  0  0  0  0  0  0
   61.7230   34.5880   48.5950 O   0  0  0  0  0  0  0  0  0  0  0  0
   60.9870   32.2270   47.6570 N   0  0  0  0  0  0  0  0  0  0  0  0
   61.1400   31.0610   46.7920 C   0  0  0  0  0  0  0  0  0  0  0  0
   60.2770   29.9450   47.4320 C   0  0  0  0  0  0  0  0  0  0  0  0
   59.6670   30.6150   48.6160 C   0  0  0  0  0  0  0  0  0  0  0  0
   58.7800   30.0750   49.5460 C   0  0  0  0  0  0  0  0  0  0  0  0
   58.3090   30.8930   50.5980 C   0  0  0  0  0  0  0  0  0  0  0  0
   57.3690   30.3370   51.6000 C   0  0  0  0  0  0  0  0  0  0  0  0
   57.5080   29.1420   51.9820 O   0  0  0  0  0  0  0  0  0  0  0  0
   56.2940   31.1280   52.1310 N   0  0  0  0  0  0  0  0  0  0  0  0
   55.4650   30.6390   53.2320 C   0  0  0  0  0  0  0  0  0  0  0  0
   54.0930   30.2640   52.7370 C   0  0  0  0  0  0  0  0  0  0  0  0
   53.6270   28.9500   52.8820 C   0  0  0  0  0  0  0  0  0  0  0  0
   52.3410   28.6100   52.4580 C   0  0  0  0  0  0  0  0  0  0  0  0
   51.5070   29.5800   51.8980 C   0  0  0  0  0  0  0  0  0  0  0  0
   51.9480   30.9080   51.7600 C   0  0  0  0  0  0  0  0  0  0  0  0
   51.0580   31.9390   51.1760 C   0  0  0  0  0  0  0  0  0  0  0  0
   50.1940   32.7090   52.0090 N   0  0  0  0  0  0  0  0  0  0  0  0
   51.0570   32.1470   49.9320 O   0  0  0  0  0  0  0  0  0  0  0  0
   53.2470   31.2420   52.1890 C   0  0  0  0  0  0  0  0  0  0  0  0
   58.7680   32.2320   50.6890 C   0  0  0  0  0  0  0  0  0  0  0  0
   59.6620   32.7470   49.7380 C   0  0  0  0  0  0  0  0  0  0  0  0
   60.0930   31.9100   48.7070 C   0  0  0  0  0  0  0  0  0  0  0  0
   64.0223   33.5213   47.5096 H   0  0  0  0  0  0  0  0  0  0  0  0
   63.3591   32.6924   46.0606 H   0  0  0  0  0  0  0  0  0  0  0  0
   63.5608   34.4773   46.0606 H   0  0  0  0  0  0  0  0  0  0  0  0
   60.7820   31.2875   45.7768 H   0  0  0  0  0  0  0  0  0  0  0  0
   62.1937   30.7577   46.7037 H   0  0  0  0  0  0  0  0  0  0  0  0
   59.5015   29.5979   46.7334 H   0  0  0  0  0  0  0  0  0  0  0  0
   60.8601   29.0510   47.6979 H   0  0  0  0  0  0  0  0  0  0  0  0
   58.4517   29.0285   49.4624 H   0  0  0  0  0  0  0  0  0  0  0  0
   56.0640   32.0450   51.6870 H   0  0  0  0  0  0  0  0  0  0  0  0
   55.9424   29.7543   53.6786 H   0  0  0  0  0  0  0  0  0  0  0  0
   55.3652   31.4373   53.9822 H   0  0  0  0  0  0  0  0  0  0  0  0
   54.2766   28.1843   53.3313 H   0  0  0  0  0  0  0  0  0  0  0  0
   51.9837   27.5752   52.5654 H   0  0  0  0  0  0  0  0  0  0  0  0
   50.4968   29.3029   51.5621 H   0  0  0  0  0  0  0  0  0  0  0  0
   50.2220   33.7520   51.9960 H   0  0  0  0  0  0  0  0  0  0  0  0
   53.6025   32.2786   52.0940 H   0  0  0  0  0  0  0  0  0  0  0  0
   58.4199   32.8726   51.5127 H   0  0  0  0  0  0  0  0  0  0  0  0
   60.0153   33.7867   49.8033 H   0  0  0  0  0  0  0  0  0  0  0  0
  1  2  1  0
  2  3  2  0
  2  4  2  0
  2  5  1  0
  5  6  1  0
  6  7  1  0
  7  8  1  0
  8  9  2  0
  9 10  1  0
 10 11  1  0
 11 12  2  0
 11 13  1  0
 13 14  1  0
 14 15  1  0
 15 16  2  0
 16 17  1  0
 17 18  2  0
 18 19  1  0
 19 20  1  0
 20 21  1  0
 20 22  2  0
 19 23  2  0
 10 24  2  0
 24 25  1  0
 25 26  2  0
 26  5  1  0
 26  8  1  0
 23 15  1  0
  1 27  1  0
  1 28  1  0
  1 29  1  0
  6 30  1  0
  6 31  1  0
  7 32  1  0
  7 33  1  0
  9 34  1  0
 13 35  1  0
 14 36  1  0
 14 37  1  0
 16 38  1  0
 17 39  1  0
 18 40  1  0
 21 41  1  0
 23 42  1  0
 24 43  1  0
 25 44  1  0
M  CHG  1  21  -1
M  END
>  <UniqueID>  (80) 
75

>  <SMILES>  (80) 
CS(=O)(=O)N1CCc2cc(C(=O)NCc3cccc(C([NH-])=O)c3)ccc21

>  <Energy>  (80) 
57.4551745459494

>  <Genealogy>  (80) 
CS(=O)(=O)N1CCc2cc(C(=O)NCc3cccc(C([NH-])=O)c3)ccc21 (protonated)
CS(=O)(=O)N1CCc2cc(C(=O)NCc3cccc(C([NH-])=O)c3)ccc21 (3D coordinates assigned)
CS(=O)(=O)N1CCc2cc(C(=O)NCc3cccc(C([NH-])=O)c3)ccc21 (nonaromatic ring conformer: 57.4551745459494 kcal/mol)

>  <smiles>  (80) 
CS(=O)(=O)N1CCc2cc(C(=O)NCc3cccc(C(N)=O)c3)ccc21

>  <score_type>  (80) 
oracle

>  <origin>  (80) 
adg

>  <m_score__min__energy>  (80) 
-12.4

>  <m_primary>  (80) 
energy

$$$$
80:0
     RDKit          3D

 49 51  0  0  0  0  0  0  0  0999 V2000
   64.0370   33.8360   50.2480 C   0  0  0  0  0  0  0  0  0  0  0  0
   63.4420   32.8120   49.2590 C   0  0  1  0  0  0  0  0  0  0  0  0
   64.4820   32.0690   48.6650 O   0  0  0  0  0  0  0  0  0  0  0  0
   62.4780   31.8480   49.9860 C   0  0  0  0  0  0  0  0  0  0  0  0
   61.0860   32.0370   49.3650 C   0  0  2  0  0  0  0  0  0  0  0  0
   60.7610   30.8810   48.4280 C   0  0  0  0  0  0  0  0  0  0  0  0
   61.3690   30.7810   47.3290 O   0  0  0  0  0  0  0  0  0  0  0  0
   59.8060   29.8680   48.7700 N   0  0  0  0  0  0  0  0  0  0  0  0
   59.9680   28.4420   48.5170 C   0  0  0  0  0  0  0  0  0  0  0  0
   59.3610   28.1030   47.1880 C   0  0  0  0  0  0  0  0  0  0  0  0
   59.6280   26.8630   46.5860 C   0  0  0  0  0  0  0  0  0  0  0  0
   59.0380   26.5330   45.3620 C   0  0  0  0  0  0  0  0  0  0  0  0
   58.1680   27.4310   44.7380 C   0  0  0  0  0  0  0  0  0  0  0  0
   57.8750   28.6620   45.3410 C   0  0  0  0  0  0  0  0  0  0  0  0
   56.7810   29.7940   44.5520 S   0  0  0  0  0  0  0  0  0  0  0  0
   55.1490   29.2860   44.7980 N   0  0  0  0  0  0  0  0  0  0  0  0
   57.0740   29.8460   43.0780 O   0  0  0  0  0  0  0  0  0  0  0  0
   56.9700   31.1690   45.1290 O   0  0  0  0  0  0  0  0  0  0  0  0
   58.4720   28.9950   46.5650 C   0  0  0  0  0  0  0  0  0  0  0  0
   61.1470   33.4020   48.6540 C   0  0  2  0  0  0  0  0  0  0  0  0
   60.0680   33.6170   47.5920 C   0  0  0  0  0  0  0  0  0  0  0  0
   60.3330   34.2460   46.3570 C   0  0  0  0  0  0  0  0  0  0  0  0
   59.3070   34.4490   45.4290 C   0  0  0  0  0  0  0  0  0  0  0  0
   58.0030   34.0520   45.7250 C   0  0  0  0  0  0  0  0  0  0  0  0
   57.0110   34.2530   44.8230 F   0  0  0  0  0  0  0  0  0  0  0  0
   57.7170   33.4630   46.9570 C   0  0  0  0  0  0  0  0  0  0  0  0
   58.7380   33.2600   47.8900 C   0  0  0  0  0  0  0  0  0  0  0  0
   62.5960   33.5140   48.1800 C   0  0  0  0  0  0  0  0  0  0  0  0
   63.8444   33.5046   51.2791 H   0  0  0  0  0  0  0  0  0  0  0  0
   65.1220   33.9155   50.0850 H   0  0  0  0  0  0  0  0  0  0  0  0
   63.5688   34.8180   50.0850 H   0  0  0  0  0  0  0  0  0  0  0  0
   64.5130   32.3120   47.7030 H   0  0  0  0  0  0  0  0  0  0  0  0
   62.8123   30.8088   49.8507 H   0  0  0  0  0  0  0  0  0  0  0  0
   62.4547   32.0618   51.0648 H   0  0  0  0  0  0  0  0  0  0  0  0
   60.2757   32.0324   50.1089 H   0  0  0  0  0  0  0  0  0  0  0  0
   61.0386   28.1897   48.5072 H   0  0  0  0  0  0  0  0  0  0  0  0
   59.4657   27.8675   49.3092 H   0  0  0  0  0  0  0  0  0  0  0  0
   60.3037   26.1486   47.0790 H   0  0  0  0  0  0  0  0  0  0  0  0
   59.2591   25.5646   44.8894 H   0  0  0  0  0  0  0  0  0  0  0  0
   57.7120   27.1712   43.7713 H   0  0  0  0  0  0  0  0  0  0  0  0
   55.1490   28.6550   45.6300 H   0  0  0  0  0  0  0  0  0  0  0  0
   58.2431   29.9602   47.0404 H   0  0  0  0  0  0  0  0  0  0  0  0
   60.8959   34.2352   49.3269 H   0  0  0  0  0  0  0  0  0  0  0  0
   61.3547   34.5792   46.1225 H   0  0  0  0  0  0  0  0  0  0  0  0
   59.5290   34.9236   44.4618 H   0  0  0  0  0  0  0  0  0  0  0  0
   56.6871   33.1581   47.1944 H   0  0  0  0  0  0  0  0  0  0  0  0
   58.5003   32.8164   48.8681 H   0  0  0  0  0  0  0  0  0  0  0  0
   62.7216   33.0138   47.2084 H   0  0  0  0  0  0  0  0  0  0  0  0
   62.8993   34.5626   48.0444 H   0  0  0  0  0  0  0  0  0  0  0  0
  1  2  1  0
  2  3  1  6
  2  4  1  0
  4  5  1  0
  5  6  1  0
  6  7  2  0
  6  8  1  0
  8  9  1  0
  9 10  1  0
 10 11  2  0
 11 12  1  0
 12 13  2  0
 13 14  1  0
 14 15  1  0
 15 16  1  0
 15 17  2  0
 15 18  2  0
 14 19  2  0
  5 20  1  0
 20 21  1  0
 21 22  2  0
 22 23  1  0
 23 24  2  0
 24 25  1  0
 24 26  1  0
 26 27  2  0
 20 28  1  0
 28  2  1  0
 19 10  1  0
 27 21  1  0
  1 29  1  0
  1 30  1  0
  1 31  1  0
  3 32  1  0
  4 33  1  0
  4 34  1  0
  5 35  1  1
  9 36  1  0
  9 37  1  0
 11 38  1  0
 12 39  1  0
 13 40  1  0
 16 41  1  0
 19 42  1  0
 20 43  1  1
 22 44  1  0
 23 45  1  0
 26 46  1  0
 27 47  1  0
 28 48  1  0
 28 49  1  0
M  CHG  2   8  -1  16  -1
M  END
>  <UniqueID>  (81) 
76

>  <SMILES>  (81) 
C[C@]1(O)CC(c2ccc(F)cc2)[C@@H](C(=O)[N-]Cc2cccc(S([NH-])(=O)=O)c2)C1

>  <Energy>  (81) 
55.6916452021624

>  <Genealogy>  (81) 
CC1(O)CC(C(=O)[N-]Cc2cccc(S([NH-])(=O)=O)c2)C(c2ccc(F)cc2)C1 (protonated)
C[C@]1(O)CC(c2ccc(F)cc2)[C@@H](C(=O)[N-]Cc2cccc(S([NH-])(=O)=O)c2)C1 (chirality)
C[C@]1(O)CC(c2ccc(F)cc2)[C@@H](C(=O)[N-]Cc2cccc(S([NH-])(=O)=O)c2)C1 (3D coordinates assigned)
C[C@]1(O)CC(c2ccc(F)cc2)[C@@H](C(=O)[N-]Cc2cccc(S([NH-])(=O)=O)c2)C1 (nonaromatic ring conformer: 55.6916452021624 kcal/mol)

>  <smiles>  (81) 
CC1(O)CC(C(=O)NCc2cccc(S(N)(=O)=O)c2)C(c2ccc(F)cc2)C1

>  <score_type>  (81) 
oracle

>  <origin>  (81) 
adg

>  <m_score__min__energy>  (81) 
-13.31

>  <m_primary>  (81) 
energy

$$$$
81:0
     RDKit          3D

 58 61  0  0  0  0  0  0  0  0999 V2000
   55.8430   29.7250   43.5470 C   0  0  0  0  0  0  0  0  0  0  0  0
   56.8000   30.4670   44.4790 C   0  0  0  0  0  0  0  0  0  0  0  0
   57.5880   31.4690   43.7290 N   0  0  0  0  0  0  0  0  0  0  0  0
   57.3220   31.4010   42.2710 C   0  0  0  0  0  0  0  0  0  0  0  0
   58.1730   32.4110   41.5020 C   0  0  0  0  0  0  0  0  0  0  0  0
   57.4510   32.8350   44.2990 C   0  0  0  0  0  0  0  0  0  0  0  0
   58.2560   33.0640   45.5650 C   0  0  0  0  0  0  0  0  0  0  0  0
   58.8700   34.3050   45.8080 C   0  0  0  0  0  0  0  0  0  0  0  0
   59.6080   34.5140   46.9770 C   0  0  0  0  0  0  0  0  0  0  0  0
   59.7330   33.4920   47.9200 C   0  0  0  0  0  0  0  0  0  0  0  0
   59.1080   32.2530   47.7080 C   0  0  0  0  0  0  0  0  0  0  0  0
   59.2680   31.1500   48.7130 C   0  0  0  0  0  0  0  0  0  0  0  0
   60.2960   30.2250   48.2500 N   0  0  0  0  0  0  0  0  0  0  0  0
   60.3210   29.5790   46.9700 C   0  0  0  0  0  0  0  0  0  0  0  0
   61.2300   29.8930   46.1570 O   0  0  0  0  0  0  0  0  0  0  0  0
   59.3010   28.5940   46.5530 C   0  0  0  0  0  0  0  0  0  0  0  0
   59.1620   28.2690   45.1960 C   0  0  0  0  0  0  0  0  0  0  0  0
   58.2180   27.3220   44.7870 C   0  0  0  0  0  0  0  0  0  0  0  0
   57.4000   26.6740   45.7290 C   0  0  0  0  0  0  0  0  0  0  0  0
   56.3830   25.6460   45.2680 C   0  0  1  0  0  0  0  0  0  0  0  0
   57.0670   24.4610   44.5130 C   0  0  0  0  0  0  0  0  0  0  0  0
   57.4740   23.3650   45.4550 C   0  0  0  0  0  0  0  0  0  0  0  0
   58.3350   22.3060   45.2850 C   0  0  0  0  0  0  0  0  0  0  0  0
   58.2440   21.5010   46.3690 N   0  0  0  0  0  0  0  0  0  0  0  0
   57.3430   22.0030   47.2080 N   0  0  0  0  0  0  0  0  0  0  0  0
   56.8680   23.1280   46.6490 C   0  0  0  0  0  0  0  0  0  0  0  0
   55.8440   24.0240   47.1660 C   0  0  0  0  0  0  0  0  0  0  0  0
   55.2200   23.7690   48.2300 O   0  0  0  0  0  0  0  0  0  0  0  0
   55.5520   25.2050   46.4070 N   0  0  0  0  0  0  0  0  0  0  0  0
   57.5640   26.9800   47.0910 C   0  0  0  0  0  0  0  0  0  0  0  0
   58.5130   27.9220   47.5000 C   0  0  0  0  0  0  0  0  0  0  0  0
   58.3710   32.0450   46.5280 C   0  0  0  0  0  0  0  0  0  0  0  0
   55.1135   29.1594   44.1452 H   0  0  0  0  0  0  0  0  0  0  0  0
   55.3130   30.4505   42.9124 H   0  0  0  0  0  0  0  0  0  0  0  0
   56.4136   29.0310   42.9124 H   0  0  0  0  0  0  0  0  0  0  0  0
   56.2191   30.9767   45.2618 H   0  0  0  0  0  0  0  0  0  0  0  0
   57.4906   29.7389   44.9294 H   0  0  0  0  0  0  0  0  0  0  0  0
   57.5560   30.3882   41.9112 H   0  0  0  0  0  0  0  0  0  0  0  0
   56.2619   31.6401   42.1006 H   0  0  0  0  0  0  0  0  0  0  0  0
   58.7134   33.0524   42.2137 H   0  0  0  0  0  0  0  0  0  0  0  0
   58.8959   31.8751   40.8694 H   0  0  0  0  0  0  0  0  0  0  0  0
   57.5222   33.0325   40.8694 H   0  0  0  0  0  0  0  0  0  0  0  0
   57.7849   33.5599   43.5420 H   0  0  0  0  0  0  0  0  0  0  0  0
   56.3923   32.9597   44.5705 H   0  0  0  0  0  0  0  0  0  0  0  0
   58.7691   35.1174   45.0733 H   0  0  0  0  0  0  0  0  0  0  0  0
   60.0914   35.4861   47.1542 H   0  0  0  0  0  0  0  0  0  0  0  0
   60.3237   33.6584   48.8329 H   0  0  0  0  0  0  0  0  0  0  0  0
   59.5659   31.5759   49.6825 H   0  0  0  0  0  0  0  0  0  0  0  0
   58.3142   30.6146   48.8291 H   0  0  0  0  0  0  0  0  0  0  0  0
   59.8000   28.7625   44.4481 H   0  0  0  0  0  0  0  0  0  0  0  0
   58.1145   27.0819   43.7185 H   0  0  0  0  0  0  0  0  0  0  0  0
   55.7088   26.1153   44.5364 H   0  0  0  0  0  0  0  0  0  0  0  0
   56.3606   24.0531   43.7750 H   0  0  0  0  0  0  0  0  0  0  0  0
   57.9728   24.8446   44.0206 H   0  0  0  0  0  0  0  0  0  0  0  0
   58.9874   22.1412   44.4148 H   0  0  0  0  0  0  0  0  0  0  0  0
   56.9400   26.4737   47.8422 H   0  0  0  0  0  0  0  0  0  0  0  0
   58.6427   28.1377   48.5708 H   0  0  0  0  0  0  0  0  0  0  0  0
   57.8797   31.0759   46.3566 H   0  0  0  0  0  0  0  0  0  0  0  0
  1  2  1  0
  2  3  1  0
  3  4  1  0
  4  5  1  0
  3  6  1  0
  6  7  1  0
  7  8  2  0
  8  9  1  0
  9 10  2  0
 10 11  1  0
 11 12  1  0
 12 13  1  0
 13 14  1  0
 14 15  2  0
 14 16  1  0
 16 17  2  0
 17 18  1  0
 18 19  2  0
 19 20  1  0
 20 21  1  0
 21 22  1  0
 22 23  2  0
 23 24  1  0
 24 25  1  0
 25 26  2  0
 26 27  1  0
 27 28  2  0
 27 29  1  0
 19 30  1  0
 30 31  2  0
 11 32  2  0
 32  7  1  0
 31 16  1  0
 29 20  1  0
 26 22  1  0
  1 33  1  0
  1 34  1  0
  1 35  1  0
  2 36  1  0
  2 37  1  0
  4 38  1  0
  4 39  1  0
  5 40  1  0
  5 41  1  0
  5 42  1  0
  6 43  1  0
  6 44  1  0
  8 45  1  0
  9 46  1  0
 10 47  1  0
 12 48  1  0
 12 49  1  0
 17 50  1  0
 18 51  1  0
 20 52  1  6
 21 53  1  0
 21 54  1  0
 23 55  1  0
 30 56  1  0
 31 57  1  0
 32 58  1  0
M  CHG  3  13  -1  24  -1  29  -1
M  END
>  <UniqueID>  (82) 
77

>  <SMILES>  (82) 
CCN(CC)Cc1cccc(C[N-]C(=O)c2ccc([C@H]3Cc4c[n-]nc4C(=O)[N-]3)cc2)c1

>  <Energy>  (82) 
101.91553148855027

>  <Genealogy>  (82) 
CCN(CC)Cc1cccc(C[N-]C(=O)c2ccc(C3Cc4c[n-]nc4C(=O)[N-]3)cc2)c1 (protonated)
CCN(CC)Cc1cccc(C[N-]C(=O)c2ccc([C@H]3Cc4c[n-]nc4C(=O)[N-]3)cc2)c1 (chirality)
CCN(CC)Cc1cccc(C[N-]C(=O)c2ccc([C@H]3Cc4c[n-]nc4C(=O)[N-]3)cc2)c1 (3D coordinates assigned)
CCN(CC)Cc1cccc(C[N-]C(=O)c2ccc([C@H]3Cc4c[n-]nc4C(=O)[N-]3)cc2)c1 (nonaromatic ring conformer: 101.91553148855027 kcal/mol)

>  <smiles>  (82) 
CCN(CC)Cc1cccc(CNC(=O)c2ccc(C3Cc4c[nH]nc4C(=O)N3)cc2)c1

>  <score_type>  (82) 
oracle

>  <origin>  (82) 
adg

>  <m_score__min__energy>  (82) 
-14.050000000000001

>  <m_primary>  (82) 
energy

$$$$
82:0
     RDKit          3D

 63 67  0  0  0  0  0  0  0  0999 V2000
   55.6480   29.0690   44.9010 O   0  0  0  0  0  0  0  0  0  0  0  0
   56.5730   29.8120   44.4800 C   0  0  0  0  0  0  0  0  0  0  0  0
   56.3940   31.2280   44.3800 N   0  0  0  0  0  0  0  0  0  0  0  0
   57.2690   32.2330   44.9040 C   0  0  0  0  0  0  0  0  0  0  0  0
   57.5420   33.4300   44.2170 C   0  0  0  0  0  0  0  0  0  0  0  0
   58.2870   34.4390   44.8390 C   0  0  0  0  0  0  0  0  0  0  0  0
   58.7630   34.2640   46.1420 C   0  0  0  0  0  0  0  0  0  0  0  0
   58.5170   33.0590   46.8170 C   0  0  0  0  0  0  0  0  0  0  0  0
   58.9370   32.8890   48.2140 C   0  0  0  0  0  0  0  0  0  0  0  0
   58.4760   31.9320   48.8870 O   0  0  0  0  0  0  0  0  0  0  0  0
   59.8430   33.8130   48.8300 N   0  0  0  0  0  0  0  0  0  0  0  0
   61.2960   33.6410   48.8380 C   0  0  0  0  0  0  0  0  0  0  0  0
   61.7240   32.1760   48.9080 C   0  0  0  0  0  0  0  0  0  0  0  0
   62.3580   32.3010   47.5300 C   0  0  0  0  0  0  0  0  0  0  0  0
   61.8910   33.7480   47.4380 C   0  0  0  0  0  0  0  0  0  0  0  0
   57.8070   32.0330   46.1800 C   0  0  0  0  0  0  0  0  0  0  0  0
   57.8760   29.2660   44.2520 N   0  0  0  0  0  0  0  0  0  0  0  0
   58.7310   28.9340   45.3620 C   0  0  0  0  0  0  0  0  0  0  0  0
   58.4030   27.8970   46.2540 C   0  0  0  0  0  0  0  0  0  0  0  0
   59.1750   27.6720   47.3940 C   0  0  0  0  0  0  0  0  0  0  0  0
   60.2730   28.5010   47.6810 C   0  0  0  0  0  0  0  0  0  0  0  0
   61.0360   28.3400   48.8480 O   0  0  0  0  0  0  0  0  0  0  0  0
   60.6130   28.6700   50.1470 C   0  0  0  0  0  0  0  0  0  0  0  0
   61.4850   28.6280   51.2520 C   0  0  0  0  0  0  0  0  0  0  0  0
   60.9980   28.9450   52.5200 C   0  0  0  0  0  0  0  0  0  0  0  0
   59.6900   29.2750   52.6870 N   0  0  0  0  0  0  0  0  0  0  0  0
   58.8160   29.3170   51.6390 C   0  0  0  0  0  0  0  0  0  0  0  0
   57.5590   29.6040   51.8190 N   0  0  0  0  0  0  0  0  0  0  0  0
   57.0050   30.9180   51.9950 C   0  0  0  0  0  0  0  0  0  0  0  0
   55.8160   31.1190   51.6350 O   0  0  0  0  0  0  0  0  0  0  0  0
   57.8110   32.0550   52.4960 C   0  0  0  0  0  0  0  0  0  0  0  0
   58.1510   32.1310   53.8580 C   0  0  0  0  0  0  0  0  0  0  0  0
   58.8840   33.2190   54.3430 C   0  0  0  0  0  0  0  0  0  0  0  0
   59.2600   34.2520   53.4790 C   0  0  0  0  0  0  0  0  0  0  0  0
   58.9050   34.1950   52.1280 C   0  0  0  0  0  0  0  0  0  0  0  0
   58.1890   33.1030   51.6360 C   0  0  0  0  0  0  0  0  0  0  0  0
   59.2710   29.0030   50.3500 C   0  0  0  0  0  0  0  0  0  0  0  0
   60.6380   29.4960   46.7660 C   0  0  0  0  0  0  0  0  0  0  0  0
   59.8750   29.7090   45.6140 C   0  0  0  0  0  0  0  0  0  0  0  0
   57.1703   33.5730   43.1916 H   0  0  0  0  0  0  0  0  0  0  0  0
   58.4989   35.3741   44.2999 H   0  0  0  0  0  0  0  0  0  0  0  0
   59.3282   35.0681   46.6360 H   0  0  0  0  0  0  0  0  0  0  0  0
   61.5889   34.3408   49.6345 H   0  0  0  0  0  0  0  0  0  0  0  0
   62.4392   31.9543   49.7138 H   0  0  0  0  0  0  0  0  0  0  0  0
   60.9851   31.3875   49.1134 H   0  0  0  0  0  0  0  0  0  0  0  0
   63.4516   32.1822   47.5276 H   0  0  0  0  0  0  0  0  0  0  0  0
   62.1025   31.5846   46.7353 H   0  0  0  0  0  0  0  0  0  0  0  0
   62.7080   34.4795   47.3514 H   0  0  0  0  0  0  0  0  0  0  0  0
   61.2716   34.0817   46.5925 H   0  0  0  0  0  0  0  0  0  0  0  0
   57.6718   31.0654   46.6855 H   0  0  0  0  0  0  0  0  0  0  0  0
   58.3380   29.5390   43.3550 H   0  0  0  0  0  0  0  0  0  0  0  0
   57.5307   27.2583   46.0510 H   0  0  0  0  0  0  0  0  0  0  0  0
   58.9233   26.8424   48.0710 H   0  0  0  0  0  0  0  0  0  0  0  0
   62.5401   28.3479   51.1164 H   0  0  0  0  0  0  0  0  0  0  0  0
   61.6744   28.9279   53.3873 H   0  0  0  0  0  0  0  0  0  0  0  0
   57.8391   31.3310   54.5455 H   0  0  0  0  0  0  0  0  0  0  0  0
   59.1651   33.2620   55.4056 H   0  0  0  0  0  0  0  0  0  0  0  0
   59.8344   35.1085   53.8618 H   0  0  0  0  0  0  0  0  0  0  0  0
   59.1909   35.0134   51.4509 H   0  0  0  0  0  0  0  0  0  0  0  0
   57.9186   33.0611   50.5706 H   0  0  0  0  0  0  0  0  0  0  0  0
   58.5727   29.0188   49.5002 H   0  0  0  0  0  0  0  0  0  0  0  0
   61.5291   30.1129   46.9544 H   0  0  0  0  0  0  0  0  0  0  0  0
   60.1731   30.4900   44.8990 H   0  0  0  0  0  0  0  0  0  0  0  0
  1  2  2  0
  2  3  1  0
  3  4  1  0
  4  5  2  0
  5  6  1  0
  6  7  2  0
  7  8  1  0
  8  9  1  0
  9 10  2  0
  9 11  1  0
 11 12  1  0
 12 13  1  0
 13 14  1  0
 14 15  1  0
  8 16  2  0
  2 17  1  0
 17 18  1  0
 18 19  2  0
 19 20  1  0
 20 21  2  0
 21 22  1  0
 22 23  1  0
 23 24  1  0
 24 25  2  0
 25 26  1  0
 26 27  1  0
 27 28  2  3
 28 29  1  0
 29 30  2  0
 29 31  1  0
 31 32  2  0
 32 33  1  0
 33 34  2  0
 34 35  1  0
 35 36  2  0
 27 37  1  0
 21 38  1  0
 38 39  2  0
 16  4  1  0
 39 18  1  0
 15 12  1  0
 37 23  2  0
 36 31  1  0
  5 40  1  0
  6 41  1  0
  7 42  1  0
 12 43  1  0
 13 44  1  0
 13 45  1  0
 14 46  1  0
 14 47  1  0
 15 48  1  0
 15 49  1  0
 16 50  1  0
 17 51  1  0
 19 52  1  0
 20 53  1  0
 24 54  1  0
 25 55  1  0
 32 56  1  0
 33 57  1  0
 34 58  1  0
 35 59  1  0
 36 60  1  0
 37 61  1  0
 38 62  1  0
 39 63  1  0
M  CHG  3   3  -1  11  -1  26  -1
M  END
>  <UniqueID>  (83) 
78

>  <SMILES>  (83) 
O=C([N-]c1cccc(C(=O)[N-]C2CCC2)c1)Nc1ccc(Oc2cc[n-]c(=NC(=O)c3ccccc3)c2)cc1

>  <Energy>  (83) 
163.03735277346675

>  <Genealogy>  (83) 
O=C([N-]c1cccc(C(=O)[N-]C2CCC2)c1)Nc1ccc(Oc2cc[n-]c(=NC(=O)c3ccccc3)c2)cc1 (protonated)
O=C([N-]c1cccc(C(=O)[N-]C2CCC2)c1)Nc1ccc(Oc2cc[n-]c(=NC(=O)c3ccccc3)c2)cc1 (3D coordinates assigned)
O=C([N-]c1cccc(C(=O)[N-]C2CCC2)c1)Nc1ccc(Oc2cc[n-]c(=NC(=O)c3ccccc3)c2)cc1 (nonaromatic ring conformer: 163.03735277346675 kcal/mol)

>  <smiles>  (83) 
O=C(Nc1ccc(Oc2cc[nH]c(=NC(=O)c3ccccc3)c2)cc1)Nc1cccc(C(=O)NC2CCC2)c1

>  <score_type>  (83) 
oracle

>  <origin>  (83) 
adg

>  <m_score__min__energy>  (83) 
-13.73

>  <m_primary>  (83) 
energy

$$$$
83:0
     RDKit          3D

 53 55  0  0  0  0  0  0  0  0999 V2000
   58.2290   34.0660   46.2390 C   0  0  0  0  0  0  0  0  0  0  0  0
   57.7290   32.8050   46.9340 C   0  0  0  0  0  0  0  0  0  0  0  0
   58.5800   31.6200   46.5780 C   0  0  0  0  0  0  0  0  0  0  0  0
   59.6400   31.2370   47.3170 N   0  0  0  0  0  0  0  0  0  0  0  0
   60.1640   30.1750   46.7260 N   0  0  0  0  0  0  0  0  0  0  0  0
   59.4260   29.9330   45.6260 C   0  0  0  0  0  0  0  0  0  0  0  0
   59.7540   28.5610   44.5120 S   0  0  0  0  0  0  0  0  0  0  0  0
   60.1530   27.3570   45.8310 C   0  0  0  0  0  0  0  0  0  0  0  0
   59.2300   26.1790   45.7780 C   0  0  0  0  0  0  0  0  0  0  0  0
   59.6990   25.0180   45.9280 O   0  0  0  0  0  0  0  0  0  0  0  0
   57.8360   26.3740   45.4910 N   0  0  0  0  0  0  0  0  0  0  0  0
   56.9090   25.2910   45.3310 C   0  0  0  0  0  0  0  0  0  0  0  0
   57.3740   24.0620   44.8440 C   0  0  0  0  0  0  0  0  0  0  0  0
   56.4930   22.9880   44.6550 C   0  0  0  0  0  0  0  0  0  0  0  0
   57.0990   21.4360   44.0650 S   0  0  0  0  0  0  0  0  0  0  0  0
   56.3100   21.0340   42.8490 O   0  0  0  0  0  0  0  0  0  0  0  0
   58.5360   21.5960   43.6530 O   0  0  0  0  0  0  0  0  0  0  0  0
   56.9900   20.1660   45.2600 N   0  0  0  0  0  0  0  0  0  0  0  0
   55.6910   19.4960   45.2330 C   0  0  0  0  0  0  0  0  0  0  0  0
   55.4860   18.9070   46.6190 C   0  0  0  0  0  0  0  0  0  0  0  0
   56.4170   19.6940   47.5310 C   0  0  0  0  0  0  0  0  0  0  0  0
   57.1380   20.6780   46.6210 C   0  0  0  0  0  0  0  0  0  0  0  0
   55.1340   23.1500   44.9600 C   0  0  0  0  0  0  0  0  0  0  0  0
   54.6590   24.3790   45.4240 C   0  0  0  0  0  0  0  0  0  0  0  0
   55.5360   25.4540   45.5990 C   0  0  0  0  0  0  0  0  0  0  0  0
   55.0330   26.6820   46.0120 O   0  0  0  0  0  0  0  0  0  0  0  0
   58.4150   30.8170   45.5000 N   0  0  0  0  0  0  0  0  0  0  0  0
   57.3480   30.8330   44.4940 C   0  0  0  0  0  0  0  0  0  0  0  0
   57.7330   31.6880   43.2910 C   0  0  0  0  0  0  0  0  0  0  0  0
   58.5236   34.8089   46.9948 H   0  0  0  0  0  0  0  0  0  0  0  0
   59.0970   33.8185   45.6103 H   0  0  0  0  0  0  0  0  0  0  0  0
   57.4272   34.4806   45.6103 H   0  0  0  0  0  0  0  0  0  0  0  0
   57.7621   32.9574   48.0229 H   0  0  0  0  0  0  0  0  0  0  0  0
   56.6986   32.6081   46.6032 H   0  0  0  0  0  0  0  0  0  0  0  0
   61.1883   27.0092   45.6997 H   0  0  0  0  0  0  0  0  0  0  0  0
   60.0341   27.8523   46.8059 H   0  0  0  0  0  0  0  0  0  0  0  0
   57.5270   27.3240   45.1820 H   0  0  0  0  0  0  0  0  0  0  0  0
   58.4412   23.9387   44.6076 H   0  0  0  0  0  0  0  0  0  0  0  0
   54.8941   20.2191   45.0048 H   0  0  0  0  0  0  0  0  0  0  0  0
   55.6596   18.7157   44.4583 H   0  0  0  0  0  0  0  0  0  0  0  0
   54.4404   19.0282   46.9385 H   0  0  0  0  0  0  0  0  0  0  0  0
   55.7029   17.8289   46.6429 H   0  0  0  0  0  0  0  0  0  0  0  0
   55.8404   20.2311   48.2985 H   0  0  0  0  0  0  0  0  0  0  0  0
   57.1212   19.0367   48.0621 H   0  0  0  0  0  0  0  0  0  0  0  0
   56.6831   21.6761   46.7036 H   0  0  0  0  0  0  0  0  0  0  0  0
   58.1983   20.7740   46.8979 H   0  0  0  0  0  0  0  0  0  0  0  0
   54.4395   22.3064   44.8335 H   0  0  0  0  0  0  0  0  0  0  0  0
   53.5901   24.5017   45.6528 H   0  0  0  0  0  0  0  0  0  0  0  0
   57.1588   29.8035   44.1560 H   0  0  0  0  0  0  0  0  0  0  0  0
   56.4457   31.2644   44.9519 H   0  0  0  0  0  0  0  0  0  0  0  0
   58.1614   32.6394   43.6394 H   0  0  0  0  0  0  0  0  0  0  0  0
   58.4766   31.1519   42.6830 H   0  0  0  0  0  0  0  0  0  0  0  0
   56.8387   31.8894   42.6830 H   0  0  0  0  0  0  0  0  0  0  0  0
  1  2  1  0
  2  3  1  0
  3  4  2  0
  4  5  1  0
  5  6  2  0
  6  7  1  0
  7  8  1  0
  8  9  1  0
  9 10  2  0
  9 11  1  0
 11 12  1  0
 12 13  2  0
 13 14  1  0
 14 15  1  0
 15 16  2  0
 15 17  2  0
 15 18  1  0
 18 19  1  0
 19 20  1  0
 20 21  1  0
 21 22  1  0
 14 23  2  0
 23 24  1  0
 24 25  2  0
 25 26  1  0
  6 27  1  0
 27 28  1  0
 28 29  1  0
 27  3  1  0
 25 12  1  0
 22 18  1  0
  1 30  1  0
  1 31  1  0
  1 32  1  0
  2 33  1  0
  2 34  1  0
  8 35  1  0
  8 36  1  0
 11 37  1  0
 13 38  1  0
 19 39  1  0
 19 40  1  0
 20 41  1  0
 20 42  1  0
 21 43  1  0
 21 44  1  0
 22 45  1  0
 22 46  1  0
 23 47  1  0
 24 48  1  0
 28 49  1  0
 28 50  1  0
 29 51  1  0
 29 52  1  0
 29 53  1  0
M  CHG  1  26  -1
M  END
>  <UniqueID>  (84) 
79

>  <SMILES>  (84) 
CCc1nnc(SCC(=O)Nc2cc(S(=O)(=O)N3CCCC3)ccc2[O-])n1CC

>  <Energy>  (84) 
82.329604574288

>  <Genealogy>  (84) 
CCc1nnc(SCC(=O)Nc2cc(S(=O)(=O)N3CCCC3)ccc2[O-])n1CC (protonated)
CCc1nnc(SCC(=O)Nc2cc(S(=O)(=O)N3CCCC3)ccc2[O-])n1CC (3D coordinates assigned)
CCc1nnc(SCC(=O)Nc2cc(S(=O)(=O)N3CCCC3)ccc2[O-])n1CC (nonaromatic ring conformer: 82.329604574288 kcal/mol)

>  <smiles>  (84) 
CCc1nnc(SCC(=O)Nc2cc(S(=O)(=O)N3CCCC3)ccc2O)n1CC

>  <score_type>  (84) 
oracle

>  <origin>  (84) 
adg

>  <m_score__min__energy>  (84) 
-11.76

>  <m_primary>  (84) 
energy

$$$$
84:0
     RDKit          3D

 47 50  0  0  0  0  0  0  0  0999 V2000
   54.4160   25.8560   45.9300 N   0  0  0  0  0  0  0  0  0  0  0  0
   55.7950   25.6270   45.6480 C   0  0  0  0  0  0  0  0  0  0  0  0
   56.1170   24.6300   44.9480 O   0  0  0  0  0  0  0  0  0  0  0  0
   56.8320   26.5520   46.1700 C   0  0  0  0  0  0  0  0  0  0  0  0
   56.8950   27.8790   45.7140 C   0  0  0  0  0  0  0  0  0  0  0  0
   57.8430   28.7280   46.1880 N   0  0  0  0  0  0  0  0  0  0  0  0
   58.7710   28.3480   47.1090 C   0  0  0  0  0  0  0  0  0  0  0  0
   59.7680   29.3430   47.5850 C   0  0  0  0  0  0  0  0  0  0  0  0
   60.7730   29.7520   46.7830 C   0  0  0  0  0  0  0  0  0  0  0  0
   61.8070   30.7650   47.2010 C   0  0  0  0  0  0  0  0  0  0  0  0
   61.7440   31.0440   48.6370 N   0  0  0  0  0  0  0  0  0  0  0  0
   62.8710   31.6510   49.2860 C   0  0  0  0  0  0  0  0  0  0  0  0
   63.6940   30.9320   49.9130 O   0  0  0  0  0  0  0  0  0  0  0  0
   63.0990   33.0590   49.2020 N   0  0  0  0  0  0  0  0  0  0  0  0
   63.8300   33.6870   48.1070 C   0  0  1  0  0  0  0  0  0  0  0  0
   63.7670   32.8900   46.8170 C   0  0  0  0  0  0  0  0  0  0  0  0
   62.9610   34.1820   46.9490 C   0  0  1  0  0  0  0  0  0  0  0  0
   61.4690   34.0010   47.0760 C   0  0  0  0  0  0  0  0  0  0  0  0
   60.8140   34.3970   48.2530 C   0  0  0  0  0  0  0  0  0  0  0  0
   59.4240   34.2800   48.3590 C   0  0  0  0  0  0  0  0  0  0  0  0
   58.6790   33.7880   47.2840 C   0  0  0  0  0  0  0  0  0  0  0  0
   59.3200   33.4230   46.0980 C   0  0  0  0  0  0  0  0  0  0  0  0
   60.7100   33.5380   45.9880 C   0  0  0  0  0  0  0  0  0  0  0  0
   60.4250   31.1260   49.2580 C   0  0  0  0  0  0  0  0  0  0  0  0
   59.6800   29.8140   49.0230 C   0  0  0  0  0  0  0  0  0  0  0  0
   58.7360   27.0340   47.6060 C   0  0  0  0  0  0  0  0  0  0  0  0
   57.7720   26.1380   47.1350 C   0  0  0  0  0  0  0  0  0  0  0  0
   57.7610   24.8760   47.6330 F   0  0  0  0  0  0  0  0  0  0  0  0
   53.8000   26.3450   45.2420 H   0  0  0  0  0  0  0  0  0  0  0  0
   56.1702   28.2336   44.9664 H   0  0  0  0  0  0  0  0  0  0  0  0
   60.8409   29.3239   45.7720 H   0  0  0  0  0  0  0  0  0  0  0  0
   62.8064   30.3753   46.9573 H   0  0  0  0  0  0  0  0  0  0  0  0
   61.6061   31.7021   46.6610 H   0  0  0  0  0  0  0  0  0  0  0  0
   64.6242   34.1391   48.7192 H   0  0  0  0  0  0  0  0  0  0  0  0
   64.6414   32.8539   46.1505 H   0  0  0  0  0  0  0  0  0  0  0  0
   63.5262   31.8480   46.5596 H   0  0  0  0  0  0  0  0  0  0  0  0
   62.8831   35.1288   46.3946 H   0  0  0  0  0  0  0  0  0  0  0  0
   61.3958   34.8007   49.0947 H   0  0  0  0  0  0  0  0  0  0  0  0
   58.9170   34.5756   49.2894 H   0  0  0  0  0  0  0  0  0  0  0  0
   57.5871   33.6881   47.3719 H   0  0  0  0  0  0  0  0  0  0  0  0
   58.7312   33.0446   45.2493 H   0  0  0  0  0  0  0  0  0  0  0  0
   61.2101   33.2651   45.0470 H   0  0  0  0  0  0  0  0  0  0  0  0
   60.5367   31.2978   50.3388 H   0  0  0  0  0  0  0  0  0  0  0  0
   59.8582   31.9585   48.8158 H   0  0  0  0  0  0  0  0  0  0  0  0
   60.1141   29.0409   49.6741 H   0  0  0  0  0  0  0  0  0  0  0  0
   58.6183   29.9882   49.2521 H   0  0  0  0  0  0  0  0  0  0  0  0
   59.4653   26.7114   48.3637 H   0  0  0  0  0  0  0  0  0  0  0  0
  1  2  1  0
  2  3  2  0
  2  4  1  0
  4  5  2  0
  5  6  1  0
  6  7  2  0
  7  8  1  0
  8  9  2  0
  9 10  1  0
 10 11  1  0
 11 12  1  0
 12 13  2  0
 12 14  1  0
 14 15  1  0
 15 16  1  0
 16 17  1  0
 17 18  1  0
 18 19  2  0
 19 20  1  0
 20 21  2  0
 21 22  1  0
 22 23  2  0
 11 24  1  0
 24 25  1  0
  7 26  1  0
 26 27  2  0
 27 28  1  0
 27  4  1  0
 25  8  1  0
 17 15  1  0
 23 18  1  0
  1 29  1  0
  5 30  1  0
  9 31  1  0
 10 32  1  0
 10 33  1  0
 15 34  1  1
 16 35  1  0
 16 36  1  0
 17 37  1  6
 19 38  1  0
 20 39  1  0
 21 40  1  0
 22 41  1  0
 23 42  1  0
 24 43  1  0
 24 44  1  0
 25 45  1  0
 25 46  1  0
 26 47  1  0
M  CHG  2   1  -1  14  -1
M  END
>  <UniqueID>  (85) 
80

>  <SMILES>  (85) 
[NH-]C(=O)c1cnc(C2=CCN(C(=O)[N-][C@H]3C[C@H]3c3ccccc3)CC2)cc1F

>  <Energy>  (85) 
327.24385341254924

>  <Genealogy>  (85) 
[NH-]C(=O)c1cnc(C2=CCN(C(=O)[N-]C3CC3c3ccccc3)CC2)cc1F (protonated)
[NH-]C(=O)c1cnc(C2=CCN(C(=O)[N-][C@H]3C[C@H]3c3ccccc3)CC2)cc1F (chirality)
[NH-]C(=O)c1cnc(C2=CCN(C(=O)[N-][C@H]3C[C@H]3c3ccccc3)CC2)cc1F (3D coordinates assigned)
[NH-]C(=O)c1cnc(C2=CCN(C(=O)[N-][C@H]3C[C@H]3c3ccccc3)CC2)cc1F (nonaromatic ring conformer: 327.24385341254924 kcal/mol)

>  <smiles>  (85) 
NC(=O)c1cnc(C2=CCN(C(=O)NC3CC3c3ccccc3)CC2)cc1F

>  <score_type>  (85) 
oracle

>  <origin>  (85) 
adg

>  <m_score__min__energy>  (85) 
-11.27

>  <m_primary>  (85) 
energy

$$$$
85:0
     RDKit          3D

 65 68  0  0  0  0  0  0  0  0999 V2000
   60.8820   29.0550   47.8920 O   0  0  0  0  0  0  0  0  0  0  0  0
   59.6220   29.0280   47.9610 C   0  0  0  0  0  0  0  0  0  0  0  0
   58.9350   30.0260   48.7310 N   0  0  0  0  0  0  0  0  0  0  0  0
   59.6720   30.9440   49.6040 C   0  0  0  0  0  0  0  0  0  0  0  0
   59.8330   32.3040   48.9850 C   0  0  0  0  0  0  0  0  0  0  0  0
   59.8840   33.3300   49.7190 O   0  0  0  0  0  0  0  0  0  0  0  0
   59.8830   32.4640   47.5550 N   0  0  0  0  0  0  0  0  0  0  0  0
   61.1760   32.4760   46.8290 C   0  0  0  0  0  0  0  0  0  0  0  0
   61.7500   33.8900   46.6670 C   0  0  0  0  0  0  0  0  0  0  0  0
   63.1560   33.8570   47.2530 C   0  0  0  0  0  0  0  0  0  0  0  0
   63.5580   32.3930   47.2850 C   0  0  0  0  0  0  0  0  0  0  0  0
   62.2650   31.6300   47.5040 C   0  0  0  0  0  0  0  0  0  0  0  0
   58.6000   32.3870   46.8300 C   0  0  1  0  0  0  0  0  0  0  0  0
   58.1640   33.7530   46.2570 C   0  0  0  0  0  0  0  0  0  0  0  0
   57.0680   33.5020   45.2260 C   0  0  0  0  0  0  0  0  0  0  0  0
   57.4400   31.9210   44.5260 S   0  0  0  0  0  0  0  0  0  0  0  0
   56.2280   31.0320   44.4950 O   0  0  0  0  0  0  0  0  0  0  0  0
   58.0390   32.0520   43.1530 O   0  0  0  0  0  0  0  0  0  0  0  0
   58.6350   31.3520   45.6980 C   0  0  0  0  0  0  0  0  0  0  0  0
   58.8790   27.9730   47.2280 C   0  0  0  0  0  0  0  0  0  0  0  0
   57.8140   28.2940   46.3680 C   0  0  0  0  0  0  0  0  0  0  0  0
   57.1200   27.2880   45.6920 C   0  0  0  0  0  0  0  0  0  0  0  0
   57.4660   25.9370   45.8660 C   0  0  0  0  0  0  0  0  0  0  0  0
   56.7100   24.8350   45.1430 C   0  0  0  0  0  0  0  0  0  0  0  0
   56.8210   23.4690   45.8800 C   0  0  0  0  0  0  0  0  0  0  0  0
   57.6920   22.4530   45.1290 C   0  0  0  0  0  0  0  0  0  0  0  0
   57.1850   22.2090   43.6950 C   0  0  0  0  0  0  0  0  0  0  0  0
   56.6190   23.4720   43.0110 C   0  0  0  0  0  0  0  0  0  0  0  0
   57.1370   24.7610   43.6590 C   0  0  0  0  0  0  0  0  0  0  0  0
   58.5200   25.6140   46.7370 C   0  0  0  0  0  0  0  0  0  0  0  0
   59.2160   26.6210   47.4120 C   0  0  0  0  0  0  0  0  0  0  0  0
   57.8960   30.1000   48.6560 H   0  0  0  0  0  0  0  0  0  0  0  0
   59.1246   31.0482   50.5524 H   0  0  0  0  0  0  0  0  0  0  0  0
   60.6757   30.5246   49.7673 H   0  0  0  0  0  0  0  0  0  0  0  0
   60.9244   32.0449   45.8488 H   0  0  0  0  0  0  0  0  0  0  0  0
   61.7885   34.1647   45.6025 H   0  0  0  0  0  0  0  0  0  0  0  0
   61.1232   34.6345   47.1797 H   0  0  0  0  0  0  0  0  0  0  0  0
   63.8485   34.4304   46.6192 H   0  0  0  0  0  0  0  0  0  0  0  0
   63.1865   34.3067   48.2564 H   0  0  0  0  0  0  0  0  0  0  0  0
   64.0223   32.0996   46.3319 H   0  0  0  0  0  0  0  0  0  0  0  0
   64.2959   32.1865   48.0742 H   0  0  0  0  0  0  0  0  0  0  0  0
   62.3220   30.6342   47.0403 H   0  0  0  0  0  0  0  0  0  0  0  0
   62.0580   31.4721   48.5727 H   0  0  0  0  0  0  0  0  0  0  0  0
   57.8601   32.0689   47.5793 H   0  0  0  0  0  0  0  0  0  0  0  0
   57.7774   34.3910   47.0654 H   0  0  0  0  0  0  0  0  0  0  0  0
   59.0195   34.2627   45.7897 H   0  0  0  0  0  0  0  0  0  0  0  0
   56.0801   33.4866   45.7096 H   0  0  0  0  0  0  0  0  0  0  0  0
   57.0353   34.2920   44.4612 H   0  0  0  0  0  0  0  0  0  0  0  0
   58.3627   30.3555   46.0759 H   0  0  0  0  0  0  0  0  0  0  0  0
   59.6372   31.2561   45.2548 H   0  0  0  0  0  0  0  0  0  0  0  0
   57.5251   29.3459   46.2265 H   0  0  0  0  0  0  0  0  0  0  0  0
   56.2942   27.5558   45.0165 H   0  0  0  0  0  0  0  0  0  0  0  0
   55.6398   25.0888   45.1562 H   0  0  0  0  0  0  0  0  0  0  0  0
   57.2605   23.6412   46.8736 H   0  0  0  0  0  0  0  0  0  0  0  0
   55.8071   23.0477   45.9476 H   0  0  0  0  0  0  0  0  0  0  0  0
   58.7225   22.8348   45.0815 H   0  0  0  0  0  0  0  0  0  0  0  0
   57.6470   21.4980   45.6731 H   0  0  0  0  0  0  0  0  0  0  0  0
   58.0233   21.8331   43.0900 H   0  0  0  0  0  0  0  0  0  0  0  0
   56.3593   21.4857   43.7658 H   0  0  0  0  0  0  0  0  0  0  0  0
   56.9148   23.4641   41.9515 H   0  0  0  0  0  0  0  0  0  0  0  0
   55.5246   23.4544   43.1205 H   0  0  0  0  0  0  0  0  0  0  0  0
   58.2351   24.7802   43.5976 H   0  0  0  0  0  0  0  0  0  0  0  0
   56.7103   25.6224   43.1243 H   0  0  0  0  0  0  0  0  0  0  0  0
   58.7996   24.5610   46.8889 H   0  0  0  0  0  0  0  0  0  0  0  0
   60.0360   26.3525   48.0943 H   0  0  0  0  0  0  0  0  0  0  0  0
  1  2  2  0
  2  3  1  0
  3  4  1  0
  4  5  1  0
  5  6  2  0
  5  7  1  0
  7  8  1  0
  8  9  1  0
  9 10  1  0
 10 11  1  0
 11 12  1  0
  7 13  1  0
 13 14  1  0
 14 15  1  0
 15 16  1  0
 16 17  2  0
 16 18  2  0
 16 19  1  0
  2 20  1  0
 20 21  2  0
 21 22  1  0
 22 23  2  0
 23 24  1  0
 24 25  1  0
 25 26  1  0
 26 27  1  0
 27 28  1  0
 28 29  1  0
 23 30  1  0
 30 31  2  0
 12  8  1  0
 19 13  1  0
 31 20  1  0
 29 24  1  0
  3 32  1  0
  4 33  1  0
  4 34  1  0
  8 35  1  0
  9 36  1  0
  9 37  1  0
 10 38  1  0
 10 39  1  0
 11 40  1  0
 11 41  1  0
 12 42  1  0
 12 43  1  0
 13 44  1  1
 14 45  1  0
 14 46  1  0
 15 47  1  0
 15 48  1  0
 19 49  1  0
 19 50  1  0
 21 51  1  0
 22 52  1  0
 24 53  1  0
 25 54  1  0
 25 55  1  0
 26 56  1  0
 26 57  1  0
 27 58  1  0
 27 59  1  0
 28 60  1  0
 28 61  1  0
 29 62  1  0
 29 63  1  0
 30 64  1  0
 31 65  1  0
M  END
>  <UniqueID>  (86) 
81

>  <SMILES>  (86) 
O=C(NCC(=O)N(C1CCCC1)[C@H]1CCS(=O)(=O)C1)c1ccc(C2CCCCC2)cc1

>  <Energy>  (86) 
75.56602955816874

>  <Genealogy>  (86) 
O=C(NCC(=O)N(C1CCCC1)[C@H]1CCS(=O)(=O)C1)c1ccc(C2CCCCC2)cc1 (chirality)
O=C(NCC(=O)N(C1CCCC1)[C@H]1CCS(=O)(=O)C1)c1ccc(C2CCCCC2)cc1 (3D coordinates assigned)
O=C(NCC(=O)N(C1CCCC1)[C@H]1CCS(=O)(=O)C1)c1ccc(C2CCCCC2)cc1 (nonaromatic ring conformer: 75.56602955816874 kcal/mol)

>  <smiles>  (86) 
O=C(NCC(=O)N(C1CCCC1)C1CCS(=O)(=O)C1)c1ccc(C2CCCCC2)cc1

>  <score_type>  (86) 
oracle

>  <origin>  (86) 
adg

>  <m_score__min__energy>  (86) 
-10.15

>  <m_primary>  (86) 
energy

$$$$
86:0
     RDKit          3D

 50 52  0  0  0  0  0  0  0  0999 V2000
   64.6880   32.8960   49.4300 C   0  0  0  0  0  0  0  0  0  0  0  0
   63.8120   32.3060   48.6200 C   0  0  0  0  0  0  0  0  0  0  0  0
   62.9380   33.0670   47.7080 C   0  0  0  0  0  0  0  0  0  0  0  0
   63.4330   33.7040   46.7370 O   0  0  0  0  0  0  0  0  0  0  0  0
   61.5240   33.1130   47.9590 N   0  0  0  0  0  0  0  0  0  0  0  0
   60.5540   33.6010   47.0160 C   0  0  0  0  0  0  0  0  0  0  0  0
   60.4170   34.9750   46.7500 C   0  0  0  0  0  0  0  0  0  0  0  0
   59.4860   35.4220   45.8110 C   0  0  0  0  0  0  0  0  0  0  0  0
   58.6930   34.5050   45.1170 C   0  0  0  0  0  0  0  0  0  0  0  0
   58.8300   33.1270   45.3510 C   0  0  0  0  0  0  0  0  0  0  0  0
   58.0000   32.1560   44.6070 C   0  0  0  0  0  0  0  0  0  0  0  0
   58.0830   31.9620   43.2750 N   0  0  0  0  0  0  0  0  0  0  0  0
   57.2080   31.0390   43.0160 O   0  0  0  0  0  0  0  0  0  0  0  0
   56.6100   30.6700   44.1210 C   0  0  0  0  0  0  0  0  0  0  0  0
   55.5500   29.6480   44.2160 C   0  0  0  0  0  0  0  0  0  0  0  0
   54.6000   29.6880   43.3900 O   0  0  0  0  0  0  0  0  0  0  0  0
   55.5530   28.6070   45.2020 N   0  0  0  0  0  0  0  0  0  0  0  0
   56.6400   27.6720   45.5000 C   0  0  1  0  0  0  0  0  0  0  0  0
   57.7690   28.3640   46.2940 C   0  0  0  0  0  0  0  0  0  0  0  0
   59.0690   28.3900   45.5440 C   0  0  0  0  0  0  0  0  0  0  0  0
   59.4180   29.5280   44.7580 N   0  0  0  0  0  0  0  0  0  0  0  0
   59.8450   27.3980   45.5900 O   0  0  0  0  0  0  0  0  0  0  0  0
   56.1050   26.4930   46.2630 C   0  0  0  0  0  0  0  0  0  0  0  0
   56.8400   25.8890   47.0900 O   0  0  0  0  0  0  0  0  0  0  0  0
   54.7720   26.0320   45.9930 N   0  0  0  0  0  0  0  0  0  0  0  0
   54.3530   24.6770   45.6190 C   0  0  0  0  0  0  0  0  0  0  0  0
   54.7840   23.5970   46.6050 C   0  0  0  0  0  0  0  0  0  0  0  0
   55.6440   22.9600   45.5170 C   0  0  0  0  0  0  0  0  0  0  0  0
   55.2130   24.0420   44.5310 C   0  0  0  0  0  0  0  0  0  0  0  0
   57.0750   31.3590   45.1820 N   0  0  0  0  0  0  0  0  0  0  0  0
   59.7700   32.6840   46.2990 C   0  0  0  0  0  0  0  0  0  0  0  0
   65.3198   32.2875   50.0937 H   0  0  0  0  0  0  0  0  0  0  0  0
   64.7802   33.9921   49.4357 H   0  0  0  0  0  0  0  0  0  0  0  0
   63.7371   31.2086   48.6313 H   0  0  0  0  0  0  0  0  0  0  0  0
   61.1890   32.8420   48.9110 H   0  0  0  0  0  0  0  0  0  0  0  0
   61.0468   35.7013   47.2847 H   0  0  0  0  0  0  0  0  0  0  0  0
   59.3765   36.4992   45.6170 H   0  0  0  0  0  0  0  0  0  0  0  0
   57.9569   34.8644   44.3829 H   0  0  0  0  0  0  0  0  0  0  0  0
   57.0666   27.3209   44.5488 H   0  0  0  0  0  0  0  0  0  0  0  0
   57.4653   29.3992   46.5089 H   0  0  0  0  0  0  0  0  0  0  0  0
   57.9284   27.7883   47.2176 H   0  0  0  0  0  0  0  0  0  0  0  0
   58.6820   30.1280   44.3280 H   0  0  0  0  0  0  0  0  0  0  0  0
   53.2842   24.8667   45.4411 H   0  0  0  0  0  0  0  0  0  0  0  0
   55.3543   23.9751   47.4663 H   0  0  0  0  0  0  0  0  0  0  0  0
   54.0340   23.0014   47.1461 H   0  0  0  0  0  0  0  0  0  0  0  0
   56.7212   22.9606   45.7399 H   0  0  0  0  0  0  0  0  0  0  0  0
   55.5183   21.8972   45.2629 H   0  0  0  0  0  0  0  0  0  0  0  0
   56.0348   24.6812   44.1759 H   0  0  0  0  0  0  0  0  0  0  0  0
   54.7761   23.7715   43.5584 H   0  0  0  0  0  0  0  0  0  0  0  0
   59.8921   31.6060   46.4805 H   0  0  0  0  0  0  0  0  0  0  0  0
  1  2  2  0
  2  3  1  0
  3  4  2  0
  3  5  1  0
  5  6  1  0
  6  7  2  0
  7  8  1  0
  8  9  2  0
  9 10  1  0
 10 11  1  0
 11 12  2  0
 12 13  1  0
 13 14  1  0
 14 15  1  0
 15 16  2  0
 15 17  1  0
 17 18  1  0
 18 19  1  0
 19 20  1  0
 20 21  1  0
 20 22  2  0
 18 23  1  0
 23 24  2  0
 23 25  1  0
 25 26  1  0
 26 27  1  0
 27 28  1  0
 28 29  1  0
 14 30  2  0
 10 31  2  0
 31  6  1  0
 30 11  1  0
 29 26  1  0
  1 32  1  0
  1 33  1  0
  2 34  1  0
  5 35  1  0
  7 36  1  0
  8 37  1  0
  9 38  1  0
 18 39  1  6
 19 40  1  0
 19 41  1  0
 21 42  1  0
 26 43  1  0
 27 44  1  0
 27 45  1  0
 28 46  1  0
 28 47  1  0
 29 48  1  0
 29 49  1  0
 31 50  1  0
M  CHG  3  17  -1  21  -1  25  -1
M  END
>  <UniqueID>  (87) 
82

>  <SMILES>  (87) 
C=CC(=O)Nc1cccc(-c2noc(C(=O)[N-][C@@H](CC([NH-])=O)C(=O)[N-]C3CCC3)n2)c1

>  <Energy>  (87) 
143.03396338476523

>  <Genealogy>  (87) 
C=CC(=O)Nc1cccc(-c2noc(C(=O)[N-]C(CC([NH-])=O)C(=O)[N-]C3CCC3)n2)c1 (protonated)
C=CC(=O)Nc1cccc(-c2noc(C(=O)[N-][C@@H](CC([NH-])=O)C(=O)[N-]C3CCC3)n2)c1 (chirality)
C=CC(=O)Nc1cccc(-c2noc(C(=O)[N-][C@@H](CC([NH-])=O)C(=O)[N-]C3CCC3)n2)c1 (3D coordinates assigned)
C=CC(=O)Nc1cccc(-c2noc(C(=O)[N-][C@@H](CC([NH-])=O)C(=O)[N-]C3CCC3)n2)c1 (nonaromatic ring conformer: 143.03396338476523 kcal/mol)

>  <smiles>  (87) 
C=CC(=O)Nc1cccc(-c2noc(C(=O)NC(CC(N)=O)C(=O)NC3CCC3)n2)c1

>  <score_type>  (87) 
oracle

>  <origin>  (87) 
adg

>  <m_score__min__energy>  (87) 
-15.779999999999999

>  <m_primary>  (87) 
energy

$$$$
87:0
     RDKit          3D

 66 69  0  0  0  0  0  0  0  0999 V2000
   59.7470   27.1140   46.7230 O   0  0  0  0  0  0  0  0  0  0  0  0
   58.5560   27.5190   46.6870 C   0  0  0  0  0  0  0  0  0  0  0  0
   57.5140   26.6550   47.1520 N   0  0  0  0  0  0  0  0  0  0  0  0
   56.3930   25.8400   46.1090 S   0  0  0  0  0  0  0  0  0  0  0  0
   56.0400   24.5220   46.7360 O   0  0  0  0  0  0  0  0  0  0  0  0
   55.1420   26.6640   45.9910 O   0  0  0  0  0  0  0  0  0  0  0  0
   57.0690   25.5400   44.4830 C   0  0  0  0  0  0  0  0  0  0  0  0
   57.2650   24.0650   44.2630 C   0  0  0  0  0  0  0  0  0  0  0  0
   58.2270   23.3590   45.0040 C   0  0  0  0  0  0  0  0  0  0  0  0
   58.3870   21.9820   44.8190 C   0  0  0  0  0  0  0  0  0  0  0  0
   57.5880   21.3020   43.8960 C   0  0  0  0  0  0  0  0  0  0  0  0
   56.6220   21.9950   43.1630 C   0  0  0  0  0  0  0  0  0  0  0  0
   56.4560   23.3720   43.3470 C   0  0  0  0  0  0  0  0  0  0  0  0
   58.2590   28.8390   46.1020 C   0  0  0  0  0  0  0  0  0  0  0  0
   57.5670   28.9000   44.8850 C   0  0  0  0  0  0  0  0  0  0  0  0
   57.3140   30.1290   44.2720 C   0  0  0  0  0  0  0  0  0  0  0  0
   57.7620   31.3240   44.8590 C   0  0  0  0  0  0  0  0  0  0  0  0
   57.5000   32.5950   44.2330 N   0  0  0  0  0  0  0  0  0  0  0  0
   57.9200   32.8340   43.0820 O   0  0  0  0  0  0  0  0  0  0  0  0
   56.7790   33.5650   44.8900 O   0  0  0  0  0  0  0  0  0  0  0  0
   58.4670   31.2630   46.0730 C   0  0  0  0  0  0  0  0  0  0  0  0
   58.7170   30.0340   46.7000 C   0  0  0  0  0  0  0  0  0  0  0  0
   59.3980   30.0260   47.9640 N   0  0  0  0  0  0  0  0  0  0  0  0
   60.7390   29.4540   48.0740 C   0  0  0  0  0  0  0  0  0  0  0  0
   60.9270   28.7630   49.4370 C   0  0  0  0  0  0  0  0  0  0  0  0
   60.4270   29.5640   50.5820 N   0  0  0  0  0  0  0  0  0  0  0  0
   61.2910   30.6810   50.9420 C   0  0  0  0  0  0  0  0  0  0  0  0
   61.1500   31.2730   52.0040 O   0  0  0  0  0  0  0  0  0  0  0  0
   62.4000   31.1180   50.0200 C   0  0  0  0  0  0  0  0  0  0  0  0
   62.5010   32.6470   49.9740 C   0  0  0  0  0  0  0  0  0  0  0  0
   61.6780   33.1960   48.8360 C   0  0  0  0  0  0  0  0  0  0  0  0
   62.2270   33.2140   47.5410 C   0  0  0  0  0  0  0  0  0  0  0  0
   61.5060   33.7510   46.4720 C   0  0  0  0  0  0  0  0  0  0  0  0
   60.2310   34.2840   46.6840 C   0  0  0  0  0  0  0  0  0  0  0  0
   59.3310   34.9640   45.3400 Cl  0  0  0  0  0  0  0  0  0  0  0  0
   59.6790   34.2860   47.9690 C   0  0  0  0  0  0  0  0  0  0  0  0
   60.3950   33.7510   49.0480 C   0  0  0  0  0  0  0  0  0  0  0  0
   59.6600   33.8080   50.6480 Cl  0  0  0  0  0  0  0  0  0  0  0  0
   59.0310   30.0040   50.3770 C   0  0  0  0  0  0  0  0  0  0  0  0
   58.8630   30.8000   49.0820 C   0  0  0  0  0  0  0  0  0  0  0  0
   56.3756   25.9311   43.7239 H   0  0  0  0  0  0  0  0  0  0  0  0
   58.0421   26.0463   44.4011 H   0  0  0  0  0  0  0  0  0  0  0  0
   58.8567   23.8910   45.7323 H   0  0  0  0  0  0  0  0  0  0  0  0
   59.1426   21.4336   45.4007 H   0  0  0  0  0  0  0  0  0  0  0  0
   57.7199   20.2202   43.7466 H   0  0  0  0  0  0  0  0  0  0  0  0
   55.9908   21.4575   42.4400 H   0  0  0  0  0  0  0  0  0  0  0  0
   55.6899   23.9136   42.7728 H   0  0  0  0  0  0  0  0  0  0  0  0
   57.2199   27.9714   44.4082 H   0  0  0  0  0  0  0  0  0  0  0  0
   56.7598   30.1615   43.3224 H   0  0  0  0  0  0  0  0  0  0  0  0
   58.8278   32.1923   46.5379 H   0  0  0  0  0  0  0  0  0  0  0  0
   60.8831   28.7152   47.2719 H   0  0  0  0  0  0  0  0  0  0  0  0
   61.4772   30.2646   47.9842 H   0  0  0  0  0  0  0  0  0  0  0  0
   60.3857   27.8056   49.4194 H   0  0  0  0  0  0  0  0  0  0  0  0
   62.0087   28.6286   49.5846 H   0  0  0  0  0  0  0  0  0  0  0  0
   60.4220   28.9140   51.4040 H   0  0  0  0  0  0  0  0  0  0  0  0
   63.3531   30.7046   50.3815 H   0  0  0  0  0  0  0  0  0  0  0  0
   62.1814   30.7491   49.0070 H   0  0  0  0  0  0  0  0  0  0  0  0
   62.1305   33.0631   50.9225 H   0  0  0  0  0  0  0  0  0  0  0  0
   63.5530   32.9299   49.8214 H   0  0  0  0  0  0  0  0  0  0  0  0
   63.2322   32.8018   47.3688 H   0  0  0  0  0  0  0  0  0  0  0  0
   61.9419   33.7545   45.4621 H   0  0  0  0  0  0  0  0  0  0  0  0
   58.6774   34.7099   48.1335 H   0  0  0  0  0  0  0  0  0  0  0  0
   58.3821   29.1168   50.3347 H   0  0  0  0  0  0  0  0  0  0  0  0
   58.7559   30.6601   51.2160 H   0  0  0  0  0  0  0  0  0  0  0  0
   57.7953   31.0018   48.9111 H   0  0  0  0  0  0  0  0  0  0  0  0
   59.4068   31.7527   49.1630 H   0  0  0  0  0  0  0  0  0  0  0  0
  1  2  2  0
  2  3  1  0
  3  4  1  0
  4  5  2  0
  4  6  2  0
  4  7  1  0
  7  8  1  0
  8  9  2  0
  9 10  1  0
 10 11  2  0
 11 12  1  0
 12 13  2  0
  2 14  1  0
 14 15  2  0
 15 16  1  0
 16 17  2  0
 17 18  1  0
 18 19  2  0
 18 20  1  0
 17 21  1  0
 21 22  2  0
 22 23  1  0
 23 24  1  0
 24 25  1  0
 25 26  1  0
 26 27  1  0
 27 28  2  0
 27 29  1  0
 29 30  1  0
 30 31  1  0
 31 32  2  0
 32 33  1  0
 33 34  2  0
 34 35  1  0
 34 36  1  0
 36 37  2  0
 37 38  1  0
 26 39  1  0
 39 40  1  0
 13  8  1  0
 22 14  1  0
 40 23  1  0
 37 31  1  0
  7 41  1  0
  7 42  1  0
  9 43  1  0
 10 44  1  0
 11 45  1  0
 12 46  1  0
 13 47  1  0
 15 48  1  0
 16 49  1  0
 21 50  1  0
 24 51  1  0
 24 52  1  0
 25 53  1  0
 25 54  1  0
 26 55  1  0
 29 56  1  0
 29 57  1  0
 30 58  1  0
 30 59  1  0
 32 60  1  0
 33 61  1  0
 36 62  1  0
 39 63  1  0
 39 64  1  0
 40 65  1  0
 40 66  1  0
M  CHG  4   3  -1  18   1  20  -1  26   1
M  END
>  <UniqueID>  (88) 
83

>  <SMILES>  (88) 
O=C([N-]S(=O)(=O)Cc1ccccc1)c1ccc([N+](=O)[O-])cc1N1CC[NH+](C(=O)CCc2ccc(Cl)cc2Cl)CC1

>  <Energy>  (88) 
82.96156355276388

>  <Genealogy>  (88) 
O=C([N-]S(=O)(=O)Cc1ccccc1)c1ccc([N+](=O)[O-])cc1N1CC[NH+](C(=O)CCc2ccc(Cl)cc2Cl)CC1 (protonated)
O=C([N-]S(=O)(=O)Cc1ccccc1)c1ccc([N+](=O)[O-])cc1N1CC[NH+](C(=O)CCc2ccc(Cl)cc2Cl)CC1 (3D coordinates assigned)
O=C([N-]S(=O)(=O)Cc1ccccc1)c1ccc([N+](=O)[O-])cc1N1CC[NH+](C(=O)CCc2ccc(Cl)cc2Cl)CC1 (nonaromatic ring conformer: 82.96156355276388 kcal/mol)

>  <smiles>  (88) 
O=C(NS(=O)(=O)Cc1ccccc1)c1ccc([N+](=O)[O-])cc1N1CCN(C(=O)CCc2ccc(Cl)cc2Cl)CC1

>  <score_type>  (88) 
oracle

>  <origin>  (88) 
adg

>  <m_score__min__energy>  (88) 
-11.220000000000001

>  <m_primary>  (88) 
energy

$$$$
