0:0
     RDKit          3D

 42 44  0  0  1  0  0  0  0  0999 V2000
   55.3590   29.4410   44.1640 N   0  0  0  0  0  0  0  0  0  0  0  0
   56.5580   30.0190   44.6750 C   0  0  0  0  0  0  0  0  0  0  0  0
   56.6660   31.2700   44.6640 O   0  0  0  0  0  0  0  0  0  0  0  0
   57.6500   29.2190   45.2020 C   0  0  0  0  0  0  0  0  0  0  0  0
   58.2010   28.2560   44.3980 C   0  0  0  0  0  0  0  0  0  0  0  0
   59.2330   27.5080   44.9130 C   0  0  0  0  0  0  0  0  0  0  0  0
   59.7300   27.6910   46.1990 C   0  0  0  0  0  0  0  0  0  0  0  0
   59.1580   28.6700   46.9980 C   0  0  0  0  0  0  0  0  0  0  0  0
   59.6480   28.8790   48.3210 N   0  0  0  0  0  0  0  0  0  0  0  0
   59.2040   29.8980   48.9850 C   0  0  0  0  0  0  0  0  0  0  0  0
   58.5090   29.7090   50.1340 N   0  0  0  0  0  0  0  0  0  0  0  0
   58.0420   30.7450   50.8370 C   0  0  0  0  0  0  0  0  0  0  0  0
   57.3000   30.5060   52.0650 C   0  0  0  0  0  0  0  0  0  0  0  0
   57.0280   31.5070   53.0170 N   0  0  0  0  0  0  0  0  0  0  0  0
   56.8910   29.3130   52.2570 O   0  0  0  0  0  0  0  0  0  0  0  0
   58.2700   32.0280   50.3850 C   0  0  0  0  0  0  0  0  0  0  0  0
   58.9790   32.1660   49.2180 C   0  0  0  0  0  0  0  0  0  0  0  0
   59.2020   33.3400   48.7800 N   0  0  0  0  0  0  0  0  0  0  0  0
   58.9470   33.7870   47.4520 C   0  0  0  0  0  0  0  0  0  0  0  0
   59.8510   34.5460   46.7300 C   0  0  0  0  0  0  0  0  0  0  0  0
   59.5710   34.9670   45.4350 C   0  0  0  0  0  0  0  0  0  0  0  0
   58.3580   34.6050   44.8830 C   0  0  0  0  0  0  0  0  0  0  0  0
   57.4260   33.8440   45.5770 C   0  0  0  0  0  0  0  0  0  0  0  0
   57.7300   33.4340   46.8740 C   0  0  0  0  0  0  0  0  0  0  0  0
   59.4480   31.1260   48.5130 N   0  0  0  0  0  0  0  0  0  0  0  0
   58.1180   29.4290   46.4900 C   0  0  0  0  0  0  0  0  0  0  0  0
   55.5010   28.5850   43.5510 H   0  0  0  0  0  0  0  0  0  0  0  0
   54.4070   29.8180   44.3680 H   0  0  0  0  0  0  0  0  0  0  0  0
   57.8305   28.0873   43.3761 H   0  0  0  0  0  0  0  0  0  0  0  0
   59.6856   26.7305   44.2801 H   0  0  0  0  0  0  0  0  0  0  0  0
   60.5588   27.0727   46.5744 H   0  0  0  0  0  0  0  0  0  0  0  0
   58.3540   28.7470   50.4480 H   0  0  0  0  0  0  0  0  0  0  0  0
   56.2910   31.3380   53.7390 H   0  0  0  0  0  0  0  0  0  0  0  0
   57.5560   32.4100   53.0020 H   0  0  0  0  0  0  0  0  0  0  0  0
   57.8990   32.9042   50.9369 H   0  0  0  0  0  0  0  0  0  0  0  0
   60.8112   34.8220   47.1903 H   0  0  0  0  0  0  0  0  0  0  0  0
   60.2942   35.5705   44.8669 H   0  0  0  0  0  0  0  0  0  0  0  0
   58.1219   34.9303   43.8591 H   0  0  0  0  0  0  0  0  0  0  0  0
   56.4672   33.5704   45.1123 H   0  0  0  0  0  0  0  0  0  0  0  0
   57.0071   32.8303   47.4423 H   0  0  0  0  0  0  0  0  0  0  0  0
   59.9820   31.2680   47.6290 H   0  0  0  0  0  0  0  0  0  0  0  0
   57.6574   30.2079   47.1155 H   0  0  0  0  0  0  0  0  0  0  0  0
  1  2  1  0
  2  3  2  0
  2  4  1  0
  4  5  2  0
  5  6  1  0
  6  7  2  0
  7  8  1  0
  8  9  1  0
  9 10  2  0
 10 11  1  0
 11 12  1  0
 12 13  1  0
 13 14  1  0
 13 15  2  0
 12 16  2  0
 16 17  1  0
 17 18  2  0
 18 19  1  0
 19 20  2  0
 20 21  1  0
 21 22  2  0
 22 23  1  0
 23 24  2  0
 17 25  1  0
  8 26  2  0
 26  4  1  0
 25 10  1  0
 24 19  1  0
  1 27  1  0
  1 28  1  0
  5 29  1  0
  6 30  1  0
  7 31  1  0
 11 32  1  0
 14 33  1  0
 14 34  1  0
 16 35  1  0
 20 36  1  0
 21 37  1  0
 22 38  1  0
 23 39  1  0
 24 40  1  0
 25 41  1  0
 26 42  1  0
M  END
>  <smiles>  (1) 
NC(=O)c1cccc(N=c2[nH]c(C(N)=O)cc(=Nc3ccccc3)[nH]2)c1

>  <score_type>  (1) 
oracle

>  <origin>  (1) 
adg

>  <m_score__min__energy>  (1) 
-9.0600000000000005

>  <m_primary>  (1) 
energy

$$$$
1:0
     RDKit          3D

 42 44  0  0  1  0  0  0  0  0999 V2000
   55.8630   22.2530   43.6510 N   0  0  0  0  0  0  0  0  0  0  0  0
   55.6420   25.2460   45.4080 C   0  0  0  0  0  0  0  0  0  0  0  0
   57.5620   23.7660   44.2430 C   0  0  0  0  0  0  0  0  0  0  0  0
   57.9180   24.9460   44.8640 C   0  0  0  0  0  0  0  0  0  0  0  0
   56.9350   25.6650   45.4370 N   0  0  0  0  0  0  0  0  0  0  0  0
   57.2630   26.9040   46.0970 C   0  0  1  0  0  0  0  0  0  0  0  0
   58.5500   26.9570   46.5690 O   0  0  0  0  0  0  0  0  0  0  0  0
   59.0000   28.2660   46.4560 C   0  0  2  0  0  0  0  0  0  0  0  0
   59.4830   28.8070   47.7940 C   0  0  0  0  0  0  0  0  0  0  0  0
   59.6160   27.7940   48.7370 O   0  0  0  0  0  0  0  0  0  0  0  0
   57.8860   29.1030   45.9650 C   0  0  1  0  0  0  0  0  0  0  0  0
   58.2050   30.2430   45.2680 O   0  0  0  0  0  0  0  0  0  0  0  0
   57.4820   31.4240   45.2070 C   0  0  0  0  0  0  0  0  0  0  0  0
   56.2840   31.4590   44.8410 O   0  0  0  0  0  0  0  0  0  0  0  0
   58.1120   32.6860   45.5770 C   0  0  0  0  0  0  0  0  0  0  0  0
   58.3120   32.9380   46.9230 C   0  0  0  0  0  0  0  0  0  0  0  0
   58.9120   34.1340   47.3230 C   0  0  0  0  0  0  0  0  0  0  0  0
   59.3000   35.0560   46.3650 C   0  0  0  0  0  0  0  0  0  0  0  0
   59.0960   34.7970   45.0160 C   0  0  0  0  0  0  0  0  0  0  0  0
   58.5000   33.6110   44.6100 C   0  0  0  0  0  0  0  0  0  0  0  0
   57.0360   28.1090   45.2050 C   0  0  2  0  0  0  0  0  0  0  0  0
   55.6870   28.4820   45.2110 O   0  0  0  0  0  0  0  0  0  0  0  0
   56.2350   23.3540   44.2230 C   0  0  0  0  0  0  0  0  0  0  0  0
   54.7790   25.9880   45.9750 O   0  0  0  0  0  0  0  0  0  0  0  0
   55.2900   24.1090   44.8110 N   0  0  0  0  0  0  0  0  0  0  0  0
   54.9560   22.2090   43.1150 H   0  0  0  0  0  0  0  0  0  0  0  0
   58.3335   23.1477   43.7608 H   0  0  0  0  0  0  0  0  0  0  0  0
   58.9640   25.2855   44.8896 H   0  0  0  0  0  0  0  0  0  0  0  0
   56.5766   26.9360   46.9560 H   0  0  0  0  0  0  0  0  0  0  0  0
   59.8480   28.2889   45.7557 H   0  0  0  0  0  0  0  0  0  0  0  0
   60.4597   29.2925   47.6513 H   0  0  0  0  0  0  0  0  0  0  0  0
   58.7375   29.5262   48.1640 H   0  0  0  0  0  0  0  0  0  0  0  0
   59.5960   26.8880   48.3880 H   0  0  0  0  0  0  0  0  0  0  0  0
   57.3622   29.5891   46.8013 H   0  0  0  0  0  0  0  0  0  0  0  0
   57.9994   32.1988   47.6753 H   0  0  0  0  0  0  0  0  0  0  0  0
   59.0752   34.3422   48.3907 H   0  0  0  0  0  0  0  0  0  0  0  0
   59.7729   35.9996   46.6748 H   0  0  0  0  0  0  0  0  0  0  0  0
   59.4088   35.5366   44.2642 H   0  0  0  0  0  0  0  0  0  0  0  0
   58.3366   33.4047   43.5419 H   0  0  0  0  0  0  0  0  0  0  0  0
   57.2813   27.9836   44.1401 H   0  0  0  0  0  0  0  0  0  0  0  0
   55.1460   27.6470   45.2920 H   0  0  0  0  0  0  0  0  0  0  0  0
   54.2780   23.8490   44.8270 H   0  0  0  0  0  0  0  0  0  0  0  0
  1  2  2  3
  2  3  1  0
  3  4  2  0
  4  5  1  0
  5  6  1  0
  6  7  1  0
  7  8  1  0
  8  9  1  0
  9 10  1  0
  8 11  1  0
 11 12  1  0
 12 13  1  0
 13 14  2  0
 13 15  1  0
 15 16  2  0
 16 17  1  0
 17 18  2  0
 18 19  1  0
 19 20  2  0
 11 21  1  0
 21 22  1  0
  5 23  1  0
 23 24  2  0
 23 25  1  0
 25  2  1  0
 21  6  1  0
 20 15  1  0
  1 26  1  0
  3 27  1  0
  4 28  1  0
  6 29  1  1
  8 30  1  6
  9 31  1  0
  9 32  1  0
 10 33  1  0
 11 34  1  1
 16 35  1  0
 17 36  1  0
 18 37  1  0
 19 38  1  0
 20 39  1  0
 21 40  1  6
 22 41  1  0
 25 42  1  0
M  END
>  <smiles>  (2) 
N=c1ccn(C2OC(CO)C(OC(=O)c3ccccc3)C2O)c(=O)[nH]1

>  <score_type>  (2) 
oracle

>  <origin>  (2) 
adg

>  <m_score__min__energy>  (2) 
-8.3800000000000008

>  <m_primary>  (2) 
energy

$$$$
2:0
     RDKit          3D

 49 51  0  0  0  0  0  0  0  0999 V2000
   62.9920   33.3180   46.7440 C   0  0  0  0  0  0  0  0  0  0  0  0
   63.1520   32.6350   47.8800 C   0  0  0  0  0  0  0  0  0  0  0  0
   64.1800   32.8580   48.7290 N   0  0  0  0  0  0  0  0  0  0  0  0
   64.0470   31.9520   49.7200 C   0  0  0  0  0  0  0  0  0  0  0  0
   64.9030   31.8650   50.7550 C   0  0  0  0  0  0  0  0  0  0  0  0
   65.6330   33.0380   51.3680 C   0  0  0  0  0  0  0  0  0  0  0  0
   64.6910   34.2390   51.5130 C   0  0  0  0  0  0  0  0  0  0  0  0
   66.8420   33.4190   50.5050 C   0  0  0  0  0  0  0  0  0  0  0  0
   62.9220   31.1870   49.4440 C   0  0  0  0  0  0  0  0  0  0  0  0
   62.4640   30.2410   50.1400 O   0  0  0  0  0  0  0  0  0  0  0  0
   62.3560   31.6160   48.2970 N   0  0  0  0  0  0  0  0  0  0  0  0
   61.1600   31.0970   47.6860 C   0  0  0  0  0  0  0  0  0  0  0  0
   61.2270   30.4040   46.4700 C   0  0  0  0  0  0  0  0  0  0  0  0
   60.0630   29.9160   45.8690 C   0  0  0  0  0  0  0  0  0  0  0  0
   58.8080   30.1170   46.4740 C   0  0  0  0  0  0  0  0  0  0  0  0
   57.5750   29.5970   45.8400 C   0  0  0  0  0  0  0  0  0  0  0  0
   57.3390   28.3580   45.8400 O   0  0  0  0  0  0  0  0  0  0  0  0
   56.6470   30.4970   45.2220 N   0  0  0  0  0  0  0  0  0  0  0  0
   57.0260   31.4900   44.2230 C   0  0  0  0  0  0  0  0  0  0  0  0
   57.7380   32.6430   44.8770 C   0  0  0  0  0  0  0  0  0  0  0  0
   57.3360   33.0860   46.1480 C   0  0  0  0  0  0  0  0  0  0  0  0
   57.9800   34.1700   46.7530 C   0  0  0  0  0  0  0  0  0  0  0  0
   59.0250   34.8220   46.0910 C   0  0  0  0  0  0  0  0  0  0  0  0
   59.4280   34.3880   44.8230 C   0  0  0  0  0  0  0  0  0  0  0  0
   58.7860   33.3050   44.2170 C   0  0  0  0  0  0  0  0  0  0  0  0
   58.7470   30.8230   47.6900 C   0  0  0  0  0  0  0  0  0  0  0  0
   59.9120   31.3110   48.2870 C   0  0  0  0  0  0  0  0  0  0  0  0
   62.1381   33.0989   46.0861 H   0  0  0  0  0  0  0  0  0  0  0  0
   63.7141   34.0998   46.4659 H   0  0  0  0  0  0  0  0  0  0  0  0
   64.9340   33.5760   48.6310 H   0  0  0  0  0  0  0  0  0  0  0  0
   65.0843   30.8691   51.1855 H   0  0  0  0  0  0  0  0  0  0  0  0
   65.9865   32.7454   52.3677 H   0  0  0  0  0  0  0  0  0  0  0  0
   64.5263   34.4490   52.5801 H   0  0  0  0  0  0  0  0  0  0  0  0
   65.1422   35.1191   51.0315 H   0  0  0  0  0  0  0  0  0  0  0  0
   63.7288   34.0105   51.0315 H   0  0  0  0  0  0  0  0  0  0  0  0
   67.6877   33.6855   51.1559 H   0  0  0  0  0  0  0  0  0  0  0  0
   67.1227   32.5658   49.8700 H   0  0  0  0  0  0  0  0  0  0  0  0
   66.5828   34.2790   49.8700 H   0  0  0  0  0  0  0  0  0  0  0  0
   62.2013   30.2430   45.9854 H   0  0  0  0  0  0  0  0  0  0  0  0
   60.1283   29.3707   44.9159 H   0  0  0  0  0  0  0  0  0  0  0  0
   57.6933   31.0240   43.4831 H   0  0  0  0  0  0  0  0  0  0  0  0
   56.1178   31.8645   43.7281 H   0  0  0  0  0  0  0  0  0  0  0  0
   56.5113   32.5782   46.6695 H   0  0  0  0  0  0  0  0  0  0  0  0
   57.6643   34.5100   47.7504 H   0  0  0  0  0  0  0  0  0  0  0  0
   59.5301   35.6756   46.5667 H   0  0  0  0  0  0  0  0  0  0  0  0
   60.2510   34.9000   44.3029 H   0  0  0  0  0  0  0  0  0  0  0  0
   59.1029   32.9694   43.2185 H   0  0  0  0  0  0  0  0  0  0  0  0
   57.7739   30.9920   48.1744 H   0  0  0  0  0  0  0  0  0  0  0  0
   59.8495   31.8665   49.2344 H   0  0  0  0  0  0  0  0  0  0  0  0
  1  2  2  0
  2  3  1  0
  3  4  1  0
  4  5  2  3
  5  6  1  0
  6  7  1  0
  6  8  1  0
  4  9  1  0
  9 10  2  0
  9 11  1  0
 11 12  1  0
 12 13  2  0
 13 14  1  0
 14 15  2  0
 15 16  1  0
 16 17  2  0
 16 18  1  0
 18 19  1  0
 19 20  1  0
 20 21  2  0
 21 22  1  0
 22 23  2  0
 23 24  1  0
 24 25  2  0
 15 26  1  0
 26 27  2  0
 11  2  1  0
 27 12  1  0
 25 20  1  0
  1 28  1  0
  1 29  1  0
  3 30  1  0
  5 31  1  0
  6 32  1  0
  7 33  1  0
  7 34  1  0
  7 35  1  0
  8 36  1  0
  8 37  1  0
  8 38  1  0
 13 39  1  0
 14 40  1  0
 19 41  1  0
 19 42  1  0
 21 43  1  0
 22 44  1  0
 23 45  1  0
 24 46  1  0
 25 47  1  0
 26 48  1  0
 27 49  1  0
M  CHG  1  18  -1
M  END
>  <UniqueID>  (3) 
1

>  <SMILES>  (3) 
C=c1[nH]c(=CC(C)C)c(=O)n1-c1ccc(C(=O)[N-]Cc2ccccc2)cc1

>  <Energy>  (3) 
87.24996188446397

>  <Genealogy>  (3) 
C=c1[nH]c(=CC(C)C)c(=O)n1-c1ccc(C(=O)[N-]Cc2ccccc2)cc1 (protonated)
C=c1[nH]c(=CC(C)C)c(=O)n1-c1ccc(C(=O)[N-]Cc2ccccc2)cc1 (3D coordinates assigned)
C=c1[nH]c(=CC(C)C)c(=O)n1-c1ccc(C(=O)[N-]Cc2ccccc2)cc1 (optimized conformer: 87.24996188446397 kcal/mol)

>  <smiles>  (3) 
C=c1[nH]c(=CC(C)C)c(=O)n1-c1ccc(C(=O)NCc2ccccc2)cc1

>  <score_type>  (3) 
oracle

>  <origin>  (3) 
adg

>  <m_score__min__energy>  (3) 
-9.4800000000000004

>  <m_primary>  (3) 
energy

$$$$
3:0
     RDKit          3D

 49 52  0  0  0  0  0  0  0  0999 V2000
   57.9250   30.1600   46.3630 C   0  0  0  0  0  0  0  0  0  0  0  0
   58.5330   29.2730   47.1660 C   0  0  0  0  0  0  0  0  0  0  0  0
   58.6660   27.8890   46.9640 C   0  0  0  0  0  0  0  0  0  0  0  0
   58.0970   27.0690   46.0590 C   0  0  0  0  0  0  0  0  0  0  0  0
   57.3230   25.8570   46.3670 C   0  0  0  0  0  0  0  0  0  0  0  0
   57.8680   24.7340   46.8650 N   0  0  0  0  0  0  0  0  0  0  0  0
   56.7970   23.9480   47.1090 C   0  0  0  0  0  0  0  0  0  0  0  0
   56.9030   22.7840   47.5750 O   0  0  0  0  0  0  0  0  0  0  0  0
   55.6030   24.5120   46.8260 N   0  0  0  0  0  0  0  0  0  0  0  0
   55.9530   25.7260   46.3720 C   0  0  0  0  0  0  0  0  0  0  0  0
   55.0380   26.7010   45.9950 O   0  0  0  0  0  0  0  0  0  0  0  0
   59.5550   27.4400   47.9280 C   0  0  0  0  0  0  0  0  0  0  0  0
   59.8760   28.5270   48.7150 C   0  0  0  0  0  0  0  0  0  0  0  0
   60.8290   28.4930   49.8710 C   0  0  0  0  0  0  0  0  0  0  0  0
   59.2590   29.6350   48.2540 N   0  0  0  0  0  0  0  0  0  0  0  0
   59.4260   30.9650   48.7750 C   0  0  0  0  0  0  0  0  0  0  0  0
   58.7980   31.3280   49.9670 C   0  0  0  0  0  0  0  0  0  0  0  0
   58.9300   32.6250   50.4530 C   0  0  0  0  0  0  0  0  0  0  0  0
   59.6810   33.5550   49.7330 C   0  0  0  0  0  0  0  0  0  0  0  0
   60.2940   33.2030   48.5620 N   0  0  0  0  0  0  0  0  0  0  0  0
   61.0100   34.2430   47.8020 C   0  0  0  0  0  0  0  0  0  0  0  0
   60.0270   35.1900   47.0960 C   0  0  0  0  0  0  0  0  0  0  0  0
   59.0800   34.4390   46.1950 C   0  0  0  0  0  0  0  0  0  0  0  0
   59.4170   34.2090   44.8510 C   0  0  0  0  0  0  0  0  0  0  0  0
   58.5680   33.4590   44.0310 C   0  0  0  0  0  0  0  0  0  0  0  0
   57.3820   32.9300   44.5480 C   0  0  0  0  0  0  0  0  0  0  0  0
   57.0430   33.1500   45.8860 C   0  0  0  0  0  0  0  0  0  0  0  0
   57.8890   33.9000   46.7090 C   0  0  0  0  0  0  0  0  0  0  0  0
   60.1800   31.9220   48.0760 C   0  0  0  0  0  0  0  0  0  0  0  0
   60.7290   31.5970   46.9870 O   0  0  0  0  0  0  0  0  0  0  0  0
   57.8927   31.2233   46.6428 H   0  0  0  0  0  0  0  0  0  0  0  0
   57.4590   29.8237   45.4251 H   0  0  0  0  0  0  0  0  0  0  0  0
   58.2222   27.3286   44.9974 H   0  0  0  0  0  0  0  0  0  0  0  0
   59.9325   26.4133   48.0436 H   0  0  0  0  0  0  0  0  0  0  0  0
   60.2627   28.5132   50.8138 H   0  0  0  0  0  0  0  0  0  0  0  0
   61.4299   27.5728   49.8239 H   0  0  0  0  0  0  0  0  0  0  0  0
   61.4940   29.3680   49.8239 H   0  0  0  0  0  0  0  0  0  0  0  0
   58.1996   30.5901   50.5215 H   0  0  0  0  0  0  0  0  0  0  0  0
   58.4462   32.9150   51.3973 H   0  0  0  0  0  0  0  0  0  0  0  0
   59.7812   34.5830   50.1115 H   0  0  0  0  0  0  0  0  0  0  0  0
   61.6361   34.8259   48.4935 H   0  0  0  0  0  0  0  0  0  0  0  0
   61.6305   33.7517   47.0381 H   0  0  0  0  0  0  0  0  0  0  0  0
   59.4433   35.7296   47.8563 H   0  0  0  0  0  0  0  0  0  0  0  0
   60.6085   35.8888   46.4766 H   0  0  0  0  0  0  0  0  0  0  0  0
   60.3518   34.6201   44.4421 H   0  0  0  0  0  0  0  0  0  0  0  0
   58.8339   33.2852   42.9779 H   0  0  0  0  0  0  0  0  0  0  0  0
   56.7152   32.3404   43.9017 H   0  0  0  0  0  0  0  0  0  0  0  0
   56.1097   32.7327   46.2921 H   0  0  0  0  0  0  0  0  0  0  0  0
   57.6209   34.0684   47.7624 H   0  0  0  0  0  0  0  0  0  0  0  0
  1  2  2  0
  2  3  1  0
  3  4  2  3
  4  5  1  0
  5  6  1  0
  6  7  1  0
  7  8  2  0
  7  9  1  0
  9 10  1  0
 10 11  1  0
  3 12  1  0
 12 13  2  0
 13 14  1  0
 13 15  1  0
 15 16  1  0
 16 17  2  0
 17 18  1  0
 18 19  2  0
 19 20  1  0
 20 21  1  0
 21 22  1  0
 22 23  1  0
 23 24  2  0
 24 25  1  0
 25 26  2  0
 26 27  1  0
 27 28  2  0
 20 29  1  0
 29 30  2  0
 15  2  1  0
 29 16  1  0
 10  5  2  0
 28 23  1  0
  1 31  1  0
  1 32  1  0
  4 33  1  0
 12 34  1  0
 14 35  1  0
 14 36  1  0
 14 37  1  0
 17 38  1  0
 18 39  1  0
 19 40  1  0
 21 41  1  0
 21 42  1  0
 22 43  1  0
 22 44  1  0
 24 45  1  0
 25 46  1  0
 26 47  1  0
 27 48  1  0
 28 49  1  0
M  CHG  3   6  -1   9  -1  11  -1
M  END
>  <UniqueID>  (4) 
2

>  <SMILES>  (4) 
C=c1c(=Cc2[n-]c(=O)[n-]c2[O-])cc(C)n1-c1cccn(CCc2ccccc2)c1=O

>  <Energy>  (4) 
126.76252574216699

>  <Genealogy>  (4) 
C=c1c(=Cc2[n-]c(=O)[n-]c2[O-])cc(C)n1-c1cccn(CCc2ccccc2)c1=O (protonated)
C=c1c(=Cc2[n-]c(=O)[n-]c2[O-])cc(C)n1-c1cccn(CCc2ccccc2)c1=O (3D coordinates assigned)
C=c1c(=Cc2[n-]c(=O)[n-]c2[O-])cc(C)n1-c1cccn(CCc2ccccc2)c1=O (optimized conformer: 126.76252574216699 kcal/mol)

>  <smiles>  (4) 
C=c1c(=Cc2[nH]c(=O)[nH]c2O)cc(C)n1-c1cccn(CCc2ccccc2)c1=O

>  <score_type>  (4) 
oracle

>  <origin>  (4) 
adg

>  <m_score__min__energy>  (4) 
-16.68

>  <m_primary>  (4) 
energy

$$$$
4:0
     RDKit          3D

 46 48  0  0  0  0  0  0  0  0999 V2000
   63.7730   33.1100   46.7090 C   0  0  0  0  0  0  0  0  0  0  0  0
   62.9430   33.2340   47.9530 C   0  0  0  0  0  0  0  0  0  0  0  0
   63.5450   33.5450   49.1800 C   0  0  0  0  0  0  0  0  0  0  0  0
   62.7650   33.6850   50.3300 C   0  0  0  0  0  0  0  0  0  0  0  0
   61.3790   33.5310   50.2620 C   0  0  0  0  0  0  0  0  0  0  0  0
   60.7530   33.2350   49.0370 C   0  0  0  0  0  0  0  0  0  0  0  0
   59.2810   33.0750   48.9610 C   0  0  0  0  0  0  0  0  0  0  0  0
   58.6880   32.3150   49.7720 O   0  0  0  0  0  0  0  0  0  0  0  0
   58.5280   33.8290   47.9990 N   0  0  0  0  0  0  0  0  0  0  0  0
   58.3060   33.4870   46.6210 C   0  0  0  0  0  0  0  0  0  0  0  0
   57.4060   32.4660   46.2570 C   0  0  0  0  0  0  0  0  0  0  0  0
   57.2120   32.1340   44.9040 C   0  0  0  0  0  0  0  0  0  0  0  0
   56.2850   31.1190   44.4950 N   0  0  0  0  0  0  0  0  0  0  0  0
   56.4020   29.7080   44.7290 C   0  0  0  0  0  0  0  0  0  0  0  0
   55.3740   28.9940   44.8610 O   0  0  0  0  0  0  0  0  0  0  0  0
   57.6900   29.0900   44.8120 N   0  0  0  0  0  0  0  0  0  0  0  0
   58.7060   29.3700   45.7850 C   0  0  0  0  0  0  0  0  0  0  0  0
   60.0150   29.7270   45.4130 C   0  0  0  0  0  0  0  0  0  0  0  0
   60.9710   30.0170   46.3930 C   0  0  0  0  0  0  0  0  0  0  0  0
   60.6250   29.9690   47.7460 C   0  0  0  0  0  0  0  0  0  0  0  0
   59.3190   29.6420   48.1260 C   0  0  0  0  0  0  0  0  0  0  0  0
   58.9850   29.6080   49.4770 O   0  0  0  0  0  0  0  0  0  0  0  0
   58.3610   29.3510   47.1440 C   0  0  0  0  0  0  0  0  0  0  0  0
   57.8990   32.8480   43.9180 C   0  0  0  0  0  0  0  0  0  0  0  0
   58.8150   33.8390   44.2700 C   0  0  0  0  0  0  0  0  0  0  0  0
   59.0430   34.1510   45.6190 C   0  0  0  0  0  0  0  0  0  0  0  0
   60.0280   35.2280   45.9830 C   0  0  0  0  0  0  0  0  0  0  0  0
   61.5470   33.0950   47.8830 C   0  0  0  0  0  0  0  0  0  0  0  0
   64.8261   32.9527   46.9850 H   0  0  0  0  0  0  0  0  0  0  0  0
   63.4179   32.2549   46.1150 H   0  0  0  0  0  0  0  0  0  0  0  0
   63.6834   34.0315   46.1150 H   0  0  0  0  0  0  0  0  0  0  0  0
   64.6353   33.6792   49.2373 H   0  0  0  0  0  0  0  0  0  0  0  0
   63.2442   33.9174   51.2925 H   0  0  0  0  0  0  0  0  0  0  0  0
   60.7720   33.6419   51.1726 H   0  0  0  0  0  0  0  0  0  0  0  0
   56.8507   31.9243   47.0369 H   0  0  0  0  0  0  0  0  0  0  0  0
   60.2879   29.7783   44.3486 H   0  0  0  0  0  0  0  0  0  0  0  0
   61.9966   30.2832   46.0977 H   0  0  0  0  0  0  0  0  0  0  0  0
   61.3812   30.1888   48.5140 H   0  0  0  0  0  0  0  0  0  0  0  0
   58.8540   30.4600   50.0110 H   0  0  0  0  0  0  0  0  0  0  0  0
   57.3309   29.1059   47.4422 H   0  0  0  0  0  0  0  0  0  0  0  0
   57.7157   32.6265   42.8562 H   0  0  0  0  0  0  0  0  0  0  0  0
   59.3628   34.3800   43.4844 H   0  0  0  0  0  0  0  0  0  0  0  0
   60.0987   35.3053   47.0780 H   0  0  0  0  0  0  0  0  0  0  0  0
   61.0156   34.9770   45.5686 H   0  0  0  0  0  0  0  0  0  0  0  0
   59.6900   36.1893   45.5686 H   0  0  0  0  0  0  0  0  0  0  0  0
   61.0695   32.8746   46.9169 H   0  0  0  0  0  0  0  0  0  0  0  0
  1  2  1  0
  2  3  2  0
  3  4  1  0
  4  5  2  0
  5  6  1  0
  6  7  1  0
  7  8  2  0
  7  9  1  0
  9 10  1  0
 10 11  2  0
 11 12  1  0
 12 13  1  0
 13 14  1  0
 14 15  2  0
 14 16  1  0
 16 17  1  0
 17 18  2  0
 18 19  1  0
 19 20  2  0
 20 21  1  0
 21 22  1  0
 21 23  2  0
 12 24  2  0
 24 25  1  0
 25 26  2  0
 26 27  1  0
  6 28  2  0
 28  2  1  0
 26 10  1  0
 23 17  1  0
  1 29  1  0
  1 30  1  0
  1 31  1  0
  3 32  1  0
  4 33  1  0
  5 34  1  0
 11 35  1  0
 18 36  1  0
 19 37  1  0
 20 38  1  0
 22 39  1  0
 23 40  1  0
 24 41  1  0
 25 42  1  0
 27 43  1  0
 27 44  1  0
 27 45  1  0
 28 46  1  0
M  CHG  3   9  -1  13  -1  16  -1
M  END
>  <UniqueID>  (5) 
3

>  <SMILES>  (5) 
Cc1cccc(C(=O)[N-]c2cc([N-]C(=O)[N-]c3cccc(O)c3)ccc2C)c1

>  <Energy>  (5) 
58.87778678603166

>  <Genealogy>  (5) 
Cc1cccc(C(=O)[N-]c2cc([N-]C(=O)[N-]c3cccc(O)c3)ccc2C)c1 (protonated)
Cc1cccc(C(=O)[N-]c2cc([N-]C(=O)[N-]c3cccc(O)c3)ccc2C)c1 (3D coordinates assigned)
Cc1cccc(C(=O)[N-]c2cc([N-]C(=O)[N-]c3cccc(O)c3)ccc2C)c1 (optimized conformer: 58.87778678603166 kcal/mol)

>  <smiles>  (5) 
Cc1cccc(C(=O)Nc2cc(NC(=O)Nc3cccc(O)c3)ccc2C)c1

>  <score_type>  (5) 
oracle

>  <origin>  (5) 
adg

>  <m_score__min__energy>  (5) 
-14.970000000000001

>  <m_primary>  (5) 
energy

$$$$
5:0
     RDKit          3D

 52 55  0  0  0  0  0  0  0  0999 V2000
   63.3880   33.8150   46.3720 C   0  0  0  0  0  0  0  0  0  0  0  0
   63.7560   32.7860   47.4440 C   0  0  0  0  0  0  0  0  0  0  0  0
   64.0220   33.4260   48.8130 C   0  0  0  0  0  0  0  0  0  0  0  0
   62.8260   33.3580   49.7140 C   0  0  0  0  0  0  0  0  0  0  0  0
   62.8660   33.4560   51.0670 N   0  0  0  0  0  0  0  0  0  0  0  0
   61.6160   33.3770   51.5240 N   0  0  0  0  0  0  0  0  0  0  0  0
   61.2610   33.4510   52.9350 C   0  0  0  0  0  0  0  0  0  0  0  0
   60.7810   33.2360   50.4740 C   0  0  0  0  0  0  0  0  0  0  0  0
   59.3930   33.1430   50.4030 C   0  0  0  0  0  0  0  0  0  0  0  0
   58.6750   33.1440   51.4370 O   0  0  0  0  0  0  0  0  0  0  0  0
   58.8250   33.0570   49.1630 N   0  0  0  0  0  0  0  0  0  0  0  0
   59.5860   33.0680   48.0180 C   0  0  0  0  0  0  0  0  0  0  0  0
   58.9430   33.0190   46.6870 C   0  0  0  0  0  0  0  0  0  0  0  0
   59.2120   34.0000   45.7150 C   0  0  0  0  0  0  0  0  0  0  0  0
   58.5690   33.9560   44.4740 C   0  0  0  0  0  0  0  0  0  0  0  0
   57.6680   32.9280   44.1820 C   0  0  0  0  0  0  0  0  0  0  0  0
   57.4210   31.9230   45.1230 C   0  0  0  0  0  0  0  0  0  0  0  0
   56.4950   30.8730   44.8120 N   0  0  0  0  0  0  0  0  0  0  0  0
   56.8100   29.7650   43.9640 C   0  0  0  0  0  0  0  0  0  0  0  0
   56.6560   29.8570   42.7160 O   0  0  0  0  0  0  0  0  0  0  0  0
   57.3830   28.5150   44.5470 C   0  0  0  0  0  0  0  0  0  0  0  0
   58.4620   28.8780   45.5310 C   0  0  0  0  0  0  0  0  0  0  0  0
   58.2160   28.7990   46.9120 C   0  0  0  0  0  0  0  0  0  0  0  0
   59.1920   29.2090   47.8270 C   0  0  0  0  0  0  0  0  0  0  0  0
   60.4160   29.7130   47.3700 C   0  0  0  0  0  0  0  0  0  0  0  0
   61.3910   30.1340   48.2720 O   0  0  0  0  0  0  0  0  0  0  0  0
   60.6640   29.8000   45.9950 C   0  0  0  0  0  0  0  0  0  0  0  0
   59.6900   29.3880   45.0800 C   0  0  0  0  0  0  0  0  0  0  0  0
   58.0430   31.9840   46.3800 C   0  0  0  0  0  0  0  0  0  0  0  0
   60.9500   33.1530   48.1090 N   0  0  0  0  0  0  0  0  0  0  0  0
   61.5100   33.2270   49.3360 C   0  0  0  0  0  0  0  0  0  0  0  0
   63.0553   34.7453   46.8556 H   0  0  0  0  0  0  0  0  0  0  0  0
   64.2678   34.0220   45.7451 H   0  0  0  0  0  0  0  0  0  0  0  0
   62.5764   33.4171   45.7451 H   0  0  0  0  0  0  0  0  0  0  0  0
   62.9261   32.0711   47.5451 H   0  0  0  0  0  0  0  0  0  0  0  0
   64.6839   32.2897   47.1234 H   0  0  0  0  0  0  0  0  0  0  0  0
   64.8581   32.8975   49.2943 H   0  0  0  0  0  0  0  0  0  0  0  0
   64.2597   34.4873   48.6482 H   0  0  0  0  0  0  0  0  0  0  0  0
   62.1550   33.2646   53.5483 H   0  0  0  0  0  0  0  0  0  0  0  0
   60.8633   34.4514   53.1611 H   0  0  0  0  0  0  0  0  0  0  0  0
   60.4967   32.6929   53.1611 H   0  0  0  0  0  0  0  0  0  0  0  0
   59.9305   34.8042   45.9320 H   0  0  0  0  0  0  0  0  0  0  0  0
   58.7732   34.7342   43.7239 H   0  0  0  0  0  0  0  0  0  0  0  0
   57.1523   32.9093   43.2105 H   0  0  0  0  0  0  0  0  0  0  0  0
   56.5903   27.9518   45.0612 H   0  0  0  0  0  0  0  0  0  0  0  0
   57.8079   27.8938   43.7448 H   0  0  0  0  0  0  0  0  0  0  0  0
   57.2521   28.4132   47.2754 H   0  0  0  0  0  0  0  0  0  0  0  0
   58.9975   29.1353   48.9072 H   0  0  0  0  0  0  0  0  0  0  0  0
   61.5250   31.1140   48.4890 H   0  0  0  0  0  0  0  0  0  0  0  0
   61.6259   30.1928   45.6339 H   0  0  0  0  0  0  0  0  0  0  0  0
   59.8871   29.4639   44.0005 H   0  0  0  0  0  0  0  0  0  0  0  0
   57.8235   31.2130   47.1333 H   0  0  0  0  0  0  0  0  0  0  0  0
  1  2  1  0
  2  3  1  0
  3  4  1  0
  4  5  2  0
  5  6  1  0
  6  7  1  0
  6  8  1  0
  8  9  1  0
  9 10  2  0
  9 11  1  0
 11 12  1  0
 12 13  1  0
 13 14  2  0
 14 15  1  0
 15 16  2  0
 16 17  1  0
 17 18  1  0
 18 19  1  0
 19 20  2  0
 19 21  1  0
 21 22  1  0
 22 23  2  0
 23 24  1  0
 24 25  2  0
 25 26  1  0
 25 27  1  0
 27 28  2  0
 17 29  2  0
 12 30  2  0
 30 31  1  0
 31  4  1  0
 31  8  2  0
 29 13  1  0
 28 22  1  0
  1 32  1  0
  1 33  1  0
  1 34  1  0
  2 35  1  0
  2 36  1  0
  3 37  1  0
  3 38  1  0
  7 39  1  0
  7 40  1  0
  7 41  1  0
 14 42  1  0
 15 43  1  0
 16 44  1  0
 21 45  1  0
 21 46  1  0
 23 47  1  0
 24 48  1  0
 26 49  1  0
 27 50  1  0
 28 51  1  0
 29 52  1  0
M  CHG  2  11  -1  18  -1
M  END
>  <UniqueID>  (6) 
4

>  <SMILES>  (6) 
CCCc1nn(C)c2c(=O)[n-]c(-c3cccc([N-]C(=O)Cc4ccc(O)cc4)c3)nc12

>  <Energy>  (6) 
94.58705443368041

>  <Genealogy>  (6) 
CCCc1nn(C)c2c(=O)[n-]c(-c3cccc([N-]C(=O)Cc4ccc(O)cc4)c3)nc12 (protonated)
CCCc1nn(C)c2c(=O)[n-]c(-c3cccc([N-]C(=O)Cc4ccc(O)cc4)c3)nc12 (3D coordinates assigned)
CCCc1nn(C)c2c(=O)[n-]c(-c3cccc([N-]C(=O)Cc4ccc(O)cc4)c3)nc12 (optimized conformer: 94.58705443368041 kcal/mol)

>  <smiles>  (6) 
CCCc1nn(C)c2c(=O)[nH]c(-c3cccc(NC(=O)Cc4ccc(O)cc4)c3)nc12

>  <score_type>  (6) 
oracle

>  <origin>  (6) 
adg

>  <m_score__min__energy>  (6) 
-12.32

>  <m_primary>  (6) 
energy

$$$$
6:0
     RDKit          3D

 44 47  0  0  0  0  0  0  0  0999 V2000
   59.7329   30.6241   47.9802 H   0  0  0  0  0  0  0  0  0  0  0  0
   59.4070   29.7710   47.3670 C   0  0  0  0  0  0  0  0  0  0  0  0
   59.4846   28.7477   47.7629 H   0  0  0  0  0  0  0  0  0  0  0  0
   58.9140   29.9790   46.1340 C   0  0  0  0  0  0  0  0  0  0  0  0
   58.4610   28.9980   45.2400 C   0  0  0  0  0  0  0  0  0  0  0  0
   58.4250   27.6650   45.4550 C   0  0  0  0  0  0  0  0  0  0  0  0
   59.3757   27.1174   45.3759 H   0  0  0  0  0  0  0  0  0  0  0  0
   57.2160   26.8770   45.7880 C   0  0  0  0  0  0  0  0  0  0  0  0
   57.1980   25.6150   46.2540 N   0  0  0  0  0  0  0  0  0  0  0  0
   55.8810   25.3350   46.3580 C   0  0  0  0  0  0  0  0  0  0  0  0
   55.4540   24.2260   46.7730 O   0  0  0  0  0  0  0  0  0  0  0  0
   55.0590   26.3360   45.9820 N   0  0  0  0  0  0  0  0  0  0  0  0
   55.9190   27.3010   45.6200 C   0  0  0  0  0  0  0  0  0  0  0  0
   55.5250   28.5460   45.1450 O   0  0  0  0  0  0  0  0  0  0  0  0
   58.0860   29.6770   44.0860 C   0  0  0  0  0  0  0  0  0  0  0  0
   57.6899   29.2303   43.1621 H   0  0  0  0  0  0  0  0  0  0  0  0
   58.3060   31.0190   44.3220 C   0  0  0  0  0  0  0  0  0  0  0  0
   58.0510   32.1110   43.3260 C   0  0  0  0  0  0  0  0  0  0  0  0
   57.8320   33.0486   43.8579 H   0  0  0  0  0  0  0  0  0  0  0  0
   58.9416   32.2469   42.6948 H   0  0  0  0  0  0  0  0  0  0  0  0
   57.1923   31.8384   42.6948 H   0  0  0  0  0  0  0  0  0  0  0  0
   58.8130   31.2040   45.5600 N   0  0  0  0  0  0  0  0  0  0  0  0
   59.1590   32.4730   46.1440 C   0  0  0  0  0  0  0  0  0  0  0  0
   58.3070   33.5750   45.9940 C   0  0  0  0  0  0  0  0  0  0  0  0
   57.3706   33.4709   45.4263 H   0  0  0  0  0  0  0  0  0  0  0  0
   58.6430   34.8050   46.5630 C   0  0  0  0  0  0  0  0  0  0  0  0
   57.9738   35.6689   46.4373 H   0  0  0  0  0  0  0  0  0  0  0  0
   59.8280   34.9410   47.2920 C   0  0  0  0  0  0  0  0  0  0  0  0
   60.0939   35.9157   47.7271 H   0  0  0  0  0  0  0  0  0  0  0  0
   60.6820   33.8380   47.4720 C   0  0  0  0  0  0  0  0  0  0  0  0
   61.9170   33.9560   48.1990 N   0  0  0  0  0  0  0  0  0  0  0  0
   61.9020   34.5290   49.0710 H   0  0  0  0  0  0  0  0  0  0  0  0
   63.1750   33.4460   47.7160 C   0  0  0  0  0  0  0  0  0  0  0  0
   63.3230   33.2160   46.4860 O   0  0  0  0  0  0  0  0  0  0  0  0
   64.3600   33.2040   48.6230 C   0  0  0  0  0  0  0  0  0  0  0  0
   65.0929   33.5468   47.8778 H   0  0  0  0  0  0  0  0  0  0  0  0
   64.2900   32.0210   49.5780 C   0  0  0  0  0  0  0  0  0  0  0  0
   63.4271   31.3395   49.5476 H   0  0  0  0  0  0  0  0  0  0  0  0
   64.9498   31.1742   49.8180 H   0  0  0  0  0  0  0  0  0  0  0  0
   64.1220   33.4410   50.1060 C   0  0  0  0  0  0  0  0  0  0  0  0
   63.1378   33.7844   50.4571 H   0  0  0  0  0  0  0  0  0  0  0  0
   64.6105   34.0439   50.8857 H   0  0  0  0  0  0  0  0  0  0  0  0
   60.3460   32.6100   46.8800 C   0  0  0  0  0  0  0  0  0  0  0  0
   61.0192   31.7476   46.9941 H   0  0  0  0  0  0  0  0  0  0  0  0
  1  2  1  0
  2  3  1  0
  2  4  2  0
  4  5  1  0
  5  6  2  0
  6  7  1  0
  6  8  1  0
  8  9  1  0
  9 10  1  0
 10 11  2  0
 10 12  1  0
 12 13  1  0
 13 14  1  0
  5 15  1  0
 15 16  1  0
 15 17  2  0
 17 18  1  0
 18 19  1  0
 18 20  1  0
 18 21  1  0
 17 22  1  0
 22 23  1  0
 23 24  2  0
 24 25  1  0
 24 26  1  0
 26 27  1  0
 26 28  2  0
 28 29  1  0
 28 30  1  0
 30 31  1  0
 31 32  1  0
 31 33  1  0
 33 34  2  0
 33 35  1  0
 35 36  1  0
 35 37  1  0
 37 38  1  0
 37 39  1  0
 37 40  1  0
 40 41  1  0
 40 42  1  0
 30 43  2  0
 43 44  1  0
 22  4  1  0
 43 23  1  0
 13  8  2  0
 40 35  1  0
M  CHG  3   9  -1  12  -1  14  -1
M  END
>  <UniqueID>  (7) 
5

>  <SMILES>  (7) 
C=c1/c(=C/c2[n-]c(=O)[n-]c2[O-])cc(C)n1-c1cccc(NC(=O)C2CC2)c1

>  <Energy>  (7) 
384.7243360953009

>  <Genealogy>  (7) 
C=c1c(=Cc2[n-]c(=O)[n-]c2[O-])cc(C)n1-c1cccc(NC(=O)C2CC2)c1 (protonated)
C=c1/c(=C/c2[n-]c(=O)[n-]c2[O-])cc(C)n1-c1cccc(NC(=O)C2CC2)c1 (cis-trans isomerization)
C=c1/c(=C/c2[n-]c(=O)[n-]c2[O-])cc(C)n1-c1cccc(NC(=O)C2CC2)c1 (3D coordinates assigned)
C=c1/c(=C/c2[n-]c(=O)[n-]c2[O-])cc(C)n1-c1cccc(NC(=O)C2CC2)c1 (nonaromatic ring conformer: 384.7243360953009 kcal/mol)

>  <smiles>  (7) 
C=c1c(=Cc2[nH]c(=O)[nH]c2O)cc(C)n1-c1cccc(NC(=O)C2CC2)c1

>  <score_type>  (7) 
oracle

>  <origin>  (7) 
adg

>  <m_score__min__energy>  (7) 
-16.620000000000001

>  <m_primary>  (7) 
energy

$$$$
7:0
     RDKit          3D

 48 50  0  0  0  0  0  0  0  0999 V2000
   52.6940   23.6880   45.4260 H   0  0  0  0  0  0  0  0  0  0  0  0
   53.3600   23.0590   44.9260 N   0  0  0  0  0  0  0  0  0  0  0  0
   54.7180   23.4450   44.7210 C   0  0  0  0  0  0  0  0  0  0  0  0
   55.5040   22.6700   44.1140 O   0  0  0  0  0  0  0  0  0  0  0  0
   55.1940   24.7420   45.2170 C   0  0  0  0  0  0  0  0  0  0  0  0
   54.3790   25.7380   45.6240 N   0  0  0  0  0  0  0  0  0  0  0  0
   55.1450   26.7220   45.9960 O   0  0  0  0  0  0  0  0  0  0  0  0
   56.4100   26.4050   45.8460 C   0  0  0  0  0  0  0  0  0  0  0  0
   57.4140   27.1740   46.1350 N   0  0  0  0  0  0  0  0  0  0  0  0
   58.8000   26.8190   46.0040 C   0  0  0  0  0  0  0  0  0  0  0  0
   59.3190   26.6680   44.8650 O   0  0  0  0  0  0  0  0  0  0  0  0
   59.6170   26.5340   47.1980 C   0  0  0  0  0  0  0  0  0  0  0  0
   60.2626   25.6440   47.1668 H   0  0  0  0  0  0  0  0  0  0  0  0
   59.6380   27.2710   48.3200 C   0  0  0  0  0  0  0  0  0  0  0  0
   59.5367   26.7388   49.2773 H   0  0  0  0  0  0  0  0  0  0  0  0
   59.7860   28.7370   48.3710 C   0  0  0  0  0  0  0  0  0  0  0  0
   60.3080   29.2870   49.3800 O   0  0  0  0  0  0  0  0  0  0  0  0
   59.2380   29.5400   47.3160 N   0  0  0  0  0  0  0  0  0  0  0  0
   58.5180   29.1080   46.6940 H   0  0  0  0  0  0  0  0  0  0  0  0
   59.5770   30.9210   47.1020 C   0  0  0  0  0  0  0  0  0  0  0  0
   58.5850   31.8960   46.8900 C   0  0  0  0  0  0  0  0  0  0  0  0
   57.5253   31.6020   46.8650 H   0  0  0  0  0  0  0  0  0  0  0  0
   58.9390   33.2360   46.7110 C   0  0  0  0  0  0  0  0  0  0  0  0
   58.1587   33.9909   46.5343 H   0  0  0  0  0  0  0  0  0  0  0  0
   60.2820   33.6190   46.7560 C   0  0  0  0  0  0  0  0  0  0  0  0
   60.5571   34.6740   46.6098 H   0  0  0  0  0  0  0  0  0  0  0  0
   61.2790   32.6620   46.9870 C   0  0  0  0  0  0  0  0  0  0  0  0
   62.9750   33.1260   47.0750 S   0  0  0  0  0  0  0  0  0  0  0  0
   63.2750   34.1730   46.0370 O   0  0  0  0  0  0  0  0  0  0  0  0
   63.8160   31.9110   46.7950 O   0  0  0  0  0  0  0  0  0  0  0  0
   63.3150   33.7410   48.6790 N   0  0  0  0  0  0  0  0  0  0  0  0
   64.5840   33.2020   49.2190 C   0  0  0  0  0  0  0  0  0  0  0  0
   65.1979   32.8410   48.3806 H   0  0  0  0  0  0  0  0  0  0  0  0
   65.0824   34.0142   49.7685 H   0  0  0  0  0  0  0  0  0  0  0  0
   64.3650   32.0400   50.2050 C   0  0  0  0  0  0  0  0  0  0  0  0
   65.2487   31.3851   50.1963 H   0  0  0  0  0  0  0  0  0  0  0  0
   64.2106   32.4506   51.2137 H   0  0  0  0  0  0  0  0  0  0  0  0
   63.2290   31.2930   49.8350 O   0  0  0  0  0  0  0  0  0  0  0  0
   62.0520   32.0550   50.0420 C   0  0  0  0  0  0  0  0  0  0  0  0
   61.2328   31.5899   49.4740 H   0  0  0  0  0  0  0  0  0  0  0  0
   61.8602   32.0626   51.1251 H   0  0  0  0  0  0  0  0  0  0  0  0
   62.1800   33.5310   49.5950 C   0  0  0  0  0  0  0  0  0  0  0  0
   61.2526   33.8273   49.0830 H   0  0  0  0  0  0  0  0  0  0  0  0
   62.3551   34.1410   50.4935 H   0  0  0  0  0  0  0  0  0  0  0  0
   60.9210   31.3180   47.1690 C   0  0  0  0  0  0  0  0  0  0  0  0
   61.7014   30.5682   47.3661 H   0  0  0  0  0  0  0  0  0  0  0  0
   56.5140   25.1290   45.3430 C   0  0  0  0  0  0  0  0  0  0  0  0
   57.4228   24.5584   45.1011 H   0  0  0  0  0  0  0  0  0  0  0  0
  1  2  1  0
  2  3  1  0
  3  4  2  0
  3  5  1  0
  5  6  1  0
  6  7  1  0
  7  8  1  0
  8  9  2  0
  9 10  1  0
 10 11  2  0
 10 12  1  0
 12 13  1  0
 12 14  2  3
 14 15  1  0
 14 16  1  0
 16 17  2  0
 16 18  1  0
 18 19  1  0
 18 20  1  0
 20 21  2  0
 21 22  1  0
 21 23  1  0
 23 24  1  0
 23 25  2  0
 25 26  1  0
 25 27  1  0
 27 28  1  0
 28 29  2  0
 28 30  2  0
 28 31  1  0
 31 32  1  0
 32 33  1  0
 32 34  1  0
 32 35  1  0
 35 36  1  0
 35 37  1  0
 35 38  1  0
 38 39  1  0
 39 40  1  0
 39 41  1  0
 39 42  1  0
 42 43  1  0
 42 44  1  0
 27 45  2  0
 45 46  1  0
  8 47  1  0
 47 48  1  0
 47  5  2  0
 45 20  1  0
 42 31  1  0
M  CHG  2   2  -1   6  -1
M  END
>  <UniqueID>  (8) 
6

>  <SMILES>  (8) 
[NH-]C(=O)c1c/c(=N/C(=O)C=CC(=O)Nc2cccc(S(=O)(=O)N3CCOCC3)c2)o[n-]1

>  <Energy>  (8) 
99.02575770537244

>  <Genealogy>  (8) 
[NH-]C(=O)c1cc(=NC(=O)C=CC(=O)Nc2cccc(S(=O)(=O)N3CCOCC3)c2)o[n-]1 (protonated)
[NH-]C(=O)c1c/c(=N/C(=O)C=CC(=O)Nc2cccc(S(=O)(=O)N3CCOCC3)c2)o[n-]1 (cis-trans isomerization)
[NH-]C(=O)c1c/c(=N/C(=O)C=CC(=O)Nc2cccc(S(=O)(=O)N3CCOCC3)c2)o[n-]1 (3D coordinates assigned)
[NH-]C(=O)c1c/c(=N/C(=O)C=CC(=O)Nc2cccc(S(=O)(=O)N3CCOCC3)c2)o[n-]1 (nonaromatic ring conformer: 99.02575770537244 kcal/mol)

>  <smiles>  (8) 
NC(=O)c1cc(=NC(=O)C=CC(=O)Nc2cccc(S(=O)(=O)N3CCOCC3)c2)o[nH]1

>  <score_type>  (8) 
oracle

>  <origin>  (8) 
adg

>  <m_score__min__energy>  (8) 
-15.18

>  <m_primary>  (8) 
energy

$$$$
8:0
     RDKit          3D

 47 49  0  0  0  0  0  0  0  0999 V2000
   55.5080   31.0890   44.5370 O   0  0  0  0  0  0  0  0  0  0  0  0
   56.1730   30.0360   44.3460 C   0  0  0  0  0  0  0  0  0  0  0  0
   57.2840   30.0560   43.3780 C   0  0  0  0  0  0  0  0  0  0  0  0
   58.1960   31.0340   43.3710 C   0  0  0  0  0  0  0  0  0  0  0  0
   57.8740   32.4230   42.9800 C   0  0  0  0  0  0  0  0  0  0  0  0
   57.5740   32.6930   41.7850 O   0  0  0  0  0  0  0  0  0  0  0  0
   57.8280   33.4710   43.9570 N   0  0  0  0  0  0  0  0  0  0  0  0
   58.3930   33.3940   45.2730 C   0  0  0  0  0  0  0  0  0  0  0  0
   59.2120   34.4340   45.7290 C   0  0  0  0  0  0  0  0  0  0  0  0
   59.7330   34.4030   47.0260 C   0  0  0  0  0  0  0  0  0  0  0  0
   59.4550   33.3200   47.8710 C   0  0  0  0  0  0  0  0  0  0  0  0
   60.0790   33.2980   49.5210 S   0  0  0  0  0  0  0  0  0  0  0  0
   59.6890   34.5780   50.2060 O   0  0  0  0  0  0  0  0  0  0  0  0
   59.4280   32.1660   50.2670 O   0  0  0  0  0  0  0  0  0  0  0  0
   61.8170   33.0970   49.5950 N   0  0  0  0  0  0  0  0  0  0  0  0
   62.2630   31.7340   49.2480 C   0  0  0  0  0  0  0  0  0  0  0  0
   62.5880   31.5790   47.7550 C   0  0  0  0  0  0  0  0  0  0  0  0
   63.4940   32.5740   47.3320 O   0  0  0  0  0  0  0  0  0  0  0  0
   62.8750   33.8360   47.4440 C   0  0  0  0  0  0  0  0  0  0  0  0
   62.5700   34.1680   48.9110 C   0  0  0  0  0  0  0  0  0  0  0  0
   58.6940   32.2470   47.3920 C   0  0  0  0  0  0  0  0  0  0  0  0
   58.1630   32.2830   46.1010 C   0  0  0  0  0  0  0  0  0  0  0  0
   55.7740   28.8050   44.9690 N   0  0  0  0  0  0  0  0  0  0  0  0
   56.5070   27.9050   45.5650 C   0  0  0  0  0  0  0  0  0  0  0  0
   57.8220   28.1970   45.7640 N   0  0  0  0  0  0  0  0  0  0  0  0
   58.6810   27.3390   46.3750 C   0  0  0  0  0  0  0  0  0  0  0  0
   58.2250   26.1040   46.8300 C   0  0  0  0  0  0  0  0  0  0  0  0
   56.8810   25.7740   46.6690 C   0  0  0  0  0  0  0  0  0  0  0  0
   56.0030   26.6710   46.0540 C   0  0  0  0  0  0  0  0  0  0  0  0
   54.6560   26.3370   45.9890 O   0  0  0  0  0  0  0  0  0  0  0  0
   57.3654   29.2438   42.6406 H   0  0  0  0  0  0  0  0  0  0  0  0
   59.2278   30.7953   43.6683 H   0  0  0  0  0  0  0  0  0  0  0  0
   59.4464   35.2786   45.0643 H   0  0  0  0  0  0  0  0  0  0  0  0
   60.3627   35.2307   47.3842 H   0  0  0  0  0  0  0  0  0  0  0  0
   63.1661   31.5001   49.8309 H   0  0  0  0  0  0  0  0  0  0  0  0
   61.4382   31.0448   49.4818 H   0  0  0  0  0  0  0  0  0  0  0  0
   63.0352   30.5886   47.5845 H   0  0  0  0  0  0  0  0  0  0  0  0
   61.6565   31.6837   47.1794 H   0  0  0  0  0  0  0  0  0  0  0  0
   63.5464   34.6042   47.0329 H   0  0  0  0  0  0  0  0  0  0  0  0
   61.9282   33.8140   46.8844 H   0  0  0  0  0  0  0  0  0  0  0  0
   63.5211   34.3230   49.4415 H   0  0  0  0  0  0  0  0  0  0  0  0
   61.9444   35.0727   48.9230 H   0  0  0  0  0  0  0  0  0  0  0  0
   58.5138   31.3727   48.0347 H   0  0  0  0  0  0  0  0  0  0  0  0
   57.5627   31.4386   45.7313 H   0  0  0  0  0  0  0  0  0  0  0  0
   59.7359   27.6198   46.5101 H   0  0  0  0  0  0  0  0  0  0  0  0
   58.9178   25.3976   47.3107 H   0  0  0  0  0  0  0  0  0  0  0  0
   56.5091   24.8029   47.0276 H   0  0  0  0  0  0  0  0  0  0  0  0
  1  2  2  0
  2  3  1  0
  3  4  2  3
  4  5  1  0
  5  6  2  0
  5  7  1  0
  7  8  1  0
  8  9  2  0
  9 10  1  0
 10 11  2  0
 11 12  1  0
 12 13  2  0
 12 14  2  0
 12 15  1  0
 15 16  1  0
 16 17  1  0
 17 18  1  0
 18 19  1  0
 19 20  1  0
 11 21  1  0
 21 22  2  0
  2 23  1  0
 23 24  2  3
 24 25  1  0
 25 26  1  0
 26 27  2  0
 27 28  1  0
 28 29  2  0
 29 30  1  0
 22  8  1  0
 29 24  1  0
 20 15  1  0
  3 31  1  0
  4 32  1  0
  9 33  1  0
 10 34  1  0
 16 35  1  0
 16 36  1  0
 17 37  1  0
 17 38  1  0
 19 39  1  0
 19 40  1  0
 20 41  1  0
 20 42  1  0
 21 43  1  0
 22 44  1  0
 26 45  1  0
 27 46  1  0
 28 47  1  0
M  CHG  3   7  -1  25  -1  30  -1
M  END
>  <UniqueID>  (9) 
7

>  <SMILES>  (9) 
O=C(C=CC(=O)[N-]c1ccc(S(=O)(=O)N2CCOCC2)cc1)N=c1[n-]cccc1[O-]

>  <Energy>  (9) 
68.12980837491922

>  <Genealogy>  (9) 
O=C(C=CC(=O)[N-]c1ccc(S(=O)(=O)N2CCOCC2)cc1)N=c1[n-]cccc1[O-] (protonated)
O=C(C=CC(=O)[N-]c1ccc(S(=O)(=O)N2CCOCC2)cc1)N=c1[n-]cccc1[O-] (3D coordinates assigned)
O=C(C=CC(=O)[N-]c1ccc(S(=O)(=O)N2CCOCC2)cc1)N=c1[n-]cccc1[O-] (nonaromatic ring conformer: 68.12980837491922 kcal/mol)

>  <smiles>  (9) 
O=C(C=CC(=O)Nc1ccc(S(=O)(=O)N2CCOCC2)cc1)N=c1[nH]cccc1O

>  <score_type>  (9) 
oracle

>  <origin>  (9) 
adg

>  <m_score__min__energy>  (9) 
-15.4

>  <m_primary>  (9) 
energy

$$$$
9:0
     RDKit          3D

 58 61  0  0  0  0  0  0  0  0999 V2000
   54.7680   27.1460   45.9740 H   0  0  0  0  0  0  0  0  0  0  0  0
   54.5010   26.1690   45.8790 O   0  0  0  0  0  0  0  0  0  0  0  0
   55.4350   25.1330   45.9150 C   0  0  0  0  0  0  0  0  0  0  0  0
   55.0140   23.8350   45.6240 C   0  0  0  0  0  0  0  0  0  0  0  0
   53.9607   23.6438   45.3710 H   0  0  0  0  0  0  0  0  0  0  0  0
   55.9260   22.7780   45.6530 C   0  0  0  0  0  0  0  0  0  0  0  0
   55.5964   21.7536   45.4250 H   0  0  0  0  0  0  0  0  0  0  0  0
   57.2590   23.0340   45.9740 C   0  0  0  0  0  0  0  0  0  0  0  0
   57.9884   22.2110   45.9993 H   0  0  0  0  0  0  0  0  0  0  0  0
   57.6530   24.3020   46.2550 N   0  0  0  0  0  0  0  0  0  0  0  0
   56.7900   25.3590   46.2350 C   0  0  0  0  0  0  0  0  0  0  0  0
   57.1890   26.5670   46.5160 N   0  0  0  0  0  0  0  0  0  0  0  0
   57.4280   27.6820   45.6360 C   0  0  0  0  0  0  0  0  0  0  0  0
   56.4300   28.3470   45.2480 O   0  0  0  0  0  0  0  0  0  0  0  0
   58.8140   28.0760   45.1710 C   0  0  0  0  0  0  0  0  0  0  0  0
   59.3830   27.1612   44.9486 H   0  0  0  0  0  0  0  0  0  0  0  0
   58.6956   28.7108   44.2805 H   0  0  0  0  0  0  0  0  0  0  0  0
   59.5730   28.8770   46.2010 C   0  0  0  0  0  0  0  0  0  0  0  0
   59.1890   28.8360   47.5520 C   0  0  0  0  0  0  0  0  0  0  0  0
   58.3129   28.2437   47.8548 H   0  0  0  0  0  0  0  0  0  0  0  0
   59.9160   29.5450   48.5130 C   0  0  0  0  0  0  0  0  0  0  0  0
   59.6050   29.5148   49.5677 H   0  0  0  0  0  0  0  0  0  0  0  0
   61.0380   30.2930   48.1380 C   0  0  0  0  0  0  0  0  0  0  0  0
   61.8080   30.9290   49.1190 O   0  0  0  0  0  0  0  0  0  0  0  0
   61.8640   32.3570   49.2750 C   0  0  0  0  0  0  0  0  0  0  0  0
   60.6220   32.8530   49.9820 C   0  0  0  0  0  0  0  0  0  0  0  0
   60.5960   34.0220   50.4540 O   0  0  0  0  0  0  0  0  0  0  0  0
   59.4440   32.0470   50.0190 N   0  0  0  0  0  0  0  0  0  0  0  0
   58.2040   32.3810   49.3260 C   0  0  0  0  0  0  0  0  0  0  0  0
   57.5758   31.4814   49.2487 H   0  0  0  0  0  0  0  0  0  0  0  0
   57.6713   33.1593   49.8921 H   0  0  0  0  0  0  0  0  0  0  0  0
   58.5100   32.8940   47.9490 C   0  0  0  0  0  0  0  0  0  0  0  0
   58.9920   34.2020   47.7780 C   0  0  0  0  0  0  0  0  0  0  0  0
   59.1635   34.8391   48.6581 H   0  0  0  0  0  0  0  0  0  0  0  0
   59.2550   34.7000   46.5030 C   0  0  0  0  0  0  0  0  0  0  0  0
   59.6397   35.7231   46.3793 H   0  0  0  0  0  0  0  0  0  0  0  0
   59.0290   33.8970   45.3830 C   0  0  0  0  0  0  0  0  0  0  0  0
   59.2860   34.3840   44.1430 F   0  0  0  0  0  0  0  0  0  0  0  0
   58.5290   32.6000   45.5390 C   0  0  0  0  0  0  0  0  0  0  0  0
   58.3439   31.9724   44.6548 H   0  0  0  0  0  0  0  0  0  0  0  0
   58.2640   32.1000   46.8190 C   0  0  0  0  0  0  0  0  0  0  0  0
   57.8623   31.0830   46.9391 H   0  0  0  0  0  0  0  0  0  0  0  0
   62.0870   33.0480   47.9260 C   0  0  0  0  0  0  0  0  0  0  0  0
   61.4937   32.5595   47.1390 H   0  0  0  0  0  0  0  0  0  0  0  0
   61.7764   34.1030   47.9468 H   0  0  0  0  0  0  0  0  0  0  0  0
   63.5740   32.8970   47.6450 C   0  0  0  0  0  0  0  0  0  0  0  0
   63.7568   32.0029   47.0309 H   0  0  0  0  0  0  0  0  0  0  0  0
   63.9665   33.7626   47.0912 H   0  0  0  0  0  0  0  0  0  0  0  0
   64.2530   32.7530   49.0030 C   0  0  0  0  0  0  0  0  0  0  0  0
   64.8389   31.8227   49.0381 H   0  0  0  0  0  0  0  0  0  0  0  0
   64.9439   33.5877   49.1926 H   0  0  0  0  0  0  0  0  0  0  0  0
   63.1380   32.7130   50.0430 C   0  0  0  0  0  0  0  0  0  0  0  0
   63.3521   31.9490   50.8048 H   0  0  0  0  0  0  0  0  0  0  0  0
   63.0390   33.6748   50.5675 H   0  0  0  0  0  0  0  0  0  0  0  0
   61.3810   30.4000   46.7820 C   0  0  0  0  0  0  0  0  0  0  0  0
   62.2225   31.0391   46.4764 H   0  0  0  0  0  0  0  0  0  0  0  0
   60.6520   29.6930   45.8170 C   0  0  0  0  0  0  0  0  0  0  0  0
   60.9247   29.7765   44.7546 H   0  0  0  0  0  0  0  0  0  0  0  0
  1  2  1  0
  2  3  1  0
  3  4  2  0
  4  5  1  0
  4  6  1  0
  6  7  1  0
  6  8  2  0
  8  9  1  0
  8 10  1  0
 10 11  1  0
 11 12  2  0
 12 13  1  0
 13 14  2  0
 13 15  1  0
 15 16  1  0
 15 17  1  0
 15 18  1  0
 18 19  2  0
 19 20  1  0
 19 21  1  0
 21 22  1  0
 21 23  2  0
 23 24  1  0
 24 25  1  0
 25 26  1  0
 26 27  2  0
 26 28  1  0
 28 29  1  0
 29 30  1  0
 29 31  1  0
 29 32  1  0
 32 33  2  0
 33 34  1  0
 33 35  1  0
 35 36  1  0
 35 37  2  0
 37 38  1  0
 37 39  1  0
 39 40  1  0
 39 41  2  0
 41 42  1  0
 25 43  1  0
 43 44  1  0
 43 45  1  0
 43 46  1  0
 46 47  1  0
 46 48  1  0
 46 49  1  0
 49 50  1  0
 49 51  1  0
 49 52  1  0
 52 53  1  0
 52 54  1  0
 23 55  1  0
 55 56  1  0
 55 57  2  0
 57 58  1  0
 11  3  1  0
 57 18  1  0
 52 25  1  0
 41 32  1  0
M  CHG  2  10  -1  28  -1
M  END
>  <UniqueID>  (10) 
8

>  <SMILES>  (10) 
O=C(Cc1ccc(OC2(C(=O)[N-]Cc3ccc(F)cc3)CCCC2)cc1)/N=c1\[n-]cccc1O

>  <Energy>  (10) 
73.31829926953807

>  <Genealogy>  (10) 
O=C(Cc1ccc(OC2(C(=O)[N-]Cc3ccc(F)cc3)CCCC2)cc1)N=c1[n-]cccc1O (protonated)
O=C(Cc1ccc(OC2(C(=O)[N-]Cc3ccc(F)cc3)CCCC2)cc1)/N=c1\[n-]cccc1O (cis-trans isomerization)
O=C(Cc1ccc(OC2(C(=O)[N-]Cc3ccc(F)cc3)CCCC2)cc1)/N=c1\[n-]cccc1O (3D coordinates assigned)
O=C(Cc1ccc(OC2(C(=O)[N-]Cc3ccc(F)cc3)CCCC2)cc1)/N=c1\[n-]cccc1O (nonaromatic ring conformer: 73.31829926953807 kcal/mol)

>  <smiles>  (10) 
O=C(Cc1ccc(OC2(C(=O)NCc3ccc(F)cc3)CCCC2)cc1)N=c1[nH]cccc1O

>  <score_type>  (10) 
oracle

>  <origin>  (10) 
adg

>  <m_score__min__energy>  (10) 
-12.300000000000001

>  <m_primary>  (10) 
energy

$$$$
10:0
     RDKit          3D

 49 52  0  0  0  0  0  0  0  0999 V2000
   57.1890   26.1000   47.1620 C   0  0  0  0  0  0  0  0  0  0  0  0
   57.3820   25.9090   45.8480 C   0  0  0  0  0  0  0  0  0  0  0  0
   56.8250   24.9050   45.0350 C   0  0  0  0  0  0  0  0  0  0  0  0
   56.0940   23.8170   45.3470 C   0  0  0  0  0  0  0  0  0  0  0  0
   54.6250   23.7430   45.3510 C   0  0  0  0  0  0  0  0  0  0  0  0
   53.9400   22.5910   45.2450 N   0  0  0  0  0  0  0  0  0  0  0  0
   52.6550   22.9760   45.4010 C   0  0  0  0  0  0  0  0  0  0  0  0
   51.6950   22.1640   45.3540 O   0  0  0  0  0  0  0  0  0  0  0  0
   52.4810   24.2950   45.6250 N   0  0  0  0  0  0  0  0  0  0  0  0
   53.7380   24.7690   45.6060 C   0  0  0  0  0  0  0  0  0  0  0  0
   54.0560   26.1030   45.8420 O   0  0  0  0  0  0  0  0  0  0  0  0
   57.1690   25.2290   43.7300 C   0  0  0  0  0  0  0  0  0  0  0  0
   57.9580   26.3580   43.7910 C   0  0  0  0  0  0  0  0  0  0  0  0
   58.4920   27.0920   42.6000 C   0  0  0  0  0  0  0  0  0  0  0  0
   58.0890   26.7680   45.0710 N   0  0  0  0  0  0  0  0  0  0  0  0
   58.7390   27.9780   45.4940 C   0  0  0  0  0  0  0  0  0  0  0  0
   60.0740   27.9060   45.9140 C   0  0  0  0  0  0  0  0  0  0  0  0
   60.7550   29.0520   46.3200 C   0  0  0  0  0  0  0  0  0  0  0  0
   60.1110   30.2950   46.3130 C   0  0  0  0  0  0  0  0  0  0  0  0
   60.8220   31.4750   46.7300 N   0  0  0  0  0  0  0  0  0  0  0  0
   62.0750   31.3460   47.4810 C   0  0  0  0  0  0  0  0  0  0  0  0
   62.9660   32.5600   47.2040 C   0  0  0  0  0  0  0  0  0  0  0  0
   62.2610   33.7620   47.4500 O   0  0  0  0  0  0  0  0  0  0  0  0
   61.1940   33.8900   46.5290 C   0  0  0  0  0  0  0  0  0  0  0  0
   60.1550   32.7800   46.7360 C   0  0  0  0  0  0  0  0  0  0  0  0
   58.7760   30.3760   45.8900 C   0  0  0  0  0  0  0  0  0  0  0  0
   58.0680   29.2280   45.4830 C   0  0  0  0  0  0  0  0  0  0  0  0
   56.6440   29.3660   45.0720 C   0  0  0  0  0  0  0  0  0  0  0  0
   56.2310   30.4450   44.5670 O   0  0  0  0  0  0  0  0  0  0  0  0
   55.7360   28.3260   45.2450 O   0  0  0  0  0  0  0  0  0  0  0  0
   57.6918   26.9322   47.6765 H   0  0  0  0  0  0  0  0  0  0  0  0
   56.5280   25.4244   47.7247 H   0  0  0  0  0  0  0  0  0  0  0  0
   56.6436   22.9049   45.6227 H   0  0  0  0  0  0  0  0  0  0  0  0
   54.4170   26.7030   45.1090 H   0  0  0  0  0  0  0  0  0  0  0  0
   56.8692   24.6881   42.8203 H   0  0  0  0  0  0  0  0  0  0  0  0
   59.1080   27.9387   42.9370 H   0  0  0  0  0  0  0  0  0  0  0  0
   59.1064   26.4098   41.9941 H   0  0  0  0  0  0  0  0  0  0  0  0
   57.6538   27.4666   41.9941 H   0  0  0  0  0  0  0  0  0  0  0  0
   60.5899   26.9345   45.9233 H   0  0  0  0  0  0  0  0  0  0  0  0
   61.8027   28.9796   46.6473 H   0  0  0  0  0  0  0  0  0  0  0  0
   61.8532   31.2924   48.5571 H   0  0  0  0  0  0  0  0  0  0  0  0
   62.5969   30.4300   47.1670 H   0  0  0  0  0  0  0  0  0  0  0  0
   63.8484   32.5179   47.8595 H   0  0  0  0  0  0  0  0  0  0  0  0
   63.2747   32.5397   46.1484 H   0  0  0  0  0  0  0  0  0  0  0  0
   60.7101   34.8674   46.6722 H   0  0  0  0  0  0  0  0  0  0  0  0
   61.5983   33.8068   45.5094 H   0  0  0  0  0  0  0  0  0  0  0  0
   59.6486   32.9279   47.7013 H   0  0  0  0  0  0  0  0  0  0  0  0
   59.4151   32.8159   45.9228 H   0  0  0  0  0  0  0  0  0  0  0  0
   58.2726   31.3540   45.8758 H   0  0  0  0  0  0  0  0  0  0  0  0
  1  2  2  0
  2  3  1  0
  3  4  2  3
  4  5  1  0
  5  6  1  0
  6  7  1  0
  7  8  2  0
  7  9  1  0
  9 10  1  0
 10 11  1  0
  3 12  1  0
 12 13  2  0
 13 14  1  0
 13 15  1  0
 15 16  1  0
 16 17  2  0
 17 18  1  0
 18 19  2  0
 19 20  1  0
 20 21  1  0
 21 22  1  0
 22 23  1  0
 23 24  1  0
 24 25  1  0
 19 26  1  0
 26 27  2  0
 27 28  1  0
 28 29  2  0
 28 30  1  0
 15  2  1  0
 27 16  1  0
 10  5  2  0
 25 20  1  0
  1 31  1  0
  1 32  1  0
  4 33  1  0
 11 34  1  0
 12 35  1  0
 14 36  1  0
 14 37  1  0
 14 38  1  0
 17 39  1  0
 18 40  1  0
 21 41  1  0
 21 42  1  0
 22 43  1  0
 22 44  1  0
 24 45  1  0
 24 46  1  0
 25 47  1  0
 25 48  1  0
 26 49  1  0
M  CHG  3   6  -1   9  -1  30  -1
M  END
>  <UniqueID>  (11) 
9

>  <SMILES>  (11) 
C=c1c(=Cc2[n-]c(=O)[n-]c2O)cc(C)n1-c1ccc(N2CCOCC2)cc1C(=O)[O-]

>  <Energy>  (11) 
135.49665689924393

>  <Genealogy>  (11) 
C=c1c(=Cc2[n-]c(=O)[n-]c2O)cc(C)n1-c1ccc(N2CCOCC2)cc1C(=O)[O-] (protonated)
C=c1c(=Cc2[n-]c(=O)[n-]c2O)cc(C)n1-c1ccc(N2CCOCC2)cc1C(=O)[O-] (3D coordinates assigned)
C=c1c(=Cc2[n-]c(=O)[n-]c2O)cc(C)n1-c1ccc(N2CCOCC2)cc1C(=O)[O-] (nonaromatic ring conformer: 135.49665689924393 kcal/mol)

>  <smiles>  (11) 
C=c1c(=Cc2[nH]c(=O)[nH]c2O)cc(C)n1-c1ccc(N2CCOCC2)cc1C(=O)O

>  <score_type>  (11) 
oracle

>  <origin>  (11) 
adg

>  <m_score__min__energy>  (11) 
-15.359999999999999

>  <m_primary>  (11) 
energy

$$$$
11:0
     RDKit          3D

 70 74  0  0  0  0  0  0  0  0999 V2000
   57.5360   25.1390   47.8860 C   0  0  0  0  0  0  0  0  0  0  0  0
   57.9890   25.8480   46.8390 C   0  0  0  0  0  0  0  0  0  0  0  0
   57.5960   25.7250   45.4970 C   0  0  0  0  0  0  0  0  0  0  0  0
   56.8480   24.7930   44.8770 C   0  0  0  0  0  0  0  0  0  0  0  0
   55.4300   24.5110   45.1530 C   0  0  0  0  0  0  0  0  0  0  0  0
   54.7900   23.3810   44.7930 N   0  0  0  0  0  0  0  0  0  0  0  0
   53.5030   23.6380   45.1050 C   0  0  0  0  0  0  0  0  0  0  0  0
   52.5820   22.8010   44.9260 O   0  0  0  0  0  0  0  0  0  0  0  0
   53.2790   24.8690   45.6160 N   0  0  0  0  0  0  0  0  0  0  0  0
   54.5070   25.4110   45.6250 C   0  0  0  0  0  0  0  0  0  0  0  0
   54.7790   26.7070   46.0510 O   0  0  0  0  0  0  0  0  0  0  0  0
   58.1790   26.7870   44.8230 C   0  0  0  0  0  0  0  0  0  0  0  0
   58.9430   27.4730   45.7430 C   0  0  0  0  0  0  0  0  0  0  0  0
   59.7970   28.6630   45.4320 C   0  0  0  0  0  0  0  0  0  0  0  0
   58.8380   26.8990   46.9610 N   0  0  0  0  0  0  0  0  0  0  0  0
   59.4720   27.3690   48.1610 C   0  0  0  0  0  0  0  0  0  0  0  0
   59.1670   28.6370   48.6710 C   0  0  0  0  0  0  0  0  0  0  0  0
   59.7890   29.0980   49.8330 C   0  0  0  0  0  0  0  0  0  0  0  0
   60.7150   28.2900   50.5170 C   0  0  0  0  0  0  0  0  0  0  0  0
   61.4030   28.7420   51.7570 C   0  0  0  0  0  0  0  0  0  0  0  0
   61.2190   28.0650   52.8090 O   0  0  0  0  0  0  0  0  0  0  0  0
   62.2510   29.9230   51.8280 N   0  0  0  0  0  0  0  0  0  0  0  0
   63.5800   29.6580   51.2320 C   0  0  0  0  0  0  0  0  0  0  0  0
   64.3590   30.9510   51.0020 C   0  0  0  0  0  0  0  0  0  0  0  0
   63.6200   31.8180   50.0790 N   0  0  0  0  0  0  0  0  0  0  0  0
   64.3470   32.7000   49.1950 C   0  0  0  0  0  0  0  0  0  0  0  0
   65.5690   32.9360   49.4130 O   0  0  0  0  0  0  0  0  0  0  0  0
   63.7010   33.3460   47.9970 C   0  0  0  0  0  0  0  0  0  0  0  0
   62.5170   34.1920   48.3880 C   0  0  0  0  0  0  0  0  0  0  0  0
   62.6500   34.9980   49.3490 O   0  0  0  0  0  0  0  0  0  0  0  0
   61.2470   34.1020   47.7050 N   0  0  0  0  0  0  0  0  0  0  0  0
   60.0040   34.3210   48.4510 C   0  0  0  0  0  0  0  0  0  0  0  0
   58.9530   34.9500   47.5310 C   0  0  0  0  0  0  0  0  0  0  0  0
   58.7910   34.1780   46.3550 O   0  0  0  0  0  0  0  0  0  0  0  0
   59.9890   34.1960   45.6010 C   0  0  0  0  0  0  0  0  0  0  0  0
   61.1300   33.5150   46.3660 C   0  0  0  0  0  0  0  0  0  0  0  0
   62.1500   31.7860   50.0780 C   0  0  0  0  0  0  0  0  0  0  0  0
   61.5790   31.1790   51.3760 C   0  0  0  0  0  0  0  0  0  0  0  0
   61.0330   27.0260   49.9850 C   0  0  0  0  0  0  0  0  0  0  0  0
   60.4150   26.5700   48.8160 C   0  0  0  0  0  0  0  0  0  0  0  0
   57.9291   25.3351   48.8945 H   0  0  0  0  0  0  0  0  0  0  0  0
   56.7719   24.3623   47.7350 H   0  0  0  0  0  0  0  0  0  0  0  0
   57.3383   24.1910   44.0978 H   0  0  0  0  0  0  0  0  0  0  0  0
   58.0557   27.0348   43.7584 H   0  0  0  0  0  0  0  0  0  0  0  0
   60.1317   29.1294   46.3703 H   0  0  0  0  0  0  0  0  0  0  0  0
   60.6730   28.3432   44.8486 H   0  0  0  0  0  0  0  0  0  0  0  0
   59.2136   29.3906   44.8486 H   0  0  0  0  0  0  0  0  0  0  0  0
   58.4337   29.2731   48.1536 H   0  0  0  0  0  0  0  0  0  0  0  0
   59.5528   30.1015   50.2167 H   0  0  0  0  0  0  0  0  0  0  0  0
   62.4360   30.0690   52.8500 H   0  0  0  0  0  0  0  0  0  0  0  0
   64.1539   29.0112   51.9119 H   0  0  0  0  0  0  0  0  0  0  0  0
   63.4298   29.1682   50.2586 H   0  0  0  0  0  0  0  0  0  0  0  0
   64.4952   31.4710   51.9617 H   0  0  0  0  0  0  0  0  0  0  0  0
   65.3409   30.7114   50.5680 H   0  0  0  0  0  0  0  0  0  0  0  0
   64.4427   33.9829   47.4927 H   0  0  0  0  0  0  0  0  0  0  0  0
   63.3453   32.5481   47.3285 H   0  0  0  0  0  0  0  0  0  0  0  0
   59.6299   33.3580   48.8287 H   0  0  0  0  0  0  0  0  0  0  0  0
   60.2007   34.9980   49.2954 H   0  0  0  0  0  0  0  0  0  0  0  0
   57.9920   35.0027   48.0636 H   0  0  0  0  0  0  0  0  0  0  0  0
   59.2885   35.9588   47.2485 H   0  0  0  0  0  0  0  0  0  0  0  0
   59.8247   33.6646   44.6520 H   0  0  0  0  0  0  0  0  0  0  0  0
   60.2690   35.2430   45.4130 H   0  0  0  0  0  0  0  0  0  0  0  0
   60.9191   32.4391   46.4556 H   0  0  0  0  0  0  0  0  0  0  0  0
   62.0735   33.6623   45.8200 H   0  0  0  0  0  0  0  0  0  0  0  0
   61.7735   32.8141   49.9723 H   0  0  0  0  0  0  0  0  0  0  0  0
   61.8268   31.1527   49.2387 H   0  0  0  0  0  0  0  0  0  0  0  0
   61.6778   31.9272   52.1762 H   0  0  0  0  0  0  0  0  0  0  0  0
   60.5343   30.9111   51.1596 H   0  0  0  0  0  0  0  0  0  0  0  0
   61.7740   26.3914   50.4931 H   0  0  0  0  0  0  0  0  0  0  0  0
   60.6713   25.5801   48.4105 H   0  0  0  0  0  0  0  0  0  0  0  0
  1  2  2  0
  2  3  1  0
  3  4  2  3
  4  5  1  0
  5  6  1  0
  6  7  1  0
  7  8  2  0
  7  9  1  0
  9 10  1  0
 10 11  1  0
  3 12  1  0
 12 13  2  0
 13 14  1  0
 13 15  1  0
 15 16  1  0
 16 17  2  0
 17 18  1  0
 18 19  2  0
 19 20  1  0
 20 21  2  0
 20 22  1  0
 22 23  1  0
 23 24  1  0
 24 25  1  0
 25 26  1  0
 26 27  2  0
 26 28  1  0
 28 29  1  0
 29 30  2  0
 29 31  1  0
 31 32  1  0
 32 33  1  0
 33 34  1  0
 34 35  1  0
 35 36  1  0
 25 37  1  0
 37 38  1  0
 19 39  1  0
 39 40  2  0
 15  2  1  0
 40 16  1  0
 10  5  2  0
 38 22  1  0
 36 31  1  0
  1 41  1  0
  1 42  1  0
  4 43  1  0
 12 44  1  0
 14 45  1  0
 14 46  1  0
 14 47  1  0
 17 48  1  0
 18 49  1  0
 22 50  1  0
 23 51  1  0
 23 52  1  0
 24 53  1  0
 24 54  1  0
 28 55  1  0
 28 56  1  0
 32 57  1  0
 32 58  1  0
 33 59  1  0
 33 60  1  0
 35 61  1  0
 35 62  1  0
 36 63  1  0
 36 64  1  0
 37 65  1  0
 37 66  1  0
 38 67  1  0
 38 68  1  0
 39 69  1  0
 40 70  1  0
M  CHG  4   6  -1   9  -1  11  -1  22   1
M  END
>  <UniqueID>  (12) 
10

>  <SMILES>  (12) 
C=c1c(=Cc2[n-]c(=O)[n-]c2[O-])cc(C)n1-c1ccc(C(=O)[NH+]2CCN(C(=O)CC(=O)N3CCOCC3)CC2)cc1

>  <Energy>  (12) 
165.56863023684022

>  <Genealogy>  (12) 
C=c1c(=Cc2[n-]c(=O)[n-]c2[O-])cc(C)n1-c1ccc(C(=O)[NH+]2CCN(C(=O)CC(=O)N3CCOCC3)CC2)cc1 (protonated)
C=c1c(=Cc2[n-]c(=O)[n-]c2[O-])cc(C)n1-c1ccc(C(=O)[NH+]2CCN(C(=O)CC(=O)N3CCOCC3)CC2)cc1 (3D coordinates assigned)
C=c1c(=Cc2[n-]c(=O)[n-]c2[O-])cc(C)n1-c1ccc(C(=O)[NH+]2CCN(C(=O)CC(=O)N3CCOCC3)CC2)cc1 (nonaromatic ring conformer: 165.56863023684022 kcal/mol)

>  <smiles>  (12) 
C=c1c(=Cc2[nH]c(=O)[nH]c2O)cc(C)n1-c1ccc(C(=O)N2CCN(C(=O)CC(=O)N3CCOCC3)CC2)cc1

>  <score_type>  (12) 
oracle

>  <origin>  (12) 
adg

>  <m_score__min__energy>  (12) 
-17.34

>  <m_primary>  (12) 
energy

$$$$
12:0
     RDKit          3D

 54 56  0  0  0  0  0  0  0  0999 V2000
   55.5680   27.9890   44.9170 H   0  0  0  0  0  0  0  0  0  0  0  0
   55.5260   28.9800   45.2430 N   0  0  0  0  0  0  0  0  0  0  0  0
   56.4400   29.9190   44.1170 S   0  0  0  0  0  0  0  0  0  0  0  0
   55.9260   29.6580   42.7290 O   0  0  0  0  0  0  0  0  0  0  0  0
   57.8880   29.5280   44.2060 O   0  0  0  0  0  0  0  0  0  0  0  0
   56.2600   31.6010   44.5010 N   0  0  0  0  0  0  0  0  0  0  0  0
   57.2040   32.3280   45.0160 C   0  0  0  0  0  0  0  0  0  0  0  0
   58.0160   33.0880   44.2290 N   0  0  0  0  0  0  0  0  0  0  0  0
   59.0050   33.8530   44.7600 C   0  0  0  0  0  0  0  0  0  0  0  0
   59.6567   34.4493   44.1044 H   0  0  0  0  0  0  0  0  0  0  0  0
   59.1890   33.8770   46.1490 C   0  0  0  0  0  0  0  0  0  0  0  0
   60.2990   34.6560   46.7330 C   0  0  0  0  0  0  0  0  0  0  0  0
   61.0088   35.1222   46.0338 H   0  0  0  0  0  0  0  0  0  0  0  0
   60.5160   34.8440   48.0450 C   0  0  0  0  0  0  0  0  0  0  0  0
   60.8368   35.8460   48.3661 H   0  0  0  0  0  0  0  0  0  0  0  0
   60.3580   33.8100   49.0950 C   0  0  0  0  0  0  0  0  0  0  0  0
   59.6000   34.0210   50.0800 O   0  0  0  0  0  0  0  0  0  0  0  0
   61.0610   32.5590   49.0110 N   0  0  0  0  0  0  0  0  0  0  0  0
   60.3630   31.3240   49.3800 C   0  0  0  0  0  0  0  0  0  0  0  0
   59.3504   31.3389   48.9505 H   0  0  0  0  0  0  0  0  0  0  0  0
   60.3102   31.2608   50.4769 H   0  0  0  0  0  0  0  0  0  0  0  0
   61.1200   30.0940   48.8480 C   0  0  0  0  0  0  0  0  0  0  0  0
   60.4214   29.2474   48.7763 H   0  0  0  0  0  0  0  0  0  0  0  0
   61.9408   29.8654   49.5437 H   0  0  0  0  0  0  0  0  0  0  0  0
   61.7010   30.3530   47.5120 N   0  0  0  0  0  0  0  0  0  0  0  0
   60.6550   30.5470   46.4830 C   0  0  0  0  0  0  0  0  0  0  0  0
   61.1326   30.6976   45.5036 H   0  0  0  0  0  0  0  0  0  0  0  0
   60.0518   31.4282   46.7468 H   0  0  0  0  0  0  0  0  0  0  0  0
   59.7570   29.3390   46.4180 C   0  0  0  0  0  0  0  0  0  0  0  0
   60.0460   28.2990   45.5210 C   0  0  0  0  0  0  0  0  0  0  0  0
   60.9343   28.3631   44.8754 H   0  0  0  0  0  0  0  0  0  0  0  0
   59.2090   27.1820   45.4450 C   0  0  0  0  0  0  0  0  0  0  0  0
   59.4383   26.3733   44.7355 H   0  0  0  0  0  0  0  0  0  0  0  0
   58.0800   27.0880   46.2680 C   0  0  0  0  0  0  0  0  0  0  0  0
   57.0140   25.6910   46.1600 S   0  0  0  0  0  0  0  0  0  0  0  0
   57.1930   24.8170   47.3710 O   0  0  0  0  0  0  0  0  0  0  0  0
   55.5840   26.1470   46.1010 O   0  0  0  0  0  0  0  0  0  0  0  0
   57.4060   24.7620   44.6960 C   0  0  0  0  0  0  0  0  0  0  0  0
   57.8189   23.7835   44.9823 H   0  0  0  0  0  0  0  0  0  0  0  0
   56.4933   24.6147   44.0999 H   0  0  0  0  0  0  0  0  0  0  0  0
   58.1483   25.3130   44.0999 H   0  0  0  0  0  0  0  0  0  0  0  0
   57.7860   28.1280   47.1590 C   0  0  0  0  0  0  0  0  0  0  0  0
   56.8950   28.0638   47.8009 H   0  0  0  0  0  0  0  0  0  0  0  0
   58.6200   29.2470   47.2360 C   0  0  0  0  0  0  0  0  0  0  0  0
   58.3845   30.0585   47.9402 H   0  0  0  0  0  0  0  0  0  0  0  0
   62.6970   31.4600   47.5250 C   0  0  0  0  0  0  0  0  0  0  0  0
   62.6361   31.9921   46.5642 H   0  0  0  0  0  0  0  0  0  0  0  0
   63.6827   31.0010   47.6916 H   0  0  0  0  0  0  0  0  0  0  0  0
   62.4810   32.4800   48.6590 C   0  0  0  0  0  0  0  0  0  0  0  0
   62.8278   33.4698   48.3272 H   0  0  0  0  0  0  0  0  0  0  0  0
   63.0504   32.1568   49.5430 H   0  0  0  0  0  0  0  0  0  0  0  0
   58.3920   33.0980   46.9300 N   0  0  0  0  0  0  0  0  0  0  0  0
   57.4020   32.3330   46.3990 C   0  0  0  0  0  0  0  0  0  0  0  0
   56.7618   31.7227   47.0529 H   0  0  0  0  0  0  0  0  0  0  0  0
  1  2  1  0
  2  3  1  0
  3  4  2  0
  3  5  2  0
  3  6  1  0
  6  7  2  0
  7  8  1  0
  8  9  1  0
  9 10  1  0
  9 11  2  0
 11 12  1  0
 12 13  1  0
 12 14  2  3
 14 15  1  0
 14 16  1  0
 16 17  2  0
 16 18  1  0
 18 19  1  0
 19 20  1  0
 19 21  1  0
 19 22  1  0
 22 23  1  0
 22 24  1  0
 22 25  1  0
 25 26  1  0
 26 27  1  0
 26 28  1  0
 26 29  1  0
 29 30  2  0
 30 31  1  0
 30 32  1  0
 32 33  1  0
 32 34  2  0
 34 35  1  0
 35 36  2  0
 35 37  2  0
 35 38  1  0
 38 39  1  0
 38 40  1  0
 38 41  1  0
 34 42  1  0
 42 43  1  0
 42 44  2  0
 44 45  1  0
 25 46  1  0
 46 47  1  0
 46 48  1  0
 46 49  1  0
 49 50  1  0
 49 51  1  0
 11 52  1  0
 52 53  2  0
 53 54  1  0
 53  7  1  0
 49 18  1  0
 44 29  1  0
M  CHG  2   2  -1   8  -1
M  END
>  <UniqueID>  (13) 
11

>  <SMILES>  (13) 
CS(=O)(=O)c1ccc(CN2CCN(C(=O)C=Cc3c[n-]/c(=N\S([NH-])(=O)=O)cn3)CC2)cc1

>  <Energy>  (13) 
72.55479972149061

>  <Genealogy>  (13) 
CS(=O)(=O)c1ccc(CN2CCN(C(=O)C=Cc3c[n-]c(=NS([NH-])(=O)=O)cn3)CC2)cc1 (protonated)
CS(=O)(=O)c1ccc(CN2CCN(C(=O)C=Cc3c[n-]/c(=N\S([NH-])(=O)=O)cn3)CC2)cc1 (cis-trans isomerization)
CS(=O)(=O)c1ccc(CN2CCN(C(=O)C=Cc3c[n-]/c(=N\S([NH-])(=O)=O)cn3)CC2)cc1 (3D coordinates assigned)
CS(=O)(=O)c1ccc(CN2CCN(C(=O)C=Cc3c[n-]/c(=N\S([NH-])(=O)=O)cn3)CC2)cc1 (nonaromatic ring conformer: 72.55479972149061 kcal/mol)

>  <smiles>  (13) 
CS(=O)(=O)c1ccc(CN2CCN(C(=O)C=Cc3c[nH]c(=NS(N)(=O)=O)cn3)CC2)cc1

>  <score_type>  (13) 
oracle

>  <origin>  (13) 
adg

>  <m_score__min__energy>  (13) 
-13.92

>  <m_primary>  (13) 
energy

$$$$
13:0
     RDKit          3D

 68 71  0  0  0  0  0  0  0  0999 V2000
   57.0150   31.0620   43.0190 C   0  0  0  0  0  0  0  0  0  0  0  0
   56.7330   30.1160   44.1510 C   0  0  0  0  0  0  0  0  0  0  0  0
   55.6050   30.1700   44.7190 O   0  0  0  0  0  0  0  0  0  0  0  0
   57.7180   29.1530   44.5900 N   0  0  0  0  0  0  0  0  0  0  0  0
   57.8240   27.8640   43.8970 C   0  0  0  0  0  0  0  0  0  0  0  0
   58.5270   29.4020   45.7580 C   0  0  0  0  0  0  0  0  0  0  0  0
   59.6160   30.2890   45.7120 C   0  0  0  0  0  0  0  0  0  0  0  0
   60.3710   30.5090   46.8650 C   0  0  0  0  0  0  0  0  0  0  0  0
   60.0430   29.8530   48.0560 C   0  0  0  0  0  0  0  0  0  0  0  0
   60.9680   30.1670   49.5220 S   0  0  0  0  0  0  0  0  0  0  0  0
   62.1820   30.9870   49.1790 O   0  0  0  0  0  0  0  0  0  0  0  0
   61.4260   28.8520   50.0870 O   0  0  0  0  0  0  0  0  0  0  0  0
   59.9600   31.0100   50.6810 N   0  0  0  0  0  0  0  0  0  0  0  0
   58.5210   30.9570   50.2960 C   0  0  0  0  0  0  0  0  0  0  0  0
   57.9630   32.3010   49.7890 C   0  0  0  0  0  0  0  0  0  0  0  0
   58.9910   33.0170   49.0280 N   0  0  0  0  0  0  0  0  0  0  0  0
   58.8190   33.2950   47.6210 C   0  0  0  0  0  0  0  0  0  0  0  0
   57.5560   33.1220   47.0250 C   0  0  0  0  0  0  0  0  0  0  0  0
   57.3700   33.3660   45.6640 C   0  0  0  0  0  0  0  0  0  0  0  0
   58.4430   33.7750   44.8750 C   0  0  0  0  0  0  0  0  0  0  0  0
   59.7050   33.9490   45.4450 C   0  0  0  0  0  0  0  0  0  0  0  0
   59.9090   33.7170   46.8220 C   0  0  0  0  0  0  0  0  0  0  0  0
   61.1630   33.9110   47.4260 O   0  0  0  0  0  0  0  0  0  0  0  0
   62.4250   33.8220   46.7620 C   0  0  0  0  0  0  0  0  0  0  0  0
   63.3550   32.8620   47.4620 C   0  0  0  0  0  0  0  0  0  0  0  0
   63.7990   31.8670   46.8250 O   0  0  0  0  0  0  0  0  0  0  0  0
   63.7640   33.0740   48.8340 N   0  0  0  0  0  0  0  0  0  0  0  0
   64.9100   32.3230   49.3710 C   0  0  0  0  0  0  0  0  0  0  0  0
   64.8080   32.2060   50.8970 C   0  0  0  0  0  0  0  0  0  0  0  0
   64.5920   33.4730   51.4870 O   0  0  0  0  0  0  0  0  0  0  0  0
   63.3340   33.9740   51.0830 C   0  0  0  0  0  0  0  0  0  0  0  0
   63.3310   34.2640   49.5810 C   0  0  0  0  0  0  0  0  0  0  0  0
   60.2720   33.2920   49.6940 C   0  0  0  0  0  0  0  0  0  0  0  0
   60.4570   32.3830   50.9230 C   0  0  0  0  0  0  0  0  0  0  0  0
   58.9600   28.9660   48.0620 C   0  0  0  0  0  0  0  0  0  0  0  0
   58.2360   28.7660   46.9280 N   0  0  0  0  0  0  0  0  0  0  0  0
   57.3071   32.0420   43.4243 H   0  0  0  0  0  0  0  0  0  0  0  0
   57.8329   30.6618   42.4018 H   0  0  0  0  0  0  0  0  0  0  0  0
   56.1115   31.1750   42.4018 H   0  0  0  0  0  0  0  0  0  0  0  0
   57.8906   27.0537   44.6380 H   0  0  0  0  0  0  0  0  0  0  0  0
   56.9353   27.7124   43.2668 H   0  0  0  0  0  0  0  0  0  0  0  0
   58.7255   27.8596   43.2668 H   0  0  0  0  0  0  0  0  0  0  0  0
   59.8713   30.8056   44.7750 H   0  0  0  0  0  0  0  0  0  0  0  0
   61.2263   31.2001   46.8370 H   0  0  0  0  0  0  0  0  0  0  0  0
   60.0680   30.4900   51.5840 H   0  0  0  0  0  0  0  0  0  0  0  0
   58.4028   30.2092   49.4980 H   0  0  0  0  0  0  0  0  0  0  0  0
   57.9559   30.6973   51.2033 H   0  0  0  0  0  0  0  0  0  0  0  0
   57.0946   32.1132   49.1404 H   0  0  0  0  0  0  0  0  0  0  0  0
   57.6602   32.9138   50.6509 H   0  0  0  0  0  0  0  0  0  0  0  0
   56.7057   32.7906   47.6392 H   0  0  0  0  0  0  0  0  0  0  0  0
   56.3751   33.2353   45.2134 H   0  0  0  0  0  0  0  0  0  0  0  0
   58.2952   33.9611   43.8010 H   0  0  0  0  0  0  0  0  0  0  0  0
   60.5480   34.2698   44.8154 H   0  0  0  0  0  0  0  0  0  0  0  0
   62.2622   33.4737   45.7314 H   0  0  0  0  0  0  0  0  0  0  0  0
   62.8895   34.8191   46.7713 H   0  0  0  0  0  0  0  0  0  0  0  0
   64.9207   31.3151   48.9306 H   0  0  0  0  0  0  0  0  0  0  0  0
   65.8368   32.8580   49.1163 H   0  0  0  0  0  0  0  0  0  0  0  0
   63.9688   31.5422   51.1520 H   0  0  0  0  0  0  0  0  0  0  0  0
   65.7532   31.7956   51.2820 H   0  0  0  0  0  0  0  0  0  0  0  0
   62.5576   33.2284   51.3094 H   0  0  0  0  0  0  0  0  0  0  0  0
   63.1317   34.9087   51.6266 H   0  0  0  0  0  0  0  0  0  0  0  0
   62.3139   34.5406   49.2662 H   0  0  0  0  0  0  0  0  0  0  0  0
   64.0259   35.0910   49.3734 H   0  0  0  0  0  0  0  0  0  0  0  0
   61.0931   33.1108   48.9848 H   0  0  0  0  0  0  0  0  0  0  0  0
   60.2775   34.3402   50.0274 H   0  0  0  0  0  0  0  0  0  0  0  0
   61.5278   32.3341   51.1698 H   0  0  0  0  0  0  0  0  0  0  0  0
   59.8751   32.8122   51.7520 H   0  0  0  0  0  0  0  0  0  0  0  0
   58.6941   28.4300   48.9851 H   0  0  0  0  0  0  0  0  0  0  0  0
  1  2  1  0
  2  3  2  0
  2  4  1  0
  4  5  1  0
  4  6  1  0
  6  7  2  0
  7  8  1  0
  8  9  2  0
  9 10  1  0
 10 11  2  0
 10 12  2  0
 10 13  1  0
 13 14  1  0
 14 15  1  0
 15 16  1  0
 16 17  1  0
 17 18  2  0
 18 19  1  0
 19 20  2  0
 20 21  1  0
 21 22  2  0
 22 23  1  0
 23 24  1  0
 24 25  1  0
 25 26  2  0
 25 27  1  0
 27 28  1  0
 28 29  1  0
 29 30  1  0
 30 31  1  0
 31 32  1  0
 16 33  1  0
 33 34  1  0
  9 35  1  0
 35 36  2  0
 36  6  1  0
 34 13  1  0
 22 17  1  0
 32 27  1  0
  1 37  1  0
  1 38  1  0
  1 39  1  0
  5 40  1  0
  5 41  1  0
  5 42  1  0
  7 43  1  0
  8 44  1  0
 13 45  1  0
 14 46  1  0
 14 47  1  0
 15 48  1  0
 15 49  1  0
 18 50  1  0
 19 51  1  0
 20 52  1  0
 21 53  1  0
 24 54  1  0
 24 55  1  0
 28 56  1  0
 28 57  1  0
 29 58  1  0
 29 59  1  0
 31 60  1  0
 31 61  1  0
 32 62  1  0
 32 63  1  0
 33 64  1  0
 33 65  1  0
 34 66  1  0
 34 67  1  0
 35 68  1  0
M  CHG  1  13   1
M  END
>  <UniqueID>  (14) 
12

>  <SMILES>  (14) 
CC(=O)N(C)c1ccc(S(=O)(=O)[NH+]2CCN(c3ccccc3OCC(=O)N3CCOCC3)CC2)cn1

>  <Energy>  (14) 
88.8374061448876

>  <Genealogy>  (14) 
CC(=O)N(C)c1ccc(S(=O)(=O)[NH+]2CCN(c3ccccc3OCC(=O)N3CCOCC3)CC2)cn1 (protonated)
CC(=O)N(C)c1ccc(S(=O)(=O)[NH+]2CCN(c3ccccc3OCC(=O)N3CCOCC3)CC2)cn1 (3D coordinates assigned)
CC(=O)N(C)c1ccc(S(=O)(=O)[NH+]2CCN(c3ccccc3OCC(=O)N3CCOCC3)CC2)cn1 (nonaromatic ring conformer: 88.8374061448876 kcal/mol)

>  <smiles>  (14) 
CC(=O)N(C)c1ccc(S(=O)(=O)N2CCN(c3ccccc3OCC(=O)N3CCOCC3)CC2)cn1

>  <score_type>  (14) 
oracle

>  <origin>  (14) 
adg

>  <m_score__min__energy>  (14) 
-7.8899999999999997

>  <m_primary>  (14) 
energy

$$$$
14:0
     RDKit          3D

 38 39  0  0  0  0  0  0  0  0999 V2000
   54.9890   26.3590   46.0150 N   0  0  0  0  0  0  0  0  0  0  0  0
   56.6940   26.5910   45.8440 S   0  0  0  0  0  0  0  0  0  0  0  0
   57.3600   26.2510   47.1470 O   0  0  0  0  0  0  0  0  0  0  0  0
   57.2160   25.6840   44.7650 O   0  0  0  0  0  0  0  0  0  0  0  0
   57.0300   28.2640   45.4150 C   0  0  0  0  0  0  0  0  0  0  0  0
   58.2840   28.8230   45.6930 C   0  0  0  0  0  0  0  0  0  0  0  0
   58.5510   30.1540   45.3620 C   0  0  0  0  0  0  0  0  0  0  0  0
   57.5720   30.9420   44.7370 C   0  0  0  0  0  0  0  0  0  0  0  0
   57.8640   32.3150   44.4270 N   0  0  0  0  0  0  0  0  0  0  0  0
   58.4830   33.2300   45.3450 C   0  0  0  0  0  0  0  0  0  0  0  0
   59.0050   34.4420   44.8780 C   0  0  0  0  0  0  0  0  0  0  0  0
   59.5800   35.3360   45.7810 C   0  0  0  0  0  0  0  0  0  0  0  0
   59.6230   35.0230   47.1410 C   0  0  0  0  0  0  0  0  0  0  0  0
   59.0790   33.8020   47.5870 C   0  0  0  0  0  0  0  0  0  0  0  0
   59.0820   33.4520   48.8420 N   0  0  0  0  0  0  0  0  0  0  0  0
   60.1340   32.6990   49.5250 C   0  0  0  0  0  0  0  0  0  0  0  0
   60.6740   31.5980   48.6100 C   0  0  0  0  0  0  0  0  0  0  0  0
   59.8530   30.3120   48.7130 C   0  0  0  0  0  0  0  0  0  0  0  0
   58.5200   30.5820   48.3780 O   0  0  0  0  0  0  0  0  0  0  0  0
   58.5260   32.9540   46.6790 N   0  0  0  0  0  0  0  0  0  0  0  0
   56.3040   30.3870   44.4880 C   0  0  0  0  0  0  0  0  0  0  0  0
   56.0370   29.0560   44.8210 C   0  0  0  0  0  0  0  0  0  0  0  0
   54.6510   27.0730   46.6990 H   0  0  0  0  0  0  0  0  0  0  0  0
   59.0618   28.2116   46.1739 H   0  0  0  0  0  0  0  0  0  0  0  0
   59.5354   30.5873   45.5929 H   0  0  0  0  0  0  0  0  0  0  0  0
   57.5300   32.6900   43.5100 H   0  0  0  0  0  0  0  0  0  0  0  0
   58.9620   34.6875   43.8066 H   0  0  0  0  0  0  0  0  0  0  0  0
   59.9995   36.2873   45.4218 H   0  0  0  0  0  0  0  0  0  0  0  0
   60.0773   35.7230   47.8576 H   0  0  0  0  0  0  0  0  0  0  0  0
   60.9532   33.3818   49.7946 H   0  0  0  0  0  0  0  0  0  0  0  0
   59.7152   32.2388   50.4321 H   0  0  0  0  0  0  0  0  0  0  0  0
   60.6453   31.9550   47.5700 H   0  0  0  0  0  0  0  0  0  0  0  0
   61.7030   31.3697   48.9247 H   0  0  0  0  0  0  0  0  0  0  0  0
   60.2602   29.5604   48.0207 H   0  0  0  0  0  0  0  0  0  0  0  0
   59.9020   29.9267   49.7421 H   0  0  0  0  0  0  0  0  0  0  0  0
   58.4990   31.5270   48.0740 H   0  0  0  0  0  0  0  0  0  0  0  0
   55.5177   31.0040   44.0285 H   0  0  0  0  0  0  0  0  0  0  0  0
   55.0444   28.6284   44.6164 H   0  0  0  0  0  0  0  0  0  0  0  0
  1  2  1  0
  2  3  2  0
  2  4  2  0
  2  5  1  0
  5  6  2  0
  6  7  1  0
  7  8  2  0
  8  9  1  0
  9 10  1  0
 10 11  2  0
 11 12  1  0
 12 13  2  0
 13 14  1  0
 14 15  2  3
 15 16  1  0
 16 17  1  0
 17 18  1  0
 18 19  1  0
 14 20  1  0
  8 21  1  0
 21 22  2  0
 22  5  1  0
 20 10  1  0
  1 23  1  0
  6 24  1  0
  7 25  1  0
  9 26  1  0
 11 27  1  0
 12 28  1  0
 13 29  1  0
 16 30  1  0
 16 31  1  0
 17 32  1  0
 17 33  1  0
 18 34  1  0
 18 35  1  0
 19 36  1  0
 21 37  1  0
 22 38  1  0
M  CHG  2   1  -1  20  -1
M  END
>  <UniqueID>  (15) 
13

>  <SMILES>  (15) 
[NH-]S(=O)(=O)c1ccc(Nc2cccc(=NCCCO)[n-]2)cc1

>  <Energy>  (15) 
38.46688967016465

>  <Genealogy>  (15) 
[NH-]S(=O)(=O)c1ccc(Nc2cccc(=NCCCO)[n-]2)cc1 (protonated)
[NH-]S(=O)(=O)c1ccc(Nc2cccc(=NCCCO)[n-]2)cc1 (3D coordinates assigned)
[NH-]S(=O)(=O)c1ccc(Nc2cccc(=NCCCO)[n-]2)cc1 (optimized conformer: 38.46688967016465 kcal/mol)

>  <smiles>  (15) 
NS(=O)(=O)c1ccc(Nc2cccc(=NCCCO)[nH]2)cc1

>  <score_type>  (15) 
oracle

>  <origin>  (15) 
adg

>  <m_score__min__energy>  (15) 
-10.84

>  <m_primary>  (15) 
energy

$$$$
15:0
     RDKit          3D

 67 71  0  0  1  0  0  0  0  0999 V2000
   62.3960   34.1980   46.4670 O   0  0  0  0  0  0  0  0  0  0  0  0
   62.8470   33.4250   47.3560 C   0  0  0  0  0  0  0  0  0  0  0  0
   63.9580   32.6440   47.2780 N   0  0  0  0  0  0  0  0  0  0  0  0
   64.1110   31.9700   48.4080 N   0  0  0  0  0  0  0  0  0  0  0  0
   63.1120   32.2850   49.2560 C   0  0  0  0  0  0  0  0  0  0  0  0
   62.9810   31.7610   50.5110 O   0  0  0  0  0  0  0  0  0  0  0  0
   62.2930   33.2130   48.6040 C   0  0  0  0  0  0  0  0  0  0  0  0
   61.1010   33.8230   49.1460 C   0  0  0  0  0  0  0  0  0  0  0  0
   60.8980   33.8200   50.4220 N   0  0  0  0  0  0  0  0  0  0  0  0
   59.7030   33.3260   51.0250 C   0  0  0  0  0  0  0  0  0  0  0  0
   58.8780   34.2260   52.1190 S   0  0  0  0  0  0  0  0  0  0  0  0
   59.2280   31.9620   50.6040 C   0  0  0  0  0  0  0  0  0  0  0  0
   60.2430   31.0060   50.7130 O   0  0  0  0  0  0  0  0  0  0  0  0
   60.3770   29.8910   49.9060 C   0  0  0  0  0  0  0  0  0  0  0  0
   60.2630   29.9570   48.5330 C   0  0  0  0  0  0  0  0  0  0  0  0
   60.4070   28.8060   47.7560 C   0  0  0  0  0  0  0  0  0  0  0  0
   60.6640   27.5720   48.2770 C   0  0  0  0  0  0  0  0  0  0  0  0
   60.8240   26.4020   47.6160 O   0  0  0  0  0  0  0  0  0  0  0  0
   60.1760   25.9730   46.4880 C   0  0  0  0  0  0  0  0  0  0  0  0
   59.5880   27.0390   45.6300 C   0  0  0  0  0  0  0  0  0  0  0  0
   60.1740   27.9260   44.8230 N   0  0  0  0  0  0  0  0  0  0  0  0
   59.3360   28.7040   44.2680 N   0  0  0  0  0  0  0  0  0  0  0  0
   58.0460   28.3650   44.7000 C   0  0  0  0  0  0  0  0  0  0  0  0
   56.7010   29.2680   44.0950 S   0  0  0  0  0  0  0  0  0  0  0  0
   56.7090   30.9220   43.6070 C   0  0  0  0  0  0  0  0  0  0  0  0
   57.4550   31.8760   44.4670 C   0  0  0  0  0  0  0  0  0  0  0  0
   57.7780   33.1000   43.8690 C   0  0  0  0  0  0  0  0  0  0  0  0
   58.4210   34.1060   44.5580 C   0  0  0  0  0  0  0  0  0  0  0  0
   58.7730   33.9320   45.8810 C   0  0  0  0  0  0  0  0  0  0  0  0
   59.5920   35.2150   46.7540 Cl  0  0  0  0  0  0  0  0  0  0  0  0
   58.4530   32.7240   46.4680 C   0  0  0  0  0  0  0  0  0  0  0  0
   57.8040   31.7170   45.7660 C   0  0  0  0  0  0  0  0  0  0  0  0
   58.2570   27.3450   45.5240 N   0  0  0  0  0  0  0  0  0  0  0  0
   57.2370   26.5790   46.1980 C   0  0  0  0  0  0  0  0  0  0  0  0
   56.7200   25.4410   45.3790 C   0  0  0  0  0  0  0  0  0  0  0  0
   57.4040   24.9260   44.2990 C   0  0  0  0  0  0  0  0  0  0  0  0
   56.8710   23.8780   43.5450 C   0  0  0  0  0  0  0  0  0  0  0  0
   55.6440   23.3300   43.8620 C   0  0  0  0  0  0  0  0  0  0  0  0
   54.9380   23.8370   44.9510 C   0  0  0  0  0  0  0  0  0  0  0  0
   55.4980   24.8630   45.6600 C   0  0  0  0  0  0  0  0  0  0  0  0
   60.7770   27.5190   49.6730 C   0  0  0  0  0  0  0  0  0  0  0  0
   60.6350   28.6570   50.4520 C   0  0  0  0  0  0  0  0  0  0  0  0
   64.5980   32.5830   46.4490 H   0  0  0  0  0  0  0  0  0  0  0  0
   64.8990   31.2870   48.6140 H   0  0  0  0  0  0  0  0  0  0  0  0
   62.1530   31.9650   51.0740 H   0  0  0  0  0  0  0  0  0  0  0  0
   60.3667   34.2897   48.4729 H   0  0  0  0  0  0  0  0  0  0  0  0
   58.3862   31.6634   51.2461 H   0  0  0  0  0  0  0  0  0  0  0  0
   58.9187   32.0161   49.5498 H   0  0  0  0  0  0  0  0  0  0  0  0
   60.0574   30.9223   48.0473 H   0  0  0  0  0  0  0  0  0  0  0  0
   60.3078   28.8994   46.6645 H   0  0  0  0  0  0  0  0  0  0  0  0
   60.8978   25.4097   45.8784 H   0  0  0  0  0  0  0  0  0  0  0  0
   59.3247   25.3740   46.8436 H   0  0  0  0  0  0  0  0  0  0  0  0
   57.1496   30.9686   42.6002 H   0  0  0  0  0  0  0  0  0  0  0  0
   55.6587   31.2429   43.6693 H   0  0  0  0  0  0  0  0  0  0  0  0
   57.5099   33.2643   42.8149 H   0  0  0  0  0  0  0  0  0  0  0  0
   58.6550   35.0533   44.0501 H   0  0  0  0  0  0  0  0  0  0  0  0
   58.7197   32.5545   47.5216 H   0  0  0  0  0  0  0  0  0  0  0  0
   57.5685   30.7708   46.2752 H   0  0  0  0  0  0  0  0  0  0  0  0
   57.6606   26.1756   47.1296 H   0  0  0  0  0  0  0  0  0  0  0  0
   56.3913   27.2560   46.3888 H   0  0  0  0  0  0  0  0  0  0  0  0
   58.3835   25.3462   44.0270 H   0  0  0  0  0  0  0  0  0  0  0  0
   57.4362   23.4841   42.6874 H   0  0  0  0  0  0  0  0  0  0  0  0
   55.2299   22.5052   43.2635 H   0  0  0  0  0  0  0  0  0  0  0  0
   53.9582   23.4236   45.2322 H   0  0  0  0  0  0  0  0  0  0  0  0
   54.9333   25.2572   46.5177 H   0  0  0  0  0  0  0  0  0  0  0  0
   60.9826   26.5546   50.1606 H   0  0  0  0  0  0  0  0  0  0  0  0
   60.7322   28.5689   51.5442 H   0  0  0  0  0  0  0  0  0  0  0  0
  1  2  2  0
  2  3  1  0
  3  4  1  0
  4  5  1  0
  5  6  1  0
  5  7  2  0
  7  8  1  0
  8  9  2  0
  9 10  1  0
 10 11  2  0
 10 12  1  0
 12 13  1  0
 13 14  1  0
 14 15  2  0
 15 16  1  0
 16 17  2  0
 17 18  1  0
 18 19  1  0
 19 20  1  0
 20 21  2  0
 21 22  1  0
 22 23  2  0
 23 24  1  0
 24 25  1  0
 25 26  1  0
 26 27  2  0
 27 28  1  0
 28 29  2  0
 29 30  1  0
 29 31  1  0
 31 32  2  0
 23 33  1  0
 33 34  1  0
 34 35  1  0
 35 36  2  0
 36 37  1  0
 37 38  2  0
 38 39  1  0
 39 40  2  0
 17 41  1  0
 41 42  2  0
  7  2  1  0
 42 14  1  0
 33 20  1  0
 40 35  1  0
 32 26  1  0
  3 43  1  0
  4 44  1  0
  6 45  1  0
  8 46  1  0
 12 47  1  0
 12 48  1  0
 15 49  1  0
 16 50  1  0
 19 51  1  0
 19 52  1  0
 25 53  1  0
 25 54  1  0
 27 55  1  0
 28 56  1  0
 31 57  1  0
 32 58  1  0
 34 59  1  0
 34 60  1  0
 36 61  1  0
 37 62  1  0
 38 63  1  0
 39 64  1  0
 40 65  1  0
 41 66  1  0
 42 67  1  0
M  END
>  <smiles>  (16) 
O=c1[nH][nH]c(O)c1C=NC(=S)COc1ccc(OCc2nnc(SCc3ccc(Cl)cc3)n2Cc2ccccc2)cc1

>  <score_type>  (16) 
oracle

>  <origin>  (16) 
adg

>  <m_score__min__energy>  (16) 
-11.81

>  <m_primary>  (16) 
energy

$$$$
16:0
     RDKit          3D

 47 50  0  0  0  0  0  0  0  0999 V2000
   56.8210   30.3790   44.7580 O   0  0  0  0  0  0  0  0  0  0  0  0
   56.9680   29.2140   45.2170 C   0  0  0  0  0  0  0  0  0  0  0  0
   55.8880   28.3960   45.2690 N   0  0  0  0  0  0  0  0  0  0  0  0
   55.9710   27.1380   45.7610 C   0  0  0  0  0  0  0  0  0  0  0  0
   54.8290   26.3440   45.7780 O   0  0  0  0  0  0  0  0  0  0  0  0
   57.1930   26.6590   46.2510 C   0  0  0  0  0  0  0  0  0  0  0  0
   57.3240   25.2510   46.7960 C   0  0  0  0  0  0  0  0  0  0  0  0
   56.9710   24.2280   45.7410 C   0  0  0  0  0  0  0  0  0  0  0  0
   56.6510   24.6460   44.4370 C   0  0  0  0  0  0  0  0  0  0  0  0
   56.3020   23.7090   43.4590 C   0  0  0  0  0  0  0  0  0  0  0  0
   56.2660   22.3490   43.7730 C   0  0  0  0  0  0  0  0  0  0  0  0
   55.9140   21.4210   42.8000 O   0  0  0  0  0  0  0  0  0  0  0  0
   56.5840   21.9220   45.0640 C   0  0  0  0  0  0  0  0  0  0  0  0
   56.9380   22.8530   46.0480 C   0  0  0  0  0  0  0  0  0  0  0  0
   57.2540   22.4020   47.3240 O   0  0  0  0  0  0  0  0  0  0  0  0
   58.3010   27.5250   46.2120 C   0  0  0  0  0  0  0  0  0  0  0  0
   59.3990   27.1390   46.6980 O   0  0  0  0  0  0  0  0  0  0  0  0
   58.1910   28.7810   45.6660 N   0  0  0  0  0  0  0  0  0  0  0  0
   59.3880   29.6410   45.5320 C   0  0  0  0  0  0  0  0  0  0  0  0
   59.8430   30.1460   46.8910 C   0  0  0  0  0  0  0  0  0  0  0  0
   60.4890   29.2390   47.7500 C   0  0  0  0  0  0  0  0  0  0  0  0
   60.8480   29.6100   49.0470 C   0  0  0  0  0  0  0  0  0  0  0  0
   60.5670   30.8910   49.5110 C   0  0  0  0  0  0  0  0  0  0  0  0
   59.9420   31.8150   48.6720 C   0  0  0  0  0  0  0  0  0  0  0  0
   59.5850   31.4660   47.3580 C   0  0  0  0  0  0  0  0  0  0  0  0
   58.9830   32.5190   46.5100 C   0  0  0  0  0  0  0  0  0  0  0  0
   59.8080   33.3830   45.7700 C   0  0  0  0  0  0  0  0  0  0  0  0
   59.2440   34.3570   44.9400 C   0  0  0  0  0  0  0  0  0  0  0  0
   57.8550   34.4610   44.8260 C   0  0  0  0  0  0  0  0  0  0  0  0
   57.0280   33.5840   45.5350 C   0  0  0  0  0  0  0  0  0  0  0  0
   57.5880   32.6090   46.3660 C   0  0  0  0  0  0  0  0  0  0  0  0
   58.3612   25.0869   47.1237 H   0  0  0  0  0  0  0  0  0  0  0  0
   56.6304   25.1362   47.6420 H   0  0  0  0  0  0  0  0  0  0  0  0
   56.6753   25.7164   44.1846 H   0  0  0  0  0  0  0  0  0  0  0  0
   56.0555   24.0441   42.4407 H   0  0  0  0  0  0  0  0  0  0  0  0
   56.5563   20.8499   45.3088 H   0  0  0  0  0  0  0  0  0  0  0  0
   60.2007   29.0592   45.0726 H   0  0  0  0  0  0  0  0  0  0  0  0
   59.1329   30.5054   44.9014 H   0  0  0  0  0  0  0  0  0  0  0  0
   60.7146   28.2227   47.3948 H   0  0  0  0  0  0  0  0  0  0  0  0
   61.3544   28.8875   49.7039 H   0  0  0  0  0  0  0  0  0  0  0  0
   60.8372   31.1756   50.5386 H   0  0  0  0  0  0  0  0  0  0  0  0
   59.7264   32.8277   49.0433 H   0  0  0  0  0  0  0  0  0  0  0  0
   60.9018   33.2928   45.8439 H   0  0  0  0  0  0  0  0  0  0  0  0
   59.8943   35.0420   44.3763 H   0  0  0  0  0  0  0  0  0  0  0  0
   57.4123   35.2325   44.1788 H   0  0  0  0  0  0  0  0  0  0  0  0
   55.9350   33.6614   45.4387 H   0  0  0  0  0  0  0  0  0  0  0  0
   56.9346   31.9101   46.9088 H   0  0  0  0  0  0  0  0  0  0  0  0
  1  2  2  0
  2  3  1  0
  3  4  1  0
  4  5  1  0
  4  6  2  0
  6  7  1  0
  7  8  1  0
  8  9  2  0
  9 10  1  0
 10 11  2  0
 11 12  1  0
 11 13  1  0
 13 14  2  0
 14 15  1  0
  6 16  1  0
 16 17  2  0
 16 18  1  0
 18 19  1  0
 19 20  1  0
 20 21  2  0
 21 22  1  0
 22 23  2  0
 23 24  1  0
 24 25  2  0
 25 26  1  0
 26 27  2  0
 27 28  1  0
 28 29  2  0
 29 30  1  0
 30 31  2  0
 18  2  1  0
 25 20  1  0
 31 26  1  0
 14  8  1  0
  7 32  1  0
  7 33  1  0
  9 34  1  0
 10 35  1  0
 13 36  1  0
 19 37  1  0
 19 38  1  0
 21 39  1  0
 22 40  1  0
 23 41  1  0
 24 42  1  0
 27 43  1  0
 28 44  1  0
 29 45  1  0
 30 46  1  0
 31 47  1  0
M  CHG  4   3  -1   5  -1  12  -1  15  -1
M  END
>  <UniqueID>  (17) 
14

>  <SMILES>  (17) 
O=c1[n-]c([O-])c(Cc2ccc([O-])cc2[O-])c(=O)n1Cc1ccccc1-c1ccccc1

>  <Energy>  (17) 
65.08185178252553

>  <Genealogy>  (17) 
O=c1[n-]c([O-])c(Cc2ccc([O-])cc2[O-])c(=O)n1Cc1ccccc1-c1ccccc1 (protonated)
O=c1[n-]c([O-])c(Cc2ccc([O-])cc2[O-])c(=O)n1Cc1ccccc1-c1ccccc1 (3D coordinates assigned)
O=c1[n-]c([O-])c(Cc2ccc([O-])cc2[O-])c(=O)n1Cc1ccccc1-c1ccccc1 (optimized conformer: 65.08185178252553 kcal/mol)

>  <smiles>  (17) 
O=c1[nH]c(O)c(Cc2ccc(O)cc2O)c(=O)n1Cc1ccccc1-c1ccccc1

>  <score_type>  (17) 
oracle

>  <origin>  (17) 
adg

>  <m_score__min__energy>  (17) 
-18.449999999999999

>  <m_primary>  (17) 
energy

$$$$
17:0
     RDKit          3D

 40 42  0  0  0  0  0  0  0  0999 V2000
   54.5410   27.1000   46.7250 H   0  0  0  0  0  0  0  0  0  0  0  0
   55.1590   26.5910   46.0560 N   0  0  0  0  0  0  0  0  0  0  0  0
   56.5530   26.4380   46.3150 C   0  0  0  0  0  0  0  0  0  0  0  0
   56.9820   25.3270   46.7300 O   0  0  0  0  0  0  0  0  0  0  0  0
   57.4910   27.5640   46.0920 C   0  0  0  0  0  0  0  0  0  0  0  0
   58.8640   27.4140   46.3570 C   0  0  0  0  0  0  0  0  0  0  0  0
   59.2448   26.4549   46.7380 H   0  0  0  0  0  0  0  0  0  0  0  0
   59.7480   28.4740   46.1400 C   0  0  0  0  0  0  0  0  0  0  0  0
   60.8199   28.3466   46.3516 H   0  0  0  0  0  0  0  0  0  0  0  0
   59.2740   29.6950   45.6550 C   0  0  0  0  0  0  0  0  0  0  0  0
   59.9725   30.5285   45.4897 H   0  0  0  0  0  0  0  0  0  0  0  0
   57.9120   29.8600   45.3790 C   0  0  0  0  0  0  0  0  0  0  0  0
   57.3110   31.3890   44.7470 S   0  0  0  0  0  0  0  0  0  0  0  0
   55.8470   31.2900   44.4190 O   0  0  0  0  0  0  0  0  0  0  0  0
   58.0720   31.7260   43.4950 O   0  0  0  0  0  0  0  0  0  0  0  0
   57.5460   32.6510   45.9150 N   0  0  0  0  0  0  0  0  0  0  0  0
   56.7270   33.2700   46.1150 H   0  0  0  0  0  0  0  0  0  0  0  0
   58.8150   32.9580   46.5200 C   0  0  0  0  0  0  0  0  0  0  0  0
   59.8880   33.4820   45.7740 C   0  0  0  0  0  0  0  0  0  0  0  0
   59.7689   33.6600   44.6950 H   0  0  0  0  0  0  0  0  0  0  0  0
   61.1030   33.7770   46.3970 C   0  0  0  0  0  0  0  0  0  0  0  0
   61.9339   34.1898   45.8061 H   0  0  0  0  0  0  0  0  0  0  0  0
   61.2700   33.5510   47.7670 C   0  0  0  0  0  0  0  0  0  0  0  0
   62.8130   33.9170   48.5330 S   0  0  0  0  0  0  0  0  0  0  0  0
   62.6390   34.9360   49.6270 O   0  0  0  0  0  0  0  0  0  0  0  0
   63.7490   34.4710   47.4970 O   0  0  0  0  0  0  0  0  0  0  0  0
   63.4980   32.4720   49.2060 N   0  0  0  0  0  0  0  0  0  0  0  0
   62.8380   31.6120   49.9190 C   0  0  0  0  0  0  0  0  0  0  0  0
   62.9380   31.5630   51.2630 N   0  0  0  0  0  0  0  0  0  0  0  0
   62.1580   30.5820   51.7900 C   0  0  0  0  0  0  0  0  0  0  0  0
   62.1068   30.3865   52.8713 H   0  0  0  0  0  0  0  0  0  0  0  0
   61.4290   29.8430   50.8630 C   0  0  0  0  0  0  0  0  0  0  0  0
   60.7454   29.0124   51.0928 H   0  0  0  0  0  0  0  0  0  0  0  0
   61.7760   30.4420   49.3290 S   0  0  0  0  0  0  0  0  0  0  0  0
   60.2070   33.0250   48.5150 C   0  0  0  0  0  0  0  0  0  0  0  0
   60.3303   32.8466   49.5934 H   0  0  0  0  0  0  0  0  0  0  0  0
   58.9920   32.7270   47.8940 C   0  0  0  0  0  0  0  0  0  0  0  0
   58.1658   32.3074   48.4867 H   0  0  0  0  0  0  0  0  0  0  0  0
   57.0230   28.7990   45.6060 C   0  0  0  0  0  0  0  0  0  0  0  0
   55.9504   28.9335   45.4023 H   0  0  0  0  0  0  0  0  0  0  0  0
  1  2  1  0
  2  3  1  0
  3  4  2  0
  3  5  1  0
  5  6  2  0
  6  7  1  0
  6  8  1  0
  8  9  1  0
  8 10  2  0
 10 11  1  0
 10 12  1  0
 12 13  1  0
 13 14  2  0
 13 15  2  0
 13 16  1  0
 16 17  1  0
 16 18  1  0
 18 19  2  0
 19 20  1  0
 19 21  1  0
 21 22  1  0
 21 23  2  0
 23 24  1  0
 24 25  2  0
 24 26  2  0
 24 27  1  0
 27 28  2  0
 28 29  1  0
 29 30  1  0
 30 31  1  0
 30 32  2  0
 32 33  1  0
 32 34  1  0
 23 35  1  0
 35 36  1  0
 35 37  2  0
 37 38  1  0
 12 39  2  0
 39 40  1  0
 39  5  1  0
 37 18  1  0
 34 28  1  0
M  CHG  2   2  -1  29  -1
M  END
>  <UniqueID>  (18) 
15

>  <SMILES>  (18) 
[NH-]C(=O)c1cccc(S(=O)(=O)Nc2ccc(S(=O)(=O)/N=c3/[n-]ccs3)cc2)c1

>  <Energy>  (18) 
78.6665273834998

>  <Genealogy>  (18) 
[NH-]C(=O)c1cccc(S(=O)(=O)Nc2ccc(S(=O)(=O)N=c3[n-]ccs3)cc2)c1 (protonated)
[NH-]C(=O)c1cccc(S(=O)(=O)Nc2ccc(S(=O)(=O)/N=c3/[n-]ccs3)cc2)c1 (cis-trans isomerization)
[NH-]C(=O)c1cccc(S(=O)(=O)Nc2ccc(S(=O)(=O)/N=c3/[n-]ccs3)cc2)c1 (3D coordinates assigned)
[NH-]C(=O)c1cccc(S(=O)(=O)Nc2ccc(S(=O)(=O)/N=c3/[n-]ccs3)cc2)c1 (optimized conformer: 78.6665273834998 kcal/mol)

>  <smiles>  (18) 
NC(=O)c1cccc(S(=O)(=O)Nc2ccc(S(=O)(=O)N=c3[nH]ccs3)cc2)c1

>  <score_type>  (18) 
oracle

>  <origin>  (18) 
adg

>  <m_score__min__energy>  (18) 
-13.300000000000001

>  <m_primary>  (18) 
energy

$$$$
18:0
     RDKit          3D

 52 55  0  0  0  0  0  0  0  0999 V2000
   57.4470   31.9150   41.7180 C   0  0  0  0  0  0  0  0  0  0  0  0
   57.7870   32.0890   43.1380 C   0  0  0  0  0  0  0  0  0  0  0  0
   58.5270   33.1690   43.5250 N   0  0  0  0  0  0  0  0  0  0  0  0
   58.8610   33.3680   44.8090 C   0  0  0  0  0  0  0  0  0  0  0  0
   59.5390   34.3770   45.0930 O   0  0  0  0  0  0  0  0  0  0  0  0
   58.4530   32.4750   45.7390 N   0  0  0  0  0  0  0  0  0  0  0  0
   57.7300   31.4090   45.3960 C   0  0  0  0  0  0  0  0  0  0  0  0
   57.3880   30.6210   46.3200 O   0  0  0  0  0  0  0  0  0  0  0  0
   57.3610   31.1630   44.0700 C   0  0  0  0  0  0  0  0  0  0  0  0
   56.4150   29.7580   43.6380 S   0  0  0  0  0  0  0  0  0  0  0  0
   55.8800   29.9980   42.2560 O   0  0  0  0  0  0  0  0  0  0  0  0
   55.2120   29.6530   44.5380 O   0  0  0  0  0  0  0  0  0  0  0  0
   57.3890   28.3510   43.7220 N   0  0  0  0  0  0  0  0  0  0  0  0
   58.2080   28.0140   44.8290 C   0  0  0  0  0  0  0  0  0  0  0  0
   58.0280   26.8780   45.5910 C   0  0  0  0  0  0  0  0  0  0  0  0
   58.8760   26.6160   46.6660 C   0  0  0  0  0  0  0  0  0  0  0  0
   59.8870   27.5210   46.9380 C   0  0  0  0  0  0  0  0  0  0  0  0
   60.1020   28.6630   46.2060 C   0  0  0  0  0  0  0  0  0  0  0  0
   61.1480   29.6550   46.4490 C   0  0  0  0  0  0  0  0  0  0  0  0
   60.7790   30.7560   47.3510 C   0  0  0  0  0  0  0  0  0  0  0  0
   59.4840   30.8320   47.7380 N   0  0  0  0  0  0  0  0  0  0  0  0
   59.0190   31.7590   48.5530 N   0  0  0  0  0  0  0  0  0  0  0  0
   59.7990   32.7110   49.0730 C   0  0  0  0  0  0  0  0  0  0  0  0
   59.3490   33.5770   49.8380 O   0  0  0  0  0  0  0  0  0  0  0  0
   61.1380   32.6840   48.7120 C   0  0  0  0  0  0  0  0  0  0  0  0
   61.6310   31.7010   47.8460 C   0  0  0  0  0  0  0  0  0  0  0  0
   63.0460   31.7080   47.4780 C   0  0  0  0  0  0  0  0  0  0  0  0
   63.6780   33.0730   47.4020 C   0  0  0  0  0  0  0  0  0  0  0  0
   62.9630   34.1500   48.1350 C   0  0  0  0  0  0  0  0  0  0  0  0
   62.0750   33.7050   49.2480 C   0  0  0  0  0  0  0  0  0  0  0  0
   59.2320   28.8890   45.1390 C   0  0  0  0  0  0  0  0  0  0  0  0
   56.4707   31.4154   41.6333 H   0  0  0  0  0  0  0  0  0  0  0  0
   57.3988   32.8993   41.2292 H   0  0  0  0  0  0  0  0  0  0  0  0
   58.2172   31.3002   41.2292 H   0  0  0  0  0  0  0  0  0  0  0  0
   58.8340   33.8490   42.7950 H   0  0  0  0  0  0  0  0  0  0  0  0
   58.7210   32.6470   46.7320 H   0  0  0  0  0  0  0  0  0  0  0  0
   57.3920   27.6790   42.9060 H   0  0  0  0  0  0  0  0  0  0  0  0
   57.2143   26.1781   45.3500 H   0  0  0  0  0  0  0  0  0  0  0  0
   58.7450   25.7139   47.2817 H   0  0  0  0  0  0  0  0  0  0  0  0
   60.5551   27.3143   47.7871 H   0  0  0  0  0  0  0  0  0  0  0  0
   62.0135   29.1349   46.8854 H   0  0  0  0  0  0  0  0  0  0  0  0
   61.3555   30.1200   45.4740 H   0  0  0  0  0  0  0  0  0  0  0  0
   58.0100   31.7330   48.7890 H   0  0  0  0  0  0  0  0  0  0  0  0
   63.5960   31.1187   48.2265 H   0  0  0  0  0  0  0  0  0  0  0  0
   63.1015   31.2870   46.4633 H   0  0  0  0  0  0  0  0  0  0  0  0
   64.6949   32.9993   47.8149 H   0  0  0  0  0  0  0  0  0  0  0  0
   63.6506   33.3601   46.3405 H   0  0  0  0  0  0  0  0  0  0  0  0
   63.7187   34.8283   48.5580 H   0  0  0  0  0  0  0  0  0  0  0  0
   62.2986   34.6214   47.3958 H   0  0  0  0  0  0  0  0  0  0  0  0
   62.6804   33.2678   50.0557 H   0  0  0  0  0  0  0  0  0  0  0  0
   61.5147   34.5605   49.6533 H   0  0  0  0  0  0  0  0  0  0  0  0
   59.3652   29.7920   44.5251 H   0  0  0  0  0  0  0  0  0  0  0  0
  1  2  1  0
  2  3  1  0
  3  4  1  0
  4  5  2  0
  4  6  1  0
  6  7  1  0
  7  8  2  0
  7  9  1  0
  9 10  1  0
 10 11  2  0
 10 12  2  0
 10 13  1  0
 13 14  1  0
 14 15  2  0
 15 16  1  0
 16 17  2  0
 17 18  1  0
 18 19  1  0
 19 20  1  0
 20 21  2  0
 21 22  1  0
 22 23  1  0
 23 24  2  0
 23 25  1  0
 25 26  2  0
 26 27  1  0
 27 28  1  0
 28 29  1  0
 29 30  1  0
 18 31  2  0
  9  2  2  0
 31 14  1  0
 26 20  1  0
 30 25  1  0
  1 32  1  0
  1 33  1  0
  1 34  1  0
  3 35  1  0
  6 36  1  0
 13 37  1  0
 15 38  1  0
 16 39  1  0
 17 40  1  0
 19 41  1  0
 19 42  1  0
 22 43  1  0
 27 44  1  0
 27 45  1  0
 28 46  1  0
 28 47  1  0
 29 48  1  0
 29 49  1  0
 30 50  1  0
 30 51  1  0
 31 52  1  0
M  END
>  <smiles>  (19) 
Cc1[nH]c(=O)[nH]c(=O)c1S(=O)(=O)Nc1cccc(Cc2n[nH]c(=O)c3c2CCCC3)c1

>  <score_type>  (19) 
oracle

>  <origin>  (19) 
adg

>  <m_score__min__energy>  (19) 
-10.44

>  <m_primary>  (19) 
energy

$$$$
19:0
     RDKit          3D

 69 73  0  0  0  0  0  0  0  0999 V2000
   56.4000   27.5670   45.6070 O   0  0  0  0  0  0  0  0  0  0  0  0
   57.5880   27.9260   45.3750 C   0  0  0  0  0  0  0  0  0  0  0  0
   58.5320   26.9720   44.8610 N   0  0  0  0  0  0  0  0  0  0  0  0
   58.3390   25.5490   44.9240 C   0  0  0  0  0  0  0  0  0  0  0  0
   59.2790   24.7530   45.5990 C   0  0  0  0  0  0  0  0  0  0  0  0
   59.1060   23.3690   45.6800 C   0  0  0  0  0  0  0  0  0  0  0  0
   57.9870   22.7680   45.1000 C   0  0  0  0  0  0  0  0  0  0  0  0
   57.0290   23.5500   44.4410 C   0  0  0  0  0  0  0  0  0  0  0  0
   55.5940   22.8050   43.7380 S   0  0  0  0  0  0  0  0  0  0  0  0
   55.0710   23.7120   42.6580 O   0  0  0  0  0  0  0  0  0  0  0  0
   55.9640   21.4890   43.1080 O   0  0  0  0  0  0  0  0  0  0  0  0
   54.3500   22.5820   44.9530 N   0  0  0  0  0  0  0  0  0  0  0  0
   53.3860   23.6960   44.9710 C   0  0  0  0  0  0  0  0  0  0  0  0
   53.9840   24.9810   45.5960 C   0  0  0  0  0  0  0  0  0  0  0  0
   55.1470   24.7450   46.3700 O   0  0  0  0  0  0  0  0  0  0  0  0
   54.9760   23.5950   47.1690 C   0  0  0  0  0  0  0  0  0  0  0  0
   54.9330   22.3300   46.2900 C   0  0  0  0  0  0  0  0  0  0  0  0
   57.2000   24.9390   44.3650 C   0  0  0  0  0  0  0  0  0  0  0  0
   57.9710   29.3440   45.5700 C   0  0  0  0  0  0  0  0  0  0  0  0
   57.5870   30.3310   44.6440 C   0  0  0  0  0  0  0  0  0  0  0  0
   57.9360   31.6690   44.8460 C   0  0  0  0  0  0  0  0  0  0  0  0
   58.6720   32.0430   45.9760 C   0  0  0  0  0  0  0  0  0  0  0  0
   59.0950   33.7350   46.2420 S   0  0  0  0  0  0  0  0  0  0  0  0
   59.4210   34.3800   44.9230 O   0  0  0  0  0  0  0  0  0  0  0  0
   57.9100   34.4520   46.8270 O   0  0  0  0  0  0  0  0  0  0  0  0
   60.4650   33.8980   47.3150 N   0  0  0  0  0  0  0  0  0  0  0  0
   60.1030   33.4440   48.6590 C   0  0  0  0  0  0  0  0  0  0  0  0
   61.2220   33.7850   49.6420 C   0  0  0  0  0  0  0  0  0  0  0  0
   62.5870   33.5790   49.1060 N   0  0  0  0  0  0  0  0  0  0  0  0
   63.7320   33.8020   49.9900 C   0  0  0  0  0  0  0  0  0  0  0  0
   64.9890   33.1980   49.7320 C   0  0  0  0  0  0  0  0  0  0  0  0
   66.0760   33.4020   50.5870 C   0  0  0  0  0  0  0  0  0  0  0  0
   65.9400   34.2080   51.7160 C   0  0  0  0  0  0  0  0  0  0  0  0
   64.7170   34.8120   51.9940 C   0  0  0  0  0  0  0  0  0  0  0  0
   63.6240   34.6150   51.1450 C   0  0  0  0  0  0  0  0  0  0  0  0
   62.8330   33.3190   47.6680 C   0  0  0  0  0  0  0  0  0  0  0  0
   61.5710   33.0660   46.8360 C   0  0  0  0  0  0  0  0  0  0  0  0
   59.0750   31.0650   46.8920 C   0  0  0  0  0  0  0  0  0  0  0  0
   58.7320   29.7250   46.6900 C   0  0  0  0  0  0  0  0  0  0  0  0
   59.3280   27.3290   44.2860 H   0  0  0  0  0  0  0  0  0  0  0  0
   60.1570   25.2223   46.0669 H   0  0  0  0  0  0  0  0  0  0  0  0
   59.8524   22.7518   46.2015 H   0  0  0  0  0  0  0  0  0  0  0  0
   57.8571   21.6774   45.1606 H   0  0  0  0  0  0  0  0  0  0  0  0
   53.0792   23.9150   43.9376 H   0  0  0  0  0  0  0  0  0  0  0  0
   52.5287   23.3892   45.5882 H   0  0  0  0  0  0  0  0  0  0  0  0
   54.2419   25.6759   44.7832 H   0  0  0  0  0  0  0  0  0  0  0  0
   53.2231   25.3953   46.2737 H   0  0  0  0  0  0  0  0  0  0  0  0
   55.8155   23.5167   47.8755 H   0  0  0  0  0  0  0  0  0  0  0  0
   54.0262   23.6802   47.7174 H   0  0  0  0  0  0  0  0  0  0  0  0
   55.9594   21.9560   46.1614 H   0  0  0  0  0  0  0  0  0  0  0  0
   54.2922   21.5944   46.7982 H   0  0  0  0  0  0  0  0  0  0  0  0
   56.4392   25.5566   43.8653 H   0  0  0  0  0  0  0  0  0  0  0  0
   57.0071   30.0471   43.7534 H   0  0  0  0  0  0  0  0  0  0  0  0
   57.6310   32.4312   44.1139 H   0  0  0  0  0  0  0  0  0  0  0  0
   59.1752   33.9432   48.9751 H   0  0  0  0  0  0  0  0  0  0  0  0
   59.9528   32.3544   48.6450 H   0  0  0  0  0  0  0  0  0  0  0  0
   61.1197   34.8424   49.9272 H   0  0  0  0  0  0  0  0  0  0  0  0
   61.1117   33.0997   50.4954 H   0  0  0  0  0  0  0  0  0  0  0  0
   65.1105   32.5589   48.8450 H   0  0  0  0  0  0  0  0  0  0  0  0
   67.0425   32.9246   50.3679 H   0  0  0  0  0  0  0  0  0  0  0  0
   66.7977   34.3666   52.3862 H   0  0  0  0  0  0  0  0  0  0  0  0
   64.6102   35.4471   52.8857 H   0  0  0  0  0  0  0  0  0  0  0  0
   62.6642   35.0993   51.3777 H   0  0  0  0  0  0  0  0  0  0  0  0
   63.3517   34.1925   47.2461 H   0  0  0  0  0  0  0  0  0  0  0  0
   63.4278   32.3951   47.6175 H   0  0  0  0  0  0  0  0  0  0  0  0
   61.7769   33.3089   45.7831 H   0  0  0  0  0  0  0  0  0  0  0  0
   61.2876   32.0076   46.9328 H   0  0  0  0  0  0  0  0  0  0  0  0
   59.6645   31.3520   47.7752 H   0  0  0  0  0  0  0  0  0  0  0  0
   59.0596   28.9628   47.4123 H   0  0  0  0  0  0  0  0  0  0  0  0
  1  2  2  0
  2  3  1  0
  3  4  1  0
  4  5  2  0
  5  6  1  0
  6  7  2  0
  7  8  1  0
  8  9  1  0
  9 10  2  0
  9 11  2  0
  9 12  1  0
 12 13  1  0
 13 14  1  0
 14 15  1  0
 15 16  1  0
 16 17  1  0
  8 18  2  0
  2 19  1  0
 19 20  2  0
 20 21  1  0
 21 22  2  0
 22 23  1  0
 23 24  2  0
 23 25  2  0
 23 26  1  0
 26 27  1  0
 27 28  1  0
 28 29  1  0
 29 30  1  0
 30 31  2  0
 31 32  1  0
 32 33  2  0
 33 34  1  0
 34 35  2  0
 29 36  1  0
 36 37  1  0
 22 38  1  0
 38 39  2  0
 18  4  1  0
 39 19  1  0
 17 12  1  0
 37 26  1  0
 35 30  1  0
  3 40  1  0
  5 41  1  0
  6 42  1  0
  7 43  1  0
 13 44  1  0
 13 45  1  0
 14 46  1  0
 14 47  1  0
 16 48  1  0
 16 49  1  0
 17 50  1  0
 17 51  1  0
 18 52  1  0
 20 53  1  0
 21 54  1  0
 27 55  1  0
 27 56  1  0
 28 57  1  0
 28 58  1  0
 31 59  1  0
 32 60  1  0
 33 61  1  0
 34 62  1  0
 35 63  1  0
 36 64  1  0
 36 65  1  0
 37 66  1  0
 37 67  1  0
 38 68  1  0
 39 69  1  0
M  END
>  <UniqueID>  (20) 
16

>  <SMILES>  (20) 
O=C(Nc1cccc(S(=O)(=O)N2CCOCC2)c1)c1ccc(S(=O)(=O)N2CCN(c3ccccc3)CC2)cc1

>  <Energy>  (20) 
95.63176270584786

>  <Genealogy>  (20) 
O=C(Nc1cccc(S(=O)(=O)N2CCOCC2)c1)c1ccc(S(=O)(=O)N2CCN(c3ccccc3)CC2)cc1 (3D coordinates assigned)
O=C(Nc1cccc(S(=O)(=O)N2CCOCC2)c1)c1ccc(S(=O)(=O)N2CCN(c3ccccc3)CC2)cc1 (nonaromatic ring conformer: 95.63176270584786 kcal/mol)

>  <smiles>  (20) 
O=C(Nc1cccc(S(=O)(=O)N2CCOCC2)c1)c1ccc(S(=O)(=O)N2CCN(c3ccccc3)CC2)cc1

>  <score_type>  (20) 
oracle

>  <origin>  (20) 
adg

>  <m_score__min__energy>  (20) 
-10.609999999999999

>  <m_primary>  (20) 
energy

$$$$
20:0
     RDKit          3D

 32 34  0  0  0  0  0  0  0  0999 V2000
   58.9740   35.6730   48.9920 H   0  0  0  0  0  0  0  0  0  0  0  0
   59.6920   34.9790   49.1670 O   0  0  0  0  0  0  0  0  0  0  0  0
   59.6200   33.7020   48.6160 C   0  0  0  0  0  0  0  0  0  0  0  0
   60.0690   33.4860   47.3110 C   0  0  0  0  0  0  0  0  0  0  0  0
   60.4758   34.3243   46.7263 H   0  0  0  0  0  0  0  0  0  0  0  0
   60.0040   32.2110   46.7450 C   0  0  0  0  0  0  0  0  0  0  0  0
   60.3604   32.0511   45.7167 H   0  0  0  0  0  0  0  0  0  0  0  0
   59.4850   31.1280   47.4820 C   0  0  0  0  0  0  0  0  0  0  0  0
   59.4130   29.7740   46.8900 C   0  0  0  0  0  0  0  0  0  0  0  0
   59.6857   28.8994   47.4989 H   0  0  0  0  0  0  0  0  0  0  0  0
   59.0320   29.6060   45.6610 N   0  0  0  0  0  0  0  0  0  0  0  0
   57.6850   29.6340   45.2500 N   0  0  0  0  0  0  0  0  0  0  0  0
   56.8320   28.5900   45.2250 C   0  0  0  0  0  0  0  0  0  0  0  0
   57.1530   27.2050   45.6390 C   0  0  0  0  0  0  0  0  0  0  0  0
   58.4850   26.7530   45.6410 C   0  0  0  0  0  0  0  0  0  0  0  0
   59.2933   27.4361   45.3410 H   0  0  0  0  0  0  0  0  0  0  0  0
   58.7900   25.4430   46.0210 C   0  0  0  0  0  0  0  0  0  0  0  0
   59.8357   25.1017   46.0254 H   0  0  0  0  0  0  0  0  0  0  0  0
   57.7690   24.5670   46.3950 C   0  0  0  0  0  0  0  0  0  0  0  0
   58.0109   23.5374   46.6975 H   0  0  0  0  0  0  0  0  0  0  0  0
   56.4410   24.9980   46.3850 C   0  0  0  0  0  0  0  0  0  0  0  0
   55.6380   24.3043   46.6746 H   0  0  0  0  0  0  0  0  0  0  0  0
   56.1270   26.3090   46.0080 C   0  0  0  0  0  0  0  0  0  0  0  0
   54.7970   26.7140   46.0180 O   0  0  0  0  0  0  0  0  0  0  0  0
   55.6160   28.9770   44.7830 N   0  0  0  0  0  0  0  0  0  0  0  0
   55.6930   30.2700   44.4950 N   0  0  0  0  0  0  0  0  0  0  0  0
   56.9480   30.6620   44.7820 C   0  0  0  0  0  0  0  0  0  0  0  0
   57.5130   32.1590   44.4280 S   0  0  0  0  0  0  0  0  0  0  0  0
   59.0330   31.3510   48.7980 C   0  0  0  0  0  0  0  0  0  0  0  0
   58.5120   30.3090   49.5580 O   0  0  0  0  0  0  0  0  0  0  0  0
   59.1010   32.6330   49.3580 C   0  0  0  0  0  0  0  0  0  0  0  0
   58.7452   32.8013   50.3852 H   0  0  0  0  0  0  0  0  0  0  0  0
  1  2  1  0
  2  3  1  0
  3  4  2  0
  4  5  1  0
  4  6  1  0
  6  7  1  0
  6  8  2  0
  8  9  1  0
  9 10  1  0
  9 11  2  0
 11 12  1  0
 12 13  1  0
 13 14  1  0
 14 15  2  0
 15 16  1  0
 15 17  1  0
 17 18  1  0
 17 19  2  0
 19 20  1  0
 19 21  1  0
 21 22  1  0
 21 23  2  0
 23 24  1  0
 13 25  2  0
 25 26  1  0
 26 27  1  0
 27 28  2  0
  8 29  1  0
 29 30  1  0
 29 31  2  0
 31 32  1  0
 31  3  1  0
 27 12  1  0
 23 14  1  0
M  CHG  3  24  -1  26  -1  30  -1
M  END
>  <UniqueID>  (21) 
17

>  <SMILES>  (21) 
[O-]c1cc(O)ccc1/C=N/n1c(-c2ccccc2[O-])n[n-]c1=S

>  <Energy>  (21) 
82.33374583021212

>  <Genealogy>  (21) 
[O-]c1cc(O)ccc1C=Nn1c(-c2ccccc2[O-])n[n-]c1=S (protonated)
[O-]c1cc(O)ccc1/C=N/n1c(-c2ccccc2[O-])n[n-]c1=S (cis-trans isomerization)
[O-]c1cc(O)ccc1/C=N/n1c(-c2ccccc2[O-])n[n-]c1=S (3D coordinates assigned)
[O-]c1cc(O)ccc1/C=N/n1c(-c2ccccc2[O-])n[n-]c1=S (optimized conformer: 82.33374583021212 kcal/mol)

>  <smiles>  (21) 
Oc1ccc(C=Nn2c(-c3ccccc3O)n[nH]c2=S)c(O)c1

>  <score_type>  (21) 
oracle

>  <origin>  (21) 
adg

>  <m_score__min__energy>  (21) 
-14.369999999999999

>  <m_primary>  (21) 
energy

$$$$
21:0
     RDKit          3D

 50 53  0  0  0  0  0  0  0  0999 V2000
   58.9710   29.6580   48.3950 C   0  0  0  0  0  0  0  0  0  0  0  0
   60.0960   30.5980   48.7150 C   0  0  0  0  0  0  0  0  0  0  0  0
   60.1520   31.4000   49.7800 C   0  0  0  0  0  0  0  0  0  0  0  0
   59.0860   31.6150   50.7810 C   0  0  0  0  0  0  0  0  0  0  0  0
   58.3680   30.5200   51.2860 C   0  0  0  0  0  0  0  0  0  0  0  0
   57.3770   30.7130   52.2540 C   0  0  0  0  0  0  0  0  0  0  0  0
   57.1090   31.9970   52.7360 C   0  0  0  0  0  0  0  0  0  0  0  0
   57.8350   33.0890   52.2540 C   0  0  0  0  0  0  0  0  0  0  0  0
   58.8240   32.9000   51.2860 C   0  0  0  0  0  0  0  0  0  0  0  0
   61.6480   32.2840   49.7680 S   0  0  0  0  0  0  0  0  0  0  0  0
   61.4560   33.7560   49.9950 O   0  0  0  0  0  0  0  0  0  0  0  0
   62.6160   31.7160   50.7680 O   0  0  0  0  0  0  0  0  0  0  0  0
   62.1370   31.8820   48.1470 N   0  0  2  0  0  0  0  0  0  0  0  0
   62.0330   33.0110   47.1860 C   0  0  0  0  0  0  0  0  0  0  0  0
   60.6120   33.4380   46.8360 C   0  0  0  0  0  0  0  0  0  0  0  0
   60.0360   34.5510   47.4700 C   0  0  0  0  0  0  0  0  0  0  0  0
   58.7220   34.9250   47.1890 C   0  0  0  0  0  0  0  0  0  0  0  0
   57.9700   34.2050   46.2610 C   0  0  0  0  0  0  0  0  0  0  0  0
   58.5380   33.1180   45.5760 C   0  0  0  0  0  0  0  0  0  0  0  0
   57.7360   32.3430   44.6000 C   0  0  0  0  0  0  0  0  0  0  0  0
   57.6430   32.7360   43.4040 O   0  0  0  0  0  0  0  0  0  0  0  0
   56.9900   31.1960   45.0300 N   0  0  0  0  0  0  0  0  0  0  0  0
   57.3890   29.9580   45.1440 C   0  0  0  0  0  0  0  0  0  0  0  0
   58.7280   29.7340   45.2470 N   0  0  0  0  0  0  0  0  0  0  0  0
   59.2550   28.4890   45.3750 C   0  0  0  0  0  0  0  0  0  0  0  0
   58.4190   27.3760   45.4010 C   0  0  0  0  0  0  0  0  0  0  0  0
   57.0430   27.5570   45.2720 C   0  0  0  0  0  0  0  0  0  0  0  0
   56.5120   28.8420   45.1260 C   0  0  0  0  0  0  0  0  0  0  0  0
   55.1440   28.9700   44.9200 O   0  0  0  0  0  0  0  0  0  0  0  0
   59.8710   32.7620   45.8480 C   0  0  0  0  0  0  0  0  0  0  0  0
   61.2480   30.8010   47.8140 C   0  0  0  0  0  0  0  0  0  0  0  0
   61.4430   30.0780   46.8000 O   0  0  0  0  0  0  0  0  0  0  0  0
   58.5264   29.2865   49.3300 H   0  0  0  0  0  0  0  0  0  0  0  0
   58.2051   30.1884   47.8102 H   0  0  0  0  0  0  0  0  0  0  0  0
   59.3568   28.8100   47.8102 H   0  0  0  0  0  0  0  0  0  0  0  0
   58.5854   29.5060   50.9191 H   0  0  0  0  0  0  0  0  0  0  0  0
   56.8078   29.8529   52.6364 H   0  0  0  0  0  0  0  0  0  0  0  0
   56.3268   32.1479   53.4946 H   0  0  0  0  0  0  0  0  0  0  0  0
   57.6275   34.0989   52.6373 H   0  0  0  0  0  0  0  0  0  0  0  0
   59.4006   33.7611   50.9172 H   0  0  0  0  0  0  0  0  0  0  0  0
   63.1190   31.5250   48.1660 H   0  0  0  0  0  0  0  0  0  0  0  0
   62.5509   33.8778   47.6223 H   0  0  0  0  0  0  0  0  0  0  0  0
   62.4842   32.6553   46.2479 H   0  0  0  0  0  0  0  0  0  0  0  0
   60.6258   35.1324   48.1939 H   0  0  0  0  0  0  0  0  0  0  0  0
   58.2772   35.7909   47.7012 H   0  0  0  0  0  0  0  0  0  0  0  0
   56.9259   34.4900   46.0643 H   0  0  0  0  0  0  0  0  0  0  0  0
   60.3442   28.3597   45.4583 H   0  0  0  0  0  0  0  0  0  0  0  0
   58.8391   26.3666   45.5218 H   0  0  0  0  0  0  0  0  0  0  0  0
   56.3722   26.6853   45.2851 H   0  0  0  0  0  0  0  0  0  0  0  0
   60.3409   31.9446   45.2814 H   0  0  0  0  0  0  0  0  0  0  0  0
  1  2  1  0
  2  3  2  0
  3  4  1  0
  4  5  2  0
  5  6  1  0
  6  7  2  0
  7  8  1  0
  8  9  2  0
  3 10  1  0
 10 11  2  0
 10 12  2  0
 10 13  1  0
 13 14  1  0
 14 15  1  0
 15 16  2  0
 16 17  1  0
 17 18  2  0
 18 19  1  0
 19 20  1  0
 20 21  2  0
 20 22  1  0
 22 23  2  3
 23 24  1  0
 24 25  1  0
 25 26  2  0
 26 27  1  0
 27 28  2  0
 28 29  1  0
 19 30  2  0
 13 31  1  0
 31 32  2  0
 31  2  1  0
  9  4  1  0
 30 15  1  0
 28 23  1  0
  1 33  1  0
  1 34  1  0
  1 35  1  0
  5 36  1  0
  6 37  1  0
  7 38  1  0
  8 39  1  0
  9 40  1  0
 13 41  1  1
 14 42  1  0
 14 43  1  0
 16 44  1  0
 17 45  1  0
 18 46  1  0
 25 47  1  0
 26 48  1  0
 27 49  1  0
 30 50  1  0
M  CHG  3  13   1  24  -1  29  -1
M  END
>  <UniqueID>  (22) 
18

>  <SMILES>  (22) 
CC1=C(c2ccccc2)S(=O)(=O)[N@H+](Cc2cccc(C(=O)N=c3[n-]cccc3[O-])c2)C1=O

>  <Energy>  (22) 
86.49899710711325

>  <Genealogy>  (22) 
CC1=C(c2ccccc2)S(=O)(=O)[NH+](Cc2cccc(C(=O)N=c3[n-]cccc3[O-])c2)C1=O (protonated)
CC1=C(c2ccccc2)S(=O)(=O)[N@H+](Cc2cccc(C(=O)N=c3[n-]cccc3[O-])c2)C1=O (chirality)
CC1=C(c2ccccc2)S(=O)(=O)[N@H+](Cc2cccc(C(=O)N=c3[n-]cccc3[O-])c2)C1=O (3D coordinates assigned)
CC1=C(c2ccccc2)S(=O)(=O)[N@H+](Cc2cccc(C(=O)N=c3[n-]cccc3[O-])c2)C1=O (nonaromatic ring conformer: 86.49899710711325 kcal/mol)

>  <smiles>  (22) 
CC1=C(c2ccccc2)S(=O)(=O)N(Cc2cccc(C(=O)N=c3[nH]cccc3O)c2)C1=O

>  <score_type>  (22) 
oracle

>  <origin>  (22) 
adg

>  <m_score__min__energy>  (22) 
-13.81

>  <m_primary>  (22) 
energy

$$$$
22:0
     RDKit          3D

 37 39  0  0  0  0  0  0  0  0999 V2000
   59.7860   34.3900   52.0680 H   0  0  0  0  0  0  0  0  0  0  0  0
   60.2590   33.7580   51.4320 O   0  0  0  0  0  0  0  0  0  0  0  0
   59.9100   33.6830   50.0850 C   0  0  0  0  0  0  0  0  0  0  0  0
   60.6050   34.4560   49.1490 C   0  0  0  0  0  0  0  0  0  0  0  0
   61.4190   35.1179   49.4796 H   0  0  0  0  0  0  0  0  0  0  0  0
   60.2670   34.3890   47.7940 C   0  0  0  0  0  0  0  0  0  0  0  0
   60.8046   35.0118   47.0639 H   0  0  0  0  0  0  0  0  0  0  0  0
   59.2430   33.5290   47.3610 C   0  0  0  0  0  0  0  0  0  0  0  0
   58.8420   33.4720   45.9390 C   0  0  0  0  0  0  0  0  0  0  0  0
   58.4880   34.4008   45.4678 H   0  0  0  0  0  0  0  0  0  0  0  0
   58.8800   32.3950   45.2070 N   0  0  0  0  0  0  0  0  0  0  0  0
   58.0100   31.2510   45.2820 C   0  0  0  0  0  0  0  0  0  0  0  0
   56.9120   31.1850   44.4780 N   0  0  0  0  0  0  0  0  0  0  0  0
   56.0870   30.1080   44.4570 C   0  0  0  0  0  0  0  0  0  0  0  0
   55.0770   30.1100   43.7040 O   0  0  0  0  0  0  0  0  0  0  0  0
   56.3650   29.0050   45.2640 C   0  0  0  0  0  0  0  0  0  0  0  0
   55.5310   27.8920   45.2550 O   0  0  0  0  0  0  0  0  0  0  0  0
   57.4940   29.0250   46.0830 C   0  0  0  0  0  0  0  0  0  0  0  0
   57.7239   28.1554   46.7162 H   0  0  0  0  0  0  0  0  0  0  0  0
   58.3410   30.1480   46.1060 C   0  0  0  0  0  0  0  0  0  0  0  0
   59.5380   30.1460   46.9900 C   0  0  0  0  0  0  0  0  0  0  0  0
   59.5600   29.4270   48.0250 O   0  0  0  0  0  0  0  0  0  0  0  0
   60.7080   30.8900   46.6040 N   0  0  0  0  0  0  0  0  0  0  0  0
   61.6770   31.3450   47.3500 C   0  0  0  0  0  0  0  0  0  0  0  0
   62.5220   32.2660   46.8100 N   0  0  0  0  0  0  0  0  0  0  0  0
   63.5570   32.8050   47.5070 C   0  0  0  0  0  0  0  0  0  0  0  0
   64.2183   33.5417   47.0275 H   0  0  0  0  0  0  0  0  0  0  0  0
   63.7810   32.4240   48.8310 C   0  0  0  0  0  0  0  0  0  0  0  0
   65.1110   33.1160   49.7410 Cl  0  0  0  0  0  0  0  0  0  0  0  0
   62.9250   31.4960   49.4250 C   0  0  0  0  0  0  0  0  0  0  0  0
   63.0843   31.1918   50.4700 H   0  0  0  0  0  0  0  0  0  0  0  0
   61.8660   30.9530   48.6940 C   0  0  0  0  0  0  0  0  0  0  0  0
   61.1849   30.2263   49.1608 H   0  0  0  0  0  0  0  0  0  0  0  0
   58.5290   32.7800   48.3070 C   0  0  0  0  0  0  0  0  0  0  0  0
   57.6985   32.1361   47.9819 H   0  0  0  0  0  0  0  0  0  0  0  0
   58.8680   32.8480   49.6620 C   0  0  0  0  0  0  0  0  0  0  0  0
   58.3153   32.2446   50.3971 H   0  0  0  0  0  0  0  0  0  0  0  0
  1  2  1  0
  2  3  1  0
  3  4  2  0
  4  5  1  0
  4  6  1  0
  6  7  1  0
  6  8  2  0
  8  9  1  0
  9 10  1  0
  9 11  2  0
 11 12  1  0
 12 13  1  0
 13 14  1  0
 14 15  2  0
 14 16  1  0
 16 17  1  0
 16 18  2  0
 18 19  1  0
 18 20  1  0
 20 21  1  0
 21 22  2  0
 21 23  1  0
 23 24  2  3
 24 25  1  0
 25 26  1  0
 26 27  1  0
 26 28  2  0
 28 29  1  0
 28 30  1  0
 30 31  1  0
 30 32  2  0
 32 33  1  0
  8 34  1  0
 34 35  1  0
 34 36  2  0
 36 37  1  0
 36  3  1  0
 20 12  2  0
 32 24  1  0
M  CHG  3  13  -1  17  -1  25  -1
M  END
>  <UniqueID>  (23) 
19

>  <SMILES>  (23) 
O=C(N=c1ccc(Cl)c[n-]1)c1cc([O-])c(=O)[n-]c1/N=C\c1ccc(O)cc1

>  <Energy>  (23) 
61.64562306831227

>  <Genealogy>  (23) 
O=C(N=c1ccc(Cl)c[n-]1)c1cc([O-])c(=O)[n-]c1N=Cc1ccc(O)cc1 (protonated)
O=C(N=c1ccc(Cl)c[n-]1)c1cc([O-])c(=O)[n-]c1/N=C\c1ccc(O)cc1 (cis-trans isomerization)
O=C(N=c1ccc(Cl)c[n-]1)c1cc([O-])c(=O)[n-]c1/N=C\c1ccc(O)cc1 (3D coordinates assigned)
O=C(N=c1ccc(Cl)c[n-]1)c1cc([O-])c(=O)[n-]c1/N=C\c1ccc(O)cc1 (optimized conformer: 61.64562306831227 kcal/mol)

>  <smiles>  (23) 
O=C(N=c1ccc(Cl)c[nH]1)c1cc(O)c(=O)[nH]c1N=Cc1ccc(O)cc1

>  <score_type>  (23) 
oracle

>  <origin>  (23) 
adg

>  <m_score__min__energy>  (23) 
-12.84

>  <m_primary>  (23) 
energy

$$$$
23:0
     RDKit          3D

 49 51  0  0  0  0  0  0  0  0999 V2000
   59.4890   33.6520   46.9320 C   0  0  0  0  0  0  0  0  0  0  0  0
   60.9190   33.5630   47.3910 C   0  0  0  0  0  0  0  0  0  0  0  0
   61.9480   33.8450   46.4760 C   0  0  0  0  0  0  0  0  0  0  0  0
   63.2870   33.7320   46.8570 C   0  0  0  0  0  0  0  0  0  0  0  0
   63.6140   33.3370   48.1540 C   0  0  0  0  0  0  0  0  0  0  0  0
   62.6030   33.0710   49.0810 C   0  0  0  0  0  0  0  0  0  0  0  0
   61.2540   33.2070   48.7210 C   0  0  0  0  0  0  0  0  0  0  0  0
   60.2460   32.9490   49.7080 N   0  0  0  0  0  0  0  0  0  0  0  0
   60.3510   31.8650   50.6430 C   0  0  0  0  0  0  0  0  0  0  0  0
   61.2110   30.9600   50.4510 O   0  0  0  0  0  0  0  0  0  0  0  0
   59.4560   31.7700   51.7670 N   0  0  0  0  0  0  0  0  0  0  0  0
   58.8860   32.9620   52.3970 C   0  0  0  0  0  0  0  0  0  0  0  0
   57.3760   32.7790   52.6260 C   0  0  0  0  0  0  0  0  0  0  0  0
   56.9670   31.3630   52.7660 N   0  0  0  0  0  0  0  0  0  0  0  0
   56.0970   30.8280   51.6930 C   0  0  0  0  0  0  0  0  0  0  0  0
   54.6630   30.6040   52.1210 C   0  0  0  0  0  0  0  0  0  0  0  0
   54.3310   29.5410   52.9750 C   0  0  0  0  0  0  0  0  0  0  0  0
   53.0080   29.3370   53.3660 C   0  0  0  0  0  0  0  0  0  0  0  0
   52.0020   30.1910   52.9130 C   0  0  0  0  0  0  0  0  0  0  0  0
   52.3060   31.2460   52.0350 C   0  0  0  0  0  0  0  0  0  0  0  0
   51.2370   32.1520   51.5530 C   0  0  0  0  0  0  0  0  0  0  0  0
   51.0230   32.3410   50.1550 N   0  0  0  0  0  0  0  0  0  0  0  0
   50.5050   32.7680   52.3740 O   0  0  0  0  0  0  0  0  0  0  0  0
   53.6400   31.4300   51.6270 C   0  0  0  0  0  0  0  0  0  0  0  0
   58.0030   30.4440   53.2840 C   0  0  0  0  0  0  0  0  0  0  0  0
   59.3140   30.4960   52.4780 C   0  0  0  0  0  0  0  0  0  0  0  0
   58.8247   33.6933   47.8078 H   0  0  0  0  0  0  0  0  0  0  0  0
   59.3542   34.5603   46.3263 H   0  0  0  0  0  0  0  0  0  0  0  0
   59.2426   32.7675   46.3263 H   0  0  0  0  0  0  0  0  0  0  0  0
   61.6967   34.1572   45.4516 H   0  0  0  0  0  0  0  0  0  0  0  0
   64.0847   33.9548   46.1331 H   0  0  0  0  0  0  0  0  0  0  0  0
   64.6692   33.2348   48.4475 H   0  0  0  0  0  0  0  0  0  0  0  0
   62.8667   32.7527   50.1004 H   0  0  0  0  0  0  0  0  0  0  0  0
   59.3190   33.4160   49.5920 H   0  0  0  0  0  0  0  0  0  0  0  0
   59.3811   33.1322   53.3644 H   0  0  0  0  0  0  0  0  0  0  0  0
   59.0437   33.8254   51.7339 H   0  0  0  0  0  0  0  0  0  0  0  0
   57.0958   33.3148   53.5449 H   0  0  0  0  0  0  0  0  0  0  0  0
   56.8636   33.1774   51.7379 H   0  0  0  0  0  0  0  0  0  0  0  0
   56.1011   31.5414   50.8557 H   0  0  0  0  0  0  0  0  0  0  0  0
   56.5037   29.8452   51.4124 H   0  0  0  0  0  0  0  0  0  0  0  0
   55.1189   28.8648   53.3381 H   0  0  0  0  0  0  0  0  0  0  0  0
   52.7567   28.4999   54.0339 H   0  0  0  0  0  0  0  0  0  0  0  0
   50.9645   30.0379   53.2449 H   0  0  0  0  0  0  0  0  0  0  0  0
   50.0600   32.3330   49.7530 H   0  0  0  0  0  0  0  0  0  0  0  0
   53.8846   32.2301   50.9128 H   0  0  0  0  0  0  0  0  0  0  0  0
   58.2223   30.7158   54.3271 H   0  0  0  0  0  0  0  0  0  0  0  0
   57.6064   29.4215   53.1996 H   0  0  0  0  0  0  0  0  0  0  0  0
   60.1626   30.3746   53.1672 H   0  0  0  0  0  0  0  0  0  0  0  0
   59.2950   29.6855   51.7345 H   0  0  0  0  0  0  0  0  0  0  0  0
  1  2  1  0
  2  3  2  0
  3  4  1  0
  4  5  2  0
  5  6  1  0
  6  7  2  0
  7  8  1  0
  8  9  1  0
  9 10  2  0
  9 11  1  0
 11 12  1  0
 12 13  1  0
 13 14  1  0
 14 15  1  0
 15 16  1  0
 16 17  2  0
 17 18  1  0
 18 19  2  0
 19 20  1  0
 20 21  1  0
 21 22  1  0
 21 23  2  0
 20 24  2  0
 14 25  1  0
 25 26  1  0
  7  2  1  0
 26 11  1  0
 24 16  1  0
  1 27  1  0
  1 28  1  0
  1 29  1  0
  3 30  1  0
  4 31  1  0
  5 32  1  0
  6 33  1  0
  8 34  1  0
 12 35  1  0
 12 36  1  0
 13 37  1  0
 13 38  1  0
 15 39  1  0
 15 40  1  0
 17 41  1  0
 18 42  1  0
 19 43  1  0
 22 44  1  0
 24 45  1  0
 25 46  1  0
 25 47  1  0
 26 48  1  0
 26 49  1  0
M  CHG  1  22  -1
M  END
>  <UniqueID>  (24) 
20

>  <SMILES>  (24) 
Cc1ccccc1NC(=O)N1CCN(Cc2cccc(C([NH-])=O)c2)CC1

>  <Energy>  (24) 
67.02877919360331

>  <Genealogy>  (24) 
Cc1ccccc1NC(=O)N1CCN(Cc2cccc(C([NH-])=O)c2)CC1 (protonated)
Cc1ccccc1NC(=O)N1CCN(Cc2cccc(C([NH-])=O)c2)CC1 (3D coordinates assigned)
Cc1ccccc1NC(=O)N1CCN(Cc2cccc(C([NH-])=O)c2)CC1 (nonaromatic ring conformer: 67.02877919360331 kcal/mol)

>  <smiles>  (24) 
Cc1ccccc1NC(=O)N1CCN(Cc2cccc(C(N)=O)c2)CC1

>  <score_type>  (24) 
oracle

>  <origin>  (24) 
adg

>  <m_score__min__energy>  (24) 
-11.859999999999999

>  <m_primary>  (24) 
energy

$$$$
24:0
     RDKit          3D

 40 42  0  0  0  0  0  0  0  0999 V2000
   58.1810   32.6870   44.8610 C   0  0  0  0  0  0  0  0  0  0  0  0
   57.4900   31.9650   43.9800 C   0  0  0  0  0  0  0  0  0  0  0  0
   56.8760   30.6730   44.3240 C   0  0  0  0  0  0  0  0  0  0  0  0
   55.6750   30.6140   44.7020 O   0  0  0  0  0  0  0  0  0  0  0  0
   57.6830   29.4900   44.2740 N   0  0  0  0  0  0  0  0  0  0  0  0
   58.0250   28.6400   45.3810 C   0  0  0  0  0  0  0  0  0  0  0  0
   57.3450   27.4290   45.6090 C   0  0  0  0  0  0  0  0  0  0  0  0
   57.7160   26.5880   46.6730 C   0  0  0  0  0  0  0  0  0  0  0  0
   57.0190   25.3570   46.9330 N   0  0  0  0  0  0  0  0  0  0  0  0
   56.3310   24.5940   45.9340 C   0  0  0  0  0  0  0  0  0  0  0  0
   56.8530   23.4990   45.3560 N   0  0  0  0  0  0  0  0  0  0  0  0
   55.8950   23.1330   44.4770 C   0  0  0  0  0  0  0  0  0  0  0  0
   56.0080   22.1220   43.7360 O   0  0  0  0  0  0  0  0  0  0  0  0
   54.8100   23.9370   44.4490 N   0  0  0  0  0  0  0  0  0  0  0  0
   55.1030   24.8710   45.3690 C   0  0  0  0  0  0  0  0  0  0  0  0
   54.2790   25.9610   45.6370 O   0  0  0  0  0  0  0  0  0  0  0  0
   58.7550   26.9800   47.5240 C   0  0  0  0  0  0  0  0  0  0  0  0
   59.4510   28.1660   47.2910 C   0  0  0  0  0  0  0  0  0  0  0  0
   59.1130   28.9900   46.2040 C   0  0  0  0  0  0  0  0  0  0  0  0
   59.8180   30.2250   45.9790 N   0  0  0  0  0  0  0  0  0  0  0  0
   60.3300   31.0650   47.0290 C   0  0  0  0  0  0  0  0  0  0  0  0
   59.4760   31.6530   47.9810 C   0  0  0  0  0  0  0  0  0  0  0  0
   60.0010   32.4450   49.0060 C   0  0  0  0  0  0  0  0  0  0  0  0
   61.3810   32.6450   49.1000 C   0  0  0  0  0  0  0  0  0  0  0  0
   62.2380   32.0470   48.1730 C   0  0  0  0  0  0  0  0  0  0  0  0
   61.7170   31.2550   47.1460 C   0  0  0  0  0  0  0  0  0  0  0  0
   58.6227   33.6480   44.5587 H   0  0  0  0  0  0  0  0  0  0  0  0
   58.3099   32.3221   45.8907 H   0  0  0  0  0  0  0  0  0  0  0  0
   57.3741   32.3497   42.9560 H   0  0  0  0  0  0  0  0  0  0  0  0
   56.5152   27.1376   44.9483 H   0  0  0  0  0  0  0  0  0  0  0  0
   56.9300   25.0400   47.9250 H   0  0  0  0  0  0  0  0  0  0  0  0
   53.6600   25.9790   46.4380 H   0  0  0  0  0  0  0  0  0  0  0  0
   59.0249   26.3482   48.3831 H   0  0  0  0  0  0  0  0  0  0  0  0
   60.2709   28.4587   47.9634 H   0  0  0  0  0  0  0  0  0  0  0  0
   59.9570   30.5390   44.9920 H   0  0  0  0  0  0  0  0  0  0  0  0
   58.3902   31.4884   47.9180 H   0  0  0  0  0  0  0  0  0  0  0  0
   59.3271   32.9115   49.7397 H   0  0  0  0  0  0  0  0  0  0  0  0
   61.7923   33.2732   49.9039 H   0  0  0  0  0  0  0  0  0  0  0  0
   63.3245   32.1997   48.2514 H   0  0  0  0  0  0  0  0  0  0  0  0
   62.3970   30.7776   46.4251 H   0  0  0  0  0  0  0  0  0  0  0  0
  1  2  2  0
  2  3  1  0
  3  4  2  0
  3  5  1  0
  5  6  1  0
  6  7  2  0
  7  8  1  0
  8  9  1  0
  9 10  1  0
 10 11  1  0
 11 12  1  0
 12 13  2  0
 12 14  1  0
 14 15  1  0
 15 16  1  0
  8 17  2  0
 17 18  1  0
 18 19  2  0
 19 20  1  0
 20 21  1  0
 21 22  2  0
 22 23  1  0
 23 24  2  0
 24 25  1  0
 25 26  2  0
 19  6  1  0
 26 21  1  0
 15 10  2  0
  1 27  1  0
  1 28  1  0
  2 29  1  0
  7 30  1  0
  9 31  1  0
 16 32  1  0
 17 33  1  0
 18 34  1  0
 20 35  1  0
 22 36  1  0
 23 37  1  0
 24 38  1  0
 25 39  1  0
 26 40  1  0
M  CHG  3   5  -1  11  -1  14  -1
M  END
>  <UniqueID>  (25) 
21

>  <SMILES>  (25) 
C=CC(=O)[N-]c1cc(Nc2[n-]c(=O)[n-]c2O)ccc1Nc1ccccc1

>  <Energy>  (25) 
85.20798055939471

>  <Genealogy>  (25) 
C=CC(=O)[N-]c1cc(Nc2[n-]c(=O)[n-]c2O)ccc1Nc1ccccc1 (protonated)
C=CC(=O)[N-]c1cc(Nc2[n-]c(=O)[n-]c2O)ccc1Nc1ccccc1 (3D coordinates assigned)
C=CC(=O)[N-]c1cc(Nc2[n-]c(=O)[n-]c2O)ccc1Nc1ccccc1 (optimized conformer: 85.20798055939471 kcal/mol)

>  <smiles>  (25) 
C=CC(=O)Nc1cc(Nc2[nH]c(=O)[nH]c2O)ccc1Nc1ccccc1

>  <score_type>  (25) 
oracle

>  <origin>  (25) 
adg

>  <m_score__min__energy>  (25) 
-13.84

>  <m_primary>  (25) 
energy

$$$$
25:0
     RDKit          3D

 46 49  0  0  0  0  0  0  0  0999 V2000
   57.6654   31.6311   52.0313 H   0  0  0  0  0  0  0  0  0  0  0  0
   56.5680   31.7000   52.0000 C   0  0  0  0  0  0  0  0  0  0  0  0
   56.0846   32.6288   51.6629 H   0  0  0  0  0  0  0  0  0  0  0  0
   55.8190   30.6510   52.3730 C   0  0  0  0  0  0  0  0  0  0  0  0
   54.4200   30.5890   52.3870 C   0  0  0  0  0  0  0  0  0  0  0  0
   53.5570   31.5700   52.0610 C   0  0  0  0  0  0  0  0  0  0  0  0
   53.6203   32.5184   52.6147 H   0  0  0  0  0  0  0  0  0  0  0  0
   52.5330   31.4510   51.0080 C   0  0  0  0  0  0  0  0  0  0  0  0
   52.5120   30.4490   50.1100 N   0  0  0  0  0  0  0  0  0  0  0  0
   51.3810   30.6800   49.4080 C   0  0  0  0  0  0  0  0  0  0  0  0
   51.0170   29.9480   48.4520 O   0  0  0  0  0  0  0  0  0  0  0  0
   50.6680   31.7500   49.8180 N   0  0  0  0  0  0  0  0  0  0  0  0
   51.4020   32.2200   50.8400 C   0  0  0  0  0  0  0  0  0  0  0  0
   51.0180   33.2980   51.6280 O   0  0  0  0  0  0  0  0  0  0  0  0
   54.0920   29.3270   52.8690 C   0  0  0  0  0  0  0  0  0  0  0  0
   53.0796   28.9284   53.0309 H   0  0  0  0  0  0  0  0  0  0  0  0
   55.2840   28.6710   53.1050 C   0  0  0  0  0  0  0  0  0  0  0  0
   55.3980   27.2880   53.6680 C   0  0  0  0  0  0  0  0  0  0  0  0
   55.3939   27.3380   54.7669 H   0  0  0  0  0  0  0  0  0  0  0  0
   54.5468   26.6813   53.3253 H   0  0  0  0  0  0  0  0  0  0  0  0
   56.3370   26.8289   53.3253 H   0  0  0  0  0  0  0  0  0  0  0  0
   56.3300   29.4750   52.8130 N   0  0  0  0  0  0  0  0  0  0  0  0
   57.7180   29.1290   52.9510 C   0  0  0  0  0  0  0  0  0  0  0  0
   58.5850   29.2440   51.8540 C   0  0  0  0  0  0  0  0  0  0  0  0
   58.1200   29.6860   50.6590 F   0  0  0  0  0  0  0  0  0  0  0  0
   59.9340   28.9010   51.9870 C   0  0  0  0  0  0  0  0  0  0  0  0
   60.6093   28.9972   51.1240 H   0  0  0  0  0  0  0  0  0  0  0  0
   60.4330   28.4350   53.2130 C   0  0  0  0  0  0  0  0  0  0  0  0
   61.8260   28.0870   53.3430 N   0  0  0  0  0  0  0  0  0  0  0  0
   62.5140   28.2810   54.6240 C   0  0  0  0  0  0  0  0  0  0  0  0
   62.9164   29.3036   54.6724 H   0  0  0  0  0  0  0  0  0  0  0  0
   61.8024   28.1264   55.4484 H   0  0  0  0  0  0  0  0  0  0  0  0
   63.6620   27.2750   54.7470 C   0  0  0  0  0  0  0  0  0  0  0  0
   64.2504   27.5076   55.6468 H   0  0  0  0  0  0  0  0  0  0  0  0
   63.2374   26.2627   54.8180 H   0  0  0  0  0  0  0  0  0  0  0  0
   64.5060   27.3340   53.6130 O   0  0  0  0  0  0  0  0  0  0  0  0
   63.7940   26.9220   52.4620 C   0  0  0  0  0  0  0  0  0  0  0  0
   64.4834   26.8848   51.6056 H   0  0  0  0  0  0  0  0  0  0  0  0
   63.3639   25.9274   52.6509 H   0  0  0  0  0  0  0  0  0  0  0  0
   62.6550   27.8980   52.1480 C   0  0  0  0  0  0  0  0  0  0  0  0
   63.0768   28.8655   51.8382 H   0  0  0  0  0  0  0  0  0  0  0  0
   62.0368   27.4889   51.3353 H   0  0  0  0  0  0  0  0  0  0  0  0
   59.5610   28.3270   54.3110 C   0  0  0  0  0  0  0  0  0  0  0  0
   59.9429   27.9709   55.2792 H   0  0  0  0  0  0  0  0  0  0  0  0
   58.2130   28.6690   54.1800 C   0  0  0  0  0  0  0  0  0  0  0  0
   57.3900   28.5660   55.2530 F   0  0  0  0  0  0  0  0  0  0  0  0
  1  2  1  0
  2  3  1  0
  2  4  2  0
  4  5  1  0
  5  6  2  0
  6  7  1  0
  6  8  1  0
  8  9  1  0
  9 10  1  0
 10 11  2  0
 10 12  1  0
 12 13  1  0
 13 14  1  0
  5 15  1  0
 15 16  1  0
 15 17  2  0
 17 18  1  0
 18 19  1  0
 18 20  1  0
 18 21  1  0
 17 22  1  0
 22 23  1  0
 23 24  2  0
 24 25  1  0
 24 26  1  0
 26 27  1  0
 26 28  2  0
 28 29  1  0
 29 30  1  0
 30 31  1  0
 30 32  1  0
 30 33  1  0
 33 34  1  0
 33 35  1  0
 33 36  1  0
 36 37  1  0
 37 38  1  0
 37 39  1  0
 37 40  1  0
 40 41  1  0
 40 42  1  0
 28 43  1  0
 43 44  1  0
 43 45  2  0
 45 46  1  0
 22  4  1  0
 45 23  1  0
 13  8  2  0
 40 29  1  0
M  CHG  3   9  -1  12  -1  14  -1
M  END
>  <UniqueID>  (26) 
22

>  <SMILES>  (26) 
C=c1/c(=C/c2[n-]c(=O)[n-]c2[O-])cc(C)n1-c1c(F)cc(N2CCOCC2)cc1F

>  <Energy>  (26) 
126.13372016069431

>  <Genealogy>  (26) 
C=c1c(=Cc2[n-]c(=O)[n-]c2[O-])cc(C)n1-c1c(F)cc(N2CCOCC2)cc1F (protonated)
C=c1/c(=C/c2[n-]c(=O)[n-]c2[O-])cc(C)n1-c1c(F)cc(N2CCOCC2)cc1F (cis-trans isomerization)
C=c1/c(=C/c2[n-]c(=O)[n-]c2[O-])cc(C)n1-c1c(F)cc(N2CCOCC2)cc1F (3D coordinates assigned)
C=c1/c(=C/c2[n-]c(=O)[n-]c2[O-])cc(C)n1-c1c(F)cc(N2CCOCC2)cc1F (nonaromatic ring conformer: 126.13372016069431 kcal/mol)

>  <smiles>  (26) 
C=c1c(=Cc2[nH]c(=O)[nH]c2O)cc(C)n1-c1c(F)cc(N2CCOCC2)cc1F

>  <score_type>  (26) 
oracle

>  <origin>  (26) 
adg

>  <m_score__min__energy>  (26) 
-15.18

>  <m_primary>  (26) 
energy

$$$$
26:0
     RDKit          3D

 49 52  0  0  0  0  0  0  0  0999 V2000
   61.1180   29.7500   46.0090 O   0  0  0  0  0  0  0  0  0  0  0  0
   60.0960   29.5070   46.7010 C   0  0  0  0  0  0  0  0  0  0  0  0
   60.1010   29.9230   48.0740 N   0  0  0  0  0  0  0  0  0  0  0  0
   59.0700   29.6300   49.0620 C   0  0  0  0  0  0  0  0  0  0  0  0
   58.8680   30.8290   49.9420 C   0  0  0  0  0  0  0  0  0  0  0  0
   57.9880   30.7630   51.0380 C   0  0  0  0  0  0  0  0  0  0  0  0
   57.7860   31.8890   51.8440 C   0  0  0  0  0  0  0  0  0  0  0  0
   58.4460   33.0890   51.5570 C   0  0  0  0  0  0  0  0  0  0  0  0
   58.2440   34.2040   52.3620 O   0  0  0  0  0  0  0  0  0  0  0  0
   59.3080   33.1650   50.4590 C   0  0  0  0  0  0  0  0  0  0  0  0
   59.5150   32.0420   49.6500 C   0  0  0  0  0  0  0  0  0  0  0  0
   58.9310   28.8200   46.0870 C   0  0  0  0  0  0  0  0  0  0  0  0
   58.7110   27.5330   46.1950 O   0  0  0  0  0  0  0  0  0  0  0  0
   57.5980   27.2550   45.5570 C   0  0  0  0  0  0  0  0  0  0  0  0
   57.0280   25.8910   45.4700 C   0  0  0  0  0  0  0  0  0  0  0  0
   57.8780   24.8130   45.1640 C   0  0  0  0  0  0  0  0  0  0  0  0
   57.3730   23.5120   45.0790 C   0  0  0  0  0  0  0  0  0  0  0  0
   56.0170   23.2720   45.3010 C   0  0  0  0  0  0  0  0  0  0  0  0
   55.1600   24.3310   45.6050 C   0  0  0  0  0  0  0  0  0  0  0  0
   55.6550   25.6390   45.6910 C   0  0  0  0  0  0  0  0  0  0  0  0
   54.7720   26.6690   45.9990 O   0  0  0  0  0  0  0  0  0  0  0  0
   57.0410   28.3500   45.0020 N   0  0  0  0  0  0  0  0  0  0  0  0
   57.8830   29.3460   45.3350 C   0  0  0  0  0  0  0  0  0  0  0  0
   57.5960   31.0130   44.8230 S   0  0  0  0  0  0  0  0  0  0  0  0
   56.1240   31.1600   44.5500 O   0  0  0  0  0  0  0  0  0  0  0  0
   58.3230   31.3070   43.5430 O   0  0  0  0  0  0  0  0  0  0  0  0
   58.0500   32.1820   46.0420 N   0  0  0  0  0  0  0  0  0  0  0  0
   57.3730   33.4630   45.8640 C   0  0  0  0  0  0  0  0  0  0  0  0
   58.2370   34.4870   46.5700 C   0  0  0  0  0  0  0  0  0  0  0  0
   59.6450   33.9180   46.4990 C   0  0  0  0  0  0  0  0  0  0  0  0
   59.4810   32.4880   45.9930 C   0  0  0  0  0  0  0  0  0  0  0  0
   58.1276   29.3886   48.5485 H   0  0  0  0  0  0  0  0  0  0  0  0
   59.3822   28.7721   49.6757 H   0  0  0  0  0  0  0  0  0  0  0  0
   57.4582   29.8252   51.2615 H   0  0  0  0  0  0  0  0  0  0  0  0
   57.1058   31.8305   52.7065 H   0  0  0  0  0  0  0  0  0  0  0  0
   59.8244   34.1090   50.2306 H   0  0  0  0  0  0  0  0  0  0  0  0
   60.1871   32.1090   48.7818 H   0  0  0  0  0  0  0  0  0  0  0  0
   58.9488   24.9950   44.9901 H   0  0  0  0  0  0  0  0  0  0  0  0
   58.0461   22.6764   44.8367 H   0  0  0  0  0  0  0  0  0  0  0  0
   55.6226   22.2472   45.2364 H   0  0  0  0  0  0  0  0  0  0  0  0
   54.0910   24.1378   45.7779 H   0  0  0  0  0  0  0  0  0  0  0  0
   57.2874   33.7058   44.7946 H   0  0  0  0  0  0  0  0  0  0  0  0
   56.3524   33.4423   46.2738 H   0  0  0  0  0  0  0  0  0  0  0  0
   58.1848   35.4586   46.0569 H   0  0  0  0  0  0  0  0  0  0  0  0
   57.9111   34.6638   47.6056 H   0  0  0  0  0  0  0  0  0  0  0  0
   60.2619   34.5042   45.8020 H   0  0  0  0  0  0  0  0  0  0  0  0
   60.1482   33.9501   47.4766 H   0  0  0  0  0  0  0  0  0  0  0  0
   59.8501   32.4075   44.9599 H   0  0  0  0  0  0  0  0  0  0  0  0
   60.0562   31.7829   46.6110 H   0  0  0  0  0  0  0  0  0  0  0  0
  1  2  2  0
  2  3  1  0
  3  4  1  0
  4  5  1  0
  5  6  2  0
  6  7  1  0
  7  8  2  0
  8  9  1  0
  8 10  1  0
 10 11  2  0
  2 12  1  0
 12 13  1  0
 13 14  1  0
 14 15  1  0
 15 16  2  0
 16 17  1  0
 17 18  2  0
 18 19  1  0
 19 20  2  0
 20 21  1  0
 14 22  2  0
 22 23  1  0
 23 24  1  0
 24 25  2  0
 24 26  2  0
 24 27  1  0
 27 28  1  0
 28 29  1  0
 29 30  1  0
 30 31  1  0
 11  5  1  0
 23 12  2  0
 31 27  1  0
 20 15  1  0
  4 32  1  0
  4 33  1  0
  6 34  1  0
  7 35  1  0
 10 36  1  0
 11 37  1  0
 16 38  1  0
 17 39  1  0
 18 40  1  0
 19 41  1  0
 28 42  1  0
 28 43  1  0
 29 44  1  0
 29 45  1  0
 30 46  1  0
 30 47  1  0
 31 48  1  0
 31 49  1  0
M  CHG  3   3  -1   9  -1  21  -1
M  END
>  <UniqueID>  (27) 
23

>  <SMILES>  (27) 
O=C([N-]Cc1ccc([O-])cc1)c1oc(-c2ccccc2[O-])nc1S(=O)(=O)N1CCCC1

>  <Energy>  (27) 
85.58024974658635

>  <Genealogy>  (27) 
O=C([N-]Cc1ccc([O-])cc1)c1oc(-c2ccccc2[O-])nc1S(=O)(=O)N1CCCC1 (protonated)
O=C([N-]Cc1ccc([O-])cc1)c1oc(-c2ccccc2[O-])nc1S(=O)(=O)N1CCCC1 (3D coordinates assigned)
O=C([N-]Cc1ccc([O-])cc1)c1oc(-c2ccccc2[O-])nc1S(=O)(=O)N1CCCC1 (nonaromatic ring conformer: 85.58024974658635 kcal/mol)

>  <smiles>  (27) 
O=C(NCc1ccc(O)cc1)c1oc(-c2ccccc2O)nc1S(=O)(=O)N1CCCC1

>  <score_type>  (27) 
oracle

>  <origin>  (27) 
adg

>  <m_score__min__energy>  (27) 
-14.529999999999999

>  <m_primary>  (27) 
energy

$$$$
27:0
     RDKit          3D

 66 69  0  0  0  0  0  0  0  0999 V2000
   56.8330   24.4060   44.6870 C   0  0  0  0  0  0  0  0  0  0  0  0
   56.3190   25.4630   45.6200 C   0  0  0  0  0  0  0  0  0  0  0  0
   55.1400   25.3580   46.0520 O   0  0  0  0  0  0  0  0  0  0  0  0
   57.1630   26.6140   46.0480 C   0  0  0  0  0  0  0  0  0  0  0  0
   57.7790   26.6360   47.3110 C   0  0  0  0  0  0  0  0  0  0  0  0
   58.5490   27.7300   47.7030 C   0  0  0  0  0  0  0  0  0  0  0  0
   58.7310   28.8300   46.8480 C   0  0  0  0  0  0  0  0  0  0  0  0
   59.5260   29.9520   47.2890 N   0  0  0  0  0  0  0  0  0  0  0  0
   60.8710   30.1430   46.7260 C   0  0  0  0  0  0  0  0  0  0  0  0
   61.2900   31.6140   46.8000 C   0  0  0  0  0  0  0  0  0  0  0  0
   61.0540   32.1870   48.1350 N   0  0  0  0  0  0  0  0  0  0  0  0
   61.5560   33.5010   48.4600 C   0  0  0  0  0  0  0  0  0  0  0  0
   60.9720   34.1940   49.3390 O   0  0  0  0  0  0  0  0  0  0  0  0
   62.7580   34.0640   47.7400 C   0  0  0  0  0  0  0  0  0  0  0  0
   64.0670   33.3440   48.0900 C   0  0  0  0  0  0  0  0  0  0  0  0
   64.0500   32.9070   49.5310 C   0  0  0  0  0  0  0  0  0  0  0  0
   63.8650   31.5530   49.8590 C   0  0  0  0  0  0  0  0  0  0  0  0
   63.9080   31.1390   51.1930 C   0  0  0  0  0  0  0  0  0  0  0  0
   64.1420   32.0720   52.2090 C   0  0  0  0  0  0  0  0  0  0  0  0
   64.3340   33.4180   51.8930 C   0  0  0  0  0  0  0  0  0  0  0  0
   64.2930   33.8370   50.5590 C   0  0  0  0  0  0  0  0  0  0  0  0
   60.3110   31.4110   49.1400 C   0  0  0  0  0  0  0  0  0  0  0  0
   59.1190   30.7040   48.4890 C   0  0  0  0  0  0  0  0  0  0  0  0
   58.1290   28.8160   45.5700 C   0  0  0  0  0  0  0  0  0  0  0  0
   58.3520   29.9190   44.6780 N   0  0  0  0  0  0  0  0  0  0  0  0
   57.1350   30.7800   43.7890 S   0  0  0  0  0  0  0  0  0  0  0  0
   56.7710   30.0080   42.5490 O   0  0  0  0  0  0  0  0  0  0  0  0
   55.9110   30.9110   44.6500 O   0  0  0  0  0  0  0  0  0  0  0  0
   57.7350   32.4090   43.3760 C   0  0  0  0  0  0  0  0  0  0  0  0
   58.1380   33.1550   44.6190 C   0  0  0  0  0  0  0  0  0  0  0  0
   59.1660   34.1110   44.5690 C   0  0  0  0  0  0  0  0  0  0  0  0
   59.5490   34.7930   45.7260 C   0  0  0  0  0  0  0  0  0  0  0  0
   58.9030   34.5340   46.9380 C   0  0  0  0  0  0  0  0  0  0  0  0
   57.8620   33.6010   46.9910 C   0  0  0  0  0  0  0  0  0  0  0  0
   57.4770   32.9160   45.8350 C   0  0  0  0  0  0  0  0  0  0  0  0
   57.3490   27.7090   45.1840 C   0  0  0  0  0  0  0  0  0  0  0  0
   57.2406   23.5679   45.2713 H   0  0  0  0  0  0  0  0  0  0  0  0
   56.0099   24.0449   44.0529 H   0  0  0  0  0  0  0  0  0  0  0  0
   57.6253   24.8304   44.0529 H   0  0  0  0  0  0  0  0  0  0  0  0
   57.6527   25.7839   47.9951 H   0  0  0  0  0  0  0  0  0  0  0  0
   59.0211   27.7321   48.6965 H   0  0  0  0  0  0  0  0  0  0  0  0
   61.5894   29.5347   47.2951 H   0  0  0  0  0  0  0  0  0  0  0  0
   60.8575   29.8339   45.6704 H   0  0  0  0  0  0  0  0  0  0  0  0
   62.3619   31.6904   46.5650 H   0  0  0  0  0  0  0  0  0  0  0  0
   60.6832   32.1774   46.0758 H   0  0  0  0  0  0  0  0  0  0  0  0
   62.5894   33.9750   46.6566 H   0  0  0  0  0  0  0  0  0  0  0  0
   62.8671   35.1114   48.0577 H   0  0  0  0  0  0  0  0  0  0  0  0
   64.1803   32.4611   47.4437 H   0  0  0  0  0  0  0  0  0  0  0  0
   64.9094   34.0339   47.9337 H   0  0  0  0  0  0  0  0  0  0  0  0
   63.6856   30.8160   49.0623 H   0  0  0  0  0  0  0  0  0  0  0  0
   63.7578   30.0787   51.4445 H   0  0  0  0  0  0  0  0  0  0  0  0
   64.1747   31.7443   53.2585 H   0  0  0  0  0  0  0  0  0  0  0  0
   64.5177   34.1497   52.6935 H   0  0  0  0  0  0  0  0  0  0  0  0
   64.4513   34.8973   50.3126 H   0  0  0  0  0  0  0  0  0  0  0  0
   60.9796   30.6598   49.5857 H   0  0  0  0  0  0  0  0  0  0  0  0
   59.9408   32.0943   49.9185 H   0  0  0  0  0  0  0  0  0  0  0  0
   58.6773   30.0060   49.2154 H   0  0  0  0  0  0  0  0  0  0  0  0
   58.3883   31.4683   48.1857 H   0  0  0  0  0  0  0  0  0  0  0  0
   58.6067   32.3156   42.7116 H   0  0  0  0  0  0  0  0  0  0  0  0
   56.9313   32.9662   42.8725 H   0  0  0  0  0  0  0  0  0  0  0  0
   59.6711   34.3232   43.6152 H   0  0  0  0  0  0  0  0  0  0  0  0
   60.3600   35.5349   45.6833 H   0  0  0  0  0  0  0  0  0  0  0  0
   59.2132   35.0640   47.8506 H   0  0  0  0  0  0  0  0  0  0  0  0
   57.3462   33.4063   47.9429 H   0  0  0  0  0  0  0  0  0  0  0  0
   56.6539   32.1876   45.8777 H   0  0  0  0  0  0  0  0  0  0  0  0
   56.8772   27.7001   44.1904 H   0  0  0  0  0  0  0  0  0  0  0  0
  1  2  1  0
  2  3  2  0
  2  4  1  0
  4  5  2  0
  5  6  1  0
  6  7  2  0
  7  8  1  0
  8  9  1  0
  9 10  1  0
 10 11  1  0
 11 12  1  0
 12 13  2  0
 12 14  1  0
 14 15  1  0
 15 16  1  0
 16 17  2  0
 17 18  1  0
 18 19  2  0
 19 20  1  0
 20 21  2  0
 11 22  1  0
 22 23  1  0
  7 24  1  0
 24 25  1  0
 25 26  1  0
 26 27  2  0
 26 28  2  0
 26 29  1  0
 29 30  1  0
 30 31  2  0
 31 32  1  0
 32 33  2  0
 33 34  1  0
 34 35  2  0
 24 36  2  0
 36  4  1  0
 23  8  1  0
 35 30  1  0
 21 16  1  0
  1 37  1  0
  1 38  1  0
  1 39  1  0
  5 40  1  0
  6 41  1  0
  9 42  1  0
  9 43  1  0
 10 44  1  0
 10 45  1  0
 14 46  1  0
 14 47  1  0
 15 48  1  0
 15 49  1  0
 17 50  1  0
 18 51  1  0
 19 52  1  0
 20 53  1  0
 21 54  1  0
 22 55  1  0
 22 56  1  0
 23 57  1  0
 23 58  1  0
 29 59  1  0
 29 60  1  0
 31 61  1  0
 32 62  1  0
 33 63  1  0
 34 64  1  0
 35 65  1  0
 36 66  1  0
M  CHG  1  25  -1
M  END
>  <UniqueID>  (28) 
24

>  <SMILES>  (28) 
CC(=O)c1ccc(N2CCN(C(=O)CCc3ccccc3)CC2)c([N-]S(=O)(=O)Cc2ccccc2)c1

>  <Energy>  (28) 
72.92081113197357

>  <Genealogy>  (28) 
CC(=O)c1ccc(N2CCN(C(=O)CCc3ccccc3)CC2)c([N-]S(=O)(=O)Cc2ccccc2)c1 (protonated)
CC(=O)c1ccc(N2CCN(C(=O)CCc3ccccc3)CC2)c([N-]S(=O)(=O)Cc2ccccc2)c1 (3D coordinates assigned)
CC(=O)c1ccc(N2CCN(C(=O)CCc3ccccc3)CC2)c([N-]S(=O)(=O)Cc2ccccc2)c1 (nonaromatic ring conformer: 72.92081113197357 kcal/mol)

>  <smiles>  (28) 
CC(=O)c1ccc(N2CCN(C(=O)CCc3ccccc3)CC2)c(NS(=O)(=O)Cc2ccccc2)c1

>  <score_type>  (28) 
oracle

>  <origin>  (28) 
adg

>  <m_score__min__energy>  (28) 
-12.17

>  <m_primary>  (28) 
energy

$$$$
28:0
     RDKit          3D

 39 41  0  0  0  0  0  0  0  0999 V2000
   55.4420   25.6480   46.3710 O   0  0  0  0  0  0  0  0  0  0  0  0
   56.2920   26.4720   45.9470 C   0  0  0  0  0  0  0  0  0  0  0  0
   55.8900   27.8030   45.6200 N   0  0  0  0  0  0  0  0  0  0  0  0
   56.8030   28.8260   45.2100 C   0  0  0  0  0  0  0  0  0  0  0  0
   56.5500   29.5350   44.0200 C   0  0  0  0  0  0  0  0  0  0  0  0
   57.4070   30.5740   43.6030 C   0  0  0  0  0  0  0  0  0  0  0  0
   58.5410   30.9080   44.3600 C   0  0  0  0  0  0  0  0  0  0  0  0
   58.7940   30.1780   45.5190 C   0  0  0  0  0  0  0  0  0  0  0  0
   57.9620   29.1560   45.9370 C   0  0  0  0  0  0  0  0  0  0  0  0
   58.5910   28.5550   47.1200 C   0  0  0  0  0  0  0  0  0  0  0  0
   58.1700   27.5530   47.7550 O   0  0  0  0  0  0  0  0  0  0  0  0
   59.8110   29.2320   47.4310 N   0  0  0  0  0  0  0  0  0  0  0  0
   60.5200   29.1850   48.7050 C   0  0  0  0  0  0  0  0  0  0  0  0
   60.9590   30.5320   49.0720 N   0  0  0  0  0  0  0  0  0  0  0  0
   59.5900   31.5330   49.4700 S   0  0  0  0  0  0  0  0  0  0  0  0
   59.8310   32.2650   50.7630 O   0  0  0  0  0  0  0  0  0  0  0  0
   58.3870   30.6440   49.6210 O   0  0  0  0  0  0  0  0  0  0  0  0
   59.2830   32.7030   48.1750 C   0  0  0  0  0  0  0  0  0  0  0  0
   58.0100   32.7340   47.5800 C   0  0  0  0  0  0  0  0  0  0  0  0
   57.7020   33.6850   46.6050 C   0  0  0  0  0  0  0  0  0  0  0  0
   58.6560   34.6240   46.2190 C   0  0  0  0  0  0  0  0  0  0  0  0
   59.9240   34.6100   46.7990 C   0  0  0  0  0  0  0  0  0  0  0  0
   60.2600   33.6490   47.7700 C   0  0  0  0  0  0  0  0  0  0  0  0
   61.5850   33.6560   48.3270 N   0  0  0  0  0  0  0  0  0  0  0  0
   61.9460   34.5970   49.0640 O   0  0  0  0  0  0  0  0  0  0  0  0
   62.5320   32.7650   47.8800 O   0  0  0  0  0  0  0  0  0  0  0  0
   59.9160   30.2590   46.4450 C   0  0  0  0  0  0  0  0  0  0  0  0
   60.8450   31.1070   46.4000 O   0  0  0  0  0  0  0  0  0  0  0  0
   57.3426   26.1685   45.8282 H   0  0  0  0  0  0  0  0  0  0  0  0
   55.6733   29.2752   43.4085 H   0  0  0  0  0  0  0  0  0  0  0  0
   57.1855   31.1267   42.6781 H   0  0  0  0  0  0  0  0  0  0  0  0
   59.2105   31.7227   44.0469 H   0  0  0  0  0  0  0  0  0  0  0  0
   59.8485   28.7939   49.4835 H   0  0  0  0  0  0  0  0  0  0  0  0
   61.3970   28.5276   48.6112 H   0  0  0  0  0  0  0  0  0  0  0  0
   61.4210   30.9570   48.2350 H   0  0  0  0  0  0  0  0  0  0  0  0
   57.2484   32.0015   47.8856 H   0  0  0  0  0  0  0  0  0  0  0  0
   56.7047   33.6927   46.1410 H   0  0  0  0  0  0  0  0  0  0  0  0
   58.4088   35.3770   45.4562 H   0  0  0  0  0  0  0  0  0  0  0  0
   60.6699   35.3587   46.4939 H   0  0  0  0  0  0  0  0  0  0  0  0
  1  2  2  0
  2  3  1  0
  3  4  1  0
  4  5  2  0
  5  6  1  0
  6  7  2  0
  7  8  1  0
  8  9  2  0
  9 10  1  0
 10 11  2  0
 10 12  1  0
 12 13  1  0
 13 14  1  0
 14 15  1  0
 15 16  2  0
 15 17  2  0
 15 18  1  0
 18 19  2  0
 19 20  1  0
 20 21  2  0
 21 22  1  0
 22 23  2  0
 23 24  1  0
 24 25  2  0
 24 26  1  0
 12 27  1  0
 27 28  2  0
  9  4  1  0
 23 18  1  0
 27  8  1  0
  2 29  1  0
  5 30  1  0
  6 31  1  0
  7 32  1  0
 13 33  1  0
 13 34  1  0
 14 35  1  0
 19 36  1  0
 20 37  1  0
 21 38  1  0
 22 39  1  0
M  CHG  3   3  -1  24   1  26  -1
M  END
>  <UniqueID>  (29) 
25

>  <SMILES>  (29) 
O=C[N-]c1cccc2c1C(=O)N(CNS(=O)(=O)c1ccccc1[N+](=O)[O-])C2=O

>  <Energy>  (29) 
83.2750076811442

>  <Genealogy>  (29) 
O=C[N-]c1cccc2c1C(=O)N(CNS(=O)(=O)c1ccccc1[N+](=O)[O-])C2=O (protonated)
O=C[N-]c1cccc2c1C(=O)N(CNS(=O)(=O)c1ccccc1[N+](=O)[O-])C2=O (3D coordinates assigned)
O=C[N-]c1cccc2c1C(=O)N(CNS(=O)(=O)c1ccccc1[N+](=O)[O-])C2=O (nonaromatic ring conformer: 83.2750076811442 kcal/mol)

>  <smiles>  (29) 
O=CNc1cccc2c1C(=O)N(CNS(=O)(=O)c1ccccc1[N+](=O)[O-])C2=O

>  <score_type>  (29) 
oracle

>  <origin>  (29) 
adg

>  <m_score__min__energy>  (29) 
-11.300000000000001

>  <m_primary>  (29) 
energy

$$$$
29:0
     RDKit          3D

 47 50  0  0  0  0  0  0  0  0999 V2000
   59.9815   28.3662   47.8993 H   0  0  0  0  0  0  0  0  0  0  0  0
   59.4040   27.8870   47.0950 C   0  0  0  0  0  0  0  0  0  0  0  0
   59.3257   26.7906   47.0522 H   0  0  0  0  0  0  0  0  0  0  0  0
   58.7950   28.6400   46.1660 C   0  0  0  0  0  0  0  0  0  0  0  0
   58.0310   28.1760   45.0910 C   0  0  0  0  0  0  0  0  0  0  0  0
   57.7410   26.8950   44.7880 C   0  0  0  0  0  0  0  0  0  0  0  0
   57.9121   26.5564   43.7555 H   0  0  0  0  0  0  0  0  0  0  0  0
   57.2080   25.9200   45.7580 C   0  0  0  0  0  0  0  0  0  0  0  0
   55.9290   25.8420   46.2740 C   0  0  0  0  0  0  0  0  0  0  0  0
   54.8820   26.7130   45.9980 O   0  0  0  0  0  0  0  0  0  0  0  0
   55.8030   24.7550   47.0600 N   0  0  0  0  0  0  0  0  0  0  0  0
   57.0240   24.1840   46.9800 C   0  0  0  0  0  0  0  0  0  0  0  0
   57.3210   23.1190   47.5830 O   0  0  0  0  0  0  0  0  0  0  0  0
   57.8920   24.8490   46.1930 N   0  0  0  0  0  0  0  0  0  0  0  0
   58.8780   24.5880   45.9690 H   0  0  0  0  0  0  0  0  0  0  0  0
   57.5690   29.3040   44.4250 C   0  0  0  0  0  0  0  0  0  0  0  0
   56.9218   29.3228   43.5358 H   0  0  0  0  0  0  0  0  0  0  0  0
   58.0800   30.3970   45.0960 C   0  0  0  0  0  0  0  0  0  0  0  0
   57.8110   31.8230   44.7250 C   0  0  0  0  0  0  0  0  0  0  0  0
   57.6975   32.4245   45.6390 H   0  0  0  0  0  0  0  0  0  0  0  0
   58.6515   32.2124   44.1318 H   0  0  0  0  0  0  0  0  0  0  0  0
   56.8864   31.8794   44.1318 H   0  0  0  0  0  0  0  0  0  0  0  0
   58.8180   29.9970   46.1550 N   0  0  0  0  0  0  0  0  0  0  0  0
   59.5020   30.8640   47.0770 C   0  0  0  0  0  0  0  0  0  0  0  0
   60.7270   31.4430   46.7260 C   0  0  0  0  0  0  0  0  0  0  0  0
   61.1663   31.2390   45.7384 H   0  0  0  0  0  0  0  0  0  0  0  0
   61.3940   32.2790   47.6250 C   0  0  0  0  0  0  0  0  0  0  0  0
   62.3542   32.7339   47.3400 H   0  0  0  0  0  0  0  0  0  0  0  0
   60.8460   32.5410   48.8880 C   0  0  0  0  0  0  0  0  0  0  0  0
   61.5360   33.4480   49.7710 C   0  0  0  0  0  0  0  0  0  0  0  0
   62.0870   34.1760   50.4820 N   0  0  0  0  0  0  0  0  0  0  0  0
   59.6170   31.9560   49.2540 C   0  0  0  0  0  0  0  0  0  0  0  0
   59.0340   32.1980   50.5450 N   0  0  0  0  0  0  0  0  0  0  0  0
   58.2520   31.2060   51.2610 C   0  0  0  0  0  0  0  0  0  0  0  0
   57.5291   30.7254   50.5854 H   0  0  0  0  0  0  0  0  0  0  0  0
   58.8853   30.4067   51.6733 H   0  0  0  0  0  0  0  0  0  0  0  0
   57.5260   31.9750   52.3580 C   0  0  0  0  0  0  0  0  0  0  0  0
   56.4730   32.1334   52.0821 H   0  0  0  0  0  0  0  0  0  0  0  0
   57.5323   31.4244   53.3103 H   0  0  0  0  0  0  0  0  0  0  0  0
   58.2510   33.3130   52.4780 C   0  0  0  0  0  0  0  0  0  0  0  0
   57.5300   34.1254   52.6518 H   0  0  0  0  0  0  0  0  0  0  0  0
   58.9545   33.3186   53.3236 H   0  0  0  0  0  0  0  0  0  0  0  0
   58.9680   33.5150   51.1500 C   0  0  0  0  0  0  0  0  0  0  0  0
   58.4019   34.2058   50.5079 H   0  0  0  0  0  0  0  0  0  0  0  0
   59.9675   33.9535   51.2867 H   0  0  0  0  0  0  0  0  0  0  0  0
   58.9520   31.1220   48.3410 C   0  0  0  0  0  0  0  0  0  0  0  0
   57.9903   30.6666   48.6198 H   0  0  0  0  0  0  0  0  0  0  0  0
  1  2  1  0
  2  3  1  0
  2  4  2  0
  4  5  1  0
  5  6  2  0
  6  7  1  0
  6  8  1  0
  8  9  2  0
  9 10  1  0
  9 11  1  0
 11 12  1  0
 12 13  2  0
 12 14  1  0
 14 15  1  0
  5 16  1  0
 16 17  1  0
 16 18  2  0
 18 19  1  0
 19 20  1  0
 19 21  1  0
 19 22  1  0
 18 23  1  0
 23 24  1  0
 24 25  2  0
 25 26  1  0
 25 27  1  0
 27 28  1  0
 27 29  2  0
 29 30  1  0
 30 31  3  0
 29 32  1  0
 32 33  1  0
 33 34  1  0
 34 35  1  0
 34 36  1  0
 34 37  1  0
 37 38  1  0
 37 39  1  0
 37 40  1  0
 40 41  1  0
 40 42  1  0
 40 43  1  0
 43 44  1  0
 43 45  1  0
 32 46  2  0
 46 47  1  0
 23  4  1  0
 46 24  1  0
 14  8  1  0
 43 33  1  0
M  CHG  2  10  -1  11  -1
M  END
>  <UniqueID>  (30) 
26

>  <SMILES>  (30) 
C=c1/c(=C/c2[nH]c(=O)[n-]c2[O-])cc(C)n1-c1ccc(C#N)c(N2CCCC2)c1

>  <Energy>  (30) 
127.14651025604323

>  <Genealogy>  (30) 
C=c1c(=Cc2[nH]c(=O)[n-]c2[O-])cc(C)n1-c1ccc(C#N)c(N2CCCC2)c1 (protonated)
C=c1/c(=C/c2[nH]c(=O)[n-]c2[O-])cc(C)n1-c1ccc(C#N)c(N2CCCC2)c1 (cis-trans isomerization)
C=c1/c(=C/c2[nH]c(=O)[n-]c2[O-])cc(C)n1-c1ccc(C#N)c(N2CCCC2)c1 (3D coordinates assigned)
C=c1/c(=C/c2[nH]c(=O)[n-]c2[O-])cc(C)n1-c1ccc(C#N)c(N2CCCC2)c1 (nonaromatic ring conformer: 127.14651025604323 kcal/mol)

>  <smiles>  (30) 
C=c1c(=Cc2[nH]c(=O)[nH]c2O)cc(C)n1-c1ccc(C#N)c(N2CCCC2)c1

>  <score_type>  (30) 
oracle

>  <origin>  (30) 
adg

>  <m_score__min__energy>  (30) 
-14.35

>  <m_primary>  (30) 
energy

$$$$
30:0
     RDKit          3D

 64 67  0  0  0  0  0  0  0  0999 V2000
   57.2690   21.0920   44.9120 C   0  0  0  0  0  0  0  0  0  0  0  0
   56.5810   21.0820   43.5520 C   0  0  0  0  0  0  0  0  0  0  0  0
   55.7250   22.2570   43.4040 N   0  0  0  0  0  0  0  0  0  0  0  0
   55.1140   22.9730   44.4860 C   0  0  0  0  0  0  0  0  0  0  0  0
   54.1500   22.4420   45.0990 O   0  0  0  0  0  0  0  0  0  0  0  0
   55.5810   24.3150   44.8980 C   0  0  0  0  0  0  0  0  0  0  0  0
   54.7240   25.1590   45.6210 C   0  0  0  0  0  0  0  0  0  0  0  0
   55.1440   26.3860   46.0220 N   0  0  0  0  0  0  0  0  0  0  0  0
   56.3990   26.8420   45.7550 C   0  0  0  0  0  0  0  0  0  0  0  0
   56.8040   28.1150   46.1710 O   0  0  0  0  0  0  0  0  0  0  0  0
   57.7620   28.9110   45.4710 C   0  0  0  0  0  0  0  0  0  0  0  0
   58.9880   29.1750   46.3730 C   0  0  0  0  0  0  0  0  0  0  0  0
   59.9690   30.1500   45.7080 C   0  0  0  0  0  0  0  0  0  0  0  0
   59.2550   31.3480   45.2560 N   0  0  0  0  0  0  0  0  0  0  0  0
   59.4090   32.5950   45.9460 C   0  0  0  0  0  0  0  0  0  0  0  0
   59.7700   32.6170   47.2930 C   0  0  0  0  0  0  0  0  0  0  0  0
   59.7660   33.8430   47.9730 C   0  0  0  0  0  0  0  0  0  0  0  0
   60.0460   33.9260   49.3460 O   0  0  0  0  0  0  0  0  0  0  0  0
   59.2720   33.3410   50.3610 C   0  0  0  0  0  0  0  0  0  0  0  0
   58.5690   32.1630   50.0820 C   0  0  0  0  0  0  0  0  0  0  0  0
   57.7720   31.5650   51.0630 C   0  0  0  0  0  0  0  0  0  0  0  0
   57.6550   32.1430   52.3360 C   0  0  0  0  0  0  0  0  0  0  0  0
   56.8020   31.5310   53.3170 N   0  0  0  0  0  0  0  0  0  0  0  0
   55.6780   30.2660   52.9310 S   0  0  0  0  0  0  0  0  0  0  0  0
   54.7890   29.7750   54.3950 C   0  0  0  0  0  0  0  0  0  0  0  0
   54.6940   30.7810   51.9180 O   0  0  0  0  0  0  0  0  0  0  0  0
   56.4090   29.0890   52.3450 O   0  0  0  0  0  0  0  0  0  0  0  0
   58.3980   33.2990   52.6320 C   0  0  0  0  0  0  0  0  0  0  0  0
   59.2120   33.8820   51.6590 C   0  0  0  0  0  0  0  0  0  0  0  0
   59.5040   34.9840   47.2820 N   0  0  0  0  0  0  0  0  0  0  0  0
   59.1970   34.9500   45.9590 C   0  0  0  0  0  0  0  0  0  0  0  0
   59.1290   33.7610   45.3060 N   0  0  0  0  0  0  0  0  0  0  0  0
   58.1040   31.1580   44.3700 C   0  0  0  0  0  0  0  0  0  0  0  0
   57.0940   30.2310   45.0510 C   0  0  0  0  0  0  0  0  0  0  0  0
   57.2980   26.0300   45.0590 C   0  0  0  0  0  0  0  0  0  0  0  0
   56.8940   24.7560   44.6270 C   0  0  0  0  0  0  0  0  0  0  0  0
   57.7180   24.0010   43.9680 N   0  0  0  0  0  0  0  0  0  0  0  0
   56.5092   21.0810   45.7074 H   0  0  0  0  0  0  0  0  0  0  0  0
   57.9102   20.2031   45.0051 H   0  0  0  0  0  0  0  0  0  0  0  0
   57.8841   21.9992   45.0051 H   0  0  0  0  0  0  0  0  0  0  0  0
   57.3443   21.0879   42.7599 H   0  0  0  0  0  0  0  0  0  0  0  0
   55.9606   20.1771   43.4733 H   0  0  0  0  0  0  0  0  0  0  0  0
   53.7049   24.8240   45.8644 H   0  0  0  0  0  0  0  0  0  0  0  0
   58.1113   28.3812   44.5725 H   0  0  0  0  0  0  0  0  0  0  0  0
   58.6459   29.6049   47.3260 H   0  0  0  0  0  0  0  0  0  0  0  0
   59.5075   28.2202   46.5414 H   0  0  0  0  0  0  0  0  0  0  0  0
   60.7434   30.4394   46.4336 H   0  0  0  0  0  0  0  0  0  0  0  0
   60.4353   29.6586   44.8414 H   0  0  0  0  0  0  0  0  0  0  0  0
   60.0527   31.6894   47.8123 H   0  0  0  0  0  0  0  0  0  0  0  0
   58.6441   31.7049   49.0847 H   0  0  0  0  0  0  0  0  0  0  0  0
   57.2325   30.6340   50.8348 H   0  0  0  0  0  0  0  0  0  0  0  0
   56.9640   31.7330   54.3290 H   0  0  0  0  0  0  0  0  0  0  0  0
   55.3520   30.0859   55.2874 H   0  0  0  0  0  0  0  0  0  0  0  0
   53.7989   30.2542   54.4007 H   0  0  0  0  0  0  0  0  0  0  0  0
   54.6673   28.6818   54.4007 H   0  0  0  0  0  0  0  0  0  0  0  0
   58.3378   33.7464   53.6351 H   0  0  0  0  0  0  0  0  0  0  0  0
   59.8107   34.7704   51.9086 H   0  0  0  0  0  0  0  0  0  0  0  0
   59.0032   35.8867   45.4159 H   0  0  0  0  0  0  0  0  0  0  0  0
   57.6319   32.1304   44.1660 H   0  0  0  0  0  0  0  0  0  0  0  0
   58.4366   30.7103   43.4219 H   0  0  0  0  0  0  0  0  0  0  0  0
   56.6903   30.7310   45.9437 H   0  0  0  0  0  0  0  0  0  0  0  0
   56.2855   30.0066   44.3396 H   0  0  0  0  0  0  0  0  0  0  0  0
   58.3174   26.3867   44.8503 H   0  0  0  0  0  0  0  0  0  0  0  0
   57.3960   23.2120   43.3620 H   0  0  0  0  0  0  0  0  0  0  0  0
  1  2  1  0
  2  3  1  0
  3  4  1  0
  4  5  2  0
  4  6  1  0
  6  7  2  0
  7  8  1  0
  8  9  1  0
  9 10  1  0
 10 11  1  0
 11 12  1  0
 12 13  1  0
 13 14  1  0
 14 15  1  0
 15 16  2  0
 16 17  1  0
 17 18  1  0
 18 19  1  0
 19 20  2  0
 20 21  1  0
 21 22  2  0
 22 23  1  0
 23 24  1  0
 24 25  1  0
 24 26  2  0
 24 27  2  0
 22 28  1  0
 28 29  2  0
 17 30  2  0
 30 31  1  0
 31 32  2  0
 14 33  1  0
 33 34  1  0
  9 35  2  0
 35 36  1  0
 36 37  2  3
 36  6  1  0
 34 11  1  0
 32 15  1  0
 29 19  1  0
  1 38  1  0
  1 39  1  0
  1 40  1  0
  2 41  1  0
  2 42  1  0
  7 43  1  0
 11 44  1  0
 12 45  1  0
 12 46  1  0
 13 47  1  0
 13 48  1  0
 16 49  1  0
 20 50  1  0
 21 51  1  0
 23 52  1  0
 25 53  1  0
 25 54  1  0
 25 55  1  0
 28 56  1  0
 29 57  1  0
 31 58  1  0
 33 59  1  0
 33 60  1  0
 34 61  1  0
 34 62  1  0
 35 63  1  0
 37 64  1  0
M  CHG  2   3  -1   8  -1
M  END
>  <UniqueID>  (31) 
27

>  <SMILES>  (31) 
CC[N-]C(=O)c1c[n-]c(OC2CCN(c3cc(Oc4ccc(NS(C)(=O)=O)cc4)ncn3)CC2)cc1=N

>  <Energy>  (31) 
76.94665259686136

>  <Genealogy>  (31) 
CC[N-]C(=O)c1c[n-]c(OC2CCN(c3cc(Oc4ccc(NS(C)(=O)=O)cc4)ncn3)CC2)cc1=N (protonated)
CC[N-]C(=O)c1c[n-]c(OC2CCN(c3cc(Oc4ccc(NS(C)(=O)=O)cc4)ncn3)CC2)cc1=N (3D coordinates assigned)
CC[N-]C(=O)c1c[n-]c(OC2CCN(c3cc(Oc4ccc(NS(C)(=O)=O)cc4)ncn3)CC2)cc1=N (nonaromatic ring conformer: 76.94665259686136 kcal/mol)

>  <smiles>  (31) 
CCNC(=O)c1c[nH]c(OC2CCN(c3cc(Oc4ccc(NS(C)(=O)=O)cc4)ncn3)CC2)cc1=N

>  <score_type>  (31) 
oracle

>  <origin>  (31) 
adg

>  <m_score__min__energy>  (31) 
-13.44

>  <m_primary>  (31) 
energy

$$$$
31:0
     RDKit          3D

 56 59  0  0  0  0  0  0  0  0999 V2000
   62.7654   29.4653   49.5278 H   0  0  0  0  0  0  0  0  0  0  0  0
   61.7900   29.9660   49.4390 C   0  0  0  0  0  0  0  0  0  0  0  0
   60.7380   29.3100   48.8980 N   0  0  0  0  0  0  0  0  0  0  0  0
   59.5170   29.8830   48.7680 C   0  0  0  0  0  0  0  0  0  0  0  0
   58.5710   29.1730   48.2160 N   0  0  0  0  0  0  0  0  0  0  0  0
   58.6610   28.2690   47.0720 C   0  0  0  0  0  0  0  0  0  0  0  0
   58.2214   27.2959   47.3362 H   0  0  0  0  0  0  0  0  0  0  0  0
   59.7159   28.1270   46.7945 H   0  0  0  0  0  0  0  0  0  0  0  0
   57.9140   28.8590   45.9220 C   0  0  0  0  0  0  0  0  0  0  0  0
   57.1250   29.9480   46.0130 N   0  0  0  0  0  0  0  0  0  0  0  0
   56.6000   30.1300   44.8360 O   0  0  0  0  0  0  0  0  0  0  0  0
   56.9980   29.2050   43.9940 C   0  0  0  0  0  0  0  0  0  0  0  0
   56.5990   29.1350   42.5590 C   0  0  0  0  0  0  0  0  0  0  0  0
   55.5178   28.9453   42.4879 H   0  0  0  0  0  0  0  0  0  0  0  0
   56.8372   30.0887   42.0652 H   0  0  0  0  0  0  0  0  0  0  0  0
   57.1476   28.3194   42.0652 H   0  0  0  0  0  0  0  0  0  0  0  0
   57.8550   28.3440   44.6430 C   0  0  0  0  0  0  0  0  0  0  0  0
   58.3687   27.4591   44.2392 H   0  0  0  0  0  0  0  0  0  0  0  0
   59.3450   31.2160   49.2270 C   0  0  0  0  0  0  0  0  0  0  0  0
   58.2260   31.7910   49.1200 O   0  0  0  0  0  0  0  0  0  0  0  0
   60.4040   31.8900   49.7920 N   0  0  0  0  0  0  0  0  0  0  0  0
   60.2080   33.2840   50.2480 C   0  0  0  0  0  0  0  0  0  0  0  0
   59.1430   33.4417   50.4735 H   0  0  0  0  0  0  0  0  0  0  0  0
   60.8220   33.4471   51.1460 H   0  0  0  0  0  0  0  0  0  0  0  0
   60.6380   34.2680   49.1890 C   0  0  0  0  0  0  0  0  0  0  0  0
   61.7990   34.7540   49.2370 O   0  0  0  0  0  0  0  0  0  0  0  0
   59.7500   34.7330   48.1610 N   0  0  0  0  0  0  0  0  0  0  0  0
   59.3350   34.0530   46.9290 C   0  0  2  0  0  0  0  0  0  0  0  0
   60.1540   32.8430   46.7020 C   0  0  0  0  0  0  0  0  0  0  0  0
   60.7930   31.8950   46.5280 N   0  0  0  0  0  0  0  0  0  0  0  0
   59.3890   34.9940   45.7200 C   0  0  0  0  0  0  0  0  0  0  0  0
   59.2226   36.0335   46.0390 H   0  0  0  0  0  0  0  0  0  0  0  0
   60.3710   34.9533   45.2260 H   0  0  0  0  0  0  0  0  0  0  0  0
   58.2770   34.5470   44.7780 C   0  0  0  0  0  0  0  0  0  0  0  0
   57.7871   35.4230   44.3278 H   0  0  0  0  0  0  0  0  0  0  0  0
   58.6768   33.9296   43.9601 H   0  0  0  0  0  0  0  0  0  0  0  0
   57.2700   33.7550   45.6250 C   0  0  1  0  0  0  0  0  0  0  0  0
   56.2946   34.2635   45.6279 H   0  0  0  0  0  0  0  0  0  0  0  0
   57.0290   32.4170   45.0780 N   0  0  0  0  0  0  0  0  0  0  0  0
   56.2590   31.9520   45.6140 H   0  0  0  0  0  0  0  0  0  0  0  0
   57.8940   31.8440   45.2130 H   0  0  0  0  0  0  0  0  0  0  0  0
   57.8560   33.6660   47.0380 C   0  0  0  0  0  0  0  0  0  0  0  0
   57.3312   34.3609   47.7101 H   0  0  0  0  0  0  0  0  0  0  0  0
   57.7425   32.6521   47.4493 H   0  0  0  0  0  0  0  0  0  0  0  0
   61.6350   31.2790   49.8840 C   0  0  0  0  0  0  0  0  0  0  0  0
   62.8200   31.9700   50.4290 C   0  0  0  0  0  0  0  0  0  0  0  0
   62.9000   32.2510   51.8010 C   0  0  0  0  0  0  0  0  0  0  0  0
   62.0754   31.9644   52.4703 H   0  0  0  0  0  0  0  0  0  0  0  0
   64.0290   32.8960   52.3180 C   0  0  0  0  0  0  0  0  0  0  0  0
   64.0931   33.1121   53.3947 H   0  0  0  0  0  0  0  0  0  0  0  0
   65.0750   33.2660   51.4690 C   0  0  0  0  0  0  0  0  0  0  0  0
   65.9622   33.7716   51.8780 H   0  0  0  0  0  0  0  0  0  0  0  0
   64.9950   32.9940   50.0990 C   0  0  0  0  0  0  0  0  0  0  0  0
   65.8183   33.2877   49.4313 H   0  0  0  0  0  0  0  0  0  0  0  0
   63.8690   32.3490   49.5780 C   0  0  0  0  0  0  0  0  0  0  0  0
   63.8057   32.1386   48.5002 H   0  0  0  0  0  0  0  0  0  0  0  0
  1  2  1  0
  2  3  1  0
  3  4  1  0
  4  5  2  0
  5  6  1  0
  6  7  1  0
  6  8  1  0
  6  9  1  0
  9 10  2  0
 10 11  1  0
 11 12  1  0
 12 13  1  0
 13 14  1  0
 13 15  1  0
 13 16  1  0
 12 17  2  0
 17 18  1  0
  4 19  1  0
 19 20  2  0
 19 21  1  0
 21 22  1  0
 22 23  1  0
 22 24  1  0
 22 25  1  0
 25 26  2  0
 25 27  1  0
 27 28  1  0
 28 29  1  6
 29 30  3  0
 28 31  1  0
 31 32  1  0
 31 33  1  0
 31 34  1  0
 34 35  1  0
 34 36  1  0
 34 37  1  0
 37 38  1  1
 37 39  1  0
 39 40  1  0
 39 41  1  0
 37 42  1  0
 42 43  1  0
 42 44  1  0
 21 45  1  0
 45 46  1  0
 46 47  2  0
 47 48  1  0
 47 49  1  0
 49 50  1  0
 49 51  2  0
 51 52  1  0
 51 53  1  0
 53 54  1  0
 53 55  2  0
 55 56  1  0
 45  2  2  0
 55 46  1  0
 17  9  1  0
 42 28  1  0
M  CHG  2   3  -1  27  -1
M  END
>  <UniqueID>  (32) 
28

>  <SMILES>  (32) 
Cc1cc(C/N=c2/[n-]cc(-c3ccccc3)n(CC(=O)[N-][C@]3(C#N)CC[C@@H](N)C3)c2=O)no1

>  <Energy>  (32) 
106.59273870878854

>  <Genealogy>  (32) 
Cc1cc(CN=c2[n-]cc(-c3ccccc3)n(CC(=O)[N-]C3(C#N)CCC(N)C3)c2=O)no1 (protonated)
Cc1cc(CN=c2[n-]cc(-c3ccccc3)n(CC(=O)[N-][C@]3(C#N)CC[C@@H](N)C3)c2=O)no1 (chirality)
Cc1cc(C/N=c2/[n-]cc(-c3ccccc3)n(CC(=O)[N-][C@]3(C#N)CC[C@@H](N)C3)c2=O)no1 (cis-trans isomerization)
Cc1cc(C/N=c2/[n-]cc(-c3ccccc3)n(CC(=O)[N-][C@]3(C#N)CC[C@@H](N)C3)c2=O)no1 (3D coordinates assigned)
Cc1cc(C/N=c2/[n-]cc(-c3ccccc3)n(CC(=O)[N-][C@]3(C#N)CC[C@@H](N)C3)c2=O)no1 (nonaromatic ring conformer: 106.59273870878854 kcal/mol)

>  <smiles>  (32) 
Cc1cc(CN=c2[nH]cc(-c3ccccc3)n(CC(=O)NC3(C#N)CCC(N)C3)c2=O)no1

>  <score_type>  (32) 
oracle

>  <origin>  (32) 
adg

>  <m_score__min__energy>  (32) 
-11.720000000000001

>  <m_primary>  (32) 
energy

$$$$
32:0
     RDKit          3D

 32 34  0  0  0  0  0  0  0  0999 V2000
   57.3650   29.1940   46.6010 H   0  0  0  0  0  0  0  0  0  0  0  0
   58.1530   29.6210   47.0740 O   0  0  0  0  0  0  0  0  0  0  0  0
   58.5330   30.9250   46.7790 C   0  0  0  0  0  0  0  0  0  0  0  0
   59.5890   31.5430   47.3600 N   0  0  0  0  0  0  0  0  0  0  0  0
   59.6000   32.7720   46.8010 C   0  0  0  0  0  0  0  0  0  0  0  0
   60.5090   33.7930   47.0740 C   0  0  0  0  0  0  0  0  0  0  0  0
   61.3178   33.6500   47.8057 H   0  0  0  0  0  0  0  0  0  0  0  0
   60.3620   35.0110   46.3870 C   0  0  0  0  0  0  0  0  0  0  0  0
   61.0621   35.8365   46.5831 H   0  0  0  0  0  0  0  0  0  0  0  0
   59.3230   35.1820   45.4480 C   0  0  0  0  0  0  0  0  0  0  0  0
   59.2198   36.1391   44.9158 H   0  0  0  0  0  0  0  0  0  0  0  0
   58.4190   34.1380   45.1880 C   0  0  0  0  0  0  0  0  0  0  0  0
   57.6068   34.2601   44.4562 H   0  0  0  0  0  0  0  0  0  0  0  0
   58.5840   32.9400   45.8880 C   0  0  0  0  0  0  0  0  0  0  0  0
   57.8880   31.7460   45.8710 C   0  0  0  0  0  0  0  0  0  0  0  0
   56.7330   31.3900   45.1080 N   0  0  0  0  0  0  0  0  0  0  0  0
   56.4010   30.1760   44.9230 N   0  0  0  0  0  0  0  0  0  0  0  0
   56.6980   29.4780   43.7080 C   0  0  0  0  0  0  0  0  0  0  0  0
   56.3340   30.1430   42.2510 S   0  0  0  0  0  0  0  0  0  0  0  0
   57.2150   28.1400   43.7560 N   0  0  0  0  0  0  0  0  0  0  0  0
   57.1260   27.5460   42.9020 H   0  0  0  0  0  0  0  0  0  0  0  0
   57.7540   27.5440   44.9500 C   0  0  0  0  0  0  0  0  0  0  0  0
   59.1430   27.4400   45.1400 C   0  0  0  0  0  0  0  0  0  0  0  0
   59.8302   27.8235   44.3715 H   0  0  0  0  0  0  0  0  0  0  0  0
   59.6560   26.8520   46.3000 C   0  0  0  0  0  0  0  0  0  0  0  0
   60.7440   26.7879   46.4488 H   0  0  0  0  0  0  0  0  0  0  0  0
   58.7880   26.3460   47.2700 C   0  0  0  0  0  0  0  0  0  0  0  0
   59.1926   25.8882   48.1847 H   0  0  0  0  0  0  0  0  0  0  0  0
   57.4050   26.4210   47.0790 C   0  0  0  0  0  0  0  0  0  0  0  0
   56.7228   26.0132   47.8395 H   0  0  0  0  0  0  0  0  0  0  0  0
   56.8870   27.0140   45.9220 C   0  0  0  0  0  0  0  0  0  0  0  0
   55.5080   27.0830   45.7500 O   0  0  0  0  0  0  0  0  0  0  0  0
  1  2  1  0
  2  3  1  0
  3  4  1  0
  4  5  1  0
  5  6  2  0
  6  7  1  0
  6  8  1  0
  8  9  1  0
  8 10  2  0
 10 11  1  0
 10 12  1  0
 12 13  1  0
 12 14  2  0
 14 15  1  0
 15 16  1  0
 16 17  2  0
 17 18  1  0
 18 19  2  0
 18 20  1  0
 20 21  1  0
 20 22  1  0
 22 23  2  0
 23 24  1  0
 23 25  1  0
 25 26  1  0
 25 27  2  0
 27 28  1  0
 27 29  1  0
 29 30  1  0
 29 31  2  0
 31 32  1  0
 15  3  2  0
 31 22  1  0
 14  5  1  0
M  CHG  2   4  -1  32  -1
M  END
>  <UniqueID>  (33) 
29

>  <SMILES>  (33) 
[O-]c1ccccc1NC(=S)/N=N/c1c(O)[n-]c2ccccc12

>  <Energy>  (33) 
70.87523956649001

>  <Genealogy>  (33) 
[O-]c1ccccc1NC(=S)N=Nc1c(O)[n-]c2ccccc12 (protonated)
[O-]c1ccccc1NC(=S)/N=N/c1c(O)[n-]c2ccccc12 (cis-trans isomerization)
[O-]c1ccccc1NC(=S)/N=N/c1c(O)[n-]c2ccccc12 (3D coordinates assigned)
[O-]c1ccccc1NC(=S)/N=N/c1c(O)[n-]c2ccccc12 (optimized conformer: 70.87523956649001 kcal/mol)

>  <smiles>  (33) 
Oc1ccccc1NC(=S)N=Nc1c(O)[nH]c2ccccc12

>  <score_type>  (33) 
oracle

>  <origin>  (33) 
adg

>  <m_score__min__energy>  (33) 
-13.19

>  <m_primary>  (33) 
energy

$$$$
33:0
     RDKit          3D

 53 56  0  0  0  0  0  0  0  0999 V2000
   65.1110   33.4680   47.9120 H   0  0  0  0  0  0  0  0  0  0  0  0
   64.1830   33.7080   47.6540 O   0  0  0  0  0  0  0  0  0  0  0  0
   63.7180   32.6560   46.8560 C   0  0  0  0  0  0  0  0  0  0  0  0
   64.5738   32.1111   46.4310 H   0  0  0  0  0  0  0  0  0  0  0  0
   63.1000   33.0580   46.0397 H   0  0  0  0  0  0  0  0  0  0  0  0
   62.8960   31.7220   47.6960 C   0  0  0  0  0  0  0  0  0  0  0  0
   63.1480   31.5980   49.0720 C   0  0  0  0  0  0  0  0  0  0  0  0
   63.9650   32.1718   49.5338 H   0  0  0  0  0  0  0  0  0  0  0  0
   62.3640   30.7480   49.8560 C   0  0  0  0  0  0  0  0  0  0  0  0
   62.5701   30.6486   50.9319 H   0  0  0  0  0  0  0  0  0  0  0  0
   61.3190   30.0240   49.2770 C   0  0  0  0  0  0  0  0  0  0  0  0
   60.7039   29.3561   49.8979 H   0  0  0  0  0  0  0  0  0  0  0  0
   61.0530   30.1470   47.9070 C   0  0  0  0  0  0  0  0  0  0  0  0
   59.7780   29.1830   47.1650 S   0  0  0  0  0  0  0  0  0  0  0  0
   60.1360   27.7230   47.1800 O   0  0  0  0  0  0  0  0  0  0  0  0
   58.5160   29.3780   47.9570 O   0  0  0  0  0  0  0  0  0  0  0  0
   59.4860   29.6820   45.5220 N   0  0  0  0  0  0  0  0  0  0  0  0
   58.3660   29.8140   44.8620 C   0  0  0  0  0  0  0  0  0  0  0  0
   58.1380   28.9400   43.8430 N   0  0  0  0  0  0  0  0  0  0  0  0
   57.0050   28.9650   43.1000 C   0  0  0  0  0  0  0  0  0  0  0  0
   56.8594   28.2409   42.2848 H   0  0  0  0  0  0  0  0  0  0  0  0
   56.0280   29.9150   43.3780 C   0  0  0  0  0  0  0  0  0  0  0  0
   55.0999   29.9478   42.7885 H   0  0  0  0  0  0  0  0  0  0  0  0
   56.2330   30.8000   44.3840 N   0  0  0  0  0  0  0  0  0  0  0  0
   57.3640   30.7870   45.1440 C   0  0  0  0  0  0  0  0  0  0  0  0
   57.5290   31.6750   46.0800 N   0  0  0  0  0  0  0  0  0  0  0  0
   58.4160   32.8050   46.0780 C   0  0  0  0  0  0  0  0  0  0  0  0
   58.2830   33.8560   45.1530 C   0  0  0  0  0  0  0  0  0  0  0  0
   57.5239   33.7956   44.3592 H   0  0  0  0  0  0  0  0  0  0  0  0
   59.1130   34.9770   45.2400 C   0  0  0  0  0  0  0  0  0  0  0  0
   59.0121   35.7916   44.5077 H   0  0  0  0  0  0  0  0  0  0  0  0
   60.0700   35.0670   46.2530 C   0  0  0  0  0  0  0  0  0  0  0  0
   60.7203   35.9520   46.3158 H   0  0  0  0  0  0  0  0  0  0  0  0
   60.2050   34.0300   47.1930 C   0  0  0  0  0  0  0  0  0  0  0  0
   61.1440   34.1210   48.2790 N   0  0  0  0  0  0  0  0  0  0  0  0
   62.1240   34.3820   48.0330 H   0  0  0  0  0  0  0  0  0  0  0  0
   60.7880   33.9380   49.6630 C   0  0  0  0  0  0  0  0  0  0  0  0
   59.5800   33.7790   49.9870 O   0  0  0  0  0  0  0  0  0  0  0  0
   61.8200   33.9420   50.7280 C   0  0  0  0  0  0  0  0  0  0  0  0
   61.5740   33.3730   51.9930 C   0  0  0  0  0  0  0  0  0  0  0  0
   60.5959   32.9173   52.2066 H   0  0  0  0  0  0  0  0  0  0  0  0
   62.5660   33.3840   52.9790 C   0  0  0  0  0  0  0  0  0  0  0  0
   62.3636   32.9418   53.9657 H   0  0  0  0  0  0  0  0  0  0  0  0
   63.8130   33.9550   52.7140 C   0  0  0  0  0  0  0  0  0  0  0  0
   64.5895   33.9675   53.4930 H   0  0  0  0  0  0  0  0  0  0  0  0
   64.0730   34.5100   51.4590 C   0  0  0  0  0  0  0  0  0  0  0  0
   65.0567   34.9549   51.2484 H   0  0  0  0  0  0  0  0  0  0  0  0
   63.0850   34.5010   50.4700 C   0  0  0  0  0  0  0  0  0  0  0  0
   63.2984   34.9346   49.4819 H   0  0  0  0  0  0  0  0  0  0  0  0
   59.3540   32.9190   47.1130 C   0  0  0  0  0  0  0  0  0  0  0  0
   59.4233   32.1263   47.8725 H   0  0  0  0  0  0  0  0  0  0  0  0
   61.8320   31.0070   47.1220 C   0  0  0  0  0  0  0  0  0  0  0  0
   61.6093   31.1228   46.0510 H   0  0  0  0  0  0  0  0  0  0  0  0
  1  2  1  0
  2  3  1  0
  3  4  1  0
  3  5  1  0
  3  6  1  0
  6  7  2  0
  7  8  1  0
  7  9  1  0
  9 10  1  0
  9 11  2  0
 11 12  1  0
 11 13  1  0
 13 14  1  0
 14 15  2  0
 14 16  2  0
 14 17  1  0
 17 18  2  3
 18 19  1  0
 19 20  1  0
 20 21  1  0
 20 22  2  0
 22 23  1  0
 22 24  1  0
 24 25  1  0
 25 26  2  0
 26 27  1  0
 27 28  2  0
 28 29  1  0
 28 30  1  0
 30 31  1  0
 30 32  2  0
 32 33  1  0
 32 34  1  0
 34 35  1  0
 35 36  1  0
 35 37  1  0
 37 38  2  0
 37 39  1  0
 39 40  2  0
 40 41  1  0
 40 42  1  0
 42 43  1  0
 42 44  2  0
 44 45  1  0
 44 46  1  0
 46 47  1  0
 46 48  2  0
 48 49  1  0
 34 50  2  0
 50 51  1  0
 13 52  2  0
 52 53  1  0
 52  6  1  0
 25 18  1  0
 50 27  1  0
 48 39  1  0
M  CHG  2  19  -1  24  -1
M  END
>  <UniqueID>  (34) 
30

>  <SMILES>  (34) 
O=C(Nc1cccc(/N=c2\[n-]cc[n-]c2=NS(=O)(=O)c2cccc(CO)c2)c1)c1ccccc1

>  <Energy>  (34) 
80.38849569866171

>  <Genealogy>  (34) 
O=C(Nc1cccc(N=c2[n-]cc[n-]c2=NS(=O)(=O)c2cccc(CO)c2)c1)c1ccccc1 (protonated)
O=C(Nc1cccc(/N=c2\[n-]cc[n-]c2=NS(=O)(=O)c2cccc(CO)c2)c1)c1ccccc1 (cis-trans isomerization)
O=C(Nc1cccc(/N=c2\[n-]cc[n-]c2=NS(=O)(=O)c2cccc(CO)c2)c1)c1ccccc1 (3D coordinates assigned)
O=C(Nc1cccc(/N=c2\[n-]cc[n-]c2=NS(=O)(=O)c2cccc(CO)c2)c1)c1ccccc1 (optimized conformer: 80.38849569866171 kcal/mol)

>  <smiles>  (34) 
O=C(Nc1cccc(N=c2[nH]cc[nH]c2=NS(=O)(=O)c2cccc(CO)c2)c1)c1ccccc1

>  <score_type>  (34) 
oracle

>  <origin>  (34) 
adg

>  <m_score__min__energy>  (34) 
-13.039999999999999

>  <m_primary>  (34) 
energy

$$$$
34:0
     RDKit          3D

 28 30  0  0  0  0  0  0  0  0999 V2000
   59.0708   28.3519   45.2614 H   0  0  0  0  0  0  0  0  0  0  0  0
   58.1400   28.8970   45.4770 C   0  0  0  0  0  0  0  0  0  0  0  0
   56.8870   28.1290   45.5720 C   0  0  0  0  0  0  0  0  0  0  0  0
   55.8150   28.6840   45.2120 O   0  0  0  0  0  0  0  0  0  0  0  0
   56.8360   26.7580   46.1180 C   0  0  0  0  0  0  0  0  0  0  0  0
   58.1860   25.8790   46.6180 S   0  0  0  0  0  0  0  0  0  0  0  0
   57.2710   24.5310   47.0250 C   0  0  0  0  0  0  0  0  0  0  0  0
   57.7470   23.4660   47.4970 O   0  0  0  0  0  0  0  0  0  0  0  0
   55.9550   24.7070   46.7860 N   0  0  0  0  0  0  0  0  0  0  0  0
   55.7110   25.9430   46.2760 C   0  0  0  0  0  0  0  0  0  0  0  0
   54.4260   26.3370   45.9250 O   0  0  0  0  0  0  0  0  0  0  0  0
   58.2050   30.2290   45.6400 C   0  0  0  0  0  0  0  0  0  0  0  0
   57.4070   31.3990   44.5150 S   0  0  0  0  0  0  0  0  0  0  0  0
   58.3720   32.6750   45.3100 C   0  0  0  0  0  0  0  0  0  0  0  0
   58.4360   34.0000   44.8770 C   0  0  0  0  0  0  0  0  0  0  0  0
   57.8589   34.3274   43.9997 H   0  0  0  0  0  0  0  0  0  0  0  0
   59.2440   34.9080   45.5730 C   0  0  0  0  0  0  0  0  0  0  0  0
   59.2956   35.9577   45.2483 H   0  0  0  0  0  0  0  0  0  0  0  0
   59.9880   34.4810   46.6840 C   0  0  0  0  0  0  0  0  0  0  0  0
   60.6231   35.1972   47.2259 H   0  0  0  0  0  0  0  0  0  0  0  0
   59.9250   33.1450   47.1060 C   0  0  0  0  0  0  0  0  0  0  0  0
   60.5144   32.8047   47.9701 H   0  0  0  0  0  0  0  0  0  0  0  0
   59.0990   32.2480   46.4100 C   0  0  0  0  0  0  0  0  0  0  0  0
   58.9680   30.8530   46.6860 N   0  0  0  0  0  0  0  0  0  0  0  0
   59.6540   30.1480   47.7720 C   0  0  0  0  0  0  0  0  0  0  0  0
   59.2896   30.5225   48.7400 H   0  0  0  0  0  0  0  0  0  0  0  0
   59.4500   29.0698   47.6956 H   0  0  0  0  0  0  0  0  0  0  0  0
   60.7374   30.3225   47.6956 H   0  0  0  0  0  0  0  0  0  0  0  0
  1  2  1  0
  2  3  1  0
  3  4  2  0
  3  5  1  0
  5  6  1  0
  6  7  1  0
  7  8  2  0
  7  9  1  0
  9 10  1  0
 10 11  1  0
  2 12  2  0
 12 13  1  0
 13 14  1  0
 14 15  2  0
 15 16  1  0
 15 17  1  0
 17 18  1  0
 17 19  2  0
 19 20  1  0
 19 21  1  0
 21 22  1  0
 21 23  2  0
 23 24  1  0
 24 25  1  0
 25 26  1  0
 25 27  1  0
 25 28  1  0
 10  5  2  0
 24 12  1  0
 23 14  1  0
M  CHG  2   9  -1  11  -1
M  END
>  <UniqueID>  (35) 
31

>  <SMILES>  (35) 
CN1/C(=C/C(=O)c2sc(=O)[n-]c2[O-])Sc2ccccc21

>  <Energy>  (35) 
90.97718711496586

>  <Genealogy>  (35) 
CN1C(=CC(=O)c2sc(=O)[n-]c2[O-])Sc2ccccc21 (protonated)
CN1/C(=C/C(=O)c2sc(=O)[n-]c2[O-])Sc2ccccc21 (cis-trans isomerization)
CN1/C(=C/C(=O)c2sc(=O)[n-]c2[O-])Sc2ccccc21 (3D coordinates assigned)
CN1/C(=C/C(=O)c2sc(=O)[n-]c2[O-])Sc2ccccc21 (nonaromatic ring conformer: 90.97718711496586 kcal/mol)

>  <smiles>  (35) 
CN1C(=CC(=O)c2sc(=O)[nH]c2O)Sc2ccccc21

>  <score_type>  (35) 
oracle

>  <origin>  (35) 
adg

>  <m_score__min__energy>  (35) 
-14.02

>  <m_primary>  (35) 
energy

$$$$
35:0
     RDKit          3D

 34 36  0  0  0  0  0  0  0  0999 V2000
   57.4562   29.2330   43.5582 H   0  0  0  0  0  0  0  0  0  0  0  0
   57.8410   30.0400   44.1990 C   0  0  0  0  0  0  0  0  0  0  0  0
   57.9335   31.0614   43.8012 H   0  0  0  0  0  0  0  0  0  0  0  0
   58.2010   29.7760   45.4780 C   0  0  0  0  0  0  0  0  0  0  0  0
   58.6980   30.8400   46.2910 C   0  0  0  0  0  0  0  0  0  0  0  0
   58.6840   32.2590   45.8580 C   0  0  0  0  0  0  0  0  0  0  0  0
   59.8460   33.0380   45.9850 C   0  0  0  0  0  0  0  0  0  0  0  0
   60.7628   32.5910   46.3969 H   0  0  0  0  0  0  0  0  0  0  0  0
   59.8420   34.3790   45.5900 C   0  0  0  0  0  0  0  0  0  0  0  0
   60.7560   34.9832   45.6878 H   0  0  0  0  0  0  0  0  0  0  0  0
   58.6780   34.9530   45.0710 C   0  0  0  0  0  0  0  0  0  0  0  0
   58.6776   36.0072   44.7570 H   0  0  0  0  0  0  0  0  0  0  0  0
   57.5150   34.1880   44.9510 C   0  0  0  0  0  0  0  0  0  0  0  0
   56.5994   34.6425   44.5446 H   0  0  0  0  0  0  0  0  0  0  0  0
   57.5110   32.8460   45.3460 C   0  0  0  0  0  0  0  0  0  0  0  0
   56.3400   32.1040   45.2330 O   0  0  0  0  0  0  0  0  0  0  0  0
   59.2320   30.5690   47.5550 C   0  0  0  0  0  0  0  0  0  0  0  0
   59.6352   31.3924   48.1628 H   0  0  0  0  0  0  0  0  0  0  0  0
   59.2590   29.2740   48.0510 C   0  0  0  0  0  0  0  0  0  0  0  0
   59.9260   28.9630   49.6450 Cl  0  0  0  0  0  0  0  0  0  0  0  0
   58.7260   28.2280   47.3060 C   0  0  0  0  0  0  0  0  0  0  0  0
   58.7366   27.2105   47.7237 H   0  0  0  0  0  0  0  0  0  0  0  0
   58.1700   28.4430   46.0220 C   0  0  0  0  0  0  0  0  0  0  0  0
   57.5800   27.4010   45.3700 C   0  0  0  0  0  0  0  0  0  0  0  0
   57.3686   27.5259   44.2978 H   0  0  0  0  0  0  0  0  0  0  0  0
   57.2020   26.1120   45.9980 C   0  0  0  0  0  0  0  0  0  0  0  0
   55.8650   25.8120   46.3060 C   0  0  0  0  0  0  0  0  0  0  0  0
   54.8480   26.7120   46.0060 O   0  0  0  0  0  0  0  0  0  0  0  0
   55.5560   24.6370   46.9120 N   0  0  0  0  0  0  0  0  0  0  0  0
   56.5230   23.7450   47.2460 C   0  0  0  0  0  0  0  0  0  0  0  0
   56.2130   22.6610   47.8050 O   0  0  0  0  0  0  0  0  0  0  0  0
   57.8250   24.0240   46.9840 N   0  0  0  0  0  0  0  0  0  0  0  0
   58.1850   25.1850   46.3780 C   0  0  0  0  0  0  0  0  0  0  0  0
   59.4050   25.4140   46.1540 O   0  0  0  0  0  0  0  0  0  0  0  0
  1  2  1  0
  2  3  1  0
  2  4  2  0
  4  5  1  0
  5  6  1  0
  6  7  2  0
  7  8  1  0
  7  9  1  0
  9 10  1  0
  9 11  2  0
 11 12  1  0
 11 13  1  0
 13 14  1  0
 13 15  2  0
 15 16  1  0
  5 17  2  0
 17 18  1  0
 17 19  1  0
 19 20  1  0
 19 21  2  0
 21 22  1  0
 21 23  1  0
 23 24  2  0
 24 25  1  0
 24 26  1  0
 26 27  2  0
 27 28  1  0
 27 29  1  0
 29 30  1  0
 30 31  2  0
 30 32  1  0
 32 33  1  0
 33 34  2  0
 23  4  1  0
 33 26  1  0
 15  6  1  0
M  CHG  4  16  -1  28  -1  29  -1  32  -1
M  END
>  <UniqueID>  (36) 
32

>  <SMILES>  (36) 
C=c1c(-c2ccccc2[O-])cc(Cl)c/c1=C\c1c([O-])[n-]c(=O)[n-]c1=O

>  <Energy>  (36) 
68.69873134179674

>  <Genealogy>  (36) 
C=c1c(-c2ccccc2[O-])cc(Cl)cc1=Cc1c([O-])[n-]c(=O)[n-]c1=O (protonated)
C=c1c(-c2ccccc2[O-])cc(Cl)c/c1=C\c1c([O-])[n-]c(=O)[n-]c1=O (cis-trans isomerization)
C=c1c(-c2ccccc2[O-])cc(Cl)c/c1=C\c1c([O-])[n-]c(=O)[n-]c1=O (3D coordinates assigned)
C=c1c(-c2ccccc2[O-])cc(Cl)c/c1=C\c1c([O-])[n-]c(=O)[n-]c1=O (optimized conformer: 68.69873134179674 kcal/mol)

>  <smiles>  (36) 
C=c1c(-c2ccccc2O)cc(Cl)cc1=Cc1c(O)[nH]c(=O)[nH]c1=O

>  <score_type>  (36) 
oracle

>  <origin>  (36) 
adg

>  <m_score__min__energy>  (36) 
-16.850000000000001

>  <m_primary>  (36) 
energy

$$$$
36:0
     RDKit          3D

 47 49  0  0  0  0  0  0  0  0999 V2000
   59.2770   27.4800   47.1040 C   0  0  0  0  0  0  0  0  0  0  0  0
   58.7610   28.1370   46.0520 C   0  0  0  0  0  0  0  0  0  0  0  0
   58.1060   27.5530   44.9610 C   0  0  0  0  0  0  0  0  0  0  0  0
   57.8460   26.2440   44.7660 C   0  0  0  0  0  0  0  0  0  0  0  0
   57.2390   25.3610   45.7790 C   0  0  0  0  0  0  0  0  0  0  0  0
   57.8610   24.2690   46.2560 N   0  0  0  0  0  0  0  0  0  0  0  0
   56.9560   23.7320   47.1000 C   0  0  0  0  0  0  0  0  0  0  0  0
   57.1810   22.6830   47.7580 O   0  0  0  0  0  0  0  0  0  0  0  0
   55.7870   24.4010   47.1770 N   0  0  0  0  0  0  0  0  0  0  0  0
   55.9700   25.4240   46.3270 C   0  0  0  0  0  0  0  0  0  0  0  0
   54.9770   26.3560   46.0380 O   0  0  0  0  0  0  0  0  0  0  0  0
   57.7070   28.5970   44.1410 C   0  0  0  0  0  0  0  0  0  0  0  0
   58.1500   29.7600   44.7350 C   0  0  0  0  0  0  0  0  0  0  0  0
   57.8900   31.1340   44.1950 C   0  0  0  0  0  0  0  0  0  0  0  0
   58.7760   29.4900   45.9060 N   0  0  0  0  0  0  0  0  0  0  0  0
   59.3500   30.5010   46.8110 C   0  0  0  0  0  0  0  0  0  0  0  0
   60.8650   30.6540   46.5890 C   0  0  0  0  0  0  0  0  0  0  0  0
   61.5960   31.0850   47.8630 C   0  0  0  0  0  0  0  0  0  0  0  0
   62.6480   32.0490   47.5530 N   0  0  0  0  0  0  0  0  0  0  0  0
   62.4300   33.4040   47.1360 C   0  0  0  0  0  0  0  0  0  0  0  0
   63.3070   33.9750   46.4380 O   0  0  0  0  0  0  0  0  0  0  0  0
   61.2680   34.1420   47.5330 N   0  0  0  0  0  0  0  0  0  0  0  0
   59.9810   34.0650   46.9070 C   0  0  0  0  0  0  0  0  0  0  0  0
   59.7720   34.5230   45.5920 C   0  0  0  0  0  0  0  0  0  0  0  0
   58.5040   34.4300   45.0090 C   0  0  0  0  0  0  0  0  0  0  0  0
   57.4350   33.9010   45.7380 C   0  0  0  0  0  0  0  0  0  0  0  0
   57.6310   33.4740   47.0540 C   0  0  0  0  0  0  0  0  0  0  0  0
   58.8990   33.5610   47.6370 C   0  0  0  0  0  0  0  0  0  0  0  0
   59.7736   28.0382   47.9113 H   0  0  0  0  0  0  0  0  0  0  0  0
   59.2029   26.3838   47.1581 H   0  0  0  0  0  0  0  0  0  0  0  0
   58.1030   25.8075   43.7896 H   0  0  0  0  0  0  0  0  0  0  0  0
   54.3630   26.7190   46.7540 H   0  0  0  0  0  0  0  0  0  0  0  0
   57.1456   28.5138   43.1987 H   0  0  0  0  0  0  0  0  0  0  0  0
   57.7569   31.8372   45.0304 H   0  0  0  0  0  0  0  0  0  0  0  0
   58.7436   31.4535   43.5792 H   0  0  0  0  0  0  0  0  0  0  0  0
   56.9786   31.1196   43.5792 H   0  0  0  0  0  0  0  0  0  0  0  0
   58.8609   31.4684   46.6239 H   0  0  0  0  0  0  0  0  0  0  0  0
   59.1822   30.1742   47.8479 H   0  0  0  0  0  0  0  0  0  0  0  0
   61.2734   29.6885   46.2558 H   0  0  0  0  0  0  0  0  0  0  0  0
   61.0177   31.4365   45.8312 H   0  0  0  0  0  0  0  0  0  0  0  0
   60.8755   31.5466   48.5542 H   0  0  0  0  0  0  0  0  0  0  0  0
   62.0539   30.1981   48.3254 H   0  0  0  0  0  0  0  0  0  0  0  0
   60.6078   34.9549   45.0220 H   0  0  0  0  0  0  0  0  0  0  0  0
   58.3478   34.7735   43.9757 H   0  0  0  0  0  0  0  0  0  0  0  0
   56.4400   33.8209   45.2759 H   0  0  0  0  0  0  0  0  0  0  0  0
   56.7871   33.0691   47.6318 H   0  0  0  0  0  0  0  0  0  0  0  0
   59.0467   33.2312   48.6759 H   0  0  0  0  0  0  0  0  0  0  0  0
  1  2  2  0
  2  3  1  0
  3  4  2  3
  4  5  1  0
  5  6  1  0
  6  7  1  0
  7  8  2  0
  7  9  1  0
  9 10  1  0
 10 11  1  0
  3 12  1  0
 12 13  2  0
 13 14  1  0
 13 15  1  0
 15 16  1  0
 16 17  1  0
 17 18  1  0
 18 19  1  0
 19 20  1  0
 20 21  2  0
 20 22  1  0
 22 23  1  0
 23 24  2  0
 24 25  1  0
 25 26  2  0
 26 27  1  0
 27 28  2  0
 15  2  1  0
 28 23  1  0
 10  5  2  0
  1 29  1  0
  1 30  1  0
  4 31  1  0
 11 32  1  0
 12 33  1  0
 14 34  1  0
 14 35  1  0
 14 36  1  0
 16 37  1  0
 16 38  1  0
 17 39  1  0
 17 40  1  0
 18 41  1  0
 18 42  1  0
 24 43  1  0
 25 44  1  0
 26 45  1  0
 27 46  1  0
 28 47  1  0
M  CHG  4   6  -1   9  -1  19  -1  22  -1
M  END
>  <UniqueID>  (37) 
33

>  <SMILES>  (37) 
C=c1c(=Cc2[n-]c(=O)[n-]c2O)cc(C)n1CCC[N-]C(=O)[N-]c1ccccc1

>  <Energy>  (37) 
111.21648871840931

>  <Genealogy>  (37) 
C=c1c(=Cc2[n-]c(=O)[n-]c2O)cc(C)n1CCC[N-]C(=O)[N-]c1ccccc1 (protonated)
C=c1c(=Cc2[n-]c(=O)[n-]c2O)cc(C)n1CCC[N-]C(=O)[N-]c1ccccc1 (3D coordinates assigned)
C=c1c(=Cc2[n-]c(=O)[n-]c2O)cc(C)n1CCC[N-]C(=O)[N-]c1ccccc1 (optimized conformer: 111.21648871840931 kcal/mol)

>  <smiles>  (37) 
C=c1c(=Cc2[nH]c(=O)[nH]c2O)cc(C)n1CCCNC(=O)Nc1ccccc1

>  <score_type>  (37) 
oracle

>  <origin>  (37) 
adg

>  <m_score__min__energy>  (37) 
-15.720000000000001

>  <m_primary>  (37) 
energy

$$$$
37:0
     RDKit          3D

 57 61  0  0  0  0  0  0  0  0999 V2000
   58.4684   25.2105   47.8221 H   0  0  0  0  0  0  0  0  0  0  0  0
   58.3700   26.2260   47.4110 C   0  0  0  0  0  0  0  0  0  0  0  0
   57.4430   26.5490   46.4710 N   0  0  0  0  0  0  0  0  0  0  0  0
   57.5090   27.8530   46.1230 C   0  0  0  0  0  0  0  0  0  0  0  0
   56.6860   28.3780   45.2640 N   0  0  0  0  0  0  0  0  0  0  0  0
   56.6280   29.7510   44.8390 C   0  0  0  0  0  0  0  0  0  0  0  0
   55.5360   30.2780   44.5000 O   0  0  0  0  0  0  0  0  0  0  0  0
   57.8220   30.5370   44.7630 N   0  0  0  0  0  0  0  0  0  0  0  0
   57.9870   31.8800   45.2450 C   0  0  0  0  0  0  0  0  0  0  0  0
   57.0690   32.8860   44.8920 C   0  0  0  0  0  0  0  0  0  0  0  0
   56.2046   32.6377   44.2586 H   0  0  0  0  0  0  0  0  0  0  0  0
   57.2460   34.1970   45.3390 C   0  0  0  0  0  0  0  0  0  0  0  0
   56.5171   34.9724   45.0609 H   0  0  0  0  0  0  0  0  0  0  0  0
   58.3400   34.5290   46.1350 C   0  0  0  0  0  0  0  0  0  0  0  0
   58.4616   35.5604   46.4974 H   0  0  0  0  0  0  0  0  0  0  0  0
   59.2850   33.5540   46.4750 C   0  0  0  0  0  0  0  0  0  0  0  0
   60.4020   33.8920   47.2560 C   0  0  0  0  0  0  0  0  0  0  0  0
   60.5312   34.9261   47.6080 H   0  0  0  0  0  0  0  0  0  0  0  0
   61.3500   32.9210   47.5880 C   0  0  0  0  0  0  0  0  0  0  0  0
   62.2241   33.1930   48.1980 H   0  0  0  0  0  0  0  0  0  0  0  0
   61.1900   31.6060   47.1470 C   0  0  0  0  0  0  0  0  0  0  0  0
   61.9397   30.8452   47.4101 H   0  0  0  0  0  0  0  0  0  0  0  0
   60.0820   31.2520   46.3730 C   0  0  0  0  0  0  0  0  0  0  0  0
   59.9615   30.2123   46.0347 H   0  0  0  0  0  0  0  0  0  0  0  0
   59.1180   32.2180   46.0230 C   0  0  0  0  0  0  0  0  0  0  0  0
   58.7150   28.6670   46.9820 S   0  0  0  0  0  0  0  0  0  0  0  0
   59.1850   27.2800   47.8130 C   0  0  0  0  0  0  0  0  0  0  0  0
   60.1890   27.2380   48.9190 C   0  0  0  0  0  0  0  0  0  0  0  0
   59.8776   26.4940   49.6669 H   0  0  0  0  0  0  0  0  0  0  0  0
   61.1711   26.9614   48.5079 H   0  0  0  0  0  0  0  0  0  0  0  0
   60.2860   28.5900   49.5700 C   0  0  0  0  0  0  0  0  0  0  0  0
   61.5070   29.2790   49.5850 C   0  0  0  0  0  0  0  0  0  0  0  0
   62.3835   28.8533   49.0747 H   0  0  0  0  0  0  0  0  0  0  0  0
   61.6130   30.5040   50.2460 C   0  0  0  0  0  0  0  0  0  0  0  0
   62.5716   31.0434   50.2488 H   0  0  0  0  0  0  0  0  0  0  0  0
   60.5070   31.0480   50.9040 C   0  0  0  0  0  0  0  0  0  0  0  0
   60.6011   32.0123   51.4248 H   0  0  0  0  0  0  0  0  0  0  0  0
   59.2720   30.3700   50.9050 C   0  0  0  0  0  0  0  0  0  0  0  0
   58.0840   30.9110   51.6240 C   0  0  0  0  0  0  0  0  0  0  0  0
   56.9850   30.2950   51.5240 O   0  0  0  0  0  0  0  0  0  0  0  0
   58.1700   32.0960   52.4560 N   0  0  0  0  0  0  0  0  0  0  0  0
   57.2390   32.2750   52.8980 H   0  0  0  0  0  0  0  0  0  0  0  0
   58.5490   33.2670   51.6370 C   0  0  0  0  0  0  0  0  0  0  0  0
   59.4192   33.0045   51.0175 H   0  0  0  0  0  0  0  0  0  0  0  0
   57.6909   33.5418   51.0060 H   0  0  0  0  0  0  0  0  0  0  0  0
   58.9100   34.4790   52.5240 C   0  0  0  0  0  0  0  0  0  0  0  0
   59.9979   34.6374   52.4884 H   0  0  0  0  0  0  0  0  0  0  0  0
   58.3750   35.3605   52.1410 H   0  0  0  0  0  0  0  0  0  0  0  0
   58.5190   34.2690   53.8670 O   0  0  0  0  0  0  0  0  0  0  0  0
   59.2460   33.1870   54.4170 C   0  0  0  0  0  0  0  0  0  0  0  0
   60.3055   33.4735   54.4897 H   0  0  0  0  0  0  0  0  0  0  0  0
   58.8207   32.9647   55.4068 H   0  0  0  0  0  0  0  0  0  0  0  0
   59.1350   31.9060   53.5560 C   0  0  0  0  0  0  0  0  0  0  0  0
   60.1223   31.6693   53.1327 H   0  0  0  0  0  0  0  0  0  0  0  0
   58.7843   31.0815   54.1942 H   0  0  0  0  0  0  0  0  0  0  0  0
   59.1760   29.1350   50.2370 C   0  0  0  0  0  0  0  0  0  0  0  0
   58.2205   28.5899   50.2371 H   0  0  0  0  0  0  0  0  0  0  0  0
  1  2  1  0
  2  3  1  0
  3  4  1  0
  4  5  2  0
  5  6  1  0
  6  7  2  0
  6  8  1  0
  8  9  1  0
  9 10  2  0
 10 11  1  0
 10 12  1  0
 12 13  1  0
 12 14  2  0
 14 15  1  0
 14 16  1  0
 16 17  2  0
 17 18  1  0
 17 19  1  0
 19 20  1  0
 19 21  2  0
 21 22  1  0
 21 23  1  0
 23 24  1  0
 23 25  2  0
  4 26  1  0
 26 27  1  0
 27 28  1  0
 28 29  1  0
 28 30  1  0
 28 31  1  0
 31 32  2  0
 32 33  1  0
 32 34  1  0
 34 35  1  0
 34 36  2  0
 36 37  1  0
 36 38  1  0
 38 39  1  0
 39 40  2  0
 39 41  1  0
 41 42  1  0
 41 43  1  0
 43 44  1  0
 43 45  1  0
 43 46  1  0
 46 47  1  0
 46 48  1  0
 46 49  1  0
 49 50  1  0
 50 51  1  0
 50 52  1  0
 50 53  1  0
 53 54  1  0
 53 55  1  0
 38 56  2  0
 56 57  1  0
 27  2  2  0
 56 31  1  0
 25  9  1  0
 53 41  1  0
 25 16  1  0
M  CHG  3   3  -1   8  -1  41   1
M  END
>  <UniqueID>  (38) 
34

>  <SMILES>  (38) 
O=C(/N=c1/[n-]cc(Cc2cccc(C(=O)[NH+]3CCOCC3)c2)s1)[N-]c1cccc2ccccc12

>  <Energy>  (38) 
116.33068476703573

>  <Genealogy>  (38) 
O=C(N=c1[n-]cc(Cc2cccc(C(=O)[NH+]3CCOCC3)c2)s1)[N-]c1cccc2ccccc12 (protonated)
O=C(/N=c1/[n-]cc(Cc2cccc(C(=O)[NH+]3CCOCC3)c2)s1)[N-]c1cccc2ccccc12 (cis-trans isomerization)
O=C(/N=c1/[n-]cc(Cc2cccc(C(=O)[NH+]3CCOCC3)c2)s1)[N-]c1cccc2ccccc12 (3D coordinates assigned)
O=C(/N=c1/[n-]cc(Cc2cccc(C(=O)[NH+]3CCOCC3)c2)s1)[N-]c1cccc2ccccc12 (nonaromatic ring conformer: 116.33068476703573 kcal/mol)

>  <smiles>  (38) 
O=C(N=c1[nH]cc(Cc2cccc(C(=O)N3CCOCC3)c2)s1)Nc1cccc2ccccc12

>  <score_type>  (38) 
oracle

>  <origin>  (38) 
adg

>  <m_score__min__energy>  (38) 
-11.51

>  <m_primary>  (38) 
energy

$$$$
38:0
     RDKit          3D

 76 79  0  0  0  0  0  0  0  0999 V2000
   60.0680   34.9850   47.4070 C   0  0  0  0  0  0  0  0  0  0  0  0
   58.9780   35.0880   46.3450 C   0  0  0  0  0  0  0  0  0  0  0  0
   59.3330   34.3420   45.1800 O   0  0  0  0  0  0  0  0  0  0  0  0
   58.7850   33.1050   44.8000 C   0  0  0  0  0  0  0  0  0  0  0  0
   58.3960   32.8260   43.4760 C   0  0  0  0  0  0  0  0  0  0  0  0
   57.8730   31.5760   43.1410 C   0  0  0  0  0  0  0  0  0  0  0  0
   57.7370   30.5810   44.1180 C   0  0  0  0  0  0  0  0  0  0  0  0
   57.1660   29.2350   43.7670 C   0  0  0  0  0  0  0  0  0  0  0  0
   56.2600   28.7480   44.8630 C   0  0  0  0  0  0  0  0  0  0  0  0
   55.1800   29.3570   45.0810 O   0  0  0  0  0  0  0  0  0  0  0  0
   56.6290   27.6650   45.7240 N   0  0  0  0  0  0  0  0  0  0  0  0
   57.8400   27.5670   46.4870 C   0  0  0  0  0  0  0  0  0  0  0  0
   58.1990   28.5690   47.4060 C   0  0  0  0  0  0  0  0  0  0  0  0
   59.4140   28.4990   48.0970 C   0  0  0  0  0  0  0  0  0  0  0  0
   59.8290   29.7350   49.2870 S   0  0  0  0  0  0  0  0  0  0  0  0
   58.5640   30.2690   49.9010 O   0  0  0  0  0  0  0  0  0  0  0  0
   60.6480   29.1070   50.3820 O   0  0  0  0  0  0  0  0  0  0  0  0
   60.7300   31.0530   48.5800 N   0  0  0  0  0  0  0  0  0  0  0  0
   61.4140   31.8330   49.6240 C   0  0  0  0  0  0  0  0  0  0  0  0
   62.2510   32.9720   48.9950 C   0  0  0  0  0  0  0  0  0  0  0  0
   62.2230   32.9380   47.5790 O   0  0  0  0  0  0  0  0  0  0  0  0
   62.6510   31.6700   47.1220 C   0  0  0  0  0  0  0  0  0  0  0  0
   61.7010   30.5480   47.5920 C   0  0  0  0  0  0  0  0  0  0  0  0
   60.2920   27.4370   47.8460 C   0  0  0  0  0  0  0  0  0  0  0  0
   59.9540   26.4510   46.9170 C   0  0  0  0  0  0  0  0  0  0  0  0
   58.7280   26.5050   46.2390 C   0  0  0  0  0  0  0  0  0  0  0  0
   58.3710   25.4530   45.3280 N   0  0  0  0  0  0  0  0  0  0  0  0
   58.0720   25.7710   43.9300 C   0  0  0  0  0  0  0  0  0  0  0  0
   56.9860   24.8310   43.3750 C   0  0  0  0  0  0  0  0  0  0  0  0
   57.0300   23.4680   43.9570 N   0  0  0  0  0  0  0  0  0  0  0  0
   56.4950   22.4310   43.0500 C   0  0  0  0  0  0  0  0  0  0  0  0
   57.3020   21.1230   43.0540 C   0  0  0  0  0  0  0  0  0  0  0  0
   58.3180   23.1040   44.5730 C   0  0  0  0  0  0  0  0  0  0  0  0
   58.6120   24.0620   45.7270 C   0  0  0  0  0  0  0  0  0  0  0  0
   58.1130   30.8580   45.4410 C   0  0  0  0  0  0  0  0  0  0  0  0
   58.6340   32.1190   45.7880 C   0  0  0  0  0  0  0  0  0  0  0  0
   59.0110   32.4290   47.1050 O   0  0  0  0  0  0  0  0  0  0  0  0
   58.0970   32.6610   48.1730 C   0  0  0  0  0  0  0  0  0  0  0  0
   59.6111   35.0282   48.4067 H   0  0  0  0  0  0  0  0  0  0  0  0
   60.6050   34.0321   47.2901 H   0  0  0  0  0  0  0  0  0  0  0  0
   60.7740   35.8204   47.2901 H   0  0  0  0  0  0  0  0  0  0  0  0
   58.0371   34.6915   46.7543 H   0  0  0  0  0  0  0  0  0  0  0  0
   58.8581   36.1447   46.0641 H   0  0  0  0  0  0  0  0  0  0  0  0
   58.5050   33.5983   42.7003 H   0  0  0  0  0  0  0  0  0  0  0  0
   57.5661   31.3711   42.1048 H   0  0  0  0  0  0  0  0  0  0  0  0
   56.5921   29.3174   42.8322 H   0  0  0  0  0  0  0  0  0  0  0  0
   57.9915   28.5189   43.6420 H   0  0  0  0  0  0  0  0  0  0  0  0
   57.5189   29.4152   47.5833 H   0  0  0  0  0  0  0  0  0  0  0  0
   60.0390   31.6710   48.0940 H   0  0  0  0  0  0  0  0  0  0  0  0
   60.6632   32.2676   50.3003 H   0  0  0  0  0  0  0  0  0  0  0  0
   62.0876   31.1649   50.1807 H   0  0  0  0  0  0  0  0  0  0  0  0
   61.8470   33.9373   49.3342 H   0  0  0  0  0  0  0  0  0  0  0  0
   63.2951   32.8400   49.3152 H   0  0  0  0  0  0  0  0  0  0  0  0
   62.6788   31.6773   46.0224 H   0  0  0  0  0  0  0  0  0  0  0  0
   63.6499   31.4727   47.5382 H   0  0  0  0  0  0  0  0  0  0  0  0
   61.1557   30.1515   46.7228 H   0  0  0  0  0  0  0  0  0  0  0  0
   62.3017   29.7574   48.0654 H   0  0  0  0  0  0  0  0  0  0  0  0
   61.2507   27.3796   48.3823 H   0  0  0  0  0  0  0  0  0  0  0  0
   60.6540   25.6267   46.7158 H   0  0  0  0  0  0  0  0  0  0  0  0
   57.7172   26.8101   43.8646 H   0  0  0  0  0  0  0  0  0  0  0  0
   58.9882   25.6408   43.3353 H   0  0  0  0  0  0  0  0  0  0  0  0
   56.0012   25.2705   43.5916 H   0  0  0  0  0  0  0  0  0  0  0  0
   57.1683   24.7278   42.2951 H   0  0  0  0  0  0  0  0  0  0  0  0
   55.4634   22.2023   43.3557 H   0  0  0  0  0  0  0  0  0  0  0  0
   56.5529   22.8385   42.0299 H   0  0  0  0  0  0  0  0  0  0  0  0
   57.4931   20.8132   44.0920 H   0  0  0  0  0  0  0  0  0  0  0  0
   56.7309   20.3382   42.5364 H   0  0  0  0  0  0  0  0  0  0  0  0
   58.2596   21.2814   42.5364 H   0  0  0  0  0  0  0  0  0  0  0  0
   58.2651   22.0737   44.9546 H   0  0  0  0  0  0  0  0  0  0  0  0
   59.1191   23.1729   43.8224 H   0  0  0  0  0  0  0  0  0  0  0  0
   57.9594   23.8130   46.5768 H   0  0  0  0  0  0  0  0  0  0  0  0
   59.6696   23.9562   46.0104 H   0  0  0  0  0  0  0  0  0  0  0  0
   57.9998   30.0833   46.2137 H   0  0  0  0  0  0  0  0  0  0  0  0
   58.6153   32.5294   49.1343 H   0  0  0  0  0  0  0  0  0  0  0  0
   57.7060   33.6869   48.1047 H   0  0  0  0  0  0  0  0  0  0  0  0
   57.2640   31.9458   48.1047 H   0  0  0  0  0  0  0  0  0  0  0  0
  1  2  1  0
  2  3  1  0
  3  4  1  0
  4  5  2  0
  5  6  1  0
  6  7  2  0
  7  8  1  0
  8  9  1  0
  9 10  2  0
  9 11  1  0
 11 12  1  0
 12 13  2  0
 13 14  1  0
 14 15  1  0
 15 16  2  0
 15 17  2  0
 15 18  1  0
 18 19  1  0
 19 20  1  0
 20 21  1  0
 21 22  1  0
 22 23  1  0
 14 24  2  0
 24 25  1  0
 25 26  2  0
 26 27  1  0
 27 28  1  0
 28 29  1  0
 29 30  1  0
 30 31  1  0
 31 32  1  0
 30 33  1  0
 33 34  1  0
  7 35  1  0
 35 36  2  0
 36 37  1  0
 37 38  1  0
 36  4  1  0
 26 12  1  0
 34 27  1  0
 23 18  1  0
  1 39  1  0
  1 40  1  0
  1 41  1  0
  2 42  1  0
  2 43  1  0
  5 44  1  0
  6 45  1  0
  8 46  1  0
  8 47  1  0
 13 48  1  0
 18 49  1  0
 19 50  1  0
 19 51  1  0
 20 52  1  0
 20 53  1  0
 22 54  1  0
 22 55  1  0
 23 56  1  0
 23 57  1  0
 24 58  1  0
 25 59  1  0
 28 60  1  0
 28 61  1  0
 29 62  1  0
 29 63  1  0
 31 64  1  0
 31 65  1  0
 32 66  1  0
 32 67  1  0
 32 68  1  0
 33 69  1  0
 33 70  1  0
 34 71  1  0
 34 72  1  0
 35 73  1  0
 38 74  1  0
 38 75  1  0
 38 76  1  0
M  CHG  2  11  -1  18   1
M  END
>  <UniqueID>  (39) 
35

>  <SMILES>  (39) 
CCOc1ccc(CC(=O)[N-]c2cc(S(=O)(=O)[NH+]3CCOCC3)ccc2N2CCN(CC)CC2)cc1OC

>  <Energy>  (39) 
95.53078198566386

>  <Genealogy>  (39) 
CCOc1ccc(CC(=O)[N-]c2cc(S(=O)(=O)[NH+]3CCOCC3)ccc2N2CCN(CC)CC2)cc1OC (protonated)
CCOc1ccc(CC(=O)[N-]c2cc(S(=O)(=O)[NH+]3CCOCC3)ccc2N2CCN(CC)CC2)cc1OC (3D coordinates assigned)
CCOc1ccc(CC(=O)[N-]c2cc(S(=O)(=O)[NH+]3CCOCC3)ccc2N2CCN(CC)CC2)cc1OC (nonaromatic ring conformer: 95.53078198566386 kcal/mol)

>  <smiles>  (39) 
CCOc1ccc(CC(=O)Nc2cc(S(=O)(=O)N3CCOCC3)ccc2N2CCN(CC)CC2)cc1OC

>  <score_type>  (39) 
oracle

>  <origin>  (39) 
adg

>  <m_score__min__energy>  (39) 
-9.0700000000000003

>  <m_primary>  (39) 
energy

$$$$
39:0
     RDKit          3D

 40 42  0  0  0  0  0  0  0  0999 V2000
   54.2190   28.9620   44.5020 H   0  0  0  0  0  0  0  0  0  0  0  0
   54.9350   29.4920   43.9560 N   0  0  0  0  0  0  0  0  0  0  0  0
   56.1880   29.5340   44.2910 C   0  0  0  0  0  0  0  0  0  0  0  0
   56.9860   30.7710   44.1000 C   0  0  0  0  0  0  0  0  0  0  0  0
   57.2210   31.2700   42.8070 C   0  0  0  0  0  0  0  0  0  0  0  0
   56.8069   30.7440   41.9342 H   0  0  0  0  0  0  0  0  0  0  0  0
   57.9780   32.4310   42.6240 C   0  0  0  0  0  0  0  0  0  0  0  0
   58.1523   32.8174   41.6089 H   0  0  0  0  0  0  0  0  0  0  0  0
   58.5130   33.1010   43.7240 C   0  0  0  0  0  0  0  0  0  0  0  0
   59.1059   34.0154   43.5745 H   0  0  0  0  0  0  0  0  0  0  0  0
   58.2970   32.6120   45.0190 C   0  0  0  0  0  0  0  0  0  0  0  0
   58.9930   33.4390   46.4090 S   0  0  0  0  0  0  0  0  0  0  0  0
   59.9560   34.5040   45.9660 O   0  0  0  0  0  0  0  0  0  0  0  0
   57.8840   34.0760   47.1960 O   0  0  0  0  0  0  0  0  0  0  0  0
   59.8320   32.3040   47.4200 N   0  0  0  0  0  0  0  0  0  0  0  0
   60.4110   32.7000   48.1950 H   0  0  0  0  0  0  0  0  0  0  0  0
   59.6850   30.8750   47.3180 C   0  0  0  0  0  0  0  0  0  0  0  0
   60.2960   30.1990   46.2520 C   0  0  0  0  0  0  0  0  0  0  0  0
   60.8722   30.7662   45.5061 H   0  0  0  0  0  0  0  0  0  0  0  0
   60.1800   28.8120   46.1280 C   0  0  0  0  0  0  0  0  0  0  0  0
   60.6789   28.2928   45.2964 H   0  0  0  0  0  0  0  0  0  0  0  0
   59.4280   28.0770   47.0620 C   0  0  0  0  0  0  0  0  0  0  0  0
   59.3160   26.6450   46.9950 N   0  0  0  0  0  0  0  0  0  0  0  0
   58.2170   25.9460   46.9790 C   0  0  0  0  0  0  0  0  0  0  0  0
   58.1950   24.6520   47.3970 N   0  0  0  0  0  0  0  0  0  0  0  0
   57.0430   23.9370   47.3480 C   0  0  0  0  0  0  0  0  0  0  0  0
   57.0270   22.7420   47.7420 O   0  0  0  0  0  0  0  0  0  0  0  0
   55.9090   24.5090   46.8720 N   0  0  0  0  0  0  0  0  0  0  0  0
   55.9290   25.7970   46.4430 C   0  0  0  0  0  0  0  0  0  0  0  0
   54.8800   26.3280   45.9980 O   0  0  0  0  0  0  0  0  0  0  0  0
   57.0820   26.5120   46.4940 N   0  0  0  0  0  0  0  0  0  0  0  0
   58.8390   28.7460   48.1400 C   0  0  0  0  0  0  0  0  0  0  0  0
   58.2818   28.1748   48.8971 H   0  0  0  0  0  0  0  0  0  0  0  0
   58.9520   30.1340   48.2640 C   0  0  0  0  0  0  0  0  0  0  0  0
   58.4656   30.6496   49.1052 H   0  0  0  0  0  0  0  0  0  0  0  0
   57.5300   31.4540   45.2040 C   0  0  0  0  0  0  0  0  0  0  0  0
   57.3514   31.0753   46.2212 H   0  0  0  0  0  0  0  0  0  0  0  0
   56.7950   28.3630   44.8400 N   0  0  0  0  0  0  0  0  0  0  0  0
   56.2470   27.4800   44.9360 H   0  0  0  0  0  0  0  0  0  0  0  0
   57.7750   28.3800   45.2020 H   0  0  0  0  0  0  0  0  0  0  0  0
  1  2  1  0
  2  3  2  0
  3  4  1  0
  4  5  2  0
  5  6  1  0
  5  7  1  0
  7  8  1  0
  7  9  2  0
  9 10  1  0
  9 11  1  0
 11 12  1  0
 12 13  2  0
 12 14  2  0
 12 15  1  0
 15 16  1  0
 15 17  1  0
 17 18  2  0
 18 19  1  0
 18 20  1  0
 20 21  1  0
 20 22  2  0
 22 23  1  0
 23 24  2  3
 24 25  1  0
 25 26  1  0
 26 27  2  0
 26 28  1  0
 28 29  1  0
 29 30  2  0
 29 31  1  0
 22 32  1  0
 32 33  1  0
 32 34  2  0
 34 35  1  0
 11 36  2  0
 36 37  1  0
  3 38  1  0
 38 39  1  0
 38 40  1  0
 36  4  1  0
 34 17  1  0
 31 24  1  0
M  CHG  3  25  -1  28  -1  31  -1
M  END
>  <UniqueID>  (40) 
36

>  <SMILES>  (40) 
[H]/N=C(/N)c1cccc(S(=O)(=O)Nc2ccc(N=c3[n-]c(=O)[n-]c(=O)[n-]3)cc2)c1

>  <Energy>  (40) 
55.0783786317491

>  <Genealogy>  (40) 
N=C(N)c1cccc(S(=O)(=O)Nc2ccc(N=c3[n-]c(=O)[n-]c(=O)[n-]3)cc2)c1 (protonated)
[H]/N=C(/N)c1cccc(S(=O)(=O)Nc2ccc(N=c3[n-]c(=O)[n-]c(=O)[n-]3)cc2)c1 (cis-trans isomerization)
[H]/N=C(/N)c1cccc(S(=O)(=O)Nc2ccc(N=c3[n-]c(=O)[n-]c(=O)[n-]3)cc2)c1 (3D coordinates assigned)
[H]/N=C(/N)c1cccc(S(=O)(=O)Nc2ccc(N=c3[n-]c(=O)[n-]c(=O)[n-]3)cc2)c1 (optimized conformer: 55.0783786317491 kcal/mol)

>  <smiles>  (40) 
N=C(N)c1cccc(S(=O)(=O)Nc2ccc(N=c3[nH]c(=O)[nH]c(=O)[nH]3)cc2)c1

>  <score_type>  (40) 
oracle

>  <origin>  (40) 
adg

>  <m_score__min__energy>  (40) 
-14.57

>  <m_primary>  (40) 
energy

$$$$
40:0
     RDKit          3D

 47 49  0  0  0  0  0  0  0  0999 V2000
   55.6250   26.8630   46.0360 N   0  0  0  0  0  0  0  0  0  0  0  0
   57.0530   26.8030   46.1340 C   0  0  0  0  0  0  0  0  0  0  0  0
   57.6330   25.9910   47.1220 C   0  0  0  0  0  0  0  0  0  0  0  0
   59.0200   25.8370   47.1880 C   0  0  0  0  0  0  0  0  0  0  0  0
   59.8400   26.4830   46.2620 C   0  0  0  0  0  0  0  0  0  0  0  0
   61.1850   26.3200   46.3200 F   0  0  0  0  0  0  0  0  0  0  0  0
   59.2770   27.3030   45.2810 C   0  0  0  0  0  0  0  0  0  0  0  0
   57.8900   27.4980   45.2270 C   0  0  0  0  0  0  0  0  0  0  0  0
   57.3730   28.4210   44.2560 N   0  0  0  0  0  0  0  0  0  0  0  0
   56.6510   29.6260   44.5520 C   0  0  0  0  0  0  0  0  0  0  0  0
   55.4060   29.5600   44.7240 O   0  0  0  0  0  0  0  0  0  0  0  0
   57.3310   30.9370   44.6610 C   0  0  0  0  0  0  0  0  0  0  0  0
   57.8830   31.5370   43.5200 C   0  0  0  0  0  0  0  0  0  0  0  0
   58.4470   32.8120   43.5970 C   0  0  0  0  0  0  0  0  0  0  0  0
   58.4720   33.5080   44.8150 C   0  0  0  0  0  0  0  0  0  0  0  0
   59.0000   34.9220   44.8500 C   0  0  0  0  0  0  0  0  0  0  0  0
   59.3790   35.3030   46.2090 N   0  0  0  0  0  0  0  0  0  0  0  0
   60.4140   34.6920   46.9930 C   0  0  0  0  0  0  0  0  0  0  0  0
   60.3530   34.7930   48.2490 O   0  0  0  0  0  0  0  0  0  0  0  0
   61.5110   33.8770   46.3560 C   0  0  0  0  0  0  0  0  0  0  0  0
   62.3760   33.1850   47.3780 C   0  0  0  0  0  0  0  0  0  0  0  0
   63.6170   33.7310   47.7440 C   0  0  0  0  0  0  0  0  0  0  0  0
   64.4090   33.0980   48.7060 C   0  0  0  0  0  0  0  0  0  0  0  0
   63.9640   31.9210   49.3160 C   0  0  0  0  0  0  0  0  0  0  0  0
   62.7240   31.3800   48.9680 C   0  0  0  0  0  0  0  0  0  0  0  0
   61.9280   32.0110   48.0070 C   0  0  0  0  0  0  0  0  0  0  0  0
   57.9780   32.8810   45.9780 C   0  0  0  0  0  0  0  0  0  0  0  0
   58.0340   33.5320   47.2110 O   0  0  0  0  0  0  0  0  0  0  0  0
   57.4170   31.6010   45.8940 C   0  0  0  0  0  0  0  0  0  0  0  0
   55.0070   26.3610   46.7110 H   0  0  0  0  0  0  0  0  0  0  0  0
   55.1660   27.4930   45.3410 H   0  0  0  0  0  0  0  0  0  0  0  0
   56.9907   25.4725   47.8491 H   0  0  0  0  0  0  0  0  0  0  0  0
   59.4661   25.2059   47.9707 H   0  0  0  0  0  0  0  0  0  0  0  0
   59.9271   27.7993   44.5454 H   0  0  0  0  0  0  0  0  0  0  0  0
   57.8716   31.0006   42.5597 H   0  0  0  0  0  0  0  0  0  0  0  0
   58.8752   33.2745   42.6955 H   0  0  0  0  0  0  0  0  0  0  0  0
   59.8820   34.9935   44.1966 H   0  0  0  0  0  0  0  0  0  0  0  0
   58.2083   35.6018   44.5020 H   0  0  0  0  0  0  0  0  0  0  0  0
   61.0545   33.1164   45.7056 H   0  0  0  0  0  0  0  0  0  0  0  0
   62.1511   34.5638   45.7827 H   0  0  0  0  0  0  0  0  0  0  0  0
   63.9672   34.6607   47.2716 H   0  0  0  0  0  0  0  0  0  0  0  0
   65.3835   33.5261   48.9836 H   0  0  0  0  0  0  0  0  0  0  0  0
   64.5902   31.4213   50.0697 H   0  0  0  0  0  0  0  0  0  0  0  0
   62.3731   30.4560   49.4508 H   0  0  0  0  0  0  0  0  0  0  0  0
   60.9480   31.5870   47.7426 H   0  0  0  0  0  0  0  0  0  0  0  0
   58.4150   34.4660   47.3030 H   0  0  0  0  0  0  0  0  0  0  0  0
   57.0399   31.1110   46.8038 H   0  0  0  0  0  0  0  0  0  0  0  0
  1  2  1  0
  2  3  2  0
  3  4  1  0
  4  5  2  0
  5  6  1  0
  5  7  1  0
  7  8  2  0
  8  9  1  0
  9 10  1  0
 10 11  2  0
 10 12  1  0
 12 13  2  0
 13 14  1  0
 14 15  2  0
 15 16  1  0
 16 17  1  0
 17 18  1  0
 18 19  2  0
 18 20  1  0
 20 21  1  0
 21 22  2  0
 22 23  1  0
 23 24  2  0
 24 25  1  0
 25 26  2  0
 15 27  1  0
 27 28  1  0
 27 29  2  0
  8  2  1  0
 29 12  1  0
 26 21  1  0
  1 30  1  0
  1 31  1  0
  3 32  1  0
  4 33  1  0
  7 34  1  0
 13 35  1  0
 14 36  1  0
 16 37  1  0
 16 38  1  0
 20 39  1  0
 20 40  1  0
 22 41  1  0
 23 42  1  0
 24 43  1  0
 25 44  1  0
 26 45  1  0
 28 46  1  0
 29 47  1  0
M  CHG  2   9  -1  17  -1
M  END
>  <UniqueID>  (41) 
37

>  <SMILES>  (41) 
Nc1ccc(F)cc1[N-]C(=O)c1ccc(C[N-]C(=O)Cc2ccccc2)c(O)c1

>  <Energy>  (41) 
54.9834902395278

>  <Genealogy>  (41) 
Nc1ccc(F)cc1[N-]C(=O)c1ccc(C[N-]C(=O)Cc2ccccc2)c(O)c1 (protonated)
Nc1ccc(F)cc1[N-]C(=O)c1ccc(C[N-]C(=O)Cc2ccccc2)c(O)c1 (3D coordinates assigned)
Nc1ccc(F)cc1[N-]C(=O)c1ccc(C[N-]C(=O)Cc2ccccc2)c(O)c1 (optimized conformer: 54.9834902395278 kcal/mol)

>  <smiles>  (41) 
Nc1ccc(F)cc1NC(=O)c1ccc(CNC(=O)Cc2ccccc2)c(O)c1

>  <score_type>  (41) 
oracle

>  <origin>  (41) 
adg

>  <m_score__min__energy>  (41) 
-12.18

>  <m_primary>  (41) 
energy

$$$$
41:0
     RDKit          3D

 36 38  0  0  1  0  0  0  0  0999 V2000
   55.9740   25.8560   46.3840 N   0  0  0  0  0  0  0  0  0  0  0  0
   56.6460   26.9250   46.1530 C   0  0  0  0  0  0  0  0  0  0  0  0
   57.9090   26.9830   46.6490 N   0  0  0  0  0  0  0  0  0  0  0  0
   58.6200   28.1010   46.4100 C   0  0  0  0  0  0  0  0  0  0  0  0
   60.2610   28.2000   47.0430 Cl  0  0  0  0  0  0  0  0  0  0  0  0
   58.1380   29.1740   45.6980 C   0  0  0  0  0  0  0  0  0  0  0  0
   56.8350   29.0580   45.2140 C   0  0  0  0  0  0  0  0  0  0  0  0
   56.3610   30.0450   44.5460 N   0  0  0  0  0  0  0  0  0  0  0  0
   57.1160   31.2410   44.3550 C   0  0  0  0  0  0  0  0  0  0  0  0
   57.5200   31.5610   43.0760 C   0  0  0  0  0  0  0  0  0  0  0  0
   58.2460   32.7150   42.9160 C   0  0  0  0  0  0  0  0  0  0  0  0
   58.5620   33.5280   43.9830 C   0  0  0  0  0  0  0  0  0  0  0  0
   58.1630   33.2240   45.2910 C   0  0  0  0  0  0  0  0  0  0  0  0
   58.4940   34.0970   46.3440 N   0  0  0  0  0  0  0  0  0  0  0  0
   59.6310   34.0580   47.1580 C   0  0  0  0  0  0  0  0  0  0  0  0
   59.6440   34.2630   48.5220 C   0  0  0  0  0  0  0  0  0  0  0  0
   60.8000   34.2300   49.2810 C   0  0  0  0  0  0  0  0  0  0  0  0
   62.0230   33.9840   48.6940 C   0  0  0  0  0  0  0  0  0  0  0  0
   62.0380   33.7750   47.3300 C   0  0  0  0  0  0  0  0  0  0  0  0
   60.8820   33.8100   46.5800 C   0  0  0  0  0  0  0  0  0  0  0  0
   57.4360   32.0620   45.4310 C   0  0  0  0  0  0  0  0  0  0  0  0
   56.1190   27.9430   45.4490 N   0  0  0  0  0  0  0  0  0  0  0  0
   55.5400   25.7200   47.3210 H   0  0  0  0  0  0  0  0  0  0  0  0
   58.2860   26.1830   47.1870 H   0  0  0  0  0  0  0  0  0  0  0  0
   58.7458   30.0734   45.5201 H   0  0  0  0  0  0  0  0  0  0  0  0
   57.2707   30.9179   42.2191 H   0  0  0  0  0  0  0  0  0  0  0  0
   58.5848   32.9986   41.9086 H   0  0  0  0  0  0  0  0  0  0  0  0
   59.1450   34.4431   43.8022 H   0  0  0  0  0  0  0  0  0  0  0  0
   57.7930   34.8770   46.5390 H   0  0  0  0  0  0  0  0  0  0  0  0
   58.6892   34.4623   49.0306 H   0  0  0  0  0  0  0  0  0  0  0  0
   60.7428   34.4021   50.3659 H   0  0  0  0  0  0  0  0  0  0  0  0
   62.9483   33.9555   49.2882 H   0  0  0  0  0  0  0  0  0  0  0  0
   62.9966   33.5755   46.8287 H   0  0  0  0  0  0  0  0  0  0  0  0
   60.9441   33.6380   45.4953 H   0  0  0  0  0  0  0  0  0  0  0  0
   57.0945   31.7716   46.4355 H   0  0  0  0  0  0  0  0  0  0  0  0
   55.1500   27.8530   45.0900 H   0  0  0  0  0  0  0  0  0  0  0  0
  1  2  2  3
  2  3  1  0
  3  4  1  0
  4  5  1  0
  4  6  2  0
  6  7  1  0
  7  8  2  0
  8  9  1  0
  9 10  2  0
 10 11  1  0
 11 12  2  0
 12 13  1  0
 13 14  1  0
 14 15  1  0
 15 16  2  0
 16 17  1  0
 17 18  2  0
 18 19  1  0
 19 20  2  0
 13 21  2  0
  7 22  1  0
 22  2  1  0
 21  9  1  0
 20 15  1  0
  1 23  1  0
  3 24  1  0
  6 25  1  0
 10 26  1  0
 11 27  1  0
 12 28  1  0
 14 29  1  0
 16 30  1  0
 17 31  1  0
 18 32  1  0
 19 33  1  0
 20 34  1  0
 21 35  1  0
 22 36  1  0
M  END
>  <smiles>  (42) 
N=c1[nH]c(Cl)cc(=Nc2cccc(Nc3ccccc3)c2)[nH]1

>  <score_type>  (42) 
oracle

>  <origin>  (42) 
adg

>  <m_score__min__energy>  (42) 
-8.3599999999999994

>  <m_primary>  (42) 
energy

$$$$
42:0
     RDKit          3D

 51 54  0  0  0  0  0  0  0  0999 V2000
   56.9295   31.8931   42.1968 H   0  0  0  0  0  0  0  0  0  0  0  0
   57.0270   30.9230   42.7060 C   0  0  0  0  0  0  0  0  0  0  0  0
   57.5235   30.0828   42.1984 H   0  0  0  0  0  0  0  0  0  0  0  0
   56.5420   30.7650   43.9420 C   0  0  0  0  0  0  0  0  0  0  0  0
   56.0467   31.6093   44.4438 H   0  0  0  0  0  0  0  0  0  0  0  0
   56.6660   29.4460   44.6540 C   0  0  0  0  0  0  0  0  0  0  0  0
   55.9051   29.3912   45.4465 H   0  0  0  0  0  0  0  0  0  0  0  0
   56.5182   28.6364   43.9241 H   0  0  0  0  0  0  0  0  0  0  0  0
   58.0360   29.2960   45.2720 C   0  0  0  0  0  0  0  0  0  0  0  0
   58.7110   30.4500   45.7040 C   0  0  0  0  0  0  0  0  0  0  0  0
   58.2470   31.4364   45.5563 H   0  0  0  0  0  0  0  0  0  0  0  0
   59.9680   30.3630   46.3210 C   0  0  0  0  0  0  0  0  0  0  0  0
   60.6760   31.5830   46.7550 C   0  0  0  0  0  0  0  0  0  0  0  0
   61.8100   31.4880   47.2970 O   0  0  0  0  0  0  0  0  0  0  0  0
   60.1130   32.8790   46.5420 N   0  0  0  0  0  0  0  0  0  0  0  0
   60.4770   34.2700   46.8660 C   0  0  0  0  0  0  0  0  0  0  0  0
   60.3997   34.4893   47.9412 H   0  0  0  0  0  0  0  0  0  0  0  0
   61.5088   34.5812   46.6457 H   0  0  0  0  0  0  0  0  0  0  0  0
   59.3910   34.9100   46.0690 C   0  0  0  0  0  0  0  0  0  0  0  0
   58.6440   35.4714   46.6494 H   0  0  0  0  0  0  0  0  0  0  0  0
   59.5631   35.6854   45.3080 H   0  0  0  0  0  0  0  0  0  0  0  0
   59.0310   33.4970   45.7520 C   0  0  0  0  0  0  0  0  0  0  0  0
   58.0298   33.2222   46.1153 H   0  0  0  0  0  0  0  0  0  0  0  0
   58.9675   33.2226   44.6887 H   0  0  0  0  0  0  0  0  0  0  0  0
   60.5340   29.1010   46.5460 C   0  0  0  0  0  0  0  0  0  0  0  0
   61.5048   29.0199   47.0569 H   0  0  0  0  0  0  0  0  0  0  0  0
   59.8720   27.9460   46.1250 C   0  0  0  0  0  0  0  0  0  0  0  0
   60.3292   26.9611   46.3007 H   0  0  0  0  0  0  0  0  0  0  0  0
   58.6310   28.0300   45.4810 C   0  0  0  0  0  0  0  0  0  0  0  0
   57.9880   26.8210   45.0420 N   0  0  0  0  0  0  0  0  0  0  0  0
   57.9680   26.3630   43.7740 C   0  0  0  0  0  0  0  0  0  0  0  0
   58.5380   27.0890   42.5940 C   0  0  0  0  0  0  0  0  0  0  0  0
   59.1819   27.9092   42.9442 H   0  0  0  0  0  0  0  0  0  0  0  0
   59.1317   26.3908   41.9857 H   0  0  0  0  0  0  0  0  0  0  0  0
   57.7189   27.5001   41.9857 H   0  0  0  0  0  0  0  0  0  0  0  0
   57.3050   25.1550   43.7130 C   0  0  0  0  0  0  0  0  0  0  0  0
   57.1560   24.5347   42.8169 H   0  0  0  0  0  0  0  0  0  0  0  0
   56.8620   24.8710   44.9960 C   0  0  0  0  0  0  0  0  0  0  0  0
   56.1190   23.7850   45.2850 C   0  0  0  0  0  0  0  0  0  0  0  0
   56.6540   22.8312   45.4032 H   0  0  0  0  0  0  0  0  0  0  0  0
   54.6590   23.7570   45.4570 C   0  0  0  0  0  0  0  0  0  0  0  0
   53.9110   22.6580   45.2630 N   0  0  0  0  0  0  0  0  0  0  0  0
   52.6460   23.1200   45.3650 C   0  0  0  0  0  0  0  0  0  0  0  0
   51.6410   22.3690   45.2590 O   0  0  0  0  0  0  0  0  0  0  0  0
   52.5400   24.4480   45.5780 N   0  0  0  0  0  0  0  0  0  0  0  0
   53.8230   24.8400   45.6180 C   0  0  0  0  0  0  0  0  0  0  0  0
   54.2200   26.1660   45.7570 O   0  0  0  0  0  0  0  0  0  0  0  0
   57.3300   25.9170   45.8110 C   0  0  0  0  0  0  0  0  0  0  0  0
   57.2640   26.0020   47.1490 C   0  0  0  0  0  0  0  0  0  0  0  0
   57.6724   26.8835   47.6649 H   0  0  0  0  0  0  0  0  0  0  0  0
   56.8015   25.1902   47.7295 H   0  0  0  0  0  0  0  0  0  0  0  0
  1  2  1  0
  2  3  1  0
  2  4  2  0
  4  5  1  0
  4  6  1  0
  6  7  1  0
  6  8  1  0
  6  9  1  0
  9 10  2  0
 10 11  1  0
 10 12  1  0
 12 13  1  0
 13 14  2  0
 13 15  1  0
 15 16  1  0
 16 17  1  0
 16 18  1  0
 16 19  1  0
 19 20  1  0
 19 21  1  0
 19 22  1  0
 22 23  1  0
 22 24  1  0
 12 25  2  0
 25 26  1  0
 25 27  1  0
 27 28  1  0
 27 29  2  0
 29 30  1  0
 30 31  1  0
 31 32  1  0
 32 33  1  0
 32 34  1  0
 32 35  1  0
 31 36  2  0
 36 37  1  0
 36 38  1  0
 38 39  2  0
 39 40  1  0
 39 41  1  0
 41 42  1  0
 42 43  1  0
 43 44  2  0
 43 45  1  0
 45 46  1  0
 46 47  1  0
 38 48  1  0
 48 49  2  0
 49 50  1  0
 49 51  1  0
 29  9  1  0
 48 30  1  0
 22 15  1  0
 46 41  2  0
M  CHG  3  42  -1  45  -1  47  -1
M  END
>  <UniqueID>  (43) 
38

>  <SMILES>  (43) 
C=CCc1cc(C(=O)N2CCC2)ccc1-n1c(C)c/c(=C/c2[n-]c(=O)[n-]c2[O-])c1=C

>  <Energy>  (43) 
173.37372161381035

>  <Genealogy>  (43) 
C=CCc1cc(C(=O)N2CCC2)ccc1-n1c(C)cc(=Cc2[n-]c(=O)[n-]c2[O-])c1=C (protonated)
C=CCc1cc(C(=O)N2CCC2)ccc1-n1c(C)c/c(=C/c2[n-]c(=O)[n-]c2[O-])c1=C (cis-trans isomerization)
C=CCc1cc(C(=O)N2CCC2)ccc1-n1c(C)c/c(=C/c2[n-]c(=O)[n-]c2[O-])c1=C (3D coordinates assigned)
C=CCc1cc(C(=O)N2CCC2)ccc1-n1c(C)c/c(=C/c2[n-]c(=O)[n-]c2[O-])c1=C (nonaromatic ring conformer: 173.37372161381035 kcal/mol)

>  <smiles>  (43) 
C=CCc1cc(C(=O)N2CCC2)ccc1-n1c(C)cc(=Cc2[nH]c(=O)[nH]c2O)c1=C

>  <score_type>  (43) 
oracle

>  <origin>  (43) 
adg

>  <m_score__min__energy>  (43) 
-15.9

>  <m_primary>  (43) 
energy

$$$$
43:0
     RDKit          3D

 48 51  0  0  0  0  0  0  0  0999 V2000
   57.4060   29.5910   50.4080 H   0  0  0  0  0  0  0  0  0  0  0  0
   57.4100   30.1100   51.2790 O   0  0  0  0  0  0  0  0  0  0  0  0
   58.1620   31.2750   51.4300 C   0  0  0  0  0  0  0  0  0  0  0  0
   58.5570   31.6840   52.7100 C   0  0  0  0  0  0  0  0  0  0  0  0
   58.2872   31.0776   53.5872 H   0  0  0  0  0  0  0  0  0  0  0  0
   59.2940   32.8620   52.8760 C   0  0  0  0  0  0  0  0  0  0  0  0
   59.5862   33.1886   53.8849 H   0  0  0  0  0  0  0  0  0  0  0  0
   59.6600   33.6250   51.7630 C   0  0  0  0  0  0  0  0  0  0  0  0
   60.2306   34.5557   51.8981 H   0  0  0  0  0  0  0  0  0  0  0  0
   59.2980   33.2020   50.4670 C   0  0  0  0  0  0  0  0  0  0  0  0
   59.6200   33.9710   49.2970 N   0  0  0  0  0  0  0  0  0  0  0  0
   60.6780   33.8580   48.5450 C   0  0  0  0  0  0  0  0  0  0  0  0
   61.9040   33.6550   49.1070 N   0  0  0  0  0  0  0  0  0  0  0  0
   63.0260   33.4700   48.3650 C   0  0  0  0  0  0  0  0  0  0  0  0
   63.9969   33.3251   48.8614 H   0  0  0  0  0  0  0  0  0  0  0  0
   62.9460   33.4640   46.9750 C   0  0  0  0  0  0  0  0  0  0  0  0
   63.8497   33.3091   46.3673 H   0  0  0  0  0  0  0  0  0  0  0  0
   61.7110   33.6560   46.3620 C   0  0  0  0  0  0  0  0  0  0  0  0
   61.6390   33.6433   45.2644 H   0  0  0  0  0  0  0  0  0  0  0  0
   60.5550   33.8660   47.1340 C   0  0  0  0  0  0  0  0  0  0  0  0
   59.2510   34.0550   46.4510 C   0  0  0  0  0  0  0  0  0  0  0  0
   58.9800   35.1700   45.9300 O   0  0  0  0  0  0  0  0  0  0  0  0
   58.2890   32.9890   46.4090 N   0  0  0  0  0  0  0  0  0  0  0  0
   57.9280   32.3520   45.3360 C   0  0  0  0  0  0  0  0  0  0  0  0
   57.0310   31.3420   45.3230 N   0  0  0  0  0  0  0  0  0  0  0  0
   56.7720   30.9230   44.0580 C   0  0  0  0  0  0  0  0  0  0  0  0
   55.7170   29.8950   43.7770 C   0  0  0  0  0  0  0  0  0  0  0  0
   56.0154   29.3019   42.9000 H   0  0  0  0  0  0  0  0  0  0  0  0
   54.7644   30.4099   43.5836 H   0  0  0  0  0  0  0  0  0  0  0  0
   55.5450   29.0030   44.9240 N   0  0  0  0  0  0  0  0  0  0  0  0
   56.5320   28.1030   45.4480 C   0  0  0  0  0  0  0  0  0  0  0  0
   56.1740   26.9460   45.7930 O   0  0  0  0  0  0  0  0  0  0  0  0
   57.9390   28.5000   45.6430 C   0  0  0  0  0  0  0  0  0  0  0  0
   58.3590   29.0920   46.8450 C   0  0  0  0  0  0  0  0  0  0  0  0
   57.6333   29.2675   47.6528 H   0  0  0  0  0  0  0  0  0  0  0  0
   59.6970   29.4590   47.0180 C   0  0  0  0  0  0  0  0  0  0  0  0
   60.0217   29.9250   47.9600 H   0  0  0  0  0  0  0  0  0  0  0  0
   60.6230   29.2340   45.9940 C   0  0  0  0  0  0  0  0  0  0  0  0
   61.6772   29.5150   46.1344 H   0  0  0  0  0  0  0  0  0  0  0  0
   60.2090   28.6520   44.7920 C   0  0  0  0  0  0  0  0  0  0  0  0
   60.9379   28.4750   43.9874 H   0  0  0  0  0  0  0  0  0  0  0  0
   58.8700   28.2950   44.6120 C   0  0  0  0  0  0  0  0  0  0  0  0
   58.5442   27.8519   43.6594 H   0  0  0  0  0  0  0  0  0  0  0  0
   57.4640   31.6000   43.0560 C   0  0  0  0  0  0  0  0  0  0  0  0
   57.3929   31.4050   41.9758 H   0  0  0  0  0  0  0  0  0  0  0  0
   58.4290   32.7700   43.7900 S   0  0  0  0  0  0  0  0  0  0  0  0
   58.5220   32.0420   50.3130 C   0  0  0  0  0  0  0  0  0  0  0  0
   58.1944   31.7330   49.3094 H   0  0  0  0  0  0  0  0  0  0  0  0
  1  2  1  0
  2  3  1  0
  3  4  2  0
  4  5  1  0
  4  6  1  0
  6  7  1  0
  6  8  2  0
  8  9  1  0
  8 10  1  0
 10 11  1  0
 11 12  2  0
 12 13  1  0
 13 14  1  0
 14 15  1  0
 14 16  2  0
 16 17  1  0
 16 18  1  0
 18 19  1  0
 18 20  2  0
 20 21  1  0
 21 22  2  0
 21 23  1  0
 23 24  2  3
 24 25  1  0
 25 26  1  0
 26 27  1  0
 27 28  1  0
 27 29  1  0
 27 30  1  0
 30 31  1  0
 31 32  2  0
 31 33  1  0
 33 34  2  0
 34 35  1  0
 34 36  1  0
 36 37  1  0
 36 38  2  0
 38 39  1  0
 38 40  1  0
 40 41  1  0
 40 42  2  0
 42 43  1  0
 26 44  2  0
 44 45  1  0
 44 46  1  0
 10 47  2  0
 47 48  1  0
 47  3  1  0
 20 12  1  0
 46 24  1  0
 42 33  1  0
M  CHG  3  13  -1  25  -1  30  -1
M  END
>  <UniqueID>  (44) 
39

>  <SMILES>  (44) 
O=C([N-]Cc1csc(=NC(=O)c2ccc[n-]/c2=N\c2cccc(O)c2)[n-]1)c1ccccc1

>  <Energy>  (44) 
93.76685909760225

>  <Genealogy>  (44) 
O=C([N-]Cc1csc(=NC(=O)c2ccc[n-]c2=Nc2cccc(O)c2)[n-]1)c1ccccc1 (protonated)
O=C([N-]Cc1csc(=NC(=O)c2ccc[n-]/c2=N\c2cccc(O)c2)[n-]1)c1ccccc1 (cis-trans isomerization)
O=C([N-]Cc1csc(=NC(=O)c2ccc[n-]/c2=N\c2cccc(O)c2)[n-]1)c1ccccc1 (3D coordinates assigned)
O=C([N-]Cc1csc(=NC(=O)c2ccc[n-]/c2=N\c2cccc(O)c2)[n-]1)c1ccccc1 (optimized conformer: 93.76685909760225 kcal/mol)

>  <smiles>  (44) 
O=C(NCc1csc(=NC(=O)c2ccc[nH]c2=Nc2cccc(O)c2)[nH]1)c1ccccc1

>  <score_type>  (44) 
oracle

>  <origin>  (44) 
adg

>  <m_score__min__energy>  (44) 
-13.74

>  <m_primary>  (44) 
energy

$$$$
44:0
     RDKit          3D

 61 64  0  0  0  0  0  0  0  0999 V2000
   56.9920   21.0040   44.5000 C   0  0  0  0  0  0  0  0  0  0  0  0
   58.0150   21.8670   45.1770 C   0  0  0  0  0  0  0  0  0  0  0  0
   58.8480   21.3180   45.9510 O   0  0  0  0  0  0  0  0  0  0  0  0
   58.0690   23.2960   44.9460 N   0  0  0  0  0  0  0  0  0  0  0  0
   57.1990   23.9170   43.9300 C   0  0  0  0  0  0  0  0  0  0  0  0
   57.6510   25.3380   43.5790 C   0  0  0  0  0  0  0  0  0  0  0  0
   57.8990   26.1320   44.7930 N   0  0  0  0  0  0  0  0  0  0  0  0
   57.6600   27.5590   44.7980 C   0  0  0  0  0  0  0  0  0  0  0  0
   57.3880   28.2460   43.5990 C   0  0  0  0  0  0  0  0  0  0  0  0
   57.1170   29.6190   43.6020 C   0  0  0  0  0  0  0  0  0  0  0  0
   57.1360   30.3430   44.8090 C   0  0  0  0  0  0  0  0  0  0  0  0
   56.8430   31.7500   44.8870 N   0  0  0  0  0  0  0  0  0  0  0  0
   57.7360   32.8730   44.8230 C   0  0  0  0  0  0  0  0  0  0  0  0
   57.8350   33.5570   43.7650 O   0  0  0  0  0  0  0  0  0  0  0  0
   58.5660   33.2230   46.0000 C   0  0  0  0  0  0  0  0  0  0  0  0
   58.3190   32.6270   47.2480 C   0  0  0  0  0  0  0  0  0  0  0  0
   59.1180   32.9370   48.3530 C   0  0  0  0  0  0  0  0  0  0  0  0
   60.1570   33.8730   48.2400 C   0  0  0  0  0  0  0  0  0  0  0  0
   61.0430   34.1790   49.4220 C   0  0  0  0  0  0  0  0  0  0  0  0
   62.3880   34.5580   48.9880 N   0  0  0  0  0  0  0  0  0  0  0  0
   63.2650   33.1790   48.3980 S   0  0  0  0  0  0  0  0  0  0  0  0
   63.7960   33.4600   47.0200 O   0  0  0  0  0  0  0  0  0  0  0  0
   64.4280   32.9080   49.3100 O   0  0  0  0  0  0  0  0  0  0  0  0
   62.2110   31.7680   48.3780 C   0  0  0  0  0  0  0  0  0  0  0  0
   61.7270   31.2810   47.1540 C   0  0  0  0  0  0  0  0  0  0  0  0
   60.9040   30.1510   47.1260 C   0  0  0  0  0  0  0  0  0  0  0  0
   60.5590   29.5050   48.3180 C   0  0  0  0  0  0  0  0  0  0  0  0
   61.0390   29.9870   49.5380 C   0  0  0  0  0  0  0  0  0  0  0  0
   61.8660   31.1130   49.5700 C   0  0  0  0  0  0  0  0  0  0  0  0
   60.4110   34.4660   46.9940 C   0  0  0  0  0  0  0  0  0  0  0  0
   59.6230   34.1450   45.8840 C   0  0  0  0  0  0  0  0  0  0  0  0
   57.3980   29.6620   46.0030 C   0  0  0  0  0  0  0  0  0  0  0  0
   57.6520   28.2880   46.0020 C   0  0  0  0  0  0  0  0  0  0  0  0
   58.5170   25.4930   45.9680 C   0  0  0  0  0  0  0  0  0  0  0  0
   59.0830   24.1100   45.6340 C   0  0  0  0  0  0  0  0  0  0  0  0
   56.3841   20.4912   45.2599 H   0  0  0  0  0  0  0  0  0  0  0  0
   56.3417   21.6304   43.8718 H   0  0  0  0  0  0  0  0  0  0  0  0
   57.4999   20.2574   43.8718 H   0  0  0  0  0  0  0  0  0  0  0  0
   57.2221   23.3016   43.0185 H   0  0  0  0  0  0  0  0  0  0  0  0
   56.1817   23.9765   44.3441 H   0  0  0  0  0  0  0  0  0  0  0  0
   58.5782   25.2844   42.9895 H   0  0  0  0  0  0  0  0  0  0  0  0
   56.8519   25.8252   43.0010 H   0  0  0  0  0  0  0  0  0  0  0  0
   57.3886   27.6956   42.6466 H   0  0  0  0  0  0  0  0  0  0  0  0
   56.8883   30.1344   42.6575 H   0  0  0  0  0  0  0  0  0  0  0  0
   57.4909   31.9111   47.3568 H   0  0  0  0  0  0  0  0  0  0  0  0
   58.9305   32.4433   49.3180 H   0  0  0  0  0  0  0  0  0  0  0  0
   60.6034   35.0085   49.9953 H   0  0  0  0  0  0  0  0  0  0  0  0
   61.1185   33.2757   50.0452 H   0  0  0  0  0  0  0  0  0  0  0  0
   61.9954   31.7887   46.2158 H   0  0  0  0  0  0  0  0  0  0  0  0
   60.5273   29.7695   46.1655 H   0  0  0  0  0  0  0  0  0  0  0  0
   59.9097   28.6174   48.2945 H   0  0  0  0  0  0  0  0  0  0  0  0
   60.7656   29.4795   50.4749 H   0  0  0  0  0  0  0  0  0  0  0  0
   62.2474   31.4867   50.5317 H   0  0  0  0  0  0  0  0  0  0  0  0
   61.2347   35.1876   46.8896 H   0  0  0  0  0  0  0  0  0  0  0  0
   59.8311   34.6170   44.9124 H   0  0  0  0  0  0  0  0  0  0  0  0
   57.4041   30.2150   46.9539 H   0  0  0  0  0  0  0  0  0  0  0  0
   57.8479   27.7704   46.9526 H   0  0  0  0  0  0  0  0  0  0  0  0
   59.3340   26.1331   46.3324 H   0  0  0  0  0  0  0  0  0  0  0  0
   57.7395   25.3669   46.7359 H   0  0  0  0  0  0  0  0  0  0  0  0
   59.9604   24.2251   44.9806 H   0  0  0  0  0  0  0  0  0  0  0  0
   59.3724   23.6066   46.5683 H   0  0  0  0  0  0  0  0  0  0  0  0
  1  2  1  0
  2  3  2  0
  2  4  1  0
  4  5  1  0
  5  6  1  0
  6  7  1  0
  7  8  1  0
  8  9  2  0
  9 10  1  0
 10 11  2  0
 11 12  1  0
 12 13  1  0
 13 14  2  0
 13 15  1  0
 15 16  2  0
 16 17  1  0
 17 18  2  0
 18 19  1  0
 19 20  1  0
 20 21  1  0
 21 22  2  0
 21 23  2  0
 21 24  1  0
 24 25  2  0
 25 26  1  0
 26 27  2  0
 27 28  1  0
 28 29  2  0
 18 30  1  0
 30 31  2  0
 11 32  1  0
 32 33  2  0
  7 34  1  0
 34 35  1  0
 35  4  1  0
 33  8  1  0
 31 15  1  0
 29 24  1  0
  1 36  1  0
  1 37  1  0
  1 38  1  0
  5 39  1  0
  5 40  1  0
  6 41  1  0
  6 42  1  0
  9 43  1  0
 10 44  1  0
 16 45  1  0
 17 46  1  0
 19 47  1  0
 19 48  1  0
 25 49  1  0
 26 50  1  0
 27 51  1  0
 28 52  1  0
 29 53  1  0
 30 54  1  0
 31 55  1  0
 32 56  1  0
 33 57  1  0
 34 58  1  0
 34 59  1  0
 35 60  1  0
 35 61  1  0
M  CHG  2  12  -1  20  -1
M  END
>  <UniqueID>  (45) 
40

>  <SMILES>  (45) 
CC(=O)N1CCN(c2ccc([N-]C(=O)c3ccc(C[N-]S(=O)(=O)c4ccccc4)cc3)cc2)CC1

>  <Energy>  (45) 
71.81551774996606

>  <Genealogy>  (45) 
CC(=O)N1CCN(c2ccc([N-]C(=O)c3ccc(C[N-]S(=O)(=O)c4ccccc4)cc3)cc2)CC1 (protonated)
CC(=O)N1CCN(c2ccc([N-]C(=O)c3ccc(C[N-]S(=O)(=O)c4ccccc4)cc3)cc2)CC1 (3D coordinates assigned)
CC(=O)N1CCN(c2ccc([N-]C(=O)c3ccc(C[N-]S(=O)(=O)c4ccccc4)cc3)cc2)CC1 (nonaromatic ring conformer: 71.81551774996606 kcal/mol)

>  <smiles>  (45) 
CC(=O)N1CCN(c2ccc(NC(=O)c3ccc(CNS(=O)(=O)c4ccccc4)cc3)cc2)CC1

>  <score_type>  (45) 
oracle

>  <origin>  (45) 
adg

>  <m_score__min__energy>  (45) 
-12.93

>  <m_primary>  (45) 
energy

$$$$
45:0
     RDKit          3D

 54 56  0  0  0  0  0  0  0  0999 V2000
   57.7510   34.1630   44.8560 C   0  0  0  0  0  0  0  0  0  0  0  0
   58.2290   33.3730   46.0440 C   0  0  0  0  0  0  0  0  0  0  0  0
   58.6740   34.0850   47.1830 C   0  0  0  0  0  0  0  0  0  0  0  0
   59.1810   33.4140   48.3100 C   0  0  0  0  0  0  0  0  0  0  0  0
   59.2650   32.0190   48.3240 C   0  0  0  0  0  0  0  0  0  0  0  0
   58.8290   31.3270   47.2000 C   0  0  0  0  0  0  0  0  0  0  0  0
   58.8110   29.9740   46.9860 C   0  0  0  0  0  0  0  0  0  0  0  0
   58.2750   29.8050   45.7180 C   0  0  0  0  0  0  0  0  0  0  0  0
   58.0790   28.4330   45.1000 C   0  0  2  0  0  0  0  0  0  0  0  0
   56.6760   28.0230   45.1850 N   0  0  0  0  0  0  0  0  0  0  0  0
   59.0110   27.3920   45.7530 C   0  0  0  0  0  0  0  0  0  0  0  0
   58.2860   26.1030   46.0500 C   0  0  0  0  0  0  0  0  0  0  0  0
   58.1250   25.1370   45.0450 C   0  0  0  0  0  0  0  0  0  0  0  0
   57.4340   23.9510   45.3100 C   0  0  0  0  0  0  0  0  0  0  0  0
   56.8810   23.7220   46.5790 C   0  0  0  0  0  0  0  0  0  0  0  0
   56.1680   22.4320   46.8770 C   0  0  0  0  0  0  0  0  0  0  0  0
   54.7470   22.6970   47.1060 N   0  0  0  0  0  0  0  0  0  0  0  0
   54.0880   23.6060   45.7810 S   0  0  0  0  0  0  0  0  0  0  0  0
   52.3210   23.4030   45.7070 C   0  0  0  0  0  0  0  0  0  0  0  0
   54.4200   25.0650   45.9340 O   0  0  0  0  0  0  0  0  0  0  0  0
   54.6850   23.1000   44.4970 O   0  0  0  0  0  0  0  0  0  0  0  0
   57.0480   24.6840   47.5870 C   0  0  0  0  0  0  0  0  0  0  0  0
   57.7400   25.8700   47.3220 C   0  0  0  0  0  0  0  0  0  0  0  0
   57.9640   31.0140   45.1550 N   0  0  0  0  0  0  0  0  0  0  0  0
   57.2770   31.2170   43.8690 C   0  0  0  0  0  0  0  0  0  0  0  0
   56.1480   30.2450   43.6860 C   0  0  0  0  0  0  0  0  0  0  0  0
   55.2040   30.0140   44.7310 N   0  0  0  0  0  0  0  0  0  0  0  0
   56.0510   29.6020   42.6070 O   0  0  0  0  0  0  0  0  0  0  0  0
   58.3170   31.9530   46.0820 C   0  0  0  0  0  0  0  0  0  0  0  0
   57.2106   35.0561   45.2029 H   0  0  0  0  0  0  0  0  0  0  0  0
   58.6149   34.4702   44.2483 H   0  0  0  0  0  0  0  0  0  0  0  0
   57.0780   33.5403   44.2483 H   0  0  0  0  0  0  0  0  0  0  0  0
   58.6224   35.1838   47.1869 H   0  0  0  0  0  0  0  0  0  0  0  0
   59.5135   33.9905   49.1858 H   0  0  0  0  0  0  0  0  0  0  0  0
   59.6643   31.4845   49.1986 H   0  0  0  0  0  0  0  0  0  0  0  0
   59.1504   29.1868   47.6752 H   0  0  0  0  0  0  0  0  0  0  0  0
   58.3483   28.4939   44.0352 H   0  0  0  0  0  0  0  0  0  0  0  0
   56.2310   28.1590   44.2500 H   0  0  0  0  0  0  0  0  0  0  0  0
   56.1800   28.6780   45.8330 H   0  0  0  0  0  0  0  0  0  0  0  0
   59.8459   27.1819   45.0684 H   0  0  0  0  0  0  0  0  0  0  0  0
   59.3761   27.8072   46.7040 H   0  0  0  0  0  0  0  0  0  0  0  0
   58.5446   25.3138   44.0437 H   0  0  0  0  0  0  0  0  0  0  0  0
   57.3233   23.1937   44.5199 H   0  0  0  0  0  0  0  0  0  0  0  0
   56.2796   21.7467   46.0238 H   0  0  0  0  0  0  0  0  0  0  0  0
   56.6035   21.9739   47.7773 H   0  0  0  0  0  0  0  0  0  0  0  0
   54.2440   21.7790   47.1210 H   0  0  0  0  0  0  0  0  0  0  0  0
   51.9142   23.3563   46.7280 H   0  0  0  0  0  0  0  0  0  0  0  0
   51.8759   24.2559   45.1737 H   0  0  0  0  0  0  0  0  0  0  0  0
   52.0810   22.4714   45.1737 H   0  0  0  0  0  0  0  0  0  0  0  0
   56.6329   24.5044   48.5897 H   0  0  0  0  0  0  0  0  0  0  0  0
   57.8570   26.6240   48.1143 H   0  0  0  0  0  0  0  0  0  0  0  0
   56.8755   32.2406   43.8365 H   0  0  0  0  0  0  0  0  0  0  0  0
   58.0051   31.0546   43.0606 H   0  0  0  0  0  0  0  0  0  0  0  0
   54.7840   29.0690   44.8760 H   0  0  0  0  0  0  0  0  0  0  0  0
  1  2  1  0
  2  3  2  0
  3  4  1  0
  4  5  2  0
  5  6  1  0
  6  7  1  0
  7  8  2  0
  8  9  1  0
  9 10  1  0
  9 11  1  0
 11 12  1  0
 12 13  2  0
 13 14  1  0
 14 15  2  0
 15 16  1  0
 16 17  1  0
 17 18  1  0
 18 19  1  0
 18 20  2  0
 18 21  2  0
 15 22  1  0
 22 23  2  0
  8 24  1  0
 24 25  1  0
 25 26  1  0
 26 27  1  0
 26 28  2  0
 24 29  1  0
 29  2  1  0
 29  6  2  0
 23 12  1  0
  1 30  1  0
  1 31  1  0
  1 32  1  0
  3 33  1  0
  4 34  1  0
  5 35  1  0
  7 36  1  0
  9 37  1  6
 10 38  1  0
 10 39  1  0
 11 40  1  0
 11 41  1  0
 13 42  1  0
 14 43  1  0
 16 44  1  0
 16 45  1  0
 17 46  1  0
 19 47  1  0
 19 48  1  0
 19 49  1  0
 22 50  1  0
 23 51  1  0
 25 52  1  0
 25 53  1  0
 27 54  1  0
M  CHG  1  27  -1
M  END
>  <UniqueID>  (46) 
41

>  <SMILES>  (46) 
Cc1cccc2cc([C@H](N)Cc3ccc(CNS(C)(=O)=O)cc3)n(CC([NH-])=O)c12

>  <Energy>  (46) 
83.29368628135184

>  <Genealogy>  (46) 
Cc1cccc2cc(C(N)Cc3ccc(CNS(C)(=O)=O)cc3)n(CC([NH-])=O)c12 (protonated)
Cc1cccc2cc([C@H](N)Cc3ccc(CNS(C)(=O)=O)cc3)n(CC([NH-])=O)c12 (chirality)
Cc1cccc2cc([C@H](N)Cc3ccc(CNS(C)(=O)=O)cc3)n(CC([NH-])=O)c12 (3D coordinates assigned)
Cc1cccc2cc([C@H](N)Cc3ccc(CNS(C)(=O)=O)cc3)n(CC([NH-])=O)c12 (optimized conformer: 83.29368628135184 kcal/mol)

>  <smiles>  (46) 
Cc1cccc2cc(C(N)Cc3ccc(CNS(C)(=O)=O)cc3)n(CC(N)=O)c12

>  <score_type>  (46) 
oracle

>  <origin>  (46) 
adg

>  <m_score__min__energy>  (46) 
-12.279999999999999

>  <m_primary>  (46) 
energy

$$$$
46:0
     RDKit          3D

 67 72  0  0  0  0  0  0  0  0999 V2000
   56.5680   23.0240   46.0540 H   0  0  0  0  0  0  0  0  0  0  0  0
   55.7590   22.4320   46.1950 O   0  0  0  0  0  0  0  0  0  0  0  0
   54.4480   22.9070   46.1130 C   0  0  0  0  0  0  0  0  0  0  0  0
   53.4240   22.0240   46.4720 C   0  0  0  0  0  0  0  0  0  0  0  0
   53.6712   21.0692   46.9591 H   0  0  0  0  0  0  0  0  0  0  0  0
   52.0920   22.3470   46.2160 C   0  0  0  0  0  0  0  0  0  0  0  0
   51.2868   21.6514   46.4948 H   0  0  0  0  0  0  0  0  0  0  0  0
   51.7940   23.5610   45.6030 C   0  0  0  0  0  0  0  0  0  0  0  0
   50.7536   23.8043   45.3414 H   0  0  0  0  0  0  0  0  0  0  0  0
   52.7880   24.4450   45.3280 N   0  0  0  0  0  0  0  0  0  0  0  0
   54.0970   24.1920   45.6040 C   0  0  0  0  0  0  0  0  0  0  0  0
   54.9500   25.1580   45.3960 N   0  0  0  0  0  0  0  0  0  0  0  0
   56.3540   25.0780   45.1160 C   0  0  0  0  0  0  0  0  0  0  0  0
   56.7590   24.3760   44.1500 O   0  0  0  0  0  0  0  0  0  0  0  0
   57.3210   25.7400   46.0150 C   0  0  0  0  0  0  0  0  0  0  0  0
   57.8350   25.2090   47.1850 C   0  0  0  0  0  0  0  0  0  0  0  0
   57.5250   23.9760   47.7480 O   0  0  0  0  0  0  0  0  0  0  0  0
   58.7230   26.1210   47.6950 C   0  0  0  0  0  0  0  0  0  0  0  0
   59.4570   25.9610   48.8660 O   0  0  0  0  0  0  0  0  0  0  0  0
   58.7860   27.2070   46.9020 N   0  0  0  0  0  0  0  0  0  0  0  0
   59.6490   28.3370   47.1060 C   0  0  0  0  0  0  0  0  0  0  0  0
   59.8120   28.8700   48.3920 C   0  0  0  0  0  0  0  0  0  0  0  0
   59.2823   28.4171   49.2430 H   0  0  0  0  0  0  0  0  0  0  0  0
   60.6440   29.9740   48.5990 C   0  0  0  0  0  0  0  0  0  0  0  0
   60.7694   30.3816   49.6130 H   0  0  0  0  0  0  0  0  0  0  0  0
   61.3220   30.5670   47.5180 C   0  0  0  0  0  0  0  0  0  0  0  0
   62.2150   31.7320   47.7370 C   0  0  0  0  0  0  0  0  0  0  0  0
   62.9700   31.8410   48.9210 C   0  0  0  0  0  0  0  0  0  0  0  0
   62.9017   31.0552   49.6877 H   0  0  0  0  0  0  0  0  0  0  0  0
   63.8060   32.9430   49.1270 C   0  0  0  0  0  0  0  0  0  0  0  0
   64.3979   33.0176   50.0511 H   0  0  0  0  0  0  0  0  0  0  0  0
   63.8910   33.9490   48.1620 C   0  0  0  0  0  0  0  0  0  0  0  0
   64.5446   34.8178   48.3294 H   0  0  0  0  0  0  0  0  0  0  0  0
   63.1460   33.8520   46.9840 C   0  0  0  0  0  0  0  0  0  0  0  0
   63.2156   34.6438   46.2236 H   0  0  0  0  0  0  0  0  0  0  0  0
   62.3120   32.7500   46.7700 C   0  0  0  0  0  0  0  0  0  0  0  0
   61.7283   32.6784   45.8404 H   0  0  0  0  0  0  0  0  0  0  0  0
   61.1470   30.0330   46.2280 C   0  0  0  0  0  0  0  0  0  0  0  0
   61.6705   30.4870   45.3737 H   0  0  0  0  0  0  0  0  0  0  0  0
   60.3130   28.9300   46.0240 C   0  0  0  0  0  0  0  0  0  0  0  0
   60.1774   28.5259   45.0099 H   0  0  0  0  0  0  0  0  0  0  0  0
   57.9280   26.9930   45.8700 C   0  0  0  0  0  0  0  0  0  0  0  0
   57.7840   27.9090   44.6770 C   0  0  0  0  0  0  0  0  0  0  0  0
   58.7844   28.2198   44.3414 H   0  0  0  0  0  0  0  0  0  0  0  0
   57.2583   27.3612   43.8810 H   0  0  0  0  0  0  0  0  0  0  0  0
   56.9780   29.1370   45.0210 C   0  0  0  0  0  0  0  0  0  0  0  0
   55.7430   29.0130   45.2560 O   0  0  0  0  0  0  0  0  0  0  0  0
   57.5740   30.4520   45.0420 N   0  0  0  0  0  0  0  0  0  0  0  0
   57.7670   31.1000   46.3520 C   0  0  0  0  0  0  0  0  0  0  0  0
   58.3714   30.4327   46.9840 H   0  0  0  0  0  0  0  0  0  0  0  0
   56.7665   31.2822   46.7713 H   0  0  0  0  0  0  0  0  0  0  0  0
   58.4630   32.4400   46.2700 C   0  0  0  0  0  0  0  0  0  0  0  0
   58.9940   33.0150   47.4370 C   0  0  0  0  0  0  0  0  0  0  0  0
   58.9420   32.4663   48.3890 H   0  0  0  0  0  0  0  0  0  0  0  0
   59.5880   34.2800   47.3960 C   0  0  0  0  0  0  0  0  0  0  0  0
   60.0084   34.7197   48.3125 H   0  0  0  0  0  0  0  0  0  0  0  0
   59.6480   34.9860   46.1920 C   0  0  0  0  0  0  0  0  0  0  0  0
   60.1160   35.9810   46.1608 H   0  0  0  0  0  0  0  0  0  0  0  0
   59.1140   34.4290   45.0280 C   0  0  0  0  0  0  0  0  0  0  0  0
   59.1516   34.9923   44.0839 H   0  0  0  0  0  0  0  0  0  0  0  0
   58.5290   33.1520   45.0580 C   0  0  0  0  0  0  0  0  0  0  0  0
   57.9180   32.5700   43.8190 C   0  0  0  0  0  0  0  0  0  0  0  0
   58.4081   33.0024   42.9342 H   0  0  0  0  0  0  0  0  0  0  0  0
   56.8433   32.8040   43.8039 H   0  0  0  0  0  0  0  0  0  0  0  0
   58.0990   31.0540   43.8060 C   0  0  0  0  0  0  0  0  0  0  0  0
   59.1702   30.8199   43.7181 H   0  0  0  0  0  0  0  0  0  0  0  0
   57.5441   30.6411   42.9507 H   0  0  0  0  0  0  0  0  0  0  0  0
  1  2  1  0
  2  3  1  0
  3  4  2  0
  4  5  1  0
  4  6  1  0
  6  7  1  0
  6  8  2  0
  8  9  1  0
  8 10  1  0
 10 11  1  0
 11 12  2  0
 12 13  1  0
 13 14  2  0
 13 15  1  0
 15 16  1  0
 16 17  1  0
 16 18  2  0
 18 19  1  0
 18 20  1  0
 20 21  1  0
 21 22  2  0
 22 23  1  0
 22 24  1  0
 24 25  1  0
 24 26  2  0
 26 27  1  0
 27 28  2  0
 28 29  1  0
 28 30  1  0
 30 31  1  0
 30 32  2  0
 32 33  1  0
 32 34  1  0
 34 35  1  0
 34 36  2  0
 36 37  1  0
 26 38  1  0
 38 39  1  0
 38 40  2  0
 40 41  1  0
 20 42  1  0
 42 43  1  0
 43 44  1  0
 43 45  1  0
 43 46  1  0
 46 47  2  0
 46 48  1  0
 48 49  1  0
 49 50  1  0
 49 51  1  0
 49 52  1  0
 52 53  2  0
 53 54  1  0
 53 55  1  0
 55 56  1  0
 55 57  2  0
 57 58  1  0
 57 59  1  0
 59 60  1  0
 59 61  2  0
 61 62  1  0
 62 63  1  0
 62 64  1  0
 62 65  1  0
 65 66  1  0
 65 67  1  0
 11  3  1  0
 42 15  2  0
 65 48  1  0
 40 21  1  0
 61 52  1  0
 36 27  1  0
M  CHG  3  10  -1  17  -1  19  -1
M  END
>  <UniqueID>  (47) 
42

>  <SMILES>  (47) 
O=C(/N=c1/[n-]cccc1O)c1c([O-])c([O-])n(-c2ccc(-c3ccccc3)cc2)c1CC(=O)N1CCc2ccccc2C1

>  <Energy>  (47) 
136.22977757706622

>  <Genealogy>  (47) 
O=C(N=c1[n-]cccc1O)c1c([O-])c([O-])n(-c2ccc(-c3ccccc3)cc2)c1CC(=O)N1CCc2ccccc2C1 (protonated)
O=C(/N=c1/[n-]cccc1O)c1c([O-])c([O-])n(-c2ccc(-c3ccccc3)cc2)c1CC(=O)N1CCc2ccccc2C1 (cis-trans isomerization)
O=C(/N=c1/[n-]cccc1O)c1c([O-])c([O-])n(-c2ccc(-c3ccccc3)cc2)c1CC(=O)N1CCc2ccccc2C1 (3D coordinates assigned)
O=C(/N=c1/[n-]cccc1O)c1c([O-])c([O-])n(-c2ccc(-c3ccccc3)cc2)c1CC(=O)N1CCc2ccccc2C1 (nonaromatic ring conformer: 136.22977757706622 kcal/mol)

>  <smiles>  (47) 
O=C(N=c1[nH]cccc1O)c1c(O)c(O)n(-c2ccc(-c3ccccc3)cc2)c1CC(=O)N1CCc2ccccc2C1

>  <score_type>  (47) 
oracle

>  <origin>  (47) 
adg

>  <m_score__min__energy>  (47) 
-14.949999999999999

>  <m_primary>  (47) 
energy

$$$$
47:0
     RDKit          3D

 46 48  0  0  0  0  0  0  0  0999 V2000
   55.1410   26.7150   46.0520 N   0  0  0  0  0  0  0  0  0  0  0  0
   56.1650   25.7130   46.0360 C   0  0  0  0  0  0  0  0  0  0  0  0
   55.9340   24.4790   46.6660 C   0  0  0  0  0  0  0  0  0  0  0  0
   56.9170   23.4880   46.6650 C   0  0  0  0  0  0  0  0  0  0  0  0
   58.1450   23.7240   46.0470 C   0  0  0  0  0  0  0  0  0  0  0  0
   58.3900   24.9480   45.4190 C   0  0  0  0  0  0  0  0  0  0  0  0
   57.3960   25.9460   45.3890 C   0  0  0  0  0  0  0  0  0  0  0  0
   57.6390   27.2220   44.7760 N   0  0  0  0  0  0  0  0  0  0  0  0
   57.3310   28.5100   45.3270 C   0  0  0  0  0  0  0  0  0  0  0  0
   56.2070   29.0380   45.1130 O   0  0  0  0  0  0  0  0  0  0  0  0
   58.3290   29.2070   46.1710 C   0  0  0  0  0  0  0  0  0  0  0  0
   58.5490   28.8030   47.4980 C   0  0  0  0  0  0  0  0  0  0  0  0
   59.5460   29.4070   48.2670 C   0  0  0  0  0  0  0  0  0  0  0  0
   60.3340   30.4340   47.7280 C   0  0  0  0  0  0  0  0  0  0  0  0
   61.5220   30.9450   48.4950 C   0  0  0  0  0  0  0  0  0  0  0  0
   62.5390   31.3890   47.5490 N   0  0  0  0  0  0  0  0  0  0  0  0
   63.2560   32.6140   47.7210 C   0  0  0  0  0  0  0  0  0  0  0  0
   64.1790   32.6980   48.5760 O   0  0  0  0  0  0  0  0  0  0  0  0
   62.8150   33.8350   46.9800 C   0  0  0  0  0  0  0  0  0  0  0  0
   61.3130   33.9430   47.0570 C   0  0  0  0  0  0  0  0  0  0  0  0
   60.5530   33.9490   45.8740 C   0  0  0  0  0  0  0  0  0  0  0  0
   59.1670   34.1260   45.9250 C   0  0  0  0  0  0  0  0  0  0  0  0
   58.5290   34.3020   47.1560 C   0  0  0  0  0  0  0  0  0  0  0  0
   59.2770   34.3070   48.3360 C   0  0  0  0  0  0  0  0  0  0  0  0
   60.6650   34.1370   48.2910 C   0  0  0  0  0  0  0  0  0  0  0  0
   61.3740   34.1830   49.4480 F   0  0  0  0  0  0  0  0  0  0  0  0
   60.1040   30.8560   46.4100 C   0  0  0  0  0  0  0  0  0  0  0  0
   59.1050   30.2520   45.6390 C   0  0  0  0  0  0  0  0  0  0  0  0
   55.1410   27.5090   45.3740 H   0  0  0  0  0  0  0  0  0  0  0  0
   54.3590   26.6650   46.7440 H   0  0  0  0  0  0  0  0  0  0  0  0
   54.9711   24.2922   47.1639 H   0  0  0  0  0  0  0  0  0  0  0  0
   56.7232   22.5207   47.1517 H   0  0  0  0  0  0  0  0  0  0  0  0
   58.9219   22.9453   46.0540 H   0  0  0  0  0  0  0  0  0  0  0  0
   59.3652   25.1335   44.9450 H   0  0  0  0  0  0  0  0  0  0  0  0
   57.9312   28.0046   47.9350 H   0  0  0  0  0  0  0  0  0  0  0  0
   59.7142   29.0750   49.3021 H   0  0  0  0  0  0  0  0  0  0  0  0
   61.2159   31.7886   49.1311 H   0  0  0  0  0  0  0  0  0  0  0  0
   61.9281   30.1442   49.1305 H   0  0  0  0  0  0  0  0  0  0  0  0
   63.2722   34.7266   47.4339 H   0  0  0  0  0  0  0  0  0  0  0  0
   63.1280   33.7634   45.9279 H   0  0  0  0  0  0  0  0  0  0  0  0
   61.0517   33.8137   44.9029 H   0  0  0  0  0  0  0  0  0  0  0  0
   58.5784   34.1267   44.9957 H   0  0  0  0  0  0  0  0  0  0  0  0
   57.4380   34.4366   47.1958 H   0  0  0  0  0  0  0  0  0  0  0  0
   58.7729   34.4451   49.3039 H   0  0  0  0  0  0  0  0  0  0  0  0
   60.7122   31.6658   45.9806 H   0  0  0  0  0  0  0  0  0  0  0  0
   58.9254   30.5968   44.6100 H   0  0  0  0  0  0  0  0  0  0  0  0
  1  2  1  0
  2  3  2  0
  3  4  1  0
  4  5  2  0
  5  6  1  0
  6  7  2  0
  7  8  1  0
  8  9  1  0
  9 10  2  0
  9 11  1  0
 11 12  2  0
 12 13  1  0
 13 14  2  0
 14 15  1  0
 15 16  1  0
 16 17  1  0
 17 18  2  0
 17 19  1  0
 19 20  1  0
 20 21  2  0
 21 22  1  0
 22 23  2  0
 23 24  1  0
 24 25  2  0
 25 26  1  0
 14 27  1  0
 27 28  2  0
  7  2  1  0
 28 11  1  0
 25 20  1  0
  1 29  1  0
  1 30  1  0
  3 31  1  0
  4 32  1  0
  5 33  1  0
  6 34  1  0
 12 35  1  0
 13 36  1  0
 15 37  1  0
 15 38  1  0
 19 39  1  0
 19 40  1  0
 21 41  1  0
 22 42  1  0
 23 43  1  0
 24 44  1  0
 27 45  1  0
 28 46  1  0
M  CHG  2   8  -1  16  -1
M  END
>  <UniqueID>  (48) 
43

>  <SMILES>  (48) 
Nc1ccccc1[N-]C(=O)c1ccc(C[N-]C(=O)Cc2ccccc2F)cc1

>  <Energy>  (48) 
46.34827725883163

>  <Genealogy>  (48) 
Nc1ccccc1[N-]C(=O)c1ccc(C[N-]C(=O)Cc2ccccc2F)cc1 (protonated)
Nc1ccccc1[N-]C(=O)c1ccc(C[N-]C(=O)Cc2ccccc2F)cc1 (3D coordinates assigned)
Nc1ccccc1[N-]C(=O)c1ccc(C[N-]C(=O)Cc2ccccc2F)cc1 (optimized conformer: 46.34827725883163 kcal/mol)

>  <smiles>  (48) 
Nc1ccccc1NC(=O)c1ccc(CNC(=O)Cc2ccccc2F)cc1

>  <score_type>  (48) 
oracle

>  <origin>  (48) 
adg

>  <m_score__min__energy>  (48) 
-11.18

>  <m_primary>  (48) 
energy

$$$$
48:0
     RDKit          3D

 45 47  0  0  0  0  0  0  0  0999 V2000
   55.1420   27.5150   45.4620 H   0  0  0  0  0  0  0  0  0  0  0  0
   54.9490   26.6860   46.0110 O   0  0  0  0  0  0  0  0  0  0  0  0
   55.9640   25.8290   46.4300 C   0  0  0  0  0  0  0  0  0  0  0  0
   55.7260   24.6470   47.0230 N   0  0  0  0  0  0  0  0  0  0  0  0
   56.9680   24.1720   47.2520 C   0  0  0  0  0  0  0  0  0  0  0  0
   57.1780   23.0630   47.8070 O   0  0  0  0  0  0  0  0  0  0  0  0
   57.9670   24.9820   46.8440 N   0  0  0  0  0  0  0  0  0  0  0  0
   57.3230   26.0360   46.3080 C   0  0  0  0  0  0  0  0  0  0  0  0
   57.9780   27.2510   45.7750 C   0  0  0  0  0  0  0  0  0  0  0  0
   57.8935   27.4423   44.6951 H   0  0  0  0  0  0  0  0  0  0  0  0
   58.6720   28.1430   46.5150 C   0  0  0  0  0  0  0  0  0  0  0  0
   59.1990   27.9420   47.7840 C   0  0  0  0  0  0  0  0  0  0  0  0
   59.1142   27.0292   48.3919 H   0  0  0  0  0  0  0  0  0  0  0  0
   59.8490   29.1060   48.1360 C   0  0  0  0  0  0  0  0  0  0  0  0
   60.5300   29.3140   49.4560 C   0  0  0  0  0  0  0  0  0  0  0  0
   59.8235   29.0982   50.2711 H   0  0  0  0  0  0  0  0  0  0  0  0
   61.3953   28.6392   49.5325 H   0  0  0  0  0  0  0  0  0  0  0  0
   60.8706   30.3571   49.5325 H   0  0  0  0  0  0  0  0  0  0  0  0
   59.7500   30.0270   47.1470 N   0  0  0  0  0  0  0  0  0  0  0  0
   60.2700   31.4050   47.1820 C   0  0  0  0  0  0  0  0  0  0  0  0
   61.3357   31.3806   47.4533 H   0  0  0  0  0  0  0  0  0  0  0  0
   60.1359   31.8557   46.1876 H   0  0  0  0  0  0  0  0  0  0  0  0
   59.5090   32.2540   48.2110 C   0  0  0  0  0  0  0  0  0  0  0  0
   58.6591   31.6734   48.5989 H   0  0  0  0  0  0  0  0  0  0  0  0
   60.1980   32.5185   49.0267 H   0  0  0  0  0  0  0  0  0  0  0  0
   59.0030   33.5020   47.5960 N   0  0  0  0  0  0  0  0  0  0  0  0
   59.9420   34.0160   46.5600 C   0  0  0  0  0  0  0  0  0  0  0  0
   60.7850   34.5154   47.0600 H   0  0  0  0  0  0  0  0  0  0  0  0
   60.2881   33.1623   45.9588 H   0  0  0  0  0  0  0  0  0  0  0  0
   59.2610   35.0150   45.6200 C   0  0  0  0  0  0  0  0  0  0  0  0
   58.8554   35.8483   46.2125 H   0  0  0  0  0  0  0  0  0  0  0  0
   60.0056   35.3834   44.8990 H   0  0  0  0  0  0  0  0  0  0  0  0
   58.1150   34.3440   44.8440 C   0  0  0  0  0  0  0  0  0  0  0  0
   57.3347   35.0944   44.6490 H   0  0  0  0  0  0  0  0  0  0  0  0
   58.5349   33.9435   43.9095 H   0  0  0  0  0  0  0  0  0  0  0  0
   57.4880   33.1700   45.6140 C   0  0  0  0  0  0  0  0  0  0  0  0
   56.4270   33.0842   45.3366 H   0  0  0  0  0  0  0  0  0  0  0  0
   58.0316   32.2503   45.3521 H   0  0  0  0  0  0  0  0  0  0  0  0
   57.5940   33.3840   47.1290 C   0  0  0  0  0  0  0  0  0  0  0  0
   57.0576   34.3076   47.3922 H   0  0  0  0  0  0  0  0  0  0  0  0
   57.1540   32.5036   47.6203 H   0  0  0  0  0  0  0  0  0  0  0  0
   59.0330   29.4460   46.1480 C   0  0  0  0  0  0  0  0  0  0  0  0
   58.7190   30.0570   44.9930 C   0  0  0  0  0  0  0  0  0  0  0  0
   59.0556   31.0875   44.8067 H   0  0  0  0  0  0  0  0  0  0  0  0
   58.1254   29.5266   44.2339 H   0  0  0  0  0  0  0  0  0  0  0  0
  1  2  1  0
  2  3  1  0
  3  4  1  0
  4  5  1  0
  5  6  2  0
  5  7  1  0
  7  8  1  0
  8  9  1  0
  9 10  1  0
  9 11  2  0
 11 12  1  0
 12 13  1  0
 12 14  2  0
 14 15  1  0
 15 16  1  0
 15 17  1  0
 15 18  1  0
 14 19  1  0
 19 20  1  0
 20 21  1  0
 20 22  1  0
 20 23  1  0
 23 24  1  0
 23 25  1  0
 23 26  1  0
 26 27  1  0
 27 28  1  0
 27 29  1  0
 27 30  1  0
 30 31  1  0
 30 32  1  0
 30 33  1  0
 33 34  1  0
 33 35  1  0
 33 36  1  0
 36 37  1  0
 36 38  1  0
 36 39  1  0
 39 40  1  0
 39 41  1  0
 19 42  1  0
 42 43  2  0
 43 44  1  0
 43 45  1  0
  8  3  2  0
 42 11  1  0
 39 26  1  0
M  CHG  2   4  -1   7  -1
M  END
>  <UniqueID>  (49) 
44

>  <SMILES>  (49) 
C=c1/c(=C/c2[n-]c(=O)[n-]c2O)cc(C)n1CCN1CCCCC1

>  <Energy>  (49) 
113.981483849116

>  <Genealogy>  (49) 
C=c1c(=Cc2[n-]c(=O)[n-]c2O)cc(C)n1CCN1CCCCC1 (protonated)
C=c1/c(=C/c2[n-]c(=O)[n-]c2O)cc(C)n1CCN1CCCCC1 (cis-trans isomerization)
C=c1/c(=C/c2[n-]c(=O)[n-]c2O)cc(C)n1CCN1CCCCC1 (3D coordinates assigned)
C=c1/c(=C/c2[n-]c(=O)[n-]c2O)cc(C)n1CCN1CCCCC1 (nonaromatic ring conformer: 113.981483849116 kcal/mol)

>  <smiles>  (49) 
C=c1c(=Cc2[nH]c(=O)[nH]c2O)cc(C)n1CCN1CCCCC1

>  <score_type>  (49) 
oracle

>  <origin>  (49) 
adg

>  <m_score__min__energy>  (49) 
-12.960000000000001

>  <m_primary>  (49) 
energy

$$$$
49:0
     RDKit          3D

 56 60  0  0  0  0  0  0  0  0999 V2000
   62.3700   34.0830   46.3050 O   0  0  0  0  0  0  0  0  0  0  0  0
   61.2360   33.8060   46.7940 C   0  0  0  0  0  0  0  0  0  0  0  0
   60.1170   33.8290   45.9940 C   0  0  0  0  0  0  0  0  0  0  0  0
   58.8410   33.5280   46.4930 C   0  0  0  0  0  0  0  0  0  0  0  0
   57.7850   33.6040   45.5670 N   0  0  0  0  0  0  0  0  0  0  0  0
   57.7010   32.9160   44.3080 C   0  0  0  0  0  0  0  0  0  0  0  0
   57.4090   31.4900   44.5510 C   0  0  0  0  0  0  0  0  0  0  0  0
   58.3540   30.7790   45.2860 C   0  0  0  0  0  0  0  0  0  0  0  0
   58.2270   29.4630   45.6110 C   0  0  0  0  0  0  0  0  0  0  0  0
   57.0710   28.8030   45.1760 C   0  0  0  0  0  0  0  0  0  0  0  0
   56.9690   27.4020   45.5550 C   0  0  0  0  0  0  0  0  0  0  0  0
   55.9730   26.7260   46.1460 N   0  0  0  0  0  0  0  0  0  0  0  0
   56.3040   25.4310   46.2970 N   0  0  0  0  0  0  0  0  0  0  0  0
   57.5610   25.2940   45.7750 C   0  0  0  0  0  0  0  0  0  0  0  0
   58.3620   24.0180   45.7090 C   0  0  0  0  0  0  0  0  0  0  0  0
   57.7740   23.1610   44.6220 C   0  0  0  0  0  0  0  0  0  0  0  0
   58.2450   21.8810   44.3720 C   0  0  0  0  0  0  0  0  0  0  0  0
   57.6730   21.1130   43.3590 C   0  0  0  0  0  0  0  0  0  0  0  0
   56.6450   21.6560   42.6310 C   0  0  0  0  0  0  0  0  0  0  0  0
   56.1460   22.9300   42.8500 C   0  0  0  0  0  0  0  0  0  0  0  0
   56.7220   23.6930   43.8640 C   0  0  0  0  0  0  0  0  0  0  0  0
   57.9490   26.5020   45.3290 N   0  0  0  0  0  0  0  0  0  0  0  0
   56.1210   29.4810   44.4490 C   0  0  0  0  0  0  0  0  0  0  0  0
   56.2760   30.8350   44.1260 C   0  0  0  0  0  0  0  0  0  0  0  0
   58.7200   33.2100   47.7890 N   0  0  0  0  0  0  0  0  0  0  0  0
   59.8360   33.1900   48.5770 C   0  0  0  0  0  0  0  0  0  0  0  0
   59.6910   32.8870   49.7960 O   0  0  0  0  0  0  0  0  0  0  0  0
   61.0590   33.4800   48.0910 N   0  0  0  0  0  0  0  0  0  0  0  0
   62.2300   33.4760   48.9120 C   0  0  0  0  0  0  0  0  0  0  0  0
   62.3760   34.2720   50.0230 C   0  0  0  0  0  0  0  0  0  0  0  0
   63.5360   34.2250   50.7910 C   0  0  0  0  0  0  0  0  0  0  0  0
   64.5730   33.3600   50.4380 C   0  0  0  0  0  0  0  0  0  0  0  0
   64.4140   32.5670   49.3190 C   0  0  0  0  0  0  0  0  0  0  0  0
   63.2620   32.6080   48.5500 C   0  0  0  0  0  0  0  0  0  0  0  0
   60.2261   34.0913   44.9313 H   0  0  0  0  0  0  0  0  0  0  0  0
   56.9720   34.2390   45.8430 H   0  0  0  0  0  0  0  0  0  0  0  0
   56.8971   33.3576   43.7007 H   0  0  0  0  0  0  0  0  0  0  0  0
   58.6566   33.0106   43.7715 H   0  0  0  0  0  0  0  0  0  0  0  0
   59.2554   31.3114   45.6236 H   0  0  0  0  0  0  0  0  0  0  0  0
   59.0009   28.9395   46.1916 H   0  0  0  0  0  0  0  0  0  0  0  0
   55.7090   24.6930   46.7270 H   0  0  0  0  0  0  0  0  0  0  0  0
   59.4126   24.2474   45.4774 H   0  0  0  0  0  0  0  0  0  0  0  0
   58.3262   23.4919   46.6744 H   0  0  0  0  0  0  0  0  0  0  0  0
   59.0702   21.4715   44.9732 H   0  0  0  0  0  0  0  0  0  0  0  0
   58.0370   20.0965   43.1486 H   0  0  0  0  0  0  0  0  0  0  0  0
   56.1936   21.0489   41.8324 H   0  0  0  0  0  0  0  0  0  0  0  0
   55.3200   23.3272   42.2417 H   0  0  0  0  0  0  0  0  0  0  0  0
   56.3525   24.7087   44.0686 H   0  0  0  0  0  0  0  0  0  0  0  0
   55.2191   28.9480   44.1136 H   0  0  0  0  0  0  0  0  0  0  0  0
   55.5072   31.3643   43.5440 H   0  0  0  0  0  0  0  0  0  0  0  0
   57.7720   32.9860   48.1600 H   0  0  0  0  0  0  0  0  0  0  0  0
   61.5640   34.9565   50.3095 H   0  0  0  0  0  0  0  0  0  0  0  0
   63.6355   34.8699   51.6766 H   0  0  0  0  0  0  0  0  0  0  0  0
   65.4945   33.3113   51.0367 H   0  0  0  0  0  0  0  0  0  0  0  0
   65.2253   31.8829   49.0296 H   0  0  0  0  0  0  0  0  0  0  0  0
   63.1617   31.9638   47.6641 H   0  0  0  0  0  0  0  0  0  0  0  0
  1  2  2  0
  2  3  1  0
  3  4  2  0
  4  5  1  0
  5  6  1  0
  6  7  1  0
  7  8  2  0
  8  9  1  0
  9 10  2  0
 10 11  1  0
 11 12  2  0
 12 13  1  0
 13 14  1  0
 14 15  1  0
 15 16  1  0
 16 17  2  0
 17 18  1  0
 18 19  2  0
 19 20  1  0
 20 21  2  0
 14 22  2  0
 10 23  1  0
 23 24  2  0
  4 25  1  0
 25 26  1  0
 26 27  2  0
 26 28  1  0
 28 29  1  0
 29 30  2  0
 30 31  1  0
 31 32  2  0
 32 33  1  0
 33 34  2  0
 28  2  1  0
 34 29  1  0
 24  7  1  0
 22 11  1  0
 21 16  1  0
  3 35  1  0
  5 36  1  0
  6 37  1  0
  6 38  1  0
  8 39  1  0
  9 40  1  0
 13 41  1  0
 15 42  1  0
 15 43  1  0
 17 44  1  0
 18 45  1  0
 19 46  1  0
 20 47  1  0
 21 48  1  0
 23 49  1  0
 24 50  1  0
 25 51  1  0
 30 52  1  0
 31 53  1  0
 32 54  1  0
 33 55  1  0
 34 56  1  0
M  END
>  <smiles>  (50) 
O=c1cc(NCc2ccc(-c3n[nH]c(Cc4ccccc4)n3)cc2)[nH]c(=O)n1-c1ccccc1

>  <score_type>  (50) 
oracle

>  <origin>  (50) 
adg

>  <m_score__min__energy>  (50) 
-10.07

>  <m_primary>  (50) 
energy

$$$$
50:0
     RDKit          3D

 47 49  0  0  0  0  0  0  0  0999 V2000
   59.7720   30.0930   47.1380 C   0  0  0  0  0  0  0  0  0  0  0  0
   59.0690   30.1150   45.9930 C   0  0  0  0  0  0  0  0  0  0  0  0
   58.4790   29.0070   45.3750 C   0  0  0  0  0  0  0  0  0  0  0  0
   58.4480   27.7380   45.8270 C   0  0  0  0  0  0  0  0  0  0  0  0
   57.2100   26.9640   46.0320 C   0  0  0  0  0  0  0  0  0  0  0  0
   57.2010   25.6790   46.4270 N   0  0  0  0  0  0  0  0  0  0  0  0
   55.8900   25.3530   46.4030 C   0  0  0  0  0  0  0  0  0  0  0  0
   55.4700   24.2120   46.7280 O   0  0  0  0  0  0  0  0  0  0  0  0
   55.0670   26.3410   45.9930 N   0  0  0  0  0  0  0  0  0  0  0  0
   55.9180   27.3510   45.7510 C   0  0  0  0  0  0  0  0  0  0  0  0
   55.5240   28.5810   45.2370 O   0  0  0  0  0  0  0  0  0  0  0  0
   57.8580   29.4840   44.2310 C   0  0  0  0  0  0  0  0  0  0  0  0
   58.0960   30.8420   44.1860 C   0  0  0  0  0  0  0  0  0  0  0  0
   57.5610   31.7540   43.1220 C   0  0  0  0  0  0  0  0  0  0  0  0
   58.8280   31.2350   45.2570 N   0  0  0  0  0  0  0  0  0  0  0  0
   59.1840   32.6280   45.5850 C   0  0  0  0  0  0  0  0  0  0  0  0
   58.3080   33.1840   46.7170 C   0  0  0  0  0  0  0  0  0  0  0  0
   59.0430   33.2240   48.0350 C   0  0  0  0  0  0  0  0  0  0  0  0
   58.4450   32.6570   49.1740 C   0  0  0  0  0  0  0  0  0  0  0  0
   59.1250   32.6130   50.3940 C   0  0  0  0  0  0  0  0  0  0  0  0
   58.4830   32.0190   51.4910 O   0  0  0  0  0  0  0  0  0  0  0  0
   57.1170   31.6160   51.5030 C   0  0  0  0  0  0  0  0  0  0  0  0
   60.4180   33.1550   50.4800 C   0  0  0  0  0  0  0  0  0  0  0  0
   61.0200   33.7230   49.3560 C   0  0  0  0  0  0  0  0  0  0  0  0
   60.3450   33.7570   48.1210 C   0  0  0  0  0  0  0  0  0  0  0  0
   60.9370   34.2970   46.9680 O   0  0  0  0  0  0  0  0  0  0  0  0
   62.1800   33.8700   46.4220 C   0  0  0  0  0  0  0  0  0  0  0  0
   60.1961   31.0245   47.5410 H   0  0  0  0  0  0  0  0  0  0  0  0
   59.9234   29.1435   47.6723 H   0  0  0  0  0  0  0  0  0  0  0  0
   59.4060   27.2490   46.0574 H   0  0  0  0  0  0  0  0  0  0  0  0
   57.2859   28.8935   43.5002 H   0  0  0  0  0  0  0  0  0  0  0  0
   57.0580   32.6114   43.5929 H   0  0  0  0  0  0  0  0  0  0  0  0
   58.3910   32.1141   42.4964 H   0  0  0  0  0  0  0  0  0  0  0  0
   56.8416   31.2052   42.4964 H   0  0  0  0  0  0  0  0  0  0  0  0
   60.2376   32.6626   45.8992 H   0  0  0  0  0  0  0  0  0  0  0  0
   59.0206   33.2449   44.6890 H   0  0  0  0  0  0  0  0  0  0  0  0
   57.9946   34.2052   46.4543 H   0  0  0  0  0  0  0  0  0  0  0  0
   57.4402   32.5180   46.8326 H   0  0  0  0  0  0  0  0  0  0  0  0
   57.4285   32.2426   49.1039 H   0  0  0  0  0  0  0  0  0  0  0  0
   56.7737   31.5147   52.5431 H   0  0  0  0  0  0  0  0  0  0  0  0
   56.5070   32.3725   50.9876 H   0  0  0  0  0  0  0  0  0  0  0  0
   57.0153   30.6496   50.9876 H   0  0  0  0  0  0  0  0  0  0  0  0
   60.9587   33.1317   51.4376 H   0  0  0  0  0  0  0  0  0  0  0  0
   62.0314   34.1481   49.4359 H   0  0  0  0  0  0  0  0  0  0  0  0
   62.8765   33.6307   47.2391 H   0  0  0  0  0  0  0  0  0  0  0  0
   62.0203   32.9752   45.8025 H   0  0  0  0  0  0  0  0  0  0  0  0
   62.6039   34.6740   45.8025 H   0  0  0  0  0  0  0  0  0  0  0  0
  1  2  2  0
  2  3  1  0
  3  4  2  3
  4  5  1  0
  5  6  1  0
  6  7  1  0
  7  8  2  0
  7  9  1  0
  9 10  1  0
 10 11  1  0
  3 12  1  0
 12 13  2  0
 13 14  1  0
 13 15  1  0
 15 16  1  0
 16 17  1  0
 17 18  1  0
 18 19  2  0
 19 20  1  0
 20 21  1  0
 21 22  1  0
 20 23  2  0
 23 24  1  0
 24 25  2  0
 25 26  1  0
 26 27  1  0
 15  2  1  0
 25 18  1  0
 10  5  2  0
  1 28  1  0
  1 29  1  0
  4 30  1  0
 12 31  1  0
 14 32  1  0
 14 33  1  0
 14 34  1  0
 16 35  1  0
 16 36  1  0
 17 37  1  0
 17 38  1  0
 19 39  1  0
 22 40  1  0
 22 41  1  0
 22 42  1  0
 23 43  1  0
 24 44  1  0
 27 45  1  0
 27 46  1  0
 27 47  1  0
M  CHG  3   6  -1   9  -1  11  -1
M  END
>  <UniqueID>  (51) 
45

>  <SMILES>  (51) 
C=c1c(=Cc2[n-]c(=O)[n-]c2[O-])cc(C)n1CCc1cc(OC)ccc1OC

>  <Energy>  (51) 
108.32619665097742

>  <Genealogy>  (51) 
C=c1c(=Cc2[n-]c(=O)[n-]c2[O-])cc(C)n1CCc1cc(OC)ccc1OC (protonated)
C=c1c(=Cc2[n-]c(=O)[n-]c2[O-])cc(C)n1CCc1cc(OC)ccc1OC (3D coordinates assigned)
C=c1c(=Cc2[n-]c(=O)[n-]c2[O-])cc(C)n1CCc1cc(OC)ccc1OC (optimized conformer: 108.32619665097742 kcal/mol)

>  <smiles>  (51) 
C=c1c(=Cc2[nH]c(=O)[nH]c2O)cc(C)n1CCc1cc(OC)ccc1OC

>  <score_type>  (51) 
oracle

>  <origin>  (51) 
adg

>  <m_score__min__energy>  (51) 
-15.49

>  <m_primary>  (51) 
energy

$$$$
51:0
     RDKit          3D

 48 50  0  0  0  0  0  0  0  0999 V2000
   60.1100   34.5900   48.9830 C   0  0  0  0  0  0  0  0  0  0  0  0
   59.5320   33.8450   47.8160 C   0  0  0  0  0  0  0  0  0  0  0  0
   58.6270   34.4790   46.9530 C   0  0  0  0  0  0  0  0  0  0  0  0
   58.0410   33.7700   45.8950 C   0  0  0  0  0  0  0  0  0  0  0  0
   57.0950   34.4610   44.9560 C   0  0  0  0  0  0  0  0  0  0  0  0
   58.3870   32.4280   45.6830 C   0  0  0  0  0  0  0  0  0  0  0  0
   59.2970   31.7830   46.5400 C   0  0  0  0  0  0  0  0  0  0  0  0
   59.6340   30.3950   46.3660 N   0  0  0  0  0  0  0  0  0  0  0  0
   59.3300   29.3690   47.3260 C   0  0  0  0  0  0  0  0  0  0  0  0
   58.5310   29.6020   48.2740 O   0  0  0  0  0  0  0  0  0  0  0  0
   59.9470   28.0340   47.2030 C   0  0  0  0  0  0  0  0  0  0  0  0
   60.9730   27.7650   47.8850 O   0  0  0  0  0  0  0  0  0  0  0  0
   59.3710   27.0180   46.3630 N   0  0  0  0  0  0  0  0  0  0  0  0
   59.2890   25.6400   46.8690 C   0  0  0  0  0  0  0  0  0  0  0  0
   58.6590   24.6970   45.8370 C   0  0  0  0  0  0  0  0  0  0  0  0
   57.4970   25.3420   45.2110 N   0  0  0  0  0  0  0  0  0  0  0  0
   56.2200   24.6840   45.2170 C   0  0  0  0  0  0  0  0  0  0  0  0
   56.1250   23.3420   44.8150 C   0  0  0  0  0  0  0  0  0  0  0  0
   54.8910   22.6870   44.8290 C   0  0  0  0  0  0  0  0  0  0  0  0
   53.7420   23.3660   45.2420 C   0  0  0  0  0  0  0  0  0  0  0  0
   53.8260   24.7040   45.6380 C   0  0  0  0  0  0  0  0  0  0  0  0
   55.0590   25.3670   45.6230 C   0  0  0  0  0  0  0  0  0  0  0  0
   55.1180   26.7050   45.9960 O   0  0  0  0  0  0  0  0  0  0  0  0
   57.6010   26.7140   44.6910 C   0  0  0  0  0  0  0  0  0  0  0  0
   58.9800   27.3140   44.9780 C   0  0  0  0  0  0  0  0  0  0  0  0
   59.8430   32.4910   47.6200 C   0  0  0  0  0  0  0  0  0  0  0  0
   59.7568   34.1347   49.9200 H   0  0  0  0  0  0  0  0  0  0  0  0
   61.2081   34.5402   48.9423 H   0  0  0  0  0  0  0  0  0  0  0  0
   59.7889   35.6413   48.9423 H   0  0  0  0  0  0  0  0  0  0  0  0
   58.3753   35.5387   47.1069 H   0  0  0  0  0  0  0  0  0  0  0  0
   56.3402   35.0123   45.5359 H   0  0  0  0  0  0  0  0  0  0  0  0
   57.6556   35.1637   44.3221 H   0  0  0  0  0  0  0  0  0  0  0  0
   56.5961   33.7132   44.3221 H   0  0  0  0  0  0  0  0  0  0  0  0
   57.9440   31.8759   44.8410 H   0  0  0  0  0  0  0  0  0  0  0  0
   60.0350   30.1020   45.4460 H   0  0  0  0  0  0  0  0  0  0  0  0
   60.3032   25.2852   47.1047 H   0  0  0  0  0  0  0  0  0  0  0  0
   58.6546   25.6403   47.7676 H   0  0  0  0  0  0  0  0  0  0  0  0
   59.4023   24.4550   45.0630 H   0  0  0  0  0  0  0  0  0  0  0  0
   58.3325   23.7756   46.3415 H   0  0  0  0  0  0  0  0  0  0  0  0
   57.0266   22.8037   44.4874 H   0  0  0  0  0  0  0  0  0  0  0  0
   54.8240   21.6351   44.5144 H   0  0  0  0  0  0  0  0  0  0  0  0
   52.7717   22.8480   45.2556 H   0  0  0  0  0  0  0  0  0  0  0  0
   52.9205   25.2376   45.9624 H   0  0  0  0  0  0  0  0  0  0  0  0
   57.4361   26.6986   43.6035 H   0  0  0  0  0  0  0  0  0  0  0  0
   56.8417   27.3335   45.1908 H   0  0  0  0  0  0  0  0  0  0  0  0
   59.7186   26.8789   44.2887 H   0  0  0  0  0  0  0  0  0  0  0  0
   58.9394   28.4041   44.8363 H   0  0  0  0  0  0  0  0  0  0  0  0
   60.5211   31.9805   48.3197 H   0  0  0  0  0  0  0  0  0  0  0  0
  1  2  1  0
  2  3  2  0
  3  4  1  0
  4  5  1  0
  4  6  2  0
  6  7  1  0
  7  8  1  0
  8  9  1  0
  9 10  2  0
  9 11  1  0
 11 12  2  0
 11 13  1  0
 13 14  1  0
 14 15  1  0
 15 16  1  0
 16 17  1  0
 17 18  2  0
 18 19  1  0
 19 20  2  0
 20 21  1  0
 21 22  2  0
 22 23  1  0
 16 24  1  0
 24 25  1  0
  7 26  2  0
 26  2  1  0
 25 13  1  0
 22 17  1  0
  1 27  1  0
  1 28  1  0
  1 29  1  0
  3 30  1  0
  5 31  1  0
  5 32  1  0
  5 33  1  0
  6 34  1  0
  8 35  1  0
 14 36  1  0
 14 37  1  0
 15 38  1  0
 15 39  1  0
 18 40  1  0
 19 41  1  0
 20 42  1  0
 21 43  1  0
 24 44  1  0
 24 45  1  0
 25 46  1  0
 25 47  1  0
 26 48  1  0
M  CHG  1  23  -1
M  END
>  <UniqueID>  (52) 
46

>  <SMILES>  (52) 
Cc1cc(C)cc(NC(=O)C(=O)N2CCN(c3ccccc3[O-])CC2)c1

>  <Energy>  (52) 
59.989846365168454

>  <Genealogy>  (52) 
Cc1cc(C)cc(NC(=O)C(=O)N2CCN(c3ccccc3[O-])CC2)c1 (protonated)
Cc1cc(C)cc(NC(=O)C(=O)N2CCN(c3ccccc3[O-])CC2)c1 (3D coordinates assigned)
Cc1cc(C)cc(NC(=O)C(=O)N2CCN(c3ccccc3[O-])CC2)c1 (nonaromatic ring conformer: 59.989846365168454 kcal/mol)

>  <smiles>  (52) 
Cc1cc(C)cc(NC(=O)C(=O)N2CCN(c3ccccc3O)CC2)c1

>  <score_type>  (52) 
oracle

>  <origin>  (52) 
adg

>  <m_score__min__energy>  (52) 
-10.720000000000001

>  <m_primary>  (52) 
energy

$$$$
52:0
     RDKit          3D

 41 44  0  0  0  0  0  0  0  0999 V2000
   63.0950   33.7240   49.6720 H   0  0  0  0  0  0  0  0  0  0  0  0
   62.9150   34.1870   48.7890 O   0  0  0  0  0  0  0  0  0  0  0  0
   61.6920   34.0550   48.1340 C   0  0  0  0  0  0  0  0  0  0  0  0
   60.4880   34.1600   48.8390 C   0  0  0  0  0  0  0  0  0  0  0  0
   60.5015   34.3485   49.9226 H   0  0  0  0  0  0  0  0  0  0  0  0
   59.2680   34.0260   48.1700 C   0  0  0  0  0  0  0  0  0  0  0  0
   58.3264   34.1180   48.7312 H   0  0  0  0  0  0  0  0  0  0  0  0
   59.2320   33.7750   46.7880 C   0  0  0  0  0  0  0  0  0  0  0  0
   57.9120   33.6510   46.1230 C   0  0  0  0  0  0  0  0  0  0  0  0
   57.0931   34.2980   46.4706 H   0  0  0  0  0  0  0  0  0  0  0  0
   57.6600   32.7940   45.1210 C   0  0  0  0  0  0  0  0  0  0  0  0
   57.4734   33.2075   44.1189 H   0  0  0  0  0  0  0  0  0  0  0  0
   57.6190   31.3210   45.2890 C   0  0  0  0  0  0  0  0  0  0  0  0
   56.9990   30.5480   44.2930 C   0  0  0  0  0  0  0  0  0  0  0  0
   56.5517   31.0435   43.4187 H   0  0  0  0  0  0  0  0  0  0  0  0
   56.9450   29.1560   44.4020 C   0  0  0  0  0  0  0  0  0  0  0  0
   56.4494   28.5660   43.6170 H   0  0  0  0  0  0  0  0  0  0  0  0
   57.5180   28.5050   45.5050 C   0  0  0  0  0  0  0  0  0  0  0  0
   57.4630   27.0730   45.6170 N   0  0  0  0  0  0  0  0  0  0  0  0
   58.5450   26.1410   45.5010 C   0  0  0  0  0  0  0  0  0  0  0  0
   59.7490   26.4640   45.3190 O   0  0  0  0  0  0  0  0  0  0  0  0
   58.0540   24.7790   45.6810 C   0  0  0  0  0  0  0  0  0  0  0  0
   58.7270   23.5590   45.6580 C   0  0  0  0  0  0  0  0  0  0  0  0
   59.8115   23.5131   45.4795 H   0  0  0  0  0  0  0  0  0  0  0  0
   57.9770   22.3880   45.8700 C   0  0  0  0  0  0  0  0  0  0  0  0
   58.4777   21.4086   45.8557 H   0  0  0  0  0  0  0  0  0  0  0  0
   56.5860   22.4610   46.1010 C   0  0  0  0  0  0  0  0  0  0  0  0
   56.0111   21.5378   46.2658 H   0  0  0  0  0  0  0  0  0  0  0  0
   55.9300   23.7040   46.1220 C   0  0  0  0  0  0  0  0  0  0  0  0
   54.8464   23.7706   46.2993 H   0  0  0  0  0  0  0  0  0  0  0  0
   56.6960   24.8500   45.9110 C   0  0  0  0  0  0  0  0  0  0  0  0
   56.3130   26.2570   45.8720 C   0  0  0  0  0  0  0  0  0  0  0  0
   55.1390   26.6970   45.9940 O   0  0  0  0  0  0  0  0  0  0  0  0
   58.1540   29.2720   46.4940 C   0  0  0  0  0  0  0  0  0  0  0  0
   58.6120   28.7731   47.3608 H   0  0  0  0  0  0  0  0  0  0  0  0
   58.2100   30.6650   46.3860 C   0  0  0  0  0  0  0  0  0  0  0  0
   58.7195   31.2528   47.1638 H   0  0  0  0  0  0  0  0  0  0  0  0
   60.4510   33.6870   46.0830 C   0  0  0  0  0  0  0  0  0  0  0  0
   60.4431   33.5103   44.9973 H   0  0  0  0  0  0  0  0  0  0  0  0
   61.6690   33.8230   46.7560 C   0  0  0  0  0  0  0  0  0  0  0  0
   62.6139   33.7470   46.1980 H   0  0  0  0  0  0  0  0  0  0  0  0
  1  2  1  0
  2  3  1  0
  3  4  2  0
  4  5  1  0
  4  6  1  0
  6  7  1  0
  6  8  2  0
  8  9  1  0
  9 10  1  0
  9 11  2  0
 11 12  1  0
 11 13  1  0
 13 14  2  0
 14 15  1  0
 14 16  1  0
 16 17  1  0
 16 18  2  0
 18 19  1  0
 19 20  1  0
 20 21  2  0
 20 22  1  0
 22 23  2  0
 23 24  1  0
 23 25  1  0
 25 26  1  0
 25 27  2  0
 27 28  1  0
 27 29  1  0
 29 30  1  0
 29 31  2  0
 31 32  1  0
 32 33  2  0
 18 34  1  0
 34 35  1  0
 34 36  2  0
 36 37  1  0
  8 38  1  0
 38 39  1  0
 38 40  2  0
 40 41  1  0
 40  3  1  0
 36 13  1  0
 32 19  1  0
 31 22  1  0
M  END
>  <UniqueID>  (53) 
47

>  <SMILES>  (53) 
O=C1c2ccccc2C(=O)N1c1ccc(/C=C/c2ccc(O)cc2)cc1

>  <Energy>  (53) 
87.66803792413764

>  <Genealogy>  (53) 
O=C1c2ccccc2C(=O)N1c1ccc(/C=C/c2ccc(O)cc2)cc1 (cis-trans isomerization)
O=C1c2ccccc2C(=O)N1c1ccc(/C=C/c2ccc(O)cc2)cc1 (3D coordinates assigned)
O=C1c2ccccc2C(=O)N1c1ccc(/C=C/c2ccc(O)cc2)cc1 (nonaromatic ring conformer: 87.66803792413764 kcal/mol)

>  <smiles>  (53) 
O=C1c2ccccc2C(=O)N1c1ccc(C=Cc2ccc(O)cc2)cc1

>  <score_type>  (53) 
oracle

>  <origin>  (53) 
adg

>  <m_score__min__energy>  (53) 
-8.6099999999999994

>  <m_primary>  (53) 
energy

$$$$
53:0
     RDKit          3D

 39 41  0  0  0  0  0  0  0  0999 V2000
   58.2410   29.2800   44.3810 C   0  0  0  0  0  0  0  0  0  0  0  0
   57.2150   28.9700   45.4280 C   0  0  0  0  0  0  0  0  0  0  0  0
   56.0180   29.3010   45.2290 O   0  0  0  0  0  0  0  0  0  0  0  0
   57.5490   28.2720   46.6350 N   0  0  0  0  0  0  0  0  0  0  0  0
   58.8180   28.3720   47.3490 C   0  0  0  0  0  0  0  0  0  0  0  0
   58.8850   29.6480   48.1330 C   0  0  0  0  0  0  0  0  0  0  0  0
   59.4800   30.7920   47.5870 C   0  0  0  0  0  0  0  0  0  0  0  0
   59.5000   31.9720   48.3300 C   0  0  0  0  0  0  0  0  0  0  0  0
   58.9350   32.0020   49.6060 C   0  0  0  0  0  0  0  0  0  0  0  0
   58.3630   30.8340   50.1350 C   0  0  0  0  0  0  0  0  0  0  0  0
   57.7120   30.8160   51.4580 C   0  0  0  0  0  0  0  0  0  0  0  0
   56.3550   30.7830   51.5500 N   0  0  0  0  0  0  0  0  0  0  0  0
   55.9350   30.7730   52.8340 C   0  0  0  0  0  0  0  0  0  0  0  0
   54.6880   30.7270   53.1940 N   0  0  0  0  0  0  0  0  0  0  0  0
   53.6230   30.1500   52.4240 C   0  0  0  0  0  0  0  0  0  0  0  0
   53.5930   28.8990   52.2810 O   0  0  0  0  0  0  0  0  0  0  0  0
   52.5280   30.9690   51.8620 C   0  0  0  0  0  0  0  0  0  0  0  0
   52.3120   31.2720   50.5320 C   0  0  0  0  0  0  0  0  0  0  0  0
   51.2170   32.1090   50.5170 C   0  0  0  0  0  0  0  0  0  0  0  0
   50.6560   32.6510   49.3680 O   0  0  0  0  0  0  0  0  0  0  0  0
   50.7450   32.3550   51.7540 N   0  0  0  0  0  0  0  0  0  0  0  0
   51.5560   31.6550   52.5690 C   0  0  0  0  0  0  0  0  0  0  0  0
   51.4130   31.6410   53.9500 O   0  0  0  0  0  0  0  0  0  0  0  0
   57.2150   30.7640   53.9180 S   0  0  0  0  0  0  0  0  0  0  0  0
   58.3740   30.7890   52.6950 C   0  0  0  0  0  0  0  0  0  0  0  0
   59.8480   30.7520   52.9460 C   0  0  0  0  0  0  0  0  0  0  0  0
   58.3420   29.7020   49.3800 N   0  0  0  0  0  0  0  0  0  0  0  0
   59.1858   29.5655   44.8667 H   0  0  0  0  0  0  0  0  0  0  0  0
   58.4050   28.3913   43.7538 H   0  0  0  0  0  0  0  0  0  0  0  0
   57.8854   30.1108   43.7538 H   0  0  0  0  0  0  0  0  0  0  0  0
   58.9132   27.5195   48.0376 H   0  0  0  0  0  0  0  0  0  0  0  0
   59.6382   28.3635   46.6160 H   0  0  0  0  0  0  0  0  0  0  0  0
   59.9270   30.7602   46.5824 H   0  0  0  0  0  0  0  0  0  0  0  0
   59.9608   32.8786   47.9107 H   0  0  0  0  0  0  0  0  0  0  0  0
   58.9379   32.9328   50.1921 H   0  0  0  0  0  0  0  0  0  0  0  0
   52.8920   30.9194   49.6664 H   0  0  0  0  0  0  0  0  0  0  0  0
   60.0354   30.7473   54.0299 H   0  0  0  0  0  0  0  0  0  0  0  0
   60.2738   29.8429   52.4963 H   0  0  0  0  0  0  0  0  0  0  0  0
   60.3189   31.6386   52.4963 H   0  0  0  0  0  0  0  0  0  0  0  0
  1  2  1  0
  2  3  2  0
  2  4  1  0
  4  5  1  0
  5  6  1  0
  6  7  2  0
  7  8  1  0
  8  9  2  0
  9 10  1  0
 10 11  1  0
 11 12  1  0
 12 13  1  0
 13 14  2  3
 14 15  1  0
 15 16  2  0
 15 17  1  0
 17 18  1  0
 18 19  2  0
 19 20  1  0
 19 21  1  0
 21 22  1  0
 22 23  1  0
 13 24  1  0
 24 25  1  0
 25 26  1  0
 10 27  2  0
 27  6  1  0
 25 11  2  0
 22 17  2  0
  1 28  1  0
  1 29  1  0
  1 30  1  0
  5 31  1  0
  5 32  1  0
  7 33  1  0
  8 34  1  0
  9 35  1  0
 18 36  1  0
 26 37  1  0
 26 38  1  0
 26 39  1  0
M  CHG  5   4  -1  12  -1  20  -1  21  -1  23  -1
M  END
>  <UniqueID>  (54) 
48

>  <SMILES>  (54) 
CC(=O)[N-]Cc1cccc(-c2[n-]c(=NC(=O)c3cc([O-])[n-]c3[O-])sc2C)n1

>  <Energy>  (54) 
101.5866885306423

>  <Genealogy>  (54) 
CC(=O)[N-]Cc1cccc(-c2[n-]c(=NC(=O)c3cc([O-])[n-]c3[O-])sc2C)n1 (protonated)
CC(=O)[N-]Cc1cccc(-c2[n-]c(=NC(=O)c3cc([O-])[n-]c3[O-])sc2C)n1 (3D coordinates assigned)
CC(=O)[N-]Cc1cccc(-c2[n-]c(=NC(=O)c3cc([O-])[n-]c3[O-])sc2C)n1 (optimized conformer: 101.5866885306423 kcal/mol)

>  <smiles>  (54) 
CC(=O)NCc1cccc(-c2[nH]c(=NC(=O)c3cc(O)[nH]c3O)sc2C)n1

>  <score_type>  (54) 
oracle

>  <origin>  (54) 
adg

>  <m_score__min__energy>  (54) 
-18.91

>  <m_primary>  (54) 
energy

$$$$
54:0
     RDKit          3D

 49 52  0  0  0  0  0  0  0  0999 V2000
   56.4478   34.9971   45.5964 H   0  0  0  0  0  0  0  0  0  0  0  0
   57.0940   34.1080   45.6400 C   0  0  0  0  0  0  0  0  0  0  0  0
   58.2580   34.1490   46.3360 N   0  0  0  0  0  0  0  0  0  0  0  0
   59.0620   33.0540   46.3980 C   0  0  0  0  0  0  0  0  0  0  0  0
   60.3070   33.0880   47.1290 N   0  0  0  0  0  0  0  0  0  0  0  0
   60.5190   32.1030   48.2040 C   0  0  0  0  0  0  0  0  0  0  0  0
   60.3190   31.0997   47.7998 H   0  0  0  0  0  0  0  0  0  0  0  0
   59.8354   32.3699   49.0234 H   0  0  0  0  0  0  0  0  0  0  0  0
   61.9190   32.1170   48.7750 C   0  0  0  0  0  0  0  0  0  0  0  0
   62.2060   31.3150   49.8910 C   0  0  0  0  0  0  0  0  0  0  0  0
   61.4065   30.7167   50.3523 H   0  0  0  0  0  0  0  0  0  0  0  0
   63.4980   31.2700   50.4210 C   0  0  0  0  0  0  0  0  0  0  0  0
   63.7074   30.6457   51.3022 H   0  0  0  0  0  0  0  0  0  0  0  0
   64.5320   32.0200   49.8320 C   0  0  0  0  0  0  0  0  0  0  0  0
   65.8480   31.9980   50.3180 O   0  0  0  0  0  0  0  0  0  0  0  0
   66.7750   33.0710   50.1780 C   0  0  0  0  0  0  0  0  0  0  0  0
   67.0802   33.4242   51.1740 H   0  0  0  0  0  0  0  0  0  0  0  0
   67.6599   32.7214   49.6259 H   0  0  0  0  0  0  0  0  0  0  0  0
   66.3006   33.8957   49.6259 H   0  0  0  0  0  0  0  0  0  0  0  0
   64.2490   32.8160   48.7160 C   0  0  0  0  0  0  0  0  0  0  0  0
   65.0548   33.3996   48.2468 H   0  0  0  0  0  0  0  0  0  0  0  0
   62.9500   32.8790   48.1880 C   0  0  0  0  0  0  0  0  0  0  0  0
   62.6810   33.7030   46.9620 C   0  0  0  0  0  0  0  0  0  0  0  0
   62.8461   33.0848   46.0672 H   0  0  0  0  0  0  0  0  0  0  0  0
   63.3622   34.5666   46.9578 H   0  0  0  0  0  0  0  0  0  0  0  0
   61.2430   34.2100   46.9630 C   0  0  0  0  0  0  0  0  0  0  0  0
   61.0362   34.7171   46.0090 H   0  0  0  0  0  0  0  0  0  0  0  0
   61.1116   34.9126   47.7991 H   0  0  0  0  0  0  0  0  0  0  0  0
   58.6810   31.9180   45.7560 N   0  0  0  0  0  0  0  0  0  0  0  0
   57.5210   31.8730   45.0460 C   0  0  0  0  0  0  0  0  0  0  0  0
   57.1370   30.7820   44.4500 N   0  0  0  0  0  0  0  0  0  0  0  0
   57.5790   29.4440   44.7410 C   0  0  0  0  0  0  0  0  0  0  0  0
   58.8530   28.9810   44.3660 C   0  0  0  0  0  0  0  0  0  0  0  0
   59.5440   29.6509   43.8333 H   0  0  0  0  0  0  0  0  0  0  0  0
   59.2450   27.6740   44.6670 C   0  0  0  0  0  0  0  0  0  0  0  0
   60.2500   27.3250   44.3872 H   0  0  0  0  0  0  0  0  0  0  0  0
   58.3650   26.8090   45.3220 C   0  0  0  0  0  0  0  0  0  0  0  0
   58.7640   25.5430   45.5980 F   0  0  0  0  0  0  0  0  0  0  0  0
   57.0690   27.2410   45.6550 C   0  0  0  0  0  0  0  0  0  0  0  0
   56.1350   26.3240   46.3420 C   0  0  0  0  0  0  0  0  0  0  0  0
   56.5750   25.5750   47.2530 O   0  0  0  0  0  0  0  0  0  0  0  0
   54.7520   26.2320   45.9780 N   0  0  0  0  0  0  0  0  0  0  0  0
   54.0650   24.9990   45.6180 C   0  0  0  0  0  0  0  0  0  0  0  0
   53.7673   24.4647   46.5323 H   0  0  0  0  0  0  0  0  0  0  0  0
   53.1699   25.2377   45.0249 H   0  0  0  0  0  0  0  0  0  0  0  0
   54.7390   24.3634   45.0249 H   0  0  0  0  0  0  0  0  0  0  0  0
   56.6860   28.5610   45.3640 C   0  0  0  0  0  0  0  0  0  0  0  0
   55.6751   28.9052   45.6277 H   0  0  0  0  0  0  0  0  0  0  0  0
   56.7270   32.9710   44.9980 N   0  0  0  0  0  0  0  0  0  0  0  0
  1  2  1  0
  2  3  2  0
  3  4  1  0
  4  5  1  0
  5  6  1  0
  6  7  1  0
  6  8  1  0
  6  9  1  0
  9 10  2  0
 10 11  1  0
 10 12  1  0
 12 13  1  0
 12 14  2  0
 14 15  1  0
 15 16  1  0
 16 17  1  0
 16 18  1  0
 16 19  1  0
 14 20  1  0
 20 21  1  0
 20 22  2  0
 22 23  1  0
 23 24  1  0
 23 25  1  0
 23 26  1  0
 26 27  1  0
 26 28  1  0
  4 29  2  0
 29 30  1  0
 30 31  2  0
 31 32  1  0
 32 33  2  0
 33 34  1  0
 33 35  1  0
 35 36  1  0
 35 37  2  0
 37 38  1  0
 37 39  1  0
 39 40  1  0
 40 41  2  0
 40 42  1  0
 42 43  1  0
 43 44  1  0
 43 45  1  0
 43 46  1  0
 39 47  2  0
 47 48  1  0
 30 49  1  0
 49  2  1  0
 26  5  1  0
 47 32  1  0
 22  9  1  0
M  CHG  2  42  -1  49  -1
M  END
>  <UniqueID>  (55) 
49

>  <SMILES>  (55) 
C[N-]C(=O)c1cc(/N=c2\nc(N3CCc4cc(OC)ccc4C3)nc[n-]2)ccc1F

>  <Energy>  (55) 
65.24223157586388

>  <Genealogy>  (55) 
C[N-]C(=O)c1cc(N=c2nc(N3CCc4cc(OC)ccc4C3)nc[n-]2)ccc1F (protonated)
C[N-]C(=O)c1cc(/N=c2\nc(N3CCc4cc(OC)ccc4C3)nc[n-]2)ccc1F (cis-trans isomerization)
C[N-]C(=O)c1cc(/N=c2\nc(N3CCc4cc(OC)ccc4C3)nc[n-]2)ccc1F (3D coordinates assigned)
C[N-]C(=O)c1cc(/N=c2\nc(N3CCc4cc(OC)ccc4C3)nc[n-]2)ccc1F (nonaromatic ring conformer: 65.24223157586388 kcal/mol)

>  <smiles>  (55) 
CNC(=O)c1cc(N=c2nc(N3CCc4cc(OC)ccc4C3)nc[nH]2)ccc1F

>  <score_type>  (55) 
oracle

>  <origin>  (55) 
adg

>  <m_score__min__energy>  (55) 
-12.029999999999999

>  <m_primary>  (55) 
energy

$$$$
55:0
     RDKit          3D

 28 28  0  0  0  0  0  0  0  0999 V2000
   57.0105   32.8802   45.7007 H   0  0  0  0  0  0  0  0  0  0  0  0
   57.8260   32.1970   45.4210 C   0  0  0  0  0  0  0  0  0  0  0  0
   57.5360   31.1820   44.5820 C   0  0  0  0  0  0  0  0  0  0  0  0
   57.4300   31.4860   43.1110 C   0  0  0  0  0  0  0  0  0  0  0  0
   57.0706   32.5166   42.9746 H   0  0  0  0  0  0  0  0  0  0  0  0
   58.4190   31.3774   42.6419 H   0  0  0  0  0  0  0  0  0  0  0  0
   56.7229   30.7860   42.6419 H   0  0  0  0  0  0  0  0  0  0  0  0
   57.2720   29.7720   45.0630 C   0  0  0  0  0  0  0  0  0  0  0  0
   57.8933   29.0712   44.4861 H   0  0  0  0  0  0  0  0  0  0  0  0
   57.5209   29.7102   46.1327 H   0  0  0  0  0  0  0  0  0  0  0  0
   55.5560   29.3460   44.8480 S   0  0  0  0  0  0  0  0  0  0  0  0
   59.1630   32.4530   45.9890 C   0  0  0  0  0  0  0  0  0  0  0  0
   59.7260   33.7370   45.9650 C   0  0  0  0  0  0  0  0  0  0  0  0
   59.1756   34.5669   45.4979 H   0  0  0  0  0  0  0  0  0  0  0  0
   60.9820   33.9680   46.5310 C   0  0  0  0  0  0  0  0  0  0  0  0
   61.4213   34.9758   46.4934 H   0  0  0  0  0  0  0  0  0  0  0  0
   61.6890   32.9200   47.1490 C   0  0  0  0  0  0  0  0  0  0  0  0
   63.0230   33.1580   47.7550 C   0  0  0  0  0  0  0  0  0  0  0  0
   63.1410   33.9870   48.9180 N   0  0  0  0  0  0  0  0  0  0  0  0
   64.0660   34.1270   49.3820 H   0  0  0  0  0  0  0  0  0  0  0  0
   62.3190   34.5080   49.2940 H   0  0  0  0  0  0  0  0  0  0  0  0
   64.0900   32.6150   47.2450 N   0  0  0  0  0  0  0  0  0  0  0  0
   64.1870   31.5800   47.1490 H   0  0  0  0  0  0  0  0  0  0  0  0
   64.8960   33.2050   46.9410 H   0  0  0  0  0  0  0  0  0  0  0  0
   61.1060   31.6420   47.1990 C   0  0  0  0  0  0  0  0  0  0  0  0
   61.6422   30.8154   47.6881 H   0  0  0  0  0  0  0  0  0  0  0  0
   59.8490   31.4150   46.6310 C   0  0  0  0  0  0  0  0  0  0  0  0
   59.3959   30.4143   46.6888 H   0  0  0  0  0  0  0  0  0  0  0  0
  1  2  1  0
  2  3  2  0
  3  4  1  0
  4  5  1  0
  4  6  1  0
  4  7  1  0
  3  8  1  0
  8  9  1  0
  8 10  1  0
  8 11  1  0
  2 12  1  0
 12 13  2  0
 13 14  1  0
 13 15  1  0
 15 16  1  0
 15 17  2  0
 17 18  1  0
 18 19  1  0
 19 20  1  0
 19 21  1  0
 18 22  2  0
 22 23  1  0
 22 24  1  0
 17 25  1  0
 25 26  1  0
 25 27  2  0
 27 28  1  0
 27 12  1  0
M  CHG  2  11  -1  22   1
M  END
>  <UniqueID>  (56) 
50

>  <SMILES>  (56) 
C/C(=C/c1ccc(C(N)=[NH2+])cc1)C[S-]

>  <Energy>  (56) 
31.89245295379327

>  <Genealogy>  (56) 
CC(=Cc1ccc(C(N)=[NH2+])cc1)C[S-] (protonated)
C/C(=C/c1ccc(C(N)=[NH2+])cc1)C[S-] (cis-trans isomerization)
C/C(=C/c1ccc(C(N)=[NH2+])cc1)C[S-] (3D coordinates assigned)
C/C(=C/c1ccc(C(N)=[NH2+])cc1)C[S-] (optimized conformer: 31.89245295379327 kcal/mol)

>  <smiles>  (56) 
CC(=Cc1ccc(C(=N)N)cc1)CS

>  <score_type>  (56) 
oracle

>  <origin>  (56) 
adg

>  <m_score__min__energy>  (56) 
-5.9000000000000004

>  <m_primary>  (56) 
energy

$$$$
56:0
     RDKit          3D

 57 60  0  0  0  0  0  0  0  0999 V2000
   56.9681   32.5271   54.1095 H   0  0  0  0  0  0  0  0  0  0  0  0
   57.3160   31.9670   53.2290 C   0  0  0  0  0  0  0  0  0  0  0  0
   58.0680   32.6060   52.2350 C   0  0  0  0  0  0  0  0  0  0  0  0
   58.4240   34.0530   52.3650 C   0  0  0  0  0  0  0  0  0  0  0  0
   58.4897   34.3202   53.4300 H   0  0  0  0  0  0  0  0  0  0  0  0
   59.3942   34.2369   51.8803 H   0  0  0  0  0  0  0  0  0  0  0  0
   57.6499   34.6660   51.8803 H   0  0  0  0  0  0  0  0  0  0  0  0
   58.5000   31.8980   51.1570 N   0  0  0  0  0  0  0  0  0  0  0  0
   58.2110   30.5750   50.9940 C   0  0  0  0  0  0  0  0  0  0  0  0
   58.6530   29.9090   49.9680 N   0  0  0  0  0  0  0  0  0  0  0  0
   59.6830   30.3380   49.0590 C   0  0  0  0  0  0  0  0  0  0  0  0
   60.1620   29.5100   48.1760 N   0  0  0  0  0  0  0  0  0  0  0  0
   59.4380   28.9000   47.0950 C   0  0  0  0  0  0  0  0  0  0  0  0
   59.6420   27.5410   46.8300 C   0  0  0  0  0  0  0  0  0  0  0  0
   60.3758   26.9726   47.4203 H   0  0  0  0  0  0  0  0  0  0  0  0
   58.9180   26.9020   45.8190 C   0  0  0  0  0  0  0  0  0  0  0  0
   59.0955   25.8375   45.6059 H   0  0  0  0  0  0  0  0  0  0  0  0
   57.9700   27.6120   45.0790 C   0  0  0  0  0  0  0  0  0  0  0  0
   57.4038   27.1064   44.2829 H   0  0  0  0  0  0  0  0  0  0  0  0
   57.7390   28.9670   45.3490 C   0  0  0  0  0  0  0  0  0  0  0  0
   56.5120   29.8450   44.4390 S   0  0  0  0  0  0  0  0  0  0  0  0
   55.1470   29.2910   44.7430 O   0  0  0  0  0  0  0  0  0  0  0  0
   56.7870   29.6760   42.9730 O   0  0  0  0  0  0  0  0  0  0  0  0
   56.5480   31.5420   44.8290 N   0  0  0  0  0  0  0  0  0  0  0  0
   57.7510   32.1850   44.2950 C   0  0  0  0  0  0  0  0  0  0  0  0
   58.5043   31.4137   44.0767 H   0  0  0  0  0  0  0  0  0  0  0  0
   57.4798   32.7293   43.3784 H   0  0  0  0  0  0  0  0  0  0  0  0
   58.3230   33.1660   45.2840 C   0  0  0  0  0  0  0  0  0  0  0  0
   58.0380   33.0380   46.6530 C   0  0  0  0  0  0  0  0  0  0  0  0
   57.3913   32.2202   47.0039 H   0  0  0  0  0  0  0  0  0  0  0  0
   58.5730   33.9460   47.5720 C   0  0  0  0  0  0  0  0  0  0  0  0
   58.3484   33.8401   48.6436 H   0  0  0  0  0  0  0  0  0  0  0  0
   59.3930   34.9880   47.1300 C   0  0  0  0  0  0  0  0  0  0  0  0
   59.8164   35.6996   47.8542 H   0  0  0  0  0  0  0  0  0  0  0  0
   59.6750   35.1260   45.7690 C   0  0  0  0  0  0  0  0  0  0  0  0
   60.3173   35.9489   45.4223 H   0  0  0  0  0  0  0  0  0  0  0  0
   59.1430   34.2210   44.8470 C   0  0  0  0  0  0  0  0  0  0  0  0
   59.3665   34.3343   43.7759 H   0  0  0  0  0  0  0  0  0  0  0  0
   58.4620   29.6050   46.3650 C   0  0  0  0  0  0  0  0  0  0  0  0
   58.2662   30.6629   46.5939 H   0  0  0  0  0  0  0  0  0  0  0  0
   60.0410   31.7280   48.9840 N   0  0  0  0  0  0  0  0  0  0  0  0
   59.3140   32.4320   49.2440 H   0  0  0  0  0  0  0  0  0  0  0  0
   61.3020   32.2070   48.4850 C   0  0  0  0  0  0  0  0  0  0  0  0
   61.8220   33.4170   48.9710 C   0  0  0  0  0  0  0  0  0  0  0  0
   61.2552   33.9954   49.7154 H   0  0  0  0  0  0  0  0  0  0  0  0
   63.0560   33.8920   48.5150 C   0  0  0  0  0  0  0  0  0  0  0  0
   63.4508   34.8469   48.8923 H   0  0  0  0  0  0  0  0  0  0  0  0
   63.7880   33.1540   47.5800 C   0  0  0  0  0  0  0  0  0  0  0  0
   64.7560   33.5306   47.2180 H   0  0  0  0  0  0  0  0  0  0  0  0
   63.2900   31.9390   47.1060 C   0  0  0  0  0  0  0  0  0  0  0  0
   63.8698   31.3566   46.3748 H   0  0  0  0  0  0  0  0  0  0  0  0
   62.0560   31.4600   47.5580 C   0  0  0  0  0  0  0  0  0  0  0  0
   61.6729   30.4972   47.1887 H   0  0  0  0  0  0  0  0  0  0  0  0
   57.4610   29.9100   51.9710 C   0  0  0  0  0  0  0  0  0  0  0  0
   57.2265   28.8413   51.8571 H   0  0  0  0  0  0  0  0  0  0  0  0
   57.0130   30.6120   53.0900 C   0  0  0  0  0  0  0  0  0  0  0  0
   56.4215   30.0980   53.8620 H   0  0  0  0  0  0  0  0  0  0  0  0
  1  2  1  0
  2  3  2  0
  3  4  1  0
  4  5  1  0
  4  6  1  0
  4  7  1  0
  3  8  1  0
  8  9  1  0
  9 10  2  0
 10 11  1  0
 11 12  2  0
 12 13  1  0
 13 14  2  0
 14 15  1  0
 14 16  1  0
 16 17  1  0
 16 18  2  0
 18 19  1  0
 18 20  1  0
 20 21  1  0
 21 22  2  0
 21 23  2  0
 21 24  1  0
 24 25  1  0
 25 26  1  0
 25 27  1  0
 25 28  1  0
 28 29  2  0
 29 30  1  0
 29 31  1  0
 31 32  1  0
 31 33  2  0
 33 34  1  0
 33 35  1  0
 35 36  1  0
 35 37  2  0
 37 38  1  0
 20 39  2  0
 39 40  1  0
 11 41  1  0
 41 42  1  0
 41 43  1  0
 43 44  2  0
 44 45  1  0
 44 46  1  0
 46 47  1  0
 46 48  2  0
 48 49  1  0
 48 50  1  0
 50 51  1  0
 50 52  2  0
 52 53  1  0
  9 54  1  0
 54 55  1  0
 54 56  2  0
 56 57  1  0
 56  2  1  0
 39 13  1  0
 52 43  1  0
 37 28  1  0
M  CHG  2   8  -1  24  -1
M  END
>  <UniqueID>  (57) 
51

>  <SMILES>  (57) 
Cc1cccc(=N/C(=N\c2cccc(S(=O)(=O)[N-]Cc3ccccc3)c2)Nc2ccccc2)[n-]1

>  <Energy>  (57) 
70.316112946321

>  <Genealogy>  (57) 
Cc1cccc(=NC(=Nc2cccc(S(=O)(=O)[N-]Cc3ccccc3)c2)Nc2ccccc2)[n-]1 (protonated)
Cc1cccc(=N/C(=N\c2cccc(S(=O)(=O)[N-]Cc3ccccc3)c2)Nc2ccccc2)[n-]1 (cis-trans isomerization)
Cc1cccc(=N/C(=N\c2cccc(S(=O)(=O)[N-]Cc3ccccc3)c2)Nc2ccccc2)[n-]1 (3D coordinates assigned)
Cc1cccc(=N/C(=N\c2cccc(S(=O)(=O)[N-]Cc3ccccc3)c2)Nc2ccccc2)[n-]1 (optimized conformer: 70.316112946321 kcal/mol)

>  <smiles>  (57) 
Cc1cccc(=NC(=Nc2cccc(S(=O)(=O)NCc3ccccc3)c2)Nc2ccccc2)[nH]1

>  <score_type>  (57) 
oracle

>  <origin>  (57) 
adg

>  <m_score__min__energy>  (57) 
-12.92

>  <m_primary>  (57) 
energy

$$$$
57:0
     RDKit          3D

 64 70  0  0  0  0  0  0  0  0999 V2000
   59.1130   29.6660   52.7920 C   0  0  0  0  0  0  0  0  0  0  0  0
   58.8650   30.4260   51.5230 C   0  0  0  0  0  0  0  0  0  0  0  0
   58.1030   31.5990   51.5380 C   0  0  0  0  0  0  0  0  0  0  0  0
   57.9060   32.3250   50.3620 C   0  0  0  0  0  0  0  0  0  0  0  0
   58.4760   31.9060   49.1540 C   0  0  0  0  0  0  0  0  0  0  0  0
   59.2670   30.7180   49.1300 C   0  0  0  0  0  0  0  0  0  0  0  0
   59.4540   30.0000   50.3260 C   0  0  0  0  0  0  0  0  0  0  0  0
   59.9180   30.1920   47.8550 C   0  0  2  0  0  0  0  0  0  0  0  0
   60.9670   31.1890   47.2900 C   0  0  2  0  0  0  0  0  0  0  0  0
   62.0740   31.5340   48.2650 C   0  0  0  0  0  0  0  0  0  0  0  0
   62.4340   30.6880   49.1300 O   0  0  0  0  0  0  0  0  0  0  0  0
   62.7630   32.8040   48.1310 N   0  0  0  0  0  0  0  0  0  0  0  0
   63.8140   33.1990   49.0500 C   0  0  0  0  0  0  0  0  0  0  0  0
   64.9710   33.4680   48.6210 O   0  0  0  0  0  0  0  0  0  0  0  0
   63.5890   33.2660   50.5070 C   0  0  0  0  0  0  0  0  0  0  0  0
   62.2830   33.5560   50.9410 C   0  0  0  0  0  0  0  0  0  0  0  0
   61.9520   33.4940   52.2940 C   0  0  0  0  0  0  0  0  0  0  0  0
   62.9100   33.1050   53.2260 C   0  0  0  0  0  0  0  0  0  0  0  0
   64.2120   32.8120   52.8140 C   0  0  0  0  0  0  0  0  0  0  0  0
   64.5990   32.9440   51.4610 C   0  0  0  0  0  0  0  0  0  0  0  0
   66.0520   32.6120   51.0860 C   0  0  1  0  0  0  0  0  0  0  0  0
   66.9790   32.6730   52.2250 N   0  0  0  0  0  0  0  0  0  0  0  0
   67.0920   31.6570   53.0120 C   0  0  0  0  0  0  0  0  0  0  0  0
   66.4160   30.4610   52.6580 N   0  0  0  0  0  0  0  0  0  0  0  0
   65.3950   29.9100   53.4400 C   0  0  0  0  0  0  0  0  0  0  0  0
   65.3910   29.9180   54.6990 O   0  0  0  0  0  0  0  0  0  0  0  0
   64.3160   29.3940   52.5920 C   0  0  0  0  0  0  0  0  0  0  0  0
   64.6750   29.7250   51.2620 O   0  0  0  0  0  0  0  0  0  0  0  0
   66.0150   30.2120   51.2790 C   0  0  1  0  0  0  0  0  0  0  0  0
   66.1620   31.3510   50.4230 O   0  0  0  0  0  0  0  0  0  0  0  0
   62.4670   33.5940   46.9200 C   0  0  0  0  0  0  0  0  0  0  0  0
   60.9870   33.5900   46.6460 C   0  0  0  0  0  0  0  0  0  0  0  0
   60.2770   32.4580   46.8060 C   0  0  0  0  0  0  0  0  0  0  0  0
   58.7660   32.4680   46.7140 C   0  0  2  0  0  0  0  0  0  0  0  0
   58.2300   32.7040   48.0170 O   0  0  0  0  0  0  0  0  0  0  0  0
   58.2950   31.1290   46.2350 C   0  0  0  0  0  0  0  0  0  0  0  0
   57.3910   31.0310   45.3610 O   0  0  0  0  0  0  0  0  0  0  0  0
   58.8770   29.9650   46.8400 N   0  0  0  0  0  0  0  0  0  0  0  0
   58.4610   28.6190   46.4400 C   0  0  0  0  0  0  0  0  0  0  0  0
   58.9014   30.3144   53.6550 H   0  0  0  0  0  0  0  0  0  0  0  0
   58.4559   28.7845   52.8258 H   0  0  0  0  0  0  0  0  0  0  0  0
   60.1636   29.3417   52.8258 H   0  0  0  0  0  0  0  0  0  0  0  0
   57.6573   31.9507   52.4801 H   0  0  0  0  0  0  0  0  0  0  0  0
   57.2944   33.2390   50.3849 H   0  0  0  0  0  0  0  0  0  0  0  0
   60.0723   29.0902   50.3204 H   0  0  0  0  0  0  0  0  0  0  0  0
   60.4358   29.2530   48.1003 H   0  0  0  0  0  0  0  0  0  0  0  0
   61.4531   30.6766   46.4467 H   0  0  0  0  0  0  0  0  0  0  0  0
   61.5144   33.8347   50.2051 H   0  0  0  0  0  0  0  0  0  0  0  0
   60.9351   33.7522   52.6245 H   0  0  0  0  0  0  0  0  0  0  0  0
   62.6409   33.0282   54.2898 H   0  0  0  0  0  0  0  0  0  0  0  0
   64.9496   32.4723   53.5560 H   0  0  0  0  0  0  0  0  0  0  0  0
   66.3530   33.4032   50.3835 H   0  0  0  0  0  0  0  0  0  0  0  0
   67.5420   33.5350   52.4090 H   0  0  0  0  0  0  0  0  0  0  0  0
   67.6947   31.7163   53.9303 H   0  0  0  0  0  0  0  0  0  0  0  0
   64.2293   28.3032   52.7047 H   0  0  0  0  0  0  0  0  0  0  0  0
   63.3434   29.8278   52.8675 H   0  0  0  0  0  0  0  0  0  0  0  0
   66.6981   29.4530   50.8699 H   0  0  0  0  0  0  0  0  0  0  0  0
   62.8060   34.6297   47.0699 H   0  0  0  0  0  0  0  0  0  0  0  0
   62.9921   33.1474   46.0627 H   0  0  0  0  0  0  0  0  0  0  0  0
   60.4860   34.5117   46.3152 H   0  0  0  0  0  0  0  0  0  0  0  0
   58.4367   33.2527   46.0169 H   0  0  0  0  0  0  0  0  0  0  0  0
   58.2732   28.0114   47.3375 H   0  0  0  0  0  0  0  0  0  0  0  0
   57.5406   28.6825   45.8410 H   0  0  0  0  0  0  0  0  0  0  0  0
   59.2568   28.1521   45.8410 H   0  0  0  0  0  0  0  0  0  0  0  0
  1  2  1  0
  2  3  2  0
  3  4  1  0
  4  5  2  0
  5  6  1  0
  6  7  2  0
  6  8  1  0
  8  9  1  0
  9 10  1  0
 10 11  2  0
 10 12  1  0
 12 13  1  0
 13 14  2  0
 13 15  1  0
 15 16  2  0
 16 17  1  0
 17 18  2  0
 18 19  1  0
 19 20  2  0
 20 21  1  0
 21 22  1  0
 22 23  2  0
 23 24  1  0
 24 25  1  0
 25 26  2  0
 25 27  1  0
 27 28  1  0
 28 29  1  0
 29 30  1  0
 12 31  1  0
 31 32  1  0
 32 33  2  0
 33 34  1  0
 34 35  1  0
 34 36  1  0
 36 37  2  0
 36 38  1  0
 38 39  1  0
  7  2  1  0
 38  8  1  0
 35  5  1  0
 33  9  1  0
 20 15  1  0
 30 21  1  0
 29 24  1  0
  1 40  1  0
  1 41  1  0
  1 42  1  0
  3 43  1  0
  4 44  1  0
  7 45  1  0
  8 46  1  1
  9 47  1  6
 16 48  1  0
 17 49  1  0
 18 50  1  0
 19 51  1  0
 21 52  1  6
 22 53  1  0
 23 54  1  0
 27 55  1  0
 27 56  1  0
 29 57  1  6
 31 58  1  0
 31 59  1  0
 32 60  1  0
 34 61  1  6
 39 62  1  0
 39 63  1  0
 39 64  1  0
M  CHG  1  22   1
M  END
>  <UniqueID>  (58) 
52

>  <SMILES>  (58) 
Cc1ccc2c(c1)[C@@H]1[C@@H]3C(=O)N(C(=O)c4ccccc4C4[NH+]=CN5C(=O)COC5O4)CC=C3C(O2)C(=O)N1C

>  <Energy>  (58) 
119.0731906299991

>  <Genealogy>  (58) 
Cc1ccc2c(c1)C1C3C(=O)N(C(=O)c4ccccc4C4[NH+]=CN5C(=O)COC5O4)CC=C3C(O2)C(=O)N1C (protonated)
Cc1ccc2c(c1)[C@@H]1[C@@H]3C(=O)N(C(=O)c4ccccc4C4[NH+]=CN5C(=O)COC5O4)CC=C3C(O2)C(=O)N1C (chirality)
Cc1ccc2c(c1)[C@@H]1[C@@H]3C(=O)N(C(=O)c4ccccc4C4[NH+]=CN5C(=O)COC5O4)CC=C3C(O2)C(=O)N1C (3D coordinates assigned)
Cc1ccc2c(c1)[C@@H]1[C@@H]3C(=O)N(C(=O)c4ccccc4C4[NH+]=CN5C(=O)COC5O4)CC=C3C(O2)C(=O)N1C (nonaromatic ring conformer: 119.0731906299991 kcal/mol)

>  <smiles>  (58) 
Cc1ccc2c(c1)C1C3C(=O)N(C(=O)c4ccccc4C4N=CN5C(=O)COC5O4)CC=C3C(O2)C(=O)N1C

>  <score_type>  (58) 
oracle

>  <origin>  (58) 
adg

>  <m_score__min__energy>  (58) 
-7.7599999999999998

>  <m_primary>  (58) 
energy

$$$$
58:0
     RDKit          3D

 48 50  0  0  0  0  0  0  0  0999 V2000
   62.5030   34.5600   49.8150 C   0  0  0  0  0  0  0  0  0  0  0  0
   61.9490   33.3400   49.1430 C   0  0  0  0  0  0  0  0  0  0  0  0
   62.6770   32.7040   48.1310 C   0  0  0  0  0  0  0  0  0  0  0  0
   62.1490   31.5710   47.5140 C   0  0  0  0  0  0  0  0  0  0  0  0
   60.9280   31.0970   47.8780 N   0  0  0  0  0  0  0  0  0  0  0  0
   60.1690   31.7110   48.8310 C   0  0  0  0  0  0  0  0  0  0  0  0
   59.0070   31.1960   49.1310 N   0  0  0  0  0  0  0  0  0  0  0  0
   58.7330   30.1340   50.0540 C   0  0  0  0  0  0  0  0  0  0  0  0
   57.7840   30.2640   50.8720 O   0  0  0  0  0  0  0  0  0  0  0  0
   59.6500   28.9550   50.1810 C   0  0  0  0  0  0  0  0  0  0  0  0
   60.3750   28.7810   48.9660 O   0  0  0  0  0  0  0  0  0  0  0  0
   59.9310   28.0020   47.8870 C   0  0  0  0  0  0  0  0  0  0  0  0
   60.5950   26.8020   47.6130 C   0  0  0  0  0  0  0  0  0  0  0  0
   60.1810   25.9880   46.5550 C   0  0  0  0  0  0  0  0  0  0  0  0
   59.0900   26.3620   45.7690 C   0  0  0  0  0  0  0  0  0  0  0  0
   58.3970   27.5500   46.0440 C   0  0  0  0  0  0  0  0  0  0  0  0
   57.2070   27.9100   45.2510 C   0  0  0  0  0  0  0  0  0  0  0  0
   56.0730   27.5230   45.6380 O   0  0  0  0  0  0  0  0  0  0  0  0
   57.2960   28.7020   44.0590 N   0  0  0  0  0  0  0  0  0  0  0  0
   56.4960   30.2230   43.8090 S   0  0  0  0  0  0  0  0  0  0  0  0
   55.1580   30.1930   44.4920 O   0  0  0  0  0  0  0  0  0  0  0  0
   56.2850   30.4440   42.3380 O   0  0  0  0  0  0  0  0  0  0  0  0
   57.4450   31.5340   44.5070 C   0  0  0  0  0  0  0  0  0  0  0  0
   57.8160   32.6230   43.7070 C   0  0  0  0  0  0  0  0  0  0  0  0
   58.5010   33.7060   44.2650 C   0  0  0  0  0  0  0  0  0  0  0  0
   58.8160   33.7070   45.6280 C   0  0  0  0  0  0  0  0  0  0  0  0
   59.6550   35.0760   46.3330 Cl  0  0  0  0  0  0  0  0  0  0  0  0
   58.4550   32.6200   46.4280 C   0  0  0  0  0  0  0  0  0  0  0  0
   57.7770   31.5330   45.8700 C   0  0  0  0  0  0  0  0  0  0  0  0
   58.8390   28.3830   47.0830 C   0  0  0  0  0  0  0  0  0  0  0  0
   60.6810   32.8520   49.4860 C   0  0  0  0  0  0  0  0  0  0  0  0
   62.4463   34.4351   50.9064 H   0  0  0  0  0  0  0  0  0  0  0  0
   63.5524   34.6987   49.5159 H   0  0  0  0  0  0  0  0  0  0  0  0
   61.9169   35.4414   49.5159 H   0  0  0  0  0  0  0  0  0  0  0  0
   63.6584   33.0952   47.8248 H   0  0  0  0  0  0  0  0  0  0  0  0
   62.7233   31.0579   46.7286 H   0  0  0  0  0  0  0  0  0  0  0  0
   60.5640   30.2430   47.3980 H   0  0  0  0  0  0  0  0  0  0  0  0
   60.3556   29.1272   51.0071 H   0  0  0  0  0  0  0  0  0  0  0  0
   59.0574   28.0512   50.3858 H   0  0  0  0  0  0  0  0  0  0  0  0
   61.4494   26.4966   48.2348 H   0  0  0  0  0  0  0  0  0  0  0  0
   60.7160   25.0509   46.3414 H   0  0  0  0  0  0  0  0  0  0  0  0
   58.7728   25.7233   44.9315 H   0  0  0  0  0  0  0  0  0  0  0  0
   57.5671   32.6255   42.6355 H   0  0  0  0  0  0  0  0  0  0  0  0
   58.7924   34.5575   43.6325 H   0  0  0  0  0  0  0  0  0  0  0  0
   58.7050   32.6198   47.4992 H   0  0  0  0  0  0  0  0  0  0  0  0
   57.5030   30.6746   46.5009 H   0  0  0  0  0  0  0  0  0  0  0  0
   58.3295   29.3396   47.2708 H   0  0  0  0  0  0  0  0  0  0  0  0
   60.0869   33.3560   50.2626 H   0  0  0  0  0  0  0  0  0  0  0  0
  1  2  1  0
  2  3  1  0
  3  4  2  0
  4  5  1  0
  5  6  1  0
  6  7  2  3
  7  8  1  0
  8  9  2  0
  8 10  1  0
 10 11  1  0
 11 12  1  0
 12 13  2  0
 13 14  1  0
 14 15  2  0
 15 16  1  0
 16 17  1  0
 17 18  2  0
 17 19  1  0
 19 20  1  0
 20 21  2  0
 20 22  2  0
 20 23  1  0
 23 24  2  0
 24 25  1  0
 25 26  2  0
 26 27  1  0
 26 28  1  0
 28 29  2  0
 16 30  2  0
  6 31  1  0
 31  2  2  0
 30 12  1  0
 29 23  1  0
  1 32  1  0
  1 33  1  0
  1 34  1  0
  3 35  1  0
  4 36  1  0
  5 37  1  0
 10 38  1  0
 10 39  1  0
 13 40  1  0
 14 41  1  0
 15 42  1  0
 24 43  1  0
 25 44  1  0
 28 45  1  0
 29 46  1  0
 30 47  1  0
 31 48  1  0
M  CHG  1  19  -1
M  END
>  <UniqueID>  (59) 
53

>  <SMILES>  (59) 
Cc1cc[nH]c(=NC(=O)COc2cccc(C(=O)[N-]S(=O)(=O)c3ccc(Cl)cc3)c2)c1

>  <Energy>  (59) 
60.12225580243245

>  <Genealogy>  (59) 
Cc1cc[nH]c(=NC(=O)COc2cccc(C(=O)[N-]S(=O)(=O)c3ccc(Cl)cc3)c2)c1 (protonated)
Cc1cc[nH]c(=NC(=O)COc2cccc(C(=O)[N-]S(=O)(=O)c3ccc(Cl)cc3)c2)c1 (3D coordinates assigned)
Cc1cc[nH]c(=NC(=O)COc2cccc(C(=O)[N-]S(=O)(=O)c3ccc(Cl)cc3)c2)c1 (optimized conformer: 60.12225580243245 kcal/mol)

>  <smiles>  (59) 
Cc1cc[nH]c(=NC(=O)COc2cccc(C(=O)NS(=O)(=O)c3ccc(Cl)cc3)c2)c1

>  <score_type>  (59) 
oracle

>  <origin>  (59) 
adg

>  <m_score__min__energy>  (59) 
-11.029999999999999

>  <m_primary>  (59) 
energy

$$$$
59:0
     RDKit          3D

 53 54  0  0  0  0  0  0  0  0999 V2000
   59.8770   33.7040   50.4120 C   0  0  0  0  0  0  0  0  0  0  0  0
   59.5950   33.6630   48.9110 C   0  0  0  0  0  0  0  0  0  0  0  0
   60.7630   34.1860   48.0590 C   0  0  0  0  0  0  0  0  0  0  0  0
   60.3920   34.5580   46.6110 C   0  0  0  0  0  0  0  0  0  0  0  0
   58.8800   34.5860   46.3140 C   0  0  0  0  0  0  0  0  0  0  0  0
   58.5360   34.2720   44.8450 C   0  0  0  0  0  0  0  0  0  0  0  0
   58.4890   32.7930   44.5610 C   0  0  0  0  0  0  0  0  0  0  0  0
   57.3990   32.0760   44.8650 C   0  0  0  0  0  0  0  0  0  0  0  0
   56.9150   30.9470   43.9960 C   0  0  0  0  0  0  0  0  0  0  0  0
   56.6320   29.7170   44.8170 C   0  0  0  0  0  0  0  0  0  0  0  0
   55.4580   29.2610   44.8520 O   0  0  0  0  0  0  0  0  0  0  0  0
   57.6820   28.9600   45.4350 N   0  0  0  0  0  0  0  0  0  0  0  0
   58.7520   29.4860   46.2310 C   0  0  0  0  0  0  0  0  0  0  0  0
   58.5520   29.8510   47.5720 C   0  0  0  0  0  0  0  0  0  0  0  0
   59.6170   30.3440   48.3320 C   0  0  0  0  0  0  0  0  0  0  0  0
   60.8990   30.4540   47.7710 C   0  0  0  0  0  0  0  0  0  0  0  0
   61.9970   30.9500   48.5550 N   0  0  0  0  0  0  0  0  0  0  0  0
   61.9350   30.8360   50.0190 C   0  0  0  0  0  0  0  0  0  0  0  0
   63.3300   30.9330   50.6460 C   0  0  0  0  0  0  0  0  0  0  0  0
   64.0210   32.2250   50.2080 C   0  0  0  0  0  0  0  0  0  0  0  0
   64.0710   32.3080   48.7510 N   0  0  0  0  0  0  0  0  0  0  0  0
   63.0370   31.7390   47.9430 C   0  0  0  0  0  0  0  0  0  0  0  0
   63.0700   31.8980   46.6920 O   0  0  0  0  0  0  0  0  0  0  0  0
   61.1030   30.0500   46.4430 C   0  0  0  0  0  0  0  0  0  0  0  0
   60.0360   29.5620   45.6810 C   0  0  0  0  0  0  0  0  0  0  0  0
   58.9364   33.5672   50.9657 H   0  0  0  0  0  0  0  0  0  0  0  0
   60.5780   32.8983   50.6755 H   0  0  0  0  0  0  0  0  0  0  0  0
   60.3196   34.6759   50.6755 H   0  0  0  0  0  0  0  0  0  0  0  0
   59.3911   32.6213   48.6223 H   0  0  0  0  0  0  0  0  0  0  0  0
   58.7339   34.3211   48.7229 H   0  0  0  0  0  0  0  0  0  0  0  0
   61.1690   35.0831   48.5492 H   0  0  0  0  0  0  0  0  0  0  0  0
   61.4887   33.3622   47.9903 H   0  0  0  0  0  0  0  0  0  0  0  0
   60.8000   35.5575   46.4000 H   0  0  0  0  0  0  0  0  0  0  0  0
   60.8168   33.7698   45.9721 H   0  0  0  0  0  0  0  0  0  0  0  0
   58.3856   33.8407   46.9543 H   0  0  0  0  0  0  0  0  0  0  0  0
   58.5294   35.6087   46.5168 H   0  0  0  0  0  0  0  0  0  0  0  0
   57.5521   34.7060   44.6137 H   0  0  0  0  0  0  0  0  0  0  0  0
   59.3297   34.7051   44.2185 H   0  0  0  0  0  0  0  0  0  0  0  0
   59.3567   32.2980   44.1004 H   0  0  0  0  0  0  0  0  0  0  0  0
   56.8395   32.3206   45.7799 H   0  0  0  0  0  0  0  0  0  0  0  0
   55.9925   31.2575   43.4836 H   0  0  0  0  0  0  0  0  0  0  0  0
   57.7003   30.7067   43.2641 H   0  0  0  0  0  0  0  0  0  0  0  0
   57.5551   29.7488   48.0257 H   0  0  0  0  0  0  0  0  0  0  0  0
   59.4492   30.6475   49.3759 H   0  0  0  0  0  0  0  0  0  0  0  0
   61.3072   31.6477   50.4151 H   0  0  0  0  0  0  0  0  0  0  0  0
   61.5086   29.8542   50.2725 H   0  0  0  0  0  0  0  0  0  0  0  0
   63.2364   30.9253   51.7420 H   0  0  0  0  0  0  0  0  0  0  0  0
   63.9321   30.0749   50.3127 H   0  0  0  0  0  0  0  0  0  0  0  0
   63.4611   33.0864   50.6009 H   0  0  0  0  0  0  0  0  0  0  0  0
   65.0485   32.2304   50.6007 H   0  0  0  0  0  0  0  0  0  0  0  0
   64.8260   32.8730   48.3020 H   0  0  0  0  0  0  0  0  0  0  0  0
   62.1070   30.1173   45.9987 H   0  0  0  0  0  0  0  0  0  0  0  0
   60.2075   29.2365   44.6444 H   0  0  0  0  0  0  0  0  0  0  0  0
  1  2  1  0
  2  3  1  0
  3  4  1  0
  4  5  1  0
  5  6  1  0
  6  7  1  0
  7  8  2  3
  8  9  1  0
  9 10  1  0
 10 11  2  0
 10 12  1  0
 12 13  1  0
 13 14  2  0
 14 15  1  0
 15 16  2  0
 16 17  1  0
 17 18  1  0
 18 19  1  0
 19 20  1  0
 20 21  1  0
 21 22  1  0
 22 23  2  0
 16 24  1  0
 24 25  2  0
 25 13  1  0
 22 17  1  0
  1 26  1  0
  1 27  1  0
  1 28  1  0
  2 29  1  0
  2 30  1  0
  3 31  1  0
  3 32  1  0
  4 33  1  0
  4 34  1  0
  5 35  1  0
  5 36  1  0
  6 37  1  0
  6 38  1  0
  7 39  1  0
  8 40  1  0
  9 41  1  0
  9 42  1  0
 14 43  1  0
 15 44  1  0
 18 45  1  0
 18 46  1  0
 19 47  1  0
 19 48  1  0
 20 49  1  0
 20 50  1  0
 21 51  1  0
 24 52  1  0
 25 53  1  0
M  CHG  1  12  -1
M  END
>  <UniqueID>  (60) 
54

>  <SMILES>  (60) 
CCCCCCC=CCC(=O)[N-]c1ccc(N2CCCNC2=O)cc1

>  <Energy>  (60) 
47.251101057178204

>  <Genealogy>  (60) 
CCCCCCC=CCC(=O)[N-]c1ccc(N2CCCNC2=O)cc1 (protonated)
CCCCCCC=CCC(=O)[N-]c1ccc(N2CCCNC2=O)cc1 (3D coordinates assigned)
CCCCCCC=CCC(=O)[N-]c1ccc(N2CCCNC2=O)cc1 (nonaromatic ring conformer: 47.251101057178204 kcal/mol)

>  <smiles>  (60) 
CCCCCCC=CCC(=O)Nc1ccc(N2CCCNC2=O)cc1

>  <score_type>  (60) 
oracle

>  <origin>  (60) 
adg

>  <m_score__min__energy>  (60) 
-9.3499999999999996

>  <m_primary>  (60) 
energy

$$$$
60:0
     RDKit          3D

 43 45  0  0  0  0  0  0  0  0999 V2000
   54.9490   25.2170   45.6250 C   0  0  0  0  0  0  0  0  0  0  0  0
   55.4170   26.5240   45.9400 O   0  0  0  0  0  0  0  0  0  0  0  0
   56.7310   26.9360   45.6910 C   0  0  0  0  0  0  0  0  0  0  0  0
   57.6870   26.1270   45.8500 O   0  0  0  0  0  0  0  0  0  0  0  0
   56.9970   28.3210   45.2430 C   0  0  0  0  0  0  0  0  0  0  0  0
   55.9350   29.1620   44.8690 C   0  0  0  0  0  0  0  0  0  0  0  0
   56.1830   30.4730   44.4490 C   0  0  0  0  0  0  0  0  0  0  0  0
   57.4900   30.9690   44.4120 C   0  0  0  0  0  0  0  0  0  0  0  0
   57.7100   32.3160   43.9700 N   0  0  0  0  0  0  0  0  0  0  0  0
   57.7060   33.4750   44.8120 C   0  0  0  0  0  0  0  0  0  0  0  0
   56.9760   34.4530   44.4950 O   0  0  0  0  0  0  0  0  0  0  0  0
   58.4880   33.5290   46.0200 N   0  0  0  0  0  0  0  0  0  0  0  0
   58.5340   32.3770   46.9280 C   0  0  0  0  0  0  0  0  0  0  0  0
   59.9530   32.1980   47.4780 C   0  0  0  0  0  0  0  0  0  0  0  0
   60.5380   33.4750   47.9140 N   0  0  0  0  0  0  0  0  0  0  0  0
   61.8360   33.4720   48.5480 C   0  0  0  0  0  0  0  0  0  0  0  0
   62.9330   33.0260   47.8750 N   0  0  0  0  0  0  0  0  0  0  0  0
   64.1610   33.0190   48.4580 C   0  0  0  0  0  0  0  0  0  0  0  0
   64.3120   33.4740   49.7660 C   0  0  0  0  0  0  0  0  0  0  0  0
   63.1830   33.9290   50.4440 C   0  0  0  0  0  0  0  0  0  0  0  0
   61.9730   33.9200   49.8270 N   0  0  0  0  0  0  0  0  0  0  0  0
   59.7540   34.7160   47.8040 C   0  0  0  0  0  0  0  0  0  0  0  0
   59.0860   34.8090   46.4260 C   0  0  0  0  0  0  0  0  0  0  0  0
   58.5580   30.1240   44.7570 C   0  0  0  0  0  0  0  0  0  0  0  0
   58.3120   28.8140   45.1770 C   0  0  0  0  0  0  0  0  0  0  0  0
   54.7511   24.6643   46.5552 H   0  0  0  0  0  0  0  0  0  0  0  0
   54.0216   25.2912   45.0382 H   0  0  0  0  0  0  0  0  0  0  0  0
   55.7127   24.6856   45.0382 H   0  0  0  0  0  0  0  0  0  0  0  0
   54.9017   28.7868   44.9068 H   0  0  0  0  0  0  0  0  0  0  0  0
   55.3448   31.1177   44.1460 H   0  0  0  0  0  0  0  0  0  0  0  0
   57.8381   32.5439   47.7634 H   0  0  0  0  0  0  0  0  0  0  0  0
   58.2444   31.4708   46.3758 H   0  0  0  0  0  0  0  0  0  0  0  0
   59.9174   31.5116   48.3369 H   0  0  0  0  0  0  0  0  0  0  0  0
   60.5822   31.7927   46.6718 H   0  0  0  0  0  0  0  0  0  0  0  0
   65.0345   32.6545   47.8976 H   0  0  0  0  0  0  0  0  0  0  0  0
   65.2989   33.4741   50.2519 H   0  0  0  0  0  0  0  0  0  0  0  0
   63.2715   34.2950   51.4775 H   0  0  0  0  0  0  0  0  0  0  0  0
   58.9781   34.7244   48.5837 H   0  0  0  0  0  0  0  0  0  0  0  0
   60.4286   35.5755   47.9311 H   0  0  0  0  0  0  0  0  0  0  0  0
   58.2967   35.5742   46.4642 H   0  0  0  0  0  0  0  0  0  0  0  0
   59.8589   35.0735   45.6893 H   0  0  0  0  0  0  0  0  0  0  0  0
   59.5918   30.4949   44.6963 H   0  0  0  0  0  0  0  0  0  0  0  0
   59.1535   28.1637   45.4580 H   0  0  0  0  0  0  0  0  0  0  0  0
  1  2  1  0
  2  3  1  0
  3  4  2  0
  3  5  1  0
  5  6  2  0
  6  7  1  0
  7  8  2  0
  8  9  1  0
  9 10  1  0
 10 11  2  0
 10 12  1  0
 12 13  1  0
 13 14  1  0
 14 15  1  0
 15 16  1  0
 16 17  2  0
 17 18  1  0
 18 19  2  0
 19 20  1  0
 20 21  2  0
 15 22  1  0
 22 23  1  0
  8 24  1  0
 24 25  2  0
 25  5  1  0
 23 12  1  0
 21 16  1  0
  1 26  1  0
  1 27  1  0
  1 28  1  0
  6 29  1  0
  7 30  1  0
 13 31  1  0
 13 32  1  0
 14 33  1  0
 14 34  1  0
 18 35  1  0
 19 36  1  0
 20 37  1  0
 22 38  1  0
 22 39  1  0
 23 40  1  0
 23 41  1  0
 24 42  1  0
 25 43  1  0
M  CHG  1   9  -1
M  END
>  <UniqueID>  (61) 
55

>  <SMILES>  (61) 
COC(=O)c1ccc([N-]C(=O)N2CCN(c3ncccn3)CC2)cc1

>  <Energy>  (61) 
49.291319337993244

>  <Genealogy>  (61) 
COC(=O)c1ccc([N-]C(=O)N2CCN(c3ncccn3)CC2)cc1 (protonated)
COC(=O)c1ccc([N-]C(=O)N2CCN(c3ncccn3)CC2)cc1 (3D coordinates assigned)
COC(=O)c1ccc([N-]C(=O)N2CCN(c3ncccn3)CC2)cc1 (nonaromatic ring conformer: 49.291319337993244 kcal/mol)

>  <smiles>  (61) 
COC(=O)c1ccc(NC(=O)N2CCN(c3ncccn3)CC2)cc1

>  <score_type>  (61) 
oracle

>  <origin>  (61) 
adg

>  <m_score__min__energy>  (61) 
-8.4199999999999999

>  <m_primary>  (61) 
energy

$$$$
61:0
     RDKit          3D

 49 52  0  0  0  0  0  0  0  0999 V2000
   59.3130   35.3100   49.3520 O   0  0  0  0  0  0  0  0  0  0  0  0
   59.8680   34.4270   48.6440 C   0  0  0  0  0  0  0  0  0  0  0  0
   61.1160   33.8690   49.0670 N   0  0  0  0  0  0  0  0  0  0  0  0
   61.2480   33.0900   50.2920 C   0  0  0  0  0  0  0  0  0  0  0  0
   59.8770   32.6600   50.7570 C   0  0  0  0  0  0  0  0  0  0  0  0
   59.2140   33.4590   51.7070 C   0  0  0  0  0  0  0  0  0  0  0  0
   57.9860   33.0630   52.2390 C   0  0  0  0  0  0  0  0  0  0  0  0
   57.4010   31.8650   51.8300 C   0  0  0  0  0  0  0  0  0  0  0  0
   58.0440   31.0610   50.8870 C   0  0  0  0  0  0  0  0  0  0  0  0
   59.2790   31.4440   50.3480 C   0  0  0  0  0  0  0  0  0  0  0  0
   60.0970   30.2600   49.0780 Br  0  0  0  0  0  0  0  0  0  0  0  0
   59.1860   33.8990   47.4390 C   0  0  0  0  0  0  0  0  0  0  0  0
   58.2880   32.8240   47.5640 C   0  0  0  0  0  0  0  0  0  0  0  0
   57.7820   32.1860   46.4300 C   0  0  0  0  0  0  0  0  0  0  0  0
   58.1670   32.6070   45.1490 C   0  0  0  0  0  0  0  0  0  0  0  0
   57.7610   31.8120   43.9310 C   0  0  0  0  0  0  0  0  0  0  0  0
   57.3120   30.4260   44.3260 C   0  0  0  0  0  0  0  0  0  0  0  0
   55.9800   30.2130   44.5040 N   0  0  0  0  0  0  0  0  0  0  0  0
   55.4980   29.0480   44.9360 N   0  0  0  0  0  0  0  0  0  0  0  0
   56.3160   28.0130   45.2490 C   0  0  0  0  0  0  0  0  0  0  0  0
   55.8180   26.9300   45.6580 O   0  0  0  0  0  0  0  0  0  0  0  0
   57.7010   28.1670   45.1160 C   0  0  0  0  0  0  0  0  0  0  0  0
   58.2130   29.3710   44.6120 C   0  0  0  0  0  0  0  0  0  0  0  0
   59.6420   29.4630   44.4110 N   0  0  0  0  0  0  0  0  0  0  0  0
   60.3410   29.0610   45.6400 C   0  0  0  0  0  0  0  0  0  0  0  0
   59.9680   27.6250   46.0930 C   0  0  0  0  0  0  0  0  0  0  0  0
   58.6790   27.0670   45.4510 C   0  0  0  0  0  0  0  0  0  0  0  0
   58.9840   33.7400   45.0180 C   0  0  0  0  0  0  0  0  0  0  0  0
   59.4990   34.3770   46.1490 C   0  0  0  0  0  0  0  0  0  0  0  0
   60.3260   35.4390   45.9720 F   0  0  0  0  0  0  0  0  0  0  0  0
   61.8663   32.2011   50.0980 H   0  0  0  0  0  0  0  0  0  0  0  0
   61.7268   33.7028   51.0699 H   0  0  0  0  0  0  0  0  0  0  0  0
   59.6686   34.4059   52.0338 H   0  0  0  0  0  0  0  0  0  0  0  0
   57.4790   33.6965   52.9817 H   0  0  0  0  0  0  0  0  0  0  0  0
   56.4333   31.5536   52.2502 H   0  0  0  0  0  0  0  0  0  0  0  0
   57.5769   30.1188   50.5645 H   0  0  0  0  0  0  0  0  0  0  0  0
   57.9816   32.4829   48.5639 H   0  0  0  0  0  0  0  0  0  0  0  0
   57.0776   31.3486   46.5419 H   0  0  0  0  0  0  0  0  0  0  0  0
   56.9340   32.3283   43.4215 H   0  0  0  0  0  0  0  0  0  0  0  0
   58.6276   31.7257   43.2590 H   0  0  0  0  0  0  0  0  0  0  0  0
   59.9520   30.4230   44.1520 H   0  0  0  0  0  0  0  0  0  0  0  0
   59.9160   28.8240   43.6290 H   0  0  0  0  0  0  0  0  0  0  0  0
   61.4252   29.1034   45.4591 H   0  0  0  0  0  0  0  0  0  0  0  0
   60.0369   29.7531   46.4391 H   0  0  0  0  0  0  0  0  0  0  0  0
   60.8002   26.9549   45.8316 H   0  0  0  0  0  0  0  0  0  0  0  0
   59.7820   27.6763   47.1759 H   0  0  0  0  0  0  0  0  0  0  0  0
   58.9437   26.5317   44.5272 H   0  0  0  0  0  0  0  0  0  0  0  0
   58.2002   26.3910   46.1747 H   0  0  0  0  0  0  0  0  0  0  0  0
   59.2207   34.1295   44.0169 H   0  0  0  0  0  0  0  0  0  0  0  0
  1  2  2  0
  2  3  1  0
  3  4  1  0
  4  5  1  0
  5  6  2  0
  6  7  1  0
  7  8  2  0
  8  9  1  0
  9 10  2  0
 10 11  1  0
  2 12  1  0
 12 13  2  0
 13 14  1  0
 14 15  2  0
 15 16  1  0
 16 17  1  0
 17 18  2  0
 18 19  1  0
 19 20  1  0
 20 21  2  0
 20 22  1  0
 22 23  2  0
 23 24  1  0
 24 25  1  0
 25 26  1  0
 26 27  1  0
 15 28  1  0
 28 29  2  0
 29 30  1  0
 10  5  1  0
 29 12  1  0
 23 17  1  0
 27 22  1  0
  4 31  1  0
  4 32  1  0
  6 33  1  0
  7 34  1  0
  8 35  1  0
  9 36  1  0
 13 37  1  0
 14 38  1  0
 16 39  1  0
 16 40  1  0
 24 41  1  0
 24 42  1  0
 25 43  1  0
 25 44  1  0
 26 45  1  0
 26 46  1  0
 27 47  1  0
 27 48  1  0
 28 49  1  0
M  CHG  3   3  -1  19  -1  24   1
M  END
>  <UniqueID>  (62) 
56

>  <SMILES>  (62) 
O=C([N-]Cc1ccccc1Br)c1ccc(Cc2n[n-]c(=O)c3c2[NH2+]CCC3)cc1F

>  <Energy>  (62) 
67.08582850956537

>  <Genealogy>  (62) 
O=C([N-]Cc1ccccc1Br)c1ccc(Cc2n[n-]c(=O)c3c2[NH2+]CCC3)cc1F (protonated)
O=C([N-]Cc1ccccc1Br)c1ccc(Cc2n[n-]c(=O)c3c2[NH2+]CCC3)cc1F (3D coordinates assigned)
O=C([N-]Cc1ccccc1Br)c1ccc(Cc2n[n-]c(=O)c3c2[NH2+]CCC3)cc1F (nonaromatic ring conformer: 67.08582850956537 kcal/mol)

>  <smiles>  (62) 
O=C(NCc1ccccc1Br)c1ccc(Cc2n[nH]c(=O)c3c2NCCC3)cc1F

>  <score_type>  (62) 
oracle

>  <origin>  (62) 
adg

>  <m_score__min__energy>  (62) 
-11.220000000000001

>  <m_primary>  (62) 
energy

$$$$
62:0
     RDKit          3D

 48 49  0  0  0  0  0  0  0  0999 V2000
   52.6330   24.1150   44.8430 C   0  0  0  0  0  0  0  0  0  0  0  0
   53.6160   23.3360   44.1670 O   0  0  0  0  0  0  0  0  0  0  0  0
   54.9240   23.1250   44.6330 C   0  0  0  0  0  0  0  0  0  0  0  0
   55.2990   23.4210   45.9580 C   0  0  0  0  0  0  0  0  0  0  0  0
   56.6160   23.2040   46.3940 C   0  0  0  0  0  0  0  0  0  0  0  0
   57.0160   23.5690   47.7990 C   0  0  0  0  0  0  0  0  0  0  0  0
   57.4140   25.0410   47.8800 C   0  0  0  0  0  0  0  0  0  0  0  0
   57.5780   25.5740   46.5350 N   0  0  0  0  0  0  0  0  0  0  0  0
   56.6410   26.4790   45.9410 C   0  0  0  0  0  0  0  0  0  0  0  0
   55.4100   26.3730   46.1840 O   0  0  0  0  0  0  0  0  0  0  0  0
   57.1410   27.5960   45.0780 C   0  0  0  0  0  0  0  0  0  0  0  0
   57.1700   28.9260   45.8390 C   0  0  0  0  0  0  0  0  0  0  0  0
   56.2720   29.9010   45.2260 N   0  0  0  0  0  0  0  0  0  0  0  0
   56.3920   30.3510   43.8720 C   0  0  0  0  0  0  0  0  0  0  0  0
   55.5220   30.0400   43.0140 O   0  0  0  0  0  0  0  0  0  0  0  0
   57.5640   31.1860   43.4690 C   0  0  0  0  0  0  0  0  0  0  0  0
   57.9620   32.1050   44.5900 C   0  0  0  0  0  0  0  0  0  0  0  0
   57.4220   33.4000   44.6690 C   0  0  0  0  0  0  0  0  0  0  0  0
   57.7650   34.2430   45.7310 C   0  0  0  0  0  0  0  0  0  0  0  0
   58.6450   33.7970   46.7210 C   0  0  0  0  0  0  0  0  0  0  0  0
   59.1790   32.5070   46.6550 C   0  0  0  0  0  0  0  0  0  0  0  0
   58.8370   31.6600   45.5950 C   0  0  0  0  0  0  0  0  0  0  0  0
   57.5660   22.7020   45.4950 C   0  0  0  0  0  0  0  0  0  0  0  0
   57.2010   22.4030   44.1810 C   0  0  0  0  0  0  0  0  0  0  0  0
   55.8880   22.6110   43.7460 C   0  0  0  0  0  0  0  0  0  0  0  0
   55.5600   22.3070   42.4240 O   0  0  0  0  0  0  0  0  0  0  0  0
   52.7657   24.0099   45.9299 H   0  0  0  0  0  0  0  0  0  0  0  0
   52.7450   25.1722   44.5605 H   0  0  0  0  0  0  0  0  0  0  0  0
   51.6294   23.7644   44.5605 H   0  0  0  0  0  0  0  0  0  0  0  0
   54.5532   23.8260   46.6578 H   0  0  0  0  0  0  0  0  0  0  0  0
   56.1679   23.3862   48.4752 H   0  0  0  0  0  0  0  0  0  0  0  0
   57.8778   22.9522   48.0936 H   0  0  0  0  0  0  0  0  0  0  0  0
   56.6286   25.6049   48.4047 H   0  0  0  0  0  0  0  0  0  0  0  0
   58.3621   25.1348   48.4298 H   0  0  0  0  0  0  0  0  0  0  0  0
   58.1595   27.3565   44.7384 H   0  0  0  0  0  0  0  0  0  0  0  0
   56.4574   27.7032   44.2229 H   0  0  0  0  0  0  0  0  0  0  0  0
   56.8560   28.7521   46.8788 H   0  0  0  0  0  0  0  0  0  0  0  0
   58.1945   29.3253   45.8067 H   0  0  0  0  0  0  0  0  0  0  0  0
   58.4101   30.5280   43.2218 H   0  0  0  0  0  0  0  0  0  0  0  0
   57.2873   31.7906   42.5927 H   0  0  0  0  0  0  0  0  0  0  0  0
   56.7269   33.7520   43.8926 H   0  0  0  0  0  0  0  0  0  0  0  0
   57.3422   35.2570   45.7871 H   0  0  0  0  0  0  0  0  0  0  0  0
   58.9178   34.4623   47.5535 H   0  0  0  0  0  0  0  0  0  0  0  0
   59.8688   32.1572   47.4372 H   0  0  0  0  0  0  0  0  0  0  0  0
   59.2543   30.6433   45.5485 H   0  0  0  0  0  0  0  0  0  0  0  0
   58.6030   22.5429   45.8255 H   0  0  0  0  0  0  0  0  0  0  0  0
   57.9507   22.0013   43.4834 H   0  0  0  0  0  0  0  0  0  0  0  0
   56.1050   22.6480   41.6420 H   0  0  0  0  0  0  0  0  0  0  0  0
  1  2  1  0
  2  3  1  0
  3  4  2  0
  4  5  1  0
  5  6  1  0
  6  7  1  0
  7  8  1  0
  8  9  1  0
  9 10  2  0
  9 11  1  0
 11 12  1  0
 12 13  1  0
 13 14  1  0
 14 15  2  0
 14 16  1  0
 16 17  1  0
 17 18  2  0
 18 19  1  0
 19 20  2  0
 20 21  1  0
 21 22  2  0
  5 23  2  0
 23 24  1  0
 24 25  2  0
 25 26  1  0
 25  3  1  0
 22 17  1  0
  1 27  1  0
  1 28  1  0
  1 29  1  0
  4 30  1  0
  6 31  1  0
  6 32  1  0
  7 33  1  0
  7 34  1  0
 11 35  1  0
 11 36  1  0
 12 37  1  0
 12 38  1  0
 16 39  1  0
 16 40  1  0
 18 41  1  0
 19 42  1  0
 20 43  1  0
 21 44  1  0
 22 45  1  0
 23 46  1  0
 24 47  1  0
 26 48  1  0
M  CHG  2   8  -1  13  -1
M  END
>  <UniqueID>  (63) 
57

>  <SMILES>  (63) 
COc1cc(CC[N-]C(=O)CC[N-]C(=O)Cc2ccccc2)ccc1O

>  <Energy>  (63) 
34.19207905302253

>  <Genealogy>  (63) 
COc1cc(CC[N-]C(=O)CC[N-]C(=O)Cc2ccccc2)ccc1O (protonated)
COc1cc(CC[N-]C(=O)CC[N-]C(=O)Cc2ccccc2)ccc1O (3D coordinates assigned)
COc1cc(CC[N-]C(=O)CC[N-]C(=O)Cc2ccccc2)ccc1O (optimized conformer: 34.19207905302253 kcal/mol)

>  <smiles>  (63) 
COc1cc(CCNC(=O)CCNC(=O)Cc2ccccc2)ccc1O

>  <score_type>  (63) 
oracle

>  <origin>  (63) 
adg

>  <m_score__min__energy>  (63) 
-11.4

>  <m_primary>  (63) 
energy

$$$$
63:0
     RDKit          3D

 60 63  0  0  0  0  0  0  0  0999 V2000
   61.1402   29.2323   47.8672 H   0  0  0  0  0  0  0  0  0  0  0  0
   60.4540   28.7900   47.1300 C   0  0  0  0  0  0  0  0  0  0  0  0
   60.4421   27.7012   46.9737 H   0  0  0  0  0  0  0  0  0  0  0  0
   59.6310   29.5790   46.4210 C   0  0  0  0  0  0  0  0  0  0  0  0
   58.7070   29.1620   45.4520 C   0  0  0  0  0  0  0  0  0  0  0  0
   58.4340   27.8890   45.0920 C   0  0  0  0  0  0  0  0  0  0  0  0
   59.1356   27.4020   44.3987 H   0  0  0  0  0  0  0  0  0  0  0  0
   57.2730   27.0920   45.5490 C   0  0  0  0  0  0  0  0  0  0  0  0
   57.3170   25.8410   46.0420 N   0  0  0  0  0  0  0  0  0  0  0  0
   56.0350   25.5840   46.3750 C   0  0  0  0  0  0  0  0  0  0  0  0
   55.6670   24.4870   46.8700 O   0  0  0  0  0  0  0  0  0  0  0  0
   55.1770   26.5970   46.1360 N   0  0  0  0  0  0  0  0  0  0  0  0
   55.9760   27.5420   45.6160 C   0  0  0  0  0  0  0  0  0  0  0  0
   55.5270   28.7930   45.2050 O   0  0  0  0  0  0  0  0  0  0  0  0
   58.1100   30.3210   44.9670 C   0  0  0  0  0  0  0  0  0  0  0  0
   57.3281   30.3830   44.1958 H   0  0  0  0  0  0  0  0  0  0  0  0
   58.6880   31.3780   45.6400 C   0  0  0  0  0  0  0  0  0  0  0  0
   58.3300   32.8170   45.4210 C   0  0  0  0  0  0  0  0  0  0  0  0
   58.2059   33.3160   46.3934 H   0  0  0  0  0  0  0  0  0  0  0  0
   59.1323   33.3123   44.8544 H   0  0  0  0  0  0  0  0  0  0  0  0
   57.3891   32.8787   44.8544 H   0  0  0  0  0  0  0  0  0  0  0  0
   59.5880   30.9300   46.5440 N   0  0  0  0  0  0  0  0  0  0  0  0
   60.3880   31.7540   47.4130 C   0  0  0  0  0  0  0  0  0  0  0  0
   61.4210   32.5250   46.8590 C   0  0  0  0  0  0  0  0  0  0  0  0
   61.6499   32.4414   45.7863 H   0  0  0  0  0  0  0  0  0  0  0  0
   62.1600   33.3970   47.6590 C   0  0  0  0  0  0  0  0  0  0  0  0
   62.9751   33.9894   47.2178 H   0  0  0  0  0  0  0  0  0  0  0  0
   61.8670   33.5190   49.0180 C   0  0  0  0  0  0  0  0  0  0  0  0
   62.4449   34.2146   49.6442 H   0  0  0  0  0  0  0  0  0  0  0  0
   60.8410   32.7590   49.5840 C   0  0  0  0  0  0  0  0  0  0  0  0
   60.6082   32.8666   50.6537 H   0  0  0  0  0  0  0  0  0  0  0  0
   60.1040   31.8580   48.7970 C   0  0  0  0  0  0  0  0  0  0  0  0
   59.0490   31.0450   49.4380 C   0  0  0  0  0  0  0  0  0  0  0  0
   58.4970   30.1270   48.7700 O   0  0  0  0  0  0  0  0  0  0  0  0
   58.6370   31.2800   50.7980 N   0  0  0  0  0  0  0  0  0  0  0  0
   58.0720   32.6070   51.1240 C   0  0  0  0  0  0  0  0  0  0  0  0
   58.7725   33.3719   50.7577 H   0  0  0  0  0  0  0  0  0  0  0  0
   57.0841   32.6392   50.6412 H   0  0  0  0  0  0  0  0  0  0  0  0
   57.8170   32.8760   52.6230 C   0  0  0  0  0  0  0  0  0  0  0  0
   58.2149   33.8718   52.8680 H   0  0  0  0  0  0  0  0  0  0  0  0
   56.7305   32.8031   52.7783 H   0  0  0  0  0  0  0  0  0  0  0  0
   58.4640   31.8590   53.5560 C   0  0  0  0  0  0  0  0  0  0  0  0
   59.5550   31.9979   53.5379 H   0  0  0  0  0  0  0  0  0  0  0  0
   58.0713   32.0166   54.5714 H   0  0  0  0  0  0  0  0  0  0  0  0
   58.1350   30.4290   53.1240 C   0  0  1  0  0  0  0  0  0  0  0  0
   58.5878   29.7297   53.8423 H   0  0  0  0  0  0  0  0  0  0  0  0
   56.6390   30.1560   53.1660 C   0  0  0  0  0  0  0  0  0  0  0  0
   56.0120   30.0210   52.0770 O   0  0  0  0  0  0  0  0  0  0  0  0
   55.9040   30.1150   54.4120 N   0  0  0  0  0  0  0  0  0  0  0  0
   54.4370   30.0750   54.3680 C   0  0  0  0  0  0  0  0  0  0  0  0
   54.0396   30.0642   55.3936 H   0  0  0  0  0  0  0  0  0  0  0  0
   54.0617   30.9632   53.8387 H   0  0  0  0  0  0  0  0  0  0  0  0
   54.1106   29.1676   53.8387 H   0  0  0  0  0  0  0  0  0  0  0  0
   56.5950   30.0860   55.7050 C   0  0  0  0  0  0  0  0  0  0  0  0
   55.8541   30.1171   56.5175 H   0  0  0  0  0  0  0  0  0  0  0  0
   57.1870   29.1622   55.7837 H   0  0  0  0  0  0  0  0  0  0  0  0
   57.2623   30.9569   55.7837 H   0  0  0  0  0  0  0  0  0  0  0  0
   58.7440   30.1510   51.7410 C   0  0  0  0  0  0  0  0  0  0  0  0
   59.8094   29.9121   51.8744 H   0  0  0  0  0  0  0  0  0  0  0  0
   58.1732   29.3180   51.3047 H   0  0  0  0  0  0  0  0  0  0  0  0
  1  2  1  0
  2  3  1  0
  2  4  2  0
  4  5  1  0
  5  6  2  0
  6  7  1  0
  6  8  1  0
  8  9  1  0
  9 10  1  0
 10 11  2  0
 10 12  1  0
 12 13  1  0
 13 14  1  0
  5 15  1  0
 15 16  1  0
 15 17  2  0
 17 18  1  0
 18 19  1  0
 18 20  1  0
 18 21  1  0
 17 22  1  0
 22 23  1  0
 23 24  2  0
 24 25  1  0
 24 26  1  0
 26 27  1  0
 26 28  2  0
 28 29  1  0
 28 30  1  0
 30 31  1  0
 30 32  2  0
 32 33  1  0
 33 34  2  0
 33 35  1  0
 35 36  1  0
 36 37  1  0
 36 38  1  0
 36 39  1  0
 39 40  1  0
 39 41  1  0
 39 42  1  0
 42 43  1  0
 42 44  1  0
 42 45  1  0
 45 46  1  1
 45 47  1  0
 47 48  2  0
 47 49  1  0
 49 50  1  0
 50 51  1  0
 50 52  1  0
 50 53  1  0
 49 54  1  0
 54 55  1  0
 54 56  1  0
 54 57  1  0
 45 58  1  0
 58 59  1  0
 58 60  1  0
 22  4  1  0
 32 23  1  0
 58 35  1  0
 13  8  2  0
M  CHG  3   9  -1  12  -1  14  -1
M  END
>  <UniqueID>  (64) 
58

>  <SMILES>  (64) 
C=c1/c(=C/c2[n-]c(=O)[n-]c2[O-])cc(C)n1-c1ccccc1C(=O)N1CCC[C@@H](C(=O)N(C)C)C1

>  <Energy>  (64) 
136.29370991419933

>  <Genealogy>  (64) 
C=c1c(=Cc2[n-]c(=O)[n-]c2[O-])cc(C)n1-c1ccccc1C(=O)N1CCCC(C(=O)N(C)C)C1 (protonated)
C=c1c(=Cc2[n-]c(=O)[n-]c2[O-])cc(C)n1-c1ccccc1C(=O)N1CCC[C@@H](C(=O)N(C)C)C1 (chirality)
C=c1/c(=C/c2[n-]c(=O)[n-]c2[O-])cc(C)n1-c1ccccc1C(=O)N1CCC[C@@H](C(=O)N(C)C)C1 (cis-trans isomerization)
C=c1/c(=C/c2[n-]c(=O)[n-]c2[O-])cc(C)n1-c1ccccc1C(=O)N1CCC[C@@H](C(=O)N(C)C)C1 (3D coordinates assigned)
C=c1/c(=C/c2[n-]c(=O)[n-]c2[O-])cc(C)n1-c1ccccc1C(=O)N1CCC[C@@H](C(=O)N(C)C)C1 (nonaromatic ring conformer: 136.29370991419933 kcal/mol)

>  <smiles>  (64) 
C=c1c(=Cc2[nH]c(=O)[nH]c2O)cc(C)n1-c1ccccc1C(=O)N1CCCC(C(=O)N(C)C)C1

>  <score_type>  (64) 
oracle

>  <origin>  (64) 
adg

>  <m_score__min__energy>  (64) 
-17.210000000000001

>  <m_primary>  (64) 
energy

$$$$
64:0
     RDKit          3D

 46 49  0  0  0  0  0  0  0  0999 V2000
   56.3900   25.4590   47.4330 O   0  0  0  0  0  0  0  0  0  0  0  0
   55.9920   25.9840   46.3610 C   0  0  0  0  0  0  0  0  0  0  0  0
   54.6230   25.8080   45.9770 N   0  0  0  0  0  0  0  0  0  0  0  0
   54.0250   24.5500   45.5470 C   0  0  0  0  0  0  0  0  0  0  0  0
   55.0860   23.6830   44.9450 C   0  0  0  0  0  0  0  0  0  0  0  0
   55.8360   22.8030   45.7390 C   0  0  0  0  0  0  0  0  0  0  0  0
   56.7890   21.9800   45.1350 C   0  0  0  0  0  0  0  0  0  0  0  0
   56.9780   22.0320   43.7530 C   0  0  0  0  0  0  0  0  0  0  0  0
   56.2050   22.9120   42.9910 C   0  0  0  0  0  0  0  0  0  0  0  0
   55.2830   23.7070   43.5980 N   0  0  0  0  0  0  0  0  0  0  0  0
   56.9600   26.7250   45.5260 C   0  0  0  0  0  0  0  0  0  0  0  0
   57.5270   26.1360   44.3870 C   0  0  0  0  0  0  0  0  0  0  0  0
   58.4290   26.8520   43.5990 C   0  0  0  0  0  0  0  0  0  0  0  0
   58.7600   28.1680   43.9290 C   0  0  0  0  0  0  0  0  0  0  0  0
   58.1790   28.7830   45.0520 C   0  0  0  0  0  0  0  0  0  0  0  0
   58.4730   30.1360   45.4180 N   0  0  0  0  0  0  0  0  0  0  0  0
   57.7930   31.5450   44.6690 S   0  0  0  0  0  0  0  0  0  0  0  0
   58.1170   31.5410   43.2020 O   0  0  0  0  0  0  0  0  0  0  0  0
   56.3040   31.5330   44.8690 O   0  0  0  0  0  0  0  0  0  0  0  0
   58.4660   33.0030   45.4040 C   0  0  0  0  0  0  0  0  0  0  0  0
   58.7060   34.1360   44.6110 C   0  0  0  0  0  0  0  0  0  0  0  0
   59.2520   35.2930   45.1730 C   0  0  0  0  0  0  0  0  0  0  0  0
   59.5630   35.3390   46.5340 C   0  0  0  0  0  0  0  0  0  0  0  0
   59.3230   34.2220   47.3440 C   0  0  0  0  0  0  0  0  0  0  0  0
   59.6260   34.2430   48.7120 C   0  0  0  0  0  0  0  0  0  0  0  0
   59.3730   33.1180   49.4970 C   0  0  0  0  0  0  0  0  0  0  0  0
   58.8160   31.9800   48.9080 C   0  0  0  0  0  0  0  0  0  0  0  0
   58.5290   31.9700   47.5800 N   0  0  0  0  0  0  0  0  0  0  0  0
   58.7660   33.0480   46.7810 C   0  0  0  0  0  0  0  0  0  0  0  0
   57.2770   28.0560   45.8410 C   0  0  0  0  0  0  0  0  0  0  0  0
   53.5796   24.0390   46.4133 H   0  0  0  0  0  0  0  0  0  0  0  0
   53.2415   24.7485   44.8008 H   0  0  0  0  0  0  0  0  0  0  0  0
   55.6752   22.7615   46.8264 H   0  0  0  0  0  0  0  0  0  0  0  0
   57.3899   21.2917   45.7475 H   0  0  0  0  0  0  0  0  0  0  0  0
   57.7269   21.3876   43.2693 H   0  0  0  0  0  0  0  0  0  0  0  0
   56.3420   22.9619   41.9007 H   0  0  0  0  0  0  0  0  0  0  0  0
   57.2596   25.1047   44.1133 H   0  0  0  0  0  0  0  0  0  0  0  0
   58.8808   26.3783   42.7150 H   0  0  0  0  0  0  0  0  0  0  0  0
   59.4774   28.7251   43.3085 H   0  0  0  0  0  0  0  0  0  0  0  0
   58.4623   34.1129   43.5386 H   0  0  0  0  0  0  0  0  0  0  0  0
   59.4380   36.1730   44.5397 H   0  0  0  0  0  0  0  0  0  0  0  0
   59.9960   36.2517   46.9692 H   0  0  0  0  0  0  0  0  0  0  0  0
   60.0625   35.1449   49.1660 H   0  0  0  0  0  0  0  0  0  0  0  0
   59.6101   33.1267   50.5711 H   0  0  0  0  0  0  0  0  0  0  0  0
   58.6094   31.0902   49.5208 H   0  0  0  0  0  0  0  0  0  0  0  0
   56.8125   28.5334   46.7164 H   0  0  0  0  0  0  0  0  0  0  0  0
  1  2  2  0
  2  3  1  0
  3  4  1  0
  4  5  1  0
  5  6  2  0
  6  7  1  0
  7  8  2  0
  8  9  1  0
  9 10  2  0
  2 11  1  0
 11 12  2  0
 12 13  1  0
 13 14  2  0
 14 15  1  0
 15 16  1  0
 16 17  1  0
 17 18  2  0
 17 19  2  0
 17 20  1  0
 20 21  2  0
 21 22  1  0
 22 23  2  0
 23 24  1  0
 24 25  2  0
 25 26  1  0
 26 27  2  0
 27 28  1  0
 28 29  2  0
 15 30  2  0
 10  5  1  0
 30 11  1  0
 29 20  1  0
 29 24  1  0
  4 31  1  0
  4 32  1  0
  6 33  1  0
  7 34  1  0
  8 35  1  0
  9 36  1  0
 12 37  1  0
 13 38  1  0
 14 39  1  0
 21 40  1  0
 22 41  1  0
 23 42  1  0
 25 43  1  0
 26 44  1  0
 27 45  1  0
 30 46  1  0
M  CHG  2   3  -1  16  -1
M  END
>  <UniqueID>  (65) 
59

>  <SMILES>  (65) 
O=C([N-]Cc1ccccn1)c1cccc([N-]S(=O)(=O)c2cccc3cccnc23)c1

>  <Energy>  (65) 
63.29483619055778

>  <Genealogy>  (65) 
O=C([N-]Cc1ccccn1)c1cccc([N-]S(=O)(=O)c2cccc3cccnc23)c1 (protonated)
O=C([N-]Cc1ccccn1)c1cccc([N-]S(=O)(=O)c2cccc3cccnc23)c1 (3D coordinates assigned)
O=C([N-]Cc1ccccn1)c1cccc([N-]S(=O)(=O)c2cccc3cccnc23)c1 (optimized conformer: 63.29483619055778 kcal/mol)

>  <smiles>  (65) 
O=C(NCc1ccccn1)c1cccc(NS(=O)(=O)c2cccc3cccnc23)c1

>  <score_type>  (65) 
oracle

>  <origin>  (65) 
adg

>  <m_score__min__energy>  (65) 
-13.18

>  <m_primary>  (65) 
energy

$$$$
65:0
     RDKit          3D

 59 63  0  0  0  0  0  0  0  0999 V2000
   60.9580   29.7160   52.3090 N   0  0  0  0  0  0  0  0  0  0  0  0
   61.3080   28.3290   52.2010 C   0  0  0  0  0  0  0  0  0  0  0  0
   61.9380   27.6970   53.2840 C   0  0  0  0  0  0  0  0  0  0  0  0
   62.3300   26.3600   53.1960 C   0  0  0  0  0  0  0  0  0  0  0  0
   62.0910   25.6380   52.0260 C   0  0  0  0  0  0  0  0  0  0  0  0
   61.4570   26.2490   50.9430 C   0  0  0  0  0  0  0  0  0  0  0  0
   61.0610   27.5970   51.0150 C   0  0  0  0  0  0  0  0  0  0  0  0
   60.3510   28.1930   49.9170 N   0  0  0  0  0  0  0  0  0  0  0  0
   60.3310   27.6210   48.5970 C   0  0  0  0  0  0  0  0  0  0  0  0
   61.1280   26.6880   48.3070 O   0  0  0  0  0  0  0  0  0  0  0  0
   59.4240   28.1520   47.5520 C   0  0  0  0  0  0  0  0  0  0  0  0
   59.5130   29.4990   47.1590 C   0  0  0  0  0  0  0  0  0  0  0  0
   58.6350   30.0200   46.2040 C   0  0  0  0  0  0  0  0  0  0  0  0
   57.6610   29.1990   45.6220 C   0  0  0  0  0  0  0  0  0  0  0  0
   56.4810   29.8560   44.4910 S   0  0  0  0  0  0  0  0  0  0  0  0
   56.8730   29.5340   43.0750 O   0  0  0  0  0  0  0  0  0  0  0  0
   55.1430   29.2340   44.7720 O   0  0  0  0  0  0  0  0  0  0  0  0
   56.3660   31.5810   44.7070 N   0  0  0  0  0  0  0  0  0  0  0  0
   57.4500   32.2870   44.0190 C   0  0  0  0  0  0  0  0  0  0  0  0
   58.1140   33.2820   44.9210 C   0  0  0  0  0  0  0  0  0  0  0  0
   58.1790   33.2360   46.2960 C   0  0  0  0  0  0  0  0  0  0  0  0
   58.9220   34.2940   46.6640 N   0  0  0  0  0  0  0  0  0  0  0  0
   59.3430   34.6420   48.0180 C   0  0  0  0  0  0  0  0  0  0  0  0
   59.8700   33.4180   48.7340 C   0  0  0  0  0  0  0  0  0  0  0  0
   58.9550   32.5990   49.4180 C   0  0  0  0  0  0  0  0  0  0  0  0
   59.3970   31.4430   50.0640 C   0  0  0  0  0  0  0  0  0  0  0  0
   58.5780   30.7130   50.6800 O   0  0  0  0  0  0  0  0  0  0  0  0
   60.7090   31.1010   50.0250 N   0  0  0  0  0  0  0  0  0  0  0  0
   61.6300   31.8550   49.3700 C   0  0  0  0  0  0  0  0  0  0  0  0
   62.9700   31.4470   49.3580 C   0  0  0  0  0  0  0  0  0  0  0  0
   63.9290   32.2080   48.6880 C   0  0  0  0  0  0  0  0  0  0  0  0
   63.5570   33.3790   48.0270 C   0  0  0  0  0  0  0  0  0  0  0  0
   62.2230   33.7970   48.0300 C   0  0  0  0  0  0  0  0  0  0  0  0
   61.2380   33.0410   48.7010 C   0  0  0  0  0  0  0  0  0  0  0  0
   59.2890   34.9520   45.5750 N   0  0  0  0  0  0  0  0  0  0  0  0
   58.8070   34.3570   44.4930 N   0  0  0  0  0  0  0  0  0  0  0  0
   57.5910   27.8490   45.9820 C   0  0  0  0  0  0  0  0  0  0  0  0
   58.4630   27.3270   46.9400 C   0  0  0  0  0  0  0  0  0  0  0  0
   61.0340   30.2360   53.2090 H   0  0  0  0  0  0  0  0  0  0  0  0
   60.5470   30.2230   51.4940 H   0  0  0  0  0  0  0  0  0  0  0  0
   62.1246   28.2600   54.2104 H   0  0  0  0  0  0  0  0  0  0  0  0
   62.8274   25.8755   54.0492 H   0  0  0  0  0  0  0  0  0  0  0  0
   62.4028   24.5854   51.9571 H   0  0  0  0  0  0  0  0  0  0  0  0
   61.2655   25.6721   50.0262 H   0  0  0  0  0  0  0  0  0  0  0  0
   59.8950   29.1190   50.0700 H   0  0  0  0  0  0  0  0  0  0  0  0
   60.2798   30.1483   47.6067 H   0  0  0  0  0  0  0  0  0  0  0  0
   58.7093   31.0771   45.9090 H   0  0  0  0  0  0  0  0  0  0  0  0
   58.1979   31.5537   43.6830 H   0  0  0  0  0  0  0  0  0  0  0  0
   57.0215   32.8283   43.1626 H   0  0  0  0  0  0  0  0  0  0  0  0
   57.7178   32.4875   46.9570 H   0  0  0  0  0  0  0  0  0  0  0  0
   60.1361   35.4025   47.9674 H   0  0  0  0  0  0  0  0  0  0  0  0
   58.4782   35.0362   48.5718 H   0  0  0  0  0  0  0  0  0  0  0  0
   57.8891   32.8693   49.4443 H   0  0  0  0  0  0  0  0  0  0  0  0
   63.2672   30.5244   49.8780 H   0  0  0  0  0  0  0  0  0  0  0  0
   64.9802   31.8840   48.6810 H   0  0  0  0  0  0  0  0  0  0  0  0
   64.3167   33.9760   47.5012 H   0  0  0  0  0  0  0  0  0  0  0  0
   61.9391   34.7214   47.5058 H   0  0  0  0  0  0  0  0  0  0  0  0
   56.8447   27.1947   45.5077 H   0  0  0  0  0  0  0  0  0  0  0  0
   58.3979   26.2646   47.2175 H   0  0  0  0  0  0  0  0  0  0  0  0
  1  2  1  0
  2  3  2  0
  3  4  1  0
  4  5  2  0
  5  6  1  0
  6  7  2  0
  7  8  1  0
  8  9  1  0
  9 10  2  0
  9 11  1  0
 11 12  2  0
 12 13  1  0
 13 14  2  0
 14 15  1  0
 15 16  2  0
 15 17  2  0
 15 18  1  0
 18 19  1  0
 19 20  1  0
 20 21  2  0
 21 22  1  0
 22 23  1  0
 23 24  1  0
 24 25  2  0
 25 26  1  0
 26 27  2  0
 26 28  1  0
 28 29  1  0
 29 30  2  0
 30 31  1  0
 31 32  2  0
 32 33  1  0
 33 34  2  0
 22 35  1  0
 35 36  2  0
 14 37  1  0
 37 38  2  0
  7  2  1  0
 38 11  1  0
 36 20  1  0
 34 24  1  0
 34 29  1  0
  1 39  1  0
  1 40  1  0
  3 41  1  0
  4 42  1  0
  5 43  1  0
  6 44  1  0
  8 45  1  0
 12 46  1  0
 13 47  1  0
 19 48  1  0
 19 49  1  0
 21 50  1  0
 23 51  1  0
 23 52  1  0
 25 53  1  0
 30 54  1  0
 31 55  1  0
 32 56  1  0
 33 57  1  0
 37 58  1  0
 38 59  1  0
M  CHG  2  18  -1  28  -1
M  END
>  <UniqueID>  (66) 
60

>  <SMILES>  (66) 
Nc1ccccc1NC(=O)c1ccc(S(=O)(=O)[N-]Cc2cn(Cc3cc(=O)[n-]c4ccccc34)nn2)cc1

>  <Energy>  (66) 
105.39292951997065

>  <Genealogy>  (66) 
Nc1ccccc1NC(=O)c1ccc(S(=O)(=O)[N-]Cc2cn(Cc3cc(=O)[n-]c4ccccc34)nn2)cc1 (protonated)
Nc1ccccc1NC(=O)c1ccc(S(=O)(=O)[N-]Cc2cn(Cc3cc(=O)[n-]c4ccccc34)nn2)cc1 (3D coordinates assigned)
Nc1ccccc1NC(=O)c1ccc(S(=O)(=O)[N-]Cc2cn(Cc3cc(=O)[n-]c4ccccc34)nn2)cc1 (optimized conformer: 105.39292951997065 kcal/mol)

>  <smiles>  (66) 
Nc1ccccc1NC(=O)c1ccc(S(=O)(=O)NCc2cn(Cc3cc(=O)[nH]c4ccccc34)nn2)cc1

>  <score_type>  (66) 
oracle

>  <origin>  (66) 
adg

>  <m_score__min__energy>  (66) 
-12.789999999999999

>  <m_primary>  (66) 
energy

$$$$
66:0
     RDKit          3D

 66 68  0  0  0  0  0  0  0  0999 V2000
   63.0050   33.4770   47.0470 C   0  0  0  0  0  0  0  0  0  0  0  0
   62.7380   34.1340   48.3980 C   0  0  0  0  0  0  0  0  0  0  0  0
   61.4060   33.7610   48.8990 N   0  0  0  0  0  0  0  0  0  0  0  0
   60.2430   34.5850   48.5250 C   0  0  0  0  0  0  0  0  0  0  0  0
   59.5070   34.0020   47.3410 C   0  0  0  0  0  0  0  0  0  0  0  0
   58.3980   33.1590   47.5310 C   0  0  0  0  0  0  0  0  0  0  0  0
   57.7280   32.6110   46.4340 C   0  0  0  0  0  0  0  0  0  0  0  0
   58.1400   32.9080   45.1270 C   0  0  0  0  0  0  0  0  0  0  0  0
   57.3880   32.3410   43.9470 C   0  0  0  0  0  0  0  0  0  0  0  0
   57.5110   30.8100   43.8570 C   0  0  0  0  0  0  0  0  0  0  0  0
   56.3610   30.0800   44.4910 C   0  0  0  0  0  0  0  0  0  0  0  0
   55.1960   30.5600   44.4490 O   0  0  0  0  0  0  0  0  0  0  0  0
   56.6130   28.8700   45.2100 N   0  0  0  0  0  0  0  0  0  0  0  0
   58.0590   28.6170   46.1250 S   0  0  0  0  0  0  0  0  0  0  0  0
   59.3470   28.0110   45.0590 C   0  0  0  0  0  0  0  0  0  0  0  0
   58.4900   29.9210   46.7340 O   0  0  0  0  0  0  0  0  0  0  0  0
   57.7930   27.6280   47.2250 O   0  0  0  0  0  0  0  0  0  0  0  0
   59.2410   33.7570   44.9330 C   0  0  0  0  0  0  0  0  0  0  0  0
   59.9130   34.3040   46.0290 C   0  0  0  0  0  0  0  0  0  0  0  0
   61.3090   32.7110   49.8910 C   0  0  0  0  0  0  0  0  0  0  0  0
   60.8880   32.9900   51.0470 O   0  0  0  0  0  0  0  0  0  0  0  0
   61.6760   31.2750   49.5780 C   0  0  2  0  0  0  0  0  0  0  0  0
   61.2980   30.8890   48.1550 C   0  0  0  0  0  0  0  0  0  0  0  0
   60.7690   29.4740   48.2790 C   0  0  0  0  0  0  0  0  0  0  0  0
   60.1720   29.3510   49.6180 N   0  0  2  0  0  0  0  0  0  0  0  0
   58.7300   29.7040   49.5870 C   0  0  0  0  0  0  0  0  0  0  0  0
   58.3260   30.5450   50.7780 C   0  0  0  0  0  0  0  0  0  0  0  0
   58.1230   31.9290   50.6370 C   0  0  0  0  0  0  0  0  0  0  0  0
   57.7510   32.7020   51.7410 C   0  0  0  0  0  0  0  0  0  0  0  0
   57.5780   32.1010   52.9910 C   0  0  0  0  0  0  0  0  0  0  0  0
   57.7690   30.7250   53.1370 C   0  0  0  0  0  0  0  0  0  0  0  0
   58.1410   29.9480   52.0360 C   0  0  0  0  0  0  0  0  0  0  0  0
   60.9570   30.2580   50.4810 C   0  0  0  0  0  0  0  0  0  0  0  0
   63.4149   32.4684   47.2044 H   0  0  0  0  0  0  0  0  0  0  0  0
   62.0642   33.4063   46.4813 H   0  0  0  0  0  0  0  0  0  0  0  0
   63.7284   34.0826   46.4813 H   0  0  0  0  0  0  0  0  0  0  0  0
   63.5010   33.8036   49.1181 H   0  0  0  0  0  0  0  0  0  0  0  0
   62.7788   35.2265   48.2762 H   0  0  0  0  0  0  0  0  0  0  0  0
   59.5547   34.6408   49.3812 H   0  0  0  0  0  0  0  0  0  0  0  0
   60.6051   35.5857   48.2468 H   0  0  0  0  0  0  0  0  0  0  0  0
   58.0552   32.9291   48.5506 H   0  0  0  0  0  0  0  0  0  0  0  0
   56.8707   31.9414   46.5970 H   0  0  0  0  0  0  0  0  0  0  0  0
   56.3247   32.6053   44.0451 H   0  0  0  0  0  0  0  0  0  0  0  0
   57.8255   32.7680   43.0325 H   0  0  0  0  0  0  0  0  0  0  0  0
   57.5613   30.5262   42.7954 H   0  0  0  0  0  0  0  0  0  0  0  0
   58.4195   30.5246   44.4076 H   0  0  0  0  0  0  0  0  0  0  0  0
   60.1751   27.6214   45.6693 H   0  0  0  0  0  0  0  0  0  0  0  0
   58.9489   27.2057   44.4241 H   0  0  0  0  0  0  0  0  0  0  0  0
   59.7137   28.8311   44.4241 H   0  0  0  0  0  0  0  0  0  0  0  0
   59.5765   33.9929   43.9123 H   0  0  0  0  0  0  0  0  0  0  0  0
   60.7674   34.9770   45.8641 H   0  0  0  0  0  0  0  0  0  0  0  0
   62.7636   31.2372   49.7384 H   0  0  0  0  0  0  0  0  0  0  0  0
   60.5220   31.5621   47.7617 H   0  0  0  0  0  0  0  0  0  0  0  0
   62.1478   30.9607   47.4602 H   0  0  0  0  0  0  0  0  0  0  0  0
   60.0074   29.2870   47.5077 H   0  0  0  0  0  0  0  0  0  0  0  0
   61.5772   28.7405   48.1419 H   0  0  0  0  0  0  0  0  0  0  0  0
   60.2800   28.3610   49.9450 H   0  0  0  0  0  0  0  0  0  0  0  0
   58.5226   30.2693   48.6665 H   0  0  0  0  0  0  0  0  0  0  0  0
   58.1509   28.7693   49.6193 H   0  0  0  0  0  0  0  0  0  0  0  0
   58.2573   32.4054   49.6546 H   0  0  0  0  0  0  0  0  0  0  0  0
   57.5943   33.7847   51.6257 H   0  0  0  0  0  0  0  0  0  0  0  0
   57.2914   32.7117   53.8599 H   0  0  0  0  0  0  0  0  0  0  0  0
   57.6265   30.2521   54.1199 H   0  0  0  0  0  0  0  0  0  0  0  0
   58.2895   28.8646   52.1553 H   0  0  0  0  0  0  0  0  0  0  0  0
   60.2862   30.7851   51.1754 H   0  0  0  0  0  0  0  0  0  0  0  0
   61.6899   29.6853   51.0682 H   0  0  0  0  0  0  0  0  0  0  0  0
  1  2  1  0
  2  3  1  0
  3  4  1  0
  4  5  1  0
  5  6  2  0
  6  7  1  0
  7  8  2  0
  8  9  1  0
  9 10  1  0
 10 11  1  0
 11 12  2  0
 11 13  1  0
 13 14  1  0
 14 15  1  0
 14 16  2  0
 14 17  2  0
  8 18  1  0
 18 19  2  0
  3 20  1  0
 20 21  2  0
 20 22  1  0
 22 23  1  0
 23 24  1  0
 24 25  1  0
 25 26  1  0
 26 27  1  0
 27 28  2  0
 28 29  1  0
 29 30  2  0
 30 31  1  0
 31 32  2  0
 25 33  1  0
 19  5  1  0
 33 22  1  0
 32 27  1  0
  1 34  1  0
  1 35  1  0
  1 36  1  0
  2 37  1  0
  2 38  1  0
  4 39  1  0
  4 40  1  0
  6 41  1  0
  7 42  1  0
  9 43  1  0
  9 44  1  0
 10 45  1  0
 10 46  1  0
 15 47  1  0
 15 48  1  0
 15 49  1  0
 18 50  1  0
 19 51  1  0
 22 52  1  6
 23 53  1  0
 23 54  1  0
 24 55  1  0
 24 56  1  0
 25 57  1  1
 26 58  1  0
 26 59  1  0
 28 60  1  0
 29 61  1  0
 30 62  1  0
 31 63  1  0
 32 64  1  0
 33 65  1  0
 33 66  1  0
M  CHG  2  13  -1  25   1
M  END
>  <UniqueID>  (67) 
61

>  <SMILES>  (67) 
CCN(Cc1ccc(CCC(=O)[N-]S(C)(=O)=O)cc1)C(=O)[C@@H]1CC[N@H+](Cc2ccccc2)C1

>  <Energy>  (67) 
65.06337791391005

>  <Genealogy>  (67) 
CCN(Cc1ccc(CCC(=O)[N-]S(C)(=O)=O)cc1)C(=O)C1CC[NH+](Cc2ccccc2)C1 (protonated)
CCN(Cc1ccc(CCC(=O)[N-]S(C)(=O)=O)cc1)C(=O)[C@@H]1CC[N@H+](Cc2ccccc2)C1 (chirality)
CCN(Cc1ccc(CCC(=O)[N-]S(C)(=O)=O)cc1)C(=O)[C@@H]1CC[N@H+](Cc2ccccc2)C1 (3D coordinates assigned)
CCN(Cc1ccc(CCC(=O)[N-]S(C)(=O)=O)cc1)C(=O)[C@@H]1CC[N@H+](Cc2ccccc2)C1 (nonaromatic ring conformer: 65.06337791391005 kcal/mol)

>  <smiles>  (67) 
CCN(Cc1ccc(CCC(=O)NS(C)(=O)=O)cc1)C(=O)C1CCN(Cc2ccccc2)C1

>  <score_type>  (67) 
oracle

>  <origin>  (67) 
adg

>  <m_score__min__energy>  (67) 
-10.65

>  <m_primary>  (67) 
energy

$$$$
67:0
     RDKit          3D

 41 43  0  0  0  0  0  0  0  0999 V2000
   59.5580   35.9060   46.8490 N   0  0  0  0  0  0  0  0  0  0  0  0
   59.3720   34.9760   45.7800 C   0  0  0  0  0  0  0  0  0  0  0  0
   59.3790   35.3960   44.5920 O   0  0  0  0  0  0  0  0  0  0  0  0
   59.1510   33.5380   46.0550 C   0  0  0  0  0  0  0  0  0  0  0  0
   57.9760   32.9210   45.5910 C   0  0  0  0  0  0  0  0  0  0  0  0
   57.7680   31.5540   45.7790 C   0  0  0  0  0  0  0  0  0  0  0  0
   58.7380   30.7730   46.4130 C   0  0  0  0  0  0  0  0  0  0  0  0
   58.5310   29.3720   46.6290 N   0  0  0  0  0  0  0  0  0  0  0  0
   58.3920   28.3860   45.5990 C   0  0  0  0  0  0  0  0  0  0  0  0
   59.3960   28.0970   44.8980 O   0  0  0  0  0  0  0  0  0  0  0  0
   57.0550   27.7810   45.2570 C   0  0  0  0  0  0  0  0  0  0  0  0
   56.8530   26.4480   45.9170 C   0  0  0  0  0  0  0  0  0  0  0  0
   58.0790   25.5140   46.6020 S   0  0  0  0  0  0  0  0  0  0  0  0
   57.0030   24.3380   47.1360 C   0  0  0  0  0  0  0  0  0  0  0  0
   57.3400   23.2980   47.7600 O   0  0  0  0  0  0  0  0  0  0  0  0
   55.7210   24.6310   46.8320 N   0  0  0  0  0  0  0  0  0  0  0  0
   55.6360   25.8100   46.1620 C   0  0  0  0  0  0  0  0  0  0  0  0
   54.4110   26.3360   45.7720 O   0  0  0  0  0  0  0  0  0  0  0  0
   59.8930   31.3800   46.9140 C   0  0  0  0  0  0  0  0  0  0  0  0
   60.1130   32.7550   46.7380 C   0  0  0  0  0  0  0  0  0  0  0  0
   61.2920   33.3420   47.3110 N   0  0  0  0  0  0  0  0  0  0  0  0
   62.4290   33.7030   46.4640 C   0  0  0  0  0  0  0  0  0  0  0  0
   63.7330   33.3630   47.1930 C   0  0  0  0  0  0  0  0  0  0  0  0
   63.7460   33.9240   48.4930 O   0  0  0  0  0  0  0  0  0  0  0  0
   62.7320   33.3300   49.2840 C   0  0  0  0  0  0  0  0  0  0  0  0
   61.3440   33.6750   48.7360 C   0  0  0  0  0  0  0  0  0  0  0  0
   59.6400   35.5820   47.8380 H   0  0  0  0  0  0  0  0  0  0  0  0
   59.6780   36.9230   46.6430 H   0  0  0  0  0  0  0  0  0  0  0  0
   57.2130   33.5219   45.0746 H   0  0  0  0  0  0  0  0  0  0  0  0
   56.8357   31.0888   45.4263 H   0  0  0  0  0  0  0  0  0  0  0  0
   56.2605   28.4654   45.5894 H   0  0  0  0  0  0  0  0  0  0  0  0
   57.0207   27.6285   44.1682 H   0  0  0  0  0  0  0  0  0  0  0  0
   60.6371   30.7740   47.4517 H   0  0  0  0  0  0  0  0  0  0  0  0
   62.3779   33.1394   45.5208 H   0  0  0  0  0  0  0  0  0  0  0  0
   62.3988   34.7810   46.2473 H   0  0  0  0  0  0  0  0  0  0  0  0
   63.8273   32.2699   47.2715 H   0  0  0  0  0  0  0  0  0  0  0  0
   64.5746   33.7811   46.6213 H   0  0  0  0  0  0  0  0  0  0  0  0
   62.8617   32.2377   49.2762 H   0  0  0  0  0  0  0  0  0  0  0  0
   62.8126   33.7174   50.3104 H   0  0  0  0  0  0  0  0  0  0  0  0
   60.5807   33.0965   49.2770 H   0  0  0  0  0  0  0  0  0  0  0  0
   61.1499   34.7492   48.8716 H   0  0  0  0  0  0  0  0  0  0  0  0
  1  2  1  0
  2  3  2  0
  2  4  1  0
  4  5  2  0
  5  6  1  0
  6  7  2  0
  7  8  1  0
  8  9  1  0
  9 10  2  0
  9 11  1  0
 11 12  1  0
 12 13  1  0
 13 14  1  0
 14 15  2  0
 14 16  1  0
 16 17  1  0
 17 18  1  0
  7 19  1  0
 19 20  2  0
 20 21  1  0
 21 22  1  0
 22 23  1  0
 23 24  1  0
 24 25  1  0
 25 26  1  0
 20  4  1  0
 26 21  1  0
 17 12  2  0
  1 27  1  0
  1 28  1  0
  5 29  1  0
  6 30  1  0
 11 31  1  0
 11 32  1  0
 19 33  1  0
 22 34  1  0
 22 35  1  0
 23 36  1  0
 23 37  1  0
 25 38  1  0
 25 39  1  0
 26 40  1  0
 26 41  1  0
M  CHG  3   8  -1  16  -1  18  -1
M  END
>  <UniqueID>  (68) 
62

>  <SMILES>  (68) 
NC(=O)c1ccc([N-]C(=O)Cc2sc(=O)[n-]c2[O-])cc1N1CCOCC1

>  <Energy>  (68) 
87.36505473863681

>  <Genealogy>  (68) 
NC(=O)c1ccc([N-]C(=O)Cc2sc(=O)[n-]c2[O-])cc1N1CCOCC1 (protonated)
NC(=O)c1ccc([N-]C(=O)Cc2sc(=O)[n-]c2[O-])cc1N1CCOCC1 (3D coordinates assigned)
NC(=O)c1ccc([N-]C(=O)Cc2sc(=O)[n-]c2[O-])cc1N1CCOCC1 (nonaromatic ring conformer: 87.36505473863681 kcal/mol)

>  <smiles>  (68) 
NC(=O)c1ccc(NC(=O)Cc2sc(=O)[nH]c2O)cc1N1CCOCC1

>  <score_type>  (68) 
oracle

>  <origin>  (68) 
adg

>  <m_score__min__energy>  (68) 
-15.199999999999999

>  <m_primary>  (68) 
energy

$$$$
68:0
     RDKit          3D

 44 46  0  0  0  0  0  0  0  0999 V2000
   54.5420   28.9353   44.6771 H   0  0  0  0  0  0  0  0  0  0  0  0
   55.5520   29.3650   44.7490 C   0  0  0  0  0  0  0  0  0  0  0  0
   55.8240   30.6550   44.4140 N   0  0  0  0  0  0  0  0  0  0  0  0
   57.1300   30.9510   44.5730 C   0  0  0  0  0  0  0  0  0  0  0  0
   57.6030   32.1400   44.3370 N   0  0  0  0  0  0  0  0  0  0  0  0
   57.6240   33.2310   45.2680 C   0  0  0  0  0  0  0  0  0  0  0  0
   56.6520   34.0340   45.2760 O   0  0  0  0  0  0  0  0  0  0  0  0
   58.7810   33.4800   46.1620 C   0  0  0  0  0  0  0  0  0  0  0  0
   58.6700   33.2890   47.5490 C   0  0  0  0  0  0  0  0  0  0  0  0
   57.7161   32.9498   47.9792 H   0  0  0  0  0  0  0  0  0  0  0  0
   59.7630   33.5270   48.3860 C   0  0  0  0  0  0  0  0  0  0  0  0
   59.6590   33.3862   49.4720 H   0  0  0  0  0  0  0  0  0  0  0  0
   60.9950   33.9450   47.8520 C   0  0  0  0  0  0  0  0  0  0  0  0
   62.1850   34.2240   48.7540 C   0  0  0  0  0  0  0  0  0  0  0  0
   62.2636   35.3149   48.8716 H   0  0  0  0  0  0  0  0  0  0  0  0
   63.5270   33.7690   48.1210 C   0  0  0  0  0  0  0  0  0  0  0  0
   63.3483   33.4972   47.0702 H   0  0  0  0  0  0  0  0  0  0  0  0
   64.2386   34.6036   48.2046 H   0  0  0  0  0  0  0  0  0  0  0  0
   64.1340   32.5590   48.8480 C   0  0  0  0  0  0  0  0  0  0  0  0
   63.4530   31.7022   48.7379 H   0  0  0  0  0  0  0  0  0  0  0  0
   65.1156   32.3532   48.3963 H   0  0  0  0  0  0  0  0  0  0  0  0
   64.3440   32.8160   50.2850 N   0  0  0  0  0  0  0  0  0  0  0  0
   65.2520   33.3240   50.4000 H   0  0  0  0  0  0  0  0  0  0  0  0
   63.2820   33.6100   50.9390 C   0  0  0  0  0  0  0  0  0  0  0  0
   63.0926   33.1866   51.9364 H   0  0  0  0  0  0  0  0  0  0  0  0
   63.6367   34.6499   50.9928 H   0  0  0  0  0  0  0  0  0  0  0  0
   61.9630   33.6170   50.1530 C   0  0  0  0  0  0  0  0  0  0  0  0
   61.5962   32.5853   50.0482 H   0  0  0  0  0  0  0  0  0  0  0  0
   61.2230   34.2233   50.6959 H   0  0  0  0  0  0  0  0  0  0  0  0
   61.1070   34.1230   46.4630 C   0  0  0  0  0  0  0  0  0  0  0  0
   62.0638   34.4509   46.0306 H   0  0  0  0  0  0  0  0  0  0  0  0
   60.0130   33.8870   45.6260 C   0  0  0  0  0  0  0  0  0  0  0  0
   60.1180   34.0211   44.5393 H   0  0  0  0  0  0  0  0  0  0  0  0
   58.0050   29.6310   45.1580 S   0  0  0  0  0  0  0  0  0  0  0  0
   56.6520   28.6280   45.1910 C   0  0  0  0  0  0  0  0  0  0  0  0
   56.6610   27.2150   45.6170 C   0  0  0  0  0  0  0  0  0  0  0  0
   55.5830   26.6810   45.9920 O   0  0  0  0  0  0  0  0  0  0  0  0
   57.9250   26.4050   45.6530 C   0  0  0  0  0  0  0  0  0  0  0  0
   58.5456   26.6663   44.7832 H   0  0  0  0  0  0  0  0  0  0  0  0
   57.6605   25.3376   45.6279 H   0  0  0  0  0  0  0  0  0  0  0  0
   58.7110   26.6840   46.9300 C   0  0  0  0  0  0  0  0  0  0  0  0
   58.0817   26.4606   47.8041 H   0  0  0  0  0  0  0  0  0  0  0  0
   59.6095   26.0499   46.9534 H   0  0  0  0  0  0  0  0  0  0  0  0
   59.0087   27.7427   46.9534 H   0  0  0  0  0  0  0  0  0  0  0  0
  1  2  1  0
  2  3  1  0
  3  4  1  0
  4  5  2  0
  5  6  1  0
  6  7  2  0
  6  8  1  0
  8  9  2  0
  9 10  1  0
  9 11  1  0
 11 12  1  0
 11 13  2  0
 13 14  1  0
 14 15  1  0
 14 16  1  0
 16 17  1  0
 16 18  1  0
 16 19  1  0
 19 20  1  0
 19 21  1  0
 19 22  1  0
 22 23  1  0
 22 24  1  0
 24 25  1  0
 24 26  1  0
 24 27  1  0
 27 28  1  0
 27 29  1  0
 13 30  1  0
 30 31  1  0
 30 32  2  0
 32 33  1  0
  4 34  1  0
 34 35  1  0
 35 36  1  0
 36 37  2  0
 36 38  1  0
 38 39  1  0
 38 40  1  0
 38 41  1  0
 41 42  1  0
 41 43  1  0
 41 44  1  0
 35  2  2  0
 32  8  1  0
 27 14  1  0
M  CHG  1   3  -1
M  END
>  <UniqueID>  (69) 
63

>  <SMILES>  (69) 
CCC(=O)c1c[n-]/c(=N/C(=O)c2ccc(C3CCNCC3)cc2)s1

>  <Energy>  (69) 
86.78249800317555

>  <Genealogy>  (69) 
CCC(=O)c1c[n-]c(=NC(=O)c2ccc(C3CCNCC3)cc2)s1 (protonated)
CCC(=O)c1c[n-]/c(=N/C(=O)c2ccc(C3CCNCC3)cc2)s1 (cis-trans isomerization)
CCC(=O)c1c[n-]/c(=N/C(=O)c2ccc(C3CCNCC3)cc2)s1 (3D coordinates assigned)
CCC(=O)c1c[n-]/c(=N/C(=O)c2ccc(C3CCNCC3)cc2)s1 (nonaromatic ring conformer: 86.78249800317555 kcal/mol)

>  <smiles>  (69) 
CCC(=O)c1c[nH]c(=NC(=O)c2ccc(C3CCNCC3)cc2)s1

>  <score_type>  (69) 
oracle

>  <origin>  (69) 
adg

>  <m_score__min__energy>  (69) 
-9.8499999999999996

>  <m_primary>  (69) 
energy

$$$$
69:0
     RDKit          3D

 82 85  0  0  0  0  0  0  0  0999 V2000
   65.1120   32.8110   49.0210 N   0  0  0  0  0  0  0  0  0  0  0  0
   64.0860   32.4660   49.9550 C   0  0  0  0  0  0  0  0  0  0  0  0
   64.4030   32.3320   51.3180 C   0  0  0  0  0  0  0  0  0  0  0  0
   63.4170   31.9780   52.2430 C   0  0  0  0  0  0  0  0  0  0  0  0
   62.1100   31.7520   51.8160 C   0  0  0  0  0  0  0  0  0  0  0  0
   61.7770   31.8890   50.4610 C   0  0  0  0  0  0  0  0  0  0  0  0
   62.7620   32.2480   49.5220 C   0  0  0  0  0  0  0  0  0  0  0  0
   62.4700   32.2880   48.1170 N   0  0  0  0  0  0  0  0  0  0  0  0
   62.4670   33.4390   47.2680 C   0  0  0  0  0  0  0  0  0  0  0  0
   63.4960   34.1620   47.1700 O   0  0  0  0  0  0  0  0  0  0  0  0
   61.2630   33.6980   46.4120 C   0  0  0  0  0  0  0  0  0  0  0  0
   60.1560   34.4720   47.1580 C   0  0  0  0  0  0  0  0  0  0  0  0
   59.8880   33.9070   48.5650 C   0  0  0  0  0  0  0  0  0  0  0  0
   59.2800   32.4870   48.5780 C   0  0  0  0  0  0  0  0  0  0  0  0
   58.1130   32.3310   49.5800 C   0  0  0  0  0  0  0  0  0  0  0  0
   58.5670   32.3950   51.0500 C   0  0  0  0  0  0  0  0  0  0  0  0
   57.3940   32.5890   52.0350 C   0  0  0  0  0  0  0  0  0  0  0  0
   56.4570   31.4250   52.0180 C   0  0  0  0  0  0  0  0  0  0  0  0
   55.2390   31.5910   52.3080 O   0  0  0  0  0  0  0  0  0  0  0  0
   56.9440   30.1410   51.5990 N   0  0  0  0  0  0  0  0  0  0  0  0
   58.0870   29.4770   52.1450 C   0  0  0  0  0  0  0  0  0  0  0  0
   57.9810   28.8760   53.4040 C   0  0  0  0  0  0  0  0  0  0  0  0
   59.0720   28.1980   53.9550 C   0  0  0  0  0  0  0  0  0  0  0  0
   60.2650   28.0920   53.2390 C   0  0  0  0  0  0  0  0  0  0  0  0
   60.3650   28.6540   51.9620 C   0  0  0  0  0  0  0  0  0  0  0  0
   61.8710   28.4510   51.0120 S   0  0  0  0  0  0  0  0  0  0  0  0
   60.9680   28.3170   49.4730 C   0  0  0  0  0  0  0  0  0  0  0  0
   60.4490   27.0820   49.0600 C   0  0  0  0  0  0  0  0  0  0  0  0
   59.7840   26.9790   47.8340 C   0  0  0  0  0  0  0  0  0  0  0  0
   59.6520   28.1050   47.0060 C   0  0  0  0  0  0  0  0  0  0  0  0
   58.9810   27.9810   45.7460 N   0  0  0  0  0  0  0  0  0  0  0  0
   57.7620   27.5560   45.5650 C   0  0  0  0  0  0  0  0  0  0  0  0
   57.3830   26.0870   45.4840 C   0  0  2  0  0  0  0  0  0  0  0  0
   57.4710   25.5430   44.0380 C   0  0  0  0  0  0  0  0  0  0  0  0
   57.3010   24.0430   43.9340 C   0  0  0  0  0  0  0  0  0  0  0  0
   58.1330   23.1740   44.6570 C   0  0  0  0  0  0  0  0  0  0  0  0
   57.9410   21.7930   44.5830 C   0  0  0  0  0  0  0  0  0  0  0  0
   56.9100   21.2900   43.7840 C   0  0  0  0  0  0  0  0  0  0  0  0
   56.1210   22.1410   43.0780 N   0  0  0  0  0  0  0  0  0  0  0  0
   56.2940   23.4880   43.1290 C   0  0  0  0  0  0  0  0  0  0  0  0
   56.0200   25.8290   46.0790 C   0  0  0  0  0  0  0  0  0  0  0  0
   55.1190   26.7100   46.0000 O   0  0  0  0  0  0  0  0  0  0  0  0
   55.7690   24.6520   46.7780 O   0  0  0  0  0  0  0  0  0  0  0  0
   60.1280   29.3480   47.4490 C   0  0  0  0  0  0  0  0  0  0  0  0
   60.7910   29.4530   48.6730 C   0  0  0  0  0  0  0  0  0  0  0  0
   59.2780   29.3490   51.4170 C   0  0  0  0  0  0  0  0  0  0  0  0
   64.9010   32.8770   48.0010 H   0  0  0  0  0  0  0  0  0  0  0  0
   66.0930   32.9860   49.3270 H   0  0  0  0  0  0  0  0  0  0  0  0
   65.4341   32.5070   51.6588 H   0  0  0  0  0  0  0  0  0  0  0  0
   63.6727   31.8778   53.3082 H   0  0  0  0  0  0  0  0  0  0  0  0
   61.3371   31.4652   52.5443 H   0  0  0  0  0  0  0  0  0  0  0  0
   60.7423   31.7153   50.1306 H   0  0  0  0  0  0  0  0  0  0  0  0
   61.5742   34.2861   45.5360 H   0  0  0  0  0  0  0  0  0  0  0  0
   60.8469   32.7223   46.1206 H   0  0  0  0  0  0  0  0  0  0  0  0
   60.4635   35.5239   47.2528 H   0  0  0  0  0  0  0  0  0  0  0  0
   59.2281   34.3731   46.5755 H   0  0  0  0  0  0  0  0  0  0  0  0
   60.8423   33.8775   49.1113 H   0  0  0  0  0  0  0  0  0  0  0  0
   59.1458   34.5703   49.0332 H   0  0  0  0  0  0  0  0  0  0  0  0
   58.9069   32.2576   47.5689 H   0  0  0  0  0  0  0  0  0  0  0  0
   60.0749   31.7950   48.8931 H   0  0  0  0  0  0  0  0  0  0  0  0
   57.3881   33.1390   49.4019 H   0  0  0  0  0  0  0  0  0  0  0  0
   57.6703   31.3374   49.4162 H   0  0  0  0  0  0  0  0  0  0  0  0
   59.0823   31.4556   51.2991 H   0  0  0  0  0  0  0  0  0  0  0  0
   59.2304   33.2665   51.1522 H   0  0  0  0  0  0  0  0  0  0  0  0
   57.7981   32.7060   53.0514 H   0  0  0  0  0  0  0  0  0  0  0  0
   56.8333   33.4839   51.7271 H   0  0  0  0  0  0  0  0  0  0  0  0
   57.0353   28.9373   53.9624 H   0  0  0  0  0  0  0  0  0  0  0  0
   58.9900   27.7471   54.9550 H   0  0  0  0  0  0  0  0  0  0  0  0
   61.1260   27.5670   53.6784 H   0  0  0  0  0  0  0  0  0  0  0  0
   60.5647   26.1946   49.6997 H   0  0  0  0  0  0  0  0  0  0  0  0
   59.3633   26.0131   47.5176 H   0  0  0  0  0  0  0  0  0  0  0  0
   56.9617   28.3040   45.4652 H   0  0  0  0  0  0  0  0  0  0  0  0
   58.1211   25.5372   46.0864 H   0  0  0  0  0  0  0  0  0  0  0  0
   56.6829   26.0229   43.4392 H   0  0  0  0  0  0  0  0  0  0  0  0
   58.4817   25.7752   43.6713 H   0  0  0  0  0  0  0  0  0  0  0  0
   58.9392   23.5824   45.2841 H   0  0  0  0  0  0  0  0  0  0  0  0
   58.5929   21.1092   45.1464 H   0  0  0  0  0  0  0  0  0  0  0  0
   56.7377   20.2051   43.7270 H   0  0  0  0  0  0  0  0  0  0  0  0
   55.6417   24.1465   42.5366 H   0  0  0  0  0  0  0  0  0  0  0  0
   59.9781   30.2442   46.8290 H   0  0  0  0  0  0  0  0  0  0  0  0
   61.1744   30.4277   49.0091 H   0  0  0  0  0  0  0  0  0  0  0  0
   59.3591   29.7956   50.4150 H   0  0  0  0  0  0  0  0  0  0  0  0
  1  2  1  0
  2  3  2  0
  3  4  1  0
  4  5  2  0
  5  6  1  0
  6  7  2  0
  7  8  1  0
  8  9  1  0
  9 10  2  0
  9 11  1  0
 11 12  1  0
 12 13  1  0
 13 14  1  0
 14 15  1  0
 15 16  1  0
 16 17  1  0
 17 18  1  0
 18 19  2  0
 18 20  1  0
 20 21  1  0
 21 22  2  0
 22 23  1  0
 23 24  2  0
 24 25  1  0
 25 26  1  0
 26 27  1  0
 27 28  2  0
 28 29  1  0
 29 30  2  0
 30 31  1  0
 31 32  2  3
 32 33  1  0
 33 34  1  0
 34 35  1  0
 35 36  2  0
 36 37  1  0
 37 38  2  0
 38 39  1  0
 39 40  2  0
 33 41  1  0
 41 42  2  0
 41 43  1  0
 30 44  1  0
 44 45  2  0
 25 46  2  0
  7  2  1  0
 46 21  1  0
 45 27  1  0
 40 35  1  0
  1 47  1  0
  1 48  1  0
  3 49  1  0
  4 50  1  0
  5 51  1  0
  6 52  1  0
 11 53  1  0
 11 54  1  0
 12 55  1  0
 12 56  1  0
 13 57  1  0
 13 58  1  0
 14 59  1  0
 14 60  1  0
 15 61  1  0
 15 62  1  0
 16 63  1  0
 16 64  1  0
 17 65  1  0
 17 66  1  0
 22 67  1  0
 23 68  1  0
 24 69  1  0
 28 70  1  0
 29 71  1  0
 32 72  1  0
 33 73  1  1
 34 74  1  0
 34 75  1  0
 36 76  1  0
 37 77  1  0
 38 78  1  0
 40 79  1  0
 44 80  1  0
 45 81  1  0
 46 82  1  0
M  CHG  3   8  -1  20  -1  43  -1
M  END
>  <UniqueID>  (70) 
64

>  <SMILES>  (70) 
Nc1ccccc1[N-]C(=O)CCCCCCCC(=O)[N-]c1cccc(Sc2ccc(N=C[C@H](Cc3cccnc3)C(=O)[O-])cc2)c1

>  <Energy>  (70) 
83.00043459109412

>  <Genealogy>  (70) 
Nc1ccccc1[N-]C(=O)CCCCCCCC(=O)[N-]c1cccc(Sc2ccc(N=CC(Cc3cccnc3)C(=O)[O-])cc2)c1 (protonated)
Nc1ccccc1[N-]C(=O)CCCCCCCC(=O)[N-]c1cccc(Sc2ccc(N=C[C@H](Cc3cccnc3)C(=O)[O-])cc2)c1 (chirality)
Nc1ccccc1[N-]C(=O)CCCCCCCC(=O)[N-]c1cccc(Sc2ccc(N=C[C@H](Cc3cccnc3)C(=O)[O-])cc2)c1 (3D coordinates assigned)
Nc1ccccc1[N-]C(=O)CCCCCCCC(=O)[N-]c1cccc(Sc2ccc(N=C[C@H](Cc3cccnc3)C(=O)[O-])cc2)c1 (optimized conformer: 83.00043459109412 kcal/mol)

>  <smiles>  (70) 
Nc1ccccc1NC(=O)CCCCCCCC(=O)Nc1cccc(Sc2ccc(N=CC(Cc3cccnc3)C(=O)O)cc2)c1

>  <score_type>  (70) 
oracle

>  <origin>  (70) 
adg

>  <m_score__min__energy>  (70) 
-15.35

>  <m_primary>  (70) 
energy

$$$$
70:0
     RDKit          3D

 48 51  0  0  0  0  0  0  0  0999 V2000
   59.3529   34.9296   44.1089 H   0  0  0  0  0  0  0  0  0  0  0  0
   58.8300   34.0910   44.5920 C   0  0  0  0  0  0  0  0  0  0  0  0
   58.8120   33.9870   45.9820 C   0  0  0  0  0  0  0  0  0  0  0  0
   59.3236   34.7389   46.6007 H   0  0  0  0  0  0  0  0  0  0  0  0
   58.1370   32.9170   46.5850 C   0  0  0  0  0  0  0  0  0  0  0  0
   58.1500   32.7680   48.0780 C   0  0  0  0  0  0  0  0  0  0  0  0
   58.0635   33.7596   48.5462 H   0  0  0  0  0  0  0  0  0  0  0  0
   57.3033   32.1395   48.3912 H   0  0  0  0  0  0  0  0  0  0  0  0
   59.0928   32.2956   48.3912 H   0  0  0  0  0  0  0  0  0  0  0  0
   57.5260   31.9760   45.8070 N   0  0  0  0  0  0  0  0  0  0  0  0
   57.0530   31.1640   46.2650 H   0  0  0  0  0  0  0  0  0  0  0  0
   57.5180   32.0680   44.4440 C   0  0  0  0  0  0  0  0  0  0  0  0
   56.8590   31.0000   43.6210 C   0  0  0  0  0  0  0  0  0  0  0  0
   56.2282   31.4668   42.8502 H   0  0  0  0  0  0  0  0  0  0  0  0
   57.6283   30.3807   43.1365 H   0  0  0  0  0  0  0  0  0  0  0  0
   56.0330   30.1650   44.4870 N   0  0  0  0  0  0  0  0  0  0  0  0
   56.5000   29.2230   45.2500 C   0  0  0  0  0  0  0  0  0  0  0  0
   57.5860   29.4380   46.0420 N   0  0  0  0  0  0  0  0  0  0  0  0
   58.0640   28.4470   46.8350 C   0  0  0  0  0  0  0  0  0  0  0  0
   59.1020   28.6700   47.5830 N   0  0  0  0  0  0  0  0  0  0  0  0
   60.4120   29.0580   47.0680 C   0  0  0  0  0  0  0  0  0  0  0  0
   61.1598   28.3075   47.3637 H   0  0  0  0  0  0  0  0  0  0  0  0
   60.3719   29.1210   45.9705 H   0  0  0  0  0  0  0  0  0  0  0  0
   60.7930   30.3950   47.6340 C   0  0  0  0  0  0  0  0  0  0  0  0
   60.7400   30.6180   49.0200 C   0  0  0  0  0  0  0  0  0  0  0  0
   60.3924   29.8186   49.6910 H   0  0  0  0  0  0  0  0  0  0  0  0
   61.1280   31.8540   49.5500 C   0  0  0  0  0  0  0  0  0  0  0  0
   61.0757   32.0277   50.6349 H   0  0  0  0  0  0  0  0  0  0  0  0
   61.5820   32.8680   48.7010 C   0  0  0  0  0  0  0  0  0  0  0  0
   61.9670   34.0940   49.2290 O   0  0  0  0  0  0  0  0  0  0  0  0
   61.6510   32.6470   47.3220 C   0  0  0  0  0  0  0  0  0  0  0  0
   62.0104   33.4448   46.6554 H   0  0  0  0  0  0  0  0  0  0  0  0
   61.2640   31.4140   46.7890 C   0  0  0  0  0  0  0  0  0  0  0  0
   61.3284   31.2410   45.7046 H   0  0  0  0  0  0  0  0  0  0  0  0
   57.4520   27.2320   46.8340 N   0  0  0  0  0  0  0  0  0  0  0  0
   56.3670   27.0100   46.0460 C   0  0  0  0  0  0  0  0  0  0  0  0
   55.7760   25.8550   46.0340 N   0  0  0  0  0  0  0  0  0  0  0  0
   56.3080   24.6870   45.3370 C   0  0  0  0  0  0  0  0  0  0  0  0
   55.4110   24.0536   45.4023 H   0  0  0  0  0  0  0  0  0  0  0  0
   57.7930   24.4670   45.5630 C   0  0  0  0  0  0  0  0  0  0  0  0
   58.3412   25.1012   46.2752 H   0  0  0  0  0  0  0  0  0  0  0  0
   58.4183   23.6079   45.8475 H   0  0  0  0  0  0  0  0  0  0  0  0
   57.2990   25.0510   44.2470 C   0  0  0  0  0  0  0  0  0  0  0  0
   57.4902   26.1075   44.0077 H   0  0  0  0  0  0  0  0  0  0  0  0
   57.4193   24.7891   43.1854 H   0  0  0  0  0  0  0  0  0  0  0  0
   55.8960   28.0080   45.2560 N   0  0  0  0  0  0  0  0  0  0  0  0
   58.1840   33.1300   43.8150 C   0  0  0  0  0  0  0  0  0  0  0  0
   58.1967   33.2043   42.7176 H   0  0  0  0  0  0  0  0  0  0  0  0
  1  2  1  0
  2  3  2  0
  3  4  1  0
  3  5  1  0
  5  6  1  0
  6  7  1  0
  6  8  1  0
  6  9  1  0
  5 10  2  0
 10 11  1  0
 10 12  1  0
 12 13  1  0
 13 14  1  0
 13 15  1  0
 13 16  1  0
 16 17  2  3
 17 18  1  0
 18 19  1  0
 19 20  2  0
 20 21  1  0
 21 22  1  0
 21 23  1  0
 21 24  1  0
 24 25  2  0
 25 26  1  0
 25 27  1  0
 27 28  1  0
 27 29  2  0
 29 30  1  0
 29 31  1  0
 31 32  1  0
 31 33  2  0
 33 34  1  0
 19 35  1  0
 35 36  1  0
 36 37  2  0
 37 38  1  0
 38 39  1  0
 38 40  1  0
 40 41  1  0
 40 42  1  0
 40 43  1  0
 43 44  1  0
 43 45  1  0
 36 46  1  0
 12 47  2  0
 47 48  1  0
 47  2  1  0
 46 17  1  0
 33 24  1  0
 43 38  1  0
M  CHG  5  10   1  18  -1  30  -1  35  -1  46  -1
M  END
>  <UniqueID>  (71) 
65

>  <SMILES>  (71) 
Cc1cccc(CN=c2[n-]/c(=N/Cc3ccc([O-])cc3)[n-]/c(=N\C3CC3)[n-]2)[nH+]1

>  <Energy>  (71) 
312.06716777130646

>  <Genealogy>  (71) 
Cc1cccc(CN=c2[n-]c(=NCc3ccc([O-])cc3)[n-]c(=NC3CC3)[n-]2)[nH+]1 (protonated)
Cc1cccc(CN=c2[n-]/c(=N/Cc3ccc([O-])cc3)[n-]/c(=N\C3CC3)[n-]2)[nH+]1 (cis-trans isomerization)
Cc1cccc(CN=c2[n-]/c(=N/Cc3ccc([O-])cc3)[n-]/c(=N\C3CC3)[n-]2)[nH+]1 (3D coordinates assigned)
Cc1cccc(CN=c2[n-]/c(=N/Cc3ccc([O-])cc3)[n-]/c(=N\C3CC3)[n-]2)[nH+]1 (nonaromatic ring conformer: 312.06716777130646 kcal/mol)

>  <smiles>  (71) 
Cc1cccc(CN=c2[nH]c(=NCc3ccc(O)cc3)[nH]c(=NC3CC3)[nH]2)n1

>  <score_type>  (71) 
oracle

>  <origin>  (71) 
adg

>  <m_score__min__energy>  (71) 
-13

>  <m_primary>  (71) 
energy

$$$$
71:0
     RDKit          3D

 52 54  0  0  0  0  0  0  0  0999 V2000
   57.3390   24.0250   46.8630 C   0  0  0  0  0  0  0  0  0  0  0  0
   56.4820   25.1750   47.1080 N   0  0  0  0  0  0  0  0  0  0  0  0
   56.2770   26.2070   46.1390 C   0  0  0  0  0  0  0  0  0  0  0  0
   55.1350   26.7170   45.9820 O   0  0  0  0  0  0  0  0  0  0  0  0
   57.4170   26.6570   45.2820 C   0  0  0  0  0  0  0  0  0  0  0  0
   58.4290   27.4080   46.1100 C   0  0  0  0  0  0  0  0  0  0  0  0
   59.5590   26.7310   46.6000 C   0  0  0  0  0  0  0  0  0  0  0  0
   60.4980   27.3970   47.3900 C   0  0  0  0  0  0  0  0  0  0  0  0
   60.3150   28.7420   47.7070 C   0  0  0  0  0  0  0  0  0  0  0  0
   59.1910   29.4250   47.2410 C   0  0  0  0  0  0  0  0  0  0  0  0
   58.2350   28.7690   46.4420 C   0  0  0  0  0  0  0  0  0  0  0  0
   57.0650   29.4500   45.9620 N   0  0  0  0  0  0  0  0  0  0  0  0
   57.0340   30.6140   44.6760 S   0  0  0  0  0  0  0  0  0  0  0  0
   57.8020   30.0710   43.5050 O   0  0  0  0  0  0  0  0  0  0  0  0
   55.6080   30.8500   44.2630 O   0  0  0  0  0  0  0  0  0  0  0  0
   57.7830   32.1160   45.2050 C   0  0  0  0  0  0  0  0  0  0  0  0
   57.7960   33.2340   44.3630 C   0  0  0  0  0  0  0  0  0  0  0  0
   58.3800   34.4280   44.7910 C   0  0  0  0  0  0  0  0  0  0  0  0
   58.9610   34.5160   46.0640 C   0  0  0  0  0  0  0  0  0  0  0  0
   59.5430   35.7140   46.4770 O   0  0  0  0  0  0  0  0  0  0  0  0
   58.9550   33.3940   46.9140 C   0  0  0  0  0  0  0  0  0  0  0  0
   59.6820   33.4590   48.5280 S   0  0  0  0  0  0  0  0  0  0  0  0
   59.5650   34.8520   49.0800 O   0  0  0  0  0  0  0  0  0  0  0  0
   58.9230   32.5370   49.4430 O   0  0  0  0  0  0  0  0  0  0  0  0
   61.3640   32.9850   48.5030 N   0  0  0  0  0  0  0  0  0  0  0  0
   61.8690   32.9460   47.1200 C   0  0  0  0  0  0  0  0  0  0  0  0
   63.3980   32.7500   47.1030 C   0  0  0  0  0  0  0  0  0  0  0  0
   63.8810   32.3980   48.3860 O   0  0  0  0  0  0  0  0  0  0  0  0
   63.6520   33.4630   49.2930 C   0  0  0  0  0  0  0  0  0  0  0  0
   62.1740   33.9050   49.3140 C   0  0  0  0  0  0  0  0  0  0  0  0
   58.3670   32.1990   46.4750 C   0  0  0  0  0  0  0  0  0  0  0  0
   57.6593   23.5952   47.8235 H   0  0  0  0  0  0  0  0  0  0  0  0
   56.7826   23.2685   46.2901 H   0  0  0  0  0  0  0  0  0  0  0  0
   58.2230   24.3419   46.2901 H   0  0  0  0  0  0  0  0  0  0  0  0
   57.8992   25.7784   44.8287 H   0  0  0  0  0  0  0  0  0  0  0  0
   57.0325   27.3232   44.4957 H   0  0  0  0  0  0  0  0  0  0  0  0
   59.7048   25.6677   46.3591 H   0  0  0  0  0  0  0  0  0  0  0  0
   61.3828   26.8600   47.7625 H   0  0  0  0  0  0  0  0  0  0  0  0
   61.0582   29.2661   48.3258 H   0  0  0  0  0  0  0  0  0  0  0  0
   59.0506   30.4848   47.5000 H   0  0  0  0  0  0  0  0  0  0  0  0
   57.3450   33.1719   43.3616 H   0  0  0  0  0  0  0  0  0  0  0  0
   58.3842   35.3042   44.1259 H   0  0  0  0  0  0  0  0  0  0  0  0
   59.3100   36.1390   47.3670 H   0  0  0  0  0  0  0  0  0  0  0  0
   61.3921   32.1116   46.5850 H   0  0  0  0  0  0  0  0  0  0  0  0
   61.6296   33.9009   46.6293 H   0  0  0  0  0  0  0  0  0  0  0  0
   63.6496   31.9491   46.3922 H   0  0  0  0  0  0  0  0  0  0  0  0
   63.8683   33.6973   46.8005 H   0  0  0  0  0  0  0  0  0  0  0  0
   63.9378   33.1351   50.3034 H   0  0  0  0  0  0  0  0  0  0  0  0
   64.2559   34.3216   48.9641 H   0  0  0  0  0  0  0  0  0  0  0  0
   61.8060   33.8976   50.3506 H   0  0  0  0  0  0  0  0  0  0  0  0
   62.0941   34.9201   48.8977 H   0  0  0  0  0  0  0  0  0  0  0  0
   58.3645   31.3186   47.1344 H   0  0  0  0  0  0  0  0  0  0  0  0
  1  2  1  0
  2  3  1  0
  3  4  2  0
  3  5  1  0
  5  6  1  0
  6  7  2  0
  7  8  1  0
  8  9  2  0
  9 10  1  0
 10 11  2  0
 11 12  1  0
 12 13  1  0
 13 14  2  0
 13 15  2  0
 13 16  1  0
 16 17  2  0
 17 18  1  0
 18 19  2  0
 19 20  1  0
 19 21  1  0
 21 22  1  0
 22 23  2  0
 22 24  2  0
 22 25  1  0
 25 26  1  0
 26 27  1  0
 27 28  1  0
 28 29  1  0
 29 30  1  0
 21 31  2  0
 11  6  1  0
 31 16  1  0
 30 25  1  0
  1 32  1  0
  1 33  1  0
  1 34  1  0
  5 35  1  0
  5 36  1  0
  7 37  1  0
  8 38  1  0
  9 39  1  0
 10 40  1  0
 17 41  1  0
 18 42  1  0
 20 43  1  0
 26 44  1  0
 26 45  1  0
 27 46  1  0
 27 47  1  0
 29 48  1  0
 29 49  1  0
 30 50  1  0
 30 51  1  0
 31 52  1  0
M  CHG  2   2  -1  12  -1
M  END
>  <UniqueID>  (72) 
66

>  <SMILES>  (72) 
C[N-]C(=O)Cc1ccccc1[N-]S(=O)(=O)c1ccc(O)c(S(=O)(=O)N2CCOCC2)c1

>  <Energy>  (72) 
59.22141248883682

>  <Genealogy>  (72) 
C[N-]C(=O)Cc1ccccc1[N-]S(=O)(=O)c1ccc(O)c(S(=O)(=O)N2CCOCC2)c1 (protonated)
C[N-]C(=O)Cc1ccccc1[N-]S(=O)(=O)c1ccc(O)c(S(=O)(=O)N2CCOCC2)c1 (3D coordinates assigned)
C[N-]C(=O)Cc1ccccc1[N-]S(=O)(=O)c1ccc(O)c(S(=O)(=O)N2CCOCC2)c1 (nonaromatic ring conformer: 59.22141248883682 kcal/mol)

>  <smiles>  (72) 
CNC(=O)Cc1ccccc1NS(=O)(=O)c1ccc(O)c(S(=O)(=O)N2CCOCC2)c1

>  <score_type>  (72) 
oracle

>  <origin>  (72) 
adg

>  <m_score__min__energy>  (72) 
-13.550000000000001

>  <m_primary>  (72) 
energy

$$$$
72:0
     RDKit          3D

 61 64  0  0  0  0  0  0  0  0999 V2000
   66.5000   32.8910   50.1490 C   0  0  0  0  0  0  0  0  0  0  0  0
   65.0650   32.5750   50.5550 C   0  0  0  0  0  0  0  0  0  0  0  0
   64.1750   33.6070   50.1280 O   0  0  0  0  0  0  0  0  0  0  0  0
   63.2790   33.5170   49.0520 C   0  0  0  0  0  0  0  0  0  0  0  0
   63.7600   33.8360   47.7600 C   0  0  0  0  0  0  0  0  0  0  0  0
   62.9070   33.8020   46.6430 C   0  0  0  0  0  0  0  0  0  0  0  0
   61.5820   33.4350   46.8450 C   0  0  0  0  0  0  0  0  0  0  0  0
   60.6270   33.3710   45.9510 O   0  0  0  0  0  0  0  0  0  0  0  0
   59.5170   32.9980   46.5640 C   0  0  0  0  0  0  0  0  0  0  0  0
   58.2290   32.8600   45.8580 C   0  0  0  0  0  0  0  0  0  0  0  0
   57.3820   33.7950   45.8920 O   0  0  0  0  0  0  0  0  0  0  0  0
   57.9450   31.6620   45.1200 N   0  0  0  0  0  0  0  0  0  0  0  0
   56.6440   31.4120   44.5010 C   0  0  0  0  0  0  0  0  0  0  0  0
   56.3510   29.9430   44.4740 C   0  0  0  0  0  0  0  0  0  0  0  0
   55.1610   29.5420   44.5760 O   0  0  0  0  0  0  0  0  0  0  0  0
   57.4310   29.0120   44.3350 N   0  0  0  0  0  0  0  0  0  0  0  0
   57.9050   28.0940   45.3290 C   0  0  0  0  0  0  0  0  0  0  0  0
   58.8490   28.4680   46.3000 C   0  0  0  0  0  0  0  0  0  0  0  0
   59.2330   27.5610   47.2940 C   0  0  0  0  0  0  0  0  0  0  0  0
   58.6680   26.2840   47.3340 C   0  0  0  0  0  0  0  0  0  0  0  0
   57.7210   25.9020   46.3730 C   0  0  0  0  0  0  0  0  0  0  0  0
   56.9880   24.2980   46.4320 S   0  0  0  0  0  0  0  0  0  0  0  0
   57.3990   23.6090   47.7050 O   0  0  0  0  0  0  0  0  0  0  0  0
   55.4910   24.4440   46.4340 O   0  0  0  0  0  0  0  0  0  0  0  0
   57.4810   23.3520   45.0470 N   0  0  0  0  0  0  0  0  0  0  0  0
   57.0420   21.9520   45.2090 C   0  0  0  0  0  0  0  0  0  0  0  0
   56.9510   21.2450   43.8470 C   0  0  0  0  0  0  0  0  0  0  0  0
   56.0360   21.8470   42.9390 O   0  0  0  0  0  0  0  0  0  0  0  0
   55.7810   23.2190   43.2100 C   0  0  0  0  0  0  0  0  0  0  0  0
   56.9990   23.9630   43.7880 C   0  0  0  0  0  0  0  0  0  0  0  0
   57.3400   26.8140   45.3790 C   0  0  0  0  0  0  0  0  0  0  0  0
   59.7720   32.7850   47.9260 C   0  0  0  0  0  0  0  0  0  0  0  0
   58.8080   32.3870   49.0020 C   0  0  0  0  0  0  0  0  0  0  0  0
   61.1080   33.0970   48.0850 C   0  0  0  0  0  0  0  0  0  0  0  0
   61.9250   33.1270   49.2160 C   0  0  0  0  0  0  0  0  0  0  0  0
   67.1149   33.0264   51.0510 H   0  0  0  0  0  0  0  0  0  0  0  0
   66.9034   32.0602   49.5515 H   0  0  0  0  0  0  0  0  0  0  0  0
   66.5171   33.8144   49.5515 H   0  0  0  0  0  0  0  0  0  0  0  0
   64.7613   31.6239   50.0933 H   0  0  0  0  0  0  0  0  0  0  0  0
   65.0182   32.5023   51.6516 H   0  0  0  0  0  0  0  0  0  0  0  0
   64.8159   34.1144   47.6278 H   0  0  0  0  0  0  0  0  0  0  0  0
   63.2773   34.0582   45.6394 H   0  0  0  0  0  0  0  0  0  0  0  0
   58.6640   30.9070   45.0740 H   0  0  0  0  0  0  0  0  0  0  0  0
   55.8627   31.9267   45.0795 H   0  0  0  0  0  0  0  0  0  0  0  0
   56.6619   31.7909   43.4685 H   0  0  0  0  0  0  0  0  0  0  0  0
   59.2875   29.4766   46.2788 H   0  0  0  0  0  0  0  0  0  0  0  0
   59.9811   27.8541   48.0453 H   0  0  0  0  0  0  0  0  0  0  0  0
   58.9668   25.5763   48.1214 H   0  0  0  0  0  0  0  0  0  0  0  0
   57.7650   21.4190   45.8440 H   0  0  0  0  0  0  0  0  0  0  0  0
   56.0455   21.9476   45.6747 H   0  0  0  0  0  0  0  0  0  0  0  0
   57.9499   21.2528   43.3865 H   0  0  0  0  0  0  0  0  0  0  0  0
   56.5806   20.2278   44.0422 H   0  0  0  0  0  0  0  0  0  0  0  0
   55.4845   23.7108   42.2718 H   0  0  0  0  0  0  0  0  0  0  0  0
   54.9854   23.2586   43.9685 H   0  0  0  0  0  0  0  0  0  0  0  0
   57.8127   23.9389   43.0482 H   0  0  0  0  0  0  0  0  0  0  0  0
   56.6904   24.9952   44.0099 H   0  0  0  0  0  0  0  0  0  0  0  0
   56.5892   26.5209   44.6304 H   0  0  0  0  0  0  0  0  0  0  0  0
   59.2605   32.5738   49.9871 H   0  0  0  0  0  0  0  0  0  0  0  0
   57.8852   32.9777   48.9044 H   0  0  0  0  0  0  0  0  0  0  0  0
   58.5707   31.3173   48.9044 H   0  0  0  0  0  0  0  0  0  0  0  0
   61.5303   32.8560   50.2063 H   0  0  0  0  0  0  0  0  0  0  0  0
  1  2  1  0
  2  3  1  0
  3  4  1  0
  4  5  2  0
  5  6  1  0
  6  7  2  0
  7  8  1  0
  8  9  1  0
  9 10  1  0
 10 11  2  0
 10 12  1  0
 12 13  1  0
 13 14  1  0
 14 15  2  0
 14 16  1  0
 16 17  1  0
 17 18  2  0
 18 19  1  0
 19 20  2  0
 20 21  1  0
 21 22  1  0
 22 23  2  0
 22 24  2  0
 22 25  1  0
 25 26  1  0
 26 27  1  0
 27 28  1  0
 28 29  1  0
 29 30  1  0
 21 31  2  0
  9 32  2  0
 32 33  1  0
 32 34  1  0
 34 35  2  0
 35  4  1  0
 34  7  1  0
 31 17  1  0
 30 25  1  0
  1 36  1  0
  1 37  1  0
  1 38  1  0
  2 39  1  0
  2 40  1  0
  5 41  1  0
  6 42  1  0
 12 43  1  0
 13 44  1  0
 13 45  1  0
 18 46  1  0
 19 47  1  0
 20 48  1  0
 26 49  1  0
 26 50  1  0
 27 51  1  0
 27 52  1  0
 29 53  1  0
 29 54  1  0
 30 55  1  0
 30 56  1  0
 31 57  1  0
 33 58  1  0
 33 59  1  0
 33 60  1  0
 35 61  1  0
M  CHG  1  16  -1
M  END
>  <UniqueID>  (73) 
67

>  <SMILES>  (73) 
CCOc1ccc2oc(C(=O)NCC(=O)[N-]c3cccc(S(=O)(=O)N4CCOCC4)c3)c(C)c2c1

>  <Energy>  (73) 
108.36934311481694

>  <Genealogy>  (73) 
CCOc1ccc2oc(C(=O)NCC(=O)[N-]c3cccc(S(=O)(=O)N4CCOCC4)c3)c(C)c2c1 (protonated)
CCOc1ccc2oc(C(=O)NCC(=O)[N-]c3cccc(S(=O)(=O)N4CCOCC4)c3)c(C)c2c1 (3D coordinates assigned)
CCOc1ccc2oc(C(=O)NCC(=O)[N-]c3cccc(S(=O)(=O)N4CCOCC4)c3)c(C)c2c1 (nonaromatic ring conformer: 108.36934311481694 kcal/mol)

>  <smiles>  (73) 
CCOc1ccc2oc(C(=O)NCC(=O)Nc3cccc(S(=O)(=O)N4CCOCC4)c3)c(C)c2c1

>  <score_type>  (73) 
oracle

>  <origin>  (73) 
adg

>  <m_score__min__energy>  (73) 
-12.08

>  <m_primary>  (73) 
energy

$$$$
73:0
     RDKit          3D

 50 53  0  0  0  0  0  0  0  0999 V2000
   60.3760   30.0970   45.6510 N   0  0  0  0  0  0  0  0  0  0  0  0
   59.2990   30.4410   45.4050 C   0  0  0  0  0  0  0  0  0  0  0  0
   57.9540   30.8690   45.0900 C   0  0  0  0  0  0  0  0  0  0  0  0
   57.4690   32.0480   45.5290 C   0  0  0  0  0  0  0  0  0  0  0  0
   58.2260   33.3230   45.5700 C   0  0  0  0  0  0  0  0  0  0  0  0
   58.0350   34.4600   44.8060 C   0  0  0  0  0  0  0  0  0  0  0  0
   58.9620   35.3780   45.1330 N   0  0  0  0  0  0  0  0  0  0  0  0
   59.7370   34.8800   46.0840 N   0  0  0  0  0  0  0  0  0  0  0  0
   59.3020   33.6420   46.3860 C   0  0  0  0  0  0  0  0  0  0  0  0
   59.9480   32.7900   47.4020 C   0  0  0  0  0  0  0  0  0  0  0  0
   59.1930   32.1610   48.4020 C   0  0  0  0  0  0  0  0  0  0  0  0
   59.8210   31.3700   49.3690 C   0  0  0  0  0  0  0  0  0  0  0  0
   61.2160   31.2220   49.3660 C   0  0  0  0  0  0  0  0  0  0  0  0
   61.8710   30.3700   50.3790 C   0  0  0  0  0  0  0  0  0  0  0  0
   62.7940   30.8640   51.0840 O   0  0  0  0  0  0  0  0  0  0  0  0
   61.4880   28.9970   50.5730 N   0  0  0  0  0  0  0  0  0  0  0  0
   60.9530   28.1500   49.5190 C   0  0  0  0  0  0  0  0  0  0  0  0
   60.7820   26.7720   50.1430 C   0  0  0  0  0  0  0  0  0  0  0  0
   61.6230   26.7790   51.4170 C   0  0  0  0  0  0  0  0  0  0  0  0
   61.8450   28.2460   51.7660 C   0  0  0  0  0  0  0  0  0  0  0  0
   61.9710   31.8550   48.3670 C   0  0  0  0  0  0  0  0  0  0  0  0
   61.3420   32.6450   47.4000 C   0  0  0  0  0  0  0  0  0  0  0  0
   57.0680   29.9220   44.3630 C   0  0  0  0  0  0  0  0  0  0  0  0
   56.8740   30.0710   43.1270 O   0  0  0  0  0  0  0  0  0  0  0  0
   56.3680   28.8700   45.0420 N   0  0  0  0  0  0  0  0  0  0  0  0
   56.9530   27.6800   45.5920 C   0  0  0  0  0  0  0  0  0  0  0  0
   58.3460   27.6140   45.7180 C   0  0  0  0  0  0  0  0  0  0  0  0
   58.9560   26.4730   46.2470 C   0  0  0  0  0  0  0  0  0  0  0  0
   60.7040   26.3920   46.3780 Cl  0  0  0  0  0  0  0  0  0  0  0  0
   58.1740   25.3940   46.6690 C   0  0  0  0  0  0  0  0  0  0  0  0
   56.7810   25.4640   46.5770 C   0  0  0  0  0  0  0  0  0  0  0  0
   56.1640   26.6050   46.0530 C   0  0  0  0  0  0  0  0  0  0  0  0
   54.7770   26.6700   46.0220 O   0  0  0  0  0  0  0  0  0  0  0  0
   56.4285   32.0658   45.8853 H   0  0  0  0  0  0  0  0  0  0  0  0
   57.2479   34.5928   44.0492 H   0  0  0  0  0  0  0  0  0  0  0  0
   58.1009   32.2904   48.4260 H   0  0  0  0  0  0  0  0  0  0  0  0
   59.2183   30.8613   50.1358 H   0  0  0  0  0  0  0  0  0  0  0  0
   59.9835   28.5365   49.1717 H   0  0  0  0  0  0  0  0  0  0  0  0
   61.6206   28.1194   48.6453 H   0  0  0  0  0  0  0  0  0  0  0  0
   59.7243   26.5904   50.3844 H   0  0  0  0  0  0  0  0  0  0  0  0
   61.1010   25.9758   49.4543 H   0  0  0  0  0  0  0  0  0  0  0  0
   61.0873   26.2692   52.2314 H   0  0  0  0  0  0  0  0  0  0  0  0
   62.5768   26.2504   51.2729 H   0  0  0  0  0  0  0  0  0  0  0  0
   61.2034   28.5401   52.6097 H   0  0  0  0  0  0  0  0  0  0  0  0
   62.8855   28.4368   52.0675 H   0  0  0  0  0  0  0  0  0  0  0  0
   63.0635   31.7291   48.3445 H   0  0  0  0  0  0  0  0  0  0  0  0
   61.9442   33.1553   46.6339 H   0  0  0  0  0  0  0  0  0  0  0  0
   58.9644   28.4658   45.3985 H   0  0  0  0  0  0  0  0  0  0  0  0
   58.6544   24.4907   47.0731 H   0  0  0  0  0  0  0  0  0  0  0  0
   56.1668   24.6177   46.9183 H   0  0  0  0  0  0  0  0  0  0  0  0
  1  2  3  0
  2  3  1  0
  3  4  2  3
  4  5  1  0
  5  6  1  0
  6  7  2  0
  7  8  1  0
  8  9  1  0
  9 10  1  0
 10 11  2  0
 11 12  1  0
 12 13  2  0
 13 14  1  0
 14 15  2  0
 14 16  1  0
 16 17  1  0
 17 18  1  0
 18 19  1  0
 19 20  1  0
 13 21  1  0
 21 22  2  0
  3 23  1  0
 23 24  2  0
 23 25  1  0
 25 26  1  0
 26 27  2  0
 27 28  1  0
 28 29  1  0
 28 30  2  0
 30 31  1  0
 31 32  2  0
 32 33  1  0
  9  5  2  0
 22 10  1  0
 32 26  1  0
 20 16  1  0
  4 34  1  0
  6 35  1  0
 11 36  1  0
 12 37  1  0
 17 38  1  0
 17 39  1  0
 18 40  1  0
 18 41  1  0
 19 42  1  0
 19 43  1  0
 20 44  1  0
 20 45  1  0
 21 46  1  0
 22 47  1  0
 27 48  1  0
 30 49  1  0
 31 50  1  0
M  CHG  3   8  -1  25  -1  33  -1
M  END
>  <UniqueID>  (74) 
68

>  <SMILES>  (74) 
N#CC(=Cc1cn[n-]c1-c1ccc(C(=O)N2CCCC2)cc1)C(=O)[N-]c1cc(Cl)ccc1[O-]

>  <Energy>  (74) 
105.32518000846245

>  <Genealogy>  (74) 
N#CC(=Cc1cn[n-]c1-c1ccc(C(=O)N2CCCC2)cc1)C(=O)[N-]c1cc(Cl)ccc1[O-] (protonated)
N#CC(=Cc1cn[n-]c1-c1ccc(C(=O)N2CCCC2)cc1)C(=O)[N-]c1cc(Cl)ccc1[O-] (3D coordinates assigned)
N#CC(=Cc1cn[n-]c1-c1ccc(C(=O)N2CCCC2)cc1)C(=O)[N-]c1cc(Cl)ccc1[O-] (nonaromatic ring conformer: 105.32518000846245 kcal/mol)

>  <smiles>  (74) 
N#CC(=Cc1cn[nH]c1-c1ccc(C(=O)N2CCCC2)cc1)C(=O)Nc1cc(Cl)ccc1O

>  <score_type>  (74) 
oracle

>  <origin>  (74) 
adg

>  <m_score__min__energy>  (74) 
-16.27

>  <m_primary>  (74) 
energy

$$$$
74:0
     RDKit          3D

 46 49  0  0  0  0  0  0  0  0999 V2000
   62.6660   27.8510   52.2200 N   0  0  0  0  0  0  0  0  0  0  0  0
   61.5150   26.7620   51.5270 S   0  0  0  0  0  0  0  0  0  0  0  0
   60.4400   26.4570   52.5320 O   0  0  0  0  0  0  0  0  0  0  0  0
   62.2150   25.4780   51.1770 O   0  0  0  0  0  0  0  0  0  0  0  0
   60.8020   27.4900   50.0760 C   0  0  0  0  0  0  0  0  0  0  0  0
   60.7560   26.7200   48.9020 C   0  0  0  0  0  0  0  0  0  0  0  0
   60.1870   27.2270   47.7340 C   0  0  0  0  0  0  0  0  0  0  0  0
   59.6460   28.5090   47.7220 C   0  0  0  0  0  0  0  0  0  0  0  0
   59.0690   28.9990   46.5920 N   0  0  0  0  0  0  0  0  0  0  0  0
   58.5260   30.2440   46.5580 C   0  0  0  0  0  0  0  0  0  0  0  0
   57.9980   30.6690   45.4970 O   0  0  0  0  0  0  0  0  0  0  0  0
   58.5590   31.0380   47.7110 C   0  0  0  0  0  0  0  0  0  0  0  0
   58.0600   32.1950   47.7100 O   0  0  0  0  0  0  0  0  0  0  0  0
   59.1370   30.5530   48.8400 N   0  0  0  0  0  0  0  0  0  0  0  0
   59.6880   29.3080   48.8840 C   0  0  0  0  0  0  0  0  0  0  0  0
   60.2880   28.8160   50.0670 C   0  0  0  0  0  0  0  0  0  0  0  0
   60.3020   29.6830   51.3100 C   0  0  0  0  0  0  0  0  0  0  0  0
   58.9670   30.2140   51.5820 N   0  0  0  0  0  0  0  0  0  0  0  0
   58.1260   29.6370   52.5910 C   0  0  0  0  0  0  0  0  0  0  0  0
   58.6080   28.7920   53.3950 O   0  0  0  0  0  0  0  0  0  0  0  0
   56.7010   30.0280   52.7160 C   0  0  0  0  0  0  0  0  0  0  0  0
   55.9620   29.6430   53.8490 C   0  0  0  0  0  0  0  0  0  0  0  0
   54.6160   29.9970   53.9730 C   0  0  0  0  0  0  0  0  0  0  0  0
   53.9830   30.7450   52.9680 C   0  0  0  0  0  0  0  0  0  0  0  0
   52.5250   31.0920   53.0850 C   0  0  0  0  0  0  0  0  0  0  0  0
   51.8960   31.1370   51.7270 C   0  0  0  0  0  0  0  0  0  0  0  0
   52.1850   30.0320   50.4870 S   0  0  0  0  0  0  0  0  0  0  0  0
   51.2100   30.8710   49.4040 C   0  0  0  0  0  0  0  0  0  0  0  0
   51.0020   30.5140   48.2150 O   0  0  0  0  0  0  0  0  0  0  0  0
   50.6700   31.9840   49.9420 N   0  0  0  0  0  0  0  0  0  0  0  0
   51.0580   32.1360   51.2360 C   0  0  0  0  0  0  0  0  0  0  0  0
   50.6430   33.2200   51.9990 O   0  0  0  0  0  0  0  0  0  0  0  0
   54.7100   31.1100   51.8250 C   0  0  0  0  0  0  0  0  0  0  0  0
   56.0560   30.7560   51.6990 C   0  0  0  0  0  0  0  0  0  0  0  0
   62.1530   28.4270   52.9260 H   0  0  0  0  0  0  0  0  0  0  0  0
   61.1747   25.7028   48.9039 H   0  0  0  0  0  0  0  0  0  0  0  0
   60.1659   26.6130   46.8216 H   0  0  0  0  0  0  0  0  0  0  0  0
   60.6328   29.0794   52.1681 H   0  0  0  0  0  0  0  0  0  0  0  0
   60.9921   30.5242   51.1480 H   0  0  0  0  0  0  0  0  0  0  0  0
   58.6350   31.0540   51.0550 H   0  0  0  0  0  0  0  0  0  0  0  0
   56.4477   29.0583   54.6442 H   0  0  0  0  0  0  0  0  0  0  0  0
   54.0491   29.6877   54.8635 H   0  0  0  0  0  0  0  0  0  0  0  0
   52.0177   30.3307   53.6958 H   0  0  0  0  0  0  0  0  0  0  0  0
   52.4270   32.0793   53.5600 H   0  0  0  0  0  0  0  0  0  0  0  0
   54.2172   31.6786   51.0226 H   0  0  0  0  0  0  0  0  0  0  0  0
   56.6154   31.0486   50.7982 H   0  0  0  0  0  0  0  0  0  0  0  0
  1  2  1  0
  2  3  2  0
  2  4  2  0
  2  5  1  0
  5  6  2  0
  6  7  1  0
  7  8  2  0
  8  9  1  0
  9 10  1  0
 10 11  2  0
 10 12  1  0
 12 13  2  0
 12 14  1  0
 14 15  1  0
 15 16  2  0
 16 17  1  0
 17 18  1  0
 18 19  1  0
 19 20  2  0
 19 21  1  0
 21 22  2  0
 22 23  1  0
 23 24  2  0
 24 25  1  0
 25 26  1  0
 26 27  1  0
 27 28  1  0
 28 29  2  0
 28 30  1  0
 30 31  1  0
 31 32  1  0
 24 33  1  0
 33 34  2  0
 16  5  1  0
 34 21  1  0
 15  8  1  0
 31 26  2  0
  1 35  1  0
  6 36  1  0
  7 37  1  0
 17 38  1  0
 17 39  1  0
 18 40  1  0
 22 41  1  0
 23 42  1  0
 25 43  1  0
 25 44  1  0
 33 45  1  0
 34 46  1  0
M  CHG  5   1  -1   9  -1  14  -1  30  -1  32  -1
M  END
>  <UniqueID>  (75) 
69

>  <SMILES>  (75) 
[NH-]S(=O)(=O)c1ccc2[n-]c(=O)c(=O)[n-]c2c1CNC(=O)c1ccc(Cc2sc(=O)[n-]c2[O-])cc1

>  <Energy>  (75) 
87.8935311185055

>  <Genealogy>  (75) 
[NH-]S(=O)(=O)c1ccc2[n-]c(=O)c(=O)[n-]c2c1CNC(=O)c1ccc(Cc2sc(=O)[n-]c2[O-])cc1 (protonated)
[NH-]S(=O)(=O)c1ccc2[n-]c(=O)c(=O)[n-]c2c1CNC(=O)c1ccc(Cc2sc(=O)[n-]c2[O-])cc1 (3D coordinates assigned)
[NH-]S(=O)(=O)c1ccc2[n-]c(=O)c(=O)[n-]c2c1CNC(=O)c1ccc(Cc2sc(=O)[n-]c2[O-])cc1 (optimized conformer: 87.8935311185055 kcal/mol)

>  <smiles>  (75) 
NS(=O)(=O)c1ccc2[nH]c(=O)c(=O)[nH]c2c1CNC(=O)c1ccc(Cc2sc(=O)[nH]c2O)cc1

>  <score_type>  (75) 
oracle

>  <origin>  (75) 
adg

>  <m_score__min__energy>  (75) 
-17.34

>  <m_primary>  (75) 
energy

$$$$
75:0
     RDKit          3D

 54 57  0  0  0  0  0  0  0  0999 V2000
   55.8870   27.5530   45.6240 N   0  0  0  0  0  0  0  0  0  0  0  0
   57.2840   27.7490   45.3630 C   0  0  0  0  0  0  0  0  0  0  0  0
   58.1910   26.7590   45.7720 C   0  0  0  0  0  0  0  0  0  0  0  0
   59.5590   26.9110   45.5470 C   0  0  0  0  0  0  0  0  0  0  0  0
   60.0380   28.0540   44.9080 C   0  0  0  0  0  0  0  0  0  0  0  0
   59.1490   29.0460   44.4890 C   0  0  0  0  0  0  0  0  0  0  0  0
   57.7690   28.9060   44.7050 C   0  0  0  0  0  0  0  0  0  0  0  0
   56.6770   30.1620   44.1040 S   0  0  0  0  0  0  0  0  0  0  0  0
   57.1660   30.6330   42.7640 O   0  0  0  0  0  0  0  0  0  0  0  0
   55.2780   29.6350   43.9480 O   0  0  0  0  0  0  0  0  0  0  0  0
   56.6600   31.4980   45.2100 N   0  0  0  0  0  0  0  0  0  0  0  0
   57.7090   32.4640   45.3760 C   0  0  0  0  0  0  0  0  0  0  0  0
   57.6420   33.7100   44.7240 C   0  0  0  0  0  0  0  0  0  0  0  0
   58.6630   34.6490   44.8730 C   0  0  0  0  0  0  0  0  0  0  0  0
   59.7630   34.3610   45.6740 C   0  0  0  0  0  0  0  0  0  0  0  0
   59.8520   33.1320   46.3260 C   0  0  0  0  0  0  0  0  0  0  0  0
   58.8340   32.1650   46.1910 C   0  0  0  0  0  0  0  0  0  0  0  0
   58.9890   30.8620   46.9030 C   0  0  0  0  0  0  0  0  0  0  0  0
   57.9660   30.2150   47.2550 O   0  0  0  0  0  0  0  0  0  0  0  0
   60.2830   30.3120   47.1700 N   0  0  0  0  0  0  0  0  0  0  0  0
   60.6990   29.8230   48.4500 C   0  0  0  0  0  0  0  0  0  0  0  0
   60.2270   28.5730   48.8700 C   0  0  0  0  0  0  0  0  0  0  0  0
   60.5920   28.0610   50.1170 C   0  0  0  0  0  0  0  0  0  0  0  0
   61.4440   28.7890   50.9480 C   0  0  0  0  0  0  0  0  0  0  0  0
   61.9490   30.0200   50.5260 C   0  0  0  0  0  0  0  0  0  0  0  0
   61.5940   30.5490   49.2740 C   0  0  0  0  0  0  0  0  0  0  0  0
   62.2210   31.7630   48.8240 N   0  0  0  0  0  0  0  0  0  0  0  0
   62.0410   32.9860   49.6260 C   0  0  0  0  0  0  0  0  0  0  0  0
   62.5430   34.2430   48.9090 C   0  0  0  0  0  0  0  0  0  0  0  0
   63.7100   33.9680   48.1630 O   0  0  0  0  0  0  0  0  0  0  0  0
   63.3660   33.1330   47.0800 C   0  0  0  0  0  0  0  0  0  0  0  0
   62.9890   31.7330   47.5680 C   0  0  0  0  0  0  0  0  0  0  0  0
   55.1410   27.9200   44.9950 H   0  0  0  0  0  0  0  0  0  0  0  0
   55.5760   27.0560   46.4890 H   0  0  0  0  0  0  0  0  0  0  0  0
   57.8192   25.8542   46.2750 H   0  0  0  0  0  0  0  0  0  0  0  0
   60.2602   26.1290   45.8737 H   0  0  0  0  0  0  0  0  0  0  0  0
   61.1174   28.1744   44.7338 H   0  0  0  0  0  0  0  0  0  0  0  0
   59.5335   29.9451   43.9852 H   0  0  0  0  0  0  0  0  0  0  0  0
   56.7747   33.9459   44.0898 H   0  0  0  0  0  0  0  0  0  0  0  0
   58.5980   35.6180   44.3565 H   0  0  0  0  0  0  0  0  0  0  0  0
   60.5646   35.1047   45.7933 H   0  0  0  0  0  0  0  0  0  0  0  0
   60.7280   32.9134   46.9543 H   0  0  0  0  0  0  0  0  0  0  0  0
   59.5642   27.9905   48.2131 H   0  0  0  0  0  0  0  0  0  0  0  0
   60.2077   27.0836   50.4441 H   0  0  0  0  0  0  0  0  0  0  0  0
   61.7181   28.3925   51.9368 H   0  0  0  0  0  0  0  0  0  0  0  0
   62.6319   30.5815   51.1805 H   0  0  0  0  0  0  0  0  0  0  0  0
   60.9699   33.1094   49.8439 H   0  0  0  0  0  0  0  0  0  0  0  0
   62.6328   32.8698   50.5459 H   0  0  0  0  0  0  0  0  0  0  0  0
   61.7586   34.6066   48.2289 H   0  0  0  0  0  0  0  0  0  0  0  0
   62.7818   35.0058   49.6647 H   0  0  0  0  0  0  0  0  0  0  0  0
   62.5100   33.5707   46.5456 H   0  0  0  0  0  0  0  0  0  0  0  0
   64.2350   33.0496   46.4108 H   0  0  0  0  0  0  0  0  0  0  0  0
   62.3812   31.2412   46.7942 H   0  0  0  0  0  0  0  0  0  0  0  0
   63.9219   31.1824   47.7590 H   0  0  0  0  0  0  0  0  0  0  0  0
  1  2  1  0
  2  3  2  0
  3  4  1  0
  4  5  2  0
  5  6  1  0
  6  7  2  0
  7  8  1  0
  8  9  2  0
  8 10  2  0
  8 11  1  0
 11 12  1  0
 12 13  2  0
 13 14  1  0
 14 15  2  0
 15 16  1  0
 16 17  2  0
 17 18  1  0
 18 19  2  0
 18 20  1  0
 20 21  1  0
 21 22  2  0
 22 23  1  0
 23 24  2  0
 24 25  1  0
 25 26  2  0
 26 27  1  0
 27 28  1  0
 28 29  1  0
 29 30  1  0
 30 31  1  0
 31 32  1  0
  7  2  1  0
 17 12  1  0
 26 21  1  0
 32 27  1  0
  1 33  1  0
  1 34  1  0
  3 35  1  0
  4 36  1  0
  5 37  1  0
  6 38  1  0
 13 39  1  0
 14 40  1  0
 15 41  1  0
 16 42  1  0
 22 43  1  0
 23 44  1  0
 24 45  1  0
 25 46  1  0
 28 47  1  0
 28 48  1  0
 29 49  1  0
 29 50  1  0
 31 51  1  0
 31 52  1  0
 32 53  1  0
 32 54  1  0
M  CHG  2  11  -1  20  -1
M  END
>  <UniqueID>  (76) 
70

>  <SMILES>  (76) 
Nc1ccccc1S(=O)(=O)[N-]c1ccccc1C(=O)[N-]c1ccccc1N1CCOCC1

>  <Energy>  (76) 
79.10363783298425

>  <Genealogy>  (76) 
Nc1ccccc1S(=O)(=O)[N-]c1ccccc1C(=O)[N-]c1ccccc1N1CCOCC1 (protonated)
Nc1ccccc1S(=O)(=O)[N-]c1ccccc1C(=O)[N-]c1ccccc1N1CCOCC1 (3D coordinates assigned)
Nc1ccccc1S(=O)(=O)[N-]c1ccccc1C(=O)[N-]c1ccccc1N1CCOCC1 (nonaromatic ring conformer: 79.10363783298425 kcal/mol)

>  <smiles>  (76) 
Nc1ccccc1S(=O)(=O)Nc1ccccc1C(=O)Nc1ccccc1N1CCOCC1

>  <score_type>  (76) 
oracle

>  <origin>  (76) 
adg

>  <m_score__min__energy>  (76) 
-12.949999999999999

>  <m_primary>  (76) 
energy

$$$$
76:0
     RDKit          3D

 53 55  0  0  0  0  0  0  0  0999 V2000
   54.4560   29.3970   45.0420 H   0  0  0  0  0  0  0  0  0  0  0  0
   55.4710   29.2160   44.8790 N   0  0  0  0  0  0  0  0  0  0  0  0
   56.2750   30.1410   44.1460 C   0  0  0  0  0  0  0  0  0  0  0  0
   56.2170   30.1330   42.8850 O   0  0  0  0  0  0  0  0  0  0  0  0
   57.1590   31.1130   44.8430 C   0  0  0  0  0  0  0  0  0  0  0  0
   58.5100   30.8270   45.1410 C   0  0  0  0  0  0  0  0  0  0  0  0
   59.0890   29.6100   44.7600 O   0  0  0  0  0  0  0  0  0  0  0  0
   58.5210   28.3610   45.0380 C   0  0  0  0  0  0  0  0  0  0  0  0
   58.4610   27.8200   46.3370 C   0  0  0  0  0  0  0  0  0  0  0  0
   59.0710   28.4970   47.4940 C   0  0  0  0  0  0  0  0  0  0  0  0
   59.0933   29.5960   47.5343 H   0  0  0  0  0  0  0  0  0  0  0  0
   59.5670   27.8270   48.4370 O   0  0  0  0  0  0  0  0  0  0  0  0
   57.8460   26.6240   46.5270 N   0  0  0  0  0  0  0  0  0  0  0  0
   57.3060   25.9130   45.4990 C   0  0  0  0  0  0  0  0  0  0  0  0
   56.6440   24.6570   45.7680 N   0  0  0  0  0  0  0  0  0  0  0  0
   56.2670   24.2740   47.1340 C   0  0  0  0  0  0  0  0  0  0  0  0
   56.8498   24.8661   47.8549 H   0  0  0  0  0  0  0  0  0  0  0  0
   55.1942   24.4645   47.2854 H   0  0  0  0  0  0  0  0  0  0  0  0
   56.4744   23.2044   47.2854 H   0  0  0  0  0  0  0  0  0  0  0  0
   56.3450   23.7540   44.6510 C   0  0  0  0  0  0  0  0  0  0  0  0
   56.0221   22.7788   45.0442 H   0  0  0  0  0  0  0  0  0  0  0  0
   55.5418   24.1854   44.0356 H   0  0  0  0  0  0  0  0  0  0  0  0
   57.2470   23.6208   44.0356 H   0  0  0  0  0  0  0  0  0  0  0  0
   57.4020   26.4090   44.2280 N   0  0  0  0  0  0  0  0  0  0  0  0
   57.0150   25.8890   43.4110 H   0  0  0  0  0  0  0  0  0  0  0  0
   57.9980   27.6070   43.9880 C   0  0  0  0  0  0  0  0  0  0  0  0
   58.0683   27.9846   42.9572 H   0  0  0  0  0  0  0  0  0  0  0  0
   59.2660   31.7490   45.8010 N   0  0  0  0  0  0  0  0  0  0  0  0
   58.7860   32.9650   46.1690 C   0  0  0  0  0  0  0  0  0  0  0  0
   59.5480   33.8370   46.7650 N   0  0  0  0  0  0  0  0  0  0  0  0
   60.9830   33.7930   46.8380 C   0  0  0  0  0  0  0  0  0  0  0  0
   61.6830   33.8380   45.7900 O   0  0  0  0  0  0  0  0  0  0  0  0
   61.6490   33.6190   48.1480 C   0  0  0  0  0  0  0  0  0  0  0  0
   60.9190   33.9270   49.3070 C   0  0  0  0  0  0  0  0  0  0  0  0
   59.8721   34.2533   49.2199 H   0  0  0  0  0  0  0  0  0  0  0  0
   61.5050   33.8240   50.5640 C   0  0  0  0  0  0  0  0  0  0  0  0
   60.9176   34.0584   51.4640 H   0  0  0  0  0  0  0  0  0  0  0  0
   62.8330   33.4250   50.6860 C   0  0  0  0  0  0  0  0  0  0  0  0
   63.2930   33.3622   51.6832 H   0  0  0  0  0  0  0  0  0  0  0  0
   63.5910   33.1020   49.5500 C   0  0  0  0  0  0  0  0  0  0  0  0
   65.0220   32.6670   49.7390 C   0  0  0  0  0  0  0  0  0  0  0  0
   65.2456   32.5990   50.8139 H   0  0  0  0  0  0  0  0  0  0  0  0
   65.1710   31.6830   49.2705 H   0  0  0  0  0  0  0  0  0  0  0  0
   65.6935   33.4016   49.2705 H   0  0  0  0  0  0  0  0  0  0  0  0
   62.9870   33.1500   48.2650 C   0  0  0  0  0  0  0  0  0  0  0  0
   63.7640   32.7180   47.0380 C   0  0  0  0  0  0  0  0  0  0  0  0
   64.6860   32.2054   47.3496 H   0  0  0  0  0  0  0  0  0  0  0  0
   63.1486   32.0325   46.4368 H   0  0  0  0  0  0  0  0  0  0  0  0
   64.0215   33.6025   46.4368 H   0  0  0  0  0  0  0  0  0  0  0  0
   57.4650   33.3000   45.8680 C   0  0  0  0  0  0  0  0  0  0  0  0
   57.0670   34.2876   46.1444 H   0  0  0  0  0  0  0  0  0  0  0  0
   56.6530   32.3730   45.2140 C   0  0  0  0  0  0  0  0  0  0  0  0
   55.6078   32.6291   44.9862 H   0  0  0  0  0  0  0  0  0  0  0  0
  1  2  1  0
  2  3  1  0
  3  4  2  0
  3  5  1  0
  5  6  2  0
  6  7  1  0
  7  8  1  0
  8  9  2  0
  9 10  1  0
 10 11  1  0
 10 12  2  0
  9 13  1  0
 13 14  2  0
 14 15  1  0
 15 16  1  0
 16 17  1  0
 16 18  1  0
 16 19  1  0
 15 20  1  0
 20 21  1  0
 20 22  1  0
 20 23  1  0
 14 24  1  0
 24 25  1  0
 24 26  2  0
 26 27  1  0
  6 28  1  0
 28 29  1  0
 29 30  2  0
 30 31  1  0
 31 32  2  0
 31 33  1  0
 33 34  2  0
 34 35  1  0
 34 36  1  0
 36 37  1  0
 36 38  2  0
 38 39  1  0
 38 40  1  0
 40 41  1  0
 41 42  1  0
 41 43  1  0
 41 44  1  0
 40 45  2  0
 45 46  1  0
 46 47  1  0
 46 48  1  0
 46 49  1  0
 29 50  1  0
 50 51  1  0
 50 52  2  0
 52 53  1  0
 52  5  1  0
 26  8  1  0
 45 33  1  0
M  CHG  3   2  -1  24   1  28  -1
M  END
>  <UniqueID>  (77) 
71

>  <SMILES>  (77) 
Cc1cccc(C(=O)/N=c2/ccc(C([NH-])=O)c(Oc3c[nH+]c(N(C)C)nc3C=O)[n-]2)c1C

>  <Energy>  (77) 
72.49060003075716

>  <Genealogy>  (77) 
Cc1cccc(C(=O)N=c2ccc(C([NH-])=O)c(Oc3c[nH+]c(N(C)C)nc3C=O)[n-]2)c1C (protonated)
Cc1cccc(C(=O)/N=c2/ccc(C([NH-])=O)c(Oc3c[nH+]c(N(C)C)nc3C=O)[n-]2)c1C (cis-trans isomerization)
Cc1cccc(C(=O)/N=c2/ccc(C([NH-])=O)c(Oc3c[nH+]c(N(C)C)nc3C=O)[n-]2)c1C (3D coordinates assigned)
Cc1cccc(C(=O)/N=c2/ccc(C([NH-])=O)c(Oc3c[nH+]c(N(C)C)nc3C=O)[n-]2)c1C (optimized conformer: 72.49060003075716 kcal/mol)

>  <smiles>  (77) 
Cc1cccc(C(=O)N=c2ccc(C(N)=O)c(Oc3cnc(N(C)C)nc3C=O)[nH]2)c1C

>  <score_type>  (77) 
oracle

>  <origin>  (77) 
adg

>  <m_score__min__energy>  (77) 
-10.6

>  <m_primary>  (77) 
energy

$$$$
77:0
     RDKit          3D

 43 45  0  0  0  0  0  0  0  0999 V2000
   55.8730   22.4390   42.2560 N   0  0  0  0  0  0  0  0  0  0  0  0
   56.8550   21.8580   43.5560 S   0  0  0  0  0  0  0  0  0  0  0  0
   56.0660   20.8840   44.3840 O   0  0  0  0  0  0  0  0  0  0  0  0
   58.0570   21.1500   42.9960 O   0  0  0  0  0  0  0  0  0  0  0  0
   57.3680   23.2110   44.5580 C   0  0  0  0  0  0  0  0  0  0  0  0
   58.6430   23.2160   45.1390 C   0  0  0  0  0  0  0  0  0  0  0  0
   59.0500   24.2950   45.9290 C   0  0  0  0  0  0  0  0  0  0  0  0
   58.1920   25.3800   46.1310 C   0  0  0  0  0  0  0  0  0  0  0  0
   56.9230   25.4000   45.5310 C   0  0  0  0  0  0  0  0  0  0  0  0
   56.0050   26.5350   45.7410 C   0  0  0  0  0  0  0  0  0  0  0  0
   54.7960   26.3020   46.0070 O   0  0  0  0  0  0  0  0  0  0  0  0
   56.4320   27.8970   45.6140 N   0  0  0  0  0  0  0  0  0  0  0  0
   57.0840   28.4570   44.4360 C   0  0  0  0  0  0  0  0  0  0  0  0
   57.4430   29.8900   44.7030 C   0  0  0  0  0  0  0  0  0  0  0  0
   57.8530   30.2900   45.9850 C   0  0  0  0  0  0  0  0  0  0  0  0
   58.1560   31.6300   46.2430 C   0  0  0  0  0  0  0  0  0  0  0  0
   58.0290   32.5920   45.2290 C   0  0  0  0  0  0  0  0  0  0  0  0
   58.3960   34.0260   45.4960 C   0  0  0  0  0  0  0  0  0  0  0  0
   59.4290   34.0920   46.5250 N   0  0  0  0  0  0  0  0  0  0  0  0
   59.2540   34.3580   47.8290 C   0  0  0  0  0  0  0  0  0  0  0  0
   60.4750   34.2350   48.4510 C   0  0  0  0  0  0  0  0  0  0  0  0
   61.4110   33.8800   47.5460 N   0  0  0  0  0  0  0  0  0  0  0  0
   60.7350   33.7960   46.3810 C   0  0  0  0  0  0  0  0  0  0  0  0
   57.6190   32.1930   43.9480 C   0  0  0  0  0  0  0  0  0  0  0  0
   57.3160   30.8530   43.6900 C   0  0  0  0  0  0  0  0  0  0  0  0
   56.5110   24.3020   44.7570 C   0  0  0  0  0  0  0  0  0  0  0  0
   56.0410   23.4670   42.1840 H   0  0  0  0  0  0  0  0  0  0  0  0
   56.2450   22.0100   41.3790 H   0  0  0  0  0  0  0  0  0  0  0  0
   59.3251   22.3691   44.9731 H   0  0  0  0  0  0  0  0  0  0  0  0
   60.0475   24.2903   46.3927 H   0  0  0  0  0  0  0  0  0  0  0  0
   58.5125   26.2216   46.7627 H   0  0  0  0  0  0  0  0  0  0  0  0
   57.9967   27.8846   44.2140 H   0  0  0  0  0  0  0  0  0  0  0  0
   56.4013   28.4019   43.5753 H   0  0  0  0  0  0  0  0  0  0  0  0
   57.9362   29.5452   46.7902 H   0  0  0  0  0  0  0  0  0  0  0  0
   58.4954   31.9317   47.2449 H   0  0  0  0  0  0  0  0  0  0  0  0
   58.7740   34.4841   44.5701 H   0  0  0  0  0  0  0  0  0  0  0  0
   57.5045   34.5690   45.8430 H   0  0  0  0  0  0  0  0  0  0  0  0
   58.3038   34.6265   48.3138 H   0  0  0  0  0  0  0  0  0  0  0  0
   60.6601   34.4007   49.5226 H   0  0  0  0  0  0  0  0  0  0  0  0
   61.1980   33.5175   45.4228 H   0  0  0  0  0  0  0  0  0  0  0  0
   57.5356   32.9380   43.1430 H   0  0  0  0  0  0  0  0  0  0  0  0
   56.9763   30.5518   42.6880 H   0  0  0  0  0  0  0  0  0  0  0  0
   55.5086   24.2987   44.3040 H   0  0  0  0  0  0  0  0  0  0  0  0
  1  2  1  0
  2  3  2  0
  2  4  2  0
  2  5  1  0
  5  6  2  0
  6  7  1  0
  7  8  2  0
  8  9  1  0
  9 10  1  0
 10 11  2  0
 10 12  1  0
 12 13  1  0
 13 14  1  0
 14 15  2  0
 15 16  1  0
 16 17  2  0
 17 18  1  0
 18 19  1  0
 19 20  1  0
 20 21  2  0
 21 22  1  0
 22 23  2  0
 17 24  1  0
 24 25  2  0
  9 26  2  0
 26  5  1  0
 25 14  1  0
 23 19  1  0
  1 27  1  0
  1 28  1  0
  6 29  1  0
  7 30  1  0
  8 31  1  0
 13 32  1  0
 13 33  1  0
 15 34  1  0
 16 35  1  0
 18 36  1  0
 18 37  1  0
 20 38  1  0
 21 39  1  0
 23 40  1  0
 24 41  1  0
 25 42  1  0
 26 43  1  0
M  CHG  1  12  -1
M  END
>  <UniqueID>  (78) 
72

>  <SMILES>  (78) 
NS(=O)(=O)c1cccc(C(=O)[N-]Cc2ccc(Cn3ccnc3)cc2)c1

>  <Energy>  (78) 
74.46211560129333

>  <Genealogy>  (78) 
NS(=O)(=O)c1cccc(C(=O)[N-]Cc2ccc(Cn3ccnc3)cc2)c1 (protonated)
NS(=O)(=O)c1cccc(C(=O)[N-]Cc2ccc(Cn3ccnc3)cc2)c1 (3D coordinates assigned)
NS(=O)(=O)c1cccc(C(=O)[N-]Cc2ccc(Cn3ccnc3)cc2)c1 (optimized conformer: 74.46211560129333 kcal/mol)

>  <smiles>  (78) 
NS(=O)(=O)c1cccc(C(=O)NCc2ccc(Cn3ccnc3)cc2)c1

>  <score_type>  (78) 
oracle

>  <origin>  (78) 
adg

>  <m_score__min__energy>  (78) 
-11.210000000000001

>  <m_primary>  (78) 
energy

$$$$
78:0
     RDKit          3D

 44 45  0  0  0  0  0  0  0  0999 V2000
   57.6000   22.4520   44.3970 C   0  0  0  0  0  0  0  0  0  0  0  0
   56.6280   23.5800   44.7170 C   0  0  0  0  0  0  0  0  0  0  0  0
   56.4000   23.7400   46.4820 S   0  0  0  0  0  0  0  0  0  0  0  0
   57.0470   22.5690   47.1690 O   0  0  0  0  0  0  0  0  0  0  0  0
   54.9350   23.7310   46.8190 O   0  0  0  0  0  0  0  0  0  0  0  0
   57.1410   25.1990   47.0640 N   0  0  0  0  0  0  0  0  0  0  0  0
   57.4870   26.3600   46.2950 C   0  0  0  0  0  0  0  0  0  0  0  0
   58.8370   26.5470   45.9740 C   0  0  0  0  0  0  0  0  0  0  0  0
   59.2470   27.6580   45.2340 C   0  0  0  0  0  0  0  0  0  0  0  0
   58.3100   28.5980   44.8080 C   0  0  0  0  0  0  0  0  0  0  0  0
   56.9530   28.4320   45.1130 C   0  0  0  0  0  0  0  0  0  0  0  0
   55.9810   29.4420   44.6520 C   0  0  0  0  0  0  0  0  0  0  0  0
   54.8760   29.0590   44.1870 O   0  0  0  0  0  0  0  0  0  0  0  0
   56.2710   30.8460   44.6880 N   0  0  0  0  0  0  0  0  0  0  0  0
   57.4660   31.4830   44.1380 C   0  0  0  0  0  0  0  0  0  0  0  0
   58.3780   32.0080   45.2480 C   0  0  0  0  0  0  0  0  0  0  0  0
   57.7340   33.1570   45.9300 N   0  0  0  0  0  0  0  0  0  0  0  0
   58.2380   33.3600   47.3020 C   0  0  0  0  0  0  0  0  0  0  0  0
   59.6270   34.0390   47.3160 C   0  0  0  0  0  0  0  0  0  0  0  0
   60.1310   34.2420   46.0100 O   0  0  0  0  0  0  0  0  0  0  0  0
   59.2370   35.0550   45.2760 C   0  0  0  0  0  0  0  0  0  0  0  0
   57.8370   34.4110   45.1550 C   0  0  0  0  0  0  0  0  0  0  0  0
   56.5320   27.2890   45.8210 C   0  0  0  0  0  0  0  0  0  0  0  0
   55.1710   27.0640   45.9950 O   0  0  0  0  0  0  0  0  0  0  0  0
   57.9762   22.0154   45.3339 H   0  0  0  0  0  0  0  0  0  0  0  0
   57.0825   21.6767   43.8130 H   0  0  0  0  0  0  0  0  0  0  0  0
   58.4433   22.8493   43.8130 H   0  0  0  0  0  0  0  0  0  0  0  0
   57.0273   24.5241   44.3180 H   0  0  0  0  0  0  0  0  0  0  0  0
   55.6564   23.3496   44.2556 H   0  0  0  0  0  0  0  0  0  0  0  0
   59.5827   25.8107   46.3084 H   0  0  0  0  0  0  0  0  0  0  0  0
   60.3106   27.7915   44.9870 H   0  0  0  0  0  0  0  0  0  0  0  0
   58.6378   29.4743   44.2296 H   0  0  0  0  0  0  0  0  0  0  0  0
   58.0202   30.7466   43.5375 H   0  0  0  0  0  0  0  0  0  0  0  0
   57.1505   32.3342   43.5168 H   0  0  0  0  0  0  0  0  0  0  0  0
   58.5616   31.2065   45.9787 H   0  0  0  0  0  0  0  0  0  0  0  0
   59.3314   32.3362   44.8082 H   0  0  0  0  0  0  0  0  0  0  0  0
   57.5270   33.9951   47.8509 H   0  0  0  0  0  0  0  0  0  0  0  0
   58.3386   32.3724   47.7759 H   0  0  0  0  0  0  0  0  0  0  0  0
   59.5408   35.0136   47.8188 H   0  0  0  0  0  0  0  0  0  0  0  0
   60.3238   33.3760   47.8498 H   0  0  0  0  0  0  0  0  0  0  0  0
   59.1391   36.0251   45.7852 H   0  0  0  0  0  0  0  0  0  0  0  0
   59.6438   35.1782   44.2614 H   0  0  0  0  0  0  0  0  0  0  0  0
   57.0858   35.1221   45.5291 H   0  0  0  0  0  0  0  0  0  0  0  0
   57.6650   34.1700   44.0956 H   0  0  0  0  0  0  0  0  0  0  0  0
  1  2  1  0
  2  3  1  0
  3  4  2  0
  3  5  2  0
  3  6  1  0
  6  7  1  0
  7  8  2  0
  8  9  1  0
  9 10  2  0
 10 11  1  0
 11 12  1  0
 12 13  2  0
 12 14  1  0
 14 15  1  0
 15 16  1  0
 16 17  1  0
 17 18  1  0
 18 19  1  0
 19 20  1  0
 20 21  1  0
 21 22  1  0
 11 23  2  0
 23 24  1  0
 23  7  1  0
 22 17  1  0
  1 25  1  0
  1 26  1  0
  1 27  1  0
  2 28  1  0
  2 29  1  0
  8 30  1  0
  9 31  1  0
 10 32  1  0
 15 33  1  0
 15 34  1  0
 16 35  1  0
 16 36  1  0
 18 37  1  0
 18 38  1  0
 19 39  1  0
 19 40  1  0
 21 41  1  0
 21 42  1  0
 22 43  1  0
 22 44  1  0
M  CHG  3   6  -1  14  -1  24  -1
M  END
>  <UniqueID>  (79) 
73

>  <SMILES>  (79) 
CCS(=O)(=O)[N-]c1cccc(C(=O)[N-]CCN2CCOCC2)c1[O-]

>  <Energy>  (79) 
59.17947177117145

>  <Genealogy>  (79) 
CCS(=O)(=O)[N-]c1cccc(C(=O)[N-]CCN2CCOCC2)c1[O-] (protonated)
CCS(=O)(=O)[N-]c1cccc(C(=O)[N-]CCN2CCOCC2)c1[O-] (3D coordinates assigned)
CCS(=O)(=O)[N-]c1cccc(C(=O)[N-]CCN2CCOCC2)c1[O-] (nonaromatic ring conformer: 59.17947177117145 kcal/mol)

>  <smiles>  (79) 
CCS(=O)(=O)Nc1cccc(C(=O)NCCN2CCOCC2)c1O

>  <score_type>  (79) 
oracle

>  <origin>  (79) 
adg

>  <m_score__min__energy>  (79) 
-14.859999999999999

>  <m_primary>  (79) 
energy

$$$$
79:0
     RDKit          3D

 52 55  0  0  0  0  0  0  0  0999 V2000
   58.7785   29.0574   49.7289 H   0  0  0  0  0  0  0  0  0  0  0  0
   59.4640   29.2650   48.8940 C   0  0  0  0  0  0  0  0  0  0  0  0
   60.1650   28.1400   48.2470 C   0  0  0  0  0  0  0  0  0  0  0  0
   61.1370   27.5840   48.8240 O   0  0  0  0  0  0  0  0  0  0  0  0
   59.7010   27.6060   46.9980 N   0  0  0  0  0  0  0  0  0  0  0  0
   58.4730   27.5850   46.5550 C   0  0  0  0  0  0  0  0  0  0  0  0
   57.7070   26.4330   46.7660 C   0  0  0  0  0  0  0  0  0  0  0  0
   58.1405   25.5721   47.2961 H   0  0  0  0  0  0  0  0  0  0  0  0
   56.3910   26.3790   46.3020 C   0  0  0  0  0  0  0  0  0  0  0  0
   55.7796   25.4836   46.4877 H   0  0  0  0  0  0  0  0  0  0  0  0
   55.8650   27.4300   45.6220 N   0  0  0  0  0  0  0  0  0  0  0  0
   56.5870   28.5520   45.3590 C   0  0  0  0  0  0  0  0  0  0  0  0
   55.9490   29.6580   44.6220 C   0  0  0  0  0  0  0  0  0  0  0  0
   55.0860   29.3830   43.7490 O   0  0  0  0  0  0  0  0  0  0  0  0
   56.2910   31.0350   44.8410 N   0  0  0  0  0  0  0  0  0  0  0  0
   57.6110   31.6400   44.6800 C   0  0  0  0  0  0  0  0  0  0  0  0
   58.3498   31.0417   45.2333 H   0  0  0  0  0  0  0  0  0  0  0  0
   57.8552   31.6630   43.6077 H   0  0  0  0  0  0  0  0  0  0  0  0
   57.6310   33.0790   45.2140 C   0  0  1  0  0  0  0  0  0  0  0  0
   56.7688   33.6024   44.7750 H   0  0  0  0  0  0  0  0  0  0  0  0
   57.5320   33.0790   46.6210 O   0  0  0  0  0  0  0  0  0  0  0  0
   58.4670   34.0140   47.1160 C   0  0  0  0  0  0  0  0  0  0  0  0
   59.2375   33.4879   47.6988 H   0  0  0  0  0  0  0  0  0  0  0  0
   57.9508   34.7411   47.7602 H   0  0  0  0  0  0  0  0  0  0  0  0
   59.1200   34.7420   45.9570 C   0  0  0  0  0  0  0  0  0  0  0  0
   60.1932   34.8969   46.1419 H   0  0  0  0  0  0  0  0  0  0  0  0
   58.7035   35.7457   45.7862 H   0  0  0  0  0  0  0  0  0  0  0  0
   58.9020   33.8110   44.8080 C   0  0  0  0  0  0  0  0  0  0  0  0
   59.7446   33.1127   44.6967 H   0  0  0  0  0  0  0  0  0  0  0  0
   58.8223   34.3230   43.8377 H   0  0  0  0  0  0  0  0  0  0  0  0
   57.9010   28.6580   45.8390 C   0  0  0  0  0  0  0  0  0  0  0  0
   58.4829   29.5737   45.6580 H   0  0  0  0  0  0  0  0  0  0  0  0
   59.6370   30.5290   48.4960 C   0  0  0  0  0  0  0  0  0  0  0  0
   59.8921   30.7246   47.4440 H   0  0  0  0  0  0  0  0  0  0  0  0
   59.4970   31.6750   49.4230 C   0  0  0  0  0  0  0  0  0  0  0  0
   58.4240   31.7040   50.3330 C   0  0  0  0  0  0  0  0  0  0  0  0
   57.6522   30.9213   50.2915 H   0  0  0  0  0  0  0  0  0  0  0  0
   58.3310   32.7180   51.2880 C   0  0  0  0  0  0  0  0  0  0  0  0
   57.4862   32.7318   51.9924 H   0  0  0  0  0  0  0  0  0  0  0  0
   59.3050   33.7130   51.3520 C   0  0  0  0  0  0  0  0  0  0  0  0
   59.2328   34.5049   52.1121 H   0  0  0  0  0  0  0  0  0  0  0  0
   60.3720   33.7050   50.4520 C   0  0  0  0  0  0  0  0  0  0  0  0
   61.1393   34.4910   50.5104 H   0  0  0  0  0  0  0  0  0  0  0  0
   60.4760   32.7020   49.4710 C   0  0  0  0  0  0  0  0  0  0  0  0
   61.5820   32.7850   48.4890 C   0  0  0  0  0  0  0  0  0  0  0  0
   62.8540   31.6890   48.3600 S   0  0  0  0  0  0  0  0  0  0  0  0
   63.6660   32.4870   47.1230 C   0  0  0  0  0  0  0  0  0  0  0  0
   64.6009   32.1556   46.6475 H   0  0  0  0  0  0  0  0  0  0  0  0
   62.9540   33.6370   46.8040 C   0  0  0  0  0  0  0  0  0  0  0  0
   63.2711   34.3447   46.0239 H   0  0  0  0  0  0  0  0  0  0  0  0
   61.7960   33.8090   47.5690 C   0  0  0  0  0  0  0  0  0  0  0  0
   61.1199   34.6692   47.4553 H   0  0  0  0  0  0  0  0  0  0  0  0
  1  2  1  0
  2  3  1  0
  3  4  2  0
  3  5  1  0
  5  6  2  0
  6  7  1  0
  7  8  1  0
  7  9  2  0
  9 10  1  0
  9 11  1  0
 11 12  1  0
 12 13  1  0
 13 14  2  0
 13 15  1  0
 15 16  1  0
 16 17  1  0
 16 18  1  0
 16 19  1  0
 19 20  1  6
 19 21  1  0
 21 22  1  0
 22 23  1  0
 22 24  1  0
 22 25  1  0
 25 26  1  0
 25 27  1  0
 25 28  1  0
 28 29  1  0
 28 30  1  0
 12 31  2  0
 31 32  1  0
  2 33  2  0
 33 34  1  0
 33 35  1  0
 35 36  2  0
 36 37  1  0
 36 38  1  0
 38 39  1  0
 38 40  2  0
 40 41  1  0
 40 42  1  0
 42 43  1  0
 42 44  2  0
 44 45  1  0
 45 46  1  0
 46 47  1  0
 47 48  1  0
 47 49  2  0
 49 50  1  0
 49 51  1  0
 51 52  1  0
 31  6  1  0
 44 35  1  0
 51 45  2  0
 28 19  1  0
M  CHG  2  11  -1  15  -1
M  END
>  <UniqueID>  (80) 
74

>  <SMILES>  (80) 
O=C(/C=C/c1ccccc1-c1cccs1)/N=c1/cc[n-]c(C(=O)[N-]C[C@@H]2CCCO2)c1

>  <Energy>  (80) 
99.53214767367598

>  <Genealogy>  (80) 
O=C(C=Cc1ccccc1-c1cccs1)N=c1cc[n-]c(C(=O)[N-]CC2CCCO2)c1 (protonated)
O=C(C=Cc1ccccc1-c1cccs1)N=c1cc[n-]c(C(=O)[N-]C[C@@H]2CCCO2)c1 (chirality)
O=C(/C=C/c1ccccc1-c1cccs1)/N=c1/cc[n-]c(C(=O)[N-]C[C@@H]2CCCO2)c1 (cis-trans isomerization)
O=C(/C=C/c1ccccc1-c1cccs1)/N=c1/cc[n-]c(C(=O)[N-]C[C@@H]2CCCO2)c1 (3D coordinates assigned)
O=C(/C=C/c1ccccc1-c1cccs1)/N=c1/cc[n-]c(C(=O)[N-]C[C@@H]2CCCO2)c1 (nonaromatic ring conformer: 99.53214767367598 kcal/mol)

>  <smiles>  (80) 
O=C(C=Cc1ccccc1-c1cccs1)N=c1cc[nH]c(C(=O)NCC2CCCO2)c1

>  <score_type>  (80) 
oracle

>  <origin>  (80) 
adg

>  <m_score__min__energy>  (80) 
-14.06

>  <m_primary>  (80) 
energy

$$$$
80:0
     RDKit          3D

 31 32  0  0  0  0  0  0  0  0999 V2000
   57.9460   33.8270   52.3230 C   0  0  0  0  0  0  0  0  0  0  0  0
   59.1430   33.9360   52.9060 C   0  0  0  0  0  0  0  0  0  0  0  0
   59.3120   33.8350   54.3940 C   0  0  0  0  0  0  0  0  0  0  0  0
   59.9160   32.1760   54.8570 S   0  0  0  0  0  0  0  0  0  0  0  0
   58.4020   31.3400   54.3910 C   0  0  0  0  0  0  0  0  0  0  0  0
   58.2850   30.7920   53.1530 N   0  0  0  0  0  0  0  0  0  0  0  0
   57.1580   30.1340   52.7810 C   0  0  0  0  0  0  0  0  0  0  0  0
   57.0890   29.6310   51.6280 O   0  0  0  0  0  0  0  0  0  0  0  0
   56.0850   30.0180   53.6820 C   0  0  0  0  0  0  0  0  0  0  0  0
   54.8340   29.2490   53.3390 C   0  0  0  0  0  0  0  0  0  0  0  0
   53.7470   30.1930   52.8970 C   0  0  0  0  0  0  0  0  0  0  0  0
   53.7800   30.7650   51.6150 C   0  0  0  0  0  0  0  0  0  0  0  0
   52.7500   31.6120   51.1940 C   0  0  0  0  0  0  0  0  0  0  0  0
   51.6770   31.8870   52.0460 C   0  0  0  0  0  0  0  0  0  0  0  0
   50.6530   32.7280   51.6270 O   0  0  0  0  0  0  0  0  0  0  0  0
   51.6320   31.3130   53.3220 C   0  0  0  0  0  0  0  0  0  0  0  0
   52.6610   30.4670   53.7450 C   0  0  0  0  0  0  0  0  0  0  0  0
   56.2340   30.5910   54.9530 C   0  0  0  0  0  0  0  0  0  0  0  0
   57.3810   31.2390   55.2790 N   0  0  0  0  0  0  0  0  0  0  0  0
   57.8576   33.9059   51.2294 H   0  0  0  0  0  0  0  0  0  0  0  0
   57.0487   33.6583   52.9365 H   0  0  0  0  0  0  0  0  0  0  0  0
   60.0300   34.1046   52.2777 H   0  0  0  0  0  0  0  0  0  0  0  0
   60.0379   34.5909   54.7281 H   0  0  0  0  0  0  0  0  0  0  0  0
   58.3379   34.0063   54.8753 H   0  0  0  0  0  0  0  0  0  0  0  0
   55.0539   28.5419   52.5256 H   0  0  0  0  0  0  0  0  0  0  0  0
   54.4934   28.7022   54.2306 H   0  0  0  0  0  0  0  0  0  0  0  0
   54.6196   30.5459   50.9390 H   0  0  0  0  0  0  0  0  0  0  0  0
   52.7844   32.0623   50.1910 H   0  0  0  0  0  0  0  0  0  0  0  0
   50.7865   31.5279   53.9920 H   0  0  0  0  0  0  0  0  0  0  0  0
   52.6203   30.0137   54.7464 H   0  0  0  0  0  0  0  0  0  0  0  0
   55.4190   30.5151   55.6879 H   0  0  0  0  0  0  0  0  0  0  0  0
  1  2  2  0
  2  3  1  0
  3  4  1  0
  4  5  1  0
  5  6  2  0
  6  7  1  0
  7  8  2  0
  7  9  1  0
  9 10  1  0
 10 11  1  0
 11 12  2  0
 12 13  1  0
 13 14  2  0
 14 15  1  0
 14 16  1  0
 16 17  2  0
  9 18  2  0
 18 19  1  0
 19  5  1  0
 17 11  1  0
  1 20  1  0
  1 21  1  0
  2 22  1  0
  3 23  1  0
  3 24  1  0
 10 25  1  0
 10 26  1  0
 12 27  1  0
 13 28  1  0
 16 29  1  0
 17 30  1  0
 18 31  1  0
M  CHG  2  15  -1  19  -1
M  END
>  <UniqueID>  (81) 
75

>  <SMILES>  (81) 
C=CCSc1nc(=O)c(Cc2ccc([O-])cc2)c[n-]1

>  <Energy>  (81) 
25.775469159452715

>  <Genealogy>  (81) 
C=CCSc1nc(=O)c(Cc2ccc([O-])cc2)c[n-]1 (protonated)
C=CCSc1nc(=O)c(Cc2ccc([O-])cc2)c[n-]1 (3D coordinates assigned)
C=CCSc1nc(=O)c(Cc2ccc([O-])cc2)c[n-]1 (optimized conformer: 25.775469159452715 kcal/mol)

>  <smiles>  (81) 
C=CCSc1nc(=O)c(Cc2ccc(O)cc2)c[nH]1

>  <score_type>  (81) 
oracle

>  <origin>  (81) 
adg

>  <m_score__min__energy>  (81) 
-10.26

>  <m_primary>  (81) 
energy

$$$$
81:0
     RDKit          3D

 66 70  0  0  0  0  0  0  0  0999 V2000
   61.1170   26.6130   46.0790 O   0  0  0  0  0  0  0  0  0  0  0  0
   60.1050   27.3650   46.0510 C   0  0  0  0  0  0  0  0  0  0  0  0
   59.1330   27.3800   47.1920 C   0  0  0  0  0  0  0  0  0  0  0  0
   59.3840   28.4630   48.2040 C   0  0  0  0  0  0  0  0  0  0  0  0
   60.6160   28.7380   48.7190 N   0  0  0  0  0  0  0  0  0  0  0  0
   60.3870   29.8450   49.4400 C   0  0  0  0  0  0  0  0  0  0  0  0
   61.3030   30.5770   50.1880 C   0  0  0  0  0  0  0  0  0  0  0  0
   60.8460   31.7460   50.8340 C   0  0  0  0  0  0  0  0  0  0  0  0
   61.9620   32.7190   51.7980 S   0  0  0  0  0  0  0  0  0  0  0  0
   61.1930   33.8090   52.4900 O   0  0  0  0  0  0  0  0  0  0  0  0
   62.5890   31.8520   52.8540 O   0  0  0  0  0  0  0  0  0  0  0  0
   63.2270   33.4290   50.8190 N   0  0  0  0  0  0  0  0  0  0  0  0
   64.0080   34.4390   51.5780 C   0  0  0  0  0  0  0  0  0  0  0  0
   65.3440   33.8920   52.1060 C   0  0  0  0  0  0  0  0  0  0  0  0
   66.2300   33.3640   50.9610 C   0  0  0  0  0  0  0  0  0  0  0  0
   65.4170   32.8940   49.7390 C   0  0  0  0  0  0  0  0  0  0  0  0
   64.0440   32.3730   50.1700 C   0  0  0  0  0  0  0  0  0  0  0  0
   59.4880   32.1360   50.7050 C   0  0  0  0  0  0  0  0  0  0  0  0
   58.5890   31.3660   49.9430 C   0  0  0  0  0  0  0  0  0  0  0  0
   59.0820   30.2210   49.3280 C   0  0  0  0  0  0  0  0  0  0  0  0
   58.4200   29.3630   48.5420 N   0  0  0  0  0  0  0  0  0  0  0  0
   59.8750   28.2360   44.9300 N   0  0  0  0  0  0  0  0  0  0  0  0
   58.8120   29.1860   44.7700 C   0  0  0  0  0  0  0  0  0  0  0  0
   57.6400   28.7730   44.1270 C   0  0  0  0  0  0  0  0  0  0  0  0
   56.5750   29.6590   43.9580 C   0  0  0  0  0  0  0  0  0  0  0  0
   56.6790   30.9740   44.4190 C   0  0  0  0  0  0  0  0  0  0  0  0
   57.8370   31.3980   45.0890 C   0  0  0  0  0  0  0  0  0  0  0  0
   57.9780   33.0640   45.6600 S   0  0  0  0  0  0  0  0  0  0  0  0
   58.1220   33.9780   44.4730 O   0  0  0  0  0  0  0  0  0  0  0  0
   56.7310   33.4450   46.4060 O   0  0  0  0  0  0  0  0  0  0  0  0
   59.3790   33.2350   46.6880 N   0  0  0  0  0  0  0  0  0  0  0  0
   59.0350   34.0270   47.8920 C   0  0  0  0  0  0  0  0  0  0  0  0
   60.2770   34.5670   48.6330 C   0  0  0  0  0  0  0  0  0  0  0  0
   61.5420   33.7870   48.2610 C   0  0  0  0  0  0  0  0  0  0  0  0
   61.7880   33.8270   46.7430 C   0  0  0  0  0  0  0  0  0  0  0  0
   60.4780   33.8610   45.9330 C   0  0  0  0  0  0  0  0  0  0  0  0
   58.8910   30.4920   45.2890 C   0  0  0  0  0  0  0  0  0  0  0  0
   58.1220   27.5196   46.7816 H   0  0  0  0  0  0  0  0  0  0  0  0
   59.2516   26.4221   47.7196 H   0  0  0  0  0  0  0  0  0  0  0  0
   62.3513   30.2549   50.2736 H   0  0  0  0  0  0  0  0  0  0  0  0
   64.2158   35.2920   50.9152 H   0  0  0  0  0  0  0  0  0  0  0  0
   63.4055   34.7338   52.4498 H   0  0  0  0  0  0  0  0  0  0  0  0
   65.8788   34.6985   52.6290 H   0  0  0  0  0  0  0  0  0  0  0  0
   65.1293   33.0572   52.7894 H   0  0  0  0  0  0  0  0  0  0  0  0
   66.9081   34.1694   50.6423 H   0  0  0  0  0  0  0  0  0  0  0  0
   66.7802   32.4925   51.3454 H   0  0  0  0  0  0  0  0  0  0  0  0
   65.2818   33.7395   49.0485 H   0  0  0  0  0  0  0  0  0  0  0  0
   65.9643   32.0792   49.2425 H   0  0  0  0  0  0  0  0  0  0  0  0
   63.5088   32.0055   49.2820 H   0  0  0  0  0  0  0  0  0  0  0  0
   64.2009   31.5670   50.9019 H   0  0  0  0  0  0  0  0  0  0  0  0
   59.1340   33.0493   51.2055 H   0  0  0  0  0  0  0  0  0  0  0  0
   57.5342   31.6599   49.8380 H   0  0  0  0  0  0  0  0  0  0  0  0
   57.5574   27.7423   43.7519 H   0  0  0  0  0  0  0  0  0  0  0  0
   55.6531   29.3219   43.4616 H   0  0  0  0  0  0  0  0  0  0  0  0
   55.8506   31.6791   44.2562 H   0  0  0  0  0  0  0  0  0  0  0  0
   58.4118   34.8797   47.5846 H   0  0  0  0  0  0  0  0  0  0  0  0
   58.5028   33.3587   48.5849 H   0  0  0  0  0  0  0  0  0  0  0  0
   60.4191   35.6248   48.3667 H   0  0  0  0  0  0  0  0  0  0  0  0
   60.1085   34.4520   49.7139 H   0  0  0  0  0  0  0  0  0  0  0  0
   62.4047   34.2335   48.7771 H   0  0  0  0  0  0  0  0  0  0  0  0
   61.4100   32.7387   48.5671 H   0  0  0  0  0  0  0  0  0  0  0  0
   62.3737   34.7270   46.5043 H   0  0  0  0  0  0  0  0  0  0  0  0
   62.3270   32.9085   46.4678 H   0  0  0  0  0  0  0  0  0  0  0  0
   60.2158   34.9069   45.7152 H   0  0  0  0  0  0  0  0  0  0  0  0
   60.6272   33.3007   44.9982 H   0  0  0  0  0  0  0  0  0  0  0  0
   59.7820   30.8041   45.8535 H   0  0  0  0  0  0  0  0  0  0  0  0
  1  2  2  0
  2  3  1  0
  3  4  1  0
  4  5  2  0
  5  6  1  0
  6  7  2  0
  7  8  1  0
  8  9  1  0
  9 10  2  0
  9 11  2  0
  9 12  1  0
 12 13  1  0
 13 14  1  0
 14 15  1  0
 15 16  1  0
 16 17  1  0
  8 18  2  0
 18 19  1  0
 19 20  2  0
 20 21  1  0
  2 22  1  0
 22 23  1  0
 23 24  2  0
 24 25  1  0
 25 26  2  0
 26 27  1  0
 27 28  1  0
 28 29  2  0
 28 30  2  0
 28 31  1  0
 31 32  1  0
 32 33  1  0
 33 34  1  0
 34 35  1  0
 35 36  1  0
 27 37  2  0
 21  4  1  0
 37 23  1  0
 20  6  1  0
 36 31  1  0
 17 12  1  0
  3 38  1  0
  3 39  1  0
  7 40  1  0
 13 41  1  0
 13 42  1  0
 14 43  1  0
 14 44  1  0
 15 45  1  0
 15 46  1  0
 16 47  1  0
 16 48  1  0
 17 49  1  0
 17 50  1  0
 18 51  1  0
 19 52  1  0
 24 53  1  0
 25 54  1  0
 26 55  1  0
 32 56  1  0
 32 57  1  0
 33 58  1  0
 33 59  1  0
 34 60  1  0
 34 61  1  0
 35 62  1  0
 35 63  1  0
 36 64  1  0
 36 65  1  0
 37 66  1  0
M  CHG  2  21  -1  22  -1
M  END
>  <UniqueID>  (82) 
76

>  <SMILES>  (82) 
O=C(Cc1nc2cc(S(=O)(=O)N3CCCCC3)ccc2[n-]1)[N-]c1cccc(S(=O)(=O)N2CCCCC2)c1

>  <Energy>  (82) 
116.00879461589017

>  <Genealogy>  (82) 
O=C(Cc1nc2cc(S(=O)(=O)N3CCCCC3)ccc2[n-]1)[N-]c1cccc(S(=O)(=O)N2CCCCC2)c1 (protonated)
O=C(Cc1nc2cc(S(=O)(=O)N3CCCCC3)ccc2[n-]1)[N-]c1cccc(S(=O)(=O)N2CCCCC2)c1 (3D coordinates assigned)
O=C(Cc1nc2cc(S(=O)(=O)N3CCCCC3)ccc2[n-]1)[N-]c1cccc(S(=O)(=O)N2CCCCC2)c1 (nonaromatic ring conformer: 116.00879461589017 kcal/mol)

>  <smiles>  (82) 
O=C(Cc1nc2cc(S(=O)(=O)N3CCCCC3)ccc2[nH]1)Nc1cccc(S(=O)(=O)N2CCCCC2)c1

>  <score_type>  (82) 
oracle

>  <origin>  (82) 
adg

>  <m_score__min__energy>  (82) 
-13.4

>  <m_primary>  (82) 
energy

$$$$
82:0
     RDKit          3D

 51 54  0  0  0  0  0  0  0  0999 V2000
   55.1710   29.3820   44.5060 O   0  0  0  0  0  0  0  0  0  0  0  0
   56.3270   29.8160   44.7520 C   0  0  0  0  0  0  0  0  0  0  0  0
   57.0750   29.3050   45.8610 N   0  0  0  0  0  0  0  0  0  0  0  0
   57.5740   27.9690   46.0290 C   0  0  0  0  0  0  0  0  0  0  0  0
   56.8320   26.8440   45.6240 C   0  0  0  0  0  0  0  0  0  0  0  0
   57.3430   25.5570   45.8130 C   0  0  0  0  0  0  0  0  0  0  0  0
   58.5870   25.3780   46.4200 C   0  0  0  0  0  0  0  0  0  0  0  0
   59.3210   26.4850   46.8490 C   0  0  0  0  0  0  0  0  0  0  0  0
   58.8160   27.7790   46.6660 C   0  0  0  0  0  0  0  0  0  0  0  0
   59.5870   28.9010   47.1160 N   0  0  0  0  0  0  0  0  0  0  0  0
   59.3290   29.4550   48.4450 C   0  0  0  0  0  0  0  0  0  0  0  0
   60.5540   30.2390   48.9240 C   0  0  0  0  0  0  0  0  0  0  0  0
   60.9610   31.1800   47.9480 O   0  0  0  0  0  0  0  0  0  0  0  0
   61.4110   30.5020   46.7900 C   0  0  0  0  0  0  0  0  0  0  0  0
   60.2630   29.7400   46.1240 C   0  0  0  0  0  0  0  0  0  0  0  0
   56.9390   30.8530   43.9010 C   0  0  0  0  0  0  0  0  0  0  0  0
   56.8950   30.7920   42.5580 N   0  0  0  0  0  0  0  0  0  0  0  0
   57.6110   31.8570   42.1500 C   0  0  0  0  0  0  0  0  0  0  0  0
   58.1090   32.5930   43.1640 N   0  0  0  0  0  0  0  0  0  0  0  0
   57.6830   31.9650   44.2750 C   0  0  0  0  0  0  0  0  0  0  0  0
   57.9490   32.4880   45.6310 C   0  0  0  0  0  0  0  0  0  0  0  0
   57.7730   31.7540   46.6400 O   0  0  0  0  0  0  0  0  0  0  0  0
   58.3610   33.8530   45.8050 N   0  0  0  0  0  0  0  0  0  0  0  0
   58.7510   34.3900   47.1060 C   0  0  0  0  0  0  0  0  0  0  0  0
   60.2190   34.1600   47.3390 C   0  0  0  0  0  0  0  0  0  0  0  0
   61.0920   33.9530   46.2570 C   0  0  0  0  0  0  0  0  0  0  0  0
   62.4610   33.7770   46.4810 C   0  0  0  0  0  0  0  0  0  0  0  0
   62.9680   33.8110   47.7830 C   0  0  0  0  0  0  0  0  0  0  0  0
   62.1070   34.0240   48.8630 C   0  0  0  0  0  0  0  0  0  0  0  0
   60.7380   34.2030   48.6430 C   0  0  0  0  0  0  0  0  0  0  0  0
   55.8453   26.9782   45.1566 H   0  0  0  0  0  0  0  0  0  0  0  0
   56.7631   24.6826   45.4824 H   0  0  0  0  0  0  0  0  0  0  0  0
   58.9892   24.3639   46.5604 H   0  0  0  0  0  0  0  0  0  0  0  0
   60.2987   26.3411   47.3321 H   0  0  0  0  0  0  0  0  0  0  0  0
   58.4598   30.1275   48.3984 H   0  0  0  0  0  0  0  0  0  0  0  0
   59.1238   28.6344   49.1482 H   0  0  0  0  0  0  0  0  0  0  0  0
   60.3016   30.7699   49.8538 H   0  0  0  0  0  0  0  0  0  0  0  0
   61.3789   29.5326   49.0986 H   0  0  0  0  0  0  0  0  0  0  0  0
   61.8175   31.2354   46.0781 H   0  0  0  0  0  0  0  0  0  0  0  0
   62.1882   29.7811   47.0839 H   0  0  0  0  0  0  0  0  0  0  0  0
   59.5444   30.4576   45.7012 H   0  0  0  0  0  0  0  0  0  0  0  0
   60.6649   29.1038   45.3216 H   0  0  0  0  0  0  0  0  0  0  0  0
   57.7741   32.1031   41.0904 H   0  0  0  0  0  0  0  0  0  0  0  0
   58.4590   34.4710   44.9680 H   0  0  0  0  0  0  0  0  0  0  0  0
   58.5430   35.4699   47.1314 H   0  0  0  0  0  0  0  0  0  0  0  0
   58.1765   33.8805   47.8936 H   0  0  0  0  0  0  0  0  0  0  0  0
   60.6970   33.9294   45.2307 H   0  0  0  0  0  0  0  0  0  0  0  0
   63.1398   33.6116   45.6314 H   0  0  0  0  0  0  0  0  0  0  0  0
   64.0449   33.6701   47.9577 H   0  0  0  0  0  0  0  0  0  0  0  0
   62.5069   34.0508   49.8874 H   0  0  0  0  0  0  0  0  0  0  0  0
   60.0647   34.3783   49.4950 H   0  0  0  0  0  0  0  0  0  0  0  0
  1  2  2  0
  2  3  1  0
  3  4  1  0
  4  5  2  0
  5  6  1  0
  6  7  2  0
  7  8  1  0
  8  9  2  0
  9 10  1  0
 10 11  1  0
 11 12  1  0
 12 13  1  0
 13 14  1  0
 14 15  1  0
  2 16  1  0
 16 17  1  0
 17 18  2  0
 18 19  1  0
 19 20  1  0
 20 21  1  0
 21 22  2  0
 21 23  1  0
 23 24  1  0
 24 25  1  0
 25 26  2  0
 26 27  1  0
 27 28  2  0
 28 29  1  0
 29 30  2  0
  9  4  1  0
 15 10  1  0
 20 16  2  0
 30 25  1  0
  5 31  1  0
  6 32  1  0
  7 33  1  0
  8 34  1  0
 11 35  1  0
 11 36  1  0
 12 37  1  0
 12 38  1  0
 14 39  1  0
 14 40  1  0
 15 41  1  0
 15 42  1  0
 18 43  1  0
 23 44  1  0
 24 45  1  0
 24 46  1  0
 26 47  1  0
 27 48  1  0
 28 49  1  0
 29 50  1  0
 30 51  1  0
M  CHG  2   3  -1  19  -1
M  END
>  <UniqueID>  (83) 
77

>  <SMILES>  (83) 
O=C([N-]c1ccccc1N1CCOCC1)c1nc[n-]c1C(=O)NCc1ccccc1

>  <Energy>  (83) 
92.77742559549169

>  <Genealogy>  (83) 
O=C([N-]c1ccccc1N1CCOCC1)c1nc[n-]c1C(=O)NCc1ccccc1 (protonated)
O=C([N-]c1ccccc1N1CCOCC1)c1nc[n-]c1C(=O)NCc1ccccc1 (3D coordinates assigned)
O=C([N-]c1ccccc1N1CCOCC1)c1nc[n-]c1C(=O)NCc1ccccc1 (nonaromatic ring conformer: 92.77742559549169 kcal/mol)

>  <smiles>  (83) 
O=C(Nc1ccccc1N1CCOCC1)c1nc[nH]c1C(=O)NCc1ccccc1

>  <score_type>  (83) 
oracle

>  <origin>  (83) 
adg

>  <m_score__min__energy>  (83) 
-11.08

>  <m_primary>  (83) 
energy

$$$$
83:0
     RDKit          3D

 52 54  0  0  0  0  0  0  0  0999 V2000
   59.5058   35.6379   44.5693 H   0  0  0  0  0  0  0  0  0  0  0  0
   59.2130   34.7330   45.1220 C   0  0  0  0  0  0  0  0  0  0  0  0
   58.2670   33.9950   44.6130 N   0  0  0  0  0  0  0  0  0  0  0  0
   57.9520   32.6310   44.9290 C   0  0  0  0  0  0  0  0  0  0  0  0
   57.3640   32.3770   46.0130 O   0  0  0  0  0  0  0  0  0  0  0  0
   58.1820   31.5170   43.9410 C   0  0  0  0  0  0  0  0  0  0  0  0
   59.2378   31.5260   43.6326 H   0  0  0  0  0  0  0  0  0  0  0  0
   57.5189   31.6801   43.0786 H   0  0  0  0  0  0  0  0  0  0  0  0
   57.8520   30.1460   44.5470 C   0  0  0  0  0  0  0  0  0  0  0  0
   58.2867   30.0939   45.5561 H   0  0  0  0  0  0  0  0  0  0  0  0
   58.2741   29.3790   43.8810 H   0  0  0  0  0  0  0  0  0  0  0  0
   56.3640   29.8930   44.6480 C   0  0  0  0  0  0  0  0  0  0  0  0
   55.5730   30.8540   44.4600 O   0  0  0  0  0  0  0  0  0  0  0  0
   55.8150   28.5890   44.8810 N   0  0  0  0  0  0  0  0  0  0  0  0
   56.4450   27.5440   45.6310 C   0  0  0  0  0  0  0  0  0  0  0  0
   57.7950   27.6350   46.0000 C   0  0  0  0  0  0  0  0  0  0  0  0
   58.3565   28.5590   45.7976 H   0  0  0  0  0  0  0  0  0  0  0  0
   58.4310   26.5570   46.6240 C   0  0  0  0  0  0  0  0  0  0  0  0
   59.8230   26.6540   46.9430 N   0  0  0  0  0  0  0  0  0  0  0  0
   60.3410   27.4170   48.0380 C   0  0  0  0  0  0  0  0  0  0  0  0
   61.1170   26.8570   48.8570 O   0  0  0  0  0  0  0  0  0  0  0  0
   59.9060   28.8170   48.2720 C   0  0  0  0  0  0  0  0  0  0  0  0
   59.2990   29.1370   49.5010 C   0  0  0  0  0  0  0  0  0  0  0  0
   59.1193   28.3442   50.2420 H   0  0  0  0  0  0  0  0  0  0  0  0
   58.9230   30.4490   49.7890 C   0  0  0  0  0  0  0  0  0  0  0  0
   58.4465   30.6849   50.7520 H   0  0  0  0  0  0  0  0  0  0  0  0
   59.1500   31.4610   48.8590 C   0  0  0  0  0  0  0  0  0  0  0  0
   58.8668   32.4974   49.0948 H   0  0  0  0  0  0  0  0  0  0  0  0
   59.7370   31.1610   47.6270 C   0  0  0  0  0  0  0  0  0  0  0  0
   59.9087   31.9642   46.8953 H   0  0  0  0  0  0  0  0  0  0  0  0
   60.1100   29.8430   47.3140 C   0  0  0  0  0  0  0  0  0  0  0  0
   60.7220   29.5590   45.9680 C   0  0  0  0  0  0  0  0  0  0  0  0
   61.7120   29.0996   46.1049 H   0  0  0  0  0  0  0  0  0  0  0  0
   60.0725   28.8703   45.4078 H   0  0  0  0  0  0  0  0  0  0  0  0
   60.8286   30.4997   45.4078 H   0  0  0  0  0  0  0  0  0  0  0  0
   57.6950   25.4040   46.9360 C   0  0  0  0  0  0  0  0  0  0  0  0
   58.1929   24.5478   47.4147 H   0  0  0  0  0  0  0  0  0  0  0  0
   56.3310   25.3410   46.6400 C   0  0  0  0  0  0  0  0  0  0  0  0
   55.7500   24.4485   46.9154 H   0  0  0  0  0  0  0  0  0  0  0  0
   55.7030   26.4110   45.9940 C   0  0  0  0  0  0  0  0  0  0  0  0
   54.3470   26.3380   45.6960 O   0  0  0  0  0  0  0  0  0  0  0  0
   59.9230   34.4440   46.3890 C   0  0  0  0  0  0  0  0  0  0  0  0
   61.2320   33.9370   46.3340 C   0  0  0  0  0  0  0  0  0  0  0  0
   61.6978   33.7308   45.3590 H   0  0  0  0  0  0  0  0  0  0  0  0
   61.9460   33.6930   47.5100 C   0  0  0  0  0  0  0  0  0  0  0  0
   62.9605   33.2709   47.4588 H   0  0  0  0  0  0  0  0  0  0  0  0
   61.3740   33.9840   48.7500 C   0  0  0  0  0  0  0  0  0  0  0  0
   61.9384   33.7938   49.6749 H   0  0  0  0  0  0  0  0  0  0  0  0
   60.0840   34.5170   48.8150 C   0  0  0  0  0  0  0  0  0  0  0  0
   59.6348   34.7498   49.7918 H   0  0  0  0  0  0  0  0  0  0  0  0
   59.3630   34.7550   47.6410 C   0  0  0  0  0  0  0  0  0  0  0  0
   58.3531   35.1875   47.6969 H   0  0  0  0  0  0  0  0  0  0  0  0
  1  2  1  0
  2  3  2  0
  3  4  1  0
  4  5  2  0
  4  6  1  0
  6  7  1  0
  6  8  1  0
  6  9  1  0
  9 10  1  0
  9 11  1  0
  9 12  1  0
 12 13  2  0
 12 14  1  0
 14 15  1  0
 15 16  2  0
 16 17  1  0
 16 18  1  0
 18 19  1  0
 19 20  1  0
 20 21  2  0
 20 22  1  0
 22 23  2  0
 23 24  1  0
 23 25  1  0
 25 26  1  0
 25 27  2  0
 27 28  1  0
 27 29  1  0
 29 30  1  0
 29 31  2  0
 31 32  1  0
 32 33  1  0
 32 34  1  0
 32 35  1  0
 18 36  2  0
 36 37  1  0
 36 38  1  0
 38 39  1  0
 38 40  2  0
 40 41  1  0
  2 42  1  0
 42 43  2  0
 43 44  1  0
 43 45  1  0
 45 46  1  0
 45 47  2  0
 47 48  1  0
 47 49  1  0
 49 50  1  0
 49 51  2  0
 51 52  1  0
 40 15  1  0
 51 42  1  0
 31 22  1  0
M  CHG  3  14  -1  19  -1  41  -1
M  END
>  <UniqueID>  (84) 
78

>  <SMILES>  (84) 
Cc1ccccc1C(=O)[N-]c1ccc([O-])c([N-]C(=O)CCC(=O)/N=C\c2ccccc2)c1

>  <Energy>  (84) 
71.72775483801632

>  <Genealogy>  (84) 
Cc1ccccc1C(=O)[N-]c1ccc([O-])c([N-]C(=O)CCC(=O)N=Cc2ccccc2)c1 (protonated)
Cc1ccccc1C(=O)[N-]c1ccc([O-])c([N-]C(=O)CCC(=O)/N=C\c2ccccc2)c1 (cis-trans isomerization)
Cc1ccccc1C(=O)[N-]c1ccc([O-])c([N-]C(=O)CCC(=O)/N=C\c2ccccc2)c1 (3D coordinates assigned)
Cc1ccccc1C(=O)[N-]c1ccc([O-])c([N-]C(=O)CCC(=O)/N=C\c2ccccc2)c1 (optimized conformer: 71.72775483801632 kcal/mol)

>  <smiles>  (84) 
Cc1ccccc1C(=O)Nc1ccc(O)c(NC(=O)CCC(=O)N=Cc2ccccc2)c1

>  <score_type>  (84) 
oracle

>  <origin>  (84) 
adg

>  <m_score__min__energy>  (84) 
-16.460000000000001

>  <m_primary>  (84) 
energy

$$$$
84:0
     RDKit          3D

 51 53  0  0  0  0  0  0  0  0999 V2000
   60.3170   26.7420   46.4820 C   0  0  0  0  0  0  0  0  0  0  0  0
   58.9910   26.1290   46.0940 C   0  0  0  0  0  0  0  0  0  0  0  0
   57.9550   26.9050   46.6640 O   0  0  0  0  0  0  0  0  0  0  0  0
   57.0610   27.6520   45.9260 C   0  0  0  0  0  0  0  0  0  0  0  0
   55.9390   27.1170   45.7100 O   0  0  0  0  0  0  0  0  0  0  0  0
   57.2990   28.9750   45.3870 C   0  0  0  0  0  0  0  0  0  0  0  0
   58.5750   29.5000   45.4520 C   0  0  0  0  0  0  0  0  0  0  0  0
   58.9140   30.7090   44.9850 N   0  0  0  0  0  0  0  0  0  0  0  0
   57.9530   31.4550   44.4190 C   0  0  0  0  0  0  0  0  0  0  0  0
   58.3970   33.0530   43.7930 S   0  0  0  0  0  0  0  0  0  0  0  0
   57.8850   34.2960   45.0070 C   0  0  0  0  0  0  0  0  0  0  0  0
   57.7760   33.6150   46.3220 C   0  0  0  0  0  0  0  0  0  0  0  0
   56.6720   33.3470   46.8610 O   0  0  0  0  0  0  0  0  0  0  0  0
   58.9600   33.2560   46.9900 N   0  0  0  0  0  0  0  0  0  0  0  0
   58.9520   32.5740   48.2840 C   0  0  0  0  0  0  0  0  0  0  0  0
   60.2670   31.8630   48.5260 C   0  0  0  0  0  0  0  0  0  0  0  0
   61.3680   32.8130   48.4260 N   0  0  0  0  0  0  0  0  0  0  0  0
   62.5990   32.5650   49.0710 C   0  0  0  0  0  0  0  0  0  0  0  0
   63.7740   33.2330   48.7660 C   0  0  0  0  0  0  0  0  0  0  0  0
   64.9700   32.9730   49.4080 C   0  0  0  0  0  0  0  0  0  0  0  0
   65.0400   32.0170   50.3980 C   0  0  0  0  0  0  0  0  0  0  0  0
   63.8720   31.3450   50.7090 C   0  0  0  0  0  0  0  0  0  0  0  0
   62.6750   31.6100   50.0620 C   0  0  0  0  0  0  0  0  0  0  0  0
   61.1200   34.0030   47.6340 C   0  0  0  0  0  0  0  0  0  0  0  0
   60.2760   33.5410   46.4360 C   0  0  0  0  0  0  0  0  0  0  0  0
   56.6970   30.9980   44.3270 N   0  0  0  0  0  0  0  0  0  0  0  0
   56.3360   29.7630   44.8010 C   0  0  0  0  0  0  0  0  0  0  0  0
   55.1320   29.4420   44.6620 N   0  0  0  0  0  0  0  0  0  0  0  0
   60.3970   26.7790   47.5785 H   0  0  0  0  0  0  0  0  0  0  0  0
   61.1364   26.1313   46.0750 H   0  0  0  0  0  0  0  0  0  0  0  0
   60.3826   27.7618   46.0750 H   0  0  0  0  0  0  0  0  0  0  0  0
   58.8909   26.1234   44.9986 H   0  0  0  0  0  0  0  0  0  0  0  0
   58.9323   25.0936   46.4607 H   0  0  0  0  0  0  0  0  0  0  0  0
   59.3618   28.8872   45.9161 H   0  0  0  0  0  0  0  0  0  0  0  0
   59.8920   31.0830   45.0480 H   0  0  0  0  0  0  0  0  0  0  0  0
   58.6342   35.0996   45.0609 H   0  0  0  0  0  0  0  0  0  0  0  0
   56.9220   34.7441   44.7210 H   0  0  0  0  0  0  0  0  0  0  0  0
   58.7907   33.3148   49.0810 H   0  0  0  0  0  0  0  0  0  0  0  0
   58.1431   31.8285   48.2843 H   0  0  0  0  0  0  0  0  0  0  0  0
   60.2607   31.4158   49.5310 H   0  0  0  0  0  0  0  0  0  0  0  0
   60.3979   31.0746   47.7702 H   0  0  0  0  0  0  0  0  0  0  0  0
   63.7541   34.0024   47.9801 H   0  0  0  0  0  0  0  0  0  0  0  0
   65.8734   33.5338   49.1264 H   0  0  0  0  0  0  0  0  0  0  0  0
   65.9840   31.7979   50.9184 H   0  0  0  0  0  0  0  0  0  0  0  0
   63.8935   30.5756   51.4949 H   0  0  0  0  0  0  0  0  0  0  0  0
   61.7716   31.0493   50.3439 H   0  0  0  0  0  0  0  0  0  0  0  0
   60.5690   34.7488   48.2257 H   0  0  0  0  0  0  0  0  0  0  0  0
   62.0586   34.4758   47.3093 H   0  0  0  0  0  0  0  0  0  0  0  0
   60.2127   34.3358   45.6782 H   0  0  0  0  0  0  0  0  0  0  0  0
   60.7129   32.6638   45.9364 H   0  0  0  0  0  0  0  0  0  0  0  0
   54.7700   28.5250   44.5030 H   0  0  0  0  0  0  0  0  0  0  0  0
  1  2  1  0
  2  3  1  0
  3  4  1  0
  4  5  2  0
  4  6  1  0
  6  7  2  0
  7  8  1  0
  8  9  1  0
  9 10  1  0
 10 11  1  0
 11 12  1  0
 12 13  2  0
 12 14  1  0
 14 15  1  0
 15 16  1  0
 16 17  1  0
 17 18  1  0
 18 19  2  0
 19 20  1  0
 20 21  2  0
 21 22  1  0
 22 23  2  0
 17 24  1  0
 24 25  1  0
  9 26  2  0
 26 27  1  0
 27 28  2  3
 27  6  1  0
 25 14  1  0
 23 18  1  0
  1 29  1  0
  1 30  1  0
  1 31  1  0
  2 32  1  0
  2 33  1  0
  7 34  1  0
  8 35  1  0
 11 36  1  0
 11 37  1  0
 15 38  1  0
 15 39  1  0
 16 40  1  0
 16 41  1  0
 19 42  1  0
 20 43  1  0
 21 44  1  0
 22 45  1  0
 23 46  1  0
 24 47  1  0
 24 48  1  0
 25 49  1  0
 25 50  1  0
 28 51  1  0
M  END
>  <smiles>  (85) 
CCOC(=O)c1c[nH]c(SCC(=O)N2CCN(c3ccccc3)CC2)nc1=N

>  <score_type>  (85) 
oracle

>  <origin>  (85) 
adg

>  <m_score__min__energy>  (85) 
-8.1699999999999999

>  <m_primary>  (85) 
energy

$$$$
85:0
     RDKit          3D

 45 48  0  0  0  0  0  0  0  0999 V2000
   58.5150   29.0440   48.5190 C   0  0  0  0  0  0  0  0  0  0  0  0
   58.7650   28.5660   47.2880 C   0  0  0  0  0  0  0  0  0  0  0  0
   58.5050   27.2670   46.8220 C   0  0  0  0  0  0  0  0  0  0  0  0
   57.7670   26.2700   47.3470 C   0  0  0  0  0  0  0  0  0  0  0  0
   56.4990   25.7660   46.7980 C   0  0  0  0  0  0  0  0  0  0  0  0
   56.1060   24.4820   46.8920 N   0  0  0  0  0  0  0  0  0  0  0  0
   54.9600   24.4540   46.1760 C   0  0  0  0  0  0  0  0  0  0  0  0
   54.2680   23.4100   46.0480 O   0  0  0  0  0  0  0  0  0  0  0  0
   54.6190   25.6300   45.6080 N   0  0  0  0  0  0  0  0  0  0  0  0
   55.6100   26.4470   45.9990 C   0  0  0  0  0  0  0  0  0  0  0  0
   55.7140   27.7770   45.6150 O   0  0  0  0  0  0  0  0  0  0  0  0
   59.2050   27.1360   45.6330 C   0  0  0  0  0  0  0  0  0  0  0  0
   59.7990   28.3540   45.3830 C   0  0  0  0  0  0  0  0  0  0  0  0
   60.7440   28.6150   44.2510 C   0  0  0  0  0  0  0  0  0  0  0  0
   59.5050   29.2350   46.3660 N   0  0  0  0  0  0  0  0  0  0  0  0
   60.0680   30.5520   46.4930 C   0  0  0  0  0  0  0  0  0  0  0  0
   61.2690   30.8530   47.0990 C   0  0  0  0  0  0  0  0  0  0  0  0
   61.4170   32.1910   47.1300 N   0  0  0  0  0  0  0  0  0  0  0  0
   60.3620   32.7400   46.5460 N   0  0  0  0  0  0  0  0  0  0  0  0
   60.1550   34.1850   46.5190 C   0  0  0  0  0  0  0  0  0  0  0  0
   59.5030   31.7700   46.1450 C   0  0  0  0  0  0  0  0  0  0  0  0
   57.9500   32.0430   45.3190 S   0  0  0  0  0  0  0  0  0  0  0  0
   57.0900   32.9390   46.1580 O   0  0  0  0  0  0  0  0  0  0  0  0
   58.2000   32.7560   44.0200 O   0  0  0  0  0  0  0  0  0  0  0  0
   57.0460   30.5800   44.9830 N   0  0  0  0  0  0  0  0  0  0  0  0
   55.8870   30.8090   44.1140 C   0  0  0  0  0  0  0  0  0  0  0  0
   56.4730   29.9950   42.9790 C   0  0  0  0  0  0  0  0  0  0  0  0
   57.6590   29.8040   43.9010 C   0  0  0  0  0  0  0  0  0  0  0  0
   58.7652   30.0864   48.7655 H   0  0  0  0  0  0  0  0  0  0  0  0
   58.0602   28.3928   49.2800 H   0  0  0  0  0  0  0  0  0  0  0  0
   58.1443   25.7926   48.2634 H   0  0  0  0  0  0  0  0  0  0  0  0
   59.2733   26.2329   45.0086 H   0  0  0  0  0  0  0  0  0  0  0  0
   61.7310   28.8876   44.6528 H   0  0  0  0  0  0  0  0  0  0  0  0
   60.8367   27.7088   43.6344 H   0  0  0  0  0  0  0  0  0  0  0  0
   60.3584   29.4403   43.6344 H   0  0  0  0  0  0  0  0  0  0  0  0
   61.9886   30.1201   47.4928 H   0  0  0  0  0  0  0  0  0  0  0  0
   60.1003   34.5669   47.5491 H   0  0  0  0  0  0  0  0  0  0  0  0
   60.9934   34.6658   45.9938 H   0  0  0  0  0  0  0  0  0  0  0  0
   59.2153   34.4110   45.9938 H   0  0  0  0  0  0  0  0  0  0  0  0
   54.9517   30.3904   44.5141 H   0  0  0  0  0  0  0  0  0  0  0  0
   55.5720   31.8439   43.9146 H   0  0  0  0  0  0  0  0  0  0  0  0
   55.9220   29.0763   42.7290 H   0  0  0  0  0  0  0  0  0  0  0  0
   56.5679   30.3796   41.9528 H   0  0  0  0  0  0  0  0  0  0  0  0
   57.8403   28.7521   44.1668 H   0  0  0  0  0  0  0  0  0  0  0  0
   58.6581   30.0939   43.5435 H   0  0  0  0  0  0  0  0  0  0  0  0
  1  2  2  0
  2  3  1  0
  3  4  2  3
  4  5  1  0
  5  6  1  0
  6  7  1  0
  7  8  2  0
  7  9  1  0
  9 10  1  0
 10 11  1  0
  3 12  1  0
 12 13  2  0
 13 14  1  0
 13 15  1  0
 15 16  1  0
 16 17  1  0
 17 18  2  0
 18 19  1  0
 19 20  1  0
 19 21  1  0
 21 22  1  0
 22 23  2  0
 22 24  2  0
 22 25  1  0
 25 26  1  0
 26 27  1  0
 27 28  1  0
 15  2  1  0
 21 16  2  0
 28 25  1  0
 10  5  2  0
  1 29  1  0
  1 30  1  0
  4 31  1  0
 12 32  1  0
 14 33  1  0
 14 34  1  0
 14 35  1  0
 17 36  1  0
 20 37  1  0
 20 38  1  0
 20 39  1  0
 26 40  1  0
 26 41  1  0
 27 42  1  0
 27 43  1  0
 28 44  1  0
 28 45  1  0
M  CHG  3   6  -1   9  -1  11  -1
M  END
>  <UniqueID>  (86) 
79

>  <SMILES>  (86) 
C=c1c(=Cc2[n-]c(=O)[n-]c2[O-])cc(C)n1-c1cnn(C)c1S(=O)(=O)N1CCC1

>  <Energy>  (86) 
223.47405143560604

>  <Genealogy>  (86) 
C=c1c(=Cc2[n-]c(=O)[n-]c2[O-])cc(C)n1-c1cnn(C)c1S(=O)(=O)N1CCC1 (protonated)
C=c1c(=Cc2[n-]c(=O)[n-]c2[O-])cc(C)n1-c1cnn(C)c1S(=O)(=O)N1CCC1 (3D coordinates assigned)
C=c1c(=Cc2[n-]c(=O)[n-]c2[O-])cc(C)n1-c1cnn(C)c1S(=O)(=O)N1CCC1 (nonaromatic ring conformer: 223.47405143560604 kcal/mol)

>  <smiles>  (86) 
C=c1c(=Cc2[nH]c(=O)[nH]c2O)cc(C)n1-c1cnn(C)c1S(=O)(=O)N1CCC1

>  <score_type>  (86) 
oracle

>  <origin>  (86) 
adg

>  <m_score__min__energy>  (86) 
-15.66

>  <m_primary>  (86) 
energy

$$$$
86:0
     RDKit          3D

 56 58  0  0  0  0  0  0  0  0999 V2000
   58.4860   34.5900   45.5920 C   0  0  0  0  0  0  0  0  0  0  0  0
   59.6230   34.3590   46.5430 C   0  0  0  0  0  0  0  0  0  0  0  0
   60.9060   34.0730   46.0530 C   0  0  0  0  0  0  0  0  0  0  0  0
   61.9650   33.8200   46.9370 C   0  0  0  0  0  0  0  0  0  0  0  0
   63.3460   33.5720   46.4070 C   0  0  0  0  0  0  0  0  0  0  0  0
   61.7370   33.8680   48.3200 C   0  0  0  0  0  0  0  0  0  0  0  0
   60.4510   34.1230   48.8210 C   0  0  0  0  0  0  0  0  0  0  0  0
   60.2090   34.1870   50.3060 C   0  0  0  0  0  0  0  0  0  0  0  0
   59.3270   33.0490   50.7550 C   0  0  0  0  0  0  0  0  0  0  0  0
   58.3630   33.2970   51.5290 O   0  0  0  0  0  0  0  0  0  0  0  0
   59.5780   31.6880   50.3480 N   0  0  0  0  0  0  0  0  0  0  0  0
   58.4440   30.8080   50.0520 C   0  0  0  0  0  0  0  0  0  0  0  0
   58.7690   29.3720   50.4730 C   0  0  0  0  0  0  0  0  0  0  0  0
   60.0380   28.8890   49.8800 N   0  0  0  0  0  0  0  0  0  0  0  0
   59.9320   28.6790   48.4060 C   0  0  0  0  0  0  0  0  0  0  0  0
   60.0560   29.9870   47.6000 C   0  0  0  0  0  0  0  0  0  0  0  0
   58.9720   30.1260   46.5620 C   0  0  0  0  0  0  0  0  0  0  0  0
   58.9490   31.2430   45.7120 C   0  0  0  0  0  0  0  0  0  0  0  0
   57.9670   31.3570   44.7260 C   0  0  0  0  0  0  0  0  0  0  0  0
   57.0020   30.3570   44.5770 C   0  0  0  0  0  0  0  0  0  0  0  0
   57.0150   29.2350   45.4170 C   0  0  0  0  0  0  0  0  0  0  0  0
   56.0330   28.2080   45.2590 N   0  0  0  0  0  0  0  0  0  0  0  0
   58.0010   29.1220   46.4080 C   0  0  0  0  0  0  0  0  0  0  0  0
   61.1600   29.7820   50.2630 C   0  0  0  0  0  0  0  0  0  0  0  0
   60.9120   31.2610   49.9140 C   0  0  0  0  0  0  0  0  0  0  0  0
   59.3990   34.3690   47.9270 C   0  0  0  0  0  0  0  0  0  0  0  0
   57.5638   34.7774   46.1616 H   0  0  0  0  0  0  0  0  0  0  0  0
   58.7091   35.4612   44.9585 H   0  0  0  0  0  0  0  0  0  0  0  0
   58.3514   33.7008   44.9585 H   0  0  0  0  0  0  0  0  0  0  0  0
   61.0827   34.0470   44.9676 H   0  0  0  0  0  0  0  0  0  0  0  0
   64.0443   33.4466   47.2476 H   0  0  0  0  0  0  0  0  0  0  0  0
   63.3445   32.6598   45.7923 H   0  0  0  0  0  0  0  0  0  0  0  0
   63.6620   34.4278   45.7923 H   0  0  0  0  0  0  0  0  0  0  0  0
   62.5721   33.7046   49.0171 H   0  0  0  0  0  0  0  0  0  0  0  0
   61.1734   34.1247   50.8315 H   0  0  0  0  0  0  0  0  0  0  0  0
   59.7056   35.1366   50.5403 H   0  0  0  0  0  0  0  0  0  0  0  0
   57.5586   31.1574   50.6034 H   0  0  0  0  0  0  0  0  0  0  0  0
   58.2438   30.8298   48.9706 H   0  0  0  0  0  0  0  0  0  0  0  0
   58.8533   29.3346   51.5691 H   0  0  0  0  0  0  0  0  0  0  0  0
   57.9583   28.7222   50.1116 H   0  0  0  0  0  0  0  0  0  0  0  0
   60.2240   27.9650   50.3380 H   0  0  0  0  0  0  0  0  0  0  0  0
   60.7344   27.9958   48.0908 H   0  0  0  0  0  0  0  0  0  0  0  0
   58.9343   28.2620   48.2043 H   0  0  0  0  0  0  0  0  0  0  0  0
   59.9915   30.8376   48.2945 H   0  0  0  0  0  0  0  0  0  0  0  0
   61.0227   29.9680   47.0755 H   0  0  0  0  0  0  0  0  0  0  0  0
   59.7077   32.0317   45.8232 H   0  0  0  0  0  0  0  0  0  0  0  0
   57.9528   32.2360   44.0648 H   0  0  0  0  0  0  0  0  0  0  0  0
   56.2304   30.4507   43.7986 H   0  0  0  0  0  0  0  0  0  0  0  0
   55.1560   28.2150   45.8260 H   0  0  0  0  0  0  0  0  0  0  0  0
   56.1740   27.4340   44.5720 H   0  0  0  0  0  0  0  0  0  0  0  0
   58.0143   28.2424   47.0684 H   0  0  0  0  0  0  0  0  0  0  0  0
   61.3145   29.7014   51.3491 H   0  0  0  0  0  0  0  0  0  0  0  0
   62.0423   29.4575   49.6919 H   0  0  0  0  0  0  0  0  0  0  0  0
   61.6691   31.8808   50.4166 H   0  0  0  0  0  0  0  0  0  0  0  0
   60.9793   31.3790   48.8224 H   0  0  0  0  0  0  0  0  0  0  0  0
   58.3897   34.5715   48.3148 H   0  0  0  0  0  0  0  0  0  0  0  0
  1  2  1  0
  2  3  2  0
  3  4  1  0
  4  5  1  0
  4  6  2  0
  6  7  1  0
  7  8  1  0
  8  9  1  0
  9 10  2  0
  9 11  1  0
 11 12  1  0
 12 13  1  0
 13 14  1  0
 14 15  1  0
 15 16  1  0
 16 17  1  0
 17 18  2  0
 18 19  1  0
 19 20  2  0
 20 21  1  0
 21 22  1  0
 21 23  2  0
 14 24  1  0
 24 25  1  0
  7 26  2  0
 26  2  1  0
 25 11  1  0
 23 17  1  0
  1 27  1  0
  1 28  1  0
  1 29  1  0
  3 30  1  0
  5 31  1  0
  5 32  1  0
  5 33  1  0
  6 34  1  0
  8 35  1  0
  8 36  1  0
 12 37  1  0
 12 38  1  0
 13 39  1  0
 13 40  1  0
 14 41  1  0
 15 42  1  0
 15 43  1  0
 16 44  1  0
 16 45  1  0
 18 46  1  0
 19 47  1  0
 20 48  1  0
 22 49  1  0
 22 50  1  0
 23 51  1  0
 24 52  1  0
 24 53  1  0
 25 54  1  0
 25 55  1  0
 26 56  1  0
M  CHG  1  14   1
M  END
>  <UniqueID>  (87) 
80

>  <SMILES>  (87) 
Cc1cc(C)cc(CC(=O)N2CC[NH+](CCc3cccc(N)c3)CC2)c1

>  <Energy>  (87) 
59.05631835536288

>  <Genealogy>  (87) 
Cc1cc(C)cc(CC(=O)N2CC[NH+](CCc3cccc(N)c3)CC2)c1 (protonated)
Cc1cc(C)cc(CC(=O)N2CC[NH+](CCc3cccc(N)c3)CC2)c1 (3D coordinates assigned)
Cc1cc(C)cc(CC(=O)N2CC[NH+](CCc3cccc(N)c3)CC2)c1 (nonaromatic ring conformer: 59.05631835536288 kcal/mol)

>  <smiles>  (87) 
Cc1cc(C)cc(CC(=O)N2CCN(CCc3cccc(N)c3)CC2)c1

>  <score_type>  (87) 
oracle

>  <origin>  (87) 
adg

>  <m_score__min__energy>  (87) 
-6.8600000000000003

>  <m_primary>  (87) 
energy

$$$$
