0:0
     RDKit          3D

 36 37  0  0  0  0  0  0  0  0999 V2000
   64.0620   33.1020   48.0400 C   0  0  0  0  0  0  0  0  0  0  0  0
   63.0100   33.5820   47.0860 C   0  0  0  0  0  0  0  0  0  0  0  0
   63.3800   34.0990   45.9960 O   0  0  0  0  0  0  0  0  0  0  0  0
   61.5600   33.4610   47.3900 C   0  0  0  0  0  0  0  0  0  0  0  0
   61.1300   33.2740   48.7180 C   0  0  0  0  0  0  0  0  0  0  0  0
   59.7690   33.1740   49.0180 C   0  0  0  0  0  0  0  0  0  0  0  0
   58.8170   33.2650   48.0000 C   0  0  0  0  0  0  0  0  0  0  0  0
   59.2240   33.4520   46.6740 C   0  0  0  0  0  0  0  0  0  0  0  0
   58.0230   33.5920   45.3920 S   0  0  0  0  0  0  0  0  0  0  0  0
   56.6550   33.6030   46.0120 O   0  0  0  0  0  0  0  0  0  0  0  0
   58.2240   34.8670   44.6210 O   0  0  0  0  0  0  0  0  0  0  0  0
   58.1450   32.2470   44.3020 N   0  0  0  0  0  0  0  0  0  0  0  0
   57.8670   30.8870   44.6780 C   0  0  0  0  0  0  0  0  0  0  0  0
   56.6040   30.3410   44.3990 C   0  0  0  0  0  0  0  0  0  0  0  0
   56.2970   29.0310   44.7740 C   0  0  0  0  0  0  0  0  0  0  0  0
   57.2500   28.2450   45.4340 C   0  0  0  0  0  0  0  0  0  0  0  0
   56.8680   26.5900   45.9000 S   0  0  0  0  0  0  0  0  0  0  0  0
   55.1540   26.3770   45.9210 N   0  0  0  0  0  0  0  0  0  0  0  0
   57.4240   26.3040   47.2670 O   0  0  0  0  0  0  0  0  0  0  0  0
   57.4830   25.6310   44.9190 O   0  0  0  0  0  0  0  0  0  0  0  0
   58.5180   28.7750   45.6980 C   0  0  0  0  0  0  0  0  0  0  0  0
   58.8280   30.0850   45.3230 C   0  0  0  0  0  0  0  0  0  0  0  0
   60.5900   33.5360   46.3710 C   0  0  0  0  0  0  0  0  0  0  0  0
   63.7189   33.2586   49.0733 H   0  0  0  0  0  0  0  0  0  0  0  0
   64.2467   32.0305   47.8734 H   0  0  0  0  0  0  0  0  0  0  0  0
   64.9924   33.6647   47.8734 H   0  0  0  0  0  0  0  0  0  0  0  0
   61.8726   33.2060   49.5267 H   0  0  0  0  0  0  0  0  0  0  0  0
   59.4464   33.0232   50.0588 H   0  0  0  0  0  0  0  0  0  0  0  0
   57.7463   33.1896   48.2407 H   0  0  0  0  0  0  0  0  0  0  0  0
   58.3160   32.4690   43.2960 H   0  0  0  0  0  0  0  0  0  0  0  0
   55.8493   30.9505   43.8803 H   0  0  0  0  0  0  0  0  0  0  0  0
   55.3035   28.6153   44.5502 H   0  0  0  0  0  0  0  0  0  0  0  0
   54.7690   27.0650   46.6070 H   0  0  0  0  0  0  0  0  0  0  0  0
   59.2748   28.1571   46.2034 H   0  0  0  0  0  0  0  0  0  0  0  0
   59.8282   30.4919   45.5328 H   0  0  0  0  0  0  0  0  0  0  0  0
   60.9083   33.6619   45.3256 H   0  0  0  0  0  0  0  0  0  0  0  0
  1  2  1  0
  2  3  2  0
  2  4  1  0
  4  5  2  0
  5  6  1  0
  6  7  2  0
  7  8  1  0
  8  9  1  0
  9 10  2  0
  9 11  2  0
  9 12  1  0
 12 13  1  0
 13 14  2  0
 14 15  1  0
 15 16  2  0
 16 17  1  0
 17 18  1  0
 17 19  2  0
 17 20  2  0
 16 21  1  0
 21 22  2  0
  8 23  2  0
 23  4  1  0
 22 13  1  0
  1 24  1  0
  1 25  1  0
  1 26  1  0
  5 27  1  0
  6 28  1  0
  7 29  1  0
 12 30  1  0
 14 31  1  0
 15 32  1  0
 18 33  1  0
 21 34  1  0
 22 35  1  0
 23 36  1  0
M  CHG  1  18  -1
M  END
>  <UniqueID>  (1) 
1

>  <SMILES>  (1) 
CC(=O)c1cccc(S(=O)(=O)Nc2ccc(S([NH-])(=O)=O)cc2)c1

>  <Energy>  (1) 
38.60534759638445

>  <Genealogy>  (1) 
CC(=O)c1cccc(S(=O)(=O)Nc2ccc(S([NH-])(=O)=O)cc2)c1 (protonated)
CC(=O)c1cccc(S(=O)(=O)Nc2ccc(S([NH-])(=O)=O)cc2)c1 (3D coordinates assigned)
CC(=O)c1cccc(S(=O)(=O)Nc2ccc(S([NH-])(=O)=O)cc2)c1 (optimized conformer: 38.60534759638445 kcal/mol)

>  <smiles>  (1) 
CC(=O)c1cccc(S(=O)(=O)Nc2ccc(S(N)(=O)=O)cc2)c1

>  <score_type>  (1) 
oracle

>  <origin>  (1) 
adg

>  <m_score__min__energy>  (1) 
-11.619999999999999

>  <m_primary>  (1) 
energy

$$$$
1:0
     RDKit          3D

 65 69  0  0  0  0  0  0  0  0999 V2000
   63.2270   33.8270   46.6420 C   0  0  0  0  0  0  0  0  0  0  0  0
   63.1470   32.9620   47.8660 C   0  0  0  0  0  0  0  0  0  0  0  0
   64.2550   32.8430   48.7200 C   0  0  0  0  0  0  0  0  0  0  0  0
   64.1970   32.0080   49.8490 C   0  0  0  0  0  0  0  0  0  0  0  0
   65.3710   31.8800   50.7730 C   0  0  0  0  0  0  0  0  0  0  0  0
   63.0190   31.2970   50.1210 C   0  0  0  0  0  0  0  0  0  0  0  0
   61.9120   31.4020   49.2670 C   0  0  0  0  0  0  0  0  0  0  0  0
   60.7110   30.6650   49.5630 N   0  0  0  0  0  0  0  0  0  0  0  0
   60.4690   29.4600   48.8010 C   0  0  0  0  0  0  0  0  0  0  0  0
   59.9800   28.4510   49.3800 O   0  0  0  0  0  0  0  0  0  0  0  0
   60.7030   29.3770   47.3140 C   0  0  0  0  0  0  0  0  0  0  0  0
   59.5090   29.7280   46.5400 N   0  0  0  0  0  0  0  0  0  0  0  0
   58.7060   30.7510   46.8220 N   0  0  0  0  0  0  0  0  0  0  0  0
   57.6580   30.8050   46.0040 N   0  0  0  0  0  0  0  0  0  0  0  0
   57.8060   29.7550   45.1760 C   0  0  0  0  0  0  0  0  0  0  0  0
   56.9990   29.3740   44.1100 C   0  0  0  0  0  0  0  0  0  0  0  0
   57.3960   28.2440   43.3700 C   0  0  0  0  0  0  0  0  0  0  0  0
   58.5650   27.5290   43.7220 C   0  0  0  0  0  0  0  0  0  0  0  0
   59.3530   27.9360   44.8160 C   0  0  0  0  0  0  0  0  0  0  0  0
   58.9410   29.0740   45.5110 C   0  0  0  0  0  0  0  0  0  0  0  0
   59.7540   31.1460   50.5880 C   0  0  2  0  0  0  0  0  0  0  0  0
   58.5650   31.8300   49.9460 C   0  0  0  0  0  0  0  0  0  0  0  0
   57.4320   31.7640   50.4950 O   0  0  0  0  0  0  0  0  0  0  0  0
   58.6790   32.5690   48.7230 N   0  0  0  0  0  0  0  0  0  0  0  0
   59.3350   33.8630   48.5560 C   0  0  0  0  0  0  0  0  0  0  0  0
   59.7700   34.0330   47.0950 C   0  0  2  0  0  0  0  0  0  0  0  0
   59.5230   35.4420   46.5870 C   0  0  0  0  0  0  0  0  0  0  0  0
   59.2610   35.2310   45.1240 C   0  0  0  0  0  0  0  0  0  0  0  0
   58.8850   33.7600   45.0250 C   0  0  0  0  0  0  0  0  0  0  0  0
   59.0570   33.1350   46.2770 O   0  0  0  0  0  0  0  0  0  0  0  0
   60.4080   32.0500   51.6070 C   0  0  0  0  0  0  0  0  0  0  0  0
   60.2150   33.4120   51.7490 C   0  0  0  0  0  0  0  0  0  0  0  0
   61.0270   33.7980   52.7900 C   0  0  0  0  0  0  0  0  0  0  0  0
   61.6700   32.6540   53.2160 C   0  0  0  0  0  0  0  0  0  0  0  0
   61.2840   31.6310   52.4910 O   0  0  0  0  0  0  0  0  0  0  0  0
   61.9890   32.2180   48.1290 C   0  0  0  0  0  0  0  0  0  0  0  0
   63.3244   34.8805   46.9432 H   0  0  0  0  0  0  0  0  0  0  0  0
   64.1019   33.5345   46.0429 H   0  0  0  0  0  0  0  0  0  0  0  0
   62.3133   33.7000   46.0429 H   0  0  0  0  0  0  0  0  0  0  0  0
   65.1744   33.4069   48.5041 H   0  0  0  0  0  0  0  0  0  0  0  0
   65.0228   31.9180   51.8157 H   0  0  0  0  0  0  0  0  0  0  0  0
   65.8784   30.9212   50.5905 H   0  0  0  0  0  0  0  0  0  0  0  0
   66.0731   32.7069   50.5905 H   0  0  0  0  0  0  0  0  0  0  0  0
   62.9632   30.6524   51.0106 H   0  0  0  0  0  0  0  0  0  0  0  0
   61.5145   30.0692   47.0449 H   0  0  0  0  0  0  0  0  0  0  0  0
   60.9646   28.3360   47.0733 H   0  0  0  0  0  0  0  0  0  0  0  0
   58.8710   31.4330   47.5940 H   0  0  0  0  0  0  0  0  0  0  0  0
   56.0867   29.9331   43.8549 H   0  0  0  0  0  0  0  0  0  0  0  0
   56.7925   27.9144   42.5114 H   0  0  0  0  0  0  0  0  0  0  0  0
   58.8612   26.6468   43.1356 H   0  0  0  0  0  0  0  0  0  0  0  0
   60.2555   27.3802   45.1104 H   0  0  0  0  0  0  0  0  0  0  0  0
   59.3948   30.2575   51.1280 H   0  0  0  0  0  0  0  0  0  0  0  0
   58.6339   34.6666   48.8254 H   0  0  0  0  0  0  0  0  0  0  0  0
   60.2188   33.9122   49.2090 H   0  0  0  0  0  0  0  0  0  0  0  0
   60.8501   33.8291   47.0529 H   0  0  0  0  0  0  0  0  0  0  0  0
   58.6520   35.8945   47.0836 H   0  0  0  0  0  0  0  0  0  0  0  0
   60.3607   36.1273   46.7835 H   0  0  0  0  0  0  0  0  0  0  0  0
   58.4347   35.8697   44.7788 H   0  0  0  0  0  0  0  0  0  0  0  0
   60.1275   35.4893   44.4975 H   0  0  0  0  0  0  0  0  0  0  0  0
   57.8331   33.6725   44.7152 H   0  0  0  0  0  0  0  0  0  0  0  0
   59.5332   33.2698   44.2837 H   0  0  0  0  0  0  0  0  0  0  0  0
   59.5498   34.0539   51.1528 H   0  0  0  0  0  0  0  0  0  0  0  0
   61.1406   34.8125   53.1996 H   0  0  0  0  0  0  0  0  0  0  0  0
   62.3972   32.6068   54.0400 H   0  0  0  0  0  0  0  0  0  0  0  0
   61.1347   32.2744   47.4383 H   0  0  0  0  0  0  0  0  0  0  0  0
  1  2  1  0
  2  3  2  0
  3  4  1  0
  4  5  1  0
  4  6  2  0
  6  7  1  0
  7  8  1  0
  8  9  1  0
  9 10  2  0
  9 11  1  0
 11 12  1  0
 12 13  1  0
 13 14  2  0
 14 15  1  0
 15 16  2  0
 16 17  1  0
 17 18  2  0
 18 19  1  0
 19 20  2  0
  8 21  1  0
 21 22  1  0
 22 23  2  0
 22 24  1  0
 24 25  1  0
 25 26  1  0
 26 27  1  0
 27 28  1  0
 28 29  1  0
 29 30  1  0
 21 31  1  0
 31 32  2  0
 32 33  1  0
 33 34  2  0
 34 35  1  0
  7 36  2  0
 36  2  1  0
 20 12  1  0
 30 26  1  0
 35 31  1  0
 20 15  1  0
  1 37  1  0
  1 38  1  0
  1 39  1  0
  3 40  1  0
  5 41  1  0
  5 42  1  0
  5 43  1  0
  6 44  1  0
 11 45  1  0
 11 46  1  0
 13 47  1  0
 16 48  1  0
 17 49  1  0
 18 50  1  0
 19 51  1  0
 21 52  1  1
 25 53  1  0
 25 54  1  0
 26 55  1  1
 27 56  1  0
 27 57  1  0
 28 58  1  0
 28 59  1  0
 29 60  1  0
 29 61  1  0
 32 62  1  0
 33 63  1  0
 34 64  1  0
 36 65  1  0
M  CHG  2  13   1  24  -1
M  END
>  <UniqueID>  (2) 
2

>  <SMILES>  (2) 
Cc1cc(C)cc(N(C(=O)Cn2[nH+]nc3ccccc32)[C@H](C(=O)[N-]C[C@@H]2CCCO2)c2ccco2)c1

>  <Energy>  (2) 
142.46069369654563

>  <Genealogy>  (2) 
Cc1cc(C)cc(N(C(=O)Cn2[nH+]nc3ccccc32)C(C(=O)[N-]CC2CCCO2)c2ccco2)c1 (protonated)
Cc1cc(C)cc(N(C(=O)Cn2[nH+]nc3ccccc32)[C@H](C(=O)[N-]C[C@@H]2CCCO2)c2ccco2)c1 (chirality)
Cc1cc(C)cc(N(C(=O)Cn2[nH+]nc3ccccc32)[C@H](C(=O)[N-]C[C@@H]2CCCO2)c2ccco2)c1 (3D coordinates assigned)
Cc1cc(C)cc(N(C(=O)Cn2[nH+]nc3ccccc32)[C@H](C(=O)[N-]C[C@@H]2CCCO2)c2ccco2)c1 (nonaromatic ring conformer: 142.46069369654563 kcal/mol)

>  <smiles>  (2) 
Cc1cc(C)cc(N(C(=O)Cn2nnc3ccccc32)C(C(=O)NCC2CCCO2)c2ccco2)c1

>  <score_type>  (2) 
oracle

>  <origin>  (2) 
adg

>  <m_score__min__energy>  (2) 
-8.8200000000000003

>  <m_primary>  (2) 
energy

$$$$
2:0
     RDKit          3D

 44 46  0  0  0  0  0  0  0  0999 V2000
   55.4670   30.2030   44.1340 C   0  0  0  0  0  0  0  0  0  0  0  0
   56.3580   29.4500   44.7840 C   0  0  0  0  0  0  0  0  0  0  0  0
   56.0690   28.2280   45.2800 N   0  0  0  0  0  0  0  0  0  0  0  0
   57.1460   27.7390   45.8750 N   0  0  0  0  0  0  0  0  0  0  0  0
   57.1970   26.4420   46.4940 C   0  0  0  0  0  0  0  0  0  0  0  0
   57.8190   26.3030   47.5820 O   0  0  0  0  0  0  0  0  0  0  0  0
   56.5390   25.2630   45.8890 C   0  0  0  0  0  0  0  0  0  0  0  0
   57.3180   24.1630   45.4950 C   0  0  0  0  0  0  0  0  0  0  0  0
   56.7160   23.0270   44.9160 C   0  0  0  0  0  0  0  0  0  0  0  0
   57.4550   21.9030   44.5200 O   0  0  0  0  0  0  0  0  0  0  0  0
   58.8280   21.9320   44.1460 C   0  0  0  0  0  0  0  0  0  0  0  0
   55.3300   23.0130   44.7270 C   0  0  0  0  0  0  0  0  0  0  0  0
   54.5510   24.1100   45.0980 C   0  0  0  0  0  0  0  0  0  0  0  0
   55.1480   25.2380   45.6670 C   0  0  0  0  0  0  0  0  0  0  0  0
   54.3550   26.3330   45.9910 O   0  0  0  0  0  0  0  0  0  0  0  0
   58.1480   28.6330   45.7460 C   0  0  0  0  0  0  0  0  0  0  0  0
   59.3100   28.4600   46.2050 O   0  0  0  0  0  0  0  0  0  0  0  0
   57.6980   29.7520   45.0520 C   0  0  0  0  0  0  0  0  0  0  0  0
   58.3630   30.8810   44.7370 C   0  0  0  0  0  0  0  0  0  0  0  0
   59.0420   31.7470   45.7200 C   0  0  0  0  0  0  0  0  0  0  0  0
   60.1930   31.3110   46.3950 C   0  0  0  0  0  0  0  0  0  0  0  0
   60.8510   32.1600   47.2900 C   0  0  0  0  0  0  0  0  0  0  0  0
   60.3780   33.4680   47.5050 C   0  0  0  0  0  0  0  0  0  0  0  0
   61.0000   34.3580   48.3940 O   0  0  0  0  0  0  0  0  0  0  0  0
   61.0290   34.1910   49.8080 C   0  0  0  0  0  0  0  0  0  0  0  0
   59.2480   33.9080   46.8050 C   0  0  0  0  0  0  0  0  0  0  0  0
   58.5890   33.0590   45.9110 C   0  0  0  0  0  0  0  0  0  0  0  0
   55.7581   31.1922   43.7509 H   0  0  0  0  0  0  0  0  0  0  0  0
   54.4420   29.8341   43.9817 H   0  0  0  0  0  0  0  0  0  0  0  0
   55.1460   27.7390   45.2240 H   0  0  0  0  0  0  0  0  0  0  0  0
   58.4082   24.1878   45.6394 H   0  0  0  0  0  0  0  0  0  0  0  0
   59.4542   21.9452   45.0503 H   0  0  0  0  0  0  0  0  0  0  0  0
   59.0644   21.0386   43.5493 H   0  0  0  0  0  0  0  0  0  0  0  0
   59.0265   22.8345   43.5493 H   0  0  0  0  0  0  0  0  0  0  0  0
   54.8497   22.1292   44.2819 H   0  0  0  0  0  0  0  0  0  0  0  0
   53.4624   24.0865   44.9418 H   0  0  0  0  0  0  0  0  0  0  0  0
   58.4022   31.1762   43.6781 H   0  0  0  0  0  0  0  0  0  0  0  0
   60.5792   30.2962   46.2189 H   0  0  0  0  0  0  0  0  0  0  0  0
   61.7419   31.8042   47.8283 H   0  0  0  0  0  0  0  0  0  0  0  0
   60.8603   35.1625   50.2955 H   0  0  0  0  0  0  0  0  0  0  0  0
   60.2396   33.4871   50.1103 H   0  0  0  0  0  0  0  0  0  0  0  0
   62.0095   33.7944   50.1103 H   0  0  0  0  0  0  0  0  0  0  0  0
   58.8753   34.9313   46.9600 H   0  0  0  0  0  0  0  0  0  0  0  0
   57.7118   33.4223   45.3556 H   0  0  0  0  0  0  0  0  0  0  0  0
  1  2  2  0
  2  3  1  0
  3  4  1  0
  4  5  1  0
  5  6  2  0
  5  7  1  0
  7  8  2  0
  8  9  1  0
  9 10  1  0
 10 11  1  0
  9 12  2  0
 12 13  1  0
 13 14  2  0
 14 15  1  0
  4 16  1  0
 16 17  2  0
 16 18  1  0
 18 19  2  3
 19 20  1  0
 20 21  2  0
 21 22  1  0
 22 23  2  0
 23 24  1  0
 24 25  1  0
 23 26  1  0
 26 27  2  0
 18  2  1  0
 27 20  1  0
 14  7  1  0
  1 28  1  0
  1 29  1  0
  3 30  1  0
  8 31  1  0
 11 32  1  0
 11 33  1  0
 11 34  1  0
 12 35  1  0
 13 36  1  0
 19 37  1  0
 21 38  1  0
 22 39  1  0
 25 40  1  0
 25 41  1  0
 25 42  1  0
 26 43  1  0
 27 44  1  0
M  CHG  1  15  -1
M  END
>  <UniqueID>  (3) 
3

>  <SMILES>  (3) 
C=c1[nH]n(C(=O)c2cc(OC)ccc2[O-])c(=O)c1=Cc1ccc(OC)cc1

>  <Energy>  (3) 
95.66420522214997

>  <Genealogy>  (3) 
C=c1[nH]n(C(=O)c2cc(OC)ccc2[O-])c(=O)c1=Cc1ccc(OC)cc1 (protonated)
C=c1[nH]n(C(=O)c2cc(OC)ccc2[O-])c(=O)c1=Cc1ccc(OC)cc1 (3D coordinates assigned)
C=c1[nH]n(C(=O)c2cc(OC)ccc2[O-])c(=O)c1=Cc1ccc(OC)cc1 (optimized conformer: 95.66420522214997 kcal/mol)

>  <smiles>  (3) 
C=c1[nH]n(C(=O)c2cc(OC)ccc2O)c(=O)c1=Cc1ccc(OC)cc1

>  <score_type>  (3) 
oracle

>  <origin>  (3) 
adg

>  <m_score__min__energy>  (3) 
-11.93

>  <m_primary>  (3) 
energy

$$$$
3:0
     RDKit          3D

 44 46  0  0  0  0  0  0  0  0999 V2000
   64.1900   32.3729   45.8425 H   0  0  0  0  0  0  0  0  0  0  0  0
   63.7210   32.6640   46.7940 C   0  0  0  0  0  0  0  0  0  0  0  0
   63.7570   34.1980   47.4830 S   0  0  0  0  0  0  0  0  0  0  0  0
   62.8580   33.8250   48.8530 C   0  0  0  0  0  0  0  0  0  0  0  0
   62.5862   34.5223   49.6592 H   0  0  0  0  0  0  0  0  0  0  0  0
   62.5180   32.4750   48.7860 C   0  0  0  0  0  0  0  0  0  0  0  0
   61.6330   31.8030   49.7960 C   0  0  0  0  0  0  0  0  0  0  0  0
   61.4906   32.4721   50.6574 H   0  0  0  0  0  0  0  0  0  0  0  0
   62.1076   30.8665   50.1241 H   0  0  0  0  0  0  0  0  0  0  0  0
   60.3340   31.4980   49.2010 N   0  0  0  0  0  0  0  0  0  0  0  0
   60.3570   30.9420   48.3180 H   0  0  0  0  0  0  0  0  0  0  0  0
   59.2120   32.3730   49.3980 C   0  0  0  0  0  0  0  0  0  0  0  0
   58.5270   32.3470   50.5060 N   0  0  0  0  0  0  0  0  0  0  0  0
   58.8100   33.1680   51.6770 C   0  0  0  0  0  0  0  0  0  0  0  0
   58.6097   32.5869   52.5893 H   0  0  0  0  0  0  0  0  0  0  0  0
   59.8660   33.4756   51.6626 H   0  0  0  0  0  0  0  0  0  0  0  0
   58.1678   34.0610   51.6626 H   0  0  0  0  0  0  0  0  0  0  0  0
   58.9230   33.4500   48.3800 C   0  0  1  0  0  0  0  0  0  0  0  0
   58.2383   34.1220   48.9181 H   0  0  0  0  0  0  0  0  0  0  0  0
   60.0960   34.1210   47.9890 O   0  0  0  0  0  0  0  0  0  0  0  0
   59.7750   34.7480   46.7740 C   0  0  0  0  0  0  0  0  0  0  0  0
   59.6093   35.8228   46.9395 H   0  0  0  0  0  0  0  0  0  0  0  0
   60.5967   34.6318   46.0520 H   0  0  0  0  0  0  0  0  0  0  0  0
   58.5040   34.1040   46.2420 C   0  0  0  0  0  0  0  0  0  0  0  0
   57.6777   34.8300   46.2346 H   0  0  0  0  0  0  0  0  0  0  0  0
   58.6246   33.7500   45.2075 H   0  0  0  0  0  0  0  0  0  0  0  0
   58.2150   33.0090   47.1630 N   0  0  1  0  0  0  0  0  0  0  0  0
   57.1850   32.9510   47.3450 H   0  0  0  0  0  0  0  0  0  0  0  0
   58.7540   31.4720   46.4880 S   0  0  0  0  0  0  0  0  0  0  0  0
   60.2410   31.5110   46.2760 O   0  0  0  0  0  0  0  0  0  0  0  0
   58.4780   30.3700   47.4740 O   0  0  0  0  0  0  0  0  0  0  0  0
   57.9590   31.0590   44.9650 C   0  0  0  0  0  0  0  0  0  0  0  0
   58.1140   31.8880   43.8430 C   0  0  0  0  0  0  0  0  0  0  0  0
   58.7502   32.7831   43.9068 H   0  0  0  0  0  0  0  0  0  0  0  0
   57.4620   31.5800   42.6430 C   0  0  0  0  0  0  0  0  0  0  0  0
   57.5957   32.2266   41.7632 H   0  0  0  0  0  0  0  0  0  0  0  0
   56.6410   30.4510   42.5620 C   0  0  0  0  0  0  0  0  0  0  0  0
   56.1332   30.2063   41.6174 H   0  0  0  0  0  0  0  0  0  0  0  0
   56.4660   29.6330   43.6830 C   0  0  0  0  0  0  0  0  0  0  0  0
   55.8176   28.7467   43.6205 H   0  0  0  0  0  0  0  0  0  0  0  0
   57.1150   29.9410   44.8840 C   0  0  0  0  0  0  0  0  0  0  0  0
   56.9629   29.3042   45.7679 H   0  0  0  0  0  0  0  0  0  0  0  0
   62.9970   31.8290   47.6340 C   0  0  0  0  0  0  0  0  0  0  0  0
   62.8160   30.7656   47.4187 H   0  0  0  0  0  0  0  0  0  0  0  0
  1  2  1  0
  2  3  1  0
  3  4  1  0
  4  5  1  0
  4  6  2  0
  6  7  1  0
  7  8  1  0
  7  9  1  0
  7 10  1  0
 10 11  1  0
 10 12  1  0
 12 13  2  0
 13 14  1  0
 14 15  1  0
 14 16  1  0
 14 17  1  0
 12 18  1  0
 18 19  1  1
 18 20  1  0
 20 21  1  0
 21 22  1  0
 21 23  1  0
 21 24  1  0
 24 25  1  0
 24 26  1  0
 24 27  1  0
 27 28  1  1
 27 29  1  0
 29 30  2  0
 29 31  2  0
 29 32  1  0
 32 33  2  0
 33 34  1  0
 33 35  1  0
 35 36  1  0
 35 37  2  0
 37 38  1  0
 37 39  1  0
 39 40  1  0
 39 41  2  0
 41 42  1  0
  6 43  1  0
 43 44  1  0
 43  2  2  0
 27 18  1  0
 41 32  1  0
M  CHG  1  27   1
M  END
>  <UniqueID>  (4) 
4

>  <SMILES>  (4) 
C/N=C(\NCc1ccsc1)[C@H]1OCC[N@H+]1S(=O)(=O)c1ccccc1

>  <Energy>  (4) 
77.21798253654231

>  <Genealogy>  (4) 
CN=C(NCc1ccsc1)C1OCC[NH+]1S(=O)(=O)c1ccccc1 (protonated)
CN=C(NCc1ccsc1)[C@H]1OCC[N@H+]1S(=O)(=O)c1ccccc1 (chirality)
C/N=C(\NCc1ccsc1)[C@H]1OCC[N@H+]1S(=O)(=O)c1ccccc1 (cis-trans isomerization)
C/N=C(\NCc1ccsc1)[C@H]1OCC[N@H+]1S(=O)(=O)c1ccccc1 (3D coordinates assigned)
C/N=C(\NCc1ccsc1)[C@H]1OCC[N@H+]1S(=O)(=O)c1ccccc1 (nonaromatic ring conformer: 77.21798253654231 kcal/mol)

>  <smiles>  (4) 
CN=C(NCc1ccsc1)C1OCCN1S(=O)(=O)c1ccccc1

>  <score_type>  (4) 
oracle

>  <origin>  (4) 
adg

>  <m_score__min__energy>  (4) 
-6.0899999999999999

>  <m_primary>  (4) 
energy

$$$$
4:0
     RDKit          3D

 57 60  0  0  0  0  0  0  0  0999 V2000
   64.1330   33.0190   47.9890 C   0  0  0  0  0  0  0  0  0  0  0  0
   62.7250   33.4980   48.1100 C   0  0  0  0  0  0  0  0  0  0  0  0
   61.8010   33.3260   47.1930 O   0  0  0  0  0  0  0  0  0  0  0  0
   60.6950   33.8830   47.6430 C   0  0  0  0  0  0  0  0  0  0  0  0
   59.4200   33.8850   46.8850 C   0  0  0  0  0  0  0  0  0  0  0  0
   59.4060   34.3380   45.5530 C   0  0  0  0  0  0  0  0  0  0  0  0
   58.2180   34.3400   44.8180 C   0  0  0  0  0  0  0  0  0  0  0  0
   57.0320   33.8960   45.4020 C   0  0  0  0  0  0  0  0  0  0  0  0
   57.0300   33.4510   46.7270 C   0  0  0  0  0  0  0  0  0  0  0  0
   58.2150   33.4420   47.4670 C   0  0  0  0  0  0  0  0  0  0  0  0
   60.8760   34.4290   48.8650 N   0  0  0  0  0  0  0  0  0  0  0  0
   62.1580   34.1750   49.1700 C   0  0  0  0  0  0  0  0  0  0  0  0
   62.8240   34.6080   50.4420 C   0  0  0  0  0  0  0  0  0  0  0  0
   62.7930   33.4810   51.4770 C   0  0  0  0  0  0  0  0  0  0  0  0
   61.5240   33.4380   52.1310 O   0  0  0  0  0  0  0  0  0  0  0  0
   60.3730   32.8070   51.6300 C   0  0  0  0  0  0  0  0  0  0  0  0
   59.0700   33.2450   51.9390 C   0  0  0  0  0  0  0  0  0  0  0  0
   57.9600   32.5610   51.4330 C   0  0  0  0  0  0  0  0  0  0  0  0
   58.1330   31.4450   50.6120 C   0  0  0  0  0  0  0  0  0  0  0  0
   59.4250   31.0100   50.2780 C   0  0  0  0  0  0  0  0  0  0  0  0
   59.6120   29.7930   49.4120 C   0  0  0  0  0  0  0  0  0  0  0  0
   59.6760   30.1830   47.9680 C   0  0  0  0  0  0  0  0  0  0  0  0
   60.6190   30.9150   47.5620 O   0  0  0  0  0  0  0  0  0  0  0  0
   58.6350   29.7650   47.0760 N   0  0  0  0  0  0  0  0  0  0  0  0
   58.5380   28.5010   46.3950 C   0  0  0  0  0  0  0  0  0  0  0  0
   59.4220   27.4480   46.7100 C   0  0  0  0  0  0  0  0  0  0  0  0
   59.3030   26.2070   46.0850 C   0  0  0  0  0  0  0  0  0  0  0  0
   58.2860   25.9850   45.1560 C   0  0  0  0  0  0  0  0  0  0  0  0
   57.3800   27.0040   44.8530 C   0  0  0  0  0  0  0  0  0  0  0  0
   57.4870   28.2710   45.4660 C   0  0  0  0  0  0  0  0  0  0  0  0
   56.4980   29.3280   45.1150 C   0  0  0  0  0  0  0  0  0  0  0  0
   56.8570   30.5350   45.0360 O   0  0  0  0  0  0  0  0  0  0  0  0
   55.1600   29.0170   44.8800 O   0  0  0  0  0  0  0  0  0  0  0  0
   60.5390   31.6890   50.8000 C   0  0  0  0  0  0  0  0  0  0  0  0
   64.5586   32.8742   48.9929 H   0  0  0  0  0  0  0  0  0  0  0  0
   64.1499   32.0646   47.4424 H   0  0  0  0  0  0  0  0  0  0  0  0
   64.7284   33.7651   47.4424 H   0  0  0  0  0  0  0  0  0  0  0  0
   60.3370   34.6931   45.0871 H   0  0  0  0  0  0  0  0  0  0  0  0
   58.2181   34.6927   43.7761 H   0  0  0  0  0  0  0  0  0  0  0  0
   56.0985   33.8960   44.8201 H   0  0  0  0  0  0  0  0  0  0  0  0
   56.0927   33.1069   47.1885 H   0  0  0  0  0  0  0  0  0  0  0  0
   58.2076   33.0877   48.5083 H   0  0  0  0  0  0  0  0  0  0  0  0
   60.1800   34.9260   49.4700 H   0  0  0  0  0  0  0  0  0  0  0  0
   63.8697   34.8752   50.2297 H   0  0  0  0  0  0  0  0  0  0  0  0
   62.2840   35.4765   50.8472 H   0  0  0  0  0  0  0  0  0  0  0  0
   62.9728   32.5205   50.9719 H   0  0  0  0  0  0  0  0  0  0  0  0
   63.5747   33.6661   52.2285 H   0  0  0  0  0  0  0  0  0  0  0  0
   58.9254   34.1272   52.5799 H   0  0  0  0  0  0  0  0  0  0  0  0
   56.9453   32.9041   51.6832 H   0  0  0  0  0  0  0  0  0  0  0  0
   57.2552   30.9058   50.2263 H   0  0  0  0  0  0  0  0  0  0  0  0
   60.5486   29.2891   49.6929 H   0  0  0  0  0  0  0  0  0  0  0  0
   58.7581   29.1156   49.5605 H   0  0  0  0  0  0  0  0  0  0  0  0
   60.2138   27.6074   47.4567 H   0  0  0  0  0  0  0  0  0  0  0  0
   60.0125   25.4014   46.3250 H   0  0  0  0  0  0  0  0  0  0  0  0
   58.1976   25.0063   44.6616 H   0  0  0  0  0  0  0  0  0  0  0  0
   56.5738   26.8170   44.1283 H   0  0  0  0  0  0  0  0  0  0  0  0
   61.5528   31.3396   50.5548 H   0  0  0  0  0  0  0  0  0  0  0  0
  1  2  1  0
  2  3  1  0
  3  4  1  0
  4  5  1  0
  5  6  2  0
  6  7  1  0
  7  8  2  0
  8  9  1  0
  9 10  2  0
  4 11  2  0
 11 12  1  0
 12 13  1  0
 13 14  1  0
 14 15  1  0
 15 16  1  0
 16 17  2  0
 17 18  1  0
 18 19  2  0
 19 20  1  0
 20 21  1  0
 21 22  1  0
 22 23  2  0
 22 24  1  0
 24 25  1  0
 25 26  2  0
 26 27  1  0
 27 28  2  0
 28 29  1  0
 29 30  2  0
 30 31  1  0
 31 32  2  0
 31 33  1  0
 20 34  2  0
 12  2  2  0
 34 16  1  0
 10  5  1  0
 30 25  1  0
  1 35  1  0
  1 36  1  0
  1 37  1  0
  6 38  1  0
  7 39  1  0
  8 40  1  0
  9 41  1  0
 10 42  1  0
 11 43  1  0
 13 44  1  0
 13 45  1  0
 14 46  1  0
 14 47  1  0
 17 48  1  0
 18 49  1  0
 19 50  1  0
 21 51  1  0
 21 52  1  0
 26 53  1  0
 27 54  1  0
 28 55  1  0
 29 56  1  0
 34 57  1  0
M  CHG  3  11   1  24  -1  33  -1
M  END
>  <UniqueID>  (5) 
5

>  <SMILES>  (5) 
Cc1oc(-c2ccccc2)[nH+]c1CCOc1cccc(CC(=O)[N-]c2ccccc2C(=O)[O-])c1

>  <Energy>  (5) 
94.81019908477896

>  <Genealogy>  (5) 
Cc1oc(-c2ccccc2)[nH+]c1CCOc1cccc(CC(=O)[N-]c2ccccc2C(=O)[O-])c1 (protonated)
Cc1oc(-c2ccccc2)[nH+]c1CCOc1cccc(CC(=O)[N-]c2ccccc2C(=O)[O-])c1 (3D coordinates assigned)
Cc1oc(-c2ccccc2)[nH+]c1CCOc1cccc(CC(=O)[N-]c2ccccc2C(=O)[O-])c1 (optimized conformer: 94.81019908477896 kcal/mol)

>  <smiles>  (5) 
Cc1oc(-c2ccccc2)nc1CCOc1cccc(CC(=O)Nc2ccccc2C(=O)O)c1

>  <score_type>  (5) 
oracle

>  <origin>  (5) 
adg

>  <m_score__min__energy>  (5) 
-13.09

>  <m_primary>  (5) 
energy

$$$$
5:0
     RDKit          3D

 45 47  0  0  0  0  0  0  0  0999 V2000
   59.6340   34.6170   45.7430 C   0  0  0  0  0  0  0  0  0  0  0  0
   58.8940   33.3820   45.3040 C   0  0  0  0  0  0  0  0  0  0  0  0
   58.5030   33.2640   43.9630 C   0  0  0  0  0  0  0  0  0  0  0  0
   57.7910   32.1470   43.5270 C   0  0  0  0  0  0  0  0  0  0  0  0
   57.4570   31.1290   44.4230 C   0  0  0  0  0  0  0  0  0  0  0  0
   56.5370   29.7410   43.8610 S   0  0  0  0  0  0  0  0  0  0  0  0
   55.4720   29.3800   44.8620 O   0  0  0  0  0  0  0  0  0  0  0  0
   55.8730   30.0770   42.5530 O   0  0  0  0  0  0  0  0  0  0  0  0
   57.5880   28.3820   43.6270 N   0  0  0  0  0  0  0  0  0  0  0  0
   58.4940   27.9790   44.6580 C   0  0  0  0  0  0  0  0  0  0  0  0
   59.4690   28.8460   45.0500 N   0  0  0  0  0  0  0  0  0  0  0  0
   60.3940   28.5130   45.9890 C   0  0  0  0  0  0  0  0  0  0  0  0
   60.3710   27.2470   46.5730 C   0  0  0  0  0  0  0  0  0  0  0  0
   59.3750   26.3370   46.2010 C   0  0  0  0  0  0  0  0  0  0  0  0
   58.4190   26.6930   45.2360 C   0  0  0  0  0  0  0  0  0  0  0  0
   57.3090   25.8130   44.9690 N   0  0  0  0  0  0  0  0  0  0  0  0
   56.3050   25.6590   46.0340 C   0  0  0  0  0  0  0  0  0  0  0  0
   55.3550   24.4760   45.8020 C   0  0  0  0  0  0  0  0  0  0  0  0
   55.9890   23.4400   45.0810 O   0  0  0  0  0  0  0  0  0  0  0  0
   56.2620   23.8970   43.7750 C   0  0  0  0  0  0  0  0  0  0  0  0
   57.3880   24.9290   43.7950 C   0  0  0  0  0  0  0  0  0  0  0  0
   57.8210   31.2450   45.7690 C   0  0  0  0  0  0  0  0  0  0  0  0
   58.5250   32.3710   46.2240 C   0  0  0  0  0  0  0  0  0  0  0  0
   58.9220   32.4510   47.6770 C   0  0  0  0  0  0  0  0  0  0  0  0
   59.6588   34.6584   46.8419 H   0  0  0  0  0  0  0  0  0  0  0  0
   60.6624   34.5860   45.3539 H   0  0  0  0  0  0  0  0  0  0  0  0
   59.1216   35.5092   45.3539 H   0  0  0  0  0  0  0  0  0  0  0  0
   58.7601   34.0596   43.2482 H   0  0  0  0  0  0  0  0  0  0  0  0
   57.4908   32.0673   42.4718 H   0  0  0  0  0  0  0  0  0  0  0  0
   57.2810   27.6600   42.9390 H   0  0  0  0  0  0  0  0  0  0  0  0
   61.1609   29.2426   46.2882 H   0  0  0  0  0  0  0  0  0  0  0  0
   61.1288   26.9661   47.3193 H   0  0  0  0  0  0  0  0  0  0  0  0
   59.3409   25.3405   46.6656 H   0  0  0  0  0  0  0  0  0  0  0  0
   56.8289   25.5048   46.9889 H   0  0  0  0  0  0  0  0  0  0  0  0
   55.6933   26.5732   46.0416 H   0  0  0  0  0  0  0  0  0  0  0  0
   55.0260   24.0848   46.7760 H   0  0  0  0  0  0  0  0  0  0  0  0
   54.4961   24.8317   45.2140 H   0  0  0  0  0  0  0  0  0  0  0  0
   56.5631   23.0445   43.1485 H   0  0  0  0  0  0  0  0  0  0  0  0
   55.3556   24.3666   43.3652 H   0  0  0  0  0  0  0  0  0  0  0  0
   58.3527   24.4008   43.8132 H   0  0  0  0  0  0  0  0  0  0  0  0
   57.2911   25.5531   42.8944 H   0  0  0  0  0  0  0  0  0  0  0  0
   57.5531   30.4468   46.4769 H   0  0  0  0  0  0  0  0  0  0  0  0
   58.0392   32.2731   48.3086 H   0  0  0  0  0  0  0  0  0  0  0  0
   59.6856   31.6887   47.8910 H   0  0  0  0  0  0  0  0  0  0  0  0
   59.3307   33.4496   47.8910 H   0  0  0  0  0  0  0  0  0  0  0  0
  1  2  1  0
  2  3  2  0
  3  4  1  0
  4  5  2  0
  5  6  1  0
  6  7  2  0
  6  8  2  0
  6  9  1  0
  9 10  1  0
 10 11  2  0
 11 12  1  0
 12 13  2  0
 13 14  1  0
 14 15  2  0
 15 16  1  0
 16 17  1  0
 17 18  1  0
 18 19  1  0
 19 20  1  0
 20 21  1  0
  5 22  1  0
 22 23  2  0
 23 24  1  0
 23  2  1  0
 15 10  1  0
 21 16  1  0
  1 25  1  0
  1 26  1  0
  1 27  1  0
  3 28  1  0
  4 29  1  0
  9 30  1  0
 12 31  1  0
 13 32  1  0
 14 33  1  0
 17 34  1  0
 17 35  1  0
 18 36  1  0
 18 37  1  0
 20 38  1  0
 20 39  1  0
 21 40  1  0
 21 41  1  0
 22 42  1  0
 24 43  1  0
 24 44  1  0
 24 45  1  0
M  END
>  <UniqueID>  (6) 
6

>  <SMILES>  (6) 
Cc1ccc(S(=O)(=O)Nc2ncccc2N2CCOCC2)cc1C

>  <Energy>  (6) 
59.65718972121689

>  <Genealogy>  (6) 
Cc1ccc(S(=O)(=O)Nc2ncccc2N2CCOCC2)cc1C (3D coordinates assigned)
Cc1ccc(S(=O)(=O)Nc2ncccc2N2CCOCC2)cc1C (nonaromatic ring conformer: 59.65718972121689 kcal/mol)

>  <smiles>  (6) 
Cc1ccc(S(=O)(=O)Nc2ncccc2N2CCOCC2)cc1C

>  <score_type>  (6) 
oracle

>  <origin>  (6) 
adg

>  <m_score__min__energy>  (6) 
-8.5600000000000005

>  <m_primary>  (6) 
energy

$$$$
6:0
     RDKit          3D

 43 45  0  0  0  0  0  0  0  0999 V2000
   54.9310   25.3000   45.6230 C   0  0  0  0  0  0  0  0  0  0  0  0
   55.4600   26.5770   45.9650 O   0  0  0  0  0  0  0  0  0  0  0  0
   56.7990   26.8250   46.3100 C   0  0  0  0  0  0  0  0  0  0  0  0
   57.5500   25.8810   47.0410 C   0  0  0  0  0  0  0  0  0  0  0  0
   58.8760   26.1400   47.3850 C   0  0  0  0  0  0  0  0  0  0  0  0
   59.4740   27.3400   47.0080 C   0  0  0  0  0  0  0  0  0  0  0  0
   58.7490   28.2860   46.2840 C   0  0  0  0  0  0  0  0  0  0  0  0
   57.4080   28.0460   45.9200 C   0  0  0  0  0  0  0  0  0  0  0  0
   56.6690   29.0790   45.1430 C   0  0  0  0  0  0  0  0  0  0  0  0
   55.4260   28.9740   44.9640 O   0  0  0  0  0  0  0  0  0  0  0  0
   57.3850   30.1710   44.5470 N   0  0  0  0  0  0  0  0  0  0  0  0
   57.7040   31.4260   45.1650 C   0  0  0  0  0  0  0  0  0  0  0  0
   57.0230   32.6130   44.8410 C   0  0  0  0  0  0  0  0  0  0  0  0
   57.3560   33.8100   45.4780 C   0  0  0  0  0  0  0  0  0  0  0  0
   58.3520   33.8330   46.4570 C   0  0  0  0  0  0  0  0  0  0  0  0
   59.0090   32.6470   46.8260 C   0  0  0  0  0  0  0  0  0  0  0  0
   60.0460   32.6430   47.8230 N   0  0  0  0  0  0  0  0  0  0  0  0
   60.8220   33.8020   48.1730 C   0  0  0  0  0  0  0  0  0  0  0  0
   60.3660   34.9540   47.9350 O   0  0  0  0  0  0  0  0  0  0  0  0
   62.1320   33.6630   48.8550 C   0  0  0  0  0  0  0  0  0  0  0  0
   63.2030   33.0220   48.2060 C   0  0  0  0  0  0  0  0  0  0  0  0
   64.4390   32.8810   48.8450 C   0  0  0  0  0  0  0  0  0  0  0  0
   64.6170   33.3690   50.1410 C   0  0  0  0  0  0  0  0  0  0  0  0
   63.5590   33.9970   50.8020 C   0  0  0  0  0  0  0  0  0  0  0  0
   62.3210   34.1420   50.1660 C   0  0  0  0  0  0  0  0  0  0  0  0
   58.6830   31.4510   46.1660 C   0  0  0  0  0  0  0  0  0  0  0  0
   54.6995   24.7410   46.5417 H   0  0  0  0  0  0  0  0  0  0  0  0
   54.0127   25.4300   45.0316 H   0  0  0  0  0  0  0  0  0  0  0  0
   55.6722   24.7425   45.0316 H   0  0  0  0  0  0  0  0  0  0  0  0
   57.0848   24.9310   47.3427 H   0  0  0  0  0  0  0  0  0  0  0  0
   59.4509   25.3954   47.9551 H   0  0  0  0  0  0  0  0  0  0  0  0
   60.5201   27.5419   47.2818 H   0  0  0  0  0  0  0  0  0  0  0  0
   59.2295   29.2318   45.9931 H   0  0  0  0  0  0  0  0  0  0  0  0
   56.2256   32.5984   44.0834 H   0  0  0  0  0  0  0  0  0  0  0  0
   56.8319   34.7386   45.2078 H   0  0  0  0  0  0  0  0  0  0  0  0
   58.6230   34.7830   46.9409 H   0  0  0  0  0  0  0  0  0  0  0  0
   60.1640   31.7810   48.4020 H   0  0  0  0  0  0  0  0  0  0  0  0
   63.0672   32.6285   47.1878 H   0  0  0  0  0  0  0  0  0  0  0  0
   65.2722   32.3849   48.3258 H   0  0  0  0  0  0  0  0  0  0  0  0
   65.5904   33.2589   50.6414 H   0  0  0  0  0  0  0  0  0  0  0  0
   63.6991   34.3783   51.8242 H   0  0  0  0  0  0  0  0  0  0  0  0
   61.4900   34.6333   50.6933 H   0  0  0  0  0  0  0  0  0  0  0  0
   59.2037   30.5213   46.4390 H   0  0  0  0  0  0  0  0  0  0  0  0
  1  2  1  0
  2  3  1  0
  3  4  2  0
  4  5  1  0
  5  6  2  0
  6  7  1  0
  7  8  2  0
  8  9  1  0
  9 10  2  0
  9 11  1  0
 11 12  1  0
 12 13  2  0
 13 14  1  0
 14 15  2  0
 15 16  1  0
 16 17  1  0
 17 18  1  0
 18 19  2  0
 18 20  1  0
 20 21  2  0
 21 22  1  0
 22 23  2  0
 23 24  1  0
 24 25  2  0
 16 26  2  0
  8  3  1  0
 26 12  1  0
 25 20  1  0
  1 27  1  0
  1 28  1  0
  1 29  1  0
  4 30  1  0
  5 31  1  0
  6 32  1  0
  7 33  1  0
 13 34  1  0
 14 35  1  0
 15 36  1  0
 17 37  1  0
 21 38  1  0
 22 39  1  0
 23 40  1  0
 24 41  1  0
 25 42  1  0
 26 43  1  0
M  CHG  1  11  -1
M  END
>  <UniqueID>  (7) 
7

>  <SMILES>  (7) 
COc1ccccc1C(=O)[N-]c1cccc(NC(=O)c2ccccc2)c1

>  <Energy>  (7) 
57.20281896016203

>  <Genealogy>  (7) 
COc1ccccc1C(=O)[N-]c1cccc(NC(=O)c2ccccc2)c1 (protonated)
COc1ccccc1C(=O)[N-]c1cccc(NC(=O)c2ccccc2)c1 (3D coordinates assigned)
COc1ccccc1C(=O)[N-]c1cccc(NC(=O)c2ccccc2)c1 (optimized conformer: 57.20281896016203 kcal/mol)

>  <smiles>  (7) 
COc1ccccc1C(=O)Nc1cccc(NC(=O)c2ccccc2)c1

>  <score_type>  (7) 
oracle

>  <origin>  (7) 
adg

>  <m_score__min__energy>  (7) 
-10.539999999999999

>  <m_primary>  (7) 
energy

$$$$
7:0
     RDKit          3D

 53 56  0  0  0  0  0  0  0  0999 V2000
   55.0570   19.6960   47.7950 N   0  0  0  0  0  0  0  0  0  0  0  0
   55.3440   21.0920   47.6480 C   0  0  0  0  0  0  0  0  0  0  0  0
   56.5660   21.5950   48.1210 C   0  0  0  0  0  0  0  0  0  0  0  0
   56.8720   22.9510   47.9920 C   0  0  0  0  0  0  0  0  0  0  0  0
   55.9570   23.8310   47.4040 C   0  0  0  0  0  0  0  0  0  0  0  0
   56.3230   25.2100   47.2580 N   0  0  0  0  0  0  0  0  0  0  0  0
   55.8130   26.1210   46.2740 C   0  0  0  0  0  0  0  0  0  0  0  0
   54.6360   25.9960   45.8390 O   0  0  0  0  0  0  0  0  0  0  0  0
   56.7030   27.2190   45.7610 C   0  0  1  0  0  0  0  0  0  0  0  0
   57.7090   26.7010   44.7170 C   0  0  0  0  0  0  0  0  0  0  0  0
   58.1200   25.2870   45.0140 C   0  0  0  0  0  0  0  0  0  0  0  0
   59.1540   24.8820   45.8520 C   0  0  0  0  0  0  0  0  0  0  0  0
   59.3090   23.5390   45.7960 N   0  0  0  0  0  0  0  0  0  0  0  0
   58.3930   23.0950   44.9210 C   0  0  0  0  0  0  0  0  0  0  0  0
   58.1840   21.7790   44.5100 C   0  0  0  0  0  0  0  0  0  0  0  0
   57.1770   21.5400   43.5580 C   0  0  0  0  0  0  0  0  0  0  0  0
   56.4090   22.6090   43.0430 C   0  0  0  0  0  0  0  0  0  0  0  0
   56.6440   23.9280   43.4750 C   0  0  0  0  0  0  0  0  0  0  0  0
   57.6470   24.1320   44.4210 C   0  0  0  0  0  0  0  0  0  0  0  0
   55.9220   28.3440   45.2420 N   0  0  0  0  0  0  0  0  0  0  0  0
   56.4090   29.6460   44.8890 C   0  0  0  0  0  0  0  0  0  0  0  0
   55.6250   30.5450   44.4820 O   0  0  0  0  0  0  0  0  0  0  0  0
   57.8750   29.9330   44.9990 C   0  0  0  0  0  0  0  0  0  0  0  0
   58.1080   31.3870   45.3200 C   0  0  0  0  0  0  0  0  0  0  0  0
   58.4340   31.7780   46.6310 C   0  0  0  0  0  0  0  0  0  0  0  0
   58.6560   33.1260   46.9290 C   0  0  0  0  0  0  0  0  0  0  0  0
   58.5610   34.0900   45.9220 C   0  0  0  0  0  0  0  0  0  0  0  0
   58.2450   33.7100   44.6140 C   0  0  0  0  0  0  0  0  0  0  0  0
   58.0220   32.3630   44.3110 C   0  0  0  0  0  0  0  0  0  0  0  0
   54.7400   23.3290   46.9080 C   0  0  0  0  0  0  0  0  0  0  0  0
   54.4290   21.9690   47.0320 C   0  0  0  0  0  0  0  0  0  0  0  0
   52.8900   21.4020   46.3930 Cl  0  0  0  0  0  0  0  0  0  0  0  0
   55.7180   18.9580   47.4710 H   0  0  0  0  0  0  0  0  0  0  0  0
   54.1660   19.3840   48.2460 H   0  0  0  0  0  0  0  0  0  0  0  0
   57.2882   20.9155   48.5971 H   0  0  0  0  0  0  0  0  0  0  0  0
   57.8387   23.3300   48.3550 H   0  0  0  0  0  0  0  0  0  0  0  0
   57.2870   27.5886   46.6168 H   0  0  0  0  0  0  0  0  0  0  0  0
   57.2435   26.7377   43.7210 H   0  0  0  0  0  0  0  0  0  0  0  0
   58.6048   27.3385   44.7500 H   0  0  0  0  0  0  0  0  0  0  0  0
   59.7601   25.5583   46.4727 H   0  0  0  0  0  0  0  0  0  0  0  0
   60.0130   22.9680   46.3190 H   0  0  0  0  0  0  0  0  0  0  0  0
   58.7874   20.9544   44.9173 H   0  0  0  0  0  0  0  0  0  0  0  0
   56.9856   20.5137   43.2116 H   0  0  0  0  0  0  0  0  0  0  0  0
   55.6228   22.4090   42.3001 H   0  0  0  0  0  0  0  0  0  0  0  0
   56.0559   24.7692   43.0793 H   0  0  0  0  0  0  0  0  0  0  0  0
   58.3059   29.3126   45.7987 H   0  0  0  0  0  0  0  0  0  0  0  0
   58.3551   29.7008   44.0369 H   0  0  0  0  0  0  0  0  0  0  0  0
   58.5146   31.0207   47.4248 H   0  0  0  0  0  0  0  0  0  0  0  0
   58.9056   33.4278   47.9569 H   0  0  0  0  0  0  0  0  0  0  0  0
   58.7352   35.1500   46.1587 H   0  0  0  0  0  0  0  0  0  0  0  0
   58.1718   34.4709   43.8230 H   0  0  0  0  0  0  0  0  0  0  0  0
   57.7786   32.0659   43.2802 H   0  0  0  0  0  0  0  0  0  0  0  0
   54.0274   24.0096   46.4192 H   0  0  0  0  0  0  0  0  0  0  0  0
  1  2  1  0
  2  3  2  0
  3  4  1  0
  4  5  2  0
  5  6  1  0
  6  7  1  0
  7  8  2  0
  7  9  1  0
  9 10  1  0
 10 11  1  0
 11 12  2  0
 12 13  1  0
 13 14  1  0
 14 15  2  0
 15 16  1  0
 16 17  2  0
 17 18  1  0
 18 19  2  0
  9 20  1  0
 20 21  1  0
 21 22  2  0
 21 23  1  0
 23 24  1  0
 24 25  2  0
 25 26  1  0
 26 27  2  0
 27 28  1  0
 28 29  2  0
  5 30  1  0
 30 31  2  0
 31 32  1  0
 31  2  1  0
 19 11  1  0
 29 24  1  0
 19 14  1  0
  1 33  1  0
  1 34  1  0
  3 35  1  0
  4 36  1  0
  9 37  1  1
 10 38  1  0
 10 39  1  0
 12 40  1  0
 13 41  1  0
 15 42  1  0
 16 43  1  0
 17 44  1  0
 18 45  1  0
 23 46  1  0
 23 47  1  0
 25 48  1  0
 26 49  1  0
 27 50  1  0
 28 51  1  0
 29 52  1  0
 30 53  1  0
M  CHG  2   6  -1  20  -1
M  END
>  <UniqueID>  (8) 
8

>  <SMILES>  (8) 
Nc1ccc([N-]C(=O)[C@@H](Cc2c[nH]c3ccccc23)[N-]C(=O)Cc2ccccc2)cc1Cl

>  <Energy>  (8) 
88.82991938929615

>  <Genealogy>  (8) 
Nc1ccc([N-]C(=O)C(Cc2c[nH]c3ccccc23)[N-]C(=O)Cc2ccccc2)cc1Cl (protonated)
Nc1ccc([N-]C(=O)[C@@H](Cc2c[nH]c3ccccc23)[N-]C(=O)Cc2ccccc2)cc1Cl (chirality)
Nc1ccc([N-]C(=O)[C@@H](Cc2c[nH]c3ccccc23)[N-]C(=O)Cc2ccccc2)cc1Cl (3D coordinates assigned)
Nc1ccc([N-]C(=O)[C@@H](Cc2c[nH]c3ccccc23)[N-]C(=O)Cc2ccccc2)cc1Cl (optimized conformer: 88.82991938929615 kcal/mol)

>  <smiles>  (8) 
Nc1ccc(NC(=O)C(Cc2c[nH]c3ccccc23)NC(=O)Cc2ccccc2)cc1Cl

>  <score_type>  (8) 
oracle

>  <origin>  (8) 
adg

>  <m_score__min__energy>  (8) 
-13.19

>  <m_primary>  (8) 
energy

$$$$
8:0
     RDKit          3D

 44 47  0  0  0  0  0  0  0  0999 V2000
   55.5290   29.7160   43.3590 C   0  0  0  0  0  0  0  0  0  0  0  0
   56.7890   29.8760   44.1570 C   0  0  0  0  0  0  0  0  0  0  0  0
   57.4810   28.7470   44.6100 C   0  0  0  0  0  0  0  0  0  0  0  0
   58.6310   28.8920   45.3820 C   0  0  0  0  0  0  0  0  0  0  0  0
   59.0990   30.1650   45.7220 C   0  0  0  0  0  0  0  0  0  0  0  0
   60.2160   30.2680   46.4820 N   0  0  0  0  0  0  0  0  0  0  0  0
   60.7370   31.4590   46.8640 C   0  0  0  0  0  0  0  0  0  0  0  0
   61.9060   31.4580   47.6960 N   0  0  0  0  0  0  0  0  0  0  0  0
   61.7500   31.2800   49.1440 C   0  0  0  0  0  0  0  0  0  0  0  0
   63.0710   31.5300   49.8820 C   0  0  0  0  0  0  0  0  0  0  0  0
   63.7030   32.8540   49.4120 C   0  0  0  0  0  0  0  0  0  0  0  0
   65.0300   33.1000   50.1390 C   0  0  0  0  0  0  0  0  0  0  0  0
   63.8860   32.9200   47.8680 C   0  0  0  0  0  0  0  0  0  0  0  0
   63.2210   31.7570   47.1180 C   0  0  0  0  0  0  0  0  0  0  0  0
   60.1200   32.6580   46.4530 C   0  0  0  0  0  0  0  0  0  0  0  0
   60.6740   33.9080   46.7970 C   0  0  0  0  0  0  0  0  0  0  0  0
   60.0580   35.0900   46.3940 C   0  0  0  0  0  0  0  0  0  0  0  0
   58.8910   35.0470   45.6410 C   0  0  0  0  0  0  0  0  0  0  0  0
   58.3330   33.8220   45.2730 C   0  0  0  0  0  0  0  0  0  0  0  0
   58.9350   32.6000   45.6640 C   0  0  0  0  0  0  0  0  0  0  0  0
   58.4120   31.3270   45.2910 C   0  0  0  0  0  0  0  0  0  0  0  0
   57.2430   31.1570   44.5100 C   0  0  0  0  0  0  0  0  0  0  0  0
   54.6737   29.6074   44.0421 H   0  0  0  0  0  0  0  0  0  0  0  0
   55.3815   30.6026   42.7249 H   0  0  0  0  0  0  0  0  0  0  0  0
   55.6078   28.8206   42.7249 H   0  0  0  0  0  0  0  0  0  0  0  0
   57.1152   27.7414   44.3553 H   0  0  0  0  0  0  0  0  0  0  0  0
   59.1744   27.9997   45.7264 H   0  0  0  0  0  0  0  0  0  0  0  0
   60.9939   31.9888   49.5127 H   0  0  0  0  0  0  0  0  0  0  0  0
   61.4369   30.2428   49.3344 H   0  0  0  0  0  0  0  0  0  0  0  0
   62.8780   31.5837   50.9636 H   0  0  0  0  0  0  0  0  0  0  0  0
   63.7648   30.7047   49.6639 H   0  0  0  0  0  0  0  0  0  0  0  0
   63.0004   33.6591   49.6730 H   0  0  0  0  0  0  0  0  0  0  0  0
   64.8638   33.0692   51.2259 H   0  0  0  0  0  0  0  0  0  0  0  0
   65.7529   32.3206   49.8564 H   0  0  0  0  0  0  0  0  0  0  0  0
   65.4255   34.0868   49.8564 H   0  0  0  0  0  0  0  0  0  0  0  0
   63.4484   33.8621   47.5063 H   0  0  0  0  0  0  0  0  0  0  0  0
   64.9659   32.8556   47.6690 H   0  0  0  0  0  0  0  0  0  0  0  0
   63.0974   32.0320   46.0601 H   0  0  0  0  0  0  0  0  0  0  0  0
   63.8594   30.8655   47.2060 H   0  0  0  0  0  0  0  0  0  0  0  0
   61.6004   33.9499   47.3886 H   0  0  0  0  0  0  0  0  0  0  0  0
   60.4962   36.0598   46.6723 H   0  0  0  0  0  0  0  0  0  0  0  0
   58.4041   35.9841   45.3331 H   0  0  0  0  0  0  0  0  0  0  0  0
   57.4127   33.8046   44.6708 H   0  0  0  0  0  0  0  0  0  0  0  0
   56.6821   32.0419   44.1748 H   0  0  0  0  0  0  0  0  0  0  0  0
  1  2  1  0
  2  3  2  0
  3  4  1  0
  4  5  2  0
  5  6  1  0
  6  7  2  0
  7  8  1  0
  8  9  1  0
  9 10  1  0
 10 11  1  0
 11 12  1  0
 11 13  1  0
 13 14  1  0
  7 15  1  0
 15 16  2  0
 16 17  1  0
 17 18  2  0
 18 19  1  0
 19 20  2  0
 20 21  1  0
 21 22  2  0
 22  2  1  0
 21  5  1  0
 14  8  1  0
 20 15  1  0
  1 23  1  0
  1 24  1  0
  1 25  1  0
  3 26  1  0
  4 27  1  0
  9 28  1  0
  9 29  1  0
 10 30  1  0
 10 31  1  0
 11 32  1  0
 12 33  1  0
 12 34  1  0
 12 35  1  0
 13 36  1  0
 13 37  1  0
 14 38  1  0
 14 39  1  0
 16 40  1  0
 17 41  1  0
 18 42  1  0
 19 43  1  0
 22 44  1  0
M  END
>  <UniqueID>  (9) 
9

>  <SMILES>  (9) 
Cc1ccc2nc(N3CCC(C)CC3)c3ccccc3c2c1

>  <Energy>  (9) 
63.595008298803485

>  <Genealogy>  (9) 
Cc1ccc2nc(N3CCC(C)CC3)c3ccccc3c2c1 (3D coordinates assigned)
Cc1ccc2nc(N3CCC(C)CC3)c3ccccc3c2c1 (nonaromatic ring conformer: 63.595008298803485 kcal/mol)

>  <smiles>  (9) 
Cc1ccc2nc(N3CCC(C)CC3)c3ccccc3c2c1

>  <score_type>  (9) 
oracle

>  <origin>  (9) 
adg

>  <m_score__min__energy>  (9) 
-8.1799999999999997

>  <m_primary>  (9) 
energy

$$$$
9:0
     RDKit          3D

 28 30  0  0  0  0  0  0  0  0999 V2000
   54.7140   27.7800   52.8530 O   0  0  0  0  0  0  0  0  0  0  0  0
   54.8150   29.0190   52.6600 C   0  0  0  0  0  0  0  0  0  0  0  0
   56.0740   29.6060   52.7930 C   0  0  0  0  0  0  0  0  0  0  0  0
   56.2350   30.9710   52.5170 C   0  0  0  0  0  0  0  0  0  0  0  0
   57.5510   31.6470   52.6430 C   0  0  0  0  0  0  0  0  0  0  0  0
   57.6600   33.0160   52.3360 C   0  0  0  0  0  0  0  0  0  0  0  0
   58.8870   33.6750   52.4540 C   0  0  0  0  0  0  0  0  0  0  0  0
   60.0170   32.9810   52.8900 C   0  0  0  0  0  0  0  0  0  0  0  0
   59.9210   31.6260   53.2130 C   0  0  0  0  0  0  0  0  0  0  0  0
   58.6970   30.9600   53.0950 C   0  0  0  0  0  0  0  0  0  0  0  0
   55.1880   31.6810   52.1110 O   0  0  0  0  0  0  0  0  0  0  0  0
   53.9670   31.1740   51.9740 C   0  0  0  0  0  0  0  0  0  0  0  0
   52.9440   32.0070   51.5160 C   0  0  0  0  0  0  0  0  0  0  0  0
   51.6550   31.5100   51.3450 C   0  0  0  0  0  0  0  0  0  0  0  0
   50.6480   32.3410   50.8700 O   0  0  0  0  0  0  0  0  0  0  0  0
   51.3730   30.1810   51.6580 C   0  0  0  0  0  0  0  0  0  0  0  0
   52.3690   29.3300   52.1530 C   0  0  0  0  0  0  0  0  0  0  0  0
   51.9630   28.0420   52.5180 O   0  0  0  0  0  0  0  0  0  0  0  0
   53.7060   29.8120   52.2810 C   0  0  0  0  0  0  0  0  0  0  0  0
   56.9353   29.0010   53.1126 H   0  0  0  0  0  0  0  0  0  0  0  0
   56.7722   33.5721   52.0004 H   0  0  0  0  0  0  0  0  0  0  0  0
   58.9624   34.7432   52.2026 H   0  0  0  0  0  0  0  0  0  0  0  0
   60.9822   33.5011   52.9790 H   0  0  0  0  0  0  0  0  0  0  0  0
   60.8107   31.0808   53.5613 H   0  0  0  0  0  0  0  0  0  0  0  0
   58.6275   29.8937   53.3563 H   0  0  0  0  0  0  0  0  0  0  0  0
   53.1580   33.0619   51.2891 H   0  0  0  0  0  0  0  0  0  0  0  0
   50.3530   29.7951   51.5140 H   0  0  0  0  0  0  0  0  0  0  0  0
   52.5380   27.2160   52.4510 H   0  0  0  0  0  0  0  0  0  0  0  0
  1  2  2  0
  2  3  1  0
  3  4  2  0
  4  5  1  0
  5  6  2  0
  6  7  1  0
  7  8  2  0
  8  9  1  0
  9 10  2  0
  4 11  1  0
 11 12  1  0
 12 13  2  0
 13 14  1  0
 14 15  1  0
 14 16  2  0
 16 17  1  0
 17 18  1  0
 17 19  2  0
 19  2  1  0
 10  5  1  0
 19 12  1  0
  3 20  1  0
  6 21  1  0
  7 22  1  0
  8 23  1  0
  9 24  1  0
 10 25  1  0
 13 26  1  0
 16 27  1  0
 18 28  1  0
M  CHG  1  15  -1
M  END
>  <UniqueID>  (10) 
10

>  <SMILES>  (10) 
O=c1cc(-c2ccccc2)oc2cc([O-])cc(O)c12

>  <Energy>  (10) 
46.02219600825178

>  <Genealogy>  (10) 
O=c1cc(-c2ccccc2)oc2cc([O-])cc(O)c12 (protonated)
O=c1cc(-c2ccccc2)oc2cc([O-])cc(O)c12 (3D coordinates assigned)
O=c1cc(-c2ccccc2)oc2cc([O-])cc(O)c12 (optimized conformer: 46.02219600825178 kcal/mol)

>  <smiles>  (10) 
O=c1cc(-c2ccccc2)oc2cc(O)cc(O)c12

>  <score_type>  (10) 
oracle

>  <origin>  (10) 
adg

>  <m_score__min__energy>  (10) 
-9.3200000000000003

>  <m_primary>  (10) 
energy

$$$$
10:0
     RDKit          3D

 38 40  0  0  0  0  0  0  0  0999 V2000
   55.4920   29.5660   44.8740 O   0  0  0  0  0  0  0  0  0  0  0  0
   56.5490   30.1660   44.5430 C   0  0  0  0  0  0  0  0  0  0  0  0
   57.7480   29.3650   44.1200 C   0  0  0  0  0  0  0  0  0  0  0  0
   58.8430   29.7180   44.9390 O   0  0  0  0  0  0  0  0  0  0  0  0
   58.8930   28.9010   46.0880 C   0  0  0  0  0  0  0  0  0  0  0  0
   59.7950   29.5650   47.0880 C   0  0  0  0  0  0  0  0  0  0  0  0
   60.8430   30.3920   46.6510 C   0  0  0  0  0  0  0  0  0  0  0  0
   61.7420   30.9350   47.5740 C   0  0  0  0  0  0  0  0  0  0  0  0
   61.6100   30.6470   48.9360 C   0  0  0  0  0  0  0  0  0  0  0  0
   60.5750   29.8180   49.3770 C   0  0  0  0  0  0  0  0  0  0  0  0
   59.6730   29.2740   48.4580 C   0  0  0  0  0  0  0  0  0  0  0  0
   56.5830   31.5990   44.5990 N   0  0  0  0  0  0  0  0  0  0  0  0
   57.6060   32.3580   45.2560 C   0  0  0  0  0  0  0  0  0  0  0  0
   58.4970   33.1510   44.5180 C   0  0  0  0  0  0  0  0  0  0  0  0
   59.5290   33.8390   45.1610 C   0  0  0  0  0  0  0  0  0  0  0  0
   59.6870   33.7350   46.5510 C   0  0  0  0  0  0  0  0  0  0  0  0
   60.7150   34.3750   47.1830 N   0  0  0  0  0  0  0  0  0  0  0  0
   60.8960   34.2690   48.5300 C   0  0  0  0  0  0  0  0  0  0  0  0
   61.8570   34.8670   49.0840 O   0  0  0  0  0  0  0  0  0  0  0  0
   60.0200   33.4990   49.3000 C   0  0  0  0  0  0  0  0  0  0  0  0
   58.9580   32.8390   48.6830 C   0  0  0  0  0  0  0  0  0  0  0  0
   58.7800   32.9490   47.2980 C   0  0  0  0  0  0  0  0  0  0  0  0
   57.7320   32.2800   46.6480 C   0  0  0  0  0  0  0  0  0  0  0  0
   57.5338   28.2918   44.2315 H   0  0  0  0  0  0  0  0  0  0  0  0
   57.9857   29.5757   43.0669 H   0  0  0  0  0  0  0  0  0  0  0  0
   57.8839   28.7893   46.5113 H   0  0  0  0  0  0  0  0  0  0  0  0
   59.2754   27.9021   45.8313 H   0  0  0  0  0  0  0  0  0  0  0  0
   60.9567   30.6131   45.5795 H   0  0  0  0  0  0  0  0  0  0  0  0
   62.5550   31.5902   47.2280 H   0  0  0  0  0  0  0  0  0  0  0  0
   62.3205   31.0727   49.6599 H   0  0  0  0  0  0  0  0  0  0  0  0
   60.4700   29.5933   50.4487 H   0  0  0  0  0  0  0  0  0  0  0  0
   58.8644   28.6155   48.8082 H   0  0  0  0  0  0  0  0  0  0  0  0
   58.3826   33.2316   43.4269 H   0  0  0  0  0  0  0  0  0  0  0  0
   60.2195   34.4640   44.5757 H   0  0  0  0  0  0  0  0  0  0  0  0
   61.3870   34.9530   46.6280 H   0  0  0  0  0  0  0  0  0  0  0  0
   60.1675   33.4141   50.3868 H   0  0  0  0  0  0  0  0  0  0  0  0
   58.2619   32.2336   49.2822 H   0  0  0  0  0  0  0  0  0  0  0  0
   57.0083   31.6934   47.2330 H   0  0  0  0  0  0  0  0  0  0  0  0
  1  2  2  0
  2  3  1  0
  3  4  1  0
  4  5  1  0
  5  6  1  0
  6  7  2  0
  7  8  1  0
  8  9  2  0
  9 10  1  0
 10 11  2  0
  2 12  1  0
 12 13  1  0
 13 14  2  0
 14 15  1  0
 15 16  2  0
 16 17  1  0
 17 18  1  0
 18 19  2  0
 18 20  1  0
 20 21  2  0
 21 22  1  0
 22 23  2  0
 11  6  1  0
 23 13  1  0
 22 16  1  0
  3 24  1  0
  3 25  1  0
  5 26  1  0
  5 27  1  0
  7 28  1  0
  8 29  1  0
  9 30  1  0
 10 31  1  0
 11 32  1  0
 14 33  1  0
 15 34  1  0
 17 35  1  0
 20 36  1  0
 21 37  1  0
 23 38  1  0
M  CHG  1  12  -1
M  END
>  <UniqueID>  (11) 
11

>  <SMILES>  (11) 
O=C(COCc1ccccc1)[N-]c1ccc2[nH]c(=O)ccc2c1

>  <Energy>  (11) 
45.81573691485333

>  <Genealogy>  (11) 
O=C(COCc1ccccc1)[N-]c1ccc2[nH]c(=O)ccc2c1 (protonated)
O=C(COCc1ccccc1)[N-]c1ccc2[nH]c(=O)ccc2c1 (3D coordinates assigned)
O=C(COCc1ccccc1)[N-]c1ccc2[nH]c(=O)ccc2c1 (optimized conformer: 45.81573691485333 kcal/mol)

>  <smiles>  (11) 
O=C(COCc1ccccc1)Nc1ccc2[nH]c(=O)ccc2c1

>  <score_type>  (11) 
oracle

>  <origin>  (11) 
adg

>  <m_score__min__energy>  (11) 
-9.8699999999999992

>  <m_primary>  (11) 
energy

$$$$
11:0
     RDKit          3D

 41 44  0  0  0  0  0  0  0  0999 V2000
   61.1700   30.1230   49.6200 C   0  0  0  0  0  0  0  0  0  0  0  0
   60.8380   30.7260   48.3740 O   0  0  0  0  0  0  0  0  0  0  0  0
   61.5770   31.7500   47.7580 C   0  0  0  0  0  0  0  0  0  0  0  0
   62.9870   31.7390   47.7530 C   0  0  0  0  0  0  0  0  0  0  0  0
   63.7020   32.7720   47.1440 C   0  0  0  0  0  0  0  0  0  0  0  0
   63.0250   33.8290   46.5380 C   0  0  0  0  0  0  0  0  0  0  0  0
   61.6300   33.8540   46.5320 C   0  0  0  0  0  0  0  0  0  0  0  0
   60.8910   32.8150   47.1280 C   0  0  0  0  0  0  0  0  0  0  0  0
   59.3800   32.8750   47.1070 C   0  0  0  0  0  0  0  0  0  0  0  0
   58.8170   32.2890   45.8270 C   0  0  0  0  0  0  0  0  0  0  0  0
   58.3000   33.1080   44.7750 C   0  0  0  0  0  0  0  0  0  0  0  0
   58.2920   34.6100   44.8880 C   0  0  0  0  0  0  0  0  0  0  0  0
   57.7750   32.5280   43.6420 N   0  0  0  0  0  0  0  0  0  0  0  0
   57.7240   31.1770   43.4670 C   0  0  0  0  0  0  0  0  0  0  0  0
   58.2160   30.3670   44.4760 C   0  0  0  0  0  0  0  0  0  0  0  0
   58.7490   30.8980   45.6310 C   0  0  0  0  0  0  0  0  0  0  0  0
   59.1500   29.9120   46.4750 N   0  0  0  0  0  0  0  0  0  0  0  0
   58.8590   28.7670   45.8240 C   0  0  0  0  0  0  0  0  0  0  0  0
   59.0780   27.5110   46.2860 N   0  0  0  0  0  0  0  0  0  0  0  0
   58.7210   26.4450   45.5060 C   0  0  0  0  0  0  0  0  0  0  0  0
   58.1290   26.6470   44.2360 C   0  0  0  0  0  0  0  0  0  0  0  0
   57.9040   27.9530   43.7680 C   0  0  0  0  0  0  0  0  0  0  0  0
   58.2880   29.0000   44.5980 C   0  0  0  0  0  0  0  0  0  0  0  0
   60.8177   30.7629   50.4424 H   0  0  0  0  0  0  0  0  0  0  0  0
   60.6876   29.1369   49.6902 H   0  0  0  0  0  0  0  0  0  0  0  0
   62.2612   30.0032   49.6902 H   0  0  0  0  0  0  0  0  0  0  0  0
   63.5279   30.9100   48.2327 H   0  0  0  0  0  0  0  0  0  0  0  0
   64.8018   32.7517   47.1424 H   0  0  0  0  0  0  0  0  0  0  0  0
   63.5912   34.6443   46.0640 H   0  0  0  0  0  0  0  0  0  0  0  0
   61.1025   34.6941   46.0567 H   0  0  0  0  0  0  0  0  0  0  0  0
   58.9880   32.3061   47.9630 H   0  0  0  0  0  0  0  0  0  0  0  0
   59.0763   33.9306   47.1654 H   0  0  0  0  0  0  0  0  0  0  0  0
   58.2905   34.8978   45.9497 H   0  0  0  0  0  0  0  0  0  0  0  0
   59.1880   35.0193   44.3984 H   0  0  0  0  0  0  0  0  0  0  0  0
   57.3917   35.0097   44.3984 H   0  0  0  0  0  0  0  0  0  0  0  0
   57.3930   33.1300   42.8780 H   0  0  0  0  0  0  0  0  0  0  0  0
   57.3031   30.7421   42.5485 H   0  0  0  0  0  0  0  0  0  0  0  0
   59.5780   29.9930   47.4230 H   0  0  0  0  0  0  0  0  0  0  0  0
   58.8956   25.4215   45.8691 H   0  0  0  0  0  0  0  0  0  0  0  0
   57.8456   25.7833   43.6166 H   0  0  0  0  0  0  0  0  0  0  0  0
   57.4435   28.1388   42.7865 H   0  0  0  0  0  0  0  0  0  0  0  0
  1  2  1  0
  2  3  1  0
  3  4  2  0
  4  5  1  0
  5  6  2  0
  6  7  1  0
  7  8  2  0
  8  9  1  0
  9 10  1  0
 10 11  2  0
 11 12  1  0
 11 13  1  0
 13 14  2  0
 14 15  1  0
 15 16  2  0
 16 17  1  0
 17 18  1  0
 18 19  2  0
 19 20  1  0
 20 21  2  0
 21 22  1  0
 22 23  2  0
  8  3  1  0
 16 10  1  0
 23 18  1  0
 23 15  1  0
  1 24  1  0
  1 25  1  0
  1 26  1  0
  4 27  1  0
  5 28  1  0
  6 29  1  0
  7 30  1  0
  9 31  1  0
  9 32  1  0
 12 33  1  0
 12 34  1  0
 12 35  1  0
 13 36  1  0
 14 37  1  0
 17 38  1  0
 20 39  1  0
 21 40  1  0
 22 41  1  0
M  CHG  1  13   1
M  END
>  <UniqueID>  (12) 
12

>  <SMILES>  (12) 
COc1ccccc1Cc1c(C)[nH+]cc2c1[nH]c1ncccc12

>  <Energy>  (12) 
89.47758703802786

>  <Genealogy>  (12) 
COc1ccccc1Cc1c(C)[nH+]cc2c1[nH]c1ncccc12 (protonated)
COc1ccccc1Cc1c(C)[nH+]cc2c1[nH]c1ncccc12 (3D coordinates assigned)
COc1ccccc1Cc1c(C)[nH+]cc2c1[nH]c1ncccc12 (optimized conformer: 89.47758703802786 kcal/mol)

>  <smiles>  (12) 
COc1ccccc1Cc1c(C)ncc2c1[nH]c1ncccc12

>  <score_type>  (12) 
oracle

>  <origin>  (12) 
adg

>  <m_score__min__energy>  (12) 
-6.4199999999999999

>  <m_primary>  (12) 
energy

$$$$
12:0
     RDKit          3D

 62 66  0  0  0  0  0  0  0  0999 V2000
   63.4630   29.0020   51.8690 C   0  0  0  0  0  0  0  0  0  0  0  0
   63.2300   30.7050   51.3980 S   0  0  0  0  0  0  0  0  0  0  0  0
   62.5530   31.4560   52.5090 O   0  0  0  0  0  0  0  0  0  0  0  0
   62.3290   30.7230   50.1930 O   0  0  0  0  0  0  0  0  0  0  0  0
   64.7760   31.4800   50.9990 C   0  0  0  0  0  0  0  0  0  0  0  0
   65.9190   31.1250   51.7350 C   0  0  0  0  0  0  0  0  0  0  0  0
   67.1490   31.7360   51.4840 C   0  0  0  0  0  0  0  0  0  0  0  0
   67.2570   32.7140   50.4970 C   0  0  0  0  0  0  0  0  0  0  0  0
   66.1350   33.0780   49.7520 C   0  0  0  0  0  0  0  0  0  0  0  0
   64.8920   32.4630   49.9830 C   0  0  0  0  0  0  0  0  0  0  0  0
   63.7450   32.8800   49.1530 C   0  0  0  0  0  0  0  0  0  0  0  0
   63.5810   32.3660   47.8600 C   0  0  0  0  0  0  0  0  0  0  0  0
   62.4900   32.7590   47.0810 C   0  0  0  0  0  0  0  0  0  0  0  0
   61.5620   33.6930   47.5720 C   0  0  0  0  0  0  0  0  0  0  0  0
   60.4000   34.1070   46.7530 C   0  0  0  0  0  0  0  0  0  0  0  0
   60.3520   35.2760   46.2820 O   0  0  0  0  0  0  0  0  0  0  0  0
   59.2950   33.2230   46.5170 N   0  0  0  0  0  0  0  0  0  0  0  0
   59.3140   31.8140   46.7770 C   0  0  0  0  0  0  0  0  0  0  0  0
   59.1670   30.8810   45.7370 C   0  0  0  0  0  0  0  0  0  0  0  0
   59.2050   29.5120   46.0120 C   0  0  0  0  0  0  0  0  0  0  0  0
   59.4060   29.0660   47.3210 C   0  0  0  0  0  0  0  0  0  0  0  0
   59.5680   29.9890   48.3680 C   0  0  0  0  0  0  0  0  0  0  0  0
   59.8630   29.5080   49.7650 C   0  0  0  0  0  0  0  0  0  0  0  0
   58.8960   30.0980   50.7640 C   0  0  0  0  0  0  0  0  0  0  0  0
   57.7860   29.3780   51.0740 N   0  0  0  0  0  0  0  0  0  0  0  0
   56.9030   29.7900   51.9800 N   0  0  0  0  0  0  0  0  0  0  0  0
   57.0720   30.9480   52.6600 C   0  0  0  0  0  0  0  0  0  0  0  0
   56.2070   31.2980   53.5090 O   0  0  0  0  0  0  0  0  0  0  0  0
   58.2020   31.7430   52.4150 C   0  0  0  0  0  0  0  0  0  0  0  0
   59.1210   31.3390   51.4140 C   0  0  0  0  0  0  0  0  0  0  0  0
   60.3300   32.0990   51.1610 N   0  0  0  0  0  0  0  0  0  0  0  0
   60.2140   33.5150   51.5350 C   0  0  0  0  0  0  0  0  0  0  0  0
   59.7640   33.6480   52.9860 C   0  0  0  0  0  0  0  0  0  0  0  0
   58.3660   33.0550   53.1510 C   0  0  0  0  0  0  0  0  0  0  0  0
   59.4830   31.3640   48.0910 C   0  0  0  0  0  0  0  0  0  0  0  0
   61.7370   34.2130   48.8660 C   0  0  0  0  0  0  0  0  0  0  0  0
   62.8260   33.8170   49.6460 C   0  0  0  0  0  0  0  0  0  0  0  0
   63.4738   28.9232   52.9661 H   0  0  0  0  0  0  0  0  0  0  0  0
   62.6397   28.3941   51.4658 H   0  0  0  0  0  0  0  0  0  0  0  0
   64.4194   28.6376   51.4658 H   0  0  0  0  0  0  0  0  0  0  0  0
   65.8438   30.3564   52.5184 H   0  0  0  0  0  0  0  0  0  0  0  0
   68.0353   31.4447   52.0668 H   0  0  0  0  0  0  0  0  0  0  0  0
   68.2259   33.1984   50.3056 H   0  0  0  0  0  0  0  0  0  0  0  0
   66.2237   33.8533   48.9767 H   0  0  0  0  0  0  0  0  0  0  0  0
   64.3134   31.6510   47.4571 H   0  0  0  0  0  0  0  0  0  0  0  0
   62.3563   32.3339   46.0753 H   0  0  0  0  0  0  0  0  0  0  0  0
   59.0216   31.2293   44.7038 H   0  0  0  0  0  0  0  0  0  0  0  0
   59.0766   28.7842   45.1973 H   0  0  0  0  0  0  0  0  0  0  0  0
   59.4375   27.9870   47.5328 H   0  0  0  0  0  0  0  0  0  0  0  0
   59.7808   28.4114   49.7913 H   0  0  0  0  0  0  0  0  0  0  0  0
   60.8800   29.8285   50.0351 H   0  0  0  0  0  0  0  0  0  0  0  0
   61.1140   31.6670   51.7020 H   0  0  0  0  0  0  0  0  0  0  0  0
   60.5640   32.0730   50.1430 H   0  0  0  0  0  0  0  0  0  0  0  0
   61.1922   34.0031   51.4130 H   0  0  0  0  0  0  0  0  0  0  0  0
   59.4675   33.9950   50.8851 H   0  0  0  0  0  0  0  0  0  0  0  0
   60.4682   33.1097   53.6374 H   0  0  0  0  0  0  0  0  0  0  0  0
   59.7419   34.7123   53.2631 H   0  0  0  0  0  0  0  0  0  0  0  0
   58.1793   32.8846   54.2216 H   0  0  0  0  0  0  0  0  0  0  0  0
   57.6474   33.7698   52.7237 H   0  0  0  0  0  0  0  0  0  0  0  0
   59.5498   32.0918   48.9131 H   0  0  0  0  0  0  0  0  0  0  0  0
   61.0118   34.9364   49.2670 H   0  0  0  0  0  0  0  0  0  0  0  0
   62.9631   34.2421   50.6512 H   0  0  0  0  0  0  0  0  0  0  0  0
  1  2  1  0
  2  3  2  0
  2  4  2  0
  2  5  1  0
  5  6  2  0
  6  7  1  0
  7  8  2  0
  8  9  1  0
  9 10  2  0
 10 11  1  0
 11 12  2  0
 12 13  1  0
 13 14  2  0
 14 15  1  0
 15 16  2  0
 15 17  1  0
 17 18  1  0
 18 19  2  0
 19 20  1  0
 20 21  2  0
 21 22  1  0
 22 23  1  0
 23 24  1  0
 24 25  2  0
 25 26  1  0
 26 27  1  0
 27 28  2  0
 27 29  1  0
 29 30  2  0
 30 31  1  0
 31 32  1  0
 32 33  1  0
 33 34  1  0
 22 35  2  0
 14 36  1  0
 36 37  2  0
 10  5  1  0
 37 11  1  0
 35 18  1  0
 30 24  1  0
 34 29  1  0
  1 38  1  0
  1 39  1  0
  1 40  1  0
  6 41  1  0
  7 42  1  0
  8 43  1  0
  9 44  1  0
 12 45  1  0
 13 46  1  0
 19 47  1  0
 20 48  1  0
 21 49  1  0
 23 50  1  0
 23 51  1  0
 31 52  1  0
 31 53  1  0
 32 54  1  0
 32 55  1  0
 33 56  1  0
 33 57  1  0
 34 58  1  0
 34 59  1  0
 35 60  1  0
 36 61  1  0
 37 62  1  0
M  CHG  3  17  -1  26  -1  31   1
M  END
>  <UniqueID>  (13) 
13

>  <SMILES>  (13) 
CS(=O)(=O)c1ccccc1-c1ccc(C(=O)[N-]c2cccc(Cc3n[n-]c(=O)c4c3[NH2+]CCC4)c2)cc1

>  <Energy>  (13) 
84.50324017726997

>  <Genealogy>  (13) 
CS(=O)(=O)c1ccccc1-c1ccc(C(=O)[N-]c2cccc(Cc3n[n-]c(=O)c4c3[NH2+]CCC4)c2)cc1 (protonated)
CS(=O)(=O)c1ccccc1-c1ccc(C(=O)[N-]c2cccc(Cc3n[n-]c(=O)c4c3[NH2+]CCC4)c2)cc1 (3D coordinates assigned)
CS(=O)(=O)c1ccccc1-c1ccc(C(=O)[N-]c2cccc(Cc3n[n-]c(=O)c4c3[NH2+]CCC4)c2)cc1 (nonaromatic ring conformer: 84.50324017726997 kcal/mol)

>  <smiles>  (13) 
CS(=O)(=O)c1ccccc1-c1ccc(C(=O)Nc2cccc(Cc3n[nH]c(=O)c4c3NCCC4)c2)cc1

>  <score_type>  (13) 
oracle

>  <origin>  (13) 
adg

>  <m_score__min__energy>  (13) 
-12.84

>  <m_primary>  (13) 
energy

$$$$
13:0
     RDKit          3D

 27 28  0  0  0  0  0  0  0  0999 V2000
   53.9405   24.4632   45.9553 H   0  0  0  0  0  0  0  0  0  0  0  0
   54.9290   24.9310   45.8370 C   0  0  0  0  0  0  0  0  0  0  0  0
   55.1270   26.2670   45.9940 N   0  0  0  0  0  0  0  0  0  0  0  0
   56.4190   26.6090   45.8130 C   0  0  0  0  0  0  0  0  0  0  0  0
   56.8190   27.8450   45.8720 N   0  0  0  0  0  0  0  0  0  0  0  0
   56.5020   28.9060   44.9590 C   0  0  0  0  0  0  0  0  0  0  0  0
   55.3100   29.3100   44.8970 O   0  0  0  0  0  0  0  0  0  0  0  0
   57.5620   29.6550   44.1980 C   0  0  0  0  0  0  0  0  0  0  0  0
   58.4585   29.7501   44.8283 H   0  0  0  0  0  0  0  0  0  0  0  0
   57.7956   29.0969   43.2794 H   0  0  0  0  0  0  0  0  0  0  0  0
   57.0820   31.0230   43.8180 C   0  0  0  0  0  0  0  0  0  0  0  0
   56.9110   31.3100   42.6040 O   0  0  0  0  0  0  0  0  0  0  0  0
   56.7550   31.9640   44.8490 N   0  0  0  0  0  0  0  0  0  0  0  0
   57.6630   32.5420   45.7980 C   0  0  0  0  0  0  0  0  0  0  0  0
   58.2840   31.7010   46.7310 C   0  0  0  0  0  0  0  0  0  0  0  0
   58.0568   30.6247   46.7322 H   0  0  0  0  0  0  0  0  0  0  0  0
   59.1900   32.2200   47.6600 C   0  0  0  0  0  0  0  0  0  0  0  0
   59.6645   31.5538   48.3955 H   0  0  0  0  0  0  0  0  0  0  0  0
   59.4940   33.5840   47.6560 C   0  0  0  0  0  0  0  0  0  0  0  0
   60.6340   34.2350   48.8200 Cl  0  0  0  0  0  0  0  0  0  0  0  0
   58.8980   34.4280   46.7130 C   0  0  0  0  0  0  0  0  0  0  0  0
   59.1430   35.5003   46.7036 H   0  0  0  0  0  0  0  0  0  0  0  0
   57.9910   33.9110   45.7820 C   0  0  0  0  0  0  0  0  0  0  0  0
   57.5327   34.5760   45.0352 H   0  0  0  0  0  0  0  0  0  0  0  0
   57.3630   25.2660   45.4250 S   0  0  0  0  0  0  0  0  0  0  0  0
   56.0670   24.1990   45.5160 C   0  0  0  0  0  0  0  0  0  0  0  0
   56.1114   23.1124   45.3506 H   0  0  0  0  0  0  0  0  0  0  0  0
  1  2  1  0
  2  3  1  0
  3  4  1  0
  4  5  2  0
  5  6  1  0
  6  7  2  0
  6  8  1  0
  8  9  1  0
  8 10  1  0
  8 11  1  0
 11 12  2  0
 11 13  1  0
 13 14  1  0
 14 15  2  0
 15 16  1  0
 15 17  1  0
 17 18  1  0
 17 19  2  0
 19 20  1  0
 19 21  1  0
 21 22  1  0
 21 23  2  0
 23 24  1  0
  4 25  1  0
 25 26  1  0
 26 27  1  0
 26  2  2  0
 23 14  1  0
M  CHG  2   3  -1  13  -1
M  END
>  <UniqueID>  (14) 
14

>  <SMILES>  (14) 
O=C(CC(=O)[N-]c1ccc(Cl)cc1)/N=c1/[n-]ccs1

>  <Energy>  (14) 
66.06769697213217

>  <Genealogy>  (14) 
O=C(CC(=O)[N-]c1ccc(Cl)cc1)N=c1[n-]ccs1 (protonated)
O=C(CC(=O)[N-]c1ccc(Cl)cc1)/N=c1/[n-]ccs1 (cis-trans isomerization)
O=C(CC(=O)[N-]c1ccc(Cl)cc1)/N=c1/[n-]ccs1 (3D coordinates assigned)
O=C(CC(=O)[N-]c1ccc(Cl)cc1)/N=c1/[n-]ccs1 (optimized conformer: 66.06769697213217 kcal/mol)

>  <smiles>  (14) 
O=C(CC(=O)Nc1ccc(Cl)cc1)N=c1[nH]ccs1

>  <score_type>  (14) 
oracle

>  <origin>  (14) 
adg

>  <m_score__min__energy>  (14) 
-10.779999999999999

>  <m_primary>  (14) 
energy

$$$$
14:0
     RDKit          3D

 28 30  0  0  0  0  0  0  0  0999 V2000
   58.5340   27.8790   47.5110 C   0  0  0  0  0  0  0  0  0  0  0  0
   59.1720   28.1780   46.1500 C   0  0  1  0  0  0  0  0  0  0  0  0
   58.1140   28.4050   45.0620 C   0  0  0  0  0  0  0  0  0  0  0  0
   57.4950   29.7640   45.2090 C   0  0  0  0  0  0  0  0  0  0  0  0
   56.3000   29.9350   44.8490 O   0  0  0  0  0  0  0  0  0  0  0  0
   58.3110   30.8980   45.7170 C   0  0  0  0  0  0  0  0  0  0  0  0
   59.5510   30.6430   46.1960 C   0  0  0  0  0  0  0  0  0  0  0  0
   60.0230   29.3220   46.2570 O   0  0  0  0  0  0  0  0  0  0  0  0
   60.4440   31.7400   46.6610 C   0  0  0  0  0  0  0  0  0  0  0  0
   61.7360   31.4480   47.1320 C   0  0  0  0  0  0  0  0  0  0  0  0
   62.5790   32.4730   47.5750 C   0  0  0  0  0  0  0  0  0  0  0  0
   62.1420   33.7970   47.5530 C   0  0  0  0  0  0  0  0  0  0  0  0
   60.8620   34.1050   47.0900 C   0  0  0  0  0  0  0  0  0  0  0  0
   60.0050   33.0840   46.6420 C   0  0  0  0  0  0  0  0  0  0  0  0
   58.6490   33.3900   46.1500 C   0  0  0  0  0  0  0  0  0  0  0  0
   58.2210   34.5770   46.1270 O   0  0  0  0  0  0  0  0  0  0  0  0
   57.7960   32.2920   45.6800 C   0  0  0  0  0  0  0  0  0  0  0  0
   56.6400   32.5440   45.2470 O   0  0  0  0  0  0  0  0  0  0  0  0
   59.2153   28.1983   48.3134 H   0  0  0  0  0  0  0  0  0  0  0  0
   57.5832   28.4253   47.5982 H   0  0  0  0  0  0  0  0  0  0  0  0
   58.3455   26.7988   47.5982 H   0  0  0  0  0  0  0  0  0  0  0  0
   59.7667   27.3011   45.8544 H   0  0  0  0  0  0  0  0  0  0  0  0
   58.5892   28.3283   44.0729 H   0  0  0  0  0  0  0  0  0  0  0  0
   57.3280   27.6422   45.1642 H   0  0  0  0  0  0  0  0  0  0  0  0
   62.0868   30.4057   47.1524 H   0  0  0  0  0  0  0  0  0  0  0  0
   63.5883   32.2340   47.9413 H   0  0  0  0  0  0  0  0  0  0  0  0
   62.8077   34.6005   47.9014 H   0  0  0  0  0  0  0  0  0  0  0  0
   60.5220   35.1510   47.0754 H   0  0  0  0  0  0  0  0  0  0  0  0
  1  2  1  0
  2  3  1  0
  3  4  1  0
  4  5  2  0
  4  6  1  0
  6  7  2  0
  7  8  1  0
  7  9  1  0
  9 10  2  0
 10 11  1  0
 11 12  2  0
 12 13  1  0
 13 14  2  0
 14 15  1  0
 15 16  2  0
 15 17  1  0
 17 18  2  0
  8  2  1  0
 14  9  1  0
 17  6  1  0
  1 19  1  0
  1 20  1  0
  1 21  1  0
  2 22  1  6
  3 23  1  0
  3 24  1  0
 10 25  1  0
 11 26  1  0
 12 27  1  0
 13 28  1  0
M  END
>  <UniqueID>  (15) 
15

>  <SMILES>  (15) 
C[C@H]1CC(=O)C2=C(O1)c1ccccc1C(=O)C2=O

>  <Energy>  (15) 
32.0432180060034

>  <Genealogy>  (15) 
C[C@H]1CC(=O)C2=C(O1)c1ccccc1C(=O)C2=O (chirality)
C[C@H]1CC(=O)C2=C(O1)c1ccccc1C(=O)C2=O (3D coordinates assigned)
C[C@H]1CC(=O)C2=C(O1)c1ccccc1C(=O)C2=O (nonaromatic ring conformer: 32.0432180060034 kcal/mol)

>  <smiles>  (15) 
CC1CC(=O)C2=C(O1)c1ccccc1C(=O)C2=O

>  <score_type>  (15) 
oracle

>  <origin>  (15) 
adg

>  <m_score__min__energy>  (15) 
-7.0199999999999996

>  <m_primary>  (15) 
energy

$$$$
15:0
     RDKit          3D

 51 53  0  0  0  0  0  0  0  0999 V2000
   60.7390   29.7880   48.1540 C   0  0  0  0  0  0  0  0  0  0  0  0
   60.6570   29.0710   49.4980 C   0  0  0  0  0  0  0  0  0  0  0  0
   60.3090   27.6980   49.3150 O   0  0  0  0  0  0  0  0  0  0  0  0
   59.8820   27.1140   48.1100 C   0  0  0  0  0  0  0  0  0  0  0  0
   60.7440   26.3770   47.2760 C   0  0  0  0  0  0  0  0  0  0  0  0
   60.2690   25.8320   46.0830 C   0  0  0  0  0  0  0  0  0  0  0  0
   58.9360   26.0070   45.7100 C   0  0  0  0  0  0  0  0  0  0  0  0
   58.0550   26.7320   46.5310 C   0  0  0  0  0  0  0  0  0  0  0  0
   56.6390   26.9200   46.1300 C   0  0  0  0  0  0  0  0  0  0  0  0
   55.7600   26.1150   46.5390 O   0  0  0  0  0  0  0  0  0  0  0  0
   56.2770   27.9850   45.2440 N   0  0  0  0  0  0  0  0  0  0  0  0
   56.7640   29.3350   45.2820 C   0  0  0  0  0  0  0  0  0  0  0  0
   56.2940   30.2490   44.3290 C   0  0  0  0  0  0  0  0  0  0  0  0
   56.7670   31.5640   44.3110 C   0  0  0  0  0  0  0  0  0  0  0  0
   57.7310   31.9790   45.2420 C   0  0  0  0  0  0  0  0  0  0  0  0
   58.3640   33.6280   45.2030 S   0  0  0  0  0  0  0  0  0  0  0  0
   57.2080   34.5860   45.1300 O   0  0  0  0  0  0  0  0  0  0  0  0
   59.2160   33.8110   43.9790 O   0  0  0  0  0  0  0  0  0  0  0  0
   59.3170   33.9900   46.6160 N   0  0  0  0  0  0  0  0  0  0  0  0
   60.7170   34.2660   46.2690 C   0  0  0  0  0  0  0  0  0  0  0  0
   61.6350   33.1250   46.7450 C   0  0  1  0  0  0  0  0  0  0  0  0
   63.1110   33.5320   46.7400 C   0  0  0  0  0  0  0  0  0  0  0  0
   63.4320   33.7170   48.1910 C   0  0  0  0  0  0  0  0  0  0  0  0
   62.4020   32.8480   48.8760 C   0  0  0  0  0  0  0  0  0  0  0  0
   61.2620   32.7530   48.0570 O   0  0  0  0  0  0  0  0  0  0  0  0
   58.2260   31.0580   46.1780 C   0  0  0  0  0  0  0  0  0  0  0  0
   57.7510   29.7440   46.1950 C   0  0  0  0  0  0  0  0  0  0  0  0
   58.5410   27.2770   47.7340 C   0  0  0  0  0  0  0  0  0  0  0  0
   60.8625   30.8681   48.3216 H   0  0  0  0  0  0  0  0  0  0  0  0
   61.5991   29.4044   47.5856 H   0  0  0  0  0  0  0  0  0  0  0  0
   59.8145   29.6085   47.5856 H   0  0  0  0  0  0  0  0  0  0  0  0
   61.6335   29.1325   50.0007 H   0  0  0  0  0  0  0  0  0  0  0  0
   59.8822   29.5545   50.1111 H   0  0  0  0  0  0  0  0  0  0  0  0
   61.7950   26.2305   47.5659 H   0  0  0  0  0  0  0  0  0  0  0  0
   60.9488   25.2614   45.4331 H   0  0  0  0  0  0  0  0  0  0  0  0
   58.5718   25.5744   44.7665 H   0  0  0  0  0  0  0  0  0  0  0  0
   55.5462   29.9285   43.5887 H   0  0  0  0  0  0  0  0  0  0  0  0
   56.3826   32.2753   43.5651 H   0  0  0  0  0  0  0  0  0  0  0  0
   59.2830   33.1510   47.2400 H   0  0  0  0  0  0  0  0  0  0  0  0
   60.8044   34.3672   45.1772 H   0  0  0  0  0  0  0  0  0  0  0  0
   61.0260   35.1971   46.7665 H   0  0  0  0  0  0  0  0  0  0  0  0
   61.5171   32.2825   46.0476 H   0  0  0  0  0  0  0  0  0  0  0  0
   63.7347   32.7411   46.2978 H   0  0  0  0  0  0  0  0  0  0  0  0
   63.3026   34.4352   46.1421 H   0  0  0  0  0  0  0  0  0  0  0  0
   64.4526   33.3750   48.4176 H   0  0  0  0  0  0  0  0  0  0  0  0
   63.3985   34.7681   48.5136 H   0  0  0  0  0  0  0  0  0  0  0  0
   62.8197   31.8443   49.0438 H   0  0  0  0  0  0  0  0  0  0  0  0
   62.1270   33.2922   49.8440 H   0  0  0  0  0  0  0  0  0  0  0  0
   58.9921   31.3722   46.9022 H   0  0  0  0  0  0  0  0  0  0  0  0
   58.1514   29.0265   46.9263 H   0  0  0  0  0  0  0  0  0  0  0  0
   57.8590   27.8391   48.3889 H   0  0  0  0  0  0  0  0  0  0  0  0
  1  2  1  0
  2  3  1  0
  3  4  1  0
  4  5  2  0
  5  6  1  0
  6  7  2  0
  7  8  1  0
  8  9  1  0
  9 10  2  0
  9 11  1  0
 11 12  1  0
 12 13  2  0
 13 14  1  0
 14 15  2  0
 15 16  1  0
 16 17  2  0
 16 18  2  0
 16 19  1  0
 19 20  1  0
 20 21  1  0
 21 22  1  0
 22 23  1  0
 23 24  1  0
 24 25  1  0
 15 26  1  0
 26 27  2  0
  8 28  2  0
 28  4  1  0
 27 12  1  0
 25 21  1  0
  1 29  1  0
  1 30  1  0
  1 31  1  0
  2 32  1  0
  2 33  1  0
  5 34  1  0
  6 35  1  0
  7 36  1  0
 13 37  1  0
 14 38  1  0
 19 39  1  0
 20 40  1  0
 20 41  1  0
 21 42  1  6
 22 43  1  0
 22 44  1  0
 23 45  1  0
 23 46  1  0
 24 47  1  0
 24 48  1  0
 26 49  1  0
 27 50  1  0
 28 51  1  0
M  CHG  1  11  -1
M  END
>  <UniqueID>  (16) 
16

>  <SMILES>  (16) 
CCOc1cccc(C(=O)[N-]c2ccc(S(=O)(=O)NC[C@H]3CCCO3)cc2)c1

>  <Energy>  (16) 
53.04231923629409

>  <Genealogy>  (16) 
CCOc1cccc(C(=O)[N-]c2ccc(S(=O)(=O)NCC3CCCO3)cc2)c1 (protonated)
CCOc1cccc(C(=O)[N-]c2ccc(S(=O)(=O)NC[C@H]3CCCO3)cc2)c1 (chirality)
CCOc1cccc(C(=O)[N-]c2ccc(S(=O)(=O)NC[C@H]3CCCO3)cc2)c1 (3D coordinates assigned)
CCOc1cccc(C(=O)[N-]c2ccc(S(=O)(=O)NC[C@H]3CCCO3)cc2)c1 (nonaromatic ring conformer: 53.04231923629409 kcal/mol)

>  <smiles>  (16) 
CCOc1cccc(C(=O)Nc2ccc(S(=O)(=O)NCC3CCCO3)cc2)c1

>  <score_type>  (16) 
oracle

>  <origin>  (16) 
adg

>  <m_score__min__energy>  (16) 
-9.4600000000000009

>  <m_primary>  (16) 
energy

$$$$
16:0
     RDKit          3D

 25 26  0  0  0  0  0  0  0  0999 V2000
   55.7930   30.8290   44.5020 O   0  0  0  0  0  0  0  0  0  0  0  0
   57.2560   30.9520   44.1770 S   0  0  0  0  0  0  0  0  0  0  0  0
   57.3920   31.1020   42.6870 O   0  0  0  0  0  0  0  0  0  0  0  0
   58.1140   29.5140   44.7160 C   0  0  0  0  0  0  0  0  0  0  0  0
   59.5070   29.5400   44.8710 C   0  0  0  0  0  0  0  0  0  0  0  0
   60.1850   28.4030   45.3180 C   0  0  0  0  0  0  0  0  0  0  0  0
   59.4750   27.2360   45.6170 C   0  0  0  0  0  0  0  0  0  0  0  0
   58.0850   27.2080   45.4720 C   0  0  0  0  0  0  0  0  0  0  0  0
   57.4040   28.3450   45.0260 C   0  0  0  0  0  0  0  0  0  0  0  0
   57.9330   32.3610   44.9860 C   0  0  0  0  0  0  0  0  0  0  0  0
   58.3310   33.4790   44.2400 C   0  0  0  0  0  0  0  0  0  0  0  0
   58.8870   34.5900   44.8820 C   0  0  0  0  0  0  0  0  0  0  0  0
   59.0520   34.5860   46.2710 C   0  0  0  0  0  0  0  0  0  0  0  0
   58.6640   33.4700   47.0180 C   0  0  0  0  0  0  0  0  0  0  0  0
   58.8310   33.4640   48.3630 F   0  0  0  0  0  0  0  0  0  0  0  0
   58.1080   32.3570   46.3770 C   0  0  0  0  0  0  0  0  0  0  0  0
   60.0677   30.4578   44.6401 H   0  0  0  0  0  0  0  0  0  0  0  0
   61.2785   28.4259   45.4348 H   0  0  0  0  0  0  0  0  0  0  0  0
   60.0100   26.3405   45.9661 H   0  0  0  0  0  0  0  0  0  0  0  0
   57.5263   26.2906   45.7090 H   0  0  0  0  0  0  0  0  0  0  0  0
   56.3095   28.3224   44.9181 H   0  0  0  0  0  0  0  0  0  0  0  0
   58.2057   33.4824   43.1472 H   0  0  0  0  0  0  0  0  0  0  0  0
   59.1947   35.4675   44.2944 H   0  0  0  0  0  0  0  0  0  0  0  0
   59.4872   35.4612   46.7756 H   0  0  0  0  0  0  0  0  0  0  0  0
   57.8078   31.4776   46.9656 H   0  0  0  0  0  0  0  0  0  0  0  0
  1  2  2  0
  2  3  2  0
  2  4  1  0
  4  5  2  0
  5  6  1  0
  6  7  2  0
  7  8  1  0
  8  9  2  0
  2 10  1  0
 10 11  2  0
 11 12  1  0
 12 13  2  0
 13 14  1  0
 14 15  1  0
 14 16  2  0
  9  4  1  0
 16 10  1  0
  5 17  1  0
  6 18  1  0
  7 19  1  0
  8 20  1  0
  9 21  1  0
 11 22  1  0
 12 23  1  0
 13 24  1  0
 16 25  1  0
M  END
>  <UniqueID>  (17) 
17

>  <SMILES>  (17) 
O=S(=O)(c1ccccc1)c1cccc(F)c1

>  <Energy>  (17) 
27.761882041006974

>  <Genealogy>  (17) 
O=S(=O)(c1ccccc1)c1cccc(F)c1 (3D coordinates assigned)
O=S(=O)(c1ccccc1)c1cccc(F)c1 (optimized conformer: 27.761882041006974 kcal/mol)

>  <smiles>  (17) 
O=S(=O)(c1ccccc1)c1cccc(F)c1

>  <score_type>  (17) 
oracle

>  <origin>  (17) 
adg

>  <m_score__min__energy>  (17) 
-6.6900000000000004

>  <m_primary>  (17) 
energy

$$$$
17:0
     RDKit          3D

 30 31  0  0  0  0  0  0  0  0999 V2000
   60.7150   28.9270   44.8800 C   0  0  0  0  0  0  0  0  0  0  0  0
   59.5380   28.2280   45.5040 C   0  0  0  0  0  0  0  0  0  0  0  0
   59.7400   27.4260   46.6430 C   0  0  0  0  0  0  0  0  0  0  0  0
   58.6700   26.7520   47.2340 C   0  0  0  0  0  0  0  0  0  0  0  0
   57.3880   26.8750   46.7030 C   0  0  0  0  0  0  0  0  0  0  0  0
   57.1680   27.6730   45.5790 C   0  0  0  0  0  0  0  0  0  0  0  0
   58.2340   28.3570   44.9640 C   0  0  0  0  0  0  0  0  0  0  0  0
   57.9960   29.1850   43.8090 N   0  0  0  0  0  0  0  0  0  0  0  0
   56.9320   30.5540   43.8330 S   0  0  0  0  0  0  0  0  0  0  0  0
   56.6440   30.9800   42.4200 O   0  0  0  0  0  0  0  0  0  0  0  0
   55.6420   30.1700   44.5010 O   0  0  0  0  0  0  0  0  0  0  0  0
   57.6680   31.8680   44.7450 C   0  0  0  0  0  0  0  0  0  0  0  0
   58.1330   31.6580   46.0520 C   0  0  0  0  0  0  0  0  0  0  0  0
   58.7020   32.7140   46.7720 C   0  0  0  0  0  0  0  0  0  0  0  0
   58.8100   33.9810   46.1910 C   0  0  0  0  0  0  0  0  0  0  0  0
   58.3520   34.1920   44.8870 C   0  0  0  0  0  0  0  0  0  0  0  0
   57.7830   33.1390   44.1640 C   0  0  0  0  0  0  0  0  0  0  0  0
   61.3717   29.3170   45.6716 H   0  0  0  0  0  0  0  0  0  0  0  0
   61.2756   28.2153   44.2561 H   0  0  0  0  0  0  0  0  0  0  0  0
   60.3583   29.7598   44.2561 H   0  0  0  0  0  0  0  0  0  0  0  0
   60.7489   27.3297   47.0707 H   0  0  0  0  0  0  0  0  0  0  0  0
   58.8393   26.1228   48.1203 H   0  0  0  0  0  0  0  0  0  0  0  0
   56.5470   26.3420   47.1706 H   0  0  0  0  0  0  0  0  0  0  0  0
   56.1515   27.7684   45.1696 H   0  0  0  0  0  0  0  0  0  0  0  0
   58.3830   28.9100   42.8790 H   0  0  0  0  0  0  0  0  0  0  0  0
   58.0501   30.6619   46.5111 H   0  0  0  0  0  0  0  0  0  0  0  0
   59.0650   32.5471   47.7969 H   0  0  0  0  0  0  0  0  0  0  0  0
   59.2549   34.8111   46.7593 H   0  0  0  0  0  0  0  0  0  0  0  0
   58.4394   35.1883   44.4289 H   0  0  0  0  0  0  0  0  0  0  0  0
   57.4250   33.3080   43.1377 H   0  0  0  0  0  0  0  0  0  0  0  0
  1  2  1  0
  2  3  2  0
  3  4  1  0
  4  5  2  0
  5  6  1  0
  6  7  2  0
  7  8  1  0
  8  9  1  0
  9 10  2  0
  9 11  2  0
  9 12  1  0
 12 13  2  0
 13 14  1  0
 14 15  2  0
 15 16  1  0
 16 17  2  0
  7  2  1  0
 17 12  1  0
  1 18  1  0
  1 19  1  0
  1 20  1  0
  3 21  1  0
  4 22  1  0
  5 23  1  0
  6 24  1  0
  8 25  1  0
 13 26  1  0
 14 27  1  0
 15 28  1  0
 16 29  1  0
 17 30  1  0
M  END
>  <UniqueID>  (18) 
18

>  <SMILES>  (18) 
Cc1ccccc1NS(=O)(=O)c1ccccc1

>  <Energy>  (18) 
34.300895232013595

>  <Genealogy>  (18) 
Cc1ccccc1NS(=O)(=O)c1ccccc1 (3D coordinates assigned)
Cc1ccccc1NS(=O)(=O)c1ccccc1 (optimized conformer: 34.300895232013595 kcal/mol)

>  <smiles>  (18) 
Cc1ccccc1NS(=O)(=O)c1ccccc1

>  <score_type>  (18) 
oracle

>  <origin>  (18) 
adg

>  <m_score__min__energy>  (18) 
-7.3399999999999999

>  <m_primary>  (18) 
energy

$$$$
18:0
     RDKit          3D

 26 27  0  0  0  0  0  0  0  0999 V2000
   56.0280   21.5310   42.5680 O   0  0  0  0  0  0  0  0  0  0  0  0
   56.7800   21.7810   43.5470 C   0  0  0  0  0  0  0  0  0  0  0  0
   58.1550   21.6360   43.4090 O   0  0  0  0  0  0  0  0  0  0  0  0
   56.1930   22.1810   44.8650 C   0  0  0  0  0  0  0  0  0  0  0  0
   54.9230   22.8750   44.6760 N   0  0  0  0  0  0  0  0  0  0  0  0
   54.4900   24.0840   45.3200 C   0  0  0  0  0  0  0  0  0  0  0  0
   53.3050   24.4670   45.1320 O   0  0  0  0  0  0  0  0  0  0  0  0
   55.3630   24.8950   46.1940 C   0  0  0  0  0  0  0  0  0  0  0  0
   56.1990   24.3470   46.9590 O   0  0  0  0  0  0  0  0  0  0  0  0
   55.2990   26.3220   46.1140 N   0  0  0  0  0  0  0  0  0  0  0  0
   56.4080   27.1670   45.7900 C   0  0  0  0  0  0  0  0  0  0  0  0
   56.3250   28.4370   45.2500 C   0  0  0  0  0  0  0  0  0  0  0  0
   55.1410   29.0690   44.8920 O   0  0  0  0  0  0  0  0  0  0  0  0
   57.5430   29.0070   45.1030 N   0  0  0  0  0  0  0  0  0  0  0  0
   58.4000   28.0790   45.5770 C   0  0  0  0  0  0  0  0  0  0  0  0
   59.7860   28.2070   45.6800 C   0  0  0  0  0  0  0  0  0  0  0  0
   60.4180   29.3250   45.2440 F   0  0  0  0  0  0  0  0  0  0  0  0
   60.5090   27.1520   46.2640 C   0  0  0  0  0  0  0  0  0  0  0  0
   59.8370   26.0060   46.7440 C   0  0  0  0  0  0  0  0  0  0  0  0
   58.4390   25.9000   46.6330 C   0  0  0  0  0  0  0  0  0  0  0  0
   57.7510   26.9480   46.0190 C   0  0  0  0  0  0  0  0  0  0  0  0
   56.0249   21.2802   45.4735 H   0  0  0  0  0  0  0  0  0  0  0  0
   56.8942   22.8597   45.3725 H   0  0  0  0  0  0  0  0  0  0  0  0
   61.6037   27.2194   46.3476 H   0  0  0  0  0  0  0  0  0  0  0  0
   60.4113   25.1906   47.2080 H   0  0  0  0  0  0  0  0  0  0  0  0
   57.9045   25.0190   47.0179 H   0  0  0  0  0  0  0  0  0  0  0  0
  1  2  2  0
  2  3  1  0
  2  4  1  0
  4  5  1  0
  5  6  1  0
  6  7  2  0
  6  8  1  0
  8  9  2  0
  8 10  1  0
 10 11  1  0
 11 12  2  0
 12 13  1  0
 12 14  1  0
 14 15  1  0
 15 16  2  0
 16 17  1  0
 16 18  1  0
 18 19  2  0
 19 20  1  0
 20 21  2  0
 21 11  1  0
 21 15  1  0
  4 22  1  0
  4 23  1  0
 18 24  1  0
 19 25  1  0
 20 26  1  0
M  CHG  5   3  -1   5  -1  10  -1  13  -1  14  -1
M  END
>  <UniqueID>  (19) 
19

>  <SMILES>  (19) 
O=C([O-])C[N-]C(=O)C(=O)[N-]c1c([O-])[n-]c2c(F)cccc12

>  <Energy>  (19) 
64.01615584220266

>  <Genealogy>  (19) 
O=C([O-])C[N-]C(=O)C(=O)[N-]c1c([O-])[n-]c2c(F)cccc12 (protonated)
O=C([O-])C[N-]C(=O)C(=O)[N-]c1c([O-])[n-]c2c(F)cccc12 (3D coordinates assigned)
O=C([O-])C[N-]C(=O)C(=O)[N-]c1c([O-])[n-]c2c(F)cccc12 (optimized conformer: 64.01615584220266 kcal/mol)

>  <smiles>  (19) 
O=C(O)CNC(=O)C(=O)Nc1c(O)[nH]c2c(F)cccc12

>  <score_type>  (19) 
oracle

>  <origin>  (19) 
adg

>  <m_score__min__energy>  (19) 
-16.09

>  <m_primary>  (19) 
energy

$$$$
19:0
     RDKit          3D

 36 38  0  0  0  0  0  0  0  0999 V2000
   57.7920   27.7240   45.1570 O   0  0  0  0  0  0  0  0  0  0  0  0
   57.1350   28.7040   45.5990 C   0  0  0  0  0  0  0  0  0  0  0  0
   55.7810   28.9040   45.1860 N   0  0  0  0  0  0  0  0  0  0  0  0
   55.3980   29.7330   44.0480 C   0  0  0  0  0  0  0  0  0  0  0  0
   56.4170   30.8170   43.8240 C   0  0  0  0  0  0  0  0  0  0  0  0
   57.0280   30.9560   42.5660 C   0  0  0  0  0  0  0  0  0  0  0  0
   57.9580   31.9770   42.3440 C   0  0  0  0  0  0  0  0  0  0  0  0
   58.2820   32.8660   43.3740 C   0  0  0  0  0  0  0  0  0  0  0  0
   57.6730   32.7370   44.6250 C   0  0  0  0  0  0  0  0  0  0  0  0
   56.7420   31.7180   44.8510 C   0  0  0  0  0  0  0  0  0  0  0  0
   57.6930   29.5880   46.5300 O   0  0  0  0  0  0  0  0  0  0  0  0
   59.0350   29.9940   46.5610 C   0  0  0  0  0  0  0  0  0  0  0  0
   59.5990   31.0210   47.2970 C   0  0  0  0  0  0  0  0  0  0  0  0
   60.9460   30.9570   46.9680 C   0  0  0  0  0  0  0  0  0  0  0  0
   62.0370   31.8240   47.4680 C   0  0  0  0  0  0  0  0  0  0  0  0
   62.3700   32.9970   46.7660 C   0  0  0  0  0  0  0  0  0  0  0  0
   63.3970   33.8290   47.2230 C   0  0  0  0  0  0  0  0  0  0  0  0
   64.1020   33.5000   48.3810 C   0  0  0  0  0  0  0  0  0  0  0  0
   63.7830   32.3380   49.0870 C   0  0  0  0  0  0  0  0  0  0  0  0
   62.7560   31.5030   48.6360 C   0  0  0  0  0  0  0  0  0  0  0  0
   61.1250   29.9700   46.1170 O   0  0  0  0  0  0  0  0  0  0  0  0
   59.9990   29.3770   45.8600 N   0  0  0  0  0  0  0  0  0  0  0  0
   55.3327   29.1049   43.1473 H   0  0  0  0  0  0  0  0  0  0  0  0
   54.4225   30.1969   44.2560 H   0  0  0  0  0  0  0  0  0  0  0  0
   56.7740   30.2596   41.7533 H   0  0  0  0  0  0  0  0  0  0  0  0
   58.4350   32.0808   41.3583 H   0  0  0  0  0  0  0  0  0  0  0  0
   59.0160   33.6665   43.1993 H   0  0  0  0  0  0  0  0  0  0  0  0
   57.9263   33.4383   45.4337 H   0  0  0  0  0  0  0  0  0  0  0  0
   56.2628   31.6220   45.8365 H   0  0  0  0  0  0  0  0  0  0  0  0
   59.0984   31.7222   47.9809 H   0  0  0  0  0  0  0  0  0  0  0  0
   61.8188   33.2614   45.8515 H   0  0  0  0  0  0  0  0  0  0  0  0
   63.6494   34.7447   46.6682 H   0  0  0  0  0  0  0  0  0  0  0  0
   64.9095   34.1561   48.7381 H   0  0  0  0  0  0  0  0  0  0  0  0
   64.3405   32.0792   49.9993 H   0  0  0  0  0  0  0  0  0  0  0  0
   62.5080   30.5898   49.1968 H   0  0  0  0  0  0  0  0  0  0  0  0
   59.8820   28.5630   45.2170 H   0  0  0  0  0  0  0  0  0  0  0  0
  1  2  2  0
  2  3  1  0
  3  4  1  0
  4  5  1  0
  5  6  2  0
  6  7  1  0
  7  8  2  0
  8  9  1  0
  9 10  2  0
  2 11  1  0
 11 12  1  0
 12 13  1  0
 13 14  2  0
 14 15  1  0
 15 16  2  0
 16 17  1  0
 17 18  2  0
 18 19  1  0
 19 20  2  0
 14 21  1  0
 21 22  1  0
 10  5  1  0
 22 12  2  0
 20 15  1  0
  4 23  1  0
  4 24  1  0
  6 25  1  0
  7 26  1  0
  8 27  1  0
  9 28  1  0
 10 29  1  0
 13 30  1  0
 16 31  1  0
 17 32  1  0
 18 33  1  0
 19 34  1  0
 20 35  1  0
 22 36  1  0
M  CHG  2   3  -1  22   1
M  END
>  <UniqueID>  (20) 
20

>  <SMILES>  (20) 
O=C([N-]Cc1ccccc1)Oc1cc(-c2ccccc2)o[nH+]1

>  <Energy>  (20) 
71.18794820254745

>  <Genealogy>  (20) 
O=C([N-]Cc1ccccc1)Oc1cc(-c2ccccc2)o[nH+]1 (protonated)
O=C([N-]Cc1ccccc1)Oc1cc(-c2ccccc2)o[nH+]1 (3D coordinates assigned)
O=C([N-]Cc1ccccc1)Oc1cc(-c2ccccc2)o[nH+]1 (optimized conformer: 71.18794820254745 kcal/mol)

>  <smiles>  (20) 
O=C(NCc1ccccc1)Oc1cc(-c2ccccc2)on1

>  <score_type>  (20) 
oracle

>  <origin>  (20) 
adg

>  <m_score__min__energy>  (20) 
-8.2599999999999998

>  <m_primary>  (20) 
energy

$$$$
20:0
     RDKit          3D

 42 43  0  0  1  0  0  0  0  0999 V2000
   58.2230   27.1210   43.9470 C   0  0  0  0  0  0  0  0  0  0  0  0
   58.0680   28.4110   44.6930 C   0  0  0  0  0  0  0  0  0  0  0  0
   56.6340   28.4260   45.2460 C   0  0  0  0  0  0  0  0  0  0  0  0
   58.1340   33.6110   44.9520 N   0  0  0  0  0  0  0  0  0  0  0  0
   57.6800   32.6880   44.2400 C   0  0  0  0  0  0  0  0  0  0  0  0
   56.7690   30.5660   42.7890 N   0  0  0  0  0  0  0  0  0  0  0  0
   57.3910   31.6030   42.1640 C   0  0  0  0  0  0  0  0  0  0  0  0
   57.8570   32.6820   42.8780 C   0  0  0  0  0  0  0  0  0  0  0  0
   56.6070   30.5980   44.1470 C   0  0  0  0  0  0  0  0  0  0  0  0
   56.0400   29.6250   44.7400 N   0  0  0  0  0  0  0  0  0  0  0  0
   58.4310   33.6220   46.3000 C   0  0  0  0  0  0  0  0  0  0  0  0
   57.3810   33.4420   47.0740 O   0  0  0  0  0  0  0  0  0  0  0  0
   59.6490   33.7880   47.0390 C   0  0  0  0  0  0  0  0  0  0  0  0
   60.8440   33.5280   46.3570 C   0  0  0  0  0  0  0  0  0  0  0  0
   62.0740   33.5990   46.9480 C   0  0  0  0  0  0  0  0  0  0  0  0
   62.1480   33.9440   48.2780 C   0  0  0  0  0  0  0  0  0  0  0  0
   63.3950   34.0260   48.9210 O   0  0  0  0  0  0  0  0  0  0  0  0
   64.2930   32.9340   48.8950 C   0  0  0  0  0  0  0  0  0  0  0  0
   65.3780   33.0150   49.9440 C   0  0  0  0  0  0  0  0  0  0  0  0
   60.9870   34.2180   49.0100 C   0  0  0  0  0  0  0  0  0  0  0  0
   59.7300   34.1380   48.3780 C   0  0  0  0  0  0  0  0  0  0  0  0
   57.0570   31.6470   44.8400 N   0  0  0  0  0  0  0  0  0  0  0  0
   58.3225   26.2926   44.6638 H   0  0  0  0  0  0  0  0  0  0  0  0
   57.3384   26.9545   43.3147 H   0  0  0  0  0  0  0  0  0  0  0  0
   59.1219   27.1688   43.3147 H   0  0  0  0  0  0  0  0  0  0  0  0
   58.7939   28.4625   45.5179 H   0  0  0  0  0  0  0  0  0  0  0  0
   58.2501   29.2745   44.0363 H   0  0  0  0  0  0  0  0  0  0  0  0
   56.0778   27.5441   44.8953 H   0  0  0  0  0  0  0  0  0  0  0  0
   56.6211   28.3976   46.3456 H   0  0  0  0  0  0  0  0  0  0  0  0
   56.4060   29.7310   42.2410 H   0  0  0  0  0  0  0  0  0  0  0  0
   57.5228   31.5776   41.0722 H   0  0  0  0  0  0  0  0  0  0  0  0
   58.3589   33.5193   42.3710 H   0  0  0  0  0  0  0  0  0  0  0  0
   60.7900   33.2531   45.2933 H   0  0  0  0  0  0  0  0  0  0  0  0
   62.9865   33.3847   46.3722 H   0  0  0  0  0  0  0  0  0  0  0  0
   63.7202   32.0093   49.0585 H   0  0  0  0  0  0  0  0  0  0  0  0
   64.7916   32.9509   47.9146 H   0  0  0  0  0  0  0  0  0  0  0  0
   64.9234   32.9811   50.9451 H   0  0  0  0  0  0  0  0  0  0  0  0
   66.0670   32.1658   49.8252 H   0  0  0  0  0  0  0  0  0  0  0  0
   65.9333   33.9571   49.8252 H   0  0  0  0  0  0  0  0  0  0  0  0
   61.0553   34.4942   50.0726 H   0  0  0  0  0  0  0  0  0  0  0  0
   58.8134   34.3532   48.9469 H   0  0  0  0  0  0  0  0  0  0  0  0
   56.9270   31.6710   45.8690 H   0  0  0  0  0  0  0  0  0  0  0  0
  1  2  1  0
  2  3  1  0
  3  4  1  0
  4  5  2  0
  5  6  1  0
  6  7  1  0
  7  8  2  0
  8  9  1  0
  9 10  2  0
 10 11  1  0
 11 12  2  0
 11 13  1  0
 13 14  2  0
 14 15  1  0
 15 16  2  0
 16 17  1  0
 17 18  1  0
 18 19  1  0
 16 20  1  0
 20 21  2  0
  9 22  1  0
 22  5  1  0
 21 13  1  0
  1 23  1  0
  1 24  1  0
  1 25  1  0
  2 26  1  0
  2 27  1  0
  3 28  1  0
  3 29  1  0
  6 30  1  0
  7 31  1  0
  8 32  1  0
 14 33  1  0
 15 34  1  0
 18 35  1  0
 18 36  1  0
 19 37  1  0
 19 38  1  0
 19 39  1  0
 20 40  1  0
 21 41  1  0
 22 42  1  0
M  END
>  <smiles>  (21) 
CCCN=c1[nH]ccc(=NC(=O)c2ccc(OCC)cc2)[nH]1

>  <score_type>  (21) 
oracle

>  <origin>  (21) 
adg

>  <m_score__min__energy>  (21) 
-7.0899999999999999

>  <m_primary>  (21) 
energy

$$$$
21:0
     RDKit          3D

 34 34  0  0  0  0  0  0  0  0999 V2000
   59.6580   34.9630   45.8560 C   0  0  0  0  0  0  0  0  0  0  0  0
   58.6230   34.3350   46.7840 C   0  0  0  0  0  0  0  0  0  0  0  0
   57.9730   33.1060   46.1370 C   0  0  0  0  0  0  0  0  0  0  0  0
   57.9970   33.1580   44.5990 C   0  0  0  0  0  0  0  0  0  0  0  0
   57.4900   31.8770   43.9310 C   0  0  0  0  0  0  0  0  0  0  0  0
   56.6720   31.1430   44.8350 O   0  0  0  0  0  0  0  0  0  0  0  0
   56.2560   29.8310   44.5940 C   0  0  0  0  0  0  0  0  0  0  0  0
   55.0610   29.4880   44.8020 O   0  0  0  0  0  0  0  0  0  0  0  0
   57.1910   28.8670   44.1120 N   0  0  0  0  0  0  0  0  0  0  0  0
   57.8710   27.9640   44.9910 C   0  0  0  0  0  0  0  0  0  0  0  0
   59.2660   28.0560   45.0830 C   0  0  0  0  0  0  0  0  0  0  0  0
   59.9690   27.2760   46.0020 C   0  0  0  0  0  0  0  0  0  0  0  0
   59.2820   26.3940   46.8380 C   0  0  0  0  0  0  0  0  0  0  0  0
   57.8960   26.2720   46.7380 C   0  0  0  0  0  0  0  0  0  0  0  0
   57.1740   27.0320   45.8020 C   0  0  0  0  0  0  0  0  0  0  0  0
   55.7620   26.7900   45.6660 N   0  0  0  0  0  0  0  0  0  0  0  0
   55.1510   25.7430   46.2720 O   0  0  0  0  0  0  0  0  0  0  0  0
   60.4462   35.4413   46.4560 H   0  0  0  0  0  0  0  0  0  0  0  0
   60.1030   34.1825   45.2214 H   0  0  0  0  0  0  0  0  0  0  0  0
   59.1712   35.7182   45.2214 H   0  0  0  0  0  0  0  0  0  0  0  0
   59.1168   34.0299   47.7184 H   0  0  0  0  0  0  0  0  0  0  0  0
   57.8383   35.0790   46.9857 H   0  0  0  0  0  0  0  0  0  0  0  0
   58.5151   32.2074   46.4667 H   0  0  0  0  0  0  0  0  0  0  0  0
   56.9190   33.0853   46.4510 H   0  0  0  0  0  0  0  0  0  0  0  0
   57.3637   33.9951   44.2701 H   0  0  0  0  0  0  0  0  0  0  0  0
   59.0477   33.2827   44.2983 H   0  0  0  0  0  0  0  0  0  0  0  0
   56.9013   32.1402   43.0398 H   0  0  0  0  0  0  0  0  0  0  0  0
   58.3516   31.2573   43.6418 H   0  0  0  0  0  0  0  0  0  0  0  0
   59.8115   28.7488   44.4254 H   0  0  0  0  0  0  0  0  0  0  0  0
   61.0641   27.3561   46.0677 H   0  0  0  0  0  0  0  0  0  0  0  0
   59.8343   25.7944   47.5766 H   0  0  0  0  0  0  0  0  0  0  0  0
   57.3623   25.5733   47.3990 H   0  0  0  0  0  0  0  0  0  0  0  0
   55.1540   27.5440   45.2730 H   0  0  0  0  0  0  0  0  0  0  0  0
   55.5170   25.7330   47.1920 H   0  0  0  0  0  0  0  0  0  0  0  0
  1  2  1  0
  2  3  1  0
  3  4  1  0
  4  5  1  0
  5  6  1  0
  6  7  1  0
  7  8  2  0
  7  9  1  0
  9 10  1  0
 10 11  2  0
 11 12  1  0
 12 13  2  0
 13 14  1  0
 14 15  2  0
 15 16  1  0
 16 17  1  0
 15 10  1  0
  1 18  1  0
  1 19  1  0
  1 20  1  0
  2 21  1  0
  2 22  1  0
  3 23  1  0
  3 24  1  0
  4 25  1  0
  4 26  1  0
  5 27  1  0
  5 28  1  0
 11 29  1  0
 12 30  1  0
 13 31  1  0
 14 32  1  0
 16 33  1  0
 17 34  1  0
M  CHG  1   9  -1
M  END
>  <UniqueID>  (22) 
21

>  <SMILES>  (22) 
CCCCCOC(=O)[N-]c1ccccc1NO

>  <Energy>  (22) 
28.248059209468543

>  <Genealogy>  (22) 
CCCCCOC(=O)[N-]c1ccccc1NO (protonated)
CCCCCOC(=O)[N-]c1ccccc1NO (3D coordinates assigned)
CCCCCOC(=O)[N-]c1ccccc1NO (optimized conformer: 28.248059209468543 kcal/mol)

>  <smiles>  (22) 
CCCCCOC(=O)Nc1ccccc1NO

>  <score_type>  (22) 
oracle

>  <origin>  (22) 
adg

>  <m_score__min__energy>  (22) 
-9.0099999999999998

>  <m_primary>  (22) 
energy

$$$$
22:0
     RDKit          3D

 40 42  0  0  0  0  0  0  0  0999 V2000
   61.3680   30.4530   46.9070 O   0  0  0  0  0  0  0  0  0  0  0  0
   59.9240   30.2600   47.2780 S   0  0  0  0  0  0  0  0  0  0  0  0
   59.8690   29.4150   48.5210 O   0  0  0  0  0  0  0  0  0  0  0  0
   59.2160   31.8100   47.6040 N   0  0  0  0  0  0  0  0  0  0  0  0
   59.1120   32.8900   46.6640 C   0  0  0  0  0  0  0  0  0  0  0  0
   58.3720   32.7620   45.4740 C   0  0  0  0  0  0  0  0  0  0  0  0
   58.2710   33.8350   44.5840 C   0  0  0  0  0  0  0  0  0  0  0  0
   58.8990   35.0460   44.8740 C   0  0  0  0  0  0  0  0  0  0  0  0
   59.6330   35.1880   46.0530 C   0  0  0  0  0  0  0  0  0  0  0  0
   59.7550   34.1120   46.9420 C   0  0  0  0  0  0  0  0  0  0  0  0
   60.6870   34.3430   48.4640 S   0  0  0  0  0  0  0  0  0  0  0  0
   62.1690   33.4470   47.8880 C   0  0  0  0  0  0  0  0  0  0  0  0
   62.6410   32.4720   48.9260 C   0  0  0  0  0  0  0  0  0  0  0  0
   63.8970   32.6420   49.5290 C   0  0  0  0  0  0  0  0  0  0  0  0
   64.3310   31.7200   50.4820 C   0  0  0  0  0  0  0  0  0  0  0  0
   63.5140   30.6460   50.8290 C   0  0  0  0  0  0  0  0  0  0  0  0
   62.2590   30.5190   50.2320 C   0  0  0  0  0  0  0  0  0  0  0  0
   61.8480   31.4250   49.3020 N   0  0  0  0  0  0  0  0  0  0  0  0
   59.0970   29.4580   45.9440 C   0  0  0  0  0  0  0  0  0  0  0  0
   59.7380   28.4500   45.2070 C   0  0  0  0  0  0  0  0  0  0  0  0
   59.0720   27.8250   44.1480 C   0  0  0  0  0  0  0  0  0  0  0  0
   57.7720   28.2100   43.8120 C   0  0  0  0  0  0  0  0  0  0  0  0
   57.1350   29.2240   44.5330 C   0  0  0  0  0  0  0  0  0  0  0  0
   55.5130   29.7230   44.0880 Cl  0  0  0  0  0  0  0  0  0  0  0  0
   57.7960   29.8460   45.5990 C   0  0  0  0  0  0  0  0  0  0  0  0
   57.8697   31.8111   45.2426 H   0  0  0  0  0  0  0  0  0  0  0  0
   57.6952   33.7241   43.6533 H   0  0  0  0  0  0  0  0  0  0  0  0
   58.8159   35.8899   44.1733 H   0  0  0  0  0  0  0  0  0  0  0  0
   60.1173   36.1481   46.2848 H   0  0  0  0  0  0  0  0  0  0  0  0
   61.9238   32.9005   46.9654 H   0  0  0  0  0  0  0  0  0  0  0  0
   62.9705   34.1766   47.7003 H   0  0  0  0  0  0  0  0  0  0  0  0
   64.5339   33.4951   49.2525 H   0  0  0  0  0  0  0  0  0  0  0  0
   65.3153   31.8406   50.9580 H   0  0  0  0  0  0  0  0  0  0  0  0
   63.8551   29.9049   51.5668 H   0  0  0  0  0  0  0  0  0  0  0  0
   61.5998   29.6846   50.5135 H   0  0  0  0  0  0  0  0  0  0  0  0
   60.9040   31.3030   48.8700 H   0  0  0  0  0  0  0  0  0  0  0  0
   60.7653   28.1513   45.4627 H   0  0  0  0  0  0  0  0  0  0  0  0
   59.5730   27.0284   43.5783 H   0  0  0  0  0  0  0  0  0  0  0  0
   57.2495   27.7152   42.9800 H   0  0  0  0  0  0  0  0  0  0  0  0
   57.2922   30.6417   46.1673 H   0  0  0  0  0  0  0  0  0  0  0  0
  1  2  2  0
  2  3  2  0
  2  4  1  0
  4  5  1  0
  5  6  2  0
  6  7  1  0
  7  8  2  0
  8  9  1  0
  9 10  2  0
 10 11  1  0
 11 12  1  0
 12 13  1  0
 13 14  2  0
 14 15  1  0
 15 16  2  0
 16 17  1  0
 17 18  2  0
  2 19  1  0
 19 20  2  0
 20 21  1  0
 21 22  2  0
 22 23  1  0
 23 24  1  0
 23 25  2  0
 10  5  1  0
 18 13  1  0
 25 19  1  0
  6 26  1  0
  7 27  1  0
  8 28  1  0
  9 29  1  0
 12 30  1  0
 12 31  1  0
 14 32  1  0
 15 33  1  0
 16 34  1  0
 17 35  1  0
 18 36  1  0
 20 37  1  0
 21 38  1  0
 22 39  1  0
 25 40  1  0
M  CHG  2   4  -1  18   1
M  END
>  <UniqueID>  (23) 
22

>  <SMILES>  (23) 
O=S(=O)([N-]c1ccccc1SCc1cccc[nH+]1)c1cccc(Cl)c1

>  <Energy>  (23) 
39.179126816705

>  <Genealogy>  (23) 
O=S(=O)([N-]c1ccccc1SCc1cccc[nH+]1)c1cccc(Cl)c1 (protonated)
O=S(=O)([N-]c1ccccc1SCc1cccc[nH+]1)c1cccc(Cl)c1 (3D coordinates assigned)
O=S(=O)([N-]c1ccccc1SCc1cccc[nH+]1)c1cccc(Cl)c1 (optimized conformer: 39.179126816705 kcal/mol)

>  <smiles>  (23) 
O=S(=O)(Nc1ccccc1SCc1ccccn1)c1cccc(Cl)c1

>  <score_type>  (23) 
oracle

>  <origin>  (23) 
adg

>  <m_score__min__energy>  (23) 
-7

>  <m_primary>  (23) 
energy

$$$$
23:0
     RDKit          3D

 44 46  0  0  0  0  0  0  0  0999 V2000
   66.3450   31.9520   50.6680 C   0  0  0  0  0  0  0  0  0  0  0  0
   64.9760   32.2770   50.1610 C   0  0  0  0  0  0  0  0  0  0  0  0
   63.9690   31.8430   50.7840 O   0  0  0  0  0  0  0  0  0  0  0  0
   64.8250   33.0020   48.9280 N   0  0  0  0  0  0  0  0  0  0  0  0
   63.5530   33.3050   48.3270 C   0  0  0  0  0  0  0  0  0  0  0  0
   63.3530   33.2070   46.9360 C   0  0  0  0  0  0  0  0  0  0  0  0
   62.1180   33.5510   46.3740 C   0  0  0  0  0  0  0  0  0  0  0  0
   61.0660   33.9860   47.1920 C   0  0  0  0  0  0  0  0  0  0  0  0
   59.5430   34.5100   46.4710 S   0  0  0  0  0  0  0  0  0  0  0  0
   59.6700   35.9510   46.0640 O   0  0  0  0  0  0  0  0  0  0  0  0
   58.4250   34.4020   47.4710 O   0  0  0  0  0  0  0  0  0  0  0  0
   59.1360   33.5620   45.0760 N   0  0  0  0  0  0  0  0  0  0  0  0
   58.4940   32.2850   45.1330 C   0  0  0  0  0  0  0  0  0  0  0  0
   57.4860   31.9930   44.2040 C   0  0  0  0  0  0  0  0  0  0  0  0
   56.8200   30.7640   44.2490 C   0  0  0  0  0  0  0  0  0  0  0  0
   57.1480   29.8110   45.2210 C   0  0  0  0  0  0  0  0  0  0  0  0
   56.4540   28.5920   45.2240 O   0  0  0  0  0  0  0  0  0  0  0  0
   56.9990   27.3250   45.4850 C   0  0  0  0  0  0  0  0  0  0  0  0
   56.1640   26.3360   46.0210 C   0  0  0  0  0  0  0  0  0  0  0  0
   56.6600   25.0580   46.2990 C   0  0  0  0  0  0  0  0  0  0  0  0
   58.0090   24.7670   46.0710 C   0  0  0  0  0  0  0  0  0  0  0  0
   58.4920   23.5320   46.3490 F   0  0  0  0  0  0  0  0  0  0  0  0
   58.8600   25.7550   45.5650 C   0  0  0  0  0  0  0  0  0  0  0  0
   58.3600   27.0300   45.2770 C   0  0  0  0  0  0  0  0  0  0  0  0
   58.1900   30.0870   46.1260 C   0  0  0  0  0  0  0  0  0  0  0  0
   58.8540   31.3180   46.0870 C   0  0  0  0  0  0  0  0  0  0  0  0
   61.2460   34.0320   48.5850 C   0  0  0  0  0  0  0  0  0  0  0  0
   62.4770   33.6840   49.1480 C   0  0  0  0  0  0  0  0  0  0  0  0
   66.3386   31.9535   51.7680 H   0  0  0  0  0  0  0  0  0  0  0  0
   66.6442   30.9579   50.3045 H   0  0  0  0  0  0  0  0  0  0  0  0
   67.0591   32.7056   50.3045 H   0  0  0  0  0  0  0  0  0  0  0  0
   65.6860   33.1490   48.3520 H   0  0  0  0  0  0  0  0  0  0  0  0
   64.1711   32.8585   46.2885 H   0  0  0  0  0  0  0  0  0  0  0  0
   61.9724   33.4797   45.2860 H   0  0  0  0  0  0  0  0  0  0  0  0
   57.2176   32.7336   43.4362 H   0  0  0  0  0  0  0  0  0  0  0  0
   56.0315   30.5441   43.5142 H   0  0  0  0  0  0  0  0  0  0  0  0
   55.1080   26.5667   46.2252 H   0  0  0  0  0  0  0  0  0  0  0  0
   55.9894   24.2821   46.6968 H   0  0  0  0  0  0  0  0  0  0  0  0
   59.9229   25.5297   45.3933 H   0  0  0  0  0  0  0  0  0  0  0  0
   59.0342   27.8062   44.8859 H   0  0  0  0  0  0  0  0  0  0  0  0
   58.4841   29.3304   46.8684 H   0  0  0  0  0  0  0  0  0  0  0  0
   59.6600   31.5294   46.8051 H   0  0  0  0  0  0  0  0  0  0  0  0
   60.4148   34.3431   49.2348 H   0  0  0  0  0  0  0  0  0  0  0  0
   62.6045   33.7069   50.2403 H   0  0  0  0  0  0  0  0  0  0  0  0
  1  2  1  0
  2  3  2  0
  2  4  1  0
  4  5  1  0
  5  6  2  0
  6  7  1  0
  7  8  2  0
  8  9  1  0
  9 10  2  0
  9 11  2  0
  9 12  1  0
 12 13  1  0
 13 14  2  0
 14 15  1  0
 15 16  2  0
 16 17  1  0
 17 18  1  0
 18 19  2  0
 19 20  1  0
 20 21  2  0
 21 22  1  0
 21 23  1  0
 23 24  2  0
 16 25  1  0
 25 26  2  0
  8 27  1  0
 27 28  2  0
 28  5  1  0
 26 13  1  0
 24 18  1  0
  1 29  1  0
  1 30  1  0
  1 31  1  0
  4 32  1  0
  6 33  1  0
  7 34  1  0
 14 35  1  0
 15 36  1  0
 19 37  1  0
 20 38  1  0
 23 39  1  0
 24 40  1  0
 25 41  1  0
 26 42  1  0
 27 43  1  0
 28 44  1  0
M  CHG  1  12  -1
M  END
>  <UniqueID>  (24) 
23

>  <SMILES>  (24) 
CC(=O)Nc1ccc(S(=O)(=O)[N-]c2ccc(Oc3ccc(F)cc3)cc2)cc1

>  <Energy>  (24) 
60.765194827937776

>  <Genealogy>  (24) 
CC(=O)Nc1ccc(S(=O)(=O)[N-]c2ccc(Oc3ccc(F)cc3)cc2)cc1 (protonated)
CC(=O)Nc1ccc(S(=O)(=O)[N-]c2ccc(Oc3ccc(F)cc3)cc2)cc1 (3D coordinates assigned)
CC(=O)Nc1ccc(S(=O)(=O)[N-]c2ccc(Oc3ccc(F)cc3)cc2)cc1 (optimized conformer: 60.765194827937776 kcal/mol)

>  <smiles>  (24) 
CC(=O)Nc1ccc(S(=O)(=O)Nc2ccc(Oc3ccc(F)cc3)cc2)cc1

>  <score_type>  (24) 
oracle

>  <origin>  (24) 
adg

>  <m_score__min__energy>  (24) 
-9.6099999999999994

>  <m_primary>  (24) 
energy

$$$$
24:0
     RDKit          3D

 57 61  0  0  0  0  0  0  0  0999 V2000
   56.6780   29.1220   43.3960 O   0  0  0  0  0  0  0  0  0  0  0  0
   57.7510   28.9500   44.0350 C   0  0  0  0  0  0  0  0  0  0  0  0
   58.5970   27.8340   43.7120 N   0  0  0  0  0  0  0  0  0  0  0  0
   58.1500   26.7380   42.8560 C   0  0  0  0  0  0  0  0  0  0  0  0
   57.7050   25.5740   43.6990 C   0  0  0  0  0  0  0  0  0  0  0  0
   57.3410   24.3690   43.0840 C   0  0  0  0  0  0  0  0  0  0  0  0
   56.9730   23.2540   43.8540 C   0  0  0  0  0  0  0  0  0  0  0  0
   56.5520   21.9740   43.1750 C   0  0  0  0  0  0  0  0  0  0  0  0
   57.6330   21.3900   42.5390 F   0  0  0  0  0  0  0  0  0  0  0  0
   55.5770   22.2570   42.2370 F   0  0  0  0  0  0  0  0  0  0  0  0
   56.0460   21.0670   44.0910 F   0  0  0  0  0  0  0  0  0  0  0  0
   56.9280   23.3750   45.2550 C   0  0  0  0  0  0  0  0  0  0  0  0
   57.2770   24.5830   45.8840 C   0  0  0  0  0  0  0  0  0  0  0  0
   57.2890   24.6710   47.3900 C   0  0  0  0  0  0  0  0  0  0  0  0
   57.7720   23.5020   47.9540 F   0  0  0  0  0  0  0  0  0  0  0  0
   58.0970   25.7150   47.8050 F   0  0  0  0  0  0  0  0  0  0  0  0
   56.0010   24.8890   47.8430 F   0  0  0  0  0  0  0  0  0  0  0  0
   57.6950   25.6690   45.0970 C   0  0  0  0  0  0  0  0  0  0  0  0
   58.1310   29.9130   45.0940 C   0  0  0  0  0  0  0  0  0  0  0  0
   58.4940   31.2320   44.7730 C   0  0  0  0  0  0  0  0  0  0  0  0
   58.8590   32.1350   45.7760 C   0  0  0  0  0  0  0  0  0  0  0  0
   58.8660   31.7380   47.1250 C   0  0  0  0  0  0  0  0  0  0  0  0
   59.2100   32.6180   48.1740 C   0  0  0  0  0  0  0  0  0  0  0  0
   59.6320   34.3460   47.8860 S   0  0  0  0  0  0  0  0  0  0  0  0
   61.3950   34.0190   47.8840 C   0  0  0  0  0  0  0  0  0  0  0  0
   62.0610   33.7800   46.6750 C   0  0  0  0  0  0  0  0  0  0  0  0
   63.4330   33.5130   46.6710 C   0  0  0  0  0  0  0  0  0  0  0  0
   64.1450   33.4960   47.8730 C   0  0  0  0  0  0  0  0  0  0  0  0
   63.4860   33.7430   49.0810 C   0  0  0  0  0  0  0  0  0  0  0  0
   62.1120   34.0060   49.0880 C   0  0  0  0  0  0  0  0  0  0  0  0
   59.2180   32.1480   49.4920 C   0  0  0  0  0  0  0  0  0  0  0  0
   58.8690   30.8200   49.7650 C   0  0  0  0  0  0  0  0  0  0  0  0
   58.8470   30.3090   51.1470 C   0  0  0  0  0  0  0  0  0  0  0  0
   57.7830   29.6890   51.7080 N   0  0  0  0  0  0  0  0  0  0  0  0
   58.0330   29.3070   52.9880 C   0  0  0  0  0  0  0  0  0  0  0  0
   59.3010   29.6200   53.4620 C   0  0  0  0  0  0  0  0  0  0  0  0
   60.1340   30.3990   52.2280 S   0  0  0  0  0  0  0  0  0  0  0  0
   58.5320   29.9920   48.7420 N   0  0  0  0  0  0  0  0  0  0  0  0
   58.5210   30.4050   47.4460 C   0  0  0  0  0  0  0  0  0  0  0  0
   58.1630   29.5050   46.4370 C   0  0  0  0  0  0  0  0  0  0  0  0
   59.5790   27.8100   44.0660 H   0  0  0  0  0  0  0  0  0  0  0  0
   57.3090   27.0806   42.2352 H   0  0  0  0  0  0  0  0  0  0  0  0
   58.9836   26.4197   42.2128 H   0  0  0  0  0  0  0  0  0  0  0  0
   57.3435   24.2956   41.9865 H   0  0  0  0  0  0  0  0  0  0  0  0
   56.6162   22.5146   45.8653 H   0  0  0  0  0  0  0  0  0  0  0  0
   58.0172   26.6020   45.5824 H   0  0  0  0  0  0  0  0  0  0  0  0
   58.4909   31.5573   43.7222 H   0  0  0  0  0  0  0  0  0  0  0  0
   59.1427   33.1634   45.5080 H   0  0  0  0  0  0  0  0  0  0  0  0
   61.5033   33.8025   45.7271 H   0  0  0  0  0  0  0  0  0  0  0  0
   63.9522   33.3162   45.7214 H   0  0  0  0  0  0  0  0  0  0  0  0
   65.2252   33.2881   47.8689 H   0  0  0  0  0  0  0  0  0  0  0  0
   64.0481   33.7305   50.0264 H   0  0  0  0  0  0  0  0  0  0  0  0
   61.5945   34.2026   50.0385 H   0  0  0  0  0  0  0  0  0  0  0  0
   59.4987   32.8226   50.3143 H   0  0  0  0  0  0  0  0  0  0  0  0
   57.2850   28.7872   53.6047 H   0  0  0  0  0  0  0  0  0  0  0  0
   59.6903   29.3974   54.4664 H   0  0  0  0  0  0  0  0  0  0  0  0
   57.9042   28.4682   46.6980 H   0  0  0  0  0  0  0  0  0  0  0  0
  1  2  2  0
  2  3  1  0
  3  4  1  0
  4  5  1  0
  5  6  2  0
  6  7  1  0
  7  8  1  0
  8  9  1  0
  8 10  1  0
  8 11  1  0
  7 12  2  0
 12 13  1  0
 13 14  1  0
 14 15  1  0
 14 16  1  0
 14 17  1  0
 13 18  2  0
  2 19  1  0
 19 20  2  0
 20 21  1  0
 21 22  2  0
 22 23  1  0
 23 24  1  0
 24 25  1  0
 25 26  2  0
 26 27  1  0
 27 28  2  0
 28 29  1  0
 29 30  2  0
 23 31  2  0
 31 32  1  0
 32 33  1  0
 33 34  2  0
 34 35  1  0
 35 36  2  0
 36 37  1  0
 32 38  2  0
 38 39  1  0
 39 40  2  0
 18  5  1  0
 40 19  1  0
 39 22  1  0
 30 25  1  0
 37 33  1  0
  3 41  1  0
  4 42  1  0
  4 43  1  0
  6 44  1  0
 12 45  1  0
 18 46  1  0
 20 47  1  0
 21 48  1  0
 26 49  1  0
 27 50  1  0
 28 51  1  0
 29 52  1  0
 30 53  1  0
 31 54  1  0
 35 55  1  0
 36 56  1  0
 40 57  1  0
M  END
>  <UniqueID>  (25) 
24

>  <SMILES>  (25) 
O=C(NCc1cc(C(F)(F)F)cc(C(F)(F)F)c1)c1ccc2c(Sc3ccccc3)cc(-c3nccs3)nc2c1

>  <Energy>  (25) 
93.84321949072594

>  <Genealogy>  (25) 
O=C(NCc1cc(C(F)(F)F)cc(C(F)(F)F)c1)c1ccc2c(Sc3ccccc3)cc(-c3nccs3)nc2c1 (3D coordinates assigned)
O=C(NCc1cc(C(F)(F)F)cc(C(F)(F)F)c1)c1ccc2c(Sc3ccccc3)cc(-c3nccs3)nc2c1 (optimized conformer: 93.84321949072594 kcal/mol)

>  <smiles>  (25) 
O=C(NCc1cc(C(F)(F)F)cc(C(F)(F)F)c1)c1ccc2c(Sc3ccccc3)cc(-c3nccs3)nc2c1

>  <score_type>  (25) 
oracle

>  <origin>  (25) 
adg

>  <m_score__min__energy>  (25) 
-8.6699999999999999

>  <m_primary>  (25) 
energy

$$$$
25:0
     RDKit          3D

 54 57  0  0  0  0  0  0  0  0999 V2000
   62.0450   30.5950   51.3880 C   0  0  0  0  0  0  0  0  0  0  0  0
   61.0160   30.1430   50.3970 C   0  0  0  0  0  0  0  0  0  0  0  0
   59.8050   30.8390   50.2850 C   0  0  0  0  0  0  0  0  0  0  0  0
   58.8410   30.4090   49.3740 C   0  0  0  0  0  0  0  0  0  0  0  0
   59.0850   29.2780   48.5850 C   0  0  0  0  0  0  0  0  0  0  0  0
   58.1480   28.8430   47.6380 C   0  0  0  0  0  0  0  0  0  0  0  0
   58.3850   27.6900   46.8810 C   0  0  0  0  0  0  0  0  0  0  0  0
   57.1690   27.2140   45.6340 S   0  0  0  0  0  0  0  0  0  0  0  0
   57.4310   28.6750   44.5630 C   0  0  0  0  0  0  0  0  0  0  0  0
   56.3690   29.7140   44.7960 C   0  0  0  0  0  0  0  0  0  0  0  0
   55.1620   29.3510   44.8770 O   0  0  0  0  0  0  0  0  0  0  0  0
   56.6950   31.1010   44.9450 N   0  0  0  0  0  0  0  0  0  0  0  0
   57.8390   31.6330   45.6180 C   0  0  0  0  0  0  0  0  0  0  0  0
   57.7640   32.9030   46.1920 C   0  0  0  0  0  0  0  0  0  0  0  0
   58.8580   33.4380   46.8750 C   0  0  0  0  0  0  0  0  0  0  0  0
   60.0670   32.7120   46.9980 C   0  0  0  0  0  0  0  0  0  0  0  0
   61.1870   33.2330   47.7710 N   0  0  0  0  0  0  0  0  0  0  0  0
   62.5680   32.9620   47.3100 C   0  0  0  0  0  0  0  0  0  0  0  0
   63.6680   33.5140   48.2380 C   0  0  0  0  0  0  0  0  0  0  0  0
   63.2450   33.6030   49.5770 O   0  0  0  0  0  0  0  0  0  0  0  0
   62.1900   34.5410   49.6470 C   0  0  0  0  0  0  0  0  0  0  0  0
   60.9250   33.9470   49.0350 C   0  0  0  0  0  0  0  0  0  0  0  0
   60.1440   31.4540   46.3580 C   0  0  0  0  0  0  0  0  0  0  0  0
   59.0540   30.9350   45.6590 C   0  0  0  0  0  0  0  0  0  0  0  0
   59.5550   26.9300   47.1070 C   0  0  0  0  0  0  0  0  0  0  0  0
   59.7950   25.6390   46.3750 C   0  0  0  0  0  0  0  0  0  0  0  0
   60.5080   27.3880   48.0350 C   0  0  0  0  0  0  0  0  0  0  0  0
   60.2900   28.5660   48.7630 C   0  0  0  0  0  0  0  0  0  0  0  0
   61.2190   29.0130   49.6590 N   0  0  0  0  0  0  0  0  0  0  0  0
   61.6688   30.4298   52.4084 H   0  0  0  0  0  0  0  0  0  0  0  0
   62.9720   30.0212   51.2416 H   0  0  0  0  0  0  0  0  0  0  0  0
   62.2496   31.6658   51.2416 H   0  0  0  0  0  0  0  0  0  0  0  0
   59.6155   31.7216   50.9136 H   0  0  0  0  0  0  0  0  0  0  0  0
   57.8919   30.9563   49.2754 H   0  0  0  0  0  0  0  0  0  0  0  0
   57.2188   29.4124   47.4885 H   0  0  0  0  0  0  0  0  0  0  0  0
   58.4158   29.1116   44.7854 H   0  0  0  0  0  0  0  0  0  0  0  0
   57.3797   28.3522   43.5127 H   0  0  0  0  0  0  0  0  0  0  0  0
   56.8358   33.4870   46.1056 H   0  0  0  0  0  0  0  0  0  0  0  0
   58.7792   34.4389   47.3244 H   0  0  0  0  0  0  0  0  0  0  0  0
   62.6975   31.8724   47.2329 H   0  0  0  0  0  0  0  0  0  0  0  0
   62.6838   33.4765   46.3447 H   0  0  0  0  0  0  0  0  0  0  0  0
   64.5410   32.8468   48.1869 H   0  0  0  0  0  0  0  0  0  0  0  0
   63.9166   34.5297   47.8965 H   0  0  0  0  0  0  0  0  0  0  0  0
   61.9999   34.7981   50.6995 H   0  0  0  0  0  0  0  0  0  0  0  0
   62.4722   35.4455   49.0882 H   0  0  0  0  0  0  0  0  0  0  0  0
   60.4842   33.2405   49.7538 H   0  0  0  0  0  0  0  0  0  0  0  0
   60.2408   34.7789   48.8118 H   0  0  0  0  0  0  0  0  0  0  0  0
   61.0779   30.8753   46.4120 H   0  0  0  0  0  0  0  0  0  0  0  0
   59.1485   29.9716   45.1365 H   0  0  0  0  0  0  0  0  0  0  0  0
   59.9458   24.8277   47.1023 H   0  0  0  0  0  0  0  0  0  0  0  0
   58.9244   25.4082   45.7435 H   0  0  0  0  0  0  0  0  0  0  0  0
   60.6904   25.7365   45.7435 H   0  0  0  0  0  0  0  0  0  0  0  0
   61.4343   26.8156   48.1911 H   0  0  0  0  0  0  0  0  0  0  0  0
   62.1120   28.4800   49.7830 H   0  0  0  0  0  0  0  0  0  0  0  0
  1  2  1  0
  2  3  2  0
  3  4  1  0
  4  5  2  0
  5  6  1  0
  6  7  2  0
  7  8  1  0
  8  9  1  0
  9 10  1  0
 10 11  2  0
 10 12  1  0
 12 13  1  0
 13 14  2  0
 14 15  1  0
 15 16  2  0
 16 17  1  0
 17 18  1  0
 18 19  1  0
 19 20  1  0
 20 21  1  0
 21 22  1  0
 16 23  1  0
 23 24  2  0
  7 25  1  0
 25 26  1  0
 25 27  2  0
 27 28  1  0
 28 29  2  0
 29  2  1  0
 28  5  1  0
 24 13  1  0
 22 17  1  0
  1 30  1  0
  1 31  1  0
  1 32  1  0
  3 33  1  0
  4 34  1  0
  6 35  1  0
  9 36  1  0
  9 37  1  0
 14 38  1  0
 15 39  1  0
 18 40  1  0
 18 41  1  0
 19 42  1  0
 19 43  1  0
 21 44  1  0
 21 45  1  0
 22 46  1  0
 22 47  1  0
 23 48  1  0
 24 49  1  0
 26 50  1  0
 26 51  1  0
 26 52  1  0
 27 53  1  0
 29 54  1  0
M  CHG  2  12  -1  29   1
M  END
>  <UniqueID>  (26) 
25

>  <SMILES>  (26) 
Cc1ccc2cc(SCC(=O)[N-]c3ccc(N4CCOCC4)cc3)c(C)cc2[nH+]1

>  <Energy>  (26) 
63.044700911070755

>  <Genealogy>  (26) 
Cc1ccc2cc(SCC(=O)[N-]c3ccc(N4CCOCC4)cc3)c(C)cc2[nH+]1 (protonated)
Cc1ccc2cc(SCC(=O)[N-]c3ccc(N4CCOCC4)cc3)c(C)cc2[nH+]1 (3D coordinates assigned)
Cc1ccc2cc(SCC(=O)[N-]c3ccc(N4CCOCC4)cc3)c(C)cc2[nH+]1 (nonaromatic ring conformer: 63.044700911070755 kcal/mol)

>  <smiles>  (26) 
Cc1ccc2cc(SCC(=O)Nc3ccc(N4CCOCC4)cc3)c(C)cc2n1

>  <score_type>  (26) 
oracle

>  <origin>  (26) 
adg

>  <m_score__min__energy>  (26) 
-8.6500000000000004

>  <m_primary>  (26) 
energy

$$$$
26:0
     RDKit          3D

 50 51  0  0  0  0  0  0  0  0999 V2000
   58.6230   33.8750   47.4210 C   0  0  0  0  0  0  0  0  0  0  0  0
   60.0550   33.8300   47.8810 C   0  0  0  0  0  0  0  0  0  0  0  0
   61.0950   33.8380   46.9380 C   0  0  0  0  0  0  0  0  0  0  0  0
   62.4270   33.8080   47.3550 C   0  0  0  0  0  0  0  0  0  0  0  0
   62.7320   33.7770   48.7160 C   0  0  0  0  0  0  0  0  0  0  0  0
   61.7070   33.7760   49.6650 C   0  0  0  0  0  0  0  0  0  0  0  0
   60.3550   33.8110   49.2610 C   0  0  0  0  0  0  0  0  0  0  0  0
   59.2910   33.8070   50.1800 O   0  0  0  0  0  0  0  0  0  0  0  0
   59.4040   33.8080   51.6050 C   0  0  0  0  0  0  0  0  0  0  0  0
   58.0230   33.7740   52.2760 C   0  0  0  0  0  0  0  0  0  0  0  0
   57.3470   32.5540   52.0340 O   0  0  0  0  0  0  0  0  0  0  0  0
   58.2580   31.4790   51.8790 C   0  0  0  0  0  0  0  0  0  0  0  0
   57.5160   30.1660   51.5630 C   0  0  0  0  0  0  0  0  0  0  0  0
   56.1330   30.1850   52.0660 N   0  0  0  0  0  0  0  0  0  0  0  0
   55.8490   29.0920   53.0230 C   0  0  1  0  0  0  0  0  0  0  0  0
   56.1070   29.5370   54.4720 C   0  0  0  0  0  0  0  0  0  0  0  0
   54.4040   28.5860   52.8320 C   0  0  0  0  0  0  0  0  0  0  0  0
   53.4260   29.6920   52.5170 C   0  0  0  0  0  0  0  0  0  0  0  0
   53.2410   30.1190   51.1900 C   0  0  0  0  0  0  0  0  0  0  0  0
   52.3160   31.1250   50.8960 C   0  0  0  0  0  0  0  0  0  0  0  0
   51.5730   31.7180   51.9220 C   0  0  0  0  0  0  0  0  0  0  0  0
   50.6540   32.7180   51.6270 O   0  0  0  0  0  0  0  0  0  0  0  0
   51.7520   31.3000   53.2450 C   0  0  0  0  0  0  0  0  0  0  0  0
   52.6720   30.2900   53.5430 C   0  0  0  0  0  0  0  0  0  0  0  0
   57.9572   33.8959   48.2964 H   0  0  0  0  0  0  0  0  0  0  0  0
   58.4607   34.7787   46.8152 H   0  0  0  0  0  0  0  0  0  0  0  0
   58.4043   32.9833   46.8152 H   0  0  0  0  0  0  0  0  0  0  0  0
   60.8589   33.8681   45.8641 H   0  0  0  0  0  0  0  0  0  0  0  0
   63.2364   33.8088   46.6101 H   0  0  0  0  0  0  0  0  0  0  0  0
   63.7821   33.7533   49.0426 H   0  0  0  0  0  0  0  0  0  0  0  0
   61.9556   33.7477   50.7362 H   0  0  0  0  0  0  0  0  0  0  0  0
   59.9766   32.9230   51.9193 H   0  0  0  0  0  0  0  0  0  0  0  0
   59.9154   34.7325   51.9114 H   0  0  0  0  0  0  0  0  0  0  0  0
   58.1520   33.8996   53.3612 H   0  0  0  0  0  0  0  0  0  0  0  0
   57.4180   34.5884   51.8509 H   0  0  0  0  0  0  0  0  0  0  0  0
   58.9486   31.7091   51.0543 H   0  0  0  0  0  0  0  0  0  0  0  0
   58.8111   31.3504   52.8211 H   0  0  0  0  0  0  0  0  0  0  0  0
   57.4964   30.0217   50.4727 H   0  0  0  0  0  0  0  0  0  0  0  0
   58.0497   29.3433   52.0612 H   0  0  0  0  0  0  0  0  0  0  0  0
   55.9160   31.1300   52.4630 H   0  0  0  0  0  0  0  0  0  0  0  0
   56.5364   28.2581   52.8180 H   0  0  0  0  0  0  0  0  0  0  0  0
   55.6783   28.7976   55.1645 H   0  0  0  0  0  0  0  0  0  0  0  0
   57.1906   29.6154   54.6441 H   0  0  0  0  0  0  0  0  0  0  0  0
   55.6366   30.5164   54.6441 H   0  0  0  0  0  0  0  0  0  0  0  0
   54.3931   27.8625   52.0035 H   0  0  0  0  0  0  0  0  0  0  0  0
   54.0881   28.1295   53.7816 H   0  0  0  0  0  0  0  0  0  0  0  0
   53.8265   29.6595   50.3800 H   0  0  0  0  0  0  0  0  0  0  0  0
   52.1721   31.4510   49.8553 H   0  0  0  0  0  0  0  0  0  0  0  0
   51.1681   31.7666   54.0521 H   0  0  0  0  0  0  0  0  0  0  0  0
   52.8067   29.9617   54.5842 H   0  0  0  0  0  0  0  0  0  0  0  0
  1  2  1  0
  2  3  2  0
  3  4  1  0
  4  5  2  0
  5  6  1  0
  6  7  2  0
  7  8  1  0
  8  9  1  0
  9 10  1  0
 10 11  1  0
 11 12  1  0
 12 13  1  0
 13 14  1  0
 14 15  1  0
 15 16  1  0
 15 17  1  0
 17 18  1  0
 18 19  2  0
 19 20  1  0
 20 21  2  0
 21 22  1  0
 21 23  1  0
 23 24  2  0
  7  2  1  0
 24 18  1  0
  1 25  1  0
  1 26  1  0
  1 27  1  0
  3 28  1  0
  4 29  1  0
  5 30  1  0
  6 31  1  0
  9 32  1  0
  9 33  1  0
 10 34  1  0
 10 35  1  0
 12 36  1  0
 12 37  1  0
 13 38  1  0
 13 39  1  0
 14 40  1  0
 15 41  1  6
 16 42  1  0
 16 43  1  0
 16 44  1  0
 17 45  1  0
 17 46  1  0
 19 47  1  0
 20 48  1  0
 23 49  1  0
 24 50  1  0
M  CHG  1  22  -1
M  END
>  <UniqueID>  (27) 
26

>  <SMILES>  (27) 
Cc1ccccc1OCCOCCN[C@@H](C)Cc1ccc([O-])cc1

>  <Energy>  (27) 
50.63033022214756

>  <Genealogy>  (27) 
Cc1ccccc1OCCOCCNC(C)Cc1ccc([O-])cc1 (protonated)
Cc1ccccc1OCCOCCN[C@@H](C)Cc1ccc([O-])cc1 (chirality)
Cc1ccccc1OCCOCCN[C@@H](C)Cc1ccc([O-])cc1 (3D coordinates assigned)
Cc1ccccc1OCCOCCN[C@@H](C)Cc1ccc([O-])cc1 (optimized conformer: 50.63033022214756 kcal/mol)

>  <smiles>  (27) 
Cc1ccccc1OCCOCCNC(C)Cc1ccc(O)cc1

>  <score_type>  (27) 
oracle

>  <origin>  (27) 
adg

>  <m_score__min__energy>  (27) 
-11.119999999999999

>  <m_primary>  (27) 
energy

$$$$
27:0
     RDKit          3D

 45 48  0  0  0  0  0  0  0  0999 V2000
   55.9000   30.8380   44.5060 O   0  0  0  0  0  0  0  0  0  0  0  0
   57.1370   30.7780   44.7420 C   0  0  0  0  0  0  0  0  0  0  0  0
   57.8520   29.5590   44.4990 N   0  0  0  0  0  0  0  0  0  0  0  0
   58.2990   28.6340   45.5010 C   0  0  0  0  0  0  0  0  0  0  0  0
   59.6460   28.5830   45.9180 C   0  0  0  0  0  0  0  0  0  0  0  0
   60.5850   29.3800   45.3530 F   0  0  0  0  0  0  0  0  0  0  0  0
   60.0420   27.6540   46.8870 C   0  0  0  0  0  0  0  0  0  0  0  0
   59.1130   26.7640   47.4300 C   0  0  0  0  0  0  0  0  0  0  0  0
   57.7850   26.7910   46.9990 C   0  0  0  0  0  0  0  0  0  0  0  0
   57.3810   27.7160   46.0310 C   0  0  0  0  0  0  0  0  0  0  0  0
   56.0880   27.7290   45.6180 F   0  0  0  0  0  0  0  0  0  0  0  0
   57.8630   31.9800   45.2160 C   0  0  0  0  0  0  0  0  0  0  0  0
   57.4080   33.2620   44.8700 C   0  0  0  0  0  0  0  0  0  0  0  0
   58.0960   34.3840   45.3260 C   0  0  0  0  0  0  0  0  0  0  0  0
   59.2280   34.2300   46.1200 C   0  0  0  0  0  0  0  0  0  0  0  0
   59.6700   32.9410   46.4570 C   0  0  0  0  0  0  0  0  0  0  0  0
   60.8820   32.7580   47.2950 C   0  0  0  0  0  0  0  0  0  0  0  0
   62.0320   33.5360   47.0730 C   0  0  0  0  0  0  0  0  0  0  0  0
   63.1700   33.3630   47.8660 C   0  0  0  0  0  0  0  0  0  0  0  0
   63.1830   32.4090   48.8990 C   0  0  0  0  0  0  0  0  0  0  0  0
   64.3930   32.2260   49.7420 C   0  0  0  0  0  0  0  0  0  0  0  0
   65.4960   33.0900   49.6100 C   0  0  0  0  0  0  0  0  0  0  0  0
   66.6320   32.9150   50.4040 C   0  0  0  0  0  0  0  0  0  0  0  0
   66.6820   31.8770   51.3380 C   0  0  0  0  0  0  0  0  0  0  0  0
   65.5940   31.0130   51.4790 C   0  0  0  0  0  0  0  0  0  0  0  0
   64.4540   31.1840   50.6870 C   0  0  0  0  0  0  0  0  0  0  0  0
   62.0330   31.6330   49.1200 C   0  0  0  0  0  0  0  0  0  0  0  0
   60.8950   31.8050   48.3270 C   0  0  0  0  0  0  0  0  0  0  0  0
   58.9780   31.8530   45.9990 N   0  0  0  0  0  0  0  0  0  0  0  0
   61.0893   27.6248   47.2222 H   0  0  0  0  0  0  0  0  0  0  0  0
   59.4274   26.0414   48.1975 H   0  0  0  0  0  0  0  0  0  0  0  0
   57.0559   26.0839   47.4214 H   0  0  0  0  0  0  0  0  0  0  0  0
   56.5127   33.3800   44.2419 H   0  0  0  0  0  0  0  0  0  0  0  0
   57.7445   35.3914   45.0584 H   0  0  0  0  0  0  0  0  0  0  0  0
   59.7739   35.1138   46.4818 H   0  0  0  0  0  0  0  0  0  0  0  0
   62.0361   34.2867   46.2690 H   0  0  0  0  0  0  0  0  0  0  0  0
   64.0628   33.9782   47.6805 H   0  0  0  0  0  0  0  0  0  0  0  0
   65.4634   33.9090   48.8764 H   0  0  0  0  0  0  0  0  0  0  0  0
   67.4889   33.5958   50.2937 H   0  0  0  0  0  0  0  0  0  0  0  0
   67.5777   31.7405   51.9618 H   0  0  0  0  0  0  0  0  0  0  0  0
   65.6337   30.1961   52.2146 H   0  0  0  0  0  0  0  0  0  0  0  0
   63.6000   30.5004   50.8030 H   0  0  0  0  0  0  0  0  0  0  0  0
   62.0281   30.8830   49.9247 H   0  0  0  0  0  0  0  0  0  0  0  0
   60.0025   31.1893   48.5124 H   0  0  0  0  0  0  0  0  0  0  0  0
   59.3000   30.8990   46.2760 H   0  0  0  0  0  0  0  0  0  0  0  0
  1  2  2  0
  2  3  1  0
  3  4  1  0
  4  5  2  0
  5  6  1  0
  5  7  1  0
  7  8  2  0
  8  9  1  0
  9 10  2  0
 10 11  1  0
  2 12  1  0
 12 13  2  0
 13 14  1  0
 14 15  2  0
 15 16  1  0
 16 17  1  0
 17 18  2  0
 18 19  1  0
 19 20  2  0
 20 21  1  0
 21 22  2  0
 22 23  1  0
 23 24  2  0
 24 25  1  0
 25 26  2  0
 20 27  1  0
 27 28  2  0
 16 29  2  0
 10  4  1  0
 29 12  1  0
 28 17  1  0
 26 21  1  0
  7 30  1  0
  8 31  1  0
  9 32  1  0
 13 33  1  0
 14 34  1  0
 15 35  1  0
 18 36  1  0
 19 37  1  0
 22 38  1  0
 23 39  1  0
 24 40  1  0
 25 41  1  0
 26 42  1  0
 27 43  1  0
 28 44  1  0
 29 45  1  0
M  CHG  2   3  -1  29   1
M  END
>  <UniqueID>  (28) 
27

>  <SMILES>  (28) 
O=C([N-]c1c(F)cccc1F)c1cccc(-c2ccc(-c3ccccc3)cc2)[nH+]1

>  <Energy>  (28) 
66.65484959291808

>  <Genealogy>  (28) 
O=C([N-]c1c(F)cccc1F)c1cccc(-c2ccc(-c3ccccc3)cc2)[nH+]1 (protonated)
O=C([N-]c1c(F)cccc1F)c1cccc(-c2ccc(-c3ccccc3)cc2)[nH+]1 (3D coordinates assigned)
O=C([N-]c1c(F)cccc1F)c1cccc(-c2ccc(-c3ccccc3)cc2)[nH+]1 (optimized conformer: 66.65484959291808 kcal/mol)

>  <smiles>  (28) 
O=C(Nc1c(F)cccc1F)c1cccc(-c2ccc(-c3ccccc3)cc2)n1

>  <score_type>  (28) 
oracle

>  <origin>  (28) 
adg

>  <m_score__min__energy>  (28) 
-8.9499999999999993

>  <m_primary>  (28) 
energy

$$$$
28:0
     RDKit          3D

 48 52  0  0  0  0  0  0  0  0999 V2000
   60.2610   26.8900   49.1130 C   0  0  0  0  0  0  0  0  0  0  0  0
   59.2910   26.9680   48.0280 N   0  0  0  0  0  0  0  0  0  0  0  0
   58.3680   26.0320   47.7070 C   0  0  0  0  0  0  0  0  0  0  0  0
   58.1490   24.8660   48.4310 O   0  0  0  0  0  0  0  0  0  0  0  0
   57.7550   26.3730   46.5160 C   0  0  0  0  0  0  0  0  0  0  0  0
   58.3250   27.5000   46.0850 C   0  0  0  0  0  0  0  0  0  0  0  0
   59.3200   27.8300   46.9840 C   0  0  0  0  0  0  0  0  0  0  0  0
   60.2850   28.8200   46.8170 O   0  0  0  0  0  0  0  0  0  0  0  0
   58.1320   27.6860   44.6320 C   0  0  2  0  0  0  0  0  0  0  0  0
   57.3060   28.9070   44.3440 C   0  0  0  0  0  0  0  0  0  0  0  0
   57.7550   30.0990   43.8020 C   0  0  0  0  0  0  0  0  0  0  0  0
   56.6450   30.9110   43.7100 C   0  0  0  0  0  0  0  0  0  0  0  0
   55.5860   30.1680   44.1900 C   0  0  0  0  0  0  0  0  0  0  0  0
   56.0100   28.9800   44.5550 O   0  0  0  0  0  0  0  0  0  0  0  0
   57.3960   26.4730   44.1930 N   0  0  0  0  0  0  0  0  0  0  0  0
   57.1350   25.6240   45.3910 C   0  0  1  0  0  0  0  0  0  0  0  0
   57.7550   24.2090   45.2480 C   0  0  0  0  0  0  0  0  0  0  0  0
   57.1020   23.3590   44.1330 C   0  0  0  0  0  0  0  0  0  0  0  0
   55.6280   23.7110   43.8410 C   0  0  0  0  0  0  0  0  0  0  0  0
   54.9850   24.3550   44.9920 N   0  0  0  0  0  0  0  0  0  0  0  0
   53.7630   23.8080   45.5860 C   0  0  0  0  0  0  0  0  0  0  0  0
   54.1090   23.0110   46.8040 C   0  0  0  0  0  0  0  0  0  0  0  0
   53.2510   22.1630   47.4930 C   0  0  0  0  0  0  0  0  0  0  0  0
   53.8160   21.6400   48.6630 C   0  0  0  0  0  0  0  0  0  0  0  0
   55.1090   22.0890   48.9050 C   0  0  0  0  0  0  0  0  0  0  0  0
   55.5470   23.1370   47.6640 S   0  0  0  0  0  0  0  0  0  0  0  0
   55.6510   25.4770   45.5910 C   0  0  0  0  0  0  0  0  0  0  0  0
   54.9970   26.3280   46.2560 O   0  0  0  0  0  0  0  0  0  0  0  0
   59.7355   26.9323   50.0784 H   0  0  0  0  0  0  0  0  0  0  0  0
   60.8178   25.9442   49.0397 H   0  0  0  0  0  0  0  0  0  0  0  0
   60.9618   27.7347   49.0397 H   0  0  0  0  0  0  0  0  0  0  0  0
   60.2330   29.6920   47.3280 H   0  0  0  0  0  0  0  0  0  0  0  0
   59.0916   27.8221   44.1117 H   0  0  0  0  0  0  0  0  0  0  0  0
   58.7850   30.3470   43.5059 H   0  0  0  0  0  0  0  0  0  0  0  0
   56.6104   31.9429   43.3306 H   0  0  0  0  0  0  0  0  0  0  0  0
   54.5452   30.5176   44.2567 H   0  0  0  0  0  0  0  0  0  0  0  0
   57.9840   25.9680   43.4890 H   0  0  0  0  0  0  0  0  0  0  0  0
   58.8254   24.3193   45.0199 H   0  0  0  0  0  0  0  0  0  0  0  0
   57.5830   23.6829   46.1986 H   0  0  0  0  0  0  0  0  0  0  0  0
   57.6796   23.5033   43.2080 H   0  0  0  0  0  0  0  0  0  0  0  0
   57.1110   22.3176   44.4873 H   0  0  0  0  0  0  0  0  0  0  0  0
   55.5888   24.3962   42.9814 H   0  0  0  0  0  0  0  0  0  0  0  0
   55.0888   22.7767   43.6257 H   0  0  0  0  0  0  0  0  0  0  0  0
   53.0918   24.6329   45.8670 H   0  0  0  0  0  0  0  0  0  0  0  0
   53.2614   23.1573   44.8545 H   0  0  0  0  0  0  0  0  0  0  0  0
   52.2316   21.9264   47.1541 H   0  0  0  0  0  0  0  0  0  0  0  0
   53.2869   20.9406   49.3270 H   0  0  0  0  0  0  0  0  0  0  0  0
   55.7385   21.8071   49.7619 H   0  0  0  0  0  0  0  0  0  0  0  0
  1  2  1  0
  2  3  1  0
  3  4  1  0
  3  5  2  0
  5  6  1  0
  6  7  2  0
  7  8  1  0
  6  9  1  0
  9 10  1  0
 10 11  2  0
 11 12  1  0
 12 13  2  0
 13 14  1  0
  9 15  1  0
 16 15  1  6
 16 17  1  0
 17 18  1  0
 18 19  1  0
 19 20  1  0
 20 21  1  0
 21 22  1  0
 22 23  2  0
 23 24  1  0
 24 25  2  0
 25 26  1  0
 20 27  1  0
 27 28  2  0
  7  2  1  0
 14 10  1  0
 27 16  1  0
 16  5  1  0
 26 22  1  0
  1 29  1  0
  1 30  1  0
  1 31  1  0
  8 32  1  0
  9 33  1  6
 11 34  1  0
 12 35  1  0
 13 36  1  0
 15 37  1  0
 17 38  1  0
 17 39  1  0
 18 40  1  0
 18 41  1  0
 19 42  1  0
 19 43  1  0
 21 44  1  0
 21 45  1  0
 23 46  1  0
 24 47  1  0
 25 48  1  0
M  CHG  1   4  -1
M  END
>  <UniqueID>  (29) 
28

>  <SMILES>  (29) 
Cn1c([O-])c2c(c1O)[C@H](c1ccco1)N[C@@]21CCCN(Cc2cccs2)C1=O

>  <Energy>  (29) 
159.04406527002357

>  <Genealogy>  (29) 
Cn1c([O-])c2c(c1O)C(c1ccco1)NC21CCCN(Cc2cccs2)C1=O (protonated)
Cn1c([O-])c2c(c1O)[C@H](c1ccco1)N[C@@]21CCCN(Cc2cccs2)C1=O (chirality)
Cn1c([O-])c2c(c1O)[C@H](c1ccco1)N[C@@]21CCCN(Cc2cccs2)C1=O (3D coordinates assigned)
Cn1c([O-])c2c(c1O)[C@H](c1ccco1)N[C@@]21CCCN(Cc2cccs2)C1=O (nonaromatic ring conformer: 159.04406527002357 kcal/mol)

>  <smiles>  (29) 
Cn1c(O)c2c(c1O)C1(CCCN(Cc3cccs3)C1=O)NC2c1ccco1

>  <score_type>  (29) 
oracle

>  <origin>  (29) 
adg

>  <m_score__min__energy>  (29) 
-8.5299999999999994

>  <m_primary>  (29) 
energy

$$$$
29:0
     RDKit          3D

 47 50  0  0  0  0  0  0  0  0999 V2000
   57.0610   31.5700   42.5230 O   0  0  0  0  0  0  0  0  0  0  0  0
   57.1970   31.1640   43.9620 S   0  0  0  0  0  0  0  0  0  0  0  0
   55.8390   30.8080   44.5010 O   0  0  0  0  0  0  0  0  0  0  0  0
   58.2320   29.7740   44.0690 N   0  0  0  0  0  0  0  0  0  0  0  0
   58.8110   29.2920   45.2950 C   0  0  0  0  0  0  0  0  0  0  0  0
   58.4510   28.0500   45.8490 C   0  0  0  0  0  0  0  0  0  0  0  0
   59.0410   27.6100   47.0350 C   0  0  0  0  0  0  0  0  0  0  0  0
   59.9920   28.3990   47.6830 C   0  0  0  0  0  0  0  0  0  0  0  0
   60.3640   29.6470   47.1560 C   0  0  0  0  0  0  0  0  0  0  0  0
   61.3830   30.4700   47.8540 C   0  0  0  0  0  0  0  0  0  0  0  0
   62.1210   31.4600   47.1890 C   0  0  0  0  0  0  0  0  0  0  0  0
   63.0620   32.2050   47.8950 C   0  0  0  0  0  0  0  0  0  0  0  0
   63.2540   31.9570   49.2610 C   0  0  0  0  0  0  0  0  0  0  0  0
   64.2180   32.6970   50.0350 N   0  0  0  0  0  0  0  0  0  0  0  0
   65.6390   32.3930   50.0920 C   0  0  0  0  0  0  0  0  0  0  0  0
   66.2700   33.5230   50.8960 C   0  0  0  0  0  0  0  0  0  0  0  0
   65.1190   34.2160   51.6180 C   0  0  0  0  0  0  0  0  0  0  0  0
   63.8580   33.8460   50.8490 C   0  0  0  0  0  0  0  0  0  0  0  0
   62.5050   30.9920   49.8600 N   0  0  0  0  0  0  0  0  0  0  0  0
   61.6040   30.2780   49.1840 N   0  0  0  0  0  0  0  0  0  0  0  0
   59.7720   30.0790   45.9520 C   0  0  0  0  0  0  0  0  0  0  0  0
   57.8920   32.5060   44.8660 C   0  0  0  0  0  0  0  0  0  0  0  0
   57.7630   32.5650   46.2610 C   0  0  0  0  0  0  0  0  0  0  0  0
   58.3240   33.6310   46.9720 C   0  0  0  0  0  0  0  0  0  0  0  0
   59.0120   34.6410   46.2940 C   0  0  0  0  0  0  0  0  0  0  0  0
   59.1390   34.5890   44.9030 C   0  0  0  0  0  0  0  0  0  0  0  0
   58.5790   33.5250   44.1890 C   0  0  0  0  0  0  0  0  0  0  0  0
   58.4830   29.3060   43.1700 H   0  0  0  0  0  0  0  0  0  0  0  0
   57.7010   27.4226   45.3451 H   0  0  0  0  0  0  0  0  0  0  0  0
   58.7549   26.6369   47.4607 H   0  0  0  0  0  0  0  0  0  0  0  0
   60.4545   28.0407   48.6145 H   0  0  0  0  0  0  0  0  0  0  0  0
   61.9576   31.6466   46.1173 H   0  0  0  0  0  0  0  0  0  0  0  0
   63.6500   32.9820   47.3846 H   0  0  0  0  0  0  0  0  0  0  0  0
   65.8049   31.4274   50.5920 H   0  0  0  0  0  0  0  0  0  0  0  0
   66.0784   32.3154   49.0866 H   0  0  0  0  0  0  0  0  0  0  0  0
   66.9901   33.1194   51.6231 H   0  0  0  0  0  0  0  0  0  0  0  0
   66.8193   34.2218   50.2479 H   0  0  0  0  0  0  0  0  0  0  0  0
   65.0509   33.8616   52.6571 H   0  0  0  0  0  0  0  0  0  0  0  0
   65.2638   35.3058   51.6541 H   0  0  0  0  0  0  0  0  0  0  0  0
   63.0471   33.5844   51.5447 H   0  0  0  0  0  0  0  0  0  0  0  0
   63.4970   34.6831   50.2334 H   0  0  0  0  0  0  0  0  0  0  0  0
   60.0667   31.0468   45.5202 H   0  0  0  0  0  0  0  0  0  0  0  0
   57.2202   31.7723   46.7967 H   0  0  0  0  0  0  0  0  0  0  0  0
   58.2235   33.6744   48.0665 H   0  0  0  0  0  0  0  0  0  0  0  0
   59.4539   35.4774   46.8554 H   0  0  0  0  0  0  0  0  0  0  0  0
   59.6795   35.3851   44.3699 H   0  0  0  0  0  0  0  0  0  0  0  0
   58.6773   33.4868   43.0941 H   0  0  0  0  0  0  0  0  0  0  0  0
  1  2  2  0
  2  3  2  0
  2  4  1  0
  4  5  1  0
  5  6  2  0
  6  7  1  0
  7  8  2  0
  8  9  1  0
  9 10  1  0
 10 11  2  0
 11 12  1  0
 12 13  2  0
 13 14  1  0
 14 15  1  0
 15 16  1  0
 16 17  1  0
 17 18  1  0
 13 19  1  0
 19 20  2  0
  9 21  2  0
  2 22  1  0
 22 23  2  0
 23 24  1  0
 24 25  2  0
 25 26  1  0
 26 27  2  0
 21  5  1  0
 27 22  1  0
 20 10  1  0
 18 14  1  0
  4 28  1  0
  6 29  1  0
  7 30  1  0
  8 31  1  0
 11 32  1  0
 12 33  1  0
 15 34  1  0
 15 35  1  0
 16 36  1  0
 16 37  1  0
 17 38  1  0
 17 39  1  0
 18 40  1  0
 18 41  1  0
 21 42  1  0
 23 43  1  0
 24 44  1  0
 25 45  1  0
 26 46  1  0
 27 47  1  0
M  END
>  <UniqueID>  (30) 
29

>  <SMILES>  (30) 
O=S(=O)(Nc1cccc(-c2ccc(N3CCCC3)nn2)c1)c1ccccc1

>  <Energy>  (30) 
58.174653979428136

>  <Genealogy>  (30) 
O=S(=O)(Nc1cccc(-c2ccc(N3CCCC3)nn2)c1)c1ccccc1 (3D coordinates assigned)
O=S(=O)(Nc1cccc(-c2ccc(N3CCCC3)nn2)c1)c1ccccc1 (nonaromatic ring conformer: 58.174653979428136 kcal/mol)

>  <smiles>  (30) 
O=S(=O)(Nc1cccc(-c2ccc(N3CCCC3)nn2)c1)c1ccccc1

>  <score_type>  (30) 
oracle

>  <origin>  (30) 
adg

>  <m_score__min__energy>  (30) 
-9.7799999999999994

>  <m_primary>  (30) 
energy

$$$$
30:0
     RDKit          3D

 29 30  0  0  0  0  0  0  0  0999 V2000
   57.7540   33.5970   45.6970 C   0  0  0  0  0  0  0  0  0  0  0  0
   57.6520   32.3470   44.8260 C   0  0  0  0  0  0  0  0  0  0  0  0
   58.3360   31.1650   45.4830 C   0  0  0  0  0  0  0  0  0  0  0  0
   59.6290   31.3720   45.9890 C   0  0  0  0  0  0  0  0  0  0  0  0
   60.3110   30.3220   46.5980 C   0  0  0  0  0  0  0  0  0  0  0  0
   61.4670   30.5070   47.0600 O   0  0  0  0  0  0  0  0  0  0  0  0
   59.7520   29.1240   46.6940 O   0  0  0  0  0  0  0  0  0  0  0  0
   58.5390   28.8580   46.2220 C   0  0  0  0  0  0  0  0  0  0  0  0
   58.0330   27.5680   46.3600 C   0  0  0  0  0  0  0  0  0  0  0  0
   56.7630   27.2810   45.8580 C   0  0  0  0  0  0  0  0  0  0  0  0
   56.1920   25.8990   45.9760 C   0  0  0  0  0  0  0  0  0  0  0  0
   54.7780   25.9400   45.9440 O   0  0  0  0  0  0  0  0  0  0  0  0
   54.2620   24.6750   45.5890 C   0  0  0  0  0  0  0  0  0  0  0  0
   56.0580   28.2290   45.2510 O   0  0  0  0  0  0  0  0  0  0  0  0
   56.4920   29.4760   45.0930 C   0  0  0  0  0  0  0  0  0  0  0  0
   55.7400   30.2880   44.4940 O   0  0  0  0  0  0  0  0  0  0  0  0
   57.7690   29.8610   45.5840 C   0  0  0  0  0  0  0  0  0  0  0  0
   57.7304   33.3075   46.7580 H   0  0  0  0  0  0  0  0  0  0  0  0
   58.6977   34.1189   45.4802 H   0  0  0  0  0  0  0  0  0  0  0  0
   56.9074   34.2650   45.4802 H   0  0  0  0  0  0  0  0  0  0  0  0
   56.5906   32.1052   44.6680 H   0  0  0  0  0  0  0  0  0  0  0  0
   58.1503   32.5490   43.8664 H   0  0  0  0  0  0  0  0  0  0  0  0
   60.1022   32.3614   45.9045 H   0  0  0  0  0  0  0  0  0  0  0  0
   58.6259   26.7864   46.8576 H   0  0  0  0  0  0  0  0  0  0  0  0
   56.5549   25.2852   45.1384 H   0  0  0  0  0  0  0  0  0  0  0  0
   56.5126   25.4634   46.9339 H   0  0  0  0  0  0  0  0  0  0  0  0
   54.0295   24.1049   46.5005 H   0  0  0  0  0  0  0  0  0  0  0  0
   53.3456   24.8064   44.9949 H   0  0  0  0  0  0  0  0  0  0  0  0
   55.0088   24.1279   44.9949 H   0  0  0  0  0  0  0  0  0  0  0  0
  1  2  1  0
  2  3  1  0
  3  4  2  0
  4  5  1  0
  5  6  2  0
  5  7  1  0
  7  8  1  0
  8  9  1  0
  9 10  2  0
 10 11  1  0
 11 12  1  0
 12 13  1  0
 10 14  1  0
 14 15  1  0
 15 16  2  0
 15 17  1  0
 17  3  1  0
 17  8  2  0
  1 18  1  0
  1 19  1  0
  1 20  1  0
  2 21  1  0
  2 22  1  0
  4 23  1  0
  9 24  1  0
 11 25  1  0
 11 26  1  0
 13 27  1  0
 13 28  1  0
 13 29  1  0
M  END
>  <UniqueID>  (31) 
30

>  <SMILES>  (31) 
CCc1cc(=O)oc2cc(COC)oc(=O)c12

>  <Energy>  (31) 
39.09878762767635

>  <Genealogy>  (31) 
CCc1cc(=O)oc2cc(COC)oc(=O)c12 (3D coordinates assigned)
CCc1cc(=O)oc2cc(COC)oc(=O)c12 (optimized conformer: 39.09878762767635 kcal/mol)

>  <smiles>  (31) 
CCc1cc(=O)oc2cc(COC)oc(=O)c12

>  <score_type>  (31) 
oracle

>  <origin>  (31) 
adg

>  <m_score__min__energy>  (31) 
-6.1500000000000004

>  <m_primary>  (31) 
energy

$$$$
31:0
     RDKit          3D

 29 30  0  0  0  0  0  0  0  0999 V2000
   58.9700   34.2680   46.8050 C   0  0  0  0  0  0  0  0  0  0  0  0
   59.1280   34.5640   45.4510 C   0  0  0  0  0  0  0  0  0  0  0  0
   58.5130   33.7620   44.4880 C   0  0  0  0  0  0  0  0  0  0  0  0
   57.7460   32.6600   44.8960 C   0  0  0  0  0  0  0  0  0  0  0  0
   57.1110   31.7530   43.8750 C   0  0  0  0  0  0  0  0  0  0  0  0
   56.3190   30.7000   44.5300 N   0  0  0  0  0  0  0  0  0  0  0  0
   56.6650   29.3520   44.0510 C   0  0  0  0  0  0  0  0  0  0  0  0
   57.8230   28.7810   44.8270 C   0  0  0  0  0  0  0  0  0  0  0  0
   59.1400   29.1500   44.5130 C   0  0  0  0  0  0  0  0  0  0  0  0
   60.2080   28.5860   45.2130 C   0  0  0  0  0  0  0  0  0  0  0  0
   59.9500   27.6660   46.2290 C   0  0  0  0  0  0  0  0  0  0  0  0
   58.6690   27.3270   46.5320 N   0  0  0  0  0  0  0  0  0  0  0  0
   57.6100   27.8610   45.8660 C   0  0  0  0  0  0  0  0  0  0  0  0
   57.5940   32.3990   46.2280 N   0  0  0  0  0  0  0  0  0  0  0  0
   58.1880   33.1730   47.1780 C   0  0  0  0  0  0  0  0  0  0  0  0
   59.4562   34.8905   47.5706 H   0  0  0  0  0  0  0  0  0  0  0  0
   59.7358   35.4274   45.1428 H   0  0  0  0  0  0  0  0  0  0  0  0
   58.6286   33.9919   43.4185 H   0  0  0  0  0  0  0  0  0  0  0  0
   56.4523   32.3476   43.2249 H   0  0  0  0  0  0  0  0  0  0  0  0
   57.9070   31.2778   43.2830 H   0  0  0  0  0  0  0  0  0  0  0  0
   55.3160   30.8680   44.2800 H   0  0  0  0  0  0  0  0  0  0  0  0
   55.7924   28.6931   44.1711 H   0  0  0  0  0  0  0  0  0  0  0  0
   56.9545   29.4213   42.9920 H   0  0  0  0  0  0  0  0  0  0  0  0
   59.3307   29.8834   43.7156 H   0  0  0  0  0  0  0  0  0  0  0  0
   61.2430   28.8645   44.9657 H   0  0  0  0  0  0  0  0  0  0  0  0
   60.7842   27.2142   46.7858 H   0  0  0  0  0  0  0  0  0  0  0  0
   56.5852   27.5716   46.1418 H   0  0  0  0  0  0  0  0  0  0  0  0
   57.0200   31.5820   46.5360 H   0  0  0  0  0  0  0  0  0  0  0  0
   58.0513   32.9347   48.2431 H   0  0  0  0  0  0  0  0  0  0  0  0
  1  2  2  0
  2  3  1  0
  3  4  2  0
  4  5  1  0
  5  6  1  0
  6  7  1  0
  7  8  1  0
  8  9  2  0
  9 10  1  0
 10 11  2  0
 11 12  1  0
 12 13  2  0
  4 14  1  0
 14 15  2  0
 15  1  1  0
 13  8  1  0
  1 16  1  0
  2 17  1  0
  3 18  1  0
  5 19  1  0
  5 20  1  0
  6 21  1  0
  7 22  1  0
  7 23  1  0
  9 24  1  0
 10 25  1  0
 11 26  1  0
 13 27  1  0
 14 28  1  0
 15 29  1  0
M  CHG  1  14   1
M  END
>  <UniqueID>  (32) 
31

>  <SMILES>  (32) 
c1ccc(CNCc2cccnc2)[nH+]c1

>  <Energy>  (32) 
27.578068825270318

>  <Genealogy>  (32) 
c1ccc(CNCc2cccnc2)[nH+]c1 (protonated)
c1ccc(CNCc2cccnc2)[nH+]c1 (3D coordinates assigned)
c1ccc(CNCc2cccnc2)[nH+]c1 (optimized conformer: 27.578068825270318 kcal/mol)

>  <smiles>  (32) 
c1ccc(CNCc2cccnc2)nc1

>  <score_type>  (32) 
oracle

>  <origin>  (32) 
adg

>  <m_score__min__energy>  (32) 
-4.2599999999999998

>  <m_primary>  (32) 
energy

$$$$
32:0
     RDKit          3D

 66 70  0  0  0  0  0  0  0  0999 V2000
   58.0200   24.7370   46.2990 C   0  0  0  0  0  0  0  0  0  0  0  0
   57.4840   25.0680   45.0570 C   0  0  0  0  0  0  0  0  0  0  0  0
   57.4140   26.4030   44.6590 C   0  0  0  0  0  0  0  0  0  0  0  0
   57.8760   27.4330   45.5000 C   0  0  0  0  0  0  0  0  0  0  0  0
   57.6980   28.8340   45.0490 C   0  0  0  0  0  0  0  0  0  0  0  0
   56.5910   29.5760   45.2570 N   0  0  0  0  0  0  0  0  0  0  0  0
   56.8450   30.7410   44.6840 N   0  0  0  0  0  0  0  0  0  0  0  0
   58.0520   30.7040   44.1490 N   0  0  0  0  0  0  0  0  0  0  0  0
   58.6180   29.5270   44.3510 N   0  0  0  0  0  0  0  0  0  0  0  0
   58.4550   27.0920   46.7550 C   0  0  0  0  0  0  0  0  0  0  0  0
   59.0770   28.0990   47.6530 C   0  0  0  0  0  0  0  0  0  0  0  0
   60.2150   27.7740   48.4140 C   0  0  0  0  0  0  0  0  0  0  0  0
   60.8030   28.7260   49.2500 C   0  0  0  0  0  0  0  0  0  0  0  0
   60.2370   30.0020   49.3770 C   0  0  0  0  0  0  0  0  0  0  0  0
   60.9000   31.0370   50.2410 C   0  0  0  0  0  0  0  0  0  0  0  0
   61.7020   31.9460   49.3860 N   0  0  0  0  0  0  0  0  0  0  0  0
   61.7060   33.3250   49.9210 C   0  0  0  0  0  0  0  0  0  0  0  0
   62.7530   34.2490   49.2520 C   0  0  0  0  0  0  0  0  0  0  0  0
   63.4220   33.6940   47.9690 C   0  0  0  0  0  0  0  0  0  0  0  0
   62.7400   34.1580   46.6570 C   0  0  0  0  0  0  0  0  0  0  0  0
   61.3410   33.5690   46.3700 C   0  0  0  0  0  0  0  0  0  0  0  0
   60.2440   34.3620   46.9830 N   0  0  0  0  0  0  0  0  0  0  0  0
   59.1900   33.5080   47.6010 C   0  0  0  0  0  0  0  0  0  0  0  0
   57.8780   33.4180   46.7920 C   0  0  0  0  0  0  0  0  0  0  0  0
   58.1550   33.4680   45.2920 C   0  0  0  0  0  0  0  0  0  0  0  0
   58.8720   34.7710   44.9060 C   0  0  0  0  0  0  0  0  0  0  0  0
   59.6680   35.3840   46.0770 C   0  0  0  0  0  0  0  0  0  0  0  0
   63.7080   32.1690   48.0030 C   0  0  0  0  0  0  0  0  0  0  0  0
   63.0770   31.4580   49.2000 C   0  0  0  0  0  0  0  0  0  0  0  0
   59.0800   30.3190   48.6480 C   0  0  0  0  0  0  0  0  0  0  0  0
   58.5060   29.3750   47.7910 C   0  0  0  0  0  0  0  0  0  0  0  0
   58.5060   25.7390   47.1400 C   0  0  0  0  0  0  0  0  0  0  0  0
   58.0603   23.6849   46.6174 H   0  0  0  0  0  0  0  0  0  0  0  0
   57.1154   24.2756   44.3890 H   0  0  0  0  0  0  0  0  0  0  0  0
   56.9921   26.6543   43.6747 H   0  0  0  0  0  0  0  0  0  0  0  0
   58.4980   31.4980   43.6430 H   0  0  0  0  0  0  0  0  0  0  0  0
   60.6445   26.7633   48.3501 H   0  0  0  0  0  0  0  0  0  0  0  0
   61.7146   28.4732   49.8114 H   0  0  0  0  0  0  0  0  0  0  0  0
   60.1327   31.6164   50.7753 H   0  0  0  0  0  0  0  0  0  0  0  0
   61.5567   30.5423   50.9718 H   0  0  0  0  0  0  0  0  0  0  0  0
   60.7081   33.7609   49.7652 H   0  0  0  0  0  0  0  0  0  0  0  0
   61.9721   33.2559   50.9861 H   0  0  0  0  0  0  0  0  0  0  0  0
   62.2518   35.1924   48.9899 H   0  0  0  0  0  0  0  0  0  0  0  0
   63.5641   34.3616   49.9865 H   0  0  0  0  0  0  0  0  0  0  0  0
   64.4164   34.1642   47.9644 H   0  0  0  0  0  0  0  0  0  0  0  0
   62.6410   35.2527   46.6993 H   0  0  0  0  0  0  0  0  0  0  0  0
   63.3854   33.7926   45.8447 H   0  0  0  0  0  0  0  0  0  0  0  0
   61.1882   33.5414   45.2810 H   0  0  0  0  0  0  0  0  0  0  0  0
   61.3088   32.5626   46.8130 H   0  0  0  0  0  0  0  0  0  0  0  0
   59.5944   32.4912   47.7127 H   0  0  0  0  0  0  0  0  0  0  0  0
   58.9319   33.9782   48.5614 H   0  0  0  0  0  0  0  0  0  0  0  0
   57.3713   32.4718   47.0327 H   0  0  0  0  0  0  0  0  0  0  0  0
   57.2423   34.2749   47.0594 H   0  0  0  0  0  0  0  0  0  0  0  0
   58.7893   32.6131   45.0149 H   0  0  0  0  0  0  0  0  0  0  0  0
   57.1946   33.4256   44.7573 H   0  0  0  0  0  0  0  0  0  0  0  0
   59.5679   34.5583   44.0810 H   0  0  0  0  0  0  0  0  0  0  0  0
   58.1014   35.4989   44.6119 H   0  0  0  0  0  0  0  0  0  0  0  0
   60.4886   35.9892   45.6643 H   0  0  0  0  0  0  0  0  0  0  0  0
   58.9676   35.9915   46.6689 H   0  0  0  0  0  0  0  0  0  0  0  0
   63.3102   31.7193   47.0813 H   0  0  0  0  0  0  0  0  0  0  0  0
   64.7976   32.0455   48.0902 H   0  0  0  0  0  0  0  0  0  0  0  0
   63.0603   30.3736   49.0163 H   0  0  0  0  0  0  0  0  0  0  0  0
   63.6671   31.6655   50.1048 H   0  0  0  0  0  0  0  0  0  0  0  0
   58.6230   31.3142   48.7514 H   0  0  0  0  0  0  0  0  0  0  0  0
   57.6013   29.6333   47.2211 H   0  0  0  0  0  0  0  0  0  0  0  0
   58.9344   25.4680   48.1162 H   0  0  0  0  0  0  0  0  0  0  0  0
  1  2  2  0
  2  3  1  0
  3  4  2  0
  4  5  1  0
  5  6  2  0
  6  7  1  0
  7  8  1  0
  8  9  2  0
  4 10  1  0
 10 11  1  0
 11 12  2  0
 12 13  1  0
 13 14  2  0
 14 15  1  0
 15 16  1  0
 16 17  1  0
 17 18  1  0
 18 19  1  0
 19 20  1  0
 20 21  1  0
 21 22  1  0
 22 23  1  0
 23 24  1  0
 24 25  1  0
 25 26  1  0
 26 27  1  0
 19 28  1  0
 28 29  1  0
 14 30  1  0
 30 31  2  0
 10 32  2  0
 32  1  1  0
  9  5  1  0
 31 11  1  0
 29 16  1  0
 27 22  1  0
  1 33  1  0
  2 34  1  0
  3 35  1  0
  8 36  1  0
 12 37  1  0
 13 38  1  0
 15 39  1  0
 15 40  1  0
 17 41  1  0
 17 42  1  0
 18 43  1  0
 18 44  1  0
 19 45  1  0
 20 46  1  0
 20 47  1  0
 21 48  1  0
 21 49  1  0
 23 50  1  0
 23 51  1  0
 24 52  1  0
 24 53  1  0
 25 54  1  0
 25 55  1  0
 26 56  1  0
 26 57  1  0
 27 58  1  0
 27 59  1  0
 28 60  1  0
 28 61  1  0
 29 62  1  0
 29 63  1  0
 30 64  1  0
 31 65  1  0
 32 66  1  0
M  CHG  2   7  -1   8   1
M  END
>  <UniqueID>  (33) 
32

>  <SMILES>  (33) 
c1ccc(-c2n[n-][nH+]n2)c(-c2ccc(CN3CCC(CCN4CCCCC4)CC3)cc2)c1

>  <Energy>  (33) 
135.05264298095216

>  <Genealogy>  (33) 
c1ccc(-c2n[n-][nH+]n2)c(-c2ccc(CN3CCC(CCN4CCCCC4)CC3)cc2)c1 (protonated)
c1ccc(-c2n[n-][nH+]n2)c(-c2ccc(CN3CCC(CCN4CCCCC4)CC3)cc2)c1 (3D coordinates assigned)
c1ccc(-c2n[n-][nH+]n2)c(-c2ccc(CN3CCC(CCN4CCCCC4)CC3)cc2)c1 (nonaromatic ring conformer: 135.05264298095216 kcal/mol)

>  <smiles>  (33) 
c1ccc(-c2nn[nH]n2)c(-c2ccc(CN3CCC(CCN4CCCCC4)CC3)cc2)c1

>  <score_type>  (33) 
oracle

>  <origin>  (33) 
adg

>  <m_score__min__energy>  (33) 
-9.9600000000000009

>  <m_primary>  (33) 
energy

$$$$
33:0
     RDKit          3D

 26 27  0  0  0  0  0  0  0  0999 V2000
   54.1960   25.9410   45.6530 O   0  0  0  0  0  0  0  0  0  0  0  0
   55.3750   26.2200   45.9960 C   0  0  0  0  0  0  0  0  0  0  0  0
   56.1350   25.2940   46.7810 N   0  0  0  0  0  0  0  0  0  0  0  0
   57.2640   24.5320   46.2630 C   0  0  0  0  0  0  0  0  0  0  0  0
   56.8590   23.7710   45.0400 C   0  0  0  0  0  0  0  0  0  0  0  0
   56.2890   22.5040   45.0190 C   0  0  0  0  0  0  0  0  0  0  0  0
   55.9830   22.0410   43.7780 N   0  0  0  0  0  0  0  0  0  0  0  0
   56.3000   22.9270   42.8080 C   0  0  0  0  0  0  0  0  0  0  0  0
   56.9720   24.3250   43.4580 S   0  0  0  0  0  0  0  0  0  0  0  0
   55.9190   27.4960   45.6400 N   0  0  0  0  0  0  0  0  0  0  0  0
   57.3090   27.8050   45.4610 C   0  0  0  0  0  0  0  0  0  0  0  0
   58.1400   28.1520   46.5410 C   0  0  0  0  0  0  0  0  0  0  0  0
   59.4950   28.4230   46.3280 C   0  0  0  0  0  0  0  0  0  0  0  0
   60.0380   28.3340   45.0380 C   0  0  0  0  0  0  0  0  0  0  0  0
   61.3850   28.6030   44.8140 O   0  0  0  0  0  0  0  0  0  0  0  0
   59.2180   27.9660   43.9670 C   0  0  0  0  0  0  0  0  0  0  0  0
   57.8630   27.6930   44.1780 C   0  0  0  0  0  0  0  0  0  0  0  0
   58.0810   25.2225   46.0068 H   0  0  0  0  0  0  0  0  0  0  0  0
   57.5992   23.8209   47.0324 H   0  0  0  0  0  0  0  0  0  0  0  0
   56.1005   21.9222   45.9333 H   0  0  0  0  0  0  0  0  0  0  0  0
   56.1394   22.7561   41.7333 H   0  0  0  0  0  0  0  0  0  0  0  0
   57.7225   28.2104   47.5570 H   0  0  0  0  0  0  0  0  0  0  0  0
   60.1371   28.7069   47.1748 H   0  0  0  0  0  0  0  0  0  0  0  0
   61.8790   28.2120   44.0190 H   0  0  0  0  0  0  0  0  0  0  0  0
   59.6406   27.8909   42.9542 H   0  0  0  0  0  0  0  0  0  0  0  0
   57.2282   27.3887   43.3327 H   0  0  0  0  0  0  0  0  0  0  0  0
  1  2  2  0
  2  3  1  0
  3  4  1  0
  4  5  1  0
  5  6  2  0
  6  7  1  0
  7  8  2  0
  8  9  1  0
  2 10  1  0
 10 11  1  0
 11 12  2  0
 12 13  1  0
 13 14  2  0
 14 15  1  0
 14 16  1  0
 16 17  2  0
  9  5  1  0
 17 11  1  0
  4 18  1  0
  4 19  1  0
  6 20  1  0
  8 21  1  0
 12 22  1  0
 13 23  1  0
 15 24  1  0
 16 25  1  0
 17 26  1  0
M  CHG  2   3  -1  10  -1
M  END
>  <UniqueID>  (34) 
33

>  <SMILES>  (34) 
O=C([N-]Cc1cncs1)[N-]c1ccc(O)cc1

>  <Energy>  (34) 
56.27634070408923

>  <Genealogy>  (34) 
O=C([N-]Cc1cncs1)[N-]c1ccc(O)cc1 (protonated)
O=C([N-]Cc1cncs1)[N-]c1ccc(O)cc1 (3D coordinates assigned)
O=C([N-]Cc1cncs1)[N-]c1ccc(O)cc1 (optimized conformer: 56.27634070408923 kcal/mol)

>  <smiles>  (34) 
O=C(NCc1cncs1)Nc1ccc(O)cc1

>  <score_type>  (34) 
oracle

>  <origin>  (34) 
adg

>  <m_score__min__energy>  (34) 
-9.7799999999999994

>  <m_primary>  (34) 
energy

$$$$
34:0
     RDKit          3D

 48 51  0  0  0  0  0  0  0  0999 V2000
   61.1380   30.7300   47.1490 C   0  0  0  0  0  0  0  0  0  0  0  0
   59.8510   30.7450   46.4310 N   0  0  0  0  0  0  0  0  0  0  0  0
   59.2520   29.5350   46.2000 C   0  0  0  0  0  0  0  0  0  0  0  0
   58.0330   29.4380   45.5290 C   0  0  0  0  0  0  0  0  0  0  0  0
   57.4300   28.1100   45.2850 C   0  0  0  0  0  0  0  0  0  0  0  0
   57.4580   27.6290   44.1220 O   0  0  0  0  0  0  0  0  0  0  0  0
   56.8380   27.3410   46.3390 N   0  0  0  0  0  0  0  0  0  0  0  0
   57.2160   25.9760   46.7150 C   0  0  1  0  0  0  0  0  0  0  0  0
   55.9260   25.0310   46.6080 C   0  0  0  0  0  0  0  0  0  0  0  0
   55.8370   24.0810   45.3360 C   0  0  2  0  0  0  0  0  0  0  0  0
   56.1480   22.5530   45.6720 C   0  0  0  0  0  0  0  0  0  0  0  0
   57.2690   21.9750   44.9620 O   0  0  0  0  0  0  0  0  0  0  0  0
   58.4590   22.7900   44.8750 C   0  0  0  0  0  0  0  0  0  0  0  0
   58.1250   24.2930   45.0100 C   0  0  2  0  0  0  0  0  0  0  0  0
   58.4980   25.5120   45.8760 C   0  0  0  0  0  0  0  0  0  0  0  0
   56.8170   24.5710   44.3690 N   0  0  1  0  0  0  0  0  0  0  0  0
   56.6430   24.0360   42.9980 C   0  0  0  0  0  0  0  0  0  0  0  0
   57.3870   30.6070   45.1180 C   0  0  0  0  0  0  0  0  0  0  0  0
   56.2710   30.5310   44.5300 O   0  0  0  0  0  0  0  0  0  0  0  0
   57.9900   31.8560   45.3440 C   0  0  0  0  0  0  0  0  0  0  0  0
   57.3560   33.0390   44.9190 C   0  0  0  0  0  0  0  0  0  0  0  0
   57.9550   34.2770   45.1260 C   0  0  0  0  0  0  0  0  0  0  0  0
   59.1930   34.3550   45.7520 C   0  0  0  0  0  0  0  0  0  0  0  0
   59.8460   33.2000   46.1880 C   0  0  0  0  0  0  0  0  0  0  0  0
   61.0540   33.3710   46.7770 F   0  0  0  0  0  0  0  0  0  0  0  0
   59.2530   31.9170   46.0010 C   0  0  0  0  0  0  0  0  0  0  0  0
   60.9530   30.7322   48.2333 H   0  0  0  0  0  0  0  0  0  0  0  0
   61.7003   29.8252   46.8748 H   0  0  0  0  0  0  0  0  0  0  0  0
   61.7213   31.6214   46.8748 H   0  0  0  0  0  0  0  0  0  0  0  0
   59.7446   28.6168   46.5525 H   0  0  0  0  0  0  0  0  0  0  0  0
   57.5404   25.9116   47.7641 H   0  0  0  0  0  0  0  0  0  0  0  0
   55.0377   25.6798   46.6016 H   0  0  0  0  0  0  0  0  0  0  0  0
   55.9944   24.3517   47.4705 H   0  0  0  0  0  0  0  0  0  0  0  0
   54.8086   24.1091   44.9467 H   0  0  0  0  0  0  0  0  0  0  0  0
   55.2520   21.9632   45.4285 H   0  0  0  0  0  0  0  0  0  0  0  0
   56.4194   22.5271   46.7377 H   0  0  0  0  0  0  0  0  0  0  0  0
   58.9410   22.6166   43.9015 H   0  0  0  0  0  0  0  0  0  0  0  0
   59.1313   22.5096   45.6993 H   0  0  0  0  0  0  0  0  0  0  0  0
   59.2194   24.2775   44.9007 H   0  0  0  0  0  0  0  0  0  0  0  0
   58.8307   26.3358   45.2273 H   0  0  0  0  0  0  0  0  0  0  0  0
   59.3111   25.2400   46.5651 H   0  0  0  0  0  0  0  0  0  0  0  0
   56.6800   25.6030   44.2380 H   0  0  0  0  0  0  0  0  0  0  0  0
   56.3032   22.9912   43.0525 H   0  0  0  0  0  0  0  0  0  0  0  0
   55.8942   24.6376   42.4619 H   0  0  0  0  0  0  0  0  0  0  0  0
   57.6024   24.0820   42.4619 H   0  0  0  0  0  0  0  0  0  0  0  0
   56.3779   32.9837   44.4186 H   0  0  0  0  0  0  0  0  0  0  0  0
   57.4483   35.1951   44.7939 H   0  0  0  0  0  0  0  0  0  0  0  0
   59.6639   35.3371   45.9059 H   0  0  0  0  0  0  0  0  0  0  0  0
  1  2  1  0
  2  3  1  0
  3  4  2  0
  4  5  1  0
  5  6  2  0
  5  7  1  0
  7  8  1  0
  8  9  1  0
  9 10  1  0
 10 11  1  0
 11 12  1  0
 12 13  1  0
 13 14  1  0
 14 15  1  0
 14 16  1  0
 16 17  1  0
  4 18  1  0
 18 19  2  0
 18 20  1  0
 20 21  2  0
 21 22  1  0
 22 23  2  0
 23 24  1  0
 24 25  1  0
 24 26  2  0
 26  2  1  0
 15  8  1  0
 26 20  1  0
 16 10  1  0
  1 27  1  0
  1 28  1  0
  1 29  1  0
  3 30  1  0
  8 31  1  1
  9 32  1  0
  9 33  1  0
 10 34  1  6
 11 35  1  0
 11 36  1  0
 13 37  1  0
 13 38  1  0
 14 39  1  6
 15 40  1  0
 15 41  1  0
 16 42  1  6
 17 43  1  0
 17 44  1  0
 17 45  1  0
 21 46  1  0
 22 47  1  0
 23 48  1  0
M  CHG  2   7  -1  16   1
M  END
>  <UniqueID>  (35) 
34

>  <SMILES>  (35) 
Cn1cc(C(=O)[N-]C2C[C@@H]3COC[C@@H](C2)[NH+]3C)c(=O)c2cccc(F)c21

>  <Energy>  (35) 
198.78591736358115

>  <Genealogy>  (35) 
Cn1cc(C(=O)[N-]C2CC3COCC(C2)[NH+]3C)c(=O)c2cccc(F)c21 (protonated)
Cn1cc(C(=O)[N-]C2C[C@@H]3COC[C@@H](C2)[NH+]3C)c(=O)c2cccc(F)c21 (chirality)
Cn1cc(C(=O)[N-]C2C[C@@H]3COC[C@@H](C2)[NH+]3C)c(=O)c2cccc(F)c21 (3D coordinates assigned)
Cn1cc(C(=O)[N-]C2C[C@@H]3COC[C@@H](C2)[NH+]3C)c(=O)c2cccc(F)c21 (nonaromatic ring conformer: 198.78591736358115 kcal/mol)

>  <smiles>  (35) 
CN1C2COCC1CC(NC(=O)c1cn(C)c3c(F)cccc3c1=O)C2

>  <score_type>  (35) 
oracle

>  <origin>  (35) 
adg

>  <m_score__min__energy>  (35) 
-7.7300000000000004

>  <m_primary>  (35) 
energy

$$$$
35:0
     RDKit          3D

 38 40  0  0  0  0  0  0  0  0999 V2000
   63.0450   33.4410   48.5800 H   0  0  0  0  0  0  0  0  0  0  0  0
   62.2830   33.8450   47.9920 N   0  0  0  0  0  0  0  0  0  0  0  0
   61.4370   33.0920   47.3710 C   0  0  0  0  0  0  0  0  0  0  0  0
   60.4080   33.6540   46.6860 N   0  0  0  0  0  0  0  0  0  0  0  0
   59.5220   32.8700   46.0220 C   0  0  0  0  0  0  0  0  0  0  0  0
   58.3580   33.4870   45.3040 C   0  0  0  0  0  0  0  0  0  0  0  0
   57.6016   33.7929   46.0417 H   0  0  0  0  0  0  0  0  0  0  0  0
   58.7180   34.3581   44.7370 H   0  0  0  0  0  0  0  0  0  0  0  0
   57.7380   32.5090   44.3390 C   0  0  0  0  0  0  0  0  0  0  0  0
   57.0130   31.4050   44.8190 C   0  0  0  0  0  0  0  0  0  0  0  0
   56.8509   31.2839   45.9002 H   0  0  0  0  0  0  0  0  0  0  0  0
   56.4970   30.4600   43.9270 C   0  0  0  0  0  0  0  0  0  0  0  0
   55.9297   29.5979   44.3078 H   0  0  0  0  0  0  0  0  0  0  0  0
   56.7010   30.6090   42.5510 C   0  0  0  0  0  0  0  0  0  0  0  0
   56.2895   29.8675   41.8504 H   0  0  0  0  0  0  0  0  0  0  0  0
   57.4290   31.7020   42.0660 C   0  0  0  0  0  0  0  0  0  0  0  0
   57.5898   31.8183   40.9841 H   0  0  0  0  0  0  0  0  0  0  0  0
   57.9520   32.6460   42.9550 C   0  0  0  0  0  0  0  0  0  0  0  0
   58.5323   33.4981   42.5714 H   0  0  0  0  0  0  0  0  0  0  0  0
   59.6580   31.5210   46.0670 N   0  0  0  0  0  0  0  0  0  0  0  0
   60.6800   30.9480   46.7540 C   0  0  0  0  0  0  0  0  0  0  0  0
   60.8420   29.6570   46.7650 N   0  0  0  0  0  0  0  0  0  0  0  0
   59.8020   28.6670   46.6630 C   0  0  0  0  0  0  0  0  0  0  0  0
   59.2010   28.4480   45.4180 C   0  0  0  0  0  0  0  0  0  0  0  0
   59.5328   29.0250   44.5422 H   0  0  0  0  0  0  0  0  0  0  0  0
   58.1820   27.5010   45.2800 C   0  0  0  0  0  0  0  0  0  0  0  0
   57.7081   27.3448   44.2997 H   0  0  0  0  0  0  0  0  0  0  0  0
   57.7620   26.7500   46.3860 C   0  0  0  0  0  0  0  0  0  0  0  0
   56.4800   25.5580   46.2100 S   0  0  0  0  0  0  0  0  0  0  0  0
   56.7550   24.6800   45.0210 O   0  0  0  0  0  0  0  0  0  0  0  0
   56.4160   24.6990   47.4420 O   0  0  0  0  0  0  0  0  0  0  0  0
   54.9670   26.3650   45.9960 N   0  0  0  0  0  0  0  0  0  0  0  0
   55.1510   27.3920   46.0570 H   0  0  0  0  0  0  0  0  0  0  0  0
   58.3920   26.9340   47.6250 C   0  0  0  0  0  0  0  0  0  0  0  0
   58.0817   26.3326   48.4922 H   0  0  0  0  0  0  0  0  0  0  0  0
   59.4120   27.8780   47.7620 C   0  0  0  0  0  0  0  0  0  0  0  0
   59.9130   28.0057   48.7329 H   0  0  0  0  0  0  0  0  0  0  0  0
   61.5730   31.7400   47.3990 N   0  0  0  0  0  0  0  0  0  0  0  0
  1  2  1  0
  2  3  2  3
  3  4  1  0
  4  5  2  0
  5  6  1  0
  6  7  1  0
  6  8  1  0
  6  9  1  0
  9 10  2  0
 10 11  1  0
 10 12  1  0
 12 13  1  0
 12 14  2  0
 14 15  1  0
 14 16  1  0
 16 17  1  0
 16 18  2  0
 18 19  1  0
  5 20  1  0
 20 21  1  0
 21 22  2  0
 22 23  1  0
 23 24  2  0
 24 25  1  0
 24 26  1  0
 26 27  1  0
 26 28  2  0
 28 29  1  0
 29 30  2  0
 29 31  2  0
 29 32  1  0
 32 33  1  0
 28 34  1  0
 34 35  1  0
 34 36  2  0
 36 37  1  0
 21 38  1  0
 38  3  1  0
 18  9  1  0
 36 23  1  0
M  CHG  3  20  -1  32  -1  38  -1
M  END
>  <UniqueID>  (36) 
35

>  <SMILES>  (36) 
N=c1nc(Cc2ccccc2)[n-]/c(=N\c2ccc(S([NH-])(=O)=O)cc2)[n-]1

>  <Energy>  (36) 
44.45802215680449

>  <Genealogy>  (36) 
N=c1nc(Cc2ccccc2)[n-]c(=Nc2ccc(S([NH-])(=O)=O)cc2)[n-]1 (protonated)
N=c1nc(Cc2ccccc2)[n-]/c(=N\c2ccc(S([NH-])(=O)=O)cc2)[n-]1 (cis-trans isomerization)
N=c1nc(Cc2ccccc2)[n-]/c(=N\c2ccc(S([NH-])(=O)=O)cc2)[n-]1 (3D coordinates assigned)
N=c1nc(Cc2ccccc2)[n-]/c(=N\c2ccc(S([NH-])(=O)=O)cc2)[n-]1 (optimized conformer: 44.45802215680449 kcal/mol)

>  <smiles>  (36) 
N=c1nc(Cc2ccccc2)[nH]c(=Nc2ccc(S(N)(=O)=O)cc2)[nH]1

>  <score_type>  (36) 
oracle

>  <origin>  (36) 
adg

>  <m_score__min__energy>  (36) 
-12.25

>  <m_primary>  (36) 
energy

$$$$
36:0
     RDKit          3D

 39 41  0  0  0  0  0  0  0  0999 V2000
   55.9880   29.3500   44.6560 C   0  0  0  0  0  0  0  0  0  0  0  0
   56.3110   30.6550   44.5260 N   0  0  0  0  0  0  0  0  0  0  0  0
   57.6580   30.8550   44.5420 C   0  0  0  0  0  0  0  0  0  0  0  0
   58.2540   32.2310   44.4310 C   0  0  0  0  0  0  0  0  0  0  0  0
   57.2250   33.2850   44.4460 N   0  0  0  0  0  0  0  0  0  0  0  0
   57.0880   33.9300   45.7610 C   0  0  0  0  0  0  0  0  0  0  0  0
   58.4000   33.9260   46.4990 C   0  0  0  0  0  0  0  0  0  0  0  0
   59.5100   34.5970   45.9660 C   0  0  0  0  0  0  0  0  0  0  0  0
   60.7350   34.5820   46.6380 C   0  0  0  0  0  0  0  0  0  0  0  0
   60.8720   33.8860   47.8510 C   0  0  0  0  0  0  0  0  0  0  0  0
   62.1310   33.8730   48.5520 N   0  0  0  0  0  0  0  0  0  0  0  0
   63.3860   33.6740   47.8160 C   0  0  0  0  0  0  0  0  0  0  0  0
   64.4100   32.8710   48.6540 C   0  0  0  0  0  0  0  0  0  0  0  0
   64.0010   32.6460   49.9930 O   0  0  0  0  0  0  0  0  0  0  0  0
   63.5420   33.8500   50.5680 C   0  0  0  0  0  0  0  0  0  0  0  0
   62.1740   34.2030   49.9820 C   0  0  0  0  0  0  0  0  0  0  0  0
   59.7580   33.2180   48.3850 C   0  0  0  0  0  0  0  0  0  0  0  0
   58.5320   33.2360   47.7140 C   0  0  0  0  0  0  0  0  0  0  0  0
   58.4250   29.7020   44.6880 C   0  0  0  0  0  0  0  0  0  0  0  0
   57.3680   28.4020   44.7980 S   0  0  0  0  0  0  0  0  0  0  0  0
   54.9595   28.9601   44.6674 H   0  0  0  0  0  0  0  0  0  0  0  0
   58.9373   32.3907   45.2781 H   0  0  0  0  0  0  0  0  0  0  0  0
   58.7867   32.2922   43.4706 H   0  0  0  0  0  0  0  0  0  0  0  0
   56.3030   32.8640   44.1830 H   0  0  0  0  0  0  0  0  0  0  0  0
   56.7571   34.9695   45.6198 H   0  0  0  0  0  0  0  0  0  0  0  0
   56.3494   33.3694   46.3529 H   0  0  0  0  0  0  0  0  0  0  0  0
   59.4158   35.1384   45.0131 H   0  0  0  0  0  0  0  0  0  0  0  0
   61.5973   35.1182   46.2149 H   0  0  0  0  0  0  0  0  0  0  0  0
   63.1732   33.1238   46.8876 H   0  0  0  0  0  0  0  0  0  0  0  0
   63.8178   34.6611   47.5941 H   0  0  0  0  0  0  0  0  0  0  0  0
   64.5656   31.8955   48.1701 H   0  0  0  0  0  0  0  0  0  0  0  0
   65.3310   33.4709   48.6962 H   0  0  0  0  0  0  0  0  0  0  0  0
   63.4538   33.7263   51.6575 H   0  0  0  0  0  0  0  0  0  0  0  0
   64.2556   34.6578   50.3484 H   0  0  0  0  0  0  0  0  0  0  0  0
   61.3953   33.6326   50.5095 H   0  0  0  0  0  0  0  0  0  0  0  0
   61.9999   35.2821   50.1053 H   0  0  0  0  0  0  0  0  0  0  0  0
   59.8510   32.6768   49.3381 H   0  0  0  0  0  0  0  0  0  0  0  0
   57.6668   32.7070   48.1401 H   0  0  0  0  0  0  0  0  0  0  0  0
   59.5233   29.6520   44.7246 H   0  0  0  0  0  0  0  0  0  0  0  0
  1  2  2  0
  2  3  1  0
  3  4  1  0
  4  5  1  0
  5  6  1  0
  6  7  1  0
  7  8  2  0
  8  9  1  0
  9 10  2  0
 10 11  1  0
 11 12  1  0
 12 13  1  0
 13 14  1  0
 14 15  1  0
 15 16  1  0
 10 17  1  0
 17 18  2  0
  3 19  2  0
 19 20  1  0
 20  1  1  0
 18  7  1  0
 16 11  1  0
  1 21  1  0
  4 22  1  0
  4 23  1  0
  5 24  1  0
  6 25  1  0
  6 26  1  0
  8 27  1  0
  9 28  1  0
 12 29  1  0
 12 30  1  0
 13 31  1  0
 13 32  1  0
 15 33  1  0
 15 34  1  0
 16 35  1  0
 16 36  1  0
 17 37  1  0
 18 38  1  0
 19 39  1  0
M  END
>  <UniqueID>  (37) 
36

>  <SMILES>  (37) 
c1nc(CNCc2ccc(N3CCOCC3)cc2)cs1

>  <Energy>  (37) 
79.10321021162723

>  <Genealogy>  (37) 
c1nc(CNCc2ccc(N3CCOCC3)cc2)cs1 (3D coordinates assigned)
c1nc(CNCc2ccc(N3CCOCC3)cc2)cs1 (nonaromatic ring conformer: 79.10321021162723 kcal/mol)

>  <smiles>  (37) 
c1nc(CNCc2ccc(N3CCOCC3)cc2)cs1

>  <score_type>  (37) 
oracle

>  <origin>  (37) 
adg

>  <m_score__min__energy>  (37) 
-6.6299999999999999

>  <m_primary>  (37) 
energy

$$$$
37:0
     RDKit          3D

 43 46  0  0  0  0  0  0  0  0999 V2000
   65.4750   32.5810   49.4130 F   0  0  0  0  0  0  0  0  0  0  0  0
   64.2170   32.6980   48.9220 C   0  0  0  0  0  0  0  0  0  0  0  0
   63.2130   31.8280   49.3560 C   0  0  0  0  0  0  0  0  0  0  0  0
   61.9150   31.9480   48.8520 C   0  0  0  0  0  0  0  0  0  0  0  0
   61.6120   32.9360   47.8970 C   0  0  0  0  0  0  0  0  0  0  0  0
   60.2390   33.0730   47.3620 C   0  0  0  0  0  0  0  0  0  0  0  0
   59.9880   33.2200   45.9870 C   0  0  0  0  0  0  0  0  0  0  0  0
   58.6490   33.4200   45.6920 C   0  0  0  0  0  0  0  0  0  0  0  0
   58.1240   33.6150   44.3730 N   0  0  0  0  0  0  0  0  0  0  0  0
   58.0120   32.5350   43.3960 C   0  0  0  0  0  0  0  0  0  0  0  0
   57.6670   31.2400   44.0800 C   0  0  0  0  0  0  0  0  0  0  0  0
   58.6800   30.4100   44.5790 C   0  0  0  0  0  0  0  0  0  0  0  0
   58.3520   29.2130   45.2180 C   0  0  0  0  0  0  0  0  0  0  0  0
   57.0090   28.8560   45.3530 C   0  0  0  0  0  0  0  0  0  0  0  0
   56.0360   29.6690   44.8610 N   0  0  0  0  0  0  0  0  0  0  0  0
   56.3310   30.8390   44.2340 C   0  0  0  0  0  0  0  0  0  0  0  0
   57.7600   33.4140   47.1200 S   0  0  0  0  0  0  0  0  0  0  0  0
   59.0720   33.1470   48.1430 C   0  0  0  0  0  0  0  0  0  0  0  0
   58.9460   32.9460   49.6040 C   0  0  0  0  0  0  0  0  0  0  0  0
   58.1530   31.9080   50.1230 C   0  0  0  0  0  0  0  0  0  0  0  0
   58.0340   31.7340   51.5060 C   0  0  0  0  0  0  0  0  0  0  0  0
   58.6940   32.6020   52.3800 C   0  0  0  0  0  0  0  0  0  0  0  0
   58.5760   32.4330   53.7200 F   0  0  0  0  0  0  0  0  0  0  0  0
   59.4690   33.6480   51.8730 C   0  0  0  0  0  0  0  0  0  0  0  0
   59.5910   33.8250   50.4910 C   0  0  0  0  0  0  0  0  0  0  0  0
   62.6250   33.8150   47.4770 C   0  0  0  0  0  0  0  0  0  0  0  0
   63.9220   33.6920   47.9850 C   0  0  0  0  0  0  0  0  0  0  0  0
   63.4448   31.0474   50.0956 H   0  0  0  0  0  0  0  0  0  0  0  0
   61.1263   31.2667   49.2037 H   0  0  0  0  0  0  0  0  0  0  0  0
   60.7764   33.1802   45.2209 H   0  0  0  0  0  0  0  0  0  0  0  0
   57.8110   34.5720   44.0950 H   0  0  0  0  0  0  0  0  0  0  0  0
   57.2228   32.7830   42.6710 H   0  0  0  0  0  0  0  0  0  0  0  0
   58.9771   32.4194   42.8809 H   0  0  0  0  0  0  0  0  0  0  0  0
   59.7346   30.7020   44.4670 H   0  0  0  0  0  0  0  0  0  0  0  0
   59.1434   28.5579   45.6111 H   0  0  0  0  0  0  0  0  0  0  0  0
   56.7378   27.9169   45.8575 H   0  0  0  0  0  0  0  0  0  0  0  0
   55.5200   31.4730   43.8463 H   0  0  0  0  0  0  0  0  0  0  0  0
   57.6234   31.2292   49.4384 H   0  0  0  0  0  0  0  0  0  0  0  0
   57.4204   30.9132   51.9058 H   0  0  0  0  0  0  0  0  0  0  0  0
   59.9842   34.3336   52.5619 H   0  0  0  0  0  0  0  0  0  0  0  0
   60.1944   34.6558   50.0965 H   0  0  0  0  0  0  0  0  0  0  0  0
   62.3965   34.6037   46.7450 H   0  0  0  0  0  0  0  0  0  0  0  0
   64.7116   34.3790   47.6464 H   0  0  0  0  0  0  0  0  0  0  0  0
  1  2  1  0
  2  3  2  0
  3  4  1  0
  4  5  2  0
  5  6  1  0
  6  7  1  0
  7  8  2  0
  8  9  1  0
  9 10  1  0
 10 11  1  0
 11 12  2  0
 12 13  1  0
 13 14  2  0
 14 15  1  0
 15 16  2  0
  8 17  1  0
 17 18  1  0
 18 19  1  0
 19 20  2  0
 20 21  1  0
 21 22  2  0
 22 23  1  0
 22 24  1  0
 24 25  2  0
  5 26  1  0
 26 27  2  0
 27  2  1  0
 18  6  2  0
 25 19  1  0
 16 11  1  0
  3 28  1  0
  4 29  1  0
  7 30  1  0
  9 31  1  0
 10 32  1  0
 10 33  1  0
 12 34  1  0
 13 35  1  0
 14 36  1  0
 16 37  1  0
 20 38  1  0
 21 39  1  0
 24 40  1  0
 25 41  1  0
 26 42  1  0
 27 43  1  0
M  END
>  <UniqueID>  (38) 
37

>  <SMILES>  (38) 
Fc1ccc(-c2cc(NCc3cccnc3)sc2-c2ccc(F)cc2)cc1

>  <Energy>  (38) 
81.60506331566873

>  <Genealogy>  (38) 
Fc1ccc(-c2cc(NCc3cccnc3)sc2-c2ccc(F)cc2)cc1 (3D coordinates assigned)
Fc1ccc(-c2cc(NCc3cccnc3)sc2-c2ccc(F)cc2)cc1 (optimized conformer: 81.60506331566873 kcal/mol)

>  <smiles>  (38) 
Fc1ccc(-c2cc(NCc3cccnc3)sc2-c2ccc(F)cc2)cc1

>  <score_type>  (38) 
oracle

>  <origin>  (38) 
adg

>  <m_score__min__energy>  (38) 
-8.1999999999999993

>  <m_primary>  (38) 
energy

$$$$
38:0
     RDKit          3D

 54 57  0  0  0  0  0  0  0  0999 V2000
   61.4600   29.2760   50.4390 O   0  0  0  0  0  0  0  0  0  0  0  0
   61.3570   30.5270   50.5480 C   0  0  0  0  0  0  0  0  0  0  0  0
   62.5110   31.3180   51.0970 C   0  0  0  0  0  0  0  0  0  0  0  0
   62.4970   32.7730   50.6040 C   0  0  0  0  0  0  0  0  0  0  0  0
   62.7630   32.8760   49.1620 N   0  0  0  0  0  0  0  0  0  0  0  0
   63.6470   32.1470   48.4560 C   0  0  0  0  0  0  0  0  0  0  0  0
   63.5240   32.4840   47.1280 C   0  0  0  0  0  0  0  0  0  0  0  0
   62.5490   33.4010   46.9840 N   0  0  0  0  0  0  0  0  0  0  0  0
   62.0940   33.6060   48.2390 C   0  0  0  0  0  0  0  0  0  0  0  0
   60.9690   34.5610   48.5360 C   0  0  0  0  0  0  0  0  0  0  0  0
   59.6050   33.8590   48.5590 C   0  0  0  0  0  0  0  0  0  0  0  0
   58.9620   33.8350   47.1970 C   0  0  0  0  0  0  0  0  0  0  0  0
   59.6570   34.3170   46.0740 C   0  0  0  0  0  0  0  0  0  0  0  0
   59.0450   34.3210   44.8170 C   0  0  0  0  0  0  0  0  0  0  0  0
   57.7360   33.8530   44.6730 C   0  0  0  0  0  0  0  0  0  0  0  0
   57.0360   33.3810   45.7870 C   0  0  0  0  0  0  0  0  0  0  0  0
   57.6440   33.3750   47.0440 C   0  0  0  0  0  0  0  0  0  0  0  0
   60.1460   31.1930   50.1580 N   0  0  0  0  0  0  0  0  0  0  0  0
   59.0440   30.5070   49.4870 C   0  0  0  0  0  0  0  0  0  0  0  0
   59.3780   30.2420   48.0490 C   0  0  0  0  0  0  0  0  0  0  0  0
   60.6990   29.9960   47.6560 C   0  0  0  0  0  0  0  0  0  0  0  0
   60.9780   29.7770   46.3070 C   0  0  0  0  0  0  0  0  0  0  0  0
   59.9480   29.8070   45.3660 C   0  0  0  0  0  0  0  0  0  0  0  0
   58.6300   30.0620   45.7890 C   0  0  0  0  0  0  0  0  0  0  0  0
   57.5290   30.1100   44.8640 N   0  0  0  0  0  0  0  0  0  0  0  0
   57.5390   30.5500   43.5880 C   0  0  0  0  0  0  0  0  0  0  0  0
   56.2670   30.4220   43.0720 C   0  0  0  0  0  0  0  0  0  0  0  0
   55.5210   29.8910   44.1040 C   0  0  0  0  0  0  0  0  0  0  0  0
   56.3070   29.7110   45.1810 N   0  0  0  0  0  0  0  0  0  0  0  0
   58.3900   30.2690   47.1130 N   0  0  0  0  0  0  0  0  0  0  0  0
   62.4534   31.3146   52.1955 H   0  0  0  0  0  0  0  0  0  0  0  0
   63.4421   30.8491   50.7462 H   0  0  0  0  0  0  0  0  0  0  0  0
   61.5086   33.2079   50.8133 H   0  0  0  0  0  0  0  0  0  0  0  0
   63.2947   33.3152   51.1329 H   0  0  0  0  0  0  0  0  0  0  0  0
   64.3483   31.4077   48.8703 H   0  0  0  0  0  0  0  0  0  0  0  0
   64.1295   32.0680   46.3093 H   0  0  0  0  0  0  0  0  0  0  0  0
   61.1464   35.0231   49.5183 H   0  0  0  0  0  0  0  0  0  0  0  0
   60.9470   35.3165   47.7368 H   0  0  0  0  0  0  0  0  0  0  0  0
   59.7436   32.8241   48.9050 H   0  0  0  0  0  0  0  0  0  0  0  0
   58.9449   34.4193   49.2375 H   0  0  0  0  0  0  0  0  0  0  0  0
   60.6852   34.6920   46.1846 H   0  0  0  0  0  0  0  0  0  0  0  0
   59.5947   34.6931   43.9399 H   0  0  0  0  0  0  0  0  0  0  0  0
   57.2566   33.8561   43.6830 H   0  0  0  0  0  0  0  0  0  0  0  0
   56.0053   33.0140   45.6733 H   0  0  0  0  0  0  0  0  0  0  0  0
   57.0876   33.0080   47.9191 H   0  0  0  0  0  0  0  0  0  0  0  0
   60.0620   32.2240   50.3090 H   0  0  0  0  0  0  0  0  0  0  0  0
   58.8522   29.5503   49.9949 H   0  0  0  0  0  0  0  0  0  0  0  0
   58.1515   31.1487   49.5291 H   0  0  0  0  0  0  0  0  0  0  0  0
   61.5071   29.9757   48.4020 H   0  0  0  0  0  0  0  0  0  0  0  0
   62.0111   29.5804   45.9846 H   0  0  0  0  0  0  0  0  0  0  0  0
   60.1645   29.6327   44.3017 H   0  0  0  0  0  0  0  0  0  0  0  0
   58.4142   30.9441   43.0506 H   0  0  0  0  0  0  0  0  0  0  0  0
   55.9229   30.6851   42.0609 H   0  0  0  0  0  0  0  0  0  0  0  0
   54.4485   29.6516   44.0540 H   0  0  0  0  0  0  0  0  0  0  0  0
  1  2  2  0
  2  3  1  0
  3  4  1  0
  4  5  1  0
  5  6  1  0
  6  7  2  0
  7  8  1  0
  8  9  2  0
  9 10  1  0
 10 11  1  0
 11 12  1  0
 12 13  2  0
 13 14  1  0
 14 15  2  0
 15 16  1  0
 16 17  2  0
  2 18  1  0
 18 19  1  0
 19 20  1  0
 20 21  2  0
 21 22  1  0
 22 23  2  0
 23 24  1  0
 24 25  1  0
 25 26  1  0
 26 27  2  0
 27 28  1  0
 28 29  2  0
 24 30  2  0
  9  5  1  0
 17 12  1  0
 30 20  1  0
 29 25  1  0
  3 31  1  0
  3 32  1  0
  4 33  1  0
  4 34  1  0
  6 35  1  0
  7 36  1  0
 10 37  1  0
 10 38  1  0
 11 39  1  0
 11 40  1  0
 13 41  1  0
 14 42  1  0
 15 43  1  0
 16 44  1  0
 17 45  1  0
 18 46  1  0
 19 47  1  0
 19 48  1  0
 21 49  1  0
 22 50  1  0
 23 51  1  0
 26 52  1  0
 27 53  1  0
 28 54  1  0
M  END
>  <UniqueID>  (39) 
38

>  <SMILES>  (39) 
O=C(CCn1ccnc1CCc1ccccc1)NCc1cccc(-n2cccn2)n1

>  <Energy>  (39) 
107.4423191279581

>  <Genealogy>  (39) 
O=C(CCn1ccnc1CCc1ccccc1)NCc1cccc(-n2cccn2)n1 (3D coordinates assigned)
O=C(CCn1ccnc1CCc1ccccc1)NCc1cccc(-n2cccn2)n1 (optimized conformer: 107.4423191279581 kcal/mol)

>  <smiles>  (39) 
O=C(CCn1ccnc1CCc1ccccc1)NCc1cccc(-n2cccn2)n1

>  <score_type>  (39) 
oracle

>  <origin>  (39) 
adg

>  <m_score__min__energy>  (39) 
-9.0299999999999994

>  <m_primary>  (39) 
energy

$$$$
39:0
     RDKit          3D

 41 43  0  0  0  0  0  0  0  0999 V2000
   58.1410   33.5010   52.7440 C   0  0  0  0  0  0  0  0  0  0  0  0
   58.5800   32.8680   51.4550 C   0  0  0  0  0  0  0  0  0  0  0  0
   59.4060   33.5720   50.5620 C   0  0  0  0  0  0  0  0  0  0  0  0
   59.8000   32.9890   49.3480 C   0  0  0  0  0  0  0  0  0  0  0  0
   60.6370   33.7180   48.4330 N   0  0  0  0  0  0  0  0  0  0  0  0
   60.0500   34.8290   47.6700 C   0  0  0  0  0  0  0  0  0  0  0  0
   59.1720   34.3020   46.5650 C   0  0  0  0  0  0  0  0  0  0  0  0
   59.6560   34.2520   45.2460 C   0  0  0  0  0  0  0  0  0  0  0  0
   58.8560   33.7400   44.2200 C   0  0  0  0  0  0  0  0  0  0  0  0
   57.5670   33.2800   44.5000 C   0  0  0  0  0  0  0  0  0  0  0  0
   57.0740   33.3340   45.8060 C   0  0  0  0  0  0  0  0  0  0  0  0
   57.8710   33.8430   46.8360 C   0  0  0  0  0  0  0  0  0  0  0  0
   62.0500   33.4270   48.3670 C   0  0  0  0  0  0  0  0  0  0  0  0
   62.8140   33.1910   47.2340 C   0  0  0  0  0  0  0  0  0  0  0  0
   64.0770   32.9320   47.6240 N   0  0  0  0  0  0  0  0  0  0  0  0
   64.1350   32.9840   48.9460 N   0  0  0  0  0  0  0  0  0  0  0  0
   65.3420   32.7710   49.7330 C   0  0  0  0  0  0  0  0  0  0  0  0
   62.9180   33.2830   49.4380 C   0  0  0  0  0  0  0  0  0  0  0  0
   59.3510   31.7010   49.0220 C   0  0  0  0  0  0  0  0  0  0  0  0
   58.5230   31.0010   49.9020 C   0  0  0  0  0  0  0  0  0  0  0  0
   58.1350   31.5810   51.1130 C   0  0  0  0  0  0  0  0  0  0  0  0
   57.3210   30.8880   51.9520 F   0  0  0  0  0  0  0  0  0  0  0  0
   58.5411   32.9240   53.5908 H   0  0  0  0  0  0  0  0  0  0  0  0
   58.5182   34.5332   52.7927 H   0  0  0  0  0  0  0  0  0  0  0  0
   57.0421   33.5095   52.7927 H   0  0  0  0  0  0  0  0  0  0  0  0
   59.7459   34.5868   50.8165 H   0  0  0  0  0  0  0  0  0  0  0  0
   59.4468   35.4536   48.3454 H   0  0  0  0  0  0  0  0  0  0  0  0
   60.8614   35.4252   47.2270 H   0  0  0  0  0  0  0  0  0  0  0  0
   60.6687   34.6173   45.0202 H   0  0  0  0  0  0  0  0  0  0  0  0
   59.2421   33.6993   43.1908 H   0  0  0  0  0  0  0  0  0  0  0  0
   56.9400   32.8752   43.6919 H   0  0  0  0  0  0  0  0  0  0  0  0
   56.0572   32.9755   46.0244 H   0  0  0  0  0  0  0  0  0  0  0  0
   57.4784   33.8845   47.8627 H   0  0  0  0  0  0  0  0  0  0  0  0
   62.4512   33.2117   46.1958 H   0  0  0  0  0  0  0  0  0  0  0  0
   64.8820   32.7180   46.9950 H   0  0  0  0  0  0  0  0  0  0  0  0
   65.0940   32.8148   50.8038 H   0  0  0  0  0  0  0  0  0  0  0  0
   65.7657   31.7842   49.4948 H   0  0  0  0  0  0  0  0  0  0  0  0
   66.0778   33.5532   49.4948 H   0  0  0  0  0  0  0  0  0  0  0  0
   62.6585   33.3934   50.5012 H   0  0  0  0  0  0  0  0  0  0  0  0
   59.6522   31.2404   48.0695 H   0  0  0  0  0  0  0  0  0  0  0  0
   58.1752   29.9905   49.6414 H   0  0  0  0  0  0  0  0  0  0  0  0
  1  2  1  0
  2  3  2  0
  3  4  1  0
  4  5  1  0
  5  6  1  0
  6  7  1  0
  7  8  2  0
  8  9  1  0
  9 10  2  0
 10 11  1  0
 11 12  2  0
  5 13  1  0
 13 14  1  0
 14 15  2  0
 15 16  1  0
 16 17  1  0
 16 18  1  0
  4 19  2  0
 19 20  1  0
 20 21  2  0
 21 22  1  0
 21  2  1  0
 12  7  1  0
 18 13  2  0
  1 23  1  0
  1 24  1  0
  1 25  1  0
  3 26  1  0
  6 27  1  0
  6 28  1  0
  8 29  1  0
  9 30  1  0
 10 31  1  0
 11 32  1  0
 12 33  1  0
 14 34  1  0
 15 35  1  0
 17 36  1  0
 17 37  1  0
 17 38  1  0
 18 39  1  0
 19 40  1  0
 20 41  1  0
M  CHG  1  15   1
M  END
>  <UniqueID>  (40) 
39

>  <SMILES>  (40) 
Cc1cc(N(Cc2ccccc2)c2c[nH+]n(C)c2)ccc1F

>  <Energy>  (40) 
78.07892271169257

>  <Genealogy>  (40) 
Cc1cc(N(Cc2ccccc2)c2c[nH+]n(C)c2)ccc1F (protonated)
Cc1cc(N(Cc2ccccc2)c2c[nH+]n(C)c2)ccc1F (3D coordinates assigned)
Cc1cc(N(Cc2ccccc2)c2c[nH+]n(C)c2)ccc1F (optimized conformer: 78.07892271169257 kcal/mol)

>  <smiles>  (40) 
Cc1cc(N(Cc2ccccc2)c2cnn(C)c2)ccc1F

>  <score_type>  (40) 
oracle

>  <origin>  (40) 
adg

>  <m_score__min__energy>  (40) 
-6.1100000000000003

>  <m_primary>  (40) 
energy

$$$$
40:0
     RDKit          3D

 39 42  0  0  0  0  0  0  0  0999 V2000
   59.2680   34.1010   53.5440 Br  0  0  0  0  0  0  0  0  0  0  0  0
   58.3540   32.5260   52.9370 C   0  0  0  0  0  0  0  0  0  0  0  0
   57.7350   31.7430   53.9220 C   0  0  0  0  0  0  0  0  0  0  0  0
   57.0420   30.5840   53.5770 C   0  0  0  0  0  0  0  0  0  0  0  0
   56.9590   30.1930   52.2420 C   0  0  0  0  0  0  0  0  0  0  0  0
   57.5690   30.9600   51.2480 C   0  0  0  0  0  0  0  0  0  0  0  0
   58.2760   32.1360   51.5750 C   0  0  0  0  0  0  0  0  0  0  0  0
   58.9090   32.9160   50.4800 C   0  0  0  0  0  0  0  0  0  0  0  0
   59.1190   32.4440   49.3060 N   0  0  0  0  0  0  0  0  0  0  0  0
   59.7770   33.4800   48.5030 C   0  0  0  0  0  0  0  0  0  0  0  0
   61.1840   33.0160   48.1460 C   0  0  0  0  0  0  0  0  0  0  0  0
   61.3800   31.7470   47.5610 C   0  0  0  0  0  0  0  0  0  0  0  0
   62.6580   31.3270   47.1850 C   0  0  0  0  0  0  0  0  0  0  0  0
   63.7550   32.1680   47.3690 C   0  0  0  0  0  0  0  0  0  0  0  0
   63.5750   33.4380   47.9210 C   0  0  0  0  0  0  0  0  0  0  0  0
   62.2990   33.8650   48.2990 C   0  0  0  0  0  0  0  0  0  0  0  0
   59.0070   33.7520   47.2090 C   0  0  0  0  0  0  0  0  0  0  0  0
   59.6040   34.5210   46.1900 C   0  0  0  0  0  0  0  0  0  0  0  0
   58.9340   34.7510   44.9840 C   0  0  0  0  0  0  0  0  0  0  0  0
   57.6680   34.2040   44.7720 C   0  0  0  0  0  0  0  0  0  0  0  0
   57.0710   33.4210   45.7600 C   0  0  0  0  0  0  0  0  0  0  0  0
   57.7350   33.1880   46.9690 C   0  0  0  0  0  0  0  0  0  0  0  0
   59.8300   34.6820   49.3780 N   0  0  0  0  0  0  0  0  0  0  0  0
   59.3390   34.2140   50.5760 O   0  0  0  0  0  0  0  0  0  0  0  0
   57.7970   32.0465   54.9775 H   0  0  0  0  0  0  0  0  0  0  0  0
   56.5605   29.9779   54.3585 H   0  0  0  0  0  0  0  0  0  0  0  0
   56.4117   29.2781   51.9710 H   0  0  0  0  0  0  0  0  0  0  0  0
   57.4975   30.6435   50.1969 H   0  0  0  0  0  0  0  0  0  0  0  0
   60.5185   31.0824   47.3996 H   0  0  0  0  0  0  0  0  0  0  0  0
   62.7995   30.3299   46.7425 H   0  0  0  0  0  0  0  0  0  0  0  0
   64.7614   31.8312   47.0795 H   0  0  0  0  0  0  0  0  0  0  0  0
   64.4396   34.1040   48.0587 H   0  0  0  0  0  0  0  0  0  0  0  0
   62.1635   34.8724   48.7196 H   0  0  0  0  0  0  0  0  0  0  0  0
   60.6073   34.9447   46.3447 H   0  0  0  0  0  0  0  0  0  0  0  0
   59.4057   35.3638   44.2017 H   0  0  0  0  0  0  0  0  0  0  0  0
   57.1403   34.3904   43.8250 H   0  0  0  0  0  0  0  0  0  0  0  0
   56.0756   32.9856   45.5880 H   0  0  0  0  0  0  0  0  0  0  0  0
   57.2624   32.5604   47.7389 H   0  0  0  0  0  0  0  0  0  0  0  0
   59.1470   35.4080   49.0580 H   0  0  0  0  0  0  0  0  0  0  0  0
  1  2  1  0
  2  3  2  0
  3  4  1  0
  4  5  2  0
  5  6  1  0
  6  7  2  0
  7  8  1  0
  8  9  2  0
  9 10  1  0
 10 11  1  0
 11 12  2  0
 12 13  1  0
 13 14  2  0
 14 15  1  0
 15 16  2  0
 10 17  1  0
 17 18  2  0
 18 19  1  0
 19 20  2  0
 20 21  1  0
 21 22  2  0
 10 23  1  0
 23 24  1  0
  7  2  1  0
 24  8  1  0
 16 11  1  0
 22 17  1  0
  3 25  1  0
  4 26  1  0
  5 27  1  0
  6 28  1  0
 12 29  1  0
 13 30  1  0
 14 31  1  0
 15 32  1  0
 16 33  1  0
 18 34  1  0
 19 35  1  0
 20 36  1  0
 21 37  1  0
 22 38  1  0
 23 39  1  0
M  END
>  <UniqueID>  (41) 
40

>  <SMILES>  (41) 
Brc1ccccc1C1=NC(c2ccccc2)(c2ccccc2)NO1

>  <Energy>  (41) 
68.49538302398102

>  <Genealogy>  (41) 
Brc1ccccc1C1=NC(c2ccccc2)(c2ccccc2)NO1 (3D coordinates assigned)
Brc1ccccc1C1=NC(c2ccccc2)(c2ccccc2)NO1 (nonaromatic ring conformer: 68.49538302398102 kcal/mol)

>  <smiles>  (41) 
Brc1ccccc1C1=NC(c2ccccc2)(c2ccccc2)NO1

>  <score_type>  (41) 
oracle

>  <origin>  (41) 
adg

>  <m_score__min__energy>  (41) 
-8.3100000000000005

>  <m_primary>  (41) 
energy

$$$$
41:0
     RDKit          3D

 47 51  0  0  0  0  0  0  0  0999 V2000
   57.7820   21.8410   43.9120 C   0  0  0  0  0  0  0  0  0  0  0  0
   59.0440   22.0320   44.4700 C   0  0  0  0  0  0  0  0  0  0  0  0
   59.3240   23.1420   45.2380 C   0  0  0  0  0  0  0  0  0  0  0  0
   58.3620   24.0980   45.4780 C   0  0  0  0  0  0  0  0  0  0  0  0
   57.1060   23.9150   44.9260 C   0  0  0  0  0  0  0  0  0  0  0  0
   56.8190   22.8010   44.1530 C   0  0  0  0  0  0  0  0  0  0  0  0
   56.2650   25.0750   45.3320 C   0  0  0  0  0  0  0  0  0  0  0  0
   57.0150   25.7230   46.4640 C   0  0  0  0  0  0  0  0  0  0  0  0
   58.3760   25.2940   46.2040 N   0  0  0  0  0  0  0  0  0  0  0  0
   59.5510   26.0010   46.6330 C   0  0  0  0  0  0  0  0  0  0  0  0
   59.3670   27.4680   46.4510 C   0  0  0  0  0  0  0  0  0  0  0  0
   59.5900   27.9910   45.2110 C   0  0  0  0  0  0  0  0  0  0  0  0
   59.4320   29.3380   45.0090 C   0  0  0  0  0  0  0  0  0  0  0  0
   59.0510   30.2010   46.0220 C   0  0  0  0  0  0  0  0  0  0  0  0
   58.8970   31.6210   45.7310 C   0  0  0  0  0  0  0  0  0  0  0  0
   59.6880   32.5430   46.3860 C   0  0  0  0  0  0  0  0  0  0  0  0
   59.5990   33.8970   46.1550 C   0  0  0  0  0  0  0  0  0  0  0  0
   58.6860   34.3730   45.2330 C   0  0  0  0  0  0  0  0  0  0  0  0
   57.8850   33.4570   44.5680 C   0  0  0  0  0  0  0  0  0  0  0  0
   57.9850   32.0920   44.8120 C   0  0  0  0  0  0  0  0  0  0  0  0
   57.1100   31.1740   44.0790 C   0  0  0  0  0  0  0  0  0  0  0  0
   56.1590   30.4510   44.7000 N   0  0  0  0  0  0  0  0  0  0  0  0
   55.5290   29.7130   43.7860 C   0  0  0  0  0  0  0  0  0  0  0  0
   56.0810   29.9700   42.5850 N   0  0  0  0  0  0  0  0  0  0  0  0
   57.0370   30.8610   42.7980 N   0  0  0  0  0  0  0  0  0  0  0  0
   58.8220   29.6680   47.2890 C   0  0  0  0  0  0  0  0  0  0  0  0
   58.9880   28.3090   47.4650 C   0  0  0  0  0  0  0  0  0  0  0  0
   57.5598   20.9547   43.2996 H   0  0  0  0  0  0  0  0  0  0  0  0
   59.8311   21.2838   44.2947 H   0  0  0  0  0  0  0  0  0  0  0  0
   60.3300   23.2660   45.6652 H   0  0  0  0  0  0  0  0  0  0  0  0
   55.8123   22.6801   43.7264 H   0  0  0  0  0  0  0  0  0  0  0  0
   56.1461   25.7782   44.4945 H   0  0  0  0  0  0  0  0  0  0  0  0
   55.2523   24.7665   45.6306 H   0  0  0  0  0  0  0  0  0  0  0  0
   56.9268   26.8188   46.4272 H   0  0  0  0  0  0  0  0  0  0  0  0
   56.6434   25.4443   47.4611 H   0  0  0  0  0  0  0  0  0  0  0  0
   59.7350   25.7875   47.6963 H   0  0  0  0  0  0  0  0  0  0  0  0
   60.4083   25.6702   46.0284 H   0  0  0  0  0  0  0  0  0  0  0  0
   59.8941   27.3375   44.3800 H   0  0  0  0  0  0  0  0  0  0  0  0
   59.6148   29.7480   44.0048 H   0  0  0  0  0  0  0  0  0  0  0  0
   60.4198   32.1808   47.1231 H   0  0  0  0  0  0  0  0  0  0  0  0
   60.2503   34.5957   46.7006 H   0  0  0  0  0  0  0  0  0  0  0  0
   58.5970   35.4508   45.0319 H   0  0  0  0  0  0  0  0  0  0  0  0
   57.1536   33.8188   43.8304 H   0  0  0  0  0  0  0  0  0  0  0  0
   54.7013   29.0148   43.9794 H   0  0  0  0  0  0  0  0  0  0  0  0
   55.8540   29.5860   41.6410 H   0  0  0  0  0  0  0  0  0  0  0  0
   58.5171   30.3129   48.1264 H   0  0  0  0  0  0  0  0  0  0  0  0
   58.8083   27.8821   48.4627 H   0  0  0  0  0  0  0  0  0  0  0  0
  1  2  2  0
  2  3  1  0
  3  4  2  0
  4  5  1  0
  5  6  2  0
  5  7  1  0
  7  8  1  0
  8  9  1  0
  9 10  1  0
 10 11  1  0
 11 12  2  0
 12 13  1  0
 13 14  2  0
 14 15  1  0
 15 16  2  0
 16 17  1  0
 17 18  2  0
 18 19  1  0
 19 20  2  0
 20 21  1  0
 21 22  1  0
 22 23  2  0
 23 24  1  0
 24 25  1  0
 14 26  1  0
 26 27  2  0
  6  1  1  0
 27 11  1  0
  9  4  1  0
 20 15  1  0
 25 21  2  0
  1 28  1  0
  2 29  1  0
  3 30  1  0
  6 31  1  0
  7 32  1  0
  7 33  1  0
  8 34  1  0
  8 35  1  0
 10 36  1  0
 10 37  1  0
 12 38  1  0
 13 39  1  0
 16 40  1  0
 17 41  1  0
 18 42  1  0
 19 43  1  0
 23 44  1  0
 24 45  1  0
 26 46  1  0
 27 47  1  0
M  END
>  <smiles>  (42) 
c1ccc2c(c1)CCN2Cc1ccc(-c2ccccc2-c2nc[nH]n2)cc1

>  <score_type>  (42) 
oracle

>  <origin>  (42) 
adg

>  <m_score__min__energy>  (42) 
-9.3800000000000008

>  <m_primary>  (42) 
energy

$$$$
42:0
     RDKit          3D

 56 59  0  0  0  0  0  0  0  0999 V2000
   52.1450   29.8430   49.8780 C   0  0  0  0  0  0  0  0  0  0  0  0
   52.5540   30.3230   51.2680 C   0  0  0  0  0  0  0  0  0  0  0  0
   53.9930   30.8520   51.2720 C   0  0  0  0  0  0  0  0  0  0  0  0
   54.8800   29.9770   52.1110 C   0  0  0  0  0  0  0  0  0  0  0  0
   54.3290   29.0730   53.0320 C   0  0  0  0  0  0  0  0  0  0  0  0
   55.1760   28.2860   53.8110 C   0  0  0  0  0  0  0  0  0  0  0  0
   56.5580   28.3980   53.6650 C   0  0  0  0  0  0  0  0  0  0  0  0
   57.0800   29.3160   52.7440 C   0  0  0  0  0  0  0  0  0  0  0  0
   58.5610   29.4960   52.6210 C   0  0  0  0  0  0  0  0  0  0  0  0
   58.9550   29.2780   51.2680 O   0  0  0  0  0  0  0  0  0  0  0  0
   58.8210   30.2180   50.2370 C   0  0  0  0  0  0  0  0  0  0  0  0
   58.5260   31.5720   50.4800 C   0  0  0  0  0  0  0  0  0  0  0  0
   58.4870   32.4850   49.4240 C   0  0  0  0  0  0  0  0  0  0  0  0
   58.7310   32.0650   48.1080 C   0  0  0  0  0  0  0  0  0  0  0  0
   58.7830   33.0840   47.0330 C   0  0  0  0  0  0  0  0  0  0  0  0
   57.6450   33.2730   46.2300 C   0  0  0  0  0  0  0  0  0  0  0  0
   57.6690   34.1780   45.1660 C   0  0  0  0  0  0  0  0  0  0  0  0
   58.8310   34.8980   44.8850 C   0  0  0  0  0  0  0  0  0  0  0  0
   59.9710   34.7230   45.6750 C   0  0  0  0  0  0  0  0  0  0  0  0
   59.9620   33.8230   46.7570 C   0  0  0  0  0  0  0  0  0  0  0  0
   61.1840   33.6880   47.5870 C   0  0  0  0  0  0  0  0  0  0  0  0
   61.2400   34.2380   48.8770 C   0  0  0  0  0  0  0  0  0  0  0  0
   62.4070   34.1060   49.6330 C   0  0  0  0  0  0  0  0  0  0  0  0
   63.4840   33.4550   49.1170 N   0  0  0  0  0  0  0  0  0  0  0  0
   63.4600   32.9170   47.8700 C   0  0  0  0  0  0  0  0  0  0  0  0
   62.3120   33.0270   47.0800 C   0  0  0  0  0  0  0  0  0  0  0  0
   58.9520   30.6920   47.8460 C   0  0  0  0  0  0  0  0  0  0  0  0
   59.1880   30.1780   46.4500 C   0  0  0  0  0  0  0  0  0  0  0  0
   59.0040   29.7860   48.9210 C   0  0  0  0  0  0  0  0  0  0  0  0
   56.2330   30.0760   51.9940 N   0  0  0  0  0  0  0  0  0  0  0  0
   51.4342   29.0088   49.9726 H   0  0  0  0  0  0  0  0  0  0  0  0
   51.6694   30.6696   49.3298 H   0  0  0  0  0  0  0  0  0  0  0  0
   53.0366   29.5046   49.3298 H   0  0  0  0  0  0  0  0  0  0  0  0
   51.8748   31.1288   51.5833 H   0  0  0  0  0  0  0  0  0  0  0  0
   52.4946   29.4713   51.9615 H   0  0  0  0  0  0  0  0  0  0  0  0
   54.3742   30.8684   50.2403 H   0  0  0  0  0  0  0  0  0  0  0  0
   53.9947   31.8667   51.6967 H   0  0  0  0  0  0  0  0  0  0  0  0
   53.2376   28.9860   53.1385 H   0  0  0  0  0  0  0  0  0  0  0  0
   54.7546   27.5778   54.5396 H   0  0  0  0  0  0  0  0  0  0  0  0
   57.2324   27.7715   54.2673 H   0  0  0  0  0  0  0  0  0  0  0  0
   58.8324   30.5187   52.9218 H   0  0  0  0  0  0  0  0  0  0  0  0
   59.0738   28.7739   53.2734 H   0  0  0  0  0  0  0  0  0  0  0  0
   58.3252   31.9130   51.5063 H   0  0  0  0  0  0  0  0  0  0  0  0
   58.2630   33.5428   49.6259 H   0  0  0  0  0  0  0  0  0  0  0  0
   56.7278   32.7036   46.4411 H   0  0  0  0  0  0  0  0  0  0  0  0
   56.7703   34.3233   44.5486 H   0  0  0  0  0  0  0  0  0  0  0  0
   58.8499   35.6036   44.0414 H   0  0  0  0  0  0  0  0  0  0  0  0
   60.8836   35.2940   45.4488 H   0  0  0  0  0  0  0  0  0  0  0  0
   60.3702   34.7697   49.2901 H   0  0  0  0  0  0  0  0  0  0  0  0
   62.4551   34.5292   50.6472 H   0  0  0  0  0  0  0  0  0  0  0  0
   64.3458   32.3936   47.4810 H   0  0  0  0  0  0  0  0  0  0  0  0
   62.2936   32.5979   46.0673 H   0  0  0  0  0  0  0  0  0  0  0  0
   59.6465   29.1794   46.4996 H   0  0  0  0  0  0  0  0  0  0  0  0
   58.2287   30.1149   45.9154 H   0  0  0  0  0  0  0  0  0  0  0  0
   59.8611   30.8644   45.9154 H   0  0  0  0  0  0  0  0  0  0  0  0
   59.1917   28.7205   48.7223 H   0  0  0  0  0  0  0  0  0  0  0  0
  1  2  1  0
  2  3  1  0
  3  4  1  0
  4  5  2  0
  5  6  1  0
  6  7  2  0
  7  8  1  0
  8  9  1  0
  9 10  1  0
 10 11  1  0
 11 12  2  0
 12 13  1  0
 13 14  2  0
 14 15  1  0
 15 16  2  0
 16 17  1  0
 17 18  2  0
 18 19  1  0
 19 20  2  0
 20 21  1  0
 21 22  2  0
 22 23  1  0
 23 24  2  0
 24 25  1  0
 25 26  2  0
 14 27  1  0
 27 28  1  0
 27 29  2  0
  8 30  2  0
 30  4  1  0
 29 11  1  0
 20 15  1  0
 26 21  1  0
  1 31  1  0
  1 32  1  0
  1 33  1  0
  2 34  1  0
  2 35  1  0
  3 36  1  0
  3 37  1  0
  5 38  1  0
  6 39  1  0
  7 40  1  0
  9 41  1  0
  9 42  1  0
 12 43  1  0
 13 44  1  0
 16 45  1  0
 17 46  1  0
 18 47  1  0
 19 48  1  0
 22 49  1  0
 23 50  1  0
 25 51  1  0
 26 52  1  0
 28 53  1  0
 28 54  1  0
 28 55  1  0
 29 56  1  0
M  END
>  <UniqueID>  (43) 
41

>  <SMILES>  (43) 
CCCc1cccc(COc2ccc(-c3ccccc3-c3ccncc3)c(C)c2)n1

>  <Energy>  (43) 
69.46313725864432

>  <Genealogy>  (43) 
CCCc1cccc(COc2ccc(-c3ccccc3-c3ccncc3)c(C)c2)n1 (3D coordinates assigned)
CCCc1cccc(COc2ccc(-c3ccccc3-c3ccncc3)c(C)c2)n1 (optimized conformer: 69.46313725864432 kcal/mol)

>  <smiles>  (43) 
CCCc1cccc(COc2ccc(-c3ccccc3-c3ccncc3)c(C)c2)n1

>  <score_type>  (43) 
oracle

>  <origin>  (43) 
adg

>  <m_score__min__energy>  (43) 
-8.9100000000000001

>  <m_primary>  (43) 
energy

$$$$
43:0
     RDKit          3D

 24 25  0  0  0  0  0  0  0  0999 V2000
   55.7150   28.8590   44.8180 N   0  0  0  0  0  0  0  0  0  0  0  0
   56.3710   29.9790   44.2190 C   0  0  0  0  0  0  0  0  0  0  0  0
   56.3980   30.1170   42.8250 C   0  0  0  0  0  0  0  0  0  0  0  0
   57.0420   31.2080   42.2400 C   0  0  0  0  0  0  0  0  0  0  0  0
   57.6610   32.1710   43.0410 C   0  0  0  0  0  0  0  0  0  0  0  0
   57.6440   32.0510   44.4420 C   0  0  0  0  0  0  0  0  0  0  0  0
   58.3010   33.0740   45.2960 C   0  0  0  0  0  0  0  0  0  0  0  0
   58.9680   34.1680   44.7210 C   0  0  0  0  0  0  0  0  0  0  0  0
   59.5800   35.1170   45.5420 C   0  0  0  0  0  0  0  0  0  0  0  0
   59.5320   34.9860   46.8950 N   0  0  0  0  0  0  0  0  0  0  0  0
   58.8930   33.9390   47.4820 C   0  0  0  0  0  0  0  0  0  0  0  0
   58.2690   32.9660   46.6980 C   0  0  0  0  0  0  0  0  0  0  0  0
   56.9930   30.9460   45.0230 C   0  0  0  0  0  0  0  0  0  0  0  0
   56.1590   27.9130   44.8110 H   0  0  0  0  0  0  0  0  0  0  0  0
   54.7810   28.9660   45.2740 H   0  0  0  0  0  0  0  0  0  0  0  0
   55.9101   29.3631   42.1898 H   0  0  0  0  0  0  0  0  0  0  0  0
   57.0624   31.3102   41.1449 H   0  0  0  0  0  0  0  0  0  0  0  0
   58.1652   33.0291   42.5724 H   0  0  0  0  0  0  0  0  0  0  0  0
   59.0081   34.2768   43.6271 H   0  0  0  0  0  0  0  0  0  0  0  0
   60.1031   35.9741   45.0929 H   0  0  0  0  0  0  0  0  0  0  0  0
   59.9940   35.7050   47.4950 H   0  0  0  0  0  0  0  0  0  0  0  0
   58.8674   33.8580   48.5787 H   0  0  0  0  0  0  0  0  0  0  0  0
   57.7547   32.1187   47.1750 H   0  0  0  0  0  0  0  0  0  0  0  0
   56.9719   30.8399   46.1177 H   0  0  0  0  0  0  0  0  0  0  0  0
  1  2  1  0
  2  3  2  0
  3  4  1  0
  4  5  2  0
  5  6  1  0
  6  7  1  0
  7  8  2  0
  8  9  1  0
  9 10  2  0
 10 11  1  0
 11 12  2  0
  6 13  2  0
 13  2  1  0
 12  7  1  0
  1 14  1  0
  1 15  1  0
  3 16  1  0
  4 17  1  0
  5 18  1  0
  8 19  1  0
  9 20  1  0
 10 21  1  0
 11 22  1  0
 12 23  1  0
 13 24  1  0
M  CHG  1  10   1
M  END
>  <UniqueID>  (44) 
42

>  <SMILES>  (44) 
Nc1cccc(-c2cc[nH+]cc2)c1

>  <Energy>  (44) 
28.95450477849153

>  <Genealogy>  (44) 
Nc1cccc(-c2cc[nH+]cc2)c1 (protonated)
Nc1cccc(-c2cc[nH+]cc2)c1 (3D coordinates assigned)
Nc1cccc(-c2cc[nH+]cc2)c1 (optimized conformer: 28.95450477849153 kcal/mol)

>  <smiles>  (44) 
Nc1cccc(-c2ccncc2)c1

>  <score_type>  (44) 
oracle

>  <origin>  (44) 
adg

>  <m_score__min__energy>  (44) 
-4.9500000000000002

>  <m_primary>  (44) 
energy

$$$$
44:0
     RDKit          3D

 34 35  0  0  0  0  0  0  0  0999 V2000
   59.2600   35.0320   47.4750 N   0  0  0  0  0  0  0  0  0  0  0  0
   58.7390   34.0540   46.5710 C   0  0  0  0  0  0  0  0  0  0  0  0
   58.6320   32.7130   46.9650 C   0  0  0  0  0  0  0  0  0  0  0  0
   58.1250   31.7570   46.0810 C   0  0  0  0  0  0  0  0  0  0  0  0
   57.7290   32.1280   44.7840 C   0  0  0  0  0  0  0  0  0  0  0  0
   57.1920   31.0940   43.8260 C   0  0  0  0  0  0  0  0  0  0  0  0
   56.7620   29.8440   44.5500 C   0  0  0  0  0  0  0  0  0  0  0  0
   55.5470   29.7170   44.8590 O   0  0  0  0  0  0  0  0  0  0  0  0
   57.7030   28.8200   44.9360 N   0  0  0  0  0  0  0  0  0  0  0  0
   57.3950   27.9870   46.1100 C   0  0  0  0  0  0  0  0  0  0  0  0
   58.5970   27.1280   46.5290 C   0  0  0  0  0  0  0  0  0  0  0  0
   59.8830   27.9620   46.4880 C   0  0  0  0  0  0  0  0  0  0  0  0
   60.1580   28.5570   45.0900 C   0  0  0  0  0  0  0  0  0  0  0  0
   58.9280   28.5500   44.1680 C   0  0  0  0  0  0  0  0  0  0  0  0
   57.8190   33.4760   44.4000 C   0  0  0  0  0  0  0  0  0  0  0  0
   58.3260   34.4310   45.2850 C   0  0  0  0  0  0  0  0  0  0  0  0
   60.0260   34.7880   48.1420 H   0  0  0  0  0  0  0  0  0  0  0  0
   58.8860   36.0060   47.4820 H   0  0  0  0  0  0  0  0  0  0  0  0
   58.9486   32.4120   47.9745 H   0  0  0  0  0  0  0  0  0  0  0  0
   58.0352   30.7086   46.4016 H   0  0  0  0  0  0  0  0  0  0  0  0
   56.3263   31.5149   43.2935 H   0  0  0  0  0  0  0  0  0  0  0  0
   57.9925   30.8272   43.1203 H   0  0  0  0  0  0  0  0  0  0  0  0
   57.1157   28.6421   46.9483 H   0  0  0  0  0  0  0  0  0  0  0  0
   56.5680   27.3123   45.8439 H   0  0  0  0  0  0  0  0  0  0  0  0
   58.4382   26.7548   47.5515 H   0  0  0  0  0  0  0  0  0  0  0  0
   58.6947   26.2826   45.8320 H   0  0  0  0  0  0  0  0  0  0  0  0
   59.7919   28.7864   47.2105 H   0  0  0  0  0  0  0  0  0  0  0  0
   60.7215   27.2955   46.7382 H   0  0  0  0  0  0  0  0  0  0  0  0
   60.4942   29.5970   45.2142 H   0  0  0  0  0  0  0  0  0  0  0  0
   60.9227   27.9254   44.6142 H   0  0  0  0  0  0  0  0  0  0  0  0
   59.0496   29.3254   43.3973 H   0  0  0  0  0  0  0  0  0  0  0  0
   58.8415   27.5582   43.7001 H   0  0  0  0  0  0  0  0  0  0  0  0
   57.4883   33.7818   43.3964 H   0  0  0  0  0  0  0  0  0  0  0  0
   58.4015   35.4827   44.9717 H   0  0  0  0  0  0  0  0  0  0  0  0
  1  2  1  0
  2  3  2  0
  3  4  1  0
  4  5  2  0
  5  6  1  0
  6  7  1  0
  7  8  2  0
  7  9  1  0
  9 10  1  0
 10 11  1  0
 11 12  1  0
 12 13  1  0
 13 14  1  0
  5 15  1  0
 15 16  2  0
 16  2  1  0
 14  9  1  0
  1 17  1  0
  1 18  1  0
  3 19  1  0
  4 20  1  0
  6 21  1  0
  6 22  1  0
 10 23  1  0
 10 24  1  0
 11 25  1  0
 11 26  1  0
 12 27  1  0
 12 28  1  0
 13 29  1  0
 13 30  1  0
 14 31  1  0
 14 32  1  0
 15 33  1  0
 16 34  1  0
M  END
>  <UniqueID>  (45) 
43

>  <SMILES>  (45) 
Nc1ccc(CC(=O)N2CCCCC2)cc1

>  <Energy>  (45) 
32.29624760085025

>  <Genealogy>  (45) 
Nc1ccc(CC(=O)N2CCCCC2)cc1 (3D coordinates assigned)
Nc1ccc(CC(=O)N2CCCCC2)cc1 (nonaromatic ring conformer: 32.29624760085025 kcal/mol)

>  <smiles>  (45) 
Nc1ccc(CC(=O)N2CCCCC2)cc1

>  <score_type>  (45) 
oracle

>  <origin>  (45) 
adg

>  <m_score__min__energy>  (45) 
-6.7300000000000004

>  <m_primary>  (45) 
energy

$$$$
45:0
     RDKit          3D

 39 42  0  0  1  0  0  0  0  0999 V2000
   54.4470   23.9720   44.8890 C   0  0  0  0  0  0  0  0  0  0  0  0
   55.6750   24.7340   45.2160 C   0  0  0  0  0  0  0  0  0  0  0  0
   56.6330   24.8380   44.2310 C   0  0  0  0  0  0  0  0  0  0  0  0
   57.7400   25.5330   44.5450 N   0  0  0  0  0  0  0  0  0  0  0  0
   57.8940   26.1010   45.7790 C   0  0  0  0  0  0  0  0  0  0  0  0
   59.1800   26.8750   46.0750 C   0  0  0  0  0  0  0  0  0  0  0  0
   59.1830   27.8870   45.0830 N   0  0  0  0  0  0  0  0  0  0  0  0
   58.3590   28.8420   44.9490 C   0  0  0  0  0  0  0  0  0  0  0  0
   57.2240   28.5750   44.2780 N   0  0  0  0  0  0  0  0  0  0  0  0
   56.2530   29.4550   44.0450 C   0  0  0  0  0  0  0  0  0  0  0  0
   56.4500   30.6980   44.5320 N   0  0  0  0  0  0  0  0  0  0  0  0
   57.5730   31.0040   45.2090 C   0  0  0  0  0  0  0  0  0  0  0  0
   58.0560   32.6050   45.9530 S   0  0  0  0  0  0  0  0  0  0  0  0
   59.5970   31.9490   46.5490 C   0  0  0  0  0  0  0  0  0  0  0  0
   60.5810   32.7050   47.2930 C   0  0  0  0  0  0  0  0  0  0  0  0
   61.9390   32.6560   47.0570 C   0  0  0  0  0  0  0  0  0  0  0  0
   62.8390   33.3840   47.7790 C   0  0  0  0  0  0  0  0  0  0  0  0
   62.4160   34.2070   48.7870 C   0  0  0  0  0  0  0  0  0  0  0  0
   61.0610   34.2650   49.0360 C   0  0  0  0  0  0  0  0  0  0  0  0
   60.1550   33.5330   48.3090 C   0  0  0  0  0  0  0  0  0  0  0  0
   59.6520   30.5830   46.1570 C   0  0  0  0  0  0  0  0  0  0  0  0
   58.6090   30.1300   45.4770 C   0  0  0  0  0  0  0  0  0  0  0  0
   56.9270   25.9900   46.7560 C   0  0  0  0  0  0  0  0  0  0  0  0
   55.8190   25.2850   46.4160 N   0  0  0  0  0  0  0  0  0  0  0  0
   53.9487   23.6628   45.8196 H   0  0  0  0  0  0  0  0  0  0  0  0
   53.7668   24.6069   44.3023 H   0  0  0  0  0  0  0  0  0  0  0  0
   54.7139   23.0806   44.3023 H   0  0  0  0  0  0  0  0  0  0  0  0
   56.4991   24.3772   43.2412 H   0  0  0  0  0  0  0  0  0  0  0  0
   59.1543   27.3117   47.0843 H   0  0  0  0  0  0  0  0  0  0  0  0
   60.0800   26.2430   46.0499 H   0  0  0  0  0  0  0  0  0  0  0  0
   57.0640   27.6010   43.8950 H   0  0  0  0  0  0  0  0  0  0  0  0
   55.3435   29.1850   43.4883 H   0  0  0  0  0  0  0  0  0  0  0  0
   62.3116   32.0033   46.2538 H   0  0  0  0  0  0  0  0  0  0  0  0
   63.9121   33.3088   47.5492 H   0  0  0  0  0  0  0  0  0  0  0  0
   63.1303   34.8003   49.3768 H   0  0  0  0  0  0  0  0  0  0  0  0
   60.6946   34.9179   49.8419 H   0  0  0  0  0  0  0  0  0  0  0  0
   59.0819   33.6079   48.5390 H   0  0  0  0  0  0  0  0  0  0  0  0
   60.5100   29.9404   46.4038 H   0  0  0  0  0  0  0  0  0  0  0  0
   57.0468   26.4453   47.7502 H   0  0  0  0  0  0  0  0  0  0  0  0
  1  2  1  0
  2  3  2  0
  3  4  1  0
  4  5  2  0
  5  6  1  0
  6  7  1  0
  7  8  2  0
  8  9  1  0
  9 10  1  0
 10 11  2  0
 11 12  1  0
 12 13  1  0
 13 14  1  0
 14 15  1  0
 15 16  2  0
 16 17  1  0
 17 18  2  0
 18 19  1  0
 19 20  2  0
 14 21  2  0
 21 22  1  0
  5 23  1  0
 23 24  2  0
 24  2  1  0
 22  8  1  0
 22 12  2  0
 20 15  1  0
  1 25  1  0
  1 26  1  0
  1 27  1  0
  3 28  1  0
  6 29  1  0
  6 30  1  0
  9 31  1  0
 10 32  1  0
 16 33  1  0
 17 34  1  0
 18 35  1  0
 19 36  1  0
 20 37  1  0
 21 38  1  0
 23 39  1  0
M  END
>  <smiles>  (46) 
Cc1cnc(CN=c2[nH]cnc3sc(-c4ccccc4)cc23)cn1

>  <score_type>  (46) 
oracle

>  <origin>  (46) 
adg

>  <m_score__min__energy>  (46) 
-8.3699999999999992

>  <m_primary>  (46) 
energy

$$$$
46:0
     RDKit          3D

 34 35  0  0  0  0  0  0  0  0999 V2000
   57.4230   33.0280   44.5220 C   0  0  0  0  0  0  0  0  0  0  0  0
   57.6580   31.5480   44.5680 C   0  0  0  0  0  0  0  0  0  0  0  0
   56.8950   30.6870   43.7640 C   0  0  0  0  0  0  0  0  0  0  0  0
   57.0650   29.3020   43.8550 C   0  0  0  0  0  0  0  0  0  0  0  0
   58.0000   28.7680   44.7490 C   0  0  0  0  0  0  0  0  0  0  0  0
   58.1990   27.0300   44.8890 S   0  0  0  0  0  0  0  0  0  0  0  0
   57.6440   26.2400   43.5140 O   0  0  0  0  0  0  0  0  0  0  0  0
   57.4710   26.3700   46.3740 C   0  0  0  0  0  0  0  0  0  0  0  0
   56.0770   25.8760   46.1080 C   0  0  0  0  0  0  0  0  0  0  0  0
   55.1470   26.7180   45.9950 O   0  0  0  0  0  0  0  0  0  0  0  0
   55.7430   24.4800   46.1090 N   0  0  0  0  0  0  0  0  0  0  0  0
   56.2010   23.4900   45.1810 C   0  0  0  0  0  0  0  0  0  0  0  0
   57.1140   22.4930   45.5630 C   0  0  0  0  0  0  0  0  0  0  0  0
   57.5510   21.5460   44.6310 C   0  0  0  0  0  0  0  0  0  0  0  0
   57.1010   21.6040   43.3090 C   0  0  0  0  0  0  0  0  0  0  0  0
   56.2290   22.6230   42.9130 C   0  0  0  0  0  0  0  0  0  0  0  0
   55.7960   23.5720   43.8430 C   0  0  0  0  0  0  0  0  0  0  0  0
   58.7620   29.6220   45.5540 C   0  0  0  0  0  0  0  0  0  0  0  0
   58.5830   31.0060   45.4730 C   0  0  0  0  0  0  0  0  0  0  0  0
   57.3605   33.4214   45.5474 H   0  0  0  0  0  0  0  0  0  0  0  0
   58.2551   33.5151   43.9924 H   0  0  0  0  0  0  0  0  0  0  0  0
   56.4810   33.2334   43.9924 H   0  0  0  0  0  0  0  0  0  0  0  0
   56.1602   31.1035   43.0593 H   0  0  0  0  0  0  0  0  0  0  0  0
   56.4634   28.6318   43.2235 H   0  0  0  0  0  0  0  0  0  0  0  0
   56.6610   26.3470   43.5470 H   0  0  0  0  0  0  0  0  0  0  0  0
   58.0870   25.5343   46.7376 H   0  0  0  0  0  0  0  0  0  0  0  0
   57.4253   27.1676   47.1301 H   0  0  0  0  0  0  0  0  0  0  0  0
   57.4861   22.4570   46.5975 H   0  0  0  0  0  0  0  0  0  0  0  0
   58.2499   20.7544   44.9390 H   0  0  0  0  0  0  0  0  0  0  0  0
   57.4324   20.8490   42.5809 H   0  0  0  0  0  0  0  0  0  0  0  0
   55.8840   22.6775   41.8699 H   0  0  0  0  0  0  0  0  0  0  0  0
   55.1327   24.3887   43.5219 H   0  0  0  0  0  0  0  0  0  0  0  0
   59.5028   29.2038   46.2514 H   0  0  0  0  0  0  0  0  0  0  0  0
   59.1699   31.6730   46.1216 H   0  0  0  0  0  0  0  0  0  0  0  0
  1  2  1  0
  2  3  2  0
  3  4  1  0
  4  5  2  0
  5  6  1  0
  6  7  1  6
  6  8  1  0
  8  9  1  0
  9 10  2  0
  9 11  1  0
 11 12  1  0
 12 13  2  0
 13 14  1  0
 14 15  2  0
 15 16  1  0
 16 17  2  0
  5 18  1  0
 18 19  2  0
 19  2  1  0
 17 12  1  0
  1 20  1  0
  1 21  1  0
  1 22  1  0
  3 23  1  0
  4 24  1  0
  7 25  1  0
  8 26  1  0
  8 27  1  0
 13 28  1  0
 14 29  1  0
 15 30  1  0
 16 31  1  0
 17 32  1  0
 18 33  1  0
 19 34  1  0
M  CHG  2   6   1  11  -1
M  END
>  <UniqueID>  (47) 
44

>  <SMILES>  (47) 
Cc1ccc([S@+](O)CC(=O)[N-]c2ccccc2)cc1

>  <Energy>  (47) 
31.13556747334144

>  <Genealogy>  (47) 
Cc1ccc([S+](O)CC(=O)[N-]c2ccccc2)cc1 (protonated)
Cc1ccc([S@+](O)CC(=O)[N-]c2ccccc2)cc1 (chirality)
Cc1ccc([S@+](O)CC(=O)[N-]c2ccccc2)cc1 (3D coordinates assigned)
Cc1ccc([S@+](O)CC(=O)[N-]c2ccccc2)cc1 (optimized conformer: 31.13556747334144 kcal/mol)

>  <smiles>  (47) 
Cc1ccc([S+]([O-])CC(=O)Nc2ccccc2)cc1

>  <score_type>  (47) 
oracle

>  <origin>  (47) 
adg

>  <m_score__min__energy>  (47) 
-7.29

>  <m_primary>  (47) 
energy

$$$$
47:0
     RDKit          3D

 62 64  0  0  0  0  0  0  0  0999 V2000
   58.2290   34.5840   45.0090 C   0  0  0  0  0  0  0  0  0  0  0  0
   57.6340   33.7340   46.1250 C   0  0  0  0  0  0  0  0  0  0  0  0
   57.7760   32.2710   45.8160 C   0  0  0  0  0  0  0  0  0  0  0  0
   57.0390   31.6460   44.8660 N   0  0  0  0  0  0  0  0  0  0  0  0
   57.4270   30.3550   44.9580 C   0  0  0  0  0  0  0  0  0  0  0  0
   56.9220   29.3000   44.2030 C   0  0  0  0  0  0  0  0  0  0  0  0
   57.3900   28.0090   44.4830 C   0  0  0  0  0  0  0  0  0  0  0  0
   58.3450   27.7900   45.5080 C   0  0  0  0  0  0  0  0  0  0  0  0
   58.8090   26.4210   45.8400 C   0  0  0  0  0  0  0  0  0  0  0  0
   60.0230   26.2100   46.1070 O   0  0  0  0  0  0  0  0  0  0  0  0
   57.8880   25.3260   45.8860 N   0  0  0  0  0  0  0  0  0  0  0  0
   56.6830   25.4320   46.7150 C   0  0  0  0  0  0  0  0  0  0  0  0
   55.9670   24.0770   46.8220 C   0  0  0  0  0  0  0  0  0  0  0  0
   55.6820   23.4610   45.4390 C   0  0  0  0  0  0  0  0  0  0  0  0
   56.8200   23.6730   44.4050 C   0  0  2  0  0  0  0  0  0  0  0  0
   57.0390   22.3980   43.5650 C   0  0  0  0  0  0  0  0  0  0  0  0
   55.9710   22.1890   42.6740 O   0  0  0  0  0  0  0  0  0  0  0  0
   58.1310   24.1300   45.0680 C   0  0  0  0  0  0  0  0  0  0  0  0
   58.8170   28.9020   46.2360 C   0  0  0  0  0  0  0  0  0  0  0  0
   58.3520   30.1380   45.9090 N   0  0  0  0  0  0  0  0  0  0  0  0
   58.5950   31.3430   46.4540 C   0  0  0  0  0  0  0  0  0  0  0  0
   59.4840   31.5720   47.5610 N   0  0  0  0  0  0  0  0  0  0  0  0
   58.9360   31.4140   48.9090 C   0  0  0  0  0  0  0  0  0  0  0  0
   60.9420   31.5230   47.3430 C   0  0  0  0  0  0  0  0  0  0  0  0
   61.6350   32.9100   47.4660 C   0  0  0  0  0  0  0  0  0  0  0  0
   61.4010   33.5270   48.8610 C   0  0  0  0  0  0  0  0  0  0  0  0
   61.1130   33.8800   46.3890 C   0  0  0  0  0  0  0  0  0  0  0  0
   63.1540   32.7140   47.2620 C   0  0  0  0  0  0  0  0  0  0  0  0
   58.8077   35.4108   45.4466 H   0  0  0  0  0  0  0  0  0  0  0  0
   58.8902   33.9624   44.3874 H   0  0  0  0  0  0  0  0  0  0  0  0
   57.4186   34.9925   44.3874 H   0  0  0  0  0  0  0  0  0  0  0  0
   58.1585   33.9562   47.0660 H   0  0  0  0  0  0  0  0  0  0  0  0
   56.5641   33.9723   46.2169 H   0  0  0  0  0  0  0  0  0  0  0  0
   56.1786   29.4743   43.4111 H   0  0  0  0  0  0  0  0  0  0  0  0
   57.0121   27.1556   43.9008 H   0  0  0  0  0  0  0  0  0  0  0  0
   56.9681   25.7687   47.7226 H   0  0  0  0  0  0  0  0  0  0  0  0
   55.9980   26.1541   46.2467 H   0  0  0  0  0  0  0  0  0  0  0  0
   56.6017   23.3847   47.3946 H   0  0  0  0  0  0  0  0  0  0  0  0
   55.0024   24.2424   47.3243 H   0  0  0  0  0  0  0  0  0  0  0  0
   55.5288   22.3793   45.5674 H   0  0  0  0  0  0  0  0  0  0  0  0
   54.7924   23.9714   45.0413 H   0  0  0  0  0  0  0  0  0  0  0  0
   56.5025   24.4836   43.7326 H   0  0  0  0  0  0  0  0  0  0  0  0
   57.9712   22.5021   42.9903 H   0  0  0  0  0  0  0  0  0  0  0  0
   57.0991   21.5367   44.2465 H   0  0  0  0  0  0  0  0  0  0  0  0
   56.2210   22.6280   41.8170 H   0  0  0  0  0  0  0  0  0  0  0  0
   58.5166   23.3227   45.7080 H   0  0  0  0  0  0  0  0  0  0  0  0
   58.8673   24.3695   44.2867 H   0  0  0  0  0  0  0  0  0  0  0  0
   59.5451   28.7727   47.0503 H   0  0  0  0  0  0  0  0  0  0  0  0
   59.7165   31.6390   49.6508 H   0  0  0  0  0  0  0  0  0  0  0  0
   58.0910   32.1051   49.0446 H   0  0  0  0  0  0  0  0  0  0  0  0
   58.5887   30.3791   49.0446 H   0  0  0  0  0  0  0  0  0  0  0  0
   61.3830   30.8461   48.0895 H   0  0  0  0  0  0  0  0  0  0  0  0
   61.1034   31.1710   46.3134 H   0  0  0  0  0  0  0  0  0  0  0  0
   61.6778   32.7970   49.6359 H   0  0  0  0  0  0  0  0  0  0  0  0
   62.0190   34.4304   48.9707 H   0  0  0  0  0  0  0  0  0  0  0  0
   60.3394   33.7934   48.9707 H   0  0  0  0  0  0  0  0  0  0  0  0
   60.6452   34.7493   46.8742 H   0  0  0  0  0  0  0  0  0  0  0  0
   61.9514   34.2173   45.7619 H   0  0  0  0  0  0  0  0  0  0  0  0
   60.3697   33.3660   45.7619 H   0  0  0  0  0  0  0  0  0  0  0  0
   63.6503   32.6500   48.2416 H   0  0  0  0  0  0  0  0  0  0  0  0
   63.3316   31.7855   46.6996 H   0  0  0  0  0  0  0  0  0  0  0  0
   63.5615   33.5670   46.6996 H   0  0  0  0  0  0  0  0  0  0  0  0
  1  2  1  0
  2  3  1  0
  3  4  1  0
  4  5  2  0
  5  6  1  0
  6  7  2  0
  7  8  1  0
  8  9  1  0
  9 10  2  0
  9 11  1  0
 11 12  1  0
 12 13  1  0
 13 14  1  0
 14 15  1  0
 15 16  1  0
 16 17  1  0
 15 18  1  0
  8 19  2  0
 19 20  1  0
 20 21  1  0
 21 22  1  0
 22 23  1  0
 22 24  1  0
 24 25  1  0
 25 26  1  0
 25 27  1  0
 25 28  1  0
 21  3  2  0
 20  5  1  0
 18 11  1  0
  1 29  1  0
  1 30  1  0
  1 31  1  0
  2 32  1  0
  2 33  1  0
  6 34  1  0
  7 35  1  0
 12 36  1  0
 12 37  1  0
 13 38  1  0
 13 39  1  0
 14 40  1  0
 14 41  1  0
 15 42  1  6
 16 43  1  0
 16 44  1  0
 17 45  1  0
 18 46  1  0
 18 47  1  0
 19 48  1  0
 23 49  1  0
 23 50  1  0
 23 51  1  0
 24 52  1  0
 24 53  1  0
 26 54  1  0
 26 55  1  0
 26 56  1  0
 27 57  1  0
 27 58  1  0
 27 59  1  0
 28 60  1  0
 28 61  1  0
 28 62  1  0
M  END
>  <UniqueID>  (48) 
45

>  <SMILES>  (48) 
CCc1nc2ccc(C(=O)N3CCC[C@H](CO)C3)cn2c1N(C)CC(C)(C)C

>  <Energy>  (48) 
100.73292898639147

>  <Genealogy>  (48) 
CCc1nc2ccc(C(=O)N3CCC[C@H](CO)C3)cn2c1N(C)CC(C)(C)C (chirality)
CCc1nc2ccc(C(=O)N3CCC[C@H](CO)C3)cn2c1N(C)CC(C)(C)C (3D coordinates assigned)
CCc1nc2ccc(C(=O)N3CCC[C@H](CO)C3)cn2c1N(C)CC(C)(C)C (nonaromatic ring conformer: 100.73292898639147 kcal/mol)

>  <smiles>  (48) 
CCc1nc2ccc(C(=O)N3CCCC(CO)C3)cn2c1N(C)CC(C)(C)C

>  <score_type>  (48) 
oracle

>  <origin>  (48) 
adg

>  <m_score__min__energy>  (48) 
-8.8499999999999996

>  <m_primary>  (48) 
energy

$$$$
48:0
     RDKit          3D

 84 88  0  0  0  0  0  0  0  0999 V2000
   58.0670   31.8000   43.0180 C   0  0  0  0  0  0  0  0  0  0  0  0
   58.4830   30.9830   44.2500 C   0  0  0  0  0  0  0  0  0  0  0  0
   57.9190   29.6100   44.2990 N   0  0  0  0  0  0  0  0  0  0  0  0
   56.7620   29.4050   43.3970 C   0  0  0  0  0  0  0  0  0  0  0  0
   55.4580   29.8340   44.0680 C   0  0  0  0  0  0  0  0  0  0  0  0
   58.9540   28.5700   44.1250 C   0  0  0  0  0  0  0  0  0  0  0  0
   58.3450   27.1900   44.2210 C   0  0  0  0  0  0  0  0  0  0  0  0
   57.9640   26.5160   43.0470 C   0  0  0  0  0  0  0  0  0  0  0  0
   57.4100   25.2350   43.1130 C   0  0  0  0  0  0  0  0  0  0  0  0
   57.2280   24.6130   44.3480 C   0  0  0  0  0  0  0  0  0  0  0  0
   57.5980   25.2720   45.5220 C   0  0  0  0  0  0  0  0  0  0  0  0
   58.1570   26.5570   45.4700 C   0  0  0  0  0  0  0  0  0  0  0  0
   58.5180   27.2080   46.6950 N   0  0  0  0  0  0  0  0  0  0  0  0
   57.8670   28.4750   47.0470 C   0  0  0  0  0  0  0  0  0  0  0  0
   58.5760   29.1660   48.2180 C   0  0  0  0  0  0  0  0  0  0  0  0
   60.0290   29.1150   48.0270 N   0  0  0  0  0  0  0  0  0  0  0  0
   60.8060   30.3160   48.1310 C   0  0  0  0  0  0  0  0  0  0  0  0
   61.1840   30.8960   47.0780 O   0  0  0  0  0  0  0  0  0  0  0  0
   61.2200   30.8710   49.4730 C   0  0  2  0  0  0  0  0  0  0  0  0
   60.4750   32.1790   49.7950 C   0  0  0  0  0  0  0  0  0  0  0  0
   59.8140   32.7710   48.5760 C   0  0  0  0  0  0  0  0  0  0  0  0
   60.5170   33.6540   47.7380 C   0  0  0  0  0  0  0  0  0  0  0  0
   59.9000   34.1870   46.6040 C   0  0  0  0  0  0  0  0  0  0  0  0
   58.5810   33.8430   46.2920 C   0  0  0  0  0  0  0  0  0  0  0  0
   57.8110   34.5180   44.8690 Cl  0  0  0  0  0  0  0  0  0  0  0  0
   57.8800   32.9570   47.1170 C   0  0  0  0  0  0  0  0  0  0  0  0
   58.4930   32.4210   48.2520 C   0  0  0  0  0  0  0  0  0  0  0  0
   62.6660   31.1160   49.5030 N   0  0  0  0  0  0  0  0  0  0  0  0
   63.4000   31.3440   50.7180 C   0  0  0  0  0  0  0  0  0  0  0  0
   62.8070   31.3080   51.8320 O   0  0  0  0  0  0  0  0  0  0  0  0
   64.8610   31.7200   50.6570 C   0  0  0  0  0  0  0  0  0  0  0  0
   65.7000   31.2580   51.8760 C   0  0  2  0  0  0  0  0  0  0  0  0
   66.9280   32.0630   52.0750 N   0  0  0  0  0  0  0  0  0  0  0  0
   68.0840   31.1590   51.9150 C   0  0  0  0  0  0  0  0  0  0  0  0
   67.5190   29.8000   51.7770 C   0  0  0  0  0  0  0  0  0  0  0  0
   68.2020   28.5880   51.6700 C   0  0  0  0  0  0  0  0  0  0  0  0
   67.4520   27.4050   51.5500 C   0  0  0  0  0  0  0  0  0  0  0  0
   66.0450   27.4560   51.5430 C   0  0  0  0  0  0  0  0  0  0  0  0
   65.3850   28.6910   51.6510 C   0  0  0  0  0  0  0  0  0  0  0  0
   66.1570   29.8510   51.7590 C   0  0  0  0  0  0  0  0  0  0  0  0
   60.6940   27.8740   47.6100 C   0  0  0  0  0  0  0  0  0  0  0  0
   59.6860   26.7340   47.4440 C   0  0  0  0  0  0  0  0  0  0  0  0
   57.5902   32.7365   43.3430 H   0  0  0  0  0  0  0  0  0  0  0  0
   58.9568   32.0319   42.4143 H   0  0  0  0  0  0  0  0  0  0  0  0
   57.3561   31.2168   42.4143 H   0  0  0  0  0  0  0  0  0  0  0  0
   59.5801   30.9039   44.2551 H   0  0  0  0  0  0  0  0  0  0  0  0
   58.0855   31.5154   45.1266 H   0  0  0  0  0  0  0  0  0  0  0  0
   56.9087   30.0002   42.4837 H   0  0  0  0  0  0  0  0  0  0  0  0
   56.6940   28.3343   43.1542 H   0  0  0  0  0  0  0  0  0  0  0  0
   55.5777   29.7946   45.1608 H   0  0  0  0  0  0  0  0  0  0  0  0
   55.2094   30.8613   43.7632 H   0  0  0  0  0  0  0  0  0  0  0  0
   54.6481   29.1549   43.7632 H   0  0  0  0  0  0  0  0  0  0  0  0
   59.4239   28.6896   43.1376 H   0  0  0  0  0  0  0  0  0  0  0  0
   59.7052   28.6816   44.9207 H   0  0  0  0  0  0  0  0  0  0  0  0
   58.1032   27.0009   42.0695 H   0  0  0  0  0  0  0  0  0  0  0  0
   57.1167   24.7158   42.1887 H   0  0  0  0  0  0  0  0  0  0  0  0
   56.7932   23.6038   44.3971 H   0  0  0  0  0  0  0  0  0  0  0  0
   57.4500   24.7797   46.4945 H   0  0  0  0  0  0  0  0  0  0  0  0
   57.8879   29.1423   46.1728 H   0  0  0  0  0  0  0  0  0  0  0  0
   56.8321   28.2582   47.3502 H   0  0  0  0  0  0  0  0  0  0  0  0
   58.2525   30.2160   48.2709 H   0  0  0  0  0  0  0  0  0  0  0  0
   58.3169   28.6474   49.1529 H   0  0  0  0  0  0  0  0  0  0  0  0
   60.9572   30.1214   50.2340 H   0  0  0  0  0  0  0  0  0  0  0  0
   59.7034   31.9707   50.5508 H   0  0  0  0  0  0  0  0  0  0  0  0
   61.2124   32.9057   50.1666 H   0  0  0  0  0  0  0  0  0  0  0  0
   61.5559   33.9259   47.9760 H   0  0  0  0  0  0  0  0  0  0  0  0
   60.4538   34.8801   45.9537 H   0  0  0  0  0  0  0  0  0  0  0  0
   56.8437   32.6818   46.8714 H   0  0  0  0  0  0  0  0  0  0  0  0
   57.9385   31.7216   48.8950 H   0  0  0  0  0  0  0  0  0  0  0  0
   63.1860   31.1140   48.5970 H   0  0  0  0  0  0  0  0  0  0  0  0
   65.2936   31.2682   49.7522 H   0  0  0  0  0  0  0  0  0  0  0  0
   64.8990   32.8193   50.6522 H   0  0  0  0  0  0  0  0  0  0  0  0
   65.0096   31.3819   52.7233 H   0  0  0  0  0  0  0  0  0  0  0  0
   66.9940   32.8440   51.3830 H   0  0  0  0  0  0  0  0  0  0  0  0
   68.6584   31.4277   51.0162 H   0  0  0  0  0  0  0  0  0  0  0  0
   68.7708   31.2259   52.7716 H   0  0  0  0  0  0  0  0  0  0  0  0
   69.3016   28.5588   51.6793 H   0  0  0  0  0  0  0  0  0  0  0  0
   67.9660   26.4365   51.4613 H   0  0  0  0  0  0  0  0  0  0  0  0
   65.4620   26.5276   51.4528 H   0  0  0  0  0  0  0  0  0  0  0  0
   64.2863   28.7440   51.6506 H   0  0  0  0  0  0  0  0  0  0  0  0
   61.2034   28.0450   46.6502 H   0  0  0  0  0  0  0  0  0  0  0  0
   61.4175   27.5884   48.3878 H   0  0  0  0  0  0  0  0  0  0  0  0
   60.1590   25.9053   46.8967 H   0  0  0  0  0  0  0  0  0  0  0  0
   59.3640   26.3869   48.4369 H   0  0  0  0  0  0  0  0  0  0  0  0
  1  2  1  0
  2  3  1  0
  3  4  1  0
  4  5  1  0
  3  6  1  0
  6  7  1  0
  7  8  2  0
  8  9  1  0
  9 10  2  0
 10 11  1  0
 11 12  2  0
 12 13  1  0
 13 14  1  0
 14 15  1  0
 15 16  1  0
 16 17  1  0
 17 18  2  0
 17 19  1  0
 19 20  1  0
 20 21  1  0
 21 22  2  0
 22 23  1  0
 23 24  2  0
 24 25  1  0
 24 26  1  0
 26 27  2  0
 19 28  1  0
 28 29  1  0
 29 30  2  0
 29 31  1  0
 31 32  1  0
 32 33  1  0
 33 34  1  0
 34 35  1  0
 35 36  2  0
 36 37  1  0
 37 38  2  0
 38 39  1  0
 39 40  2  0
 16 41  1  0
 41 42  1  0
 12  7  1  0
 42 13  1  0
 27 21  1  0
 40 32  1  0
 40 35  1  0
  1 43  1  0
  1 44  1  0
  1 45  1  0
  2 46  1  0
  2 47  1  0
  4 48  1  0
  4 49  1  0
  5 50  1  0
  5 51  1  0
  5 52  1  0
  6 53  1  0
  6 54  1  0
  8 55  1  0
  9 56  1  0
 10 57  1  0
 11 58  1  0
 14 59  1  0
 14 60  1  0
 15 61  1  0
 15 62  1  0
 19 63  1  1
 20 64  1  0
 20 65  1  0
 22 66  1  0
 23 67  1  0
 26 68  1  0
 27 69  1  0
 28 70  1  0
 31 71  1  0
 31 72  1  0
 32 73  1  1
 33 74  1  0
 34 75  1  0
 34 76  1  0
 36 77  1  0
 37 78  1  0
 38 79  1  0
 39 80  1  0
 41 81  1  0
 41 82  1  0
 42 83  1  0
 42 84  1  0
M  END
>  <UniqueID>  (49) 
46

>  <SMILES>  (49) 
CCN(CC)Cc1ccccc1N1CCN(C(=O)[C@H](Cc2ccc(Cl)cc2)NC(=O)C[C@@H]2NCc3ccccc32)CC1

>  <Energy>  (49) 
103.93595278723531

>  <Genealogy>  (49) 
CCN(CC)Cc1ccccc1N1CCN(C(=O)[C@H](Cc2ccc(Cl)cc2)NC(=O)C[C@@H]2NCc3ccccc32)CC1 (chirality)
CCN(CC)Cc1ccccc1N1CCN(C(=O)[C@H](Cc2ccc(Cl)cc2)NC(=O)C[C@@H]2NCc3ccccc32)CC1 (3D coordinates assigned)
CCN(CC)Cc1ccccc1N1CCN(C(=O)[C@H](Cc2ccc(Cl)cc2)NC(=O)C[C@@H]2NCc3ccccc32)CC1 (nonaromatic ring conformer: 103.93595278723531 kcal/mol)

>  <smiles>  (49) 
CCN(CC)Cc1ccccc1N1CCN(C(=O)C(Cc2ccc(Cl)cc2)NC(=O)CC2NCc3ccccc32)CC1

>  <score_type>  (49) 
oracle

>  <origin>  (49) 
adg

>  <m_score__min__energy>  (49) 
-9.9399999999999995

>  <m_primary>  (49) 
energy

$$$$
49:0
     RDKit          3D

 26 27  0  0  0  0  0  0  0  0999 V2000
   56.6880   26.6050   46.0080 C   0  0  0  0  0  0  0  0  0  0  0  0
   55.9450   27.7560   45.6210 O   0  0  0  0  0  0  0  0  0  0  0  0
   56.5170   28.9460   45.1470 C   0  0  0  0  0  0  0  0  0  0  0  0
   55.8650   29.6350   44.1190 C   0  0  0  0  0  0  0  0  0  0  0  0
   56.3960   30.8250   43.6130 C   0  0  0  0  0  0  0  0  0  0  0  0
   57.5860   31.3420   44.1380 C   0  0  0  0  0  0  0  0  0  0  0  0
   58.2670   32.8710   43.4940 S   0  0  0  0  0  0  0  0  0  0  0  0
   57.7310   33.8170   44.9200 C   0  0  0  0  0  0  0  0  0  0  0  0
   56.6460   34.4540   44.8580 O   0  0  0  0  0  0  0  0  0  0  0  0
   58.5340   33.8590   46.1510 C   0  0  0  0  0  0  0  0  0  0  0  0
   59.7040   34.5820   46.3530 C   0  0  0  0  0  0  0  0  0  0  0  0
   60.2400   34.4200   47.6370 C   0  0  0  0  0  0  0  0  0  0  0  0
   59.5000   33.5720   48.4490 C   0  0  0  0  0  0  0  0  0  0  0  0
   58.1780   33.0220   47.5670 S   0  0  0  0  0  0  0  0  0  0  0  0
   58.2490   30.6560   45.1610 C   0  0  0  0  0  0  0  0  0  0  0  0
   57.7200   29.4650   45.6690 C   0  0  0  0  0  0  0  0  0  0  0  0
   56.7265   26.5454   47.1057 H   0  0  0  0  0  0  0  0  0  0  0  0
   56.2012   25.7030   45.6087 H   0  0  0  0  0  0  0  0  0  0  0  0
   57.7104   26.6772   45.6087 H   0  0  0  0  0  0  0  0  0  0  0  0
   54.9266   29.2371   43.7053 H   0  0  0  0  0  0  0  0  0  0  0  0
   55.8778   31.3560   42.8009 H   0  0  0  0  0  0  0  0  0  0  0  0
   60.1630   35.2178   45.5816 H   0  0  0  0  0  0  0  0  0  0  0  0
   61.1619   34.9187   47.9707 H   0  0  0  0  0  0  0  0  0  0  0  0
   59.7372   33.3057   49.4896 H   0  0  0  0  0  0  0  0  0  0  0  0
   59.1901   31.0548   45.5676 H   0  0  0  0  0  0  0  0  0  0  0  0
   58.2431   28.9323   46.4769 H   0  0  0  0  0  0  0  0  0  0  0  0
  1  2  1  0
  2  3  1  0
  3  4  2  0
  4  5  1  0
  5  6  2  0
  6  7  1  0
  7  8  1  0
  8  9  2  0
  8 10  1  0
 10 11  2  0
 11 12  1  0
 12 13  2  0
 13 14  1  0
  6 15  1  0
 15 16  2  0
 16  3  1  0
 14 10  1  0
  1 17  1  0
  1 18  1  0
  1 19  1  0
  4 20  1  0
  5 21  1  0
 11 22  1  0
 12 23  1  0
 13 24  1  0
 15 25  1  0
 16 26  1  0
M  END
>  <UniqueID>  (50) 
47

>  <SMILES>  (50) 
COc1ccc(SC(=O)c2cccs2)cc1

>  <Energy>  (50) 
46.64492038672213

>  <Genealogy>  (50) 
COc1ccc(SC(=O)c2cccs2)cc1 (3D coordinates assigned)
COc1ccc(SC(=O)c2cccs2)cc1 (optimized conformer: 46.64492038672213 kcal/mol)

>  <smiles>  (50) 
COc1ccc(SC(=O)c2cccs2)cc1

>  <score_type>  (50) 
oracle

>  <origin>  (50) 
adg

>  <m_score__min__energy>  (50) 
-6.46

>  <m_primary>  (50) 
energy

$$$$
50:0
     RDKit          3D

 41 43  0  0  0  0  0  0  0  0999 V2000
   56.7168   20.7406   43.8428 H   0  0  0  0  0  0  0  0  0  0  0  0
   56.5090   21.6900   44.3580 C   0  0  0  0  0  0  0  0  0  0  0  0
   56.1530   22.8220   43.6200 C   0  0  0  0  0  0  0  0  0  0  0  0
   56.0717   22.7604   42.5247 H   0  0  0  0  0  0  0  0  0  0  0  0
   55.9000   24.0330   44.2720 C   0  0  0  0  0  0  0  0  0  0  0  0
   55.6031   24.9176   43.6894 H   0  0  0  0  0  0  0  0  0  0  0  0
   56.0240   24.1240   45.6720 C   0  0  0  0  0  0  0  0  0  0  0  0
   55.7470   25.3460   46.3760 N   0  0  0  0  0  0  0  0  0  0  0  0
   56.4240   26.4540   46.3010 C   0  0  0  0  0  0  0  0  0  0  0  0
   55.9060   27.5010   45.6120 N   0  0  0  0  0  0  0  0  0  0  0  0
   56.5760   28.6830   45.5410 C   0  0  0  0  0  0  0  0  0  0  0  0
   56.0830   29.7020   44.9000 N   0  0  0  0  0  0  0  0  0  0  0  0
   56.8120   30.8200   44.3630 C   0  0  0  0  0  0  0  0  0  0  0  0
   57.4010   31.7290   45.2540 C   0  0  0  0  0  0  0  0  0  0  0  0
   57.2777   31.5899   46.3382 H   0  0  0  0  0  0  0  0  0  0  0  0
   58.1440   32.8110   44.7720 C   0  0  0  0  0  0  0  0  0  0  0  0
   58.5888   33.5292   45.4765 H   0  0  0  0  0  0  0  0  0  0  0  0
   58.3220   32.9810   43.3980 C   0  0  0  0  0  0  0  0  0  0  0  0
   58.8997   33.8376   43.0205 H   0  0  0  0  0  0  0  0  0  0  0  0
   57.7670   32.0640   42.5020 C   0  0  0  0  0  0  0  0  0  0  0  0
   57.9630   32.2160   41.1690 F   0  0  0  0  0  0  0  0  0  0  0  0
   57.0220   30.9800   42.9800 C   0  0  0  0  0  0  0  0  0  0  0  0
   56.5993   30.2508   42.2732 H   0  0  0  0  0  0  0  0  0  0  0  0
   57.7590   28.8200   46.1920 N   0  0  0  0  0  0  0  0  0  0  0  0
   58.2850   27.7820   46.8900 C   0  0  0  0  0  0  0  0  0  0  0  0
   59.4150   27.9420   47.5120 N   0  0  0  0  0  0  0  0  0  0  0  0
   60.1620   29.2000   47.5960 C   0  0  0  0  0  0  0  0  0  0  0  0
   61.0801   29.0476   48.1823 H   0  0  0  0  0  0  0  0  0  0  0  0
   59.2930   30.2510   48.2830 C   0  0  0  0  0  0  0  0  0  0  0  0
   59.3817   30.1438   49.3742 H   0  0  0  0  0  0  0  0  0  0  0  0
   59.6279   31.2555   47.9849 H   0  0  0  0  0  0  0  0  0  0  0  0
   58.2435   30.1108   47.9849 H   0  0  0  0  0  0  0  0  0  0  0  0
   60.5590   29.6690   46.1930 C   0  0  0  0  0  0  0  0  0  0  0  0
   61.2678   30.5064   46.2732 H   0  0  0  0  0  0  0  0  0  0  0  0
   61.0327   28.8385   45.6491 H   0  0  0  0  0  0  0  0  0  0  0  0
   59.6616   29.9990   45.6491 H   0  0  0  0  0  0  0  0  0  0  0  0
   57.6150   26.6010   46.9430 N   0  0  0  0  0  0  0  0  0  0  0  0
   56.3500   22.9740   46.4070 C   0  0  0  0  0  0  0  0  0  0  0  0
   56.4390   23.0330   47.7600 F   0  0  0  0  0  0  0  0  0  0  0  0
   56.6010   21.7640   45.7500 C   0  0  0  0  0  0  0  0  0  0  0  0
   56.8712   20.8697   46.3307 H   0  0  0  0  0  0  0  0  0  0  0  0
  1  2  1  0
  2  3  2  0
  3  4  1  0
  3  5  1  0
  5  6  1  0
  5  7  2  0
  7  8  1  0
  8  9  2  3
  9 10  1  0
 10 11  1  0
 11 12  2  0
 12 13  1  0
 13 14  2  0
 14 15  1  0
 14 16  1  0
 16 17  1  0
 16 18  2  0
 18 19  1  0
 18 20  1  0
 20 21  1  0
 20 22  2  0
 22 23  1  0
 11 24  1  0
 24 25  1  0
 25 26  2  0
 26 27  1  0
 27 28  1  0
 27 29  1  0
 29 30  1  0
 29 31  1  0
 29 32  1  0
 27 33  1  0
 33 34  1  0
 33 35  1  0
 33 36  1  0
 25 37  1  0
  7 38  1  0
 38 39  1  0
 38 40  2  0
 40 41  1  0
 40  2  1  0
 37  9  1  0
 22 13  1  0
M  CHG  3  10  -1  24  -1  37  -1
M  END
>  <UniqueID>  (51) 
48

>  <SMILES>  (51) 
CC(C)/N=c1\[n-]c(=Nc2ccccc2F)[n-]/c(=N\c2cccc(F)c2)[n-]1

>  <Energy>  (51) 
51.46799243449545

>  <Genealogy>  (51) 
CC(C)N=c1[n-]c(=Nc2cccc(F)c2)[n-]c(=Nc2ccccc2F)[n-]1 (protonated)
CC(C)/N=c1\[n-]c(=Nc2ccccc2F)[n-]/c(=N\c2cccc(F)c2)[n-]1 (cis-trans isomerization)
CC(C)/N=c1\[n-]c(=Nc2ccccc2F)[n-]/c(=N\c2cccc(F)c2)[n-]1 (3D coordinates assigned)
CC(C)/N=c1\[n-]c(=Nc2ccccc2F)[n-]/c(=N\c2cccc(F)c2)[n-]1 (optimized conformer: 51.46799243449545 kcal/mol)

>  <smiles>  (51) 
CC(C)N=c1[nH]c(=Nc2cccc(F)c2)[nH]c(=Nc2ccccc2F)[nH]1

>  <score_type>  (51) 
oracle

>  <origin>  (51) 
adg

>  <m_score__min__energy>  (51) 
-12.140000000000001

>  <m_primary>  (51) 
energy

$$$$
51:0
     RDKit          3D

 45 48  0  0  0  0  0  0  0  0999 V2000
   66.7850   33.6030   51.3770 C   0  0  0  0  0  0  0  0  0  0  0  0
   65.4300   33.5480   50.7370 C   0  0  0  0  0  0  0  0  0  0  0  0
   65.2480   32.8670   49.5260 C   0  0  0  0  0  0  0  0  0  0  0  0
   63.9940   32.8450   48.9090 C   0  0  0  0  0  0  0  0  0  0  0  0
   62.8990   33.5110   49.4910 C   0  0  0  0  0  0  0  0  0  0  0  0
   61.5730   33.4900   48.8270 C   0  0  0  0  0  0  0  0  0  0  0  0
   60.5430   33.7920   49.4890 O   0  0  0  0  0  0  0  0  0  0  0  0
   61.4540   33.1770   47.4290 N   0  0  0  0  0  0  0  0  0  0  0  0
   60.2300   32.7470   46.8100 C   0  0  0  0  0  0  0  0  0  0  0  0
   59.7190   31.4520   47.0160 C   0  0  0  0  0  0  0  0  0  0  0  0
   58.5370   31.0510   46.3880 C   0  0  0  0  0  0  0  0  0  0  0  0
   57.8420   31.9400   45.5510 C   0  0  0  0  0  0  0  0  0  0  0  0
   56.6350   31.5500   44.8800 N   0  0  0  0  0  0  0  0  0  0  0  0
   56.4420   30.3480   44.1240 C   0  0  0  0  0  0  0  0  0  0  0  0
   55.8880   30.4220   42.9950 O   0  0  0  0  0  0  0  0  0  0  0  0
   56.8060   29.0260   44.6640 C   0  0  0  0  0  0  0  0  0  0  0  0
   58.0760   28.4540   44.6090 C   0  0  0  0  0  0  0  0  0  0  0  0
   57.9270   27.2350   45.2300 C   0  0  0  0  0  0  0  0  0  0  0  0
   58.8470   26.2200   45.4820 C   0  0  0  0  0  0  0  0  0  0  0  0
   58.3840   25.0700   46.1500 C   0  0  0  0  0  0  0  0  0  0  0  0
   57.0300   24.9670   46.5440 C   0  0  0  0  0  0  0  0  0  0  0  0
   56.1280   26.0120   46.2730 C   0  0  0  0  0  0  0  0  0  0  0  0
   56.6160   27.1360   45.6100 C   0  0  0  0  0  0  0  0  0  0  0  0
   55.9540   28.2120   45.2630 O   0  0  0  0  0  0  0  0  0  0  0  0
   58.3760   33.2090   45.3060 C   0  0  0  0  0  0  0  0  0  0  0  0
   59.5590   33.6110   45.9310 C   0  0  0  0  0  0  0  0  0  0  0  0
   63.0950   34.2160   50.6930 C   0  0  0  0  0  0  0  0  0  0  0  0
   64.3500   34.2360   51.3070 C   0  0  0  0  0  0  0  0  0  0  0  0
   66.6741   33.5985   52.4714 H   0  0  0  0  0  0  0  0  0  0  0  0
   67.3739   32.7280   51.0645 H   0  0  0  0  0  0  0  0  0  0  0  0
   67.3010   34.5228   51.0645 H   0  0  0  0  0  0  0  0  0  0  0  0
   66.0968   32.3467   49.0582 H   0  0  0  0  0  0  0  0  0  0  0  0
   63.8618   32.3029   47.9610 H   0  0  0  0  0  0  0  0  0  0  0  0
   62.2680   33.3840   46.8080 H   0  0  0  0  0  0  0  0  0  0  0  0
   60.2531   30.7517   47.6750 H   0  0  0  0  0  0  0  0  0  0  0  0
   58.1488   30.0346   46.5497 H   0  0  0  0  0  0  0  0  0  0  0  0
   58.9897   28.8802   44.1691 H   0  0  0  0  0  0  0  0  0  0  0  0
   59.8978   26.3134   45.1703 H   0  0  0  0  0  0  0  0  0  0  0  0
   59.0803   24.2464   46.3667 H   0  0  0  0  0  0  0  0  0  0  0  0
   56.6797   24.0641   47.0657 H   0  0  0  0  0  0  0  0  0  0  0  0
   55.0723   25.9439   46.5746 H   0  0  0  0  0  0  0  0  0  0  0  0
   57.8614   33.8949   44.6170 H   0  0  0  0  0  0  0  0  0  0  0  0
   59.9678   34.6128   45.7325 H   0  0  0  0  0  0  0  0  0  0  0  0
   62.2538   34.7555   51.1527 H   0  0  0  0  0  0  0  0  0  0  0  0
   64.4913   34.7952   52.2436 H   0  0  0  0  0  0  0  0  0  0  0  0
  1  2  1  0
  2  3  2  0
  3  4  1  0
  4  5  2  0
  5  6  1  0
  6  7  2  0
  6  8  1  0
  8  9  1  0
  9 10  2  0
 10 11  1  0
 11 12  2  0
 12 13  1  0
 13 14  1  0
 14 15  2  0
 14 16  1  0
 16 17  2  0
 17 18  1  0
 18 19  2  0
 19 20  1  0
 20 21  2  0
 21 22  1  0
 22 23  2  0
 23 24  1  0
 12 25  1  0
 25 26  2  0
  5 27  1  0
 27 28  2  0
 28  2  1  0
 26  9  1  0
 24 16  1  0
 23 18  1  0
  1 29  1  0
  1 30  1  0
  1 31  1  0
  3 32  1  0
  4 33  1  0
  8 34  1  0
 10 35  1  0
 11 36  1  0
 17 37  1  0
 19 38  1  0
 20 39  1  0
 21 40  1  0
 22 41  1  0
 25 42  1  0
 26 43  1  0
 27 44  1  0
 28 45  1  0
M  CHG  1  13  -1
M  END
>  <UniqueID>  (52) 
49

>  <SMILES>  (52) 
Cc1ccc(C(=O)Nc2ccc([N-]C(=O)c3cc4ccccc4o3)cc2)cc1

>  <Energy>  (52) 
92.13797389531028

>  <Genealogy>  (52) 
Cc1ccc(C(=O)Nc2ccc([N-]C(=O)c3cc4ccccc4o3)cc2)cc1 (protonated)
Cc1ccc(C(=O)Nc2ccc([N-]C(=O)c3cc4ccccc4o3)cc2)cc1 (3D coordinates assigned)
Cc1ccc(C(=O)Nc2ccc([N-]C(=O)c3cc4ccccc4o3)cc2)cc1 (optimized conformer: 92.13797389531028 kcal/mol)

>  <smiles>  (52) 
Cc1ccc(C(=O)Nc2ccc(NC(=O)c3cc4ccccc4o3)cc2)cc1

>  <score_type>  (52) 
oracle

>  <origin>  (52) 
adg

>  <m_score__min__energy>  (52) 
-9.8800000000000008

>  <m_primary>  (52) 
energy

$$$$
52:0
     RDKit          3D

 47 50  0  0  0  0  0  0  0  0999 V2000
   58.8660   29.1460   45.9690 C   0  0  0  0  0  0  0  0  0  0  0  0
   58.5060   29.4920   47.2600 C   0  0  0  0  0  0  0  0  0  0  0  0
   59.4680   30.0030   48.1070 C   0  0  0  0  0  0  0  0  0  0  0  0
   60.7810   30.1930   47.7410 C   0  0  0  0  0  0  0  0  0  0  0  0
   61.8180   30.7450   48.6490 C   0  0  0  0  0  0  0  0  0  0  0  0
   61.8690   32.2540   48.5570 C   0  0  0  0  0  0  0  0  0  0  0  0
   61.7910   32.6750   47.1120 C   0  0  0  0  0  0  0  0  0  0  0  0
   61.5080   34.1530   46.9660 C   0  0  0  0  0  0  0  0  0  0  0  0
   60.3730   34.5700   47.7620 N   0  0  0  0  0  0  0  0  0  0  0  0
   59.4270   35.3060   46.9430 C   0  0  0  0  0  0  0  0  0  0  0  0
   58.9250   34.3800   45.8960 C   0  0  0  0  0  0  0  0  0  0  0  0
   59.1300   34.3360   44.5310 C   0  0  0  0  0  0  0  0  0  0  0  0
   58.5100   33.3480   43.8620 C   0  0  0  0  0  0  0  0  0  0  0  0
   57.7420   32.4750   44.5320 C   0  0  0  0  0  0  0  0  0  0  0  0
   56.9860   31.3340   43.9890 C   0  0  0  0  0  0  0  0  0  0  0  0
   56.9540   30.8650   42.6920 C   0  0  0  0  0  0  0  0  0  0  0  0
   56.1210   29.8050   42.6910 N   0  0  0  0  0  0  0  0  0  0  0  0
   55.6320   29.5940   43.9360 C   0  0  0  0  0  0  0  0  0  0  0  0
   56.1800   30.5560   44.7350 N   0  0  0  0  0  0  0  0  0  0  0  0
   57.8100   32.9620   46.2210 S   0  0  0  0  0  0  0  0  0  0  0  0
   59.7760   33.5070   48.5070 C   0  0  0  0  0  0  0  0  0  0  0  0
   60.8300   32.9030   49.4080 C   0  0  0  0  0  0  0  0  0  0  0  0
   61.1420   29.8460   46.4480 C   0  0  0  0  0  0  0  0  0  0  0  0
   60.1850   29.3350   45.5990 C   0  0  0  0  0  0  0  0  0  0  0  0
   58.1294   28.7354   45.2627 H   0  0  0  0  0  0  0  0  0  0  0  0
   57.4697   29.3617   47.6052 H   0  0  0  0  0  0  0  0  0  0  0  0
   59.1691   30.2732   49.1306 H   0  0  0  0  0  0  0  0  0  0  0  0
   61.5820   30.4551   49.6835 H   0  0  0  0  0  0  0  0  0  0  0  0
   62.7969   30.3417   48.3505 H   0  0  0  0  0  0  0  0  0  0  0  0
   62.8314   32.6024   48.9600 H   0  0  0  0  0  0  0  0  0  0  0  0
   62.7500   32.4473   46.6237 H   0  0  0  0  0  0  0  0  0  0  0  0
   60.9637   32.1231   46.6420 H   0  0  0  0  0  0  0  0  0  0  0  0
   62.3949   34.7178   47.2891 H   0  0  0  0  0  0  0  0  0  0  0  0
   61.2727   34.3508   45.9098 H   0  0  0  0  0  0  0  0  0  0  0  0
   58.5903   35.6605   47.5629 H   0  0  0  0  0  0  0  0  0  0  0  0
   59.9110   36.1813   46.4852 H   0  0  0  0  0  0  0  0  0  0  0  0
   59.7674   35.0710   44.0177 H   0  0  0  0  0  0  0  0  0  0  0  0
   58.6315   33.2560   42.7726 H   0  0  0  0  0  0  0  0  0  0  0  0
   57.5000   31.2748   41.8295 H   0  0  0  0  0  0  0  0  0  0  0  0
   55.8930   29.2310   41.8350 H   0  0  0  0  0  0  0  0  0  0  0  0
   54.9314   28.8035   44.2431 H   0  0  0  0  0  0  0  0  0  0  0  0
   58.9480   33.8995   49.1155 H   0  0  0  0  0  0  0  0  0  0  0  0
   59.3811   32.7418   47.8225 H   0  0  0  0  0  0  0  0  0  0  0  0
   61.2918   33.6925   50.0191 H   0  0  0  0  0  0  0  0  0  0  0  0
   60.3718   32.1580   50.0751 H   0  0  0  0  0  0  0  0  0  0  0  0
   62.1788   29.9770   46.1047 H   0  0  0  0  0  0  0  0  0  0  0  0
   60.4849   29.0638   44.5760 H   0  0  0  0  0  0  0  0  0  0  0  0
  1  2  2  0
  2  3  1  0
  3  4  2  0
  4  5  1  0
  5  6  1  0
  6  7  1  0
  7  8  1  0
  8  9  1  0
  9 10  1  0
 10 11  1  0
 11 12  2  0
 12 13  1  0
 13 14  2  0
 14 15  1  0
 15 16  2  0
 16 17  1  0
 17 18  1  0
 18 19  2  0
 14 20  1  0
  9 21  1  0
 21 22  1  0
  4 23  1  0
 23 24  2  0
 24  1  1  0
 22  6  1  0
 20 11  1  0
 19 15  1  0
  1 25  1  0
  2 26  1  0
  3 27  1  0
  5 28  1  0
  5 29  1  0
  6 30  1  0
  7 31  1  0
  7 32  1  0
  8 33  1  0
  8 34  1  0
 10 35  1  0
 10 36  1  0
 12 37  1  0
 13 38  1  0
 16 39  1  0
 17 40  1  0
 18 41  1  0
 21 42  1  0
 21 43  1  0
 22 44  1  0
 22 45  1  0
 23 46  1  0
 24 47  1  0
M  END
>  <smiles>  (53) 
c1ccc(CC2CCN(Cc3ccc(-c4c[nH]cn4)s3)CC2)cc1

>  <score_type>  (53) 
oracle

>  <origin>  (53) 
adg

>  <m_score__min__energy>  (53) 
-8.5

>  <m_primary>  (53) 
energy

$$$$
53:0
     RDKit          3D

 40 42  0  0  0  0  0  0  0  0999 V2000
   55.1300   25.3190   45.6520 C   0  0  0  0  0  0  0  0  0  0  0  0
   55.7690   26.5600   45.9310 O   0  0  0  0  0  0  0  0  0  0  0  0
   57.1580   26.7330   46.0520 C   0  0  0  0  0  0  0  0  0  0  0  0
   57.8980   26.0900   47.0640 C   0  0  0  0  0  0  0  0  0  0  0  0
   59.2800   26.2690   47.1520 C   0  0  0  0  0  0  0  0  0  0  0  0
   59.9370   27.0910   46.2390 C   0  0  0  0  0  0  0  0  0  0  0  0
   59.2170   27.7370   45.2330 C   0  0  0  0  0  0  0  0  0  0  0  0
   57.8250   27.5610   45.1240 C   0  0  0  0  0  0  0  0  0  0  0  0
   57.0780   28.2120   44.0800 N   0  0  0  0  0  0  0  0  0  0  0  0
   56.5030   29.8450   44.2060 S   0  0  0  0  0  0  0  0  0  0  0  0
   56.3980   30.4410   42.8300 O   0  0  0  0  0  0  0  0  0  0  0  0
   55.1430   29.8390   44.8450 O   0  0  0  0  0  0  0  0  0  0  0  0
   57.6310   30.8100   45.1540 C   0  0  0  0  0  0  0  0  0  0  0  0
   58.0460   32.0640   44.7000 C   0  0  0  0  0  0  0  0  0  0  0  0
   58.9230   32.8340   45.4630 C   0  0  0  0  0  0  0  0  0  0  0  0
   59.4010   32.3660   46.7020 C   0  0  0  0  0  0  0  0  0  0  0  0
   60.3090   33.1760   47.4770 N   0  0  0  0  0  0  0  0  0  0  0  0
   60.0340   33.9510   48.5420 C   0  0  0  0  0  0  0  0  0  0  0  0
   61.1590   34.5530   48.9700 N   0  0  0  0  0  0  0  0  0  0  0  0
   62.1140   34.1350   48.1510 N   0  0  0  0  0  0  0  0  0  0  0  0
   61.6050   33.3070   47.2510 N   0  0  0  0  0  0  0  0  0  0  0  0
   58.9830   31.0980   47.1660 C   0  0  0  0  0  0  0  0  0  0  0  0
   59.4330   30.6410   48.4160 O   0  0  0  0  0  0  0  0  0  0  0  0
   60.7560   30.1830   48.6850 C   0  0  0  0  0  0  0  0  0  0  0  0
   58.1100   30.3240   46.3750 C   0  0  0  0  0  0  0  0  0  0  0  0
   54.8723   24.8186   46.5971 H   0  0  0  0  0  0  0  0  0  0  0  0
   54.2134   25.5008   45.0716 H   0  0  0  0  0  0  0  0  0  0  0  0
   55.8104   24.6785   45.0716 H   0  0  0  0  0  0  0  0  0  0  0  0
   57.3836   25.4427   47.7895 H   0  0  0  0  0  0  0  0  0  0  0  0
   59.8506   25.7604   47.9431 H   0  0  0  0  0  0  0  0  0  0  0  0
   61.0256   27.2312   46.3112 H   0  0  0  0  0  0  0  0  0  0  0  0
   59.7419   28.3891   44.5194 H   0  0  0  0  0  0  0  0  0  0  0  0
   56.9930   27.7560   43.1450 H   0  0  0  0  0  0  0  0  0  0  0  0
   57.6792   32.4460   43.7359 H   0  0  0  0  0  0  0  0  0  0  0  0
   59.2452   33.8184   45.0927 H   0  0  0  0  0  0  0  0  0  0  0  0
   59.0391   34.0740   48.9948 H   0  0  0  0  0  0  0  0  0  0  0  0
   60.9113   30.1292   49.7726 H   0  0  0  0  0  0  0  0  0  0  0  0
   60.8949   29.1845   48.2450 H   0  0  0  0  0  0  0  0  0  0  0  0
   61.4825   30.8819   48.2450 H   0  0  0  0  0  0  0  0  0  0  0  0
   57.8020   29.3266   46.7218 H   0  0  0  0  0  0  0  0  0  0  0  0
  1  2  1  0
  2  3  1  0
  3  4  2  0
  4  5  1  0
  5  6  2  0
  6  7  1  0
  7  8  2  0
  8  9  1  0
  9 10  1  0
 10 11  2  0
 10 12  2  0
 10 13  1  0
 13 14  2  0
 14 15  1  0
 15 16  2  0
 16 17  1  0
 17 18  1  0
 18 19  2  0
 19 20  1  0
 20 21  2  0
 16 22  1  0
 22 23  1  0
 23 24  1  0
 22 25  2  0
  8  3  1  0
 25 13  1  0
 21 17  1  0
  1 26  1  0
  1 27  1  0
  1 28  1  0
  4 29  1  0
  5 30  1  0
  6 31  1  0
  7 32  1  0
  9 33  1  0
 14 34  1  0
 15 35  1  0
 18 36  1  0
 24 37  1  0
 24 38  1  0
 24 39  1  0
 25 40  1  0
M  END
>  <UniqueID>  (54) 
50

>  <SMILES>  (54) 
COc1ccccc1NS(=O)(=O)c1ccc(-n2cnnn2)c(OC)c1

>  <Energy>  (54) 
87.61151414190023

>  <Genealogy>  (54) 
COc1ccccc1NS(=O)(=O)c1ccc(-n2cnnn2)c(OC)c1 (3D coordinates assigned)
COc1ccccc1NS(=O)(=O)c1ccc(-n2cnnn2)c(OC)c1 (optimized conformer: 87.61151414190023 kcal/mol)

>  <smiles>  (54) 
COc1ccccc1NS(=O)(=O)c1ccc(-n2cnnn2)c(OC)c1

>  <score_type>  (54) 
oracle

>  <origin>  (54) 
adg

>  <m_score__min__energy>  (54) 
-7.9199999999999999

>  <m_primary>  (54) 
energy

$$$$
54:0
     RDKit          3D

 56 57  0  0  0  0  0  0  0  0999 V2000
   58.7260   31.0150   46.5210 H   0  0  0  0  0  0  0  0  0  0  0  0
   57.9150   31.5560   46.3270 O   0  0  0  0  0  0  0  0  0  0  0  0
   58.3470   32.7160   45.6630 C   0  0  2  0  0  0  0  0  0  0  0  0
   59.4363   32.7040   45.5106 H   0  0  0  0  0  0  0  0  0  0  0  0
   57.9880   33.9390   46.5310 C   0  0  0  0  0  0  0  0  0  0  0  0
   57.4650   33.5909   47.4340 H   0  0  0  0  0  0  0  0  0  0  0  0
   57.3507   34.6038   45.9294 H   0  0  0  0  0  0  0  0  0  0  0  0
   59.2400   34.7420   46.9590 C   0  0  0  0  0  0  0  0  0  0  0  0
   59.0346   35.8124   46.8105 H   0  0  0  0  0  0  0  0  0  0  0  0
   60.0782   34.3883   46.3407 H   0  0  0  0  0  0  0  0  0  0  0  0
   59.6370   34.5220   48.4270 C   0  0  0  0  0  0  0  0  0  0  0  0
   59.1491   35.2930   49.0414 H   0  0  0  0  0  0  0  0  0  0  0  0
   60.7337   34.5847   48.4843 H   0  0  0  0  0  0  0  0  0  0  0  0
   59.2300   33.1500   48.9550 C   0  0  0  0  0  0  0  0  0  0  0  0
   59.2343   33.1644   50.0549 H   0  0  0  0  0  0  0  0  0  0  0  0
   58.2201   32.9036   48.5954 H   0  0  0  0  0  0  0  0  0  0  0  0
   59.9422   32.3927   48.5954 H   0  0  0  0  0  0  0  0  0  0  0  0
   57.6750   32.7830   44.2770 C   0  0  0  0  0  0  0  0  0  0  0  0
   56.5867   32.6907   44.4073 H   0  0  0  0  0  0  0  0  0  0  0  0
   57.9460   33.7458   43.8192 H   0  0  0  0  0  0  0  0  0  0  0  0
   58.1560   31.6660   43.3380 C   0  0  0  0  0  0  0  0  0  0  0  0
   58.9824   32.0466   42.7198 H   0  0  0  0  0  0  0  0  0  0  0  0
   58.4921   30.8150   43.9486 H   0  0  0  0  0  0  0  0  0  0  0  0
   57.0200   31.1920   42.4210 C   0  0  0  0  0  0  0  0  0  0  0  0
   56.2517   31.9782   42.3798 H   0  0  0  0  0  0  0  0  0  0  0  0
   57.4575   30.9928   41.4316 H   0  0  0  0  0  0  0  0  0  0  0  0
   56.3610   29.8870   42.9040 C   0  0  0  0  0  0  0  0  0  0  0  0
   55.4139   29.7566   42.3599 H   0  0  0  0  0  0  0  0  0  0  0  0
   57.0796   29.0777   42.7073 H   0  0  0  0  0  0  0  0  0  0  0  0
   56.0600   29.8550   44.4110 C   0  0  0  0  0  0  0  0  0  0  0  0
   56.3541   30.8203   44.8489 H   0  0  0  0  0  0  0  0  0  0  0  0
   54.9832   29.6646   44.5302 H   0  0  0  0  0  0  0  0  0  0  0  0
   56.8130   28.7330   45.1440 C   0  0  0  0  0  0  0  0  0  0  0  0
   57.1475   29.1056   46.1234 H   0  0  0  0  0  0  0  0  0  0  0  0
   56.1316   27.8782   45.2667 H   0  0  0  0  0  0  0  0  0  0  0  0
   58.0120   28.2780   44.3560 C   0  0  0  0  0  0  0  0  0  0  0  0
   57.8305   27.6406   43.4781 H   0  0  0  0  0  0  0  0  0  0  0  0
   59.2850   28.5900   44.6420 C   0  0  0  0  0  0  0  0  0  0  0  0
   60.0337   28.4298   43.8522 H   0  0  0  0  0  0  0  0  0  0  0  0
   59.7630   29.1300   45.9280 C   0  0  0  0  0  0  0  0  0  0  0  0
   60.6290   30.1670   46.0040 N   0  0  0  0  0  0  0  0  0  0  0  0
   60.9830   30.4580   47.2870 C   0  0  0  0  0  0  0  0  0  0  0  0
   61.8940   31.5850   47.5980 C   0  0  0  0  0  0  0  0  0  0  0  0
   61.9410   32.7060   46.7480 C   0  0  0  0  0  0  0  0  0  0  0  0
   61.3262   32.7231   45.8360 H   0  0  0  0  0  0  0  0  0  0  0  0
   62.7610   33.7990   47.0500 C   0  0  0  0  0  0  0  0  0  0  0  0
   62.7839   34.6701   46.3787 H   0  0  0  0  0  0  0  0  0  0  0  0
   63.5490   33.7860   48.2000 C   0  0  0  0  0  0  0  0  0  0  0  0
   64.1895   34.6474   48.4402 H   0  0  0  0  0  0  0  0  0  0  0  0
   63.5220   32.6750   49.0460 C   0  0  0  0  0  0  0  0  0  0  0  0
   64.1500   32.6598   49.9490 H   0  0  0  0  0  0  0  0  0  0  0  0
   62.7020   31.5830   48.7520 C   0  0  0  0  0  0  0  0  0  0  0  0
   62.6871   30.7146   49.4270 H   0  0  0  0  0  0  0  0  0  0  0  0
   60.4160   29.6130   48.2480 C   0  0  0  0  0  0  0  0  0  0  0  0
   60.5783   29.6706   49.3344 H   0  0  0  0  0  0  0  0  0  0  0  0
   59.4440   28.4950   47.4540 S   0  0  0  0  0  0  0  0  0  0  0  0
  1  2  1  0
  2  3  1  0
  3  4  1  6
  3  5  1  0
  5  6  1  0
  5  7  1  0
  5  8  1  0
  8  9  1  0
  8 10  1  0
  8 11  1  0
 11 12  1  0
 11 13  1  0
 11 14  1  0
 14 15  1  0
 14 16  1  0
 14 17  1  0
  3 18  1  0
 18 19  1  0
 18 20  1  0
 18 21  1  0
 21 22  1  0
 21 23  1  0
 21 24  1  0
 24 25  1  0
 24 26  1  0
 24 27  1  0
 27 28  1  0
 27 29  1  0
 27 30  1  0
 30 31  1  0
 30 32  1  0
 30 33  1  0
 33 34  1  0
 33 35  1  0
 33 36  1  0
 36 37  1  0
 36 38  2  0
 38 39  1  0
 38 40  1  0
 40 41  2  0
 41 42  1  0
 42 43  1  0
 43 44  2  0
 44 45  1  0
 44 46  1  0
 46 47  1  0
 46 48  2  0
 48 49  1  0
 48 50  1  0
 50 51  1  0
 50 52  2  0
 52 53  1  0
 42 54  2  0
 54 55  1  0
 54 56  1  0
 56 40  1  0
 52 43  1  0
M  END
>  <UniqueID>  (55) 
51

>  <SMILES>  (55) 
CCCC[C@@H](O)CCCCCC/C=C\c1nc(-c2ccccc2)cs1

>  <Energy>  (55) 
70.96602431741483

>  <Genealogy>  (55) 
CCCC[C@@H](O)CCCCCCC=Cc1nc(-c2ccccc2)cs1 (chirality)
CCCC[C@@H](O)CCCCCC/C=C\c1nc(-c2ccccc2)cs1 (cis-trans isomerization)
CCCC[C@@H](O)CCCCCC/C=C\c1nc(-c2ccccc2)cs1 (3D coordinates assigned)
CCCC[C@@H](O)CCCCCC/C=C\c1nc(-c2ccccc2)cs1 (optimized conformer: 70.96602431741483 kcal/mol)

>  <smiles>  (55) 
CCCCC(O)CCCCCCC=Cc1nc(-c2ccccc2)cs1

>  <score_type>  (55) 
oracle

>  <origin>  (55) 
adg

>  <m_score__min__energy>  (55) 
-8.7400000000000002

>  <m_primary>  (55) 
energy

$$$$
55:0
     RDKit          3D

 46 48  0  0  0  0  0  0  0  0999 V2000
   63.3810   33.3220   48.4910 C   0  0  0  0  0  0  0  0  0  0  0  0
   62.0020   33.4880   48.8050 O   0  0  0  0  0  0  0  0  0  0  0  0
   60.9640   33.4340   47.8620 C   0  0  0  0  0  0  0  0  0  0  0  0
   60.2690   34.5820   47.4380 C   0  0  0  0  0  0  0  0  0  0  0  0
   59.2420   34.4750   46.4960 C   0  0  0  0  0  0  0  0  0  0  0  0
   58.8990   33.2260   45.9620 C   0  0  0  0  0  0  0  0  0  0  0  0
   57.5870   33.1010   44.7930 S   0  0  0  0  0  0  0  0  0  0  0  0
   56.6610   34.2730   44.9680 O   0  0  0  0  0  0  0  0  0  0  0  0
   58.1350   33.1340   43.3930 O   0  0  0  0  0  0  0  0  0  0  0  0
   56.6970   31.6290   45.0380 N   0  0  0  0  0  0  0  0  0  0  0  0
   56.9990   30.6810   43.9640 C   0  0  0  0  0  0  0  0  0  0  0  0
   57.5880   29.4290   44.5510 C   0  0  0  0  0  0  0  0  0  0  0  0
   58.9790   29.2680   44.6290 C   0  0  0  0  0  0  0  0  0  0  0  0
   59.5200   28.1230   45.2130 C   0  0  0  0  0  0  0  0  0  0  0  0
   58.6820   27.1370   45.7390 C   0  0  0  0  0  0  0  0  0  0  0  0
   57.2820   27.2840   45.6890 C   0  0  0  0  0  0  0  0  0  0  0  0
   56.4060   26.2320   46.2800 C   0  0  0  0  0  0  0  0  0  0  0  0
   55.1640   26.2700   46.0680 O   0  0  0  0  0  0  0  0  0  0  0  0
   56.9460   25.0920   47.1000 C   0  0  0  0  0  0  0  0  0  0  0  0
   57.3190   23.9360   46.2250 C   0  0  0  0  0  0  0  0  0  0  0  0
   57.3980   23.9570   44.8460 C   0  0  0  0  0  0  0  0  0  0  0  0
   57.7810   22.6860   44.4780 C   0  0  0  0  0  0  0  0  0  0  0  0
   57.9110   21.9700   45.6500 C   0  0  0  0  0  0  0  0  0  0  0  0
   57.6270   22.7410   46.6750 O   0  0  0  0  0  0  0  0  0  0  0  0
   56.7460   28.4410   45.0880 C   0  0  0  0  0  0  0  0  0  0  0  0
   59.5860   32.0810   46.3890 C   0  0  0  0  0  0  0  0  0  0  0  0
   60.6120   32.1870   47.3320 C   0  0  0  0  0  0  0  0  0  0  0  0
   63.9631   33.2519   49.4217 H   0  0  0  0  0  0  0  0  0  0  0  0
   63.5152   32.4012   47.9044 H   0  0  0  0  0  0  0  0  0  0  0  0
   63.7299   34.1846   47.9044 H   0  0  0  0  0  0  0  0  0  0  0  0
   60.5350   35.5669   47.8494 H   0  0  0  0  0  0  0  0  0  0  0  0
   58.7003   35.3760   46.1723 H   0  0  0  0  0  0  0  0  0  0  0  0
   57.0330   31.2180   45.9400 H   0  0  0  0  0  0  0  0  0  0  0  0
   56.0737   30.4324   43.4236 H   0  0  0  0  0  0  0  0  0  0  0  0
   57.7203   31.1337   43.2677 H   0  0  0  0  0  0  0  0  0  0  0  0
   59.6448   30.0467   44.2286 H   0  0  0  0  0  0  0  0  0  0  0  0
   60.6116   27.9957   45.2596 H   0  0  0  0  0  0  0  0  0  0  0  0
   59.1194   26.2374   46.1965 H   0  0  0  0  0  0  0  0  0  0  0  0
   57.8376   25.4322   47.6471 H   0  0  0  0  0  0  0  0  0  0  0  0
   56.1664   24.7640   47.8033 H   0  0  0  0  0  0  0  0  0  0  0  0
   57.1971   24.8100   44.1811 H   0  0  0  0  0  0  0  0  0  0  0  0
   57.9493   22.3165   43.4557 H   0  0  0  0  0  0  0  0  0  0  0  0
   58.2077   20.9129   45.7162 H   0  0  0  0  0  0  0  0  0  0  0  0
   55.6549   28.5718   45.0389 H   0  0  0  0  0  0  0  0  0  0  0  0
   59.3166   31.0959   45.9805 H   0  0  0  0  0  0  0  0  0  0  0  0
   61.1471   31.2837   47.6603 H   0  0  0  0  0  0  0  0  0  0  0  0
  1  2  1  0
  2  3  1  0
  3  4  2  0
  4  5  1  0
  5  6  2  0
  6  7  1  0
  7  8  2  0
  7  9  2  0
  7 10  1  0
 10 11  1  0
 11 12  1  0
 12 13  2  0
 13 14  1  0
 14 15  2  0
 15 16  1  0
 16 17  1  0
 17 18  2  0
 17 19  1  0
 19 20  1  0
 20 21  2  0
 21 22  1  0
 22 23  2  0
 23 24  1  0
 16 25  2  0
  6 26  1  0
 26 27  2  0
 27  3  1  0
 25 12  1  0
 24 20  1  0
  1 28  1  0
  1 29  1  0
  1 30  1  0
  4 31  1  0
  5 32  1  0
 10 33  1  0
 11 34  1  0
 11 35  1  0
 13 36  1  0
 14 37  1  0
 15 38  1  0
 19 39  1  0
 19 40  1  0
 21 41  1  0
 22 42  1  0
 23 43  1  0
 25 44  1  0
 26 45  1  0
 27 46  1  0
M  END
>  <UniqueID>  (56) 
52

>  <SMILES>  (56) 
COc1ccc(S(=O)(=O)NCc2cccc(C(=O)Cc3ccco3)c2)cc1

>  <Energy>  (56) 
69.8142614488993

>  <Genealogy>  (56) 
COc1ccc(S(=O)(=O)NCc2cccc(C(=O)Cc3ccco3)c2)cc1 (3D coordinates assigned)
COc1ccc(S(=O)(=O)NCc2cccc(C(=O)Cc3ccco3)c2)cc1 (optimized conformer: 69.8142614488993 kcal/mol)

>  <smiles>  (56) 
COc1ccc(S(=O)(=O)NCc2cccc(C(=O)Cc3ccco3)c2)cc1

>  <score_type>  (56) 
oracle

>  <origin>  (56) 
adg

>  <m_score__min__energy>  (56) 
-9.3200000000000003

>  <m_primary>  (56) 
energy

$$$$
56:0
     RDKit          3D

 47 50  0  0  0  0  0  0  0  0999 V2000
   59.6630   35.3810   46.0530 C   0  0  0  0  0  0  0  0  0  0  0  0
   59.2920   34.5490   44.9600 O   0  0  0  0  0  0  0  0  0  0  0  0
   58.0510   33.9050   44.8870 C   0  0  0  0  0  0  0  0  0  0  0  0
   56.9900   34.5870   44.8990 O   0  0  0  0  0  0  0  0  0  0  0  0
   58.0030   32.4220   44.7580 C   0  0  0  0  0  0  0  0  0  0  0  0
   57.3460   31.8960   43.6390 C   0  0  0  0  0  0  0  0  0  0  0  0
   57.2370   30.5230   43.4650 C   0  0  0  0  0  0  0  0  0  0  0  0
   56.6300   30.0790   42.4530 O   0  0  0  0  0  0  0  0  0  0  0  0
   57.8010   29.6540   44.4090 C   0  0  0  0  0  0  0  0  0  0  0  0
   57.7060   28.2570   44.2500 C   0  0  0  0  0  0  0  0  0  0  0  0
   58.2830   27.3850   45.1860 C   0  0  0  0  0  0  0  0  0  0  0  0
   58.1810   25.9130   45.0100 C   0  0  0  0  0  0  0  0  0  0  0  0
   57.3930   25.3680   43.9770 C   0  0  0  0  0  0  0  0  0  0  0  0
   57.3000   23.9830   43.8150 C   0  0  0  0  0  0  0  0  0  0  0  0
   57.9880   23.1270   44.6780 C   0  0  0  0  0  0  0  0  0  0  0  0
   58.7720   23.6560   45.7060 C   0  0  0  0  0  0  0  0  0  0  0  0
   58.8700   25.0400   45.8730 C   0  0  0  0  0  0  0  0  0  0  0  0
   58.9620   27.9220   46.2860 C   0  0  0  0  0  0  0  0  0  0  0  0
   59.0630   29.3030   46.4570 C   0  0  0  0  0  0  0  0  0  0  0  0
   58.4790   30.1980   45.5300 C   0  0  0  0  0  0  0  0  0  0  0  0
   58.5680   31.5700   45.6880 N   0  0  0  0  0  0  0  0  0  0  0  0
   59.3020   32.1160   46.8030 C   0  0  0  0  0  0  0  0  0  0  0  0
   58.6210   32.5530   47.9490 C   0  0  0  0  0  0  0  0  0  0  0  0
   59.3330   33.0900   49.0240 C   0  0  0  0  0  0  0  0  0  0  0  0
   60.7250   33.1910   48.9630 C   0  0  0  0  0  0  0  0  0  0  0  0
   61.4190   32.7400   47.8300 C   0  0  0  0  0  0  0  0  0  0  0  0
   62.9090   32.8860   47.7470 C   0  0  0  0  0  0  0  0  0  0  0  0
   60.7000   32.2160   46.7440 C   0  0  0  0  0  0  0  0  0  0  0  0
   59.4342   34.8678   46.9986 H   0  0  0  0  0  0  0  0  0  0  0  0
   60.7411   35.5934   46.0027 H   0  0  0  0  0  0  0  0  0  0  0  0
   59.1005   36.3250   46.0027 H   0  0  0  0  0  0  0  0  0  0  0  0
   56.9125   32.5765   42.8913 H   0  0  0  0  0  0  0  0  0  0  0  0
   57.1726   27.8446   43.3808 H   0  0  0  0  0  0  0  0  0  0  0  0
   56.8479   26.0364   43.2942 H   0  0  0  0  0  0  0  0  0  0  0  0
   56.6831   23.5658   43.0054 H   0  0  0  0  0  0  0  0  0  0  0  0
   57.9125   22.0373   44.5483 H   0  0  0  0  0  0  0  0  0  0  0  0
   59.3135   22.9816   46.3857 H   0  0  0  0  0  0  0  0  0  0  0  0
   59.4896   25.4499   46.6842 H   0  0  0  0  0  0  0  0  0  0  0  0
   59.4211   27.2476   47.0239 H   0  0  0  0  0  0  0  0  0  0  0  0
   59.6055   29.7023   47.3266 H   0  0  0  0  0  0  0  0  0  0  0  0
   57.5252   32.4727   48.0010 H   0  0  0  0  0  0  0  0  0  0  0  0
   58.7965   33.4341   49.9205 H   0  0  0  0  0  0  0  0  0  0  0  0
   61.2797   33.6262   49.8073 H   0  0  0  0  0  0  0  0  0  0  0  0
   63.3305   32.9273   48.7622 H   0  0  0  0  0  0  0  0  0  0  0  0
   63.3324   32.0250   47.2090 H   0  0  0  0  0  0  0  0  0  0  0  0
   63.1572   33.8128   47.2090 H   0  0  0  0  0  0  0  0  0  0  0  0
   61.2353   31.8823   45.8428 H   0  0  0  0  0  0  0  0  0  0  0  0
  1  2  1  0
  2  3  1  0
  3  4  2  0
  3  5  1  0
  5  6  2  0
  6  7  1  0
  7  8  2  0
  7  9  1  0
  9 10  2  0
 10 11  1  0
 11 12  1  0
 12 13  2  0
 13 14  1  0
 14 15  2  0
 15 16  1  0
 16 17  2  0
 11 18  2  0
 18 19  1  0
 19 20  2  0
 20 21  1  0
 21 22  1  0
 22 23  2  0
 23 24  1  0
 24 25  2  0
 25 26  1  0
 26 27  1  0
 26 28  2  0
 21  5  1  0
 28 22  1  0
 20  9  1  0
 17 12  1  0
  1 29  1  0
  1 30  1  0
  1 31  1  0
  6 32  1  0
 10 33  1  0
 13 34  1  0
 14 35  1  0
 15 36  1  0
 16 37  1  0
 17 38  1  0
 18 39  1  0
 19 40  1  0
 23 41  1  0
 24 42  1  0
 25 43  1  0
 27 44  1  0
 27 45  1  0
 27 46  1  0
 28 47  1  0
M  END
>  <UniqueID>  (57) 
53

>  <SMILES>  (57) 
COC(=O)c1cc(=O)c2cc(-c3ccccc3)ccc2n1-c1cccc(C)c1

>  <Energy>  (57) 
75.05583360818643

>  <Genealogy>  (57) 
COC(=O)c1cc(=O)c2cc(-c3ccccc3)ccc2n1-c1cccc(C)c1 (3D coordinates assigned)
COC(=O)c1cc(=O)c2cc(-c3ccccc3)ccc2n1-c1cccc(C)c1 (optimized conformer: 75.05583360818643 kcal/mol)

>  <smiles>  (57) 
COC(=O)c1cc(=O)c2cc(-c3ccccc3)ccc2n1-c1cccc(C)c1

>  <score_type>  (57) 
oracle

>  <origin>  (57) 
adg

>  <m_score__min__energy>  (57) 
-8.9199999999999999

>  <m_primary>  (57) 
energy

$$$$
57:0
     RDKit          3D

 20 21  0  0  0  0  0  0  0  0999 V2000
   56.1620   28.2830   44.0270 H   0  0  0  0  0  0  0  0  0  0  0  0
   55.9410   29.1900   44.4950 N   0  0  0  0  0  0  0  0  0  0  0  0
   56.6020   30.2660   44.2160 C   0  0  0  0  0  0  0  0  0  0  0  0
   56.9390   30.8060   42.6620 S   0  0  0  0  0  0  0  0  0  0  0  0
   57.7790   32.1590   43.2130 C   0  0  0  0  0  0  0  0  0  0  0  0
   58.2551   32.9217   42.5793 H   0  0  0  0  0  0  0  0  0  0  0  0
   57.7690   32.1490   44.6130 C   0  0  0  0  0  0  0  0  0  0  0  0
   58.4140   33.1990   45.4410 C   0  0  0  0  0  0  0  0  0  0  0  0
   58.4150   33.1000   46.8460 C   0  0  0  0  0  0  0  0  0  0  0  0
   57.9349   32.2386   47.3334 H   0  0  0  0  0  0  0  0  0  0  0  0
   59.0220   34.0890   47.6250 C   0  0  0  0  0  0  0  0  0  0  0  0
   59.0167   34.0036   48.7217 H   0  0  0  0  0  0  0  0  0  0  0  0
   59.6350   35.1850   47.0150 C   0  0  0  0  0  0  0  0  0  0  0  0
   60.1138   35.9607   47.6306 H   0  0  0  0  0  0  0  0  0  0  0  0
   59.6400   35.2960   45.6230 C   0  0  0  0  0  0  0  0  0  0  0  0
   60.1225   36.1602   45.1431 H   0  0  0  0  0  0  0  0  0  0  0  0
   59.0330   34.3110   44.8380 C   0  0  0  0  0  0  0  0  0  0  0  0
   59.0390   34.4053   43.7421 H   0  0  0  0  0  0  0  0  0  0  0  0
   57.1080   31.0870   45.1570 N   0  0  0  0  0  0  0  0  0  0  0  0
   57.0190   30.9060   46.1830 H   0  0  0  0  0  0  0  0  0  0  0  0
  1  2  1  0
  2  3  2  0
  3  4  1  0
  4  5  1  0
  5  6  1  0
  5  7  2  0
  7  8  1  0
  8  9  2  0
  9 10  1  0
  9 11  1  0
 11 12  1  0
 11 13  2  0
 13 14  1  0
 13 15  1  0
 15 16  1  0
 15 17  2  0
 17 18  1  0
  7 19  1  0
 19 20  1  0
 19  3  1  0
 17  8  1  0
M  END
>  <UniqueID>  (58) 
54

>  <SMILES>  (58) 
[H]/N=c1/[nH]c(-c2ccccc2)cs1

>  <Energy>  (58) 
53.76921294131902

>  <Genealogy>  (58) 
[H]/N=c1/[nH]c(-c2ccccc2)cs1 (cis-trans isomerization)
[H]/N=c1/[nH]c(-c2ccccc2)cs1 (3D coordinates assigned)
[H]/N=c1/[nH]c(-c2ccccc2)cs1 (optimized conformer: 53.76921294131902 kcal/mol)

>  <smiles>  (58) 
N=c1[nH]c(-c2ccccc2)cs1

>  <score_type>  (58) 
oracle

>  <origin>  (58) 
adg

>  <m_score__min__energy>  (58) 
-6.2199999999999998

>  <m_primary>  (58) 
energy

$$$$
58:0
     RDKit          3D

 60 63  0  0  0  0  0  0  0  0999 V2000
   62.6500   33.8400   46.7040 C   0  0  0  0  0  0  0  0  0  0  0  0
   61.8440   32.6770   47.2730 C   0  0  0  0  0  0  0  0  0  0  0  0
   60.4550   33.0840   47.5360 N   0  0  0  0  0  0  0  0  0  0  0  0
   60.0700   33.3770   48.8920 C   0  0  0  0  0  0  0  0  0  0  0  0
   60.4340   34.4660   49.4150 O   0  0  0  0  0  0  0  0  0  0  0  0
   59.2870   32.4070   49.6910 C   0  0  0  0  0  0  0  0  0  0  0  0
   58.5470   32.8360   50.8060 C   0  0  0  0  0  0  0  0  0  0  0  0
   57.7920   31.9230   51.5470 C   0  0  0  0  0  0  0  0  0  0  0  0
   57.7660   30.5710   51.1920 C   0  0  0  0  0  0  0  0  0  0  0  0
   56.9860   29.6880   51.9520 O   0  0  0  0  0  0  0  0  0  0  0  0
   55.6820   29.9410   52.4030 C   0  0  0  0  0  0  0  0  0  0  0  0
   54.7450   30.6390   51.6200 C   0  0  0  0  0  0  0  0  0  0  0  0
   53.4510   30.8570   52.1010 C   0  0  0  0  0  0  0  0  0  0  0  0
   53.0790   30.3720   53.3590 C   0  0  0  0  0  0  0  0  0  0  0  0
   54.0010   29.6630   54.1320 C   0  0  0  0  0  0  0  0  0  0  0  0
   55.2950   29.4430   53.6540 C   0  0  0  0  0  0  0  0  0  0  0  0
   58.4790   30.1430   50.0590 C   0  0  0  0  0  0  0  0  0  0  0  0
   59.2340   31.0540   49.3150 C   0  0  0  0  0  0  0  0  0  0  0  0
   59.4540   33.0950   46.4910 C   0  0  0  0  0  0  0  0  0  0  0  0
   58.9810   34.3050   45.9430 C   0  0  0  0  0  0  0  0  0  0  0  0
   58.0100   34.2960   44.9390 C   0  0  0  0  0  0  0  0  0  0  0  0
   57.4940   33.0870   44.4690 C   0  0  0  0  0  0  0  0  0  0  0  0
   57.9450   31.8760   45.0050 C   0  0  0  0  0  0  0  0  0  0  0  0
   57.3110   30.3560   44.3790 S   0  0  0  0  0  0  0  0  0  0  0  0
   57.2910   30.4230   42.8750 O   0  0  0  0  0  0  0  0  0  0  0  0
   55.9020   30.1470   44.8670 O   0  0  0  0  0  0  0  0  0  0  0  0
   58.3300   29.0370   44.9010 N   0  0  0  0  0  0  0  0  0  0  0  0
   58.1390   28.7880   46.3420 C   0  0  0  0  0  0  0  0  0  0  0  0
   59.1850   27.7860   46.8810 C   0  0  0  0  0  0  0  0  0  0  0  0
   59.9420   27.2110   45.8330 O   0  0  0  0  0  0  0  0  0  0  0  0
   60.6700   28.2250   45.1610 C   0  0  0  0  0  0  0  0  0  0  0  0
   59.7450   29.3350   44.6090 C   0  0  0  0  0  0  0  0  0  0  0  0
   58.9210   31.8830   46.0100 C   0  0  0  0  0  0  0  0  0  0  0  0
   63.0642   34.4376   47.5294 H   0  0  0  0  0  0  0  0  0  0  0  0
   63.4718   33.4490   46.0861 H   0  0  0  0  0  0  0  0  0  0  0  0
   61.9954   34.4722   46.0861 H   0  0  0  0  0  0  0  0  0  0  0  0
   61.8463   31.8484   46.5495 H   0  0  0  0  0  0  0  0  0  0  0  0
   62.3039   32.3591   48.2203 H   0  0  0  0  0  0  0  0  0  0  0  0
   58.5622   33.8967   51.0972 H   0  0  0  0  0  0  0  0  0  0  0  0
   57.2139   32.2706   52.4159 H   0  0  0  0  0  0  0  0  0  0  0  0
   55.0314   31.0143   50.6265 H   0  0  0  0  0  0  0  0  0  0  0  0
   52.7239   31.4110   51.4891 H   0  0  0  0  0  0  0  0  0  0  0  0
   52.0619   30.5487   53.7389 H   0  0  0  0  0  0  0  0  0  0  0  0
   53.7076   29.2770   55.1194 H   0  0  0  0  0  0  0  0  0  0  0  0
   56.0140   28.8756   54.2632 H   0  0  0  0  0  0  0  0  0  0  0  0
   58.4427   29.0861   49.7563 H   0  0  0  0  0  0  0  0  0  0  0  0
   59.7898   30.7100   48.4303 H   0  0  0  0  0  0  0  0  0  0  0  0
   59.3795   35.2628   46.3088 H   0  0  0  0  0  0  0  0  0  0  0  0
   57.6503   35.2459   44.5167 H   0  0  0  0  0  0  0  0  0  0  0  0
   56.7316   33.0865   43.6760 H   0  0  0  0  0  0  0  0  0  0  0  0
   58.0410   28.1840   44.3630 H   0  0  0  0  0  0  0  0  0  0  0  0
   58.2392   29.7385   46.8865 H   0  0  0  0  0  0  0  0  0  0  0  0
   57.1373   28.3587   46.4909 H   0  0  0  0  0  0  0  0  0  0  0  0
   59.8656   28.3136   47.5654 H   0  0  0  0  0  0  0  0  0  0  0  0
   58.6514   26.9786   47.4038 H   0  0  0  0  0  0  0  0  0  0  0  0
   61.3839   28.6759   45.8660 H   0  0  0  0  0  0  0  0  0  0  0  0
   61.1897   27.7618   44.3093 H   0  0  0  0  0  0  0  0  0  0  0  0
   60.0147   30.2936   45.0764 H   0  0  0  0  0  0  0  0  0  0  0  0
   59.8741   29.3887   43.5179 H   0  0  0  0  0  0  0  0  0  0  0  0
   59.2757   30.9298   46.4289 H   0  0  0  0  0  0  0  0  0  0  0  0
  1  2  1  0
  2  3  1  0
  3  4  1  0
  4  5  2  0
  4  6  1  0
  6  7  2  0
  7  8  1  0
  8  9  2  0
  9 10  1  0
 10 11  1  0
 11 12  2  0
 12 13  1  0
 13 14  2  0
 14 15  1  0
 15 16  2  0
  9 17  1  0
 17 18  2  0
  3 19  1  0
 19 20  2  0
 20 21  1  0
 21 22  2  0
 22 23  1  0
 23 24  1  0
 24 25  2  0
 24 26  2  0
 24 27  1  0
 27 28  1  0
 28 29  1  0
 29 30  1  0
 30 31  1  0
 31 32  1  0
 23 33  2  0
 18  6  1  0
 33 19  1  0
 16 11  1  0
 32 27  1  0
  1 34  1  0
  1 35  1  0
  1 36  1  0
  2 37  1  0
  2 38  1  0
  7 39  1  0
  8 40  1  0
 12 41  1  0
 13 42  1  0
 14 43  1  0
 15 44  1  0
 16 45  1  0
 17 46  1  0
 18 47  1  0
 20 48  1  0
 21 49  1  0
 22 50  1  0
 27 51  1  0
 28 52  1  0
 28 53  1  0
 29 54  1  0
 29 55  1  0
 31 56  1  0
 31 57  1  0
 32 58  1  0
 32 59  1  0
 33 60  1  0
M  CHG  1  27   1
M  END
>  <UniqueID>  (59) 
55

>  <SMILES>  (59) 
CCN(C(=O)c1ccc(Oc2ccccc2)cc1)c1cccc(S(=O)(=O)[NH+]2CCOCC2)c1

>  <Energy>  (59) 
84.25876516313812

>  <Genealogy>  (59) 
CCN(C(=O)c1ccc(Oc2ccccc2)cc1)c1cccc(S(=O)(=O)[NH+]2CCOCC2)c1 (protonated)
CCN(C(=O)c1ccc(Oc2ccccc2)cc1)c1cccc(S(=O)(=O)[NH+]2CCOCC2)c1 (3D coordinates assigned)
CCN(C(=O)c1ccc(Oc2ccccc2)cc1)c1cccc(S(=O)(=O)[NH+]2CCOCC2)c1 (nonaromatic ring conformer: 84.25876516313812 kcal/mol)

>  <smiles>  (59) 
CCN(C(=O)c1ccc(Oc2ccccc2)cc1)c1cccc(S(=O)(=O)N2CCOCC2)c1

>  <score_type>  (59) 
oracle

>  <origin>  (59) 
adg

>  <m_score__min__energy>  (59) 
-8.3200000000000003

>  <m_primary>  (59) 
energy

$$$$
59:0
     RDKit          3D

 31 33  0  0  0  0  0  0  0  0999 V2000
   61.7568   29.6066   45.4742 H   0  0  0  0  0  0  0  0  0  0  0  0
   60.9070   29.8750   46.1190 C   0  0  0  0  0  0  0  0  0  0  0  0
   59.8550   29.0430   46.1430 C   0  0  0  0  0  0  0  0  0  0  0  0
   58.4980   29.2860   45.6370 C   0  0  0  0  0  0  0  0  0  0  0  0
   58.0580   30.3510   45.1300 O   0  0  0  0  0  0  0  0  0  0  0  0
   57.7110   28.1070   45.9110 C   0  0  0  0  0  0  0  0  0  0  0  0
   56.3720   27.8520   45.6130 C   0  0  0  0  0  0  0  0  0  0  0  0
   55.7577   28.6000   45.0903 H   0  0  0  0  0  0  0  0  0  0  0  0
   55.8290   26.6150   45.9980 C   0  0  0  0  0  0  0  0  0  0  0  0
   54.4990   26.3260   45.7170 O   0  0  0  0  0  0  0  0  0  0  0  0
   56.6260   25.6670   46.6690 C   0  0  0  0  0  0  0  0  0  0  0  0
   56.1932   24.7005   46.9666 H   0  0  0  0  0  0  0  0  0  0  0  0
   57.9710   25.9500   46.9600 C   0  0  0  0  0  0  0  0  0  0  0  0
   58.5976   25.2145   47.4857 H   0  0  0  0  0  0  0  0  0  0  0  0
   58.4970   27.1830   46.5690 C   0  0  0  0  0  0  0  0  0  0  0  0
   59.8940   27.6830   46.7940 C   0  0  0  0  0  0  0  0  0  0  0  0
   60.6343   27.0298   46.3089 H   0  0  0  0  0  0  0  0  0  0  0  0
   60.1881   27.7092   47.8536 H   0  0  0  0  0  0  0  0  0  0  0  0
   61.0040   31.1250   46.8970 C   0  0  0  0  0  0  0  0  0  0  0  0
   59.8520   31.8300   47.2800 C   0  0  0  0  0  0  0  0  0  0  0  0
   58.8574   31.4306   47.0323 H   0  0  0  0  0  0  0  0  0  0  0  0
   59.9640   33.0360   47.9740 C   0  0  0  0  0  0  0  0  0  0  0  0
   59.0577   33.5750   48.2870 H   0  0  0  0  0  0  0  0  0  0  0  0
   61.2240   33.5600   48.2720 C   0  0  0  0  0  0  0  0  0  0  0  0
   61.3045   34.5069   48.8260 H   0  0  0  0  0  0  0  0  0  0  0  0
   62.3900   32.8860   47.8690 C   0  0  0  0  0  0  0  0  0  0  0  0
   63.6870   33.4360   48.1660 N   0  0  0  0  0  0  0  0  0  0  0  0
   64.1240   34.4160   47.5280 O   0  0  0  0  0  0  0  0  0  0  0  0
   64.4700   32.8890   49.1560 O   0  0  0  0  0  0  0  0  0  0  0  0
   62.2680   31.6700   47.1700 C   0  0  0  0  0  0  0  0  0  0  0  0
   63.1727   31.1418   46.8345 H   0  0  0  0  0  0  0  0  0  0  0  0
  1  2  1  0
  2  3  2  0
  3  4  1  0
  4  5  2  0
  4  6  1  0
  6  7  2  0
  7  8  1  0
  7  9  1  0
  9 10  1  0
  9 11  2  0
 11 12  1  0
 11 13  1  0
 13 14  1  0
 13 15  2  0
 15 16  1  0
 16 17  1  0
 16 18  1  0
  2 19  1  0
 19 20  2  0
 20 21  1  0
 20 22  1  0
 22 23  1  0
 22 24  2  0
 24 25  1  0
 24 26  1  0
 26 27  1  0
 27 28  2  0
 27 29  1  0
 26 30  2  0
 30 31  1  0
 16  3  1  0
 30 19  1  0
 15  6  1  0
M  CHG  3  10  -1  27   1  29  -1
M  END
>  <UniqueID>  (60) 
56

>  <SMILES>  (60) 
O=C1/C(=C\c2cccc([N+](=O)[O-])c2)Cc2ccc([O-])cc21

>  <Energy>  (60) 
60.49627265840505

>  <Genealogy>  (60) 
O=C1C(=Cc2cccc([N+](=O)[O-])c2)Cc2ccc([O-])cc21 (protonated)
O=C1/C(=C\c2cccc([N+](=O)[O-])c2)Cc2ccc([O-])cc21 (cis-trans isomerization)
O=C1/C(=C\c2cccc([N+](=O)[O-])c2)Cc2ccc([O-])cc21 (3D coordinates assigned)
O=C1/C(=C\c2cccc([N+](=O)[O-])c2)Cc2ccc([O-])cc21 (nonaromatic ring conformer: 60.49627265840505 kcal/mol)

>  <smiles>  (60) 
O=C1C(=Cc2cccc([N+](=O)[O-])c2)Cc2ccc(O)cc21

>  <score_type>  (60) 
oracle

>  <origin>  (60) 
adg

>  <m_score__min__energy>  (60) 
-10.44

>  <m_primary>  (60) 
energy

$$$$
60:0
     RDKit          3D

 34 36  0  0  0  0  0  0  0  0999 V2000
   65.2590   32.2120   50.1300 C   0  0  0  0  0  0  0  0  0  0  0  0
   64.7280   33.4520   49.6770 O   0  0  0  0  0  0  0  0  0  0  0  0
   63.5550   33.5810   48.9170 C   0  0  0  0  0  0  0  0  0  0  0  0
   62.3130   33.9080   49.4940 C   0  0  0  0  0  0  0  0  0  0  0  0
   61.1740   34.0280   48.6920 C   0  0  0  0  0  0  0  0  0  0  0  0
   61.2640   33.8410   47.3060 C   0  0  0  0  0  0  0  0  0  0  0  0
   60.0620   33.9370   46.4630 C   0  0  0  0  0  0  0  0  0  0  0  0
   59.6060   35.1050   45.9620 N   0  0  0  0  0  0  0  0  0  0  0  0
   58.5620   34.8540   45.1850 N   0  0  0  0  0  0  0  0  0  0  0  0
   58.3920   33.5190   45.2320 C   0  0  0  0  0  0  0  0  0  0  0  0
   57.4070   32.7950   44.5740 C   0  0  0  0  0  0  0  0  0  0  0  0
   57.3980   31.4040   44.7760 C   0  0  0  0  0  0  0  0  0  0  0  0
   56.3570   30.5550   44.1180 C   0  0  0  0  0  0  0  0  0  0  0  0
   58.3110   30.8290   45.6170 N   0  0  0  0  0  0  0  0  0  0  0  0
   59.2620   31.5670   46.2560 C   0  0  0  0  0  0  0  0  0  0  0  0
   60.2020   30.8800   47.1980 C   0  0  0  0  0  0  0  0  0  0  0  0
   59.2980   32.9120   46.0200 N   0  0  0  0  0  0  0  0  0  0  0  0
   62.4930   33.4930   46.7330 C   0  0  0  0  0  0  0  0  0  0  0  0
   63.6320   33.3730   47.5350 C   0  0  0  0  0  0  0  0  0  0  0  0
   65.2659   32.1960   51.2299 H   0  0  0  0  0  0  0  0  0  0  0  0
   64.6352   31.3872   49.7552 H   0  0  0  0  0  0  0  0  0  0  0  0
   66.2864   32.0943   49.7552 H   0  0  0  0  0  0  0  0  0  0  0  0
   62.2385   34.0696   50.5795 H   0  0  0  0  0  0  0  0  0  0  0  0
   60.2039   34.2700   49.1505 H   0  0  0  0  0  0  0  0  0  0  0  0
   60.0080   36.0550   46.1250 H   0  0  0  0  0  0  0  0  0  0  0  0
   56.6679   33.2871   43.9247 H   0  0  0  0  0  0  0  0  0  0  0  0
   55.7483   30.0586   44.8881 H   0  0  0  0  0  0  0  0  0  0  0  0
   55.7109   31.1871   43.4910 H   0  0  0  0  0  0  0  0  0  0  0  0
   56.8462   29.7950   43.4910 H   0  0  0  0  0  0  0  0  0  0  0  0
   59.9055   31.0967   48.2349 H   0  0  0  0  0  0  0  0  0  0  0  0
   60.1655   29.7942   47.0255 H   0  0  0  0  0  0  0  0  0  0  0  0
   61.2254   31.2445   47.0255 H   0  0  0  0  0  0  0  0  0  0  0  0
   62.5627   33.3137   45.6500 H   0  0  0  0  0  0  0  0  0  0  0  0
   64.5971   33.1128   47.0758 H   0  0  0  0  0  0  0  0  0  0  0  0
  1  2  1  0
  2  3  1  0
  3  4  2  0
  4  5  1  0
  5  6  2  0
  6  7  1  0
  7  8  2  0
  8  9  1  0
  9 10  2  0
 10 11  1  0
 11 12  2  0
 12 13  1  0
 12 14  1  0
 14 15  2  0
 15 16  1  0
 15 17  1  0
  6 18  1  0
 18 19  2  0
 19  3  1  0
 17  7  1  0
 17 10  1  0
  1 20  1  0
  1 21  1  0
  1 22  1  0
  4 23  1  0
  5 24  1  0
  8 25  1  0
 11 26  1  0
 13 27  1  0
 13 28  1  0
 13 29  1  0
 16 30  1  0
 16 31  1  0
 16 32  1  0
 18 33  1  0
 19 34  1  0
M  CHG  1   8   1
M  END
>  <UniqueID>  (61) 
57

>  <SMILES>  (61) 
COc1ccc(-c2[nH+]nc3cc(C)nc(C)n23)cc1

>  <Energy>  (61) 
84.11535303158033

>  <Genealogy>  (61) 
COc1ccc(-c2[nH+]nc3cc(C)nc(C)n23)cc1 (protonated)
COc1ccc(-c2[nH+]nc3cc(C)nc(C)n23)cc1 (3D coordinates assigned)
COc1ccc(-c2[nH+]nc3cc(C)nc(C)n23)cc1 (optimized conformer: 84.11535303158033 kcal/mol)

>  <smiles>  (61) 
COc1ccc(-c2nnc3cc(C)nc(C)n23)cc1

>  <score_type>  (61) 
oracle

>  <origin>  (61) 
adg

>  <m_score__min__energy>  (61) 
-5.2300000000000004

>  <m_primary>  (61) 
energy

$$$$
61:0
     RDKit          3D

 35 37  0  0  0  0  0  0  0  0999 V2000
   55.1680   29.3300   44.8570 O   0  0  0  0  0  0  0  0  0  0  0  0
   56.3510   29.7590   44.8500 C   0  0  0  0  0  0  0  0  0  0  0  0
   56.5820   31.1300   44.4960 N   0  0  0  0  0  0  0  0  0  0  0  0
   57.4460   32.0460   45.1820 C   0  0  0  0  0  0  0  0  0  0  0  0
   57.6810   33.3060   44.6190 C   0  0  0  0  0  0  0  0  0  0  0  0
   58.5170   34.2240   45.2620 C   0  0  0  0  0  0  0  0  0  0  0  0
   59.1070   33.9010   46.4930 C   0  0  0  0  0  0  0  0  0  0  0  0
   60.0480   34.8650   47.1590 C   0  0  0  0  0  0  0  0  0  0  0  0
   61.3380   34.2210   47.3870 N   0  0  0  0  0  0  0  0  0  0  0  0
   62.2130   33.8110   46.4540 C   0  0  0  0  0  0  0  0  0  0  0  0
   63.2510   33.1790   47.0990 C   0  0  0  0  0  0  0  0  0  0  0  0
   63.0250   33.1780   48.4300 N   0  0  0  0  0  0  0  0  0  0  0  0
   61.8450   33.8190   48.5680 C   0  0  0  0  0  0  0  0  0  0  0  0
   58.8640   32.6430   47.0650 C   0  0  0  0  0  0  0  0  0  0  0  0
   58.0280   31.7260   46.4210 C   0  0  0  0  0  0  0  0  0  0  0  0
   57.4640   28.8280   45.1550 C   0  0  0  0  0  0  0  0  0  0  0  0
   57.2680   27.7200   46.0000 C   0  0  0  0  0  0  0  0  0  0  0  0
   58.3260   26.8490   46.2820 C   0  0  0  0  0  0  0  0  0  0  0  0
   59.5890   27.0820   45.7340 C   0  0  0  0  0  0  0  0  0  0  0  0
   60.6140   26.2370   46.0100 F   0  0  0  0  0  0  0  0  0  0  0  0
   59.8000   28.1890   44.9080 C   0  0  0  0  0  0  0  0  0  0  0  0
   58.7450   29.0620   44.6230 C   0  0  0  0  0  0  0  0  0  0  0  0
   57.2049   33.5756   43.6647 H   0  0  0  0  0  0  0  0  0  0  0  0
   58.7128   35.2033   44.8008 H   0  0  0  0  0  0  0  0  0  0  0  0
   60.1881   35.7439   46.5125 H   0  0  0  0  0  0  0  0  0  0  0  0
   59.6233   35.1780   48.1242 H   0  0  0  0  0  0  0  0  0  0  0  0
   62.1168   33.9549   45.3677 H   0  0  0  0  0  0  0  0  0  0  0  0
   64.1311   32.7412   46.6053 H   0  0  0  0  0  0  0  0  0  0  0  0
   61.3530   33.9933   49.5362 H   0  0  0  0  0  0  0  0  0  0  0  0
   59.3331   32.3773   48.0238 H   0  0  0  0  0  0  0  0  0  0  0  0
   57.8248   30.7499   46.8858 H   0  0  0  0  0  0  0  0  0  0  0  0
   56.2771   27.5376   46.4414 H   0  0  0  0  0  0  0  0  0  0  0  0
   58.1627   25.9798   46.9361 H   0  0  0  0  0  0  0  0  0  0  0  0
   60.7969   28.3741   44.4814 H   0  0  0  0  0  0  0  0  0  0  0  0
   58.9181   29.9368   43.9790 H   0  0  0  0  0  0  0  0  0  0  0  0
  1  2  2  0
  2  3  1  0
  3  4  1  0
  4  5  2  0
  5  6  1  0
  6  7  2  0
  7  8  1  0
  8  9  1  0
  9 10  1  0
 10 11  2  0
 11 12  1  0
 12 13  2  0
  7 14  1  0
 14 15  2  0
  2 16  1  0
 16 17  2  0
 17 18  1  0
 18 19  2  0
 19 20  1  0
 19 21  1  0
 21 22  2  0
 15  4  1  0
 22 16  1  0
 13  9  1  0
  5 23  1  0
  6 24  1  0
  8 25  1  0
  8 26  1  0
 10 27  1  0
 11 28  1  0
 13 29  1  0
 14 30  1  0
 15 31  1  0
 17 32  1  0
 18 33  1  0
 21 34  1  0
 22 35  1  0
M  CHG  1   3  -1
M  END
>  <UniqueID>  (62) 
58

>  <SMILES>  (62) 
O=C([N-]c1ccc(Cn2ccnc2)cc1)c1ccc(F)cc1

>  <Energy>  (62) 
71.7236848349604

>  <Genealogy>  (62) 
O=C([N-]c1ccc(Cn2ccnc2)cc1)c1ccc(F)cc1 (protonated)
O=C([N-]c1ccc(Cn2ccnc2)cc1)c1ccc(F)cc1 (3D coordinates assigned)
O=C([N-]c1ccc(Cn2ccnc2)cc1)c1ccc(F)cc1 (optimized conformer: 71.7236848349604 kcal/mol)

>  <smiles>  (62) 
O=C(Nc1ccc(Cn2ccnc2)cc1)c1ccc(F)cc1

>  <score_type>  (62) 
oracle

>  <origin>  (62) 
adg

>  <m_score__min__energy>  (62) 
-9.1099999999999994

>  <m_primary>  (62) 
energy

$$$$
62:0
     RDKit          3D

 47 50  0  0  1  0  0  0  0  0999 V2000
   56.6810   25.8100   45.7740 C   0  0  0  0  0  0  0  0  0  0  0  0
   57.4260   25.5900   44.4420 C   0  0  0  0  0  0  0  0  0  0  0  0
   57.8470   26.8070   43.9350 O   0  0  0  0  0  0  0  0  0  0  0  0
   58.0980   27.9580   44.6080 C   0  0  0  0  0  0  0  0  0  0  0  0
   59.1780   27.9190   45.4570 N   0  0  0  0  0  0  0  0  0  0  0  0
   59.5590   28.9620   46.1940 C   0  0  0  0  0  0  0  0  0  0  0  0
   60.6660   28.9660   47.0830 N   0  0  0  0  0  0  0  0  0  0  0  0
   61.0660   29.9920   47.7190 C   0  0  0  0  0  0  0  0  0  0  0  0
   61.7290   31.0540   47.1140 C   0  0  0  0  0  0  0  0  0  0  0  0
   61.9790   31.9420   48.1290 C   0  0  0  0  0  0  0  0  0  0  0  0
   62.6790   33.2380   47.9650 C   0  0  0  0  0  0  0  0  0  0  0  0
   63.8700   33.3920   47.1030 C   0  0  0  0  0  0  0  0  0  0  0  0
   62.5650   33.8070   46.5420 C   0  0  0  0  0  0  0  0  0  0  0  0
   61.4850   31.4270   49.2900 N   0  0  0  0  0  0  0  0  0  0  0  0
   60.9350   30.2500   49.0330 N   0  0  0  0  0  0  0  0  0  0  0  0
   58.8600   30.1300   46.1140 N   0  0  0  0  0  0  0  0  0  0  0  0
   57.7900   30.2380   45.2990 C   0  0  0  0  0  0  0  0  0  0  0  0
   57.1720   31.3620   45.2640 N   0  0  0  0  0  0  0  0  0  0  0  0
   57.8880   32.5450   45.5840 C   0  0  0  0  0  0  0  0  0  0  0  0
   58.1270   33.4300   44.5380 C   0  0  0  0  0  0  0  0  0  0  0  0
   58.8220   34.6020   44.7750 C   0  0  0  0  0  0  0  0  0  0  0  0
   59.2770   34.8850   46.0610 C   0  0  0  0  0  0  0  0  0  0  0  0
   59.9570   36.0180   46.3280 F   0  0  0  0  0  0  0  0  0  0  0  0
   59.0530   34.0210   47.1240 C   0  0  0  0  0  0  0  0  0  0  0  0
   59.6370   34.4080   48.7130 Cl  0  0  0  0  0  0  0  0  0  0  0  0
   58.3530   32.8660   46.8240 C   0  0  0  0  0  0  0  0  0  0  0  0
   57.3970   29.1340   44.5300 C   0  0  0  0  0  0  0  0  0  0  0  0
   56.2750   29.3570   43.6980 N   0  0  0  0  0  0  0  0  0  0  0  0
   55.1370   29.3680   44.2340 O   0  0  0  0  0  0  0  0  0  0  0  0
   56.3140   29.5620   42.3510 O   0  0  0  0  0  0  0  0  0  0  0  0
   57.3630   25.6086   46.6132 H   0  0  0  0  0  0  0  0  0  0  0  0
   56.3286   26.8505   45.8295 H   0  0  0  0  0  0  0  0  0  0  0  0
   55.8199   25.1278   45.8295 H   0  0  0  0  0  0  0  0  0  0  0  0
   58.2995   24.9441   44.6143 H   0  0  0  0  0  0  0  0  0  0  0  0
   56.7477   25.1106   43.7208 H   0  0  0  0  0  0  0  0  0  0  0  0
   59.7510   27.0410   45.5550 H   0  0  0  0  0  0  0  0  0  0  0  0
   61.9952   31.1592   46.0519 H   0  0  0  0  0  0  0  0  0  0  0  0
   62.4860   33.5358   49.0062 H   0  0  0  0  0  0  0  0  0  0  0  0
   64.6226   34.1557   47.3487 H   0  0  0  0  0  0  0  0  0  0  0  0
   64.6609   32.7058   46.7661 H   0  0  0  0  0  0  0  0  0  0  0  0
   62.3423   34.8732   46.3882 H   0  0  0  0  0  0  0  0  0  0  0  0
   61.9828   33.5609   45.6417 H   0  0  0  0  0  0  0  0  0  0  0  0
   61.5460   31.9090   50.2140 H   0  0  0  0  0  0  0  0  0  0  0  0
   60.4640   29.5900   49.7140 H   0  0  0  0  0  0  0  0  0  0  0  0
   57.7644   33.1985   43.5256 H   0  0  0  0  0  0  0  0  0  0  0  0
   59.0144   35.3068   43.9527 H   0  0  0  0  0  0  0  0  0  0  0  0
   58.1584   32.1579   47.6430 H   0  0  0  0  0  0  0  0  0  0  0  0
  1  2  1  0
  2  3  1  0
  3  4  1  0
  4  5  1  0
  5  6  1  0
  6  7  1  0
  7  8  2  0
  8  9  1  0
  9 10  2  0
 10 11  1  0
 11 12  1  0
 12 13  1  0
 10 14  1  0
 14 15  1  0
  6 16  2  0
 16 17  1  0
 17 18  2  0
 18 19  1  0
 19 20  2  0
 20 21  1  0
 21 22  2  0
 22 23  1  0
 22 24  1  0
 24 25  1  0
 24 26  2  0
 17 27  1  0
 27 28  1  0
 28 29  2  0
 28 30  1  0
 27  4  2  0
 15  8  1  0
 26 19  1  0
 13 11  1  0
  1 31  1  0
  1 32  1  0
  1 33  1  0
  2 34  1  0
  2 35  1  0
  5 36  1  0
  9 37  1  0
 11 38  1  0
 12 39  1  0
 12 40  1  0
 13 41  1  0
 13 42  1  0
 14 43  1  0
 15 44  1  0
 20 45  1  0
 21 46  1  0
 26 47  1  0
M  CHG  2  28   1  30  -1
M  END
>  <smiles>  (63) 
CCOc1[nH]c(N=c2cc(C3CC3)[nH][nH]2)nc(=Nc2ccc(F)c(Cl)c2)c1[N+](=O)[O-]

>  <score_type>  (63) 
oracle

>  <origin>  (63) 
adg

>  <m_score__min__energy>  (63) 
-8.6099999999999994

>  <m_primary>  (63) 
energy

$$$$
63:0
     RDKit          3D

 32 33  0  0  0  0  0  0  0  0999 V2000
   61.2213   27.9832   45.4611 H   0  0  0  0  0  0  0  0  0  0  0  0
   60.4130   28.6740   45.7430 C   0  0  0  0  0  0  0  0  0  0  0  0
   60.7310   29.9120   45.9980 N   0  0  0  0  0  0  0  0  0  0  0  0
   60.2270   30.7200   47.0730 C   0  0  0  0  0  0  0  0  0  0  0  0
   60.6190   30.4060   48.3810 C   0  0  0  0  0  0  0  0  0  0  0  0
   61.2842   29.5484   48.5602 H   0  0  0  0  0  0  0  0  0  0  0  0
   60.1720   31.1730   49.4590 C   0  0  0  0  0  0  0  0  0  0  0  0
   60.4948   30.9257   50.4811 H   0  0  0  0  0  0  0  0  0  0  0  0
   59.3160   32.2530   49.2400 C   0  0  0  0  0  0  0  0  0  0  0  0
   58.8820   33.0230   50.3120 O   0  0  0  0  0  0  0  0  0  0  0  0
   58.8880   32.5560   47.9450 C   0  0  0  0  0  0  0  0  0  0  0  0
   58.2127   33.4083   47.7791 H   0  0  0  0  0  0  0  0  0  0  0  0
   59.3130   31.7810   46.8530 C   0  0  0  0  0  0  0  0  0  0  0  0
   58.7920   32.1170   45.4810 C   0  0  0  0  0  0  0  0  0  0  0  0
   57.8709   32.7110   45.5739 H   0  0  0  0  0  0  0  0  0  0  0  0
   59.5490   32.6975   44.9333 H   0  0  0  0  0  0  0  0  0  0  0  0
   58.5755   31.1879   44.9333 H   0  0  0  0  0  0  0  0  0  0  0  0
   59.0350   28.1370   45.8080 C   0  0  0  0  0  0  0  0  0  0  0  0
   58.7540   26.8930   46.3960 C   0  0  0  0  0  0  0  0  0  0  0  0
   59.5716   26.2893   46.8168 H   0  0  0  0  0  0  0  0  0  0  0  0
   57.4420   26.4190   46.4490 C   0  0  0  0  0  0  0  0  0  0  0  0
   57.2320   25.4363   46.8964 H   0  0  0  0  0  0  0  0  0  0  0  0
   56.3950   27.1880   45.9360 C   0  0  0  0  0  0  0  0  0  0  0  0
   55.0940   26.7010   45.9930 O   0  0  0  0  0  0  0  0  0  0  0  0
   56.6500   28.4450   45.3720 C   0  0  0  0  0  0  0  0  0  0  0  0
   55.5690   29.1890   44.8760 O   0  0  0  0  0  0  0  0  0  0  0  0
   55.5230   29.7780   43.5800 C   0  0  0  0  0  0  0  0  0  0  0  0
   55.4377   30.8704   43.6765 H   0  0  0  0  0  0  0  0  0  0  0  0
   56.4433   29.5292   43.0313 H   0  0  0  0  0  0  0  0  0  0  0  0
   54.6525   29.3893   43.0313 H   0  0  0  0  0  0  0  0  0  0  0  0
   57.9760   28.9200   45.3220 C   0  0  0  0  0  0  0  0  0  0  0  0
   58.1831   29.9137   44.8981 H   0  0  0  0  0  0  0  0  0  0  0  0
  1  2  1  0
  2  3  2  0
  3  4  1  0
  4  5  2  0
  5  6  1  0
  5  7  1  0
  7  8  1  0
  7  9  2  0
  9 10  1  0
  9 11  1  0
 11 12  1  0
 11 13  2  0
 13 14  1  0
 14 15  1  0
 14 16  1  0
 14 17  1  0
  2 18  1  0
 18 19  2  0
 19 20  1  0
 19 21  1  0
 21 22  1  0
 21 23  2  0
 23 24  1  0
 23 25  1  0
 25 26  1  0
 26 27  1  0
 27 28  1  0
 27 29  1  0
 27 30  1  0
 25 31  2  0
 31 32  1  0
 13  4  1  0
 31 18  1  0
M  CHG  2  10  -1  24  -1
M  END
>  <UniqueID>  (64) 
59

>  <SMILES>  (64) 
COc1cc(/C=N\c2ccc([O-])cc2C)ccc1[O-]

>  <Energy>  (64) 
44.740403567375175

>  <Genealogy>  (64) 
COc1cc(C=Nc2ccc([O-])cc2C)ccc1[O-] (protonated)
COc1cc(/C=N\c2ccc([O-])cc2C)ccc1[O-] (cis-trans isomerization)
COc1cc(/C=N\c2ccc([O-])cc2C)ccc1[O-] (3D coordinates assigned)
COc1cc(/C=N\c2ccc([O-])cc2C)ccc1[O-] (optimized conformer: 44.740403567375175 kcal/mol)

>  <smiles>  (64) 
COc1cc(C=Nc2ccc(O)cc2C)ccc1O

>  <score_type>  (64) 
oracle

>  <origin>  (64) 
adg

>  <m_score__min__energy>  (64) 
-11.19

>  <m_primary>  (64) 
energy

$$$$
64:0
     RDKit          3D

 34 36  0  0  0  0  0  0  0  0999 V2000
   57.8640   34.4710   44.4920 O   0  0  0  0  0  0  0  0  0  0  0  0
   57.8250   33.2120   44.5450 C   0  0  0  0  0  0  0  0  0  0  0  0
   57.7670   32.4780   43.3610 C   0  0  0  0  0  0  0  0  0  0  0  0
   57.7370   31.0890   43.4170 C   0  0  0  0  0  0  0  0  0  0  0  0
   57.7600   30.4510   44.6640 C   0  0  0  0  0  0  0  0  0  0  0  0
   57.7490   28.9720   44.7940 C   0  0  0  0  0  0  0  0  0  0  0  0
   57.3980   28.3420   46.0050 C   0  0  0  0  0  0  0  0  0  0  0  0
   57.4010   26.9470   46.1050 C   0  0  0  0  0  0  0  0  0  0  0  0
   57.7590   26.1650   45.0040 C   0  0  0  0  0  0  0  0  0  0  0  0
   58.1180   26.7770   43.8020 C   0  0  0  0  0  0  0  0  0  0  0  0
   58.1180   28.1710   43.6960 C   0  0  0  0  0  0  0  0  0  0  0  0
   57.8200   31.2200   45.7870 N   0  0  0  0  0  0  0  0  0  0  0  0
   57.8420   32.5560   45.7470 N   0  0  0  0  0  0  0  0  0  0  0  0
   57.9460   33.2820   47.0160 C   0  0  0  0  0  0  0  0  0  0  0  0
   59.3810   33.3260   47.4660 C   0  0  0  0  0  0  0  0  0  0  0  0
   59.7660   34.1390   48.5450 C   0  0  0  0  0  0  0  0  0  0  0  0
   61.1070   34.2040   48.9350 C   0  0  0  0  0  0  0  0  0  0  0  0
   62.0740   33.4630   48.2470 C   0  0  0  0  0  0  0  0  0  0  0  0
   63.7560   33.5460   48.7370 Cl  0  0  0  0  0  0  0  0  0  0  0  0
   61.6990   32.6590   47.1660 C   0  0  0  0  0  0  0  0  0  0  0  0
   60.3590   32.5930   46.7740 C   0  0  0  0  0  0  0  0  0  0  0  0
   57.7451   32.9940   42.3898 H   0  0  0  0  0  0  0  0  0  0  0  0
   57.6956   30.4967   42.4910 H   0  0  0  0  0  0  0  0  0  0  0  0
   57.1198   28.9516   46.8773 H   0  0  0  0  0  0  0  0  0  0  0  0
   57.1208   26.4643   47.0529 H   0  0  0  0  0  0  0  0  0  0  0  0
   57.7579   25.0679   45.0843 H   0  0  0  0  0  0  0  0  0  0  0  0
   58.4016   26.1609   42.9360 H   0  0  0  0  0  0  0  0  0  0  0  0
   58.4086   28.6460   42.7473 H   0  0  0  0  0  0  0  0  0  0  0  0
   57.5749   34.3086   46.8801 H   0  0  0  0  0  0  0  0  0  0  0  0
   57.3436   32.7661   47.7782 H   0  0  0  0  0  0  0  0  0  0  0  0
   59.0093   34.7268   49.0852 H   0  0  0  0  0  0  0  0  0  0  0  0
   61.4022   34.8384   49.7837 H   0  0  0  0  0  0  0  0  0  0  0  0
   62.4594   32.0779   46.6236 H   0  0  0  0  0  0  0  0  0  0  0  0
   60.0690   31.9640   45.9195 H   0  0  0  0  0  0  0  0  0  0  0  0
  1  2  2  0
  2  3  1  0
  3  4  2  0
  4  5  1  0
  5  6  1  0
  6  7  2  0
  7  8  1  0
  8  9  2  0
  9 10  1  0
 10 11  2  0
  5 12  2  0
 12 13  1  0
 13 14  1  0
 14 15  1  0
 15 16  2  0
 16 17  1  0
 17 18  2  0
 18 19  1  0
 18 20  1  0
 20 21  2  0
 13  2  1  0
 21 15  1  0
 11  6  1  0
  3 22  1  0
  4 23  1  0
  7 24  1  0
  8 25  1  0
  9 26  1  0
 10 27  1  0
 11 28  1  0
 14 29  1  0
 14 30  1  0
 16 31  1  0
 17 32  1  0
 20 33  1  0
 21 34  1  0
M  END
>  <UniqueID>  (65) 
60

>  <SMILES>  (65) 
O=c1ccc(-c2ccccc2)nn1Cc1ccc(Cl)cc1

>  <Energy>  (65) 
41.06810767537915

>  <Genealogy>  (65) 
O=c1ccc(-c2ccccc2)nn1Cc1ccc(Cl)cc1 (3D coordinates assigned)
O=c1ccc(-c2ccccc2)nn1Cc1ccc(Cl)cc1 (optimized conformer: 41.06810767537915 kcal/mol)

>  <smiles>  (65) 
O=c1ccc(-c2ccccc2)nn1Cc1ccc(Cl)cc1

>  <score_type>  (65) 
oracle

>  <origin>  (65) 
adg

>  <m_score__min__energy>  (65) 
-7.5700000000000003

>  <m_primary>  (65) 
energy

$$$$
65:0
     RDKit          3D

 38 40  0  0  0  0  0  0  0  0999 V2000
   59.2943   35.5718   44.0767 H   0  0  0  0  0  0  0  0  0  0  0  0
   58.9160   34.9810   44.9240 C   0  0  0  0  0  0  0  0  0  0  0  0
   59.8340   34.7290   46.0580 C   0  0  0  0  0  0  0  0  0  0  0  0
   60.8282   33.1126   45.1814 H   0  0  0  0  0  0  0  0  0  0  0  0
   61.8000   33.5910   47.1110 C   0  0  0  0  0  0  0  0  0  0  0  0
   61.4420   33.8330   48.4470 C   0  0  0  0  0  0  0  0  0  0  0  0
   60.4132   34.1358   48.6917 H   0  0  0  0  0  0  0  0  0  0  0  0
   62.3870   33.6910   49.4680 C   0  0  0  0  0  0  0  0  0  0  0  0
   62.0959   33.8668   50.5141 H   0  0  0  0  0  0  0  0  0  0  0  0
   63.7010   33.3260   49.1610 C   0  0  0  0  0  0  0  0  0  0  0  0
   64.4413   33.2082   49.9660 H   0  0  0  0  0  0  0  0  0  0  0  0
   64.0740   33.1110   47.8330 C   0  0  0  0  0  0  0  0  0  0  0  0
   65.1101   32.8311   47.5918 H   0  0  0  0  0  0  0  0  0  0  0  0
   63.1320   33.2510   46.8090 C   0  0  0  0  0  0  0  0  0  0  0  0
   63.4334   33.0947   45.7627 H   0  0  0  0  0  0  0  0  0  0  0  0
   57.6530   34.5350   44.8640 C   0  0  0  0  0  0  0  0  0  0  0  0
   56.9963   34.9509   44.0857 H   0  0  0  0  0  0  0  0  0  0  0  0
   57.0860   33.5180   45.7790 C   0  0  0  0  0  0  0  0  0  0  0  0
   56.3049   33.8255   46.4899 H   0  0  0  0  0  0  0  0  0  0  0  0
   57.4860   32.2350   45.7770 C   0  0  0  0  0  0  0  0  0  0  0  0
   59.7250   35.3482   46.9606 H   0  0  0  0  0  0  0  0  0  0  0  0
   60.7910   33.7890   46.0480 C   0  0  0  0  0  0  0  0  0  0  0  0
   57.2690   31.1390   44.3550 S   0  0  0  0  0  0  0  0  0  0  0  0
   58.4790   30.0640   45.1150 C   0  0  0  0  0  0  0  0  0  0  0  0
   59.0170   28.9270   44.5100 C   0  0  0  0  0  0  0  0  0  0  0  0
   58.6968   28.6280   43.5010 H   0  0  0  0  0  0  0  0  0  0  0  0
   59.9700   28.1720   45.2050 C   0  0  0  0  0  0  0  0  0  0  0  0
   60.3970   27.2694   44.7435 H   0  0  0  0  0  0  0  0  0  0  0  0
   60.3820   28.5630   46.4880 C   0  0  0  0  0  0  0  0  0  0  0  0
   61.1318   27.9665   47.0284 H   0  0  0  0  0  0  0  0  0  0  0  0
   59.8410   29.7120   47.0840 C   0  0  0  0  0  0  0  0  0  0  0  0
   60.1689   30.0281   48.0853 H   0  0  0  0  0  0  0  0  0  0  0  0
   58.8760   30.4520   46.3850 C   0  0  0  0  0  0  0  0  0  0  0  0
   58.2690   31.6620   46.8370 N   0  0  0  0  0  0  0  0  0  0  0  0
   58.5180   32.2830   48.1400 C   0  0  0  0  0  0  0  0  0  0  0  0
   58.2370   31.5822   48.9399 H   0  0  0  0  0  0  0  0  0  0  0  0
   59.5856   32.5324   48.2293 H   0  0  0  0  0  0  0  0  0  0  0  0
   57.9184   33.2009   48.2293 H   0  0  0  0  0  0  0  0  0  0  0  0
  1  2  1  0
  2  3  2  0
  3  4  1  0
  3  5  1  0
  5  6  2  0
  6  7  1  0
  6  8  1  0
  8  9  1  0
  8 10  2  0
 10 11  1  0
 10 12  1  0
 12 13  1  0
 12 14  2  0
 14 15  1  0
  2 16  1  0
 16 17  1  0
 16 18  2  0
 18 19  1  0
 18 20  1  0
 20 21  1  0
 20 22  2  0
 22 23  1  0
 23 24  1  0
 24 25  2  0
 25 26  1  0
 25 27  1  0
 27 28  1  0
 27 29  2  0
 29 30  1  0
 29 31  1  0
 31 32  1  0
 31 33  2  0
 33 34  1  0
 34 35  1  0
 35 36  1  0
 35 37  1  0
 35 38  1  0
 14  5  1  0
 34 22  1  0
 33 24  1  0
M  END
>  <UniqueID>  (66) 
61

>  <SMILES>  (66) 
CN1/C(=C/C=C\C=Cc2ccccc2)Sc2ccccc21

>  <Energy>  (66) 
70.4073110977583

>  <Genealogy>  (66) 
CN1/C(=C/C=C\C=Cc2ccccc2)Sc2ccccc21 (cis-trans isomerization)
CN1/C(=C/C=C\C=Cc2ccccc2)Sc2ccccc21 (3D coordinates assigned)
CN1/C(=C/C=C\C=Cc2ccccc2)Sc2ccccc21 (nonaromatic ring conformer: 70.4073110977583 kcal/mol)

>  <smiles>  (66) 
CN1C(=CC=CC=Cc2ccccc2)Sc2ccccc21

>  <score_type>  (66) 
oracle

>  <origin>  (66) 
adg

>  <m_score__min__energy>  (66) 
-7.7999999999999998

>  <m_primary>  (66) 
energy

$$$$
66:0
     RDKit          3D

 62 64  0  0  0  0  0  0  0  0999 V2000
   57.7860   25.8820   44.4530 C   0  0  0  0  0  0  0  0  0  0  0  0
   58.0810   25.9160   45.9480 C   0  0  0  0  0  0  0  0  0  0  0  0
   57.3590   27.0840   46.6300 C   0  0  0  0  0  0  0  0  0  0  0  0
   58.2910   28.2590   46.8000 C   0  0  0  0  0  0  0  0  0  0  0  0
   58.9360   28.4570   48.0330 C   0  0  0  0  0  0  0  0  0  0  0  0
   59.7830   29.5610   48.2290 C   0  0  0  0  0  0  0  0  0  0  0  0
   60.4580   29.7980   49.4370 O   0  0  0  0  0  0  0  0  0  0  0  0
   60.5890   28.8700   50.5150 C   0  0  0  0  0  0  0  0  0  0  0  0
   59.4770   29.0680   51.5540 C   0  0  0  0  0  0  0  0  0  0  0  0
   58.2900   29.7020   50.9590 N   0  0  0  0  0  0  0  0  0  0  0  0
   57.3730   30.2670   51.9650 C   0  0  0  0  0  0  0  0  0  0  0  0
   56.9990   31.7000   51.5710 C   0  0  0  0  0  0  0  0  0  0  0  0
   58.2070   32.4790   51.0360 C   0  0  0  0  0  0  0  0  0  0  0  0
   58.2260   32.4860   49.6070 O   0  0  0  0  0  0  0  0  0  0  0  0
   59.2270   33.0590   48.8000 C   0  0  0  0  0  0  0  0  0  0  0  0
   60.5550   33.2020   49.2480 C   0  0  0  0  0  0  0  0  0  0  0  0
   61.5270   33.7750   48.4260 C   0  0  0  0  0  0  0  0  0  0  0  0
   61.1970   34.2120   47.1450 C   0  0  0  0  0  0  0  0  0  0  0  0
   59.8860   34.0780   46.6700 C   0  0  0  0  0  0  0  0  0  0  0  0
   59.5520   34.5150   45.3790 C   0  0  0  0  0  0  0  0  0  0  0  0
   58.2440   34.3810   44.9080 C   0  0  0  0  0  0  0  0  0  0  0  0
   57.2610   33.8120   45.7190 C   0  0  0  0  0  0  0  0  0  0  0  0
   57.5770   33.3720   47.0080 C   0  0  0  0  0  0  0  0  0  0  0  0
   58.8910   33.4970   47.4990 C   0  0  0  0  0  0  0  0  0  0  0  0
   59.9630   30.4750   47.1880 C   0  0  0  0  0  0  0  0  0  0  0  0
   59.3190   30.2940   45.9630 C   0  0  0  0  0  0  0  0  0  0  0  0
   58.4730   29.1890   45.7560 C   0  0  0  0  0  0  0  0  0  0  0  0
   57.7970   28.9850   44.5430 O   0  0  0  0  0  0  0  0  0  0  0  0
   56.4570   29.8990   43.9990 S   0  0  0  0  0  0  0  0  0  0  0  0
   56.4460   29.9090   42.2700 N   0  0  0  0  0  0  0  0  0  0  0  0
   55.1830   29.2780   44.4970 O   0  0  0  0  0  0  0  0  0  0  0  0
   56.5660   31.3110   44.5050 O   0  0  0  0  0  0  0  0  0  0  0  0
   56.7045   25.7574   44.2954 H   0  0  0  0  0  0  0  0  0  0  0  0
   58.1175   26.8243   43.9923 H   0  0  0  0  0  0  0  0  0  0  0  0
   58.3231   25.0398   43.9923 H   0  0  0  0  0  0  0  0  0  0  0  0
   57.7442   24.9722   46.4016 H   0  0  0  0  0  0  0  0  0  0  0  0
   59.1643   26.0483   46.0860 H   0  0  0  0  0  0  0  0  0  0  0  0
   56.5017   27.3892   46.0121 H   0  0  0  0  0  0  0  0  0  0  0  0
   57.0158   26.7574   47.6228 H   0  0  0  0  0  0  0  0  0  0  0  0
   58.7762   27.7408   48.8525 H   0  0  0  0  0  0  0  0  0  0  0  0
   60.5302   27.8463   50.1167 H   0  0  0  0  0  0  0  0  0  0  0  0
   61.5590   29.0394   51.0054 H   0  0  0  0  0  0  0  0  0  0  0  0
   59.1914   28.0877   51.9632 H   0  0  0  0  0  0  0  0  0  0  0  0
   59.8592   29.7271   52.3474 H   0  0  0  0  0  0  0  0  0  0  0  0
   58.6270   30.4800   50.3450 H   0  0  0  0  0  0  0  0  0  0  0  0
   56.4625   29.6520   52.0170 H   0  0  0  0  0  0  0  0  0  0  0  0
   57.8679   30.2752   52.9473 H   0  0  0  0  0  0  0  0  0  0  0  0
   56.2249   31.6638   50.7903 H   0  0  0  0  0  0  0  0  0  0  0  0
   56.6311   32.2161   52.4701 H   0  0  0  0  0  0  0  0  0  0  0  0
   58.1546   33.5160   51.3992 H   0  0  0  0  0  0  0  0  0  0  0  0
   59.1241   31.9884   51.3941 H   0  0  0  0  0  0  0  0  0  0  0  0
   60.8290   32.8584   50.2564 H   0  0  0  0  0  0  0  0  0  0  0  0
   62.5589   33.8820   48.7917 H   0  0  0  0  0  0  0  0  0  0  0  0
   61.9686   34.6639   46.5043 H   0  0  0  0  0  0  0  0  0  0  0  0
   60.3229   34.9646   44.7359 H   0  0  0  0  0  0  0  0  0  0  0  0
   57.9879   34.7249   43.8950 H   0  0  0  0  0  0  0  0  0  0  0  0
   56.2326   33.7092   45.3423 H   0  0  0  0  0  0  0  0  0  0  0  0
   56.7958   32.9263   47.6413 H   0  0  0  0  0  0  0  0  0  0  0  0
   60.6187   31.3459   47.3352 H   0  0  0  0  0  0  0  0  0  0  0  0
   59.4742   31.0214   45.1526 H   0  0  0  0  0  0  0  0  0  0  0  0
   55.7330   29.2070   41.9670 H   0  0  0  0  0  0  0  0  0  0  0  0
   57.3760   29.5510   41.9560 H   0  0  0  0  0  0  0  0  0  0  0  0
  1  2  1  0
  2  3  1  0
  3  4  1  0
  4  5  2  0
  5  6  1  0
  6  7  1  0
  7  8  1  0
  8  9  1  0
  9 10  1  0
 10 11  1  0
 11 12  1  0
 12 13  1  0
 13 14  1  0
 14 15  1  0
 15 16  2  0
 16 17  1  0
 17 18  2  0
 18 19  1  0
 19 20  2  0
 20 21  1  0
 21 22  2  0
 22 23  1  0
 23 24  2  0
  6 25  2  0
 25 26  1  0
 26 27  2  0
 27 28  1  0
 28 29  1  0
 29 30  1  0
 29 31  2  0
 29 32  2  0
 27  4  1  0
 24 15  1  0
 24 19  1  0
  1 33  1  0
  1 34  1  0
  1 35  1  0
  2 36  1  0
  2 37  1  0
  3 38  1  0
  3 39  1  0
  5 40  1  0
  8 41  1  0
  8 42  1  0
  9 43  1  0
  9 44  1  0
 10 45  1  0
 11 46  1  0
 11 47  1  0
 12 48  1  0
 12 49  1  0
 13 50  1  0
 13 51  1  0
 16 52  1  0
 17 53  1  0
 18 54  1  0
 20 55  1  0
 21 56  1  0
 22 57  1  0
 23 58  1  0
 25 59  1  0
 26 60  1  0
 30 61  1  0
 30 62  1  0
M  END
>  <UniqueID>  (67) 
62

>  <SMILES>  (67) 
CCCc1cc(OCCNCCCOc2cccc3ccccc23)ccc1OS(N)(=O)=O

>  <Energy>  (67) 
56.00373423831953

>  <Genealogy>  (67) 
CCCc1cc(OCCNCCCOc2cccc3ccccc23)ccc1OS(N)(=O)=O (3D coordinates assigned)
CCCc1cc(OCCNCCCOc2cccc3ccccc23)ccc1OS(N)(=O)=O (optimized conformer: 56.00373423831953 kcal/mol)

>  <smiles>  (67) 
CCCc1cc(OCCNCCCOc2cccc3ccccc23)ccc1OS(N)(=O)=O

>  <score_type>  (67) 
oracle

>  <origin>  (67) 
adg

>  <m_score__min__energy>  (67) 
-9.0199999999999996

>  <m_primary>  (67) 
energy

$$$$
67:0
     RDKit          3D

 60 63  0  0  1  0  0  0  0  0999 V2000
   50.6200   22.8980   45.2230 C   0  0  0  0  0  0  0  0  0  0  0  0
   51.7610   22.0600   45.2050 O   0  0  0  0  0  0  0  0  0  0  0  0
   52.4940   21.9790   46.3840 C   0  0  0  0  0  0  0  0  0  0  0  0
   52.3040   20.9880   47.3250 C   0  0  0  0  0  0  0  0  0  0  0  0
   53.0740   20.9660   48.4850 C   0  0  0  0  0  0  0  0  0  0  0  0
   54.0470   21.9320   48.7250 C   0  0  0  0  0  0  0  0  0  0  0  0
   54.2360   22.9220   47.7820 C   0  0  0  0  0  0  0  0  0  0  0  0
   53.4610   22.9390   46.6210 C   0  0  0  0  0  0  0  0  0  0  0  0
   53.6710   23.9770   45.6550 N   0  0  0  0  0  0  0  0  0  0  0  0
   54.8740   24.4910   45.6460 C   0  0  0  0  0  0  0  0  0  0  0  0
   56.0100   23.8200   45.3150 N   0  0  0  0  0  0  0  0  0  0  0  0
   57.0040   24.7050   45.4360 N   0  0  0  0  0  0  0  0  0  0  0  0
   56.4930   25.8780   45.8270 C   0  0  0  0  0  0  0  0  0  0  0  0
   57.1810   27.1360   46.0900 C   0  0  0  0  0  0  0  0  0  0  0  0
   57.6300   27.4430   47.2280 O   0  0  0  0  0  0  0  0  0  0  0  0
   57.3550   28.0670   45.0000 N   0  0  0  0  0  0  0  0  0  0  0  0
   58.0350   29.2720   45.3370 C   0  0  0  0  0  0  0  0  0  0  0  0
   59.3090   29.2370   45.8390 C   0  0  0  0  0  0  0  0  0  0  0  0
   59.9910   30.4080   46.1750 C   0  0  0  0  0  0  0  0  0  0  0  0
   59.4110   31.6590   46.0170 C   0  0  0  0  0  0  0  0  0  0  0  0
   60.1140   32.8340   46.3750 N   0  0  0  0  0  0  0  0  0  0  0  0
   59.5200   34.1610   46.3960 C   0  0  0  0  0  0  0  0  0  0  0  0
   59.3810   34.5880   47.8540 C   0  0  0  0  0  0  0  0  0  0  0  0
   60.5340   34.0730   48.5940 N   0  0  0  0  0  0  0  0  0  0  0  0
   60.4120   33.8210   49.9760 C   0  0  0  0  0  0  0  0  0  0  0  0
   61.5340   33.3000   50.7850 C   0  0  0  0  0  0  0  0  0  0  0  0
   59.2840   34.0630   50.5020 O   0  0  0  0  0  0  0  0  0  0  0  0
   61.7440   33.8570   47.8280 C   0  0  0  0  0  0  0  0  0  0  0  0
   61.5190   32.7680   46.7680 C   0  0  0  0  0  0  0  0  0  0  0  0
   58.1310   31.6770   45.5110 C   0  0  0  0  0  0  0  0  0  0  0  0
   57.4470   30.5060   45.1740 C   0  0  0  0  0  0  0  0  0  0  0  0
   56.1510   30.5420   44.6620 O   0  0  0  0  0  0  0  0  0  0  0  0
   55.9140   30.0940   43.3550 C   0  0  0  0  0  0  0  0  0  0  0  0
   55.1860   25.7260   45.9500 O   0  0  0  0  0  0  0  0  0  0  0  0
   50.3351   23.1072   46.2647 H   0  0  0  0  0  0  0  0  0  0  0  0
   50.8508   23.8428   44.7092 H   0  0  0  0  0  0  0  0  0  0  0  0
   49.7875   22.3950   44.7092 H   0  0  0  0  0  0  0  0  0  0  0  0
   51.5417   20.2127   47.1583 H   0  0  0  0  0  0  0  0  0  0  0  0
   52.9102   20.1698   49.2261 H   0  0  0  0  0  0  0  0  0  0  0  0
   54.6508   21.9070   49.6441 H   0  0  0  0  0  0  0  0  0  0  0  0
   54.9980   23.6983   47.9454 H   0  0  0  0  0  0  0  0  0  0  0  0
   56.1290   22.8310   45.0240 H   0  0  0  0  0  0  0  0  0  0  0  0
   57.0010   27.8560   44.0410 H   0  0  0  0  0  0  0  0  0  0  0  0
   59.8053   28.2656   45.9804 H   0  0  0  0  0  0  0  0  0  0  0  0
   61.0133   30.3374   46.5748 H   0  0  0  0  0  0  0  0  0  0  0  0
   60.1680   34.8693   45.8590 H   0  0  0  0  0  0  0  0  0  0  0  0
   58.5361   34.1488   45.9042 H   0  0  0  0  0  0  0  0  0  0  0  0
   59.3567   35.6858   47.9197 H   0  0  0  0  0  0  0  0  0  0  0  0
   58.4481   34.1892   48.2791 H   0  0  0  0  0  0  0  0  0  0  0  0
   61.2975   33.4098   51.8536 H   0  0  0  0  0  0  0  0  0  0  0  0
   61.6915   32.2366   50.5517 H   0  0  0  0  0  0  0  0  0  0  0  0
   62.4480   33.8658   50.5517 H   0  0  0  0  0  0  0  0  0  0  0  0
   62.0296   34.7949   47.3292 H   0  0  0  0  0  0  0  0  0  0  0  0
   62.5445   33.5324   48.5090 H   0  0  0  0  0  0  0  0  0  0  0  0
   62.1637   32.9517   45.8958 H   0  0  0  0  0  0  0  0  0  0  0  0
   61.7667   31.7743   47.1694 H   0  0  0  0  0  0  0  0  0  0  0  0
   57.6298   32.6456   45.3671 H   0  0  0  0  0  0  0  0  0  0  0  0
   55.3999   29.1221   43.3881 H   0  0  0  0  0  0  0  0  0  0  0  0
   55.2842   30.8242   42.8257 H   0  0  0  0  0  0  0  0  0  0  0  0
   56.8720   29.9842   42.8257 H   0  0  0  0  0  0  0  0  0  0  0  0
  1  2  1  0
  2  3  1  0
  3  4  2  0
  4  5  1  0
  5  6  2  0
  6  7  1  0
  7  8  2  0
  8  9  1  0
  9 10  2  0
 10 11  1  0
 11 12  1  0
 12 13  2  0
 13 14  1  0
 14 15  2  0
 14 16  1  0
 16 17  1  0
 17 18  2  0
 18 19  1  0
 19 20  2  0
 20 21  1  0
 21 22  1  0
 22 23  1  0
 23 24  1  0
 24 25  1  0
 25 26  1  0
 25 27  2  0
 24 28  1  0
 28 29  1  0
 20 30  1  0
 30 31  2  0
 31 32  1  0
 32 33  1  0
 13 34  1  0
  8  3  1  0
 34 10  1  0
 31 17  1  0
 29 21  1  0
  1 35  1  0
  1 36  1  0
  1 37  1  0
  4 38  1  0
  5 39  1  0
  6 40  1  0
  7 41  1  0
 11 42  1  0
 16 43  1  0
 18 44  1  0
 19 45  1  0
 22 46  1  0
 22 47  1  0
 23 48  1  0
 23 49  1  0
 26 50  1  0
 26 51  1  0
 26 52  1  0
 28 53  1  0
 28 54  1  0
 29 55  1  0
 29 56  1  0
 30 57  1  0
 33 58  1  0
 33 59  1  0
 33 60  1  0
M  END
>  <smiles>  (68) 
COc1ccccc1N=c1[nH]nc(C(=O)Nc2ccc(N3CCN(C(C)=O)CC3)cc2OC)o1

>  <score_type>  (68) 
oracle

>  <origin>  (68) 
adg

>  <m_score__min__energy>  (68) 
-8.4399999999999995

>  <m_primary>  (68) 
energy

$$$$
68:0
     RDKit          3D

 28 30  0  0  0  0  0  0  0  0999 V2000
   57.1818   33.3415   43.1053 H   0  0  0  0  0  0  0  0  0  0  0  0
   57.7690   32.7130   43.7910 C   0  0  0  0  0  0  0  0  0  0  0  0
   58.0100   31.4820   43.4330 N   0  0  0  0  0  0  0  0  0  0  0  0
   58.1040   30.3290   44.2830 C   0  0  0  0  0  0  0  0  0  0  0  0
   59.2880   30.0450   45.0170 C   0  0  0  0  0  0  0  0  0  0  0  0
   60.1630   30.7037   44.9147 H   0  0  0  0  0  0  0  0  0  0  0  0
   59.3520   28.9300   45.8730 C   0  0  0  0  0  0  0  0  0  0  0  0
   60.2698   28.6932   46.4313 H   0  0  0  0  0  0  0  0  0  0  0  0
   58.2140   28.1370   45.9890 C   0  0  0  0  0  0  0  0  0  0  0  0
   58.0520   27.0380   46.7500 N   0  0  0  0  0  0  0  0  0  0  0  0
   56.7650   26.6950   46.4860 C   0  0  0  0  0  0  0  0  0  0  0  0
   56.2070   25.6950   47.0100 O   0  0  0  0  0  0  0  0  0  0  0  0
   56.1320   27.5160   45.6160 N   0  0  0  0  0  0  0  0  0  0  0  0
   55.1490   27.4560   45.2650 H   0  0  0  0  0  0  0  0  0  0  0  0
   57.0670   28.4240   45.3110 C   0  0  0  0  0  0  0  0  0  0  0  0
   56.9630   29.5180   44.4550 C   0  0  0  0  0  0  0  0  0  0  0  0
   56.0223   29.7419   43.9307 H   0  0  0  0  0  0  0  0  0  0  0  0
   58.2330   33.3200   45.0580 C   0  0  0  0  0  0  0  0  0  0  0  0
   57.7920   32.8420   46.3050 C   0  0  0  0  0  0  0  0  0  0  0  0
   57.0703   32.0131   46.3502 H   0  0  0  0  0  0  0  0  0  0  0  0
   58.2680   33.4170   47.4880 C   0  0  0  0  0  0  0  0  0  0  0  0
   57.9072   33.0514   48.4607 H   0  0  0  0  0  0  0  0  0  0  0  0
   59.2020   34.4560   47.4350 C   0  0  0  0  0  0  0  0  0  0  0  0
   59.5712   34.9117   48.3656 H   0  0  0  0  0  0  0  0  0  0  0  0
   59.6660   34.9150   46.2010 C   0  0  0  0  0  0  0  0  0  0  0  0
   60.4058   35.7281   46.1608 H   0  0  0  0  0  0  0  0  0  0  0  0
   59.1920   34.3430   45.0150 C   0  0  0  0  0  0  0  0  0  0  0  0
   59.5728   34.6968   44.0455 H   0  0  0  0  0  0  0  0  0  0  0  0
  1  2  1  0
  2  3  2  0
  3  4  1  0
  4  5  2  0
  5  6  1  0
  5  7  1  0
  7  8  1  0
  7  9  2  0
  9 10  1  0
 10 11  1  0
 11 12  2  0
 11 13  1  0
 13 14  1  0
 13 15  1  0
 15 16  2  0
 16 17  1  0
  2 18  1  0
 18 19  2  0
 19 20  1  0
 19 21  1  0
 21 22  1  0
 21 23  2  0
 23 24  1  0
 23 25  1  0
 25 26  1  0
 25 27  2  0
 27 28  1  0
 16  4  1  0
 27 18  1  0
 15  9  1  0
M  CHG  1  10  -1
M  END
>  <UniqueID>  (69) 
63

>  <SMILES>  (69) 
O=c1[n-]c2ccc(/N=C\c3ccccc3)cc2[nH]1

>  <Energy>  (69) 
78.94663081838829

>  <Genealogy>  (69) 
O=c1[n-]c2ccc(N=Cc3ccccc3)cc2[nH]1 (protonated)
O=c1[n-]c2ccc(/N=C\c3ccccc3)cc2[nH]1 (cis-trans isomerization)
O=c1[n-]c2ccc(/N=C\c3ccccc3)cc2[nH]1 (3D coordinates assigned)
O=c1[n-]c2ccc(/N=C\c3ccccc3)cc2[nH]1 (optimized conformer: 78.94663081838829 kcal/mol)

>  <smiles>  (69) 
O=c1[nH]c2ccc(N=Cc3ccccc3)cc2[nH]1

>  <score_type>  (69) 
oracle

>  <origin>  (69) 
adg

>  <m_score__min__energy>  (69) 
-9.1400000000000006

>  <m_primary>  (69) 
energy

$$$$
69:0
     RDKit          3D

 36 38  0  0  0  0  0  0  0  0999 V2000
   58.4730   34.9160   44.8660 C   0  0  0  0  0  0  0  0  0  0  0  0
   58.6470   33.5800   45.4540 N   0  0  0  0  0  0  0  0  0  0  0  0
   59.2110   33.4190   46.7010 C   0  0  0  0  0  0  0  0  0  0  0  0
   59.6120   34.4350   47.3350 O   0  0  0  0  0  0  0  0  0  0  0  0
   59.3380   32.1580   47.2660 N   0  0  0  0  0  0  0  0  0  0  0  0
   59.9920   32.0020   48.5810 C   0  0  0  0  0  0  0  0  0  0  0  0
   61.4190   32.4810   48.5200 C   0  0  0  0  0  0  0  0  0  0  0  0
   62.2630   32.0630   47.4770 C   0  0  0  0  0  0  0  0  0  0  0  0
   63.5780   32.5340   47.4040 C   0  0  0  0  0  0  0  0  0  0  0  0
   64.0590   33.4270   48.3650 C   0  0  0  0  0  0  0  0  0  0  0  0
   63.2240   33.8510   49.4020 C   0  0  0  0  0  0  0  0  0  0  0  0
   61.9090   33.3820   49.4810 C   0  0  0  0  0  0  0  0  0  0  0  0
   58.8880   31.0480   46.5850 C   0  0  0  0  0  0  0  0  0  0  0  0
   58.9930   29.8930   47.0800 O   0  0  0  0  0  0  0  0  0  0  0  0
   58.3050   31.2300   45.3360 C   0  0  0  0  0  0  0  0  0  0  0  0
   58.1920   32.4710   44.8100 C   0  0  0  0  0  0  0  0  0  0  0  0
   57.5710   32.4310   43.6140 N   0  0  0  0  0  0  0  0  0  0  0  0
   57.3220   31.1060   43.4480 C   0  0  0  0  0  0  0  0  0  0  0  0
   57.7660   30.3440   44.4780 N   0  0  0  0  0  0  0  0  0  0  0  0
   57.5910   28.8990   44.6240 C   0  0  0  0  0  0  0  0  0  0  0  0
   56.1970   28.5900   45.0690 C   0  0  0  0  0  0  0  0  0  0  0  0
   55.9380   27.4840   45.6130 O   0  0  0  0  0  0  0  0  0  0  0  0
   55.1800   29.5140   44.8690 O   0  0  0  0  0  0  0  0  0  0  0  0
   58.3760   35.6606   45.6698 H   0  0  0  0  0  0  0  0  0  0  0  0
   59.3470   35.1596   44.2441 H   0  0  0  0  0  0  0  0  0  0  0  0
   57.5658   34.9276   44.2441 H   0  0  0  0  0  0  0  0  0  0  0  0
   59.4438   32.5919   49.3303 H   0  0  0  0  0  0  0  0  0  0  0  0
   59.9853   30.9374   48.8579 H   0  0  0  0  0  0  0  0  0  0  0  0
   61.8883   31.3632   46.7156 H   0  0  0  0  0  0  0  0  0  0  0  0
   64.2354   32.2004   46.5876 H   0  0  0  0  0  0  0  0  0  0  0  0
   65.0936   33.7957   48.3053 H   0  0  0  0  0  0  0  0  0  0  0  0
   63.6019   34.5552   50.1578 H   0  0  0  0  0  0  0  0  0  0  0  0
   61.2553   33.7197   50.2987 H   0  0  0  0  0  0  0  0  0  0  0  0
   56.8111   30.6924   42.5660 H   0  0  0  0  0  0  0  0  0  0  0  0
   57.7804   28.4105   43.6568 H   0  0  0  0  0  0  0  0  0  0  0  0
   58.2996   28.5260   45.3782 H   0  0  0  0  0  0  0  0  0  0  0  0
  1  2  1  0
  2  3  1  0
  3  4  2  0
  3  5  1  0
  5  6  1  0
  6  7  1  0
  7  8  2  0
  8  9  1  0
  9 10  2  0
 10 11  1  0
 11 12  2  0
  5 13  1  0
 13 14  2  0
 13 15  1  0
 15 16  2  0
 16 17  1  0
 17 18  2  0
 18 19  1  0
 19 20  1  0
 20 21  1  0
 21 22  2  0
 21 23  1  0
 16  2  1  0
 12  7  1  0
 19 15  1  0
  1 24  1  0
  1 25  1  0
  1 26  1  0
  6 27  1  0
  6 28  1  0
  8 29  1  0
  9 30  1  0
 10 31  1  0
 11 32  1  0
 12 33  1  0
 18 34  1  0
 20 35  1  0
 20 36  1  0
M  CHG  1  23  -1
M  END
>  <UniqueID>  (70) 
64

>  <SMILES>  (70) 
Cn1c(=O)n(Cc2ccccc2)c(=O)c2c1ncn2CC(=O)[O-]

>  <Energy>  (70) 
82.19875523921274

>  <Genealogy>  (70) 
Cn1c(=O)n(Cc2ccccc2)c(=O)c2c1ncn2CC(=O)[O-] (protonated)
Cn1c(=O)n(Cc2ccccc2)c(=O)c2c1ncn2CC(=O)[O-] (3D coordinates assigned)
Cn1c(=O)n(Cc2ccccc2)c(=O)c2c1ncn2CC(=O)[O-] (optimized conformer: 82.19875523921274 kcal/mol)

>  <smiles>  (70) 
Cn1c(=O)n(Cc2ccccc2)c(=O)c2c1ncn2CC(=O)O

>  <score_type>  (70) 
oracle

>  <origin>  (70) 
adg

>  <m_score__min__energy>  (70) 
-9.6799999999999997

>  <m_primary>  (70) 
energy

$$$$
70:0
     RDKit          3D

 35 37  0  0  0  0  0  0  0  0999 V2000
   56.4500   31.5730   44.5250 O   0  0  0  0  0  0  0  0  0  0  0  0
   57.4490   31.9450   45.1980 C   0  0  0  0  0  0  0  0  0  0  0  0
   57.6390   33.2700   45.4380 N   0  0  0  0  0  0  0  0  0  0  0  0
   58.7190   33.7160   46.1340 C   0  0  0  0  0  0  0  0  0  0  0  0
   58.8430   34.9530   46.3510 O   0  0  0  0  0  0  0  0  0  0  0  0
   59.6510   32.8290   46.6040 N   0  0  0  0  0  0  0  0  0  0  0  0
   60.8100   33.2820   47.3320 C   0  0  0  0  0  0  0  0  0  0  0  0
   62.0880   33.2190   46.7500 C   0  0  0  0  0  0  0  0  0  0  0  0
   63.2100   33.6510   47.4640 C   0  0  0  0  0  0  0  0  0  0  0  0
   63.0680   34.1440   48.7630 C   0  0  0  0  0  0  0  0  0  0  0  0
   61.8010   34.2050   49.3520 C   0  0  0  0  0  0  0  0  0  0  0  0
   60.6770   33.7750   48.6420 C   0  0  0  0  0  0  0  0  0  0  0  0
   59.4850   31.4900   46.3890 C   0  0  0  0  0  0  0  0  0  0  0  0
   58.3750   31.0080   45.6850 C   0  0  0  0  0  0  0  0  0  0  0  0
   58.2100   29.5490   45.4620 C   0  0  0  0  0  0  0  0  0  0  0  0
   58.1430   28.6620   46.5490 C   0  0  0  0  0  0  0  0  0  0  0  0
   57.9980   27.2880   46.3350 C   0  0  0  0  0  0  0  0  0  0  0  0
   57.9390   26.7720   45.0280 C   0  0  0  0  0  0  0  0  0  0  0  0
   57.7310   25.2960   44.7990 C   0  0  0  0  0  0  0  0  0  0  0  0
   58.7460   24.5620   45.3900 F   0  0  0  0  0  0  0  0  0  0  0  0
   56.5280   24.8820   45.3410 F   0  0  0  0  0  0  0  0  0  0  0  0
   57.7250   25.0440   43.4410 F   0  0  0  0  0  0  0  0  0  0  0  0
   57.9860   27.6630   43.9420 C   0  0  0  0  0  0  0  0  0  0  0  0
   58.1320   29.0350   44.1570 C   0  0  0  0  0  0  0  0  0  0  0  0
   56.9400   33.9600   45.0770 H   0  0  0  0  0  0  0  0  0  0  0  0
   62.2059   32.8282   45.7285 H   0  0  0  0  0  0  0  0  0  0  0  0
   64.2068   33.6024   47.0015 H   0  0  0  0  0  0  0  0  0  0  0  0
   63.9520   34.4840   49.3224 H   0  0  0  0  0  0  0  0  0  0  0  0
   61.6892   34.5920   50.3756 H   0  0  0  0  0  0  0  0  0  0  0  0
   59.6828   33.8224   49.1104 H   0  0  0  0  0  0  0  0  0  0  0  0
   60.2332   30.7815   46.7740 H   0  0  0  0  0  0  0  0  0  0  0  0
   58.2051   29.0512   47.5760 H   0  0  0  0  0  0  0  0  0  0  0  0
   57.9296   26.6056   47.1951 H   0  0  0  0  0  0  0  0  0  0  0  0
   57.9072   27.2767   42.9151 H   0  0  0  0  0  0  0  0  0  0  0  0
   58.1864   29.7190   43.2973 H   0  0  0  0  0  0  0  0  0  0  0  0
  1  2  2  0
  2  3  1  0
  3  4  1  0
  4  5  2  0
  4  6  1  0
  6  7  1  0
  7  8  2  0
  8  9  1  0
  9 10  2  0
 10 11  1  0
 11 12  2  0
  6 13  1  0
 13 14  2  0
 14 15  1  0
 15 16  2  0
 16 17  1  0
 17 18  2  0
 18 19  1  0
 19 20  1  0
 19 21  1  0
 19 22  1  0
 18 23  1  0
 23 24  2  0
 14  2  1  0
 24 15  1  0
 12  7  1  0
  3 25  1  0
  8 26  1  0
  9 27  1  0
 10 28  1  0
 11 29  1  0
 12 30  1  0
 13 31  1  0
 16 32  1  0
 17 33  1  0
 23 34  1  0
 24 35  1  0
M  END
>  <UniqueID>  (71) 
65

>  <SMILES>  (71) 
O=c1[nH]c(=O)n(-c2ccccc2)cc1-c1ccc(C(F)(F)F)cc1

>  <Energy>  (71) 
54.11577509390263

>  <Genealogy>  (71) 
O=c1[nH]c(=O)n(-c2ccccc2)cc1-c1ccc(C(F)(F)F)cc1 (3D coordinates assigned)
O=c1[nH]c(=O)n(-c2ccccc2)cc1-c1ccc(C(F)(F)F)cc1 (optimized conformer: 54.11577509390263 kcal/mol)

>  <smiles>  (71) 
O=c1[nH]c(=O)n(-c2ccccc2)cc1-c1ccc(C(F)(F)F)cc1

>  <score_type>  (71) 
oracle

>  <origin>  (71) 
adg

>  <m_score__min__energy>  (71) 
-6.9000000000000004

>  <m_primary>  (71) 
energy

$$$$
71:0
     RDKit          3D

 41 44  0  0  0  0  0  0  0  0999 V2000
   56.5932   21.6695   41.4427 H   0  0  0  0  0  0  0  0  0  0  0  0
   56.6480   21.9460   42.5060 C   0  0  0  0  0  0  0  0  0  0  0  0
   55.8250   22.9580   43.0080 C   0  0  0  0  0  0  0  0  0  0  0  0
   55.1267   23.4816   42.3385 H   0  0  0  0  0  0  0  0  0  0  0  0
   55.8890   23.3050   44.3610 C   0  0  0  0  0  0  0  0  0  0  0  0
   55.2529   24.1140   44.7496 H   0  0  0  0  0  0  0  0  0  0  0  0
   56.7620   22.6250   45.2260 C   0  0  0  0  0  0  0  0  0  0  0  0
   56.8360   22.9780   46.6150 N   0  0  0  0  0  0  0  0  0  0  0  0
   56.8390   22.0700   47.5790 N   0  0  0  0  0  0  0  0  0  0  0  0
   57.0130   22.7170   48.7480 C   0  0  0  0  0  0  0  0  0  0  0  0
   56.9940   22.0480   50.0860 C   0  0  0  0  0  0  0  0  0  0  0  0
   55.7010   22.0060   50.5760 F   0  0  0  0  0  0  0  0  0  0  0  0
   57.7910   22.7580   50.9640 F   0  0  0  0  0  0  0  0  0  0  0  0
   57.4750   20.7570   49.9740 F   0  0  0  0  0  0  0  0  0  0  0  0
   57.1040   24.0790   48.5270 C   0  0  0  0  0  0  0  0  0  0  0  0
   57.2414   24.8764   49.2722 H   0  0  0  0  0  0  0  0  0  0  0  0
   56.9830   24.2100   47.1570 C   0  0  0  0  0  0  0  0  0  0  0  0
   56.9090   25.5020   46.4480 C   0  0  0  0  0  0  0  0  0  0  0  0
   55.7710   26.2290   46.3520 N   0  0  0  0  0  0  0  0  0  0  0  0
   55.9060   27.3410   45.6310 N   0  0  0  0  0  0  0  0  0  0  0  0
   57.1530   27.5090   45.1430 C   0  0  0  0  0  0  0  0  0  0  0  0
   57.4770   28.5240   44.3950 N   0  0  0  0  0  0  0  0  0  0  0  0
   57.6560   29.8780   44.8400 C   0  0  0  0  0  0  0  0  0  0  0  0
   58.1640   30.1540   46.1240 C   0  0  0  0  0  0  0  0  0  0  0  0
   58.4424   29.3248   46.7910 H   0  0  0  0  0  0  0  0  0  0  0  0
   58.3170   31.4740   46.5570 C   0  0  0  0  0  0  0  0  0  0  0  0
   58.9760   31.8020   48.1500 Cl  0  0  0  0  0  0  0  0  0  0  0  0
   57.9400   32.5300   45.7250 C   0  0  0  0  0  0  0  0  0  0  0  0
   58.0688   33.5689   46.0629 H   0  0  0  0  0  0  0  0  0  0  0  0
   57.3990   32.2680   44.4630 C   0  0  0  0  0  0  0  0  0  0  0  0
   57.0941   33.1033   43.8154 H   0  0  0  0  0  0  0  0  0  0  0  0
   57.2420   30.9460   44.0160 C   0  0  0  0  0  0  0  0  0  0  0  0
   56.6650   30.6770   42.6550 C   0  0  0  0  0  0  0  0  0  0  0  0
   55.6728   30.2144   42.7623 H   0  0  0  0  0  0  0  0  0  0  0  0
   56.5704   31.6239   42.1032 H   0  0  0  0  0  0  0  0  0  0  0  0
   57.3294   29.9958   42.1032 H   0  0  0  0  0  0  0  0  0  0  0  0
   58.1580   26.2230   45.5700 S   0  0  0  0  0  0  0  0  0  0  0  0
   57.6040   21.6280   44.7100 C   0  0  0  0  0  0  0  0  0  0  0  0
   58.3159   21.1145   45.3730 H   0  0  0  0  0  0  0  0  0  0  0  0
   57.5410   21.2850   43.3550 C   0  0  0  0  0  0  0  0  0  0  0  0
   58.1946   20.4946   42.9573 H   0  0  0  0  0  0  0  0  0  0  0  0
  1  2  1  0
  2  3  2  0
  3  4  1  0
  3  5  1  0
  5  6  1  0
  5  7  2  0
  7  8  1  0
  8  9  1  0
  9 10  2  0
 10 11  1  0
 11 12  1  0
 11 13  1  0
 11 14  1  0
 10 15  1  0
 15 16  1  0
 15 17  2  0
 17 18  1  0
 18 19  2  0
 19 20  1  0
 20 21  1  0
 21 22  2  0
 22 23  1  0
 23 24  2  0
 24 25  1  0
 24 26  1  0
 26 27  1  0
 26 28  2  0
 28 29  1  0
 28 30  1  0
 30 31  1  0
 30 32  2  0
 32 33  1  0
 33 34  1  0
 33 35  1  0
 33 36  1  0
 21 37  1  0
  7 38  1  0
 38 39  1  0
 38 40  2  0
 40 41  1  0
 40  2  1  0
 17  8  1  0
 37 18  1  0
 32 23  1  0
M  CHG  1  20  -1
M  END
>  <UniqueID>  (72) 
66

>  <SMILES>  (72) 
Cc1ccc(Cl)cc1/N=c1/[n-]nc(-c2cc(C(F)(F)F)nn2-c2ccccc2)s1

>  <Energy>  (72) 
122.58934263523282

>  <Genealogy>  (72) 
Cc1ccc(Cl)cc1N=c1[n-]nc(-c2cc(C(F)(F)F)nn2-c2ccccc2)s1 (protonated)
Cc1ccc(Cl)cc1/N=c1/[n-]nc(-c2cc(C(F)(F)F)nn2-c2ccccc2)s1 (cis-trans isomerization)
Cc1ccc(Cl)cc1/N=c1/[n-]nc(-c2cc(C(F)(F)F)nn2-c2ccccc2)s1 (3D coordinates assigned)
Cc1ccc(Cl)cc1/N=c1/[n-]nc(-c2cc(C(F)(F)F)nn2-c2ccccc2)s1 (optimized conformer: 122.58934263523282 kcal/mol)

>  <smiles>  (72) 
Cc1ccc(Cl)cc1N=c1[nH]nc(-c2cc(C(F)(F)F)nn2-c2ccccc2)s1

>  <score_type>  (72) 
oracle

>  <origin>  (72) 
adg

>  <m_score__min__energy>  (72) 
-9.5800000000000001

>  <m_primary>  (72) 
energy

$$$$
72:0
     RDKit          3D

 25 26  0  0  1  0  0  0  0  0999 V2000
   58.8800   35.1350   47.5270 O   0  0  0  0  0  0  0  0  0  0  0  0
   59.2180   34.3340   46.2640 S   0  0  0  0  0  0  0  0  0  0  0  0
   59.5730   35.4000   45.2760 O   0  0  0  0  0  0  0  0  0  0  0  0
   57.7990   33.4650   45.9150 N   0  0  0  0  0  0  0  0  0  0  0  0
   57.6860   32.5890   44.9850 C   0  0  0  0  0  0  0  0  0  0  0  0
   58.0670   32.8880   43.7010 C   0  0  0  0  0  0  0  0  0  0  0  0
   57.9710   31.9930   42.6590 C   0  0  0  0  0  0  0  0  0  0  0  0
   57.4650   30.7660   42.9830 N   0  0  0  0  0  0  0  0  0  0  0  0
   57.0930   30.4870   44.2590 C   0  0  0  0  0  0  0  0  0  0  0  0
   57.1990   31.3850   45.2550 N   0  0  0  0  0  0  0  0  0  0  0  0
   60.5750   33.3450   46.7370 C   0  0  0  0  0  0  0  0  0  0  0  0
   60.4160   31.9950   47.0800 C   0  0  0  0  0  0  0  0  0  0  0  0
   61.4820   31.2090   47.4570 C   0  0  0  0  0  0  0  0  0  0  0  0
   62.7440   31.7170   47.5110 C   0  0  0  0  0  0  0  0  0  0  0  0
   62.9420   33.0280   47.1840 C   0  0  0  0  0  0  0  0  0  0  0  0
   64.2060   33.5530   47.2320 F   0  0  0  0  0  0  0  0  0  0  0  0
   61.8710   33.8190   46.8050 C   0  0  0  0  0  0  0  0  0  0  0  0
   58.4685   33.8910   43.4942 H   0  0  0  0  0  0  0  0  0  0  0  0
   58.2808   32.2486   41.6349 H   0  0  0  0  0  0  0  0  0  0  0  0
   57.3670   30.0470   42.2470 H   0  0  0  0  0  0  0  0  0  0  0  0
   56.6898   29.4892   44.4866 H   0  0  0  0  0  0  0  0  0  0  0  0
   59.4103   31.5506   47.0470 H   0  0  0  0  0  0  0  0  0  0  0  0
   61.3112   30.1543   47.7186 H   0  0  0  0  0  0  0  0  0  0  0  0
   63.5900   31.0821   47.8130 H   0  0  0  0  0  0  0  0  0  0  0  0
   62.0601   34.8714   46.5466 H   0  0  0  0  0  0  0  0  0  0  0  0
  1  2  2  0
  2  3  2  0
  2  4  1  0
  4  5  2  0
  5  6  1  0
  6  7  2  0
  7  8  1  0
  8  9  1  0
  9 10  2  0
  2 11  1  0
 11 12  2  0
 12 13  1  0
 13 14  2  0
 14 15  1  0
 15 16  1  0
 15 17  2  0
 10  5  1  0
 17 11  1  0
  6 18  1  0
  7 19  1  0
  8 20  1  0
  9 21  1  0
 12 22  1  0
 13 23  1  0
 14 24  1  0
 17 25  1  0
M  END
>  <smiles>  (73) 
O=S(=O)(N=c1cc[nH]cn1)c1cccc(F)c1

>  <score_type>  (73) 
oracle

>  <origin>  (73) 
adg

>  <m_score__min__energy>  (73) 
-6.75

>  <m_primary>  (73) 
energy

$$$$
73:0
     RDKit          3D

 33 35  0  0  0  0  0  0  0  0999 V2000
   59.6660   35.0150   46.3910 C   0  0  0  0  0  0  0  0  0  0  0  0
   58.3650   34.2370   46.2450 C   0  0  0  0  0  0  0  0  0  0  0  0
   58.0880   33.7340   44.5090 S   0  0  0  0  0  0  0  0  0  0  0  0
   57.8390   31.9940   44.8780 C   0  0  0  0  0  0  0  0  0  0  0  0
   56.7730   31.3000   44.2980 C   0  0  0  0  0  0  0  0  0  0  0  0
   56.5830   29.9430   44.5740 C   0  0  0  0  0  0  0  0  0  0  0  0
   57.4640   29.2590   45.4310 C   0  0  0  0  0  0  0  0  0  0  0  0
   57.2620   27.8180   45.7270 C   0  0  0  0  0  0  0  0  0  0  0  0
   58.2580   26.9280   46.1440 C   0  0  0  0  0  0  0  0  0  0  0  0
   57.6190   25.7180   46.2950 C   0  0  0  0  0  0  0  0  0  0  0  0
   58.1120   24.4760   46.6910 C   0  0  0  0  0  0  0  0  0  0  0  0
   57.2070   23.4000   46.7520 C   0  0  0  0  0  0  0  0  0  0  0  0
   55.8470   23.5910   46.4190 C   0  0  0  0  0  0  0  0  0  0  0  0
   55.3810   24.8580   46.0240 C   0  0  0  0  0  0  0  0  0  0  0  0
   56.3010   25.9050   45.9750 C   0  0  0  0  0  0  0  0  0  0  0  0
   56.0680   27.1800   45.6280 N   0  0  0  0  0  0  0  0  0  0  0  0
   58.5390   29.9650   46.0030 C   0  0  0  0  0  0  0  0  0  0  0  0
   58.7270   31.3200   45.7230 C   0  0  0  0  0  0  0  0  0  0  0  0
   59.8939   35.1513   47.4585 H   0  0  0  0  0  0  0  0  0  0  0  0
   60.4829   34.4570   45.9100 H   0  0  0  0  0  0  0  0  0  0  0  0
   59.5610   35.9987   45.9100 H   0  0  0  0  0  0  0  0  0  0  0  0
   58.4119   33.3374   46.8763 H   0  0  0  0  0  0  0  0  0  0  0  0
   57.5336   34.8862   46.5569 H   0  0  0  0  0  0  0  0  0  0  0  0
   56.0812   31.8238   43.6219 H   0  0  0  0  0  0  0  0  0  0  0  0
   55.7383   29.4061   44.1177 H   0  0  0  0  0  0  0  0  0  0  0  0
   59.3223   27.1478   46.3144 H   0  0  0  0  0  0  0  0  0  0  0  0
   59.1732   24.3413   46.9473 H   0  0  0  0  0  0  0  0  0  0  0  0
   57.5601   22.4050   47.0605 H   0  0  0  0  0  0  0  0  0  0  0  0
   55.1481   22.7431   46.4690 H   0  0  0  0  0  0  0  0  0  0  0  0
   54.3247   25.0179   45.7621 H   0  0  0  0  0  0  0  0  0  0  0  0
   55.1520   27.5780   45.3220 H   0  0  0  0  0  0  0  0  0  0  0  0
   59.2367   29.4451   46.6760 H   0  0  0  0  0  0  0  0  0  0  0  0
   59.5761   31.8592   46.1683 H   0  0  0  0  0  0  0  0  0  0  0  0
  1  2  1  0
  2  3  1  0
  3  4  1  0
  4  5  2  0
  5  6  1  0
  6  7  2  0
  7  8  1  0
  8  9  2  0
  9 10  1  0
 10 11  2  0
 11 12  1  0
 12 13  2  0
 13 14  1  0
 14 15  2  0
 15 16  1  0
  7 17  1  0
 17 18  2  0
 18  4  1  0
 16  8  1  0
 15 10  1  0
  1 19  1  0
  1 20  1  0
  1 21  1  0
  2 22  1  0
  2 23  1  0
  5 24  1  0
  6 25  1  0
  9 26  1  0
 11 27  1  0
 12 28  1  0
 13 29  1  0
 14 30  1  0
 16 31  1  0
 17 32  1  0
 18 33  1  0
M  END
>  <UniqueID>  (74) 
67

>  <SMILES>  (74) 
CCSc1ccc(-c2cc3ccccc3[nH]2)cc1

>  <Energy>  (74) 
64.29074355846758

>  <Genealogy>  (74) 
CCSc1ccc(-c2cc3ccccc3[nH]2)cc1 (3D coordinates assigned)
CCSc1ccc(-c2cc3ccccc3[nH]2)cc1 (optimized conformer: 64.29074355846758 kcal/mol)

>  <smiles>  (74) 
CCSc1ccc(-c2cc3ccccc3[nH]2)cc1

>  <score_type>  (74) 
oracle

>  <origin>  (74) 
adg

>  <m_score__min__energy>  (74) 
-7.0899999999999999

>  <m_primary>  (74) 
energy

$$$$
74:0
     RDKit          3D

 31 32  0  0  0  0  0  0  0  0999 V2000
   57.6170   32.3120   41.3530 C   0  0  0  0  0  0  0  0  0  0  0  0
   57.1780   31.2940   42.3010 N   0  0  0  0  0  0  0  0  0  0  0  0
   56.2730   30.3390   41.8900 O   0  0  0  0  0  0  0  0  0  0  0  0
   57.6190   31.2880   43.4970 C   0  0  0  0  0  0  0  0  0  0  0  0
   58.0690   31.2820   44.7280 C   0  0  0  0  0  0  0  0  0  0  0  0
   58.4820   32.5520   45.3900 C   0  0  0  0  0  0  0  0  0  0  0  0
   58.4430   32.6580   46.7940 C   0  0  0  0  0  0  0  0  0  0  0  0
   58.8290   33.8440   47.4270 C   0  0  0  0  0  0  0  0  0  0  0  0
   59.2540   34.9370   46.6720 C   0  0  0  0  0  0  0  0  0  0  0  0
   59.2930   34.8500   45.2790 C   0  0  0  0  0  0  0  0  0  0  0  0
   58.9100   33.6660   44.6390 C   0  0  0  0  0  0  0  0  0  0  0  0
   58.2060   30.0210   45.4150 N   0  0  0  0  0  0  0  0  0  0  0  0
   59.3570   29.7760   46.1130 C   0  0  0  0  0  0  0  0  0  0  0  0
   59.5360   28.5670   46.7880 C   0  0  0  0  0  0  0  0  0  0  0  0
   58.5310   27.6030   46.7430 C   0  0  0  0  0  0  0  0  0  0  0  0
   57.3610   27.8570   46.0290 C   0  0  0  0  0  0  0  0  0  0  0  0
   57.2080   29.0790   45.3660 C   0  0  0  0  0  0  0  0  0  0  0  0
   56.1390   29.3050   44.7360 O   0  0  0  0  0  0  0  0  0  0  0  0
   57.9942   33.1868   41.9029 H   0  0  0  0  0  0  0  0  0  0  0  0
   58.4186   31.9028   40.7206 H   0  0  0  0  0  0  0  0  0  0  0  0
   56.7692   32.6141   40.7206 H   0  0  0  0  0  0  0  0  0  0  0  0
   55.9060   29.6460   42.5330 H   0  0  0  0  0  0  0  0  0  0  0  0
   58.1065   31.8018   47.3970 H   0  0  0  0  0  0  0  0  0  0  0  0
   58.7973   33.9150   48.5242 H   0  0  0  0  0  0  0  0  0  0  0  0
   59.5584   35.8673   47.1739 H   0  0  0  0  0  0  0  0  0  0  0  0
   59.6252   35.7134   44.6838 H   0  0  0  0  0  0  0  0  0  0  0  0
   58.9431   33.6038   43.5413 H   0  0  0  0  0  0  0  0  0  0  0  0
   60.1489   30.5389   46.1426 H   0  0  0  0  0  0  0  0  0  0  0  0
   60.4622   28.3772   47.3503 H   0  0  0  0  0  0  0  0  0  0  0  0
   58.6603   26.6455   47.2687 H   0  0  0  0  0  0  0  0  0  0  0  0
   56.5630   27.1010   45.9873 H   0  0  0  0  0  0  0  0  0  0  0  0
  1  2  1  0
  2  3  1  0
  2  4  2  0
  4  5  2  0
  5  6  1  0
  6  7  2  0
  7  8  1  0
  8  9  2  0
  9 10  1  0
 10 11  2  0
  5 12  1  0
 12 13  1  0
 13 14  2  0
 14 15  1  0
 15 16  2  0
 16 17  1  0
 17 18  2  0
 11  6  1  0
 17 12  1  0
  1 19  1  0
  1 20  1  0
  1 21  1  0
  3 22  1  0
  7 23  1  0
  8 24  1  0
  9 25  1  0
 10 26  1  0
 11 27  1  0
 13 28  1  0
 14 29  1  0
 15 30  1  0
 16 31  1  0
M  CHG  1   2   1
M  END
>  <UniqueID>  (75) 
68

>  <SMILES>  (75) 
C[N+](O)=C=C(c1ccccc1)n1ccccc1=O

>  <Energy>  (75) 
36.98586819256194

>  <Genealogy>  (75) 
C[N+](O)=C=C(c1ccccc1)n1ccccc1=O (protonated)
C[N+](O)=C=C(c1ccccc1)n1ccccc1=O (3D coordinates assigned)
C[N+](O)=C=C(c1ccccc1)n1ccccc1=O (optimized conformer: 36.98586819256194 kcal/mol)

>  <smiles>  (75) 
C[N+]([O-])=C=C(c1ccccc1)n1ccccc1=O

>  <score_type>  (75) 
oracle

>  <origin>  (75) 
adg

>  <m_score__min__energy>  (75) 
-4.8300000000000001

>  <m_primary>  (75) 
energy

$$$$
75:0
     RDKit          3D

 33 35  0  0  0  0  0  0  0  0999 V2000
   57.6466   33.4595   44.2812 H   0  0  0  0  0  0  0  0  0  0  0  0
   58.3230   33.1030   45.0720 C   0  0  0  0  0  0  0  0  0  0  0  0
   58.2910   31.7520   45.4620 C   0  0  0  0  0  0  0  0  0  0  0  0
   57.3730   30.8130   44.8780 N   0  0  0  0  0  0  0  0  0  0  0  0
   57.3790   29.5190   45.0270 C   0  0  0  0  0  0  0  0  0  0  0  0
   56.2760   28.8550   45.4960 N   0  0  0  0  0  0  0  0  0  0  0  0
   56.3120   27.5050   45.6150 C   0  0  0  0  0  0  0  0  0  0  0  0
   57.4130   26.7750   45.2720 C   0  0  0  0  0  0  0  0  0  0  0  0
   58.5580   27.3900   44.7810 C   0  0  0  0  0  0  0  0  0  0  0  0
   59.4471   26.8049   44.5034 H   0  0  0  0  0  0  0  0  0  0  0  0
   58.5350   28.7910   44.6530 C   0  0  0  0  0  0  0  0  0  0  0  0
   59.4158   29.3215   44.2620 H   0  0  0  0  0  0  0  0  0  0  0  0
   57.0980   25.4570   45.5170 C   0  0  0  0  0  0  0  0  0  0  0  0
   57.9370   24.3060   45.3110 C   0  0  0  0  0  0  0  0  0  0  0  0
   58.6130   23.3810   45.1460 N   0  0  0  0  0  0  0  0  0  0  0  0
   55.7940   25.4560   46.0040 C   0  0  0  0  0  0  0  0  0  0  0  0
   55.2335   24.5570   46.2999 H   0  0  0  0  0  0  0  0  0  0  0  0
   55.3150   26.7210   46.0610 N   0  0  0  0  0  0  0  0  0  0  0  0
   54.3690   27.0240   46.3840 H   0  0  0  0  0  0  0  0  0  0  0  0
   59.1220   31.3190   46.5020 C   0  0  0  0  0  0  0  0  0  0  0  0
   59.0749   30.2721   46.8364 H   0  0  0  0  0  0  0  0  0  0  0  0
   60.0140   32.2060   47.1220 C   0  0  0  0  0  0  0  0  0  0  0  0
   60.9480   31.7160   48.1890 C   0  0  0  0  0  0  0  0  0  0  0  0
   60.5231   31.9389   49.1788 H   0  0  0  0  0  0  0  0  0  0  0  0
   61.0856   30.6296   48.0852 H   0  0  0  0  0  0  0  0  0  0  0  0
   61.9201   32.2203   48.0852 H   0  0  0  0  0  0  0  0  0  0  0  0
   60.0750   33.5390   46.6900 C   0  0  0  0  0  0  0  0  0  0  0  0
   60.8040   34.2276   47.1422 H   0  0  0  0  0  0  0  0  0  0  0  0
   59.2120   33.9990   45.6850 C   0  0  0  0  0  0  0  0  0  0  0  0
   59.2840   35.4250   45.2220 C   0  0  0  0  0  0  0  0  0  0  0  0
   59.3177   36.0928   46.0954 H   0  0  0  0  0  0  0  0  0  0  0  0
   60.1905   35.5683   44.6156 H   0  0  0  0  0  0  0  0  0  0  0  0
   58.3965   35.6589   44.6156 H   0  0  0  0  0  0  0  0  0  0  0  0
  1  2  1  0
  2  3  2  0
  3  4  1  0
  4  5  2  0
  5  6  1  0
  6  7  1  0
  7  8  2  0
  8  9  1  0
  9 10  1  0
  9 11  2  0
 11 12  1  0
  8 13  1  0
 13 14  1  0
 14 15  3  0
 13 16  2  0
 16 17  1  0
 16 18  1  0
 18 19  1  0
  3 20  1  0
 20 21  1  0
 20 22  2  0
 22 23  1  0
 23 24  1  0
 23 25  1  0
 23 26  1  0
 22 27  1  0
 27 28  1  0
 27 29  2  0
 29 30  1  0
 30 31  1  0
 30 32  1  0
 30 33  1  0
 29  2  1  0
 11  5  1  0
 18  7  1  0
M  CHG  1   6  -1
M  END
>  <UniqueID>  (76) 
69

>  <SMILES>  (76) 
Cc1cc(C)cc(/N=c2/ccc3c(C#N)c[nH]c3[n-]2)c1

>  <Energy>  (76) 
74.93790064789671

>  <Genealogy>  (76) 
Cc1cc(C)cc(N=c2ccc3c(C#N)c[nH]c3[n-]2)c1 (protonated)
Cc1cc(C)cc(/N=c2/ccc3c(C#N)c[nH]c3[n-]2)c1 (cis-trans isomerization)
Cc1cc(C)cc(/N=c2/ccc3c(C#N)c[nH]c3[n-]2)c1 (3D coordinates assigned)
Cc1cc(C)cc(/N=c2/ccc3c(C#N)c[nH]c3[n-]2)c1 (optimized conformer: 74.93790064789671 kcal/mol)

>  <smiles>  (76) 
Cc1cc(C)cc(N=c2ccc3c(C#N)c[nH]c3[nH]2)c1

>  <score_type>  (76) 
oracle

>  <origin>  (76) 
adg

>  <m_score__min__energy>  (76) 
-9.5

>  <m_primary>  (76) 
energy

$$$$
76:0
     RDKit          3D

 32 35  0  0  0  0  0  0  0  0999 V2000
   55.8860   30.6290   44.5020 O   0  0  0  0  0  0  0  0  0  0  0  0
   56.5520   29.6330   44.8930 C   0  0  0  0  0  0  0  0  0  0  0  0
   55.9030   28.4940   45.2540 N   0  0  0  0  0  0  0  0  0  0  0  0
   56.5850   27.4020   45.6910 C   0  0  0  0  0  0  0  0  0  0  0  0
   55.9050   26.2370   46.0610 C   0  0  0  0  0  0  0  0  0  0  0  0
   56.6260   25.1260   46.5140 C   0  0  0  0  0  0  0  0  0  0  0  0
   58.0220   25.1780   46.5990 C   0  0  0  0  0  0  0  0  0  0  0  0
   58.7060   26.3410   46.2290 C   0  0  0  0  0  0  0  0  0  0  0  0
   57.9910   27.4540   45.7730 C   0  0  0  0  0  0  0  0  0  0  0  0
   58.6370   28.5930   45.4120 N   0  0  0  0  0  0  0  0  0  0  0  0
   57.9570   29.6840   44.9640 C   0  0  0  0  0  0  0  0  0  0  0  0
   58.7230   30.9310   44.6200 C   0  0  0  0  0  0  0  0  0  0  0  0
   58.3970   32.0190   45.5960 C   0  0  0  0  0  0  0  0  0  0  0  0
   57.1460   32.3730   45.9710 N   0  0  0  0  0  0  0  0  0  0  0  0
   57.2310   33.3000   46.8870 O   0  0  0  0  0  0  0  0  0  0  0  0
   58.4930   33.5610   47.1300 C   0  0  0  0  0  0  0  0  0  0  0  0
   59.0340   34.4680   48.0370 C   0  0  0  0  0  0  0  0  0  0  0  0
   60.4380   34.5470   48.1210 C   0  0  0  0  0  0  0  0  0  0  0  0
   61.2530   33.7240   47.3080 C   0  0  0  0  0  0  0  0  0  0  0  0
   60.6740   32.8170   46.4000 C   0  0  0  0  0  0  0  0  0  0  0  0
   59.2820   32.7700   46.3400 C   0  0  0  0  0  0  0  0  0  0  0  0
   54.8077   26.1941   45.9962 H   0  0  0  0  0  0  0  0  0  0  0  0
   56.0933   24.2084   46.8043 H   0  0  0  0  0  0  0  0  0  0  0  0
   58.5828   24.3023   46.9576 H   0  0  0  0  0  0  0  0  0  0  0  0
   59.8032   26.3804   46.2964 H   0  0  0  0  0  0  0  0  0  0  0  0
   59.8015   30.7182   44.6588 H   0  0  0  0  0  0  0  0  0  0  0  0
   58.4431   31.2586   43.6079 H   0  0  0  0  0  0  0  0  0  0  0  0
   56.2510   31.9760   45.6090 H   0  0  0  0  0  0  0  0  0  0  0  0
   58.3888   35.0998   48.6651 H   0  0  0  0  0  0  0  0  0  0  0  0
   60.9041   35.2535   48.8236 H   0  0  0  0  0  0  0  0  0  0  0  0
   62.3480   33.7935   47.3861 H   0  0  0  0  0  0  0  0  0  0  0  0
   61.2957   32.1708   45.7629 H   0  0  0  0  0  0  0  0  0  0  0  0
  1  2  2  0
  2  3  1  0
  3  4  1  0
  4  5  2  0
  5  6  1  0
  6  7  2  0
  7  8  1  0
  8  9  2  0
  9 10  1  0
 10 11  2  0
 11 12  1  0
 12 13  1  0
 13 14  2  0
 14 15  1  0
 15 16  1  0
 16 17  2  0
 17 18  1  0
 18 19  2  0
 19 20  1  0
 20 21  2  0
 11  2  1  0
 21 13  1  0
  9  4  1  0
 21 16  1  0
  5 22  1  0
  6 23  1  0
  7 24  1  0
  8 25  1  0
 12 26  1  0
 12 27  1  0
 14 28  1  0
 17 29  1  0
 18 30  1  0
 19 31  1  0
 20 32  1  0
M  CHG  2   3  -1  14   1
M  END
>  <UniqueID>  (77) 
70

>  <SMILES>  (77) 
O=c1[n-]c2ccccc2nc1Cc1[nH+]oc2ccccc12

>  <Energy>  (77) 
78.87444676604791

>  <Genealogy>  (77) 
O=c1[n-]c2ccccc2nc1Cc1[nH+]oc2ccccc12 (protonated)
O=c1[n-]c2ccccc2nc1Cc1[nH+]oc2ccccc12 (3D coordinates assigned)
O=c1[n-]c2ccccc2nc1Cc1[nH+]oc2ccccc12 (optimized conformer: 78.87444676604791 kcal/mol)

>  <smiles>  (77) 
O=c1[nH]c2ccccc2nc1Cc1noc2ccccc12

>  <score_type>  (77) 
oracle

>  <origin>  (77) 
adg

>  <m_score__min__energy>  (77) 
-8.2899999999999991

>  <m_primary>  (77) 
energy

$$$$
77:0
     RDKit          3D

 33 36  0  0  0  0  0  0  0  0999 V2000
   61.0030   28.6700   50.0740 C   0  0  0  0  0  0  0  0  0  0  0  0
   59.9090   28.3180   49.1150 C   0  0  0  0  0  0  0  0  0  0  0  0
   59.8950   27.1330   48.4910 C   0  0  0  0  0  0  0  0  0  0  0  0
   59.0800   26.9080   47.2480 C   0  0  1  0  0  0  0  0  0  0  0  0
   59.6100   25.9290   46.3870 O   0  0  0  0  0  0  0  0  0  0  0  0
   58.4650   25.5570   47.1290 C   0  0  2  0  0  0  0  0  0  0  0  0
   57.2500   25.3820   46.2120 C   0  0  0  0  0  0  0  0  0  0  0  0
   56.4530   26.6460   46.0730 C   0  0  0  0  0  0  0  0  0  0  0  0
   55.1980   26.5720   45.9740 O   0  0  0  0  0  0  0  0  0  0  0  0
   57.1450   27.9530   45.9840 C   0  0  0  0  0  0  0  0  0  0  0  0
   58.4460   28.0680   46.5140 C   0  0  0  0  0  0  0  0  0  0  0  0
   59.1510   29.2720   46.3730 C   0  0  0  0  0  0  0  0  0  0  0  0
   58.5620   30.3780   45.7450 C   0  0  0  0  0  0  0  0  0  0  0  0
   57.2480   30.2790   45.2380 C   0  0  0  0  0  0  0  0  0  0  0  0
   56.5460   29.0650   45.3540 C   0  0  0  0  0  0  0  0  0  0  0  0
   55.2630   28.9620   44.8230 O   0  0  0  0  0  0  0  0  0  0  0  0
   56.6180   31.4540   44.5740 C   0  0  0  0  0  0  0  0  0  0  0  0
   57.2630   32.6180   44.4400 C   0  0  0  0  0  0  0  0  0  0  0  0
   58.6330   32.7860   44.9450 C   0  0  0  0  0  0  0  0  0  0  0  0
   59.2260   33.8890   44.8100 O   0  0  0  0  0  0  0  0  0  0  0  0
   59.2980   31.6550   45.6080 C   0  0  0  0  0  0  0  0  0  0  0  0
   60.4730   31.7800   46.0480 O   0  0  0  0  0  0  0  0  0  0  0  0
   60.6385   28.5527   51.1052 H   0  0  0  0  0  0  0  0  0  0  0  0
   61.8624   28.0030   49.9108 H   0  0  0  0  0  0  0  0  0  0  0  0
   61.3122   29.7130   49.9108 H   0  0  0  0  0  0  0  0  0  0  0  0
   59.1050   29.0429   48.9199 H   0  0  0  0  0  0  0  0  0  0  0  0
   60.4940   26.3048   48.8976 H   0  0  0  0  0  0  0  0  0  0  0  0
   58.1592   24.8053   47.8716 H   0  0  0  0  0  0  0  0  0  0  0  0
   57.6004   25.0737   45.2159 H   0  0  0  0  0  0  0  0  0  0  0  0
   56.5963   24.6204   46.6622 H   0  0  0  0  0  0  0  0  0  0  0  0
   60.1779   29.3493   46.7596 H   0  0  0  0  0  0  0  0  0  0  0  0
   55.5940   31.3619   44.1830 H   0  0  0  0  0  0  0  0  0  0  0  0
   56.7608   33.4620   43.9446 H   0  0  0  0  0  0  0  0  0  0  0  0
  1  2  1  0
  2  3  2  3
  4  3  1  0
  4  5  1  6
  5  6  1  0
  6  7  1  0
  7  8  1  0
  8  9  2  0
  8 10  1  0
 10 11  2  0
 11 12  1  0
 12 13  2  0
 13 14  1  0
 14 15  2  0
 15 16  1  0
 14 17  1  0
 17 18  2  0
 18 19  1  0
 19 20  2  0
 19 21  1  0
 21 22  2  0
  6  4  1  0
 15 10  1  0
 11  4  1  0
 21 13  1  0
  1 23  1  0
  1 24  1  0
  1 25  1  0
  2 26  1  0
  3 27  1  0
  6 28  1  1
  7 29  1  0
  7 30  1  0
 12 31  1  0
 17 32  1  0
 18 33  1  0
M  CHG  1  16  -1
M  END
>  <UniqueID>  (78) 
71

>  <SMILES>  (78) 
CC=C[C@@]12O[C@@H]1CC(=O)c1c2cc2c(c1[O-])C=CC(=O)C2=O

>  <Energy>  (78) 
374.3360034640603

>  <Genealogy>  (78) 
CC=CC12OC1CC(=O)c1c2cc2c(c1[O-])C=CC(=O)C2=O (protonated)
CC=C[C@@]12O[C@@H]1CC(=O)c1c2cc2c(c1[O-])C=CC(=O)C2=O (chirality)
CC=C[C@@]12O[C@@H]1CC(=O)c1c2cc2c(c1[O-])C=CC(=O)C2=O (3D coordinates assigned)
CC=C[C@@]12O[C@@H]1CC(=O)c1c2cc2c(c1[O-])C=CC(=O)C2=O (nonaromatic ring conformer: 374.3360034640603 kcal/mol)

>  <smiles>  (78) 
CC=CC12OC1CC(=O)c1c2cc2c(c1O)C=CC(=O)C2=O

>  <score_type>  (78) 
oracle

>  <origin>  (78) 
adg

>  <m_score__min__energy>  (78) 
-10.59

>  <m_primary>  (78) 
energy

$$$$
78:0
     RDKit          3D

 59 62  0  0  0  0  0  0  0  0999 V2000
   60.9270   26.3860   46.6290 C   0  0  0  0  0  0  0  0  0  0  0  0
   60.0170   25.9410   45.6320 O   0  0  0  0  0  0  0  0  0  0  0  0
   58.6500   26.2470   45.6580 C   0  0  0  0  0  0  0  0  0  0  0  0
   57.7400   25.2830   45.9650 N   0  0  0  0  0  0  0  0  0  0  0  0
   56.4110   25.5530   46.0050 C   0  0  0  0  0  0  0  0  0  0  0  0
   55.4440   24.4810   46.3810 C   0  0  0  0  0  0  0  0  0  0  0  0
   55.9700   26.8080   45.7400 N   0  0  0  0  0  0  0  0  0  0  0  0
   56.8330   27.8110   45.4230 C   0  0  0  0  0  0  0  0  0  0  0  0
   56.3480   29.0980   45.1510 O   0  0  0  0  0  0  0  0  0  0  0  0
   56.2010   29.6230   43.8320 C   0  0  0  0  0  0  0  0  0  0  0  0
   56.9170   30.9660   43.7200 C   0  0  0  0  0  0  0  0  0  0  0  0
   56.6870   31.7360   44.8960 O   0  0  0  0  0  0  0  0  0  0  0  0
   57.5650   32.7030   45.4040 C   0  0  0  0  0  0  0  0  0  0  0  0
   58.3000   33.4720   44.4950 C   0  0  0  0  0  0  0  0  0  0  0  0
   59.1670   34.4700   44.9490 C   0  0  0  0  0  0  0  0  0  0  0  0
   59.3050   34.7050   46.3200 C   0  0  0  0  0  0  0  0  0  0  0  0
   58.5800   33.9380   47.2370 C   0  0  0  0  0  0  0  0  0  0  0  0
   57.7170   32.9360   46.7840 C   0  0  0  0  0  0  0  0  0  0  0  0
   58.2130   27.5540   45.3750 C   0  0  0  0  0  0  0  0  0  0  0  0
   59.2000   28.6810   45.1880 C   0  0  0  0  0  0  0  0  0  0  0  0
   59.4010   29.4010   46.4970 C   0  0  0  0  0  0  0  0  0  0  0  0
   58.8820   28.8690   47.6870 C   0  0  0  0  0  0  0  0  0  0  0  0
   59.1600   29.4760   48.9140 C   0  0  0  0  0  0  0  0  0  0  0  0
   59.9530   30.6380   48.9680 C   0  0  0  0  0  0  0  0  0  0  0  0
   60.2960   31.2550   50.1800 O   0  0  0  0  0  0  0  0  0  0  0  0
   59.4730   32.1040   50.9340 C   0  0  0  0  0  0  0  0  0  0  0  0
   58.2030   31.6450   51.3090 C   0  0  0  0  0  0  0  0  0  0  0  0
   57.3470   32.4630   52.0510 C   0  0  0  0  0  0  0  0  0  0  0  0
   57.7590   33.7440   52.4350 C   0  0  0  0  0  0  0  0  0  0  0  0
   59.0380   34.1940   52.0990 C   0  0  0  0  0  0  0  0  0  0  0  0
   59.8980   33.3770   51.3610 C   0  0  0  0  0  0  0  0  0  0  0  0
   60.4690   31.1680   47.7810 C   0  0  0  0  0  0  0  0  0  0  0  0
   60.1920   30.5610   46.5540 C   0  0  0  0  0  0  0  0  0  0  0  0
   60.5082   26.1812   47.6253 H   0  0  0  0  0  0  0  0  0  0  0  0
   61.8831   25.8538   46.5166 H   0  0  0  0  0  0  0  0  0  0  0  0
   61.0940   27.4674   46.5166 H   0  0  0  0  0  0  0  0  0  0  0  0
   55.3814   24.4116   47.4770 H   0  0  0  0  0  0  0  0  0  0  0  0
   54.4519   24.7221   45.9716 H   0  0  0  0  0  0  0  0  0  0  0  0
   55.7857   23.5189   45.9716 H   0  0  0  0  0  0  0  0  0  0  0  0
   56.6358   28.9173   43.1089 H   0  0  0  0  0  0  0  0  0  0  0  0
   55.1315   29.7660   43.6182 H   0  0  0  0  0  0  0  0  0  0  0  0
   57.9971   30.7950   43.6011 H   0  0  0  0  0  0  0  0  0  0  0  0
   56.5294   31.5121   42.8473 H   0  0  0  0  0  0  0  0  0  0  0  0
   58.1948   33.2898   43.4153 H   0  0  0  0  0  0  0  0  0  0  0  0
   59.7406   35.0704   44.2275 H   0  0  0  0  0  0  0  0  0  0  0  0
   59.9839   35.4933   46.6774 H   0  0  0  0  0  0  0  0  0  0  0  0
   58.6888   34.1232   48.3158 H   0  0  0  0  0  0  0  0  0  0  0  0
   57.1550   32.3278   47.5080 H   0  0  0  0  0  0  0  0  0  0  0  0
   60.1615   28.2720   44.8440 H   0  0  0  0  0  0  0  0  0  0  0  0
   58.8105   29.3867   44.4395 H   0  0  0  0  0  0  0  0  0  0  0  0
   58.2520   27.9679   47.6535 H   0  0  0  0  0  0  0  0  0  0  0  0
   58.7575   29.0442   49.8422 H   0  0  0  0  0  0  0  0  0  0  0  0
   57.8783   30.6352   51.0176 H   0  0  0  0  0  0  0  0  0  0  0  0
   56.3480   32.0995   52.3336 H   0  0  0  0  0  0  0  0  0  0  0  0
   57.0767   34.3956   53.0006 H   0  0  0  0  0  0  0  0  0  0  0  0
   59.3688   35.1940   52.4162 H   0  0  0  0  0  0  0  0  0  0  0  0
   60.9101   33.7290   51.1127 H   0  0  0  0  0  0  0  0  0  0  0  0
   61.0979   32.0699   47.8141 H   0  0  0  0  0  0  0  0  0  0  0  0
   60.5955   30.9936   45.6266 H   0  0  0  0  0  0  0  0  0  0  0  0
  1  2  1  0
  2  3  1  0
  3  4  2  0
  4  5  1  0
  5  6  1  0
  5  7  2  0
  7  8  1  0
  8  9  1  0
  9 10  1  0
 10 11  1  0
 11 12  1  0
 12 13  1  0
 13 14  2  0
 14 15  1  0
 15 16  2  0
 16 17  1  0
 17 18  2  0
  8 19  2  0
 19 20  1  0
 20 21  1  0
 21 22  2  0
 22 23  1  0
 23 24  2  0
 24 25  1  0
 25 26  1  0
 26 27  2  0
 27 28  1  0
 28 29  2  0
 29 30  1  0
 30 31  2  0
 24 32  1  0
 32 33  2  0
 19  3  1  0
 33 21  1  0
 18 13  1  0
 31 26  1  0
  1 34  1  0
  1 35  1  0
  1 36  1  0
  6 37  1  0
  6 38  1  0
  6 39  1  0
 10 40  1  0
 10 41  1  0
 11 42  1  0
 11 43  1  0
 14 44  1  0
 15 45  1  0
 16 46  1  0
 17 47  1  0
 18 48  1  0
 20 49  1  0
 20 50  1  0
 22 51  1  0
 23 52  1  0
 27 53  1  0
 28 54  1  0
 29 55  1  0
 30 56  1  0
 31 57  1  0
 32 58  1  0
 33 59  1  0
M  END
>  <UniqueID>  (79) 
72

>  <SMILES>  (79) 
COc1nc(C)nc(OCCOc2ccccc2)c1Cc1ccc(Oc2ccccc2)cc1

>  <Energy>  (79) 
56.79571986164048

>  <Genealogy>  (79) 
COc1nc(C)nc(OCCOc2ccccc2)c1Cc1ccc(Oc2ccccc2)cc1 (3D coordinates assigned)
COc1nc(C)nc(OCCOc2ccccc2)c1Cc1ccc(Oc2ccccc2)cc1 (optimized conformer: 56.79571986164048 kcal/mol)

>  <smiles>  (79) 
COc1nc(C)nc(OCCOc2ccccc2)c1Cc1ccc(Oc2ccccc2)cc1

>  <score_type>  (79) 
oracle

>  <origin>  (79) 
adg

>  <m_score__min__energy>  (79) 
-8.1999999999999993

>  <m_primary>  (79) 
energy

$$$$
79:0
     RDKit          3D

 40 42  0  0  0  0  0  0  0  0999 V2000
   55.8768   27.1558   45.8902 H   0  0  0  0  0  0  0  0  0  0  0  0
   56.6360   27.8410   45.4850 C   0  0  0  0  0  0  0  0  0  0  0  0
   56.3190   29.1410   45.2450 N   0  0  0  0  0  0  0  0  0  0  0  0
   57.2170   30.0310   44.7380 C   0  0  0  0  0  0  0  0  0  0  0  0
   56.8230   31.2610   44.5490 N   0  0  0  0  0  0  0  0  0  0  0  0
   57.6030   32.4690   44.5160 C   0  0  0  0  0  0  0  0  0  0  0  0
   57.7340   33.1150   43.4410 O   0  0  0  0  0  0  0  0  0  0  0  0
   58.1800   33.0080   45.7700 C   0  0  0  0  0  0  0  0  0  0  0  0
   58.8140   34.2640   45.7860 C   0  0  0  0  0  0  0  0  0  0  0  0
   58.8880   34.8492   44.8575 H   0  0  0  0  0  0  0  0  0  0  0  0
   59.3500   34.7740   46.9700 C   0  0  0  0  0  0  0  0  0  0  0  0
   59.8405   35.7586   46.9671 H   0  0  0  0  0  0  0  0  0  0  0  0
   59.2680   34.0400   48.1650 C   0  0  0  0  0  0  0  0  0  0  0  0
   59.7850   34.5860   49.3970 N   0  0  0  0  0  0  0  0  0  0  0  0
   58.9980   34.6940   50.0800 H   0  0  0  0  0  0  0  0  0  0  0  0
   60.1860   35.5400   49.2390 H   0  0  0  0  0  0  0  0  0  0  0  0
   60.8050   33.7040   49.9900 C   0  0  0  0  0  0  0  0  0  0  0  0
   61.3035   34.2382   50.8123 H   0  0  0  0  0  0  0  0  0  0  0  0
   60.3023   32.7967   50.3564 H   0  0  0  0  0  0  0  0  0  0  0  0
   61.8440   33.2890   48.9750 C   0  0  0  0  0  0  0  0  0  0  0  0
   61.8350   31.9900   48.4390 C   0  0  0  0  0  0  0  0  0  0  0  0
   61.0882   31.2599   48.7844 H   0  0  0  0  0  0  0  0  0  0  0  0
   62.7720   31.6220   47.4680 C   0  0  0  0  0  0  0  0  0  0  0  0
   62.7634   30.6028   47.0543 H   0  0  0  0  0  0  0  0  0  0  0  0
   63.7190   32.5480   47.0230 C   0  0  0  0  0  0  0  0  0  0  0  0
   64.4564   32.2568   46.2605 H   0  0  0  0  0  0  0  0  0  0  0  0
   63.7300   33.8440   47.5460 C   0  0  0  0  0  0  0  0  0  0  0  0
   64.4757   34.5721   47.1942 H   0  0  0  0  0  0  0  0  0  0  0  0
   62.7940   34.2160   48.5160 C   0  0  0  0  0  0  0  0  0  0  0  0
   62.8018   35.2387   48.9211 H   0  0  0  0  0  0  0  0  0  0  0  0
   58.6310   32.7870   48.1530 C   0  0  0  0  0  0  0  0  0  0  0  0
   58.5556   32.2039   49.0827 H   0  0  0  0  0  0  0  0  0  0  0  0
   58.0930   32.2770   46.9690 C   0  0  0  0  0  0  0  0  0  0  0  0
   57.5969   31.2952   46.9741 H   0  0  0  0  0  0  0  0  0  0  0  0
   58.5350   29.5940   44.4760 C   0  0  0  0  0  0  0  0  0  0  0  0
   59.2858   30.2976   44.0872 H   0  0  0  0  0  0  0  0  0  0  0  0
   58.8760   28.2610   44.7150 C   0  0  0  0  0  0  0  0  0  0  0  0
   59.8970   27.9087   44.5066 H   0  0  0  0  0  0  0  0  0  0  0  0
   57.9220   27.3760   45.2180 C   0  0  0  0  0  0  0  0  0  0  0  0
   58.2470   26.0810   45.4560 F   0  0  0  0  0  0  0  0  0  0  0  0
  1  2  1  0
  2  3  1  0
  3  4  1  0
  4  5  2  0
  5  6  1  0
  6  7  2  0
  6  8  1  0
  8  9  2  0
  9 10  1  0
  9 11  1  0
 11 12  1  0
 11 13  2  0
 13 14  1  0
 14 15  1  0
 14 16  1  0
 14 17  1  0
 17 18  1  0
 17 19  1  0
 17 20  1  0
 20 21  2  0
 21 22  1  0
 21 23  1  0
 23 24  1  0
 23 25  2  0
 25 26  1  0
 25 27  1  0
 27 28  1  0
 27 29  2  0
 29 30  1  0
 13 31  1  0
 31 32  1  0
 31 33  2  0
 33 34  1  0
  4 35  1  0
 35 36  1  0
 35 37  2  0
 37 38  1  0
 37 39  1  0
 39 40  1  0
 39  2  2  0
 33  8  1  0
 29 20  1  0
M  CHG  2   3  -1  14   1
M  END
>  <UniqueID>  (80) 
73

>  <SMILES>  (80) 
O=C(/N=c1\ccc(F)c[n-]1)c1ccc([NH2+]Cc2ccccc2)cc1

>  <Energy>  (80) 
52.00569538022583

>  <Genealogy>  (80) 
O=C(N=c1ccc(F)c[n-]1)c1ccc([NH2+]Cc2ccccc2)cc1 (protonated)
O=C(/N=c1\ccc(F)c[n-]1)c1ccc([NH2+]Cc2ccccc2)cc1 (cis-trans isomerization)
O=C(/N=c1\ccc(F)c[n-]1)c1ccc([NH2+]Cc2ccccc2)cc1 (3D coordinates assigned)
O=C(/N=c1\ccc(F)c[n-]1)c1ccc([NH2+]Cc2ccccc2)cc1 (optimized conformer: 52.00569538022583 kcal/mol)

>  <smiles>  (80) 
O=C(N=c1ccc(F)c[nH]1)c1ccc(NCc2ccccc2)cc1

>  <score_type>  (80) 
oracle

>  <origin>  (80) 
adg

>  <m_score__min__energy>  (80) 
-8.7100000000000009

>  <m_primary>  (80) 
energy

$$$$
80:0
     RDKit          3D

 45 47  0  0  0  0  0  0  0  0999 V2000
   57.3760   25.2560   43.9970 C   0  0  0  0  0  0  0  0  0  0  0  0
   58.0220   26.2900   43.0710 C   0  0  0  0  0  0  0  0  0  0  0  0
   57.9170   27.6620   43.6010 N   0  0  0  0  0  0  0  0  0  0  0  0
   58.4840   27.7650   44.9300 C   0  0  0  0  0  0  0  0  0  0  0  0
   59.6530   27.0480   45.2390 C   0  0  0  0  0  0  0  0  0  0  0  0
   60.2180   27.1150   46.5120 C   0  0  0  0  0  0  0  0  0  0  0  0
   59.6230   27.8960   47.5120 C   0  0  0  0  0  0  0  0  0  0  0  0
   60.2240   27.9820   48.8660 C   0  0  0  0  0  0  0  0  0  0  0  0
   60.6820   26.8250   49.5210 C   0  0  0  0  0  0  0  0  0  0  0  0
   61.2320   26.9110   50.8040 C   0  0  0  0  0  0  0  0  0  0  0  0
   61.3330   28.1510   51.4440 C   0  0  0  0  0  0  0  0  0  0  0  0
   60.8860   29.3060   50.8020 C   0  0  0  0  0  0  0  0  0  0  0  0
   60.3340   29.2270   49.5210 C   0  0  0  0  0  0  0  0  0  0  0  0
   58.4460   28.6010   47.2160 C   0  0  0  0  0  0  0  0  0  0  0  0
   57.8780   28.5570   45.9310 C   0  0  0  0  0  0  0  0  0  0  0  0
   56.6930   29.3080   45.6170 N   0  0  0  0  0  0  0  0  0  0  0  0
   56.5840   30.5550   44.4140 S   0  0  0  0  0  0  0  0  0  0  0  0
   55.1370   30.8710   44.1610 O   0  0  0  0  0  0  0  0  0  0  0  0
   57.2070   30.0660   43.1370 O   0  0  0  0  0  0  0  0  0  0  0  0
   57.4530   31.9860   44.9600 C   0  0  0  0  0  0  0  0  0  0  0  0
   57.8170   32.1030   46.3100 C   0  0  0  0  0  0  0  0  0  0  0  0
   58.4640   33.2570   46.7660 C   0  0  0  0  0  0  0  0  0  0  0  0
   58.7490   34.2970   45.8770 C   0  0  0  0  0  0  0  0  0  0  0  0
   58.3920   34.1830   44.5310 C   0  0  0  0  0  0  0  0  0  0  0  0
   57.7460   33.0300   44.0710 C   0  0  0  0  0  0  0  0  0  0  0  0
   57.5536   25.5403   45.0447 H   0  0  0  0  0  0  0  0  0  0  0  0
   56.2934   25.2183   43.8058 H   0  0  0  0  0  0  0  0  0  0  0  0
   57.8168   24.2665   43.8058 H   0  0  0  0  0  0  0  0  0  0  0  0
   59.0860   26.0389   42.9487 H   0  0  0  0  0  0  0  0  0  0  0  0
   57.4879   26.2598   42.1099 H   0  0  0  0  0  0  0  0  0  0  0  0
   56.9200   27.9760   43.5830 H   0  0  0  0  0  0  0  0  0  0  0  0
   58.4400   28.3040   42.9600 H   0  0  0  0  0  0  0  0  0  0  0  0
   60.1283   26.4259   44.4663 H   0  0  0  0  0  0  0  0  0  0  0  0
   61.1365   26.5513   46.7327 H   0  0  0  0  0  0  0  0  0  0  0  0
   60.6073   25.8476   49.0219 H   0  0  0  0  0  0  0  0  0  0  0  0
   61.5861   26.0014   51.3112 H   0  0  0  0  0  0  0  0  0  0  0  0
   61.7650   28.2152   52.4536 H   0  0  0  0  0  0  0  0  0  0  0  0
   60.9683   30.2807   51.3052 H   0  0  0  0  0  0  0  0  0  0  0  0
   59.9829   30.1411   49.0199 H   0  0  0  0  0  0  0  0  0  0  0  0
   57.9603   29.1975   48.0022 H   0  0  0  0  0  0  0  0  0  0  0  0
   57.5933   31.2858   47.0115 H   0  0  0  0  0  0  0  0  0  0  0  0
   58.7485   33.3456   47.8249 H   0  0  0  0  0  0  0  0  0  0  0  0
   59.2544   35.2053   46.2370 H   0  0  0  0  0  0  0  0  0  0  0  0
   58.6191   35.0011   43.8316 H   0  0  0  0  0  0  0  0  0  0  0  0
   57.4676   32.9426   43.0104 H   0  0  0  0  0  0  0  0  0  0  0  0
  1  2  1  0
  2  3  1  0
  3  4  1  0
  4  5  2  0
  5  6  1  0
  6  7  2  0
  7  8  1  0
  8  9  2  0
  9 10  1  0
 10 11  2  0
 11 12  1  0
 12 13  2  0
  7 14  1  0
 14 15  2  0
 15 16  1  0
 16 17  1  0
 17 18  2  0
 17 19  2  0
 17 20  1  0
 20 21  2  0
 21 22  1  0
 22 23  2  0
 23 24  1  0
 24 25  2  0
 15  4  1  0
 25 20  1  0
 13  8  1  0
  1 26  1  0
  1 27  1  0
  1 28  1  0
  2 29  1  0
  2 30  1  0
  3 31  1  0
  3 32  1  0
  5 33  1  0
  6 34  1  0
  9 35  1  0
 10 36  1  0
 11 37  1  0
 12 38  1  0
 13 39  1  0
 14 40  1  0
 21 41  1  0
 22 42  1  0
 23 43  1  0
 24 44  1  0
 25 45  1  0
M  CHG  2   3   1  16  -1
M  END
>  <UniqueID>  (81) 
74

>  <SMILES>  (81) 
CC[NH2+]c1ccc(-c2ccccc2)cc1[N-]S(=O)(=O)c1ccccc1

>  <Energy>  (81) 
54.43051302083417

>  <Genealogy>  (81) 
CC[NH2+]c1ccc(-c2ccccc2)cc1[N-]S(=O)(=O)c1ccccc1 (protonated)
CC[NH2+]c1ccc(-c2ccccc2)cc1[N-]S(=O)(=O)c1ccccc1 (3D coordinates assigned)
CC[NH2+]c1ccc(-c2ccccc2)cc1[N-]S(=O)(=O)c1ccccc1 (optimized conformer: 54.43051302083417 kcal/mol)

>  <smiles>  (81) 
CCNc1ccc(-c2ccccc2)cc1NS(=O)(=O)c1ccccc1

>  <score_type>  (81) 
oracle

>  <origin>  (81) 
adg

>  <m_score__min__energy>  (81) 
-8.0999999999999996

>  <m_primary>  (81) 
energy

$$$$
81:0
     RDKit          3D

 20 20  0  0  0  0  0  0  0  0999 V2000
   56.0980   31.6590   52.0300 C   0  0  0  0  0  0  0  0  0  0  0  0
   54.7250   31.1870   51.9020 N   0  0  0  0  0  0  0  0  0  0  0  0
   54.3820   29.8070   52.0850 C   0  0  0  0  0  0  0  0  0  0  0  0
   55.2760   28.9630   52.3670 O   0  0  0  0  0  0  0  0  0  0  0  0
   52.9540   29.3640   51.9880 C   0  0  0  0  0  0  0  0  0  0  0  0
   52.1870   30.2810   51.0720 C   0  0  0  0  0  0  0  0  0  0  0  0
   51.8470   29.8610   49.7790 C   0  0  0  0  0  0  0  0  0  0  0  0
   51.1290   30.6750   48.9620 N   0  0  0  0  0  0  0  0  0  0  0  0
   50.7230   31.9000   49.3800 C   0  0  0  0  0  0  0  0  0  0  0  0
   50.0610   32.6400   48.6090 O   0  0  0  0  0  0  0  0  0  0  0  0
   51.0280   32.3280   50.6320 N   0  0  0  0  0  0  0  0  0  0  0  0
   51.7440   31.5500   51.4860 C   0  0  0  0  0  0  0  0  0  0  0  0
   52.0020   31.9780   52.6420 O   0  0  0  0  0  0  0  0  0  0  0  0
   56.3573   31.7481   53.0953 H   0  0  0  0  0  0  0  0  0  0  0  0
   56.7785   30.9432   51.5457 H   0  0  0  0  0  0  0  0  0  0  0  0
   56.1945   32.6419   51.5457 H   0  0  0  0  0  0  0  0  0  0  0  0
   53.9750   31.8770   51.6740 H   0  0  0  0  0  0  0  0  0  0  0  0
   52.9176   28.3391   51.5902 H   0  0  0  0  0  0  0  0  0  0  0  0
   52.4996   29.3941   52.9893 H   0  0  0  0  0  0  0  0  0  0  0  0
   52.1626   28.8687   49.4243 H   0  0  0  0  0  0  0  0  0  0  0  0
  1  2  1  0
  2  3  1  0
  3  4  2  0
  3  5  1  0
  5  6  1  0
  6  7  2  0
  7  8  1  0
  8  9  1  0
  9 10  2  0
  9 11  1  0
 11 12  1  0
 12 13  2  0
 12  6  1  0
  1 14  1  0
  1 15  1  0
  1 16  1  0
  2 17  1  0
  5 18  1  0
  5 19  1  0
  7 20  1  0
M  CHG  2   8  -1  11  -1
M  END
>  <UniqueID>  (82) 
75

>  <SMILES>  (82) 
CNC(=O)Cc1c[n-]c(=O)[n-]c1=O

>  <Energy>  (82) 
15.337972203340785

>  <Genealogy>  (82) 
CNC(=O)Cc1c[n-]c(=O)[n-]c1=O (protonated)
CNC(=O)Cc1c[n-]c(=O)[n-]c1=O (3D coordinates assigned)
CNC(=O)Cc1c[n-]c(=O)[n-]c1=O (optimized conformer: 15.337972203340785 kcal/mol)

>  <smiles>  (82) 
CNC(=O)Cc1c[nH]c(=O)[nH]c1=O

>  <score_type>  (82) 
oracle

>  <origin>  (82) 
adg

>  <m_score__min__energy>  (82) 
-10.51

>  <m_primary>  (82) 
energy

$$$$
82:0
     RDKit          3D

 47 49  0  0  0  0  0  0  0  0999 V2000
   66.8800   32.3920   50.5540 C   0  0  0  0  0  0  0  0  0  0  0  0
   65.5680   32.9960   50.2660 N   0  0  0  0  0  0  0  0  0  0  0  0
   65.1000   33.8030   51.4070 C   0  0  0  0  0  0  0  0  0  0  0  0
   64.5590   32.0090   49.8070 C   0  0  0  0  0  0  0  0  0  0  0  0
   63.8390   32.3650   48.4810 C   0  0  2  0  0  0  0  0  0  0  0  0
   64.4960   33.4350   47.8510 O   0  0  0  0  0  0  0  0  0  0  0  0
   62.4020   32.7480   48.7660 C   0  0  0  0  0  0  0  0  0  0  0  0
   61.9530   32.8720   50.0890 C   0  0  0  0  0  0  0  0  0  0  0  0
   60.6240   33.2460   50.3450 C   0  0  0  0  0  0  0  0  0  0  0  0
   60.0980   33.3700   51.7280 C   0  0  0  0  0  0  0  0  0  0  0  0
   60.9900   33.3850   52.8170 C   0  0  0  0  0  0  0  0  0  0  0  0
   60.5110   33.4930   54.1270 C   0  0  0  0  0  0  0  0  0  0  0  0
   59.1380   33.5780   54.3660 C   0  0  0  0  0  0  0  0  0  0  0  0
   58.2410   33.5510   53.2960 C   0  0  0  0  0  0  0  0  0  0  0  0
   58.7130   33.4440   51.9840 C   0  0  0  0  0  0  0  0  0  0  0  0
   59.7900   33.4830   49.2950 N   0  0  0  0  0  0  0  0  0  0  0  0
   60.1910   33.3960   47.9960 C   0  0  0  0  0  0  0  0  0  0  0  0
   59.2110   33.6800   46.9160 C   0  0  0  0  0  0  0  0  0  0  0  0
   57.9850   32.9910   46.8360 C   0  0  0  0  0  0  0  0  0  0  0  0
   57.0820   33.2690   45.8050 C   0  0  0  0  0  0  0  0  0  0  0  0
   57.3910   34.2320   44.8410 C   0  0  0  0  0  0  0  0  0  0  0  0
   58.6080   34.9140   44.9030 C   0  0  0  0  0  0  0  0  0  0  0  0
   59.5150   34.6390   45.9310 C   0  0  0  0  0  0  0  0  0  0  0  0
   61.5150   33.0240   47.7150 C   0  0  0  0  0  0  0  0  0  0  0  0
   67.0224   32.3264   51.6428 H   0  0  0  0  0  0  0  0  0  0  0  0
   66.9232   31.3834   50.1172 H   0  0  0  0  0  0  0  0  0  0  0  0
   67.6743   33.0151   50.1172 H   0  0  0  0  0  0  0  0  0  0  0  0
   65.7120   33.6620   49.4690 H   0  0  0  0  0  0  0  0  0  0  0  0
   65.3864   33.3092   52.3473 H   0  0  0  0  0  0  0  0  0  0  0  0
   65.5591   34.8016   51.3626 H   0  0  0  0  0  0  0  0  0  0  0  0
   64.0052   33.9005   51.3626 H   0  0  0  0  0  0  0  0  0  0  0  0
   65.0668   31.0430   49.6692 H   0  0  0  0  0  0  0  0  0  0  0  0
   63.7780   31.9900   50.5814 H   0  0  0  0  0  0  0  0  0  0  0  0
   63.8579   31.4885   47.8166 H   0  0  0  0  0  0  0  0  0  0  0  0
   64.9430   33.0640   47.0460 H   0  0  0  0  0  0  0  0  0  0  0  0
   62.6410   32.6766   50.9248 H   0  0  0  0  0  0  0  0  0  0  0  0
   62.0726   33.3112   52.6364 H   0  0  0  0  0  0  0  0  0  0  0  0
   61.2173   33.5110   54.9701 H   0  0  0  0  0  0  0  0  0  0  0  0
   58.7631   33.6662   55.3964 H   0  0  0  0  0  0  0  0  0  0  0  0
   57.1594   33.6141   53.4859 H   0  0  0  0  0  0  0  0  0  0  0  0
   58.0000   33.4174   51.1468 H   0  0  0  0  0  0  0  0  0  0  0  0
   57.7362   32.2292   47.5895 H   0  0  0  0  0  0  0  0  0  0  0  0
   56.1257   32.7280   45.7528 H   0  0  0  0  0  0  0  0  0  0  0  0
   56.6765   34.4527   44.0342 H   0  0  0  0  0  0  0  0  0  0  0  0
   58.8536   35.6690   44.1416 H   0  0  0  0  0  0  0  0  0  0  0  0
   60.4740   35.1764   45.9705 H   0  0  0  0  0  0  0  0  0  0  0  0
   61.8565   32.9490   46.6720 H   0  0  0  0  0  0  0  0  0  0  0  0
  1  2  1  0
  2  3  1  0
  2  4  1  0
  4  5  1  0
  5  6  1  0
  5  7  1  0
  7  8  2  0
  8  9  1  0
  9 10  1  0
 10 11  2  0
 11 12  1  0
 12 13  2  0
 13 14  1  0
 14 15  2  0
  9 16  2  0
 16 17  1  0
 17 18  1  0
 18 19  2  0
 19 20  1  0
 20 21  2  0
 21 22  1  0
 22 23  2  0
 17 24  2  0
 24  7  1  0
 15 10  1  0
 23 18  1  0
  1 25  1  0
  1 26  1  0
  1 27  1  0
  2 28  1  0
  3 29  1  0
  3 30  1  0
  3 31  1  0
  4 32  1  0
  4 33  1  0
  5 34  1  6
  6 35  1  0
  8 36  1  0
 11 37  1  0
 12 38  1  0
 13 39  1  0
 14 40  1  0
 15 41  1  0
 19 42  1  0
 20 43  1  0
 21 44  1  0
 22 45  1  0
 23 46  1  0
 24 47  1  0
M  CHG  1   2   1
M  END
>  <UniqueID>  (83) 
76

>  <SMILES>  (83) 
C[NH+](C)C[C@H](O)c1cc(-c2ccccc2)nc(-c2ccccc2)c1

>  <Energy>  (83) 
60.63878982955674

>  <Genealogy>  (83) 
C[NH+](C)CC(O)c1cc(-c2ccccc2)nc(-c2ccccc2)c1 (protonated)
C[NH+](C)C[C@H](O)c1cc(-c2ccccc2)nc(-c2ccccc2)c1 (chirality)
C[NH+](C)C[C@H](O)c1cc(-c2ccccc2)nc(-c2ccccc2)c1 (3D coordinates assigned)
C[NH+](C)C[C@H](O)c1cc(-c2ccccc2)nc(-c2ccccc2)c1 (optimized conformer: 60.63878982955674 kcal/mol)

>  <smiles>  (83) 
CN(C)CC(O)c1cc(-c2ccccc2)nc(-c2ccccc2)c1

>  <score_type>  (83) 
oracle

>  <origin>  (83) 
adg

>  <m_score__min__energy>  (83) 
-5.9199999999999999

>  <m_primary>  (83) 
energy

$$$$
83:0
     RDKit          3D

 53 55  0  0  0  0  0  0  0  0999 V2000
   60.4130   26.7690   46.1420 C   0  0  0  0  0  0  0  0  0  0  0  0
   60.1810   28.1410   45.4950 C   0  0  0  0  0  0  0  0  0  0  0  0
   59.7720   29.2870   46.4750 C   0  0  1  0  0  0  0  0  0  0  0  0
   59.0860   28.6830   47.6290 N   0  0  0  0  0  0  0  0  0  0  0  0
   61.0500   30.0470   46.9990 C   0  0  0  0  0  0  0  0  0  0  0  0
   60.7830   31.5540   47.1170 C   0  0  2  0  0  0  0  0  0  0  0  0
   61.6060   32.3370   48.0740 C   0  0  0  0  0  0  0  0  0  0  0  0
   62.9860   32.2910   48.2620 C   0  0  0  0  0  0  0  0  0  0  0  0
   63.5840   33.2070   49.1570 C   0  0  0  0  0  0  0  0  0  0  0  0
   64.9640   33.2020   49.4100 O   0  0  0  0  0  0  0  0  0  0  0  0
   65.6360   32.2210   50.1920 C   0  0  0  0  0  0  0  0  0  0  0  0
   62.7850   34.1670   49.8190 C   0  0  0  0  0  0  0  0  0  0  0  0
   63.4130   35.0630   50.6980 O   0  0  0  0  0  0  0  0  0  0  0  0
   64.0460   34.6870   51.9170 C   0  0  0  0  0  0  0  0  0  0  0  0
   61.3910   34.2090   49.5820 C   0  0  0  0  0  0  0  0  0  0  0  0
   60.8270   33.2820   48.7070 C   0  0  0  0  0  0  0  0  0  0  0  0
   59.3960   33.1880   48.2920 C   0  0  0  0  0  0  0  0  0  0  0  0
   59.3700   31.7710   47.6700 C   0  0  1  0  0  0  0  0  0  0  0  0
   58.3170   31.3930   46.6850 N   0  0  0  0  0  0  0  0  0  0  0  0
   57.7660   32.5080   45.8870 C   0  0  0  0  0  0  0  0  0  0  0  0
   57.2780   32.0160   44.5600 C   0  0  0  0  0  0  0  0  0  0  0  0
   57.7360   32.5170   43.4970 O   0  0  0  0  0  0  0  0  0  0  0  0
   56.2860   31.0310   44.5130 O   0  0  0  0  0  0  0  0  0  0  0  0
   56.2620   30.0160   43.5180 C   0  0  0  0  0  0  0  0  0  0  0  0
   58.7700   30.2860   45.7880 C   0  0  0  0  0  0  0  0  0  0  0  0
   60.3955   26.8723   47.2370 H   0  0  0  0  0  0  0  0  0  0  0  0
   59.6193   26.0759   45.8264 H   0  0  0  0  0  0  0  0  0  0  0  0
   61.3905   26.3753   45.8264 H   0  0  0  0  0  0  0  0  0  0  0  0
   61.1128   28.4408   44.9932 H   0  0  0  0  0  0  0  0  0  0  0  0
   59.3300   28.0116   44.8102 H   0  0  0  0  0  0  0  0  0  0  0  0
   58.5530   27.8370   47.3200 H   0  0  0  0  0  0  0  0  0  0  0  0
   58.3850   29.3550   48.0180 H   0  0  0  0  0  0  0  0  0  0  0  0
   61.3235   29.6514   47.9883 H   0  0  0  0  0  0  0  0  0  0  0  0
   61.8695   29.8910   46.2820 H   0  0  0  0  0  0  0  0  0  0  0  0
   60.9965   31.8988   46.0945 H   0  0  0  0  0  0  0  0  0  0  0  0
   63.5996   31.5542   47.7229 H   0  0  0  0  0  0  0  0  0  0  0  0
   65.4871   32.4384   51.2600 H   0  0  0  0  0  0  0  0  0  0  0  0
   65.2292   31.2256   49.9602 H   0  0  0  0  0  0  0  0  0  0  0  0
   66.7111   32.2408   49.9602 H   0  0  0  0  0  0  0  0  0  0  0  0
   63.4457   35.0436   52.7670 H   0  0  0  0  0  0  0  0  0  0  0  0
   64.1319   33.5913   51.9628 H   0  0  0  0  0  0  0  0  0  0  0  0
   65.0493   35.1357   51.9628 H   0  0  0  0  0  0  0  0  0  0  0  0
   60.7620   34.9613   50.0804 H   0  0  0  0  0  0  0  0  0  0  0  0
   58.7179   33.2644   49.1548 H   0  0  0  0  0  0  0  0  0  0  0  0
   59.0631   33.9894   47.6161 H   0  0  0  0  0  0  0  0  0  0  0  0
   59.0666   31.0911   48.4797 H   0  0  0  0  0  0  0  0  0  0  0  0
   56.9277   32.9641   46.4339 H   0  0  0  0  0  0  0  0  0  0  0  0
   58.5602   33.2504   45.7195 H   0  0  0  0  0  0  0  0  0  0  0  0
   56.2387   29.0285   44.0021 H   0  0  0  0  0  0  0  0  0  0  0  0
   55.3665   30.1383   42.8910 H   0  0  0  0  0  0  0  0  0  0  0  0
   57.1623   30.0958   42.8910 H   0  0  0  0  0  0  0  0  0  0  0  0
   57.8854   29.7204   45.4601 H   0  0  0  0  0  0  0  0  0  0  0  0
   59.3051   30.7515   44.9472 H   0  0  0  0  0  0  0  0  0  0  0  0
  1  2  1  0
  2  3  1  0
  3  4  1  1
  3  5  1  0
  5  6  1  0
  6  7  1  0
  7  8  2  0
  8  9  1  0
  9 10  1  0
 10 11  1  0
  9 12  2  0
 12 13  1  0
 13 14  1  0
 12 15  1  0
 15 16  2  0
 16 17  1  0
 17 18  1  0
 18 19  1  0
 19 20  1  0
 20 21  1  0
 21 22  2  0
 21 23  1  0
 23 24  1  0
 19 25  1  0
 25  3  1  0
 18  6  1  0
 16  7  1  0
  1 26  1  0
  1 27  1  0
  1 28  1  0
  2 29  1  0
  2 30  1  0
  4 31  1  0
  4 32  1  0
  5 33  1  0
  5 34  1  0
  6 35  1  6
  8 36  1  0
 11 37  1  0
 11 38  1  0
 11 39  1  0
 14 40  1  0
 14 41  1  0
 14 42  1  0
 15 43  1  0
 17 44  1  0
 17 45  1  0
 18 46  1  1
 20 47  1  0
 20 48  1  0
 24 49  1  0
 24 50  1  0
 24 51  1  0
 25 52  1  0
 25 53  1  0
M  END
>  <UniqueID>  (84) 
77

>  <SMILES>  (84) 
CC[C@@]1(N)C[C@@H]2c3cc(OC)c(OC)cc3CC2N(CC(=O)OC)C1

>  <Energy>  (84) 
83.67293238749748

>  <Genealogy>  (84) 
CC[C@@]1(N)C[C@@H]2c3cc(OC)c(OC)cc3CC2N(CC(=O)OC)C1 (chirality)
CC[C@@]1(N)C[C@@H]2c3cc(OC)c(OC)cc3CC2N(CC(=O)OC)C1 (3D coordinates assigned)
CC[C@@]1(N)C[C@@H]2c3cc(OC)c(OC)cc3CC2N(CC(=O)OC)C1 (nonaromatic ring conformer: 83.67293238749748 kcal/mol)

>  <smiles>  (84) 
CCC1(N)CC2c3cc(OC)c(OC)cc3CC2N(CC(=O)OC)C1

>  <score_type>  (84) 
oracle

>  <origin>  (84) 
adg

>  <m_score__min__energy>  (84) 
-6.9100000000000001

>  <m_primary>  (84) 
energy

$$$$
84:0
     RDKit          3D

 35 37  0  0  0  0  0  0  0  0999 V2000
   58.9120   31.5960   47.9170 C   0  0  0  0  0  0  0  0  0  0  0  0
   58.3950   32.2140   46.6460 C   0  0  0  0  0  0  0  0  0  0  0  0
   58.0900   33.5840   46.6150 C   0  0  0  0  0  0  0  0  0  0  0  0
   57.6180   34.1760   45.4440 C   0  0  0  0  0  0  0  0  0  0  0  0
   57.4230   33.4070   44.2980 C   0  0  0  0  0  0  0  0  0  0  0  0
   57.6920   32.0290   44.3100 C   0  0  0  0  0  0  0  0  0  0  0  0
   57.4390   31.2250   43.0620 C   0  0  0  0  0  0  0  0  0  0  0  0
   58.2070   31.4300   45.4840 C   0  0  0  0  0  0  0  0  0  0  0  0
   58.5140   30.0270   45.5160 N   0  0  0  0  0  0  0  0  0  0  0  0
   57.4840   29.0260   45.4950 C   0  0  0  0  0  0  0  0  0  0  0  0
   56.2910   29.3590   45.2630 O   0  0  0  0  0  0  0  0  0  0  0  0
   57.7980   27.6020   45.7190 C   0  0  0  0  0  0  0  0  0  0  0  0
   58.5340   27.1240   46.8050 C   0  0  0  0  0  0  0  0  0  0  0  0
   58.6260   25.4510   46.6680 S   0  0  0  0  0  0  0  0  0  0  0  0
   57.7290   25.4000   45.2450 C   0  0  0  0  0  0  0  0  0  0  0  0
   57.3820   24.1790   44.4970 C   0  0  0  0  0  0  0  0  0  0  0  0
   58.1110   22.9820   44.6010 C   0  0  0  0  0  0  0  0  0  0  0  0
   57.6130   21.9560   43.8110 C   0  0  0  0  0  0  0  0  0  0  0  0
   56.2700   22.5380   42.9870 S   0  0  0  0  0  0  0  0  0  0  0  0
   56.3040   24.0930   43.6200 C   0  0  0  0  0  0  0  0  0  0  0  0
   57.3530   26.6400   44.8640 N   0  0  0  0  0  0  0  0  0  0  0  0
   58.4759   32.1173   48.7820 H   0  0  0  0  0  0  0  0  0  0  0  0
   58.6301   30.5332   47.9490 H   0  0  0  0  0  0  0  0  0  0  0  0
   60.0079   31.6858   47.9490 H   0  0  0  0  0  0  0  0  0  0  0  0
   58.2242   34.1944   47.5202 H   0  0  0  0  0  0  0  0  0  0  0  0
   57.3988   35.2538   45.4246 H   0  0  0  0  0  0  0  0  0  0  0  0
   57.0555   33.8833   43.3771 H   0  0  0  0  0  0  0  0  0  0  0  0
   57.1194   30.2094   43.3386 H   0  0  0  0  0  0  0  0  0  0  0  0
   56.6497   31.7087   42.4679 H   0  0  0  0  0  0  0  0  0  0  0  0
   58.3631   31.1696   42.4679 H   0  0  0  0  0  0  0  0  0  0  0  0
   59.5060   29.7420   45.3710 H   0  0  0  0  0  0  0  0  0  0  0  0
   58.9751   27.7336   47.6074 H   0  0  0  0  0  0  0  0  0  0  0  0
   58.9935   22.8692   45.2479 H   0  0  0  0  0  0  0  0  0  0  0  0
   58.0256   20.9390   43.7372 H   0  0  0  0  0  0  0  0  0  0  0  0
   55.5978   24.9024   43.3831 H   0  0  0  0  0  0  0  0  0  0  0  0
  1  2  1  0
  2  3  2  0
  3  4  1  0
  4  5  2  0
  5  6  1  0
  6  7  1  0
  6  8  2  0
  8  9  1  0
  9 10  1  0
 10 11  2  0
 10 12  1  0
 12 13  2  0
 13 14  1  0
 14 15  1  0
 15 16  1  0
 16 17  1  0
 17 18  2  0
 18 19  1  0
 19 20  1  0
 15 21  2  0
  8  2  1  0
 21 12  1  0
 20 16  2  0
  1 22  1  0
  1 23  1  0
  1 24  1  0
  3 25  1  0
  4 26  1  0
  5 27  1  0
  7 28  1  0
  7 29  1  0
  7 30  1  0
  9 31  1  0
 13 32  1  0
 17 33  1  0
 18 34  1  0
 20 35  1  0
M  END
>  <UniqueID>  (85) 
78

>  <SMILES>  (85) 
Cc1cccc(C)c1NC(=O)c1csc(-c2ccsc2)n1

>  <Energy>  (85) 
97.95987236492076

>  <Genealogy>  (85) 
Cc1cccc(C)c1NC(=O)c1csc(-c2ccsc2)n1 (3D coordinates assigned)
Cc1cccc(C)c1NC(=O)c1csc(-c2ccsc2)n1 (optimized conformer: 97.95987236492076 kcal/mol)

>  <smiles>  (85) 
Cc1cccc(C)c1NC(=O)c1csc(-c2ccsc2)n1

>  <score_type>  (85) 
oracle

>  <origin>  (85) 
adg

>  <m_score__min__energy>  (85) 
-7.3399999999999999

>  <m_primary>  (85) 
energy

$$$$
85:0
     RDKit          3D

 22 22  0  0  0  0  0  0  0  0999 V2000
   57.3630   28.4670   42.8850 N   0  0  0  0  0  0  0  0  0  0  0  0
   56.5300   29.6730   42.9120 C   0  0  2  0  0  0  0  0  0  0  0  0
   57.3840   30.9440   42.7320 C   0  0  0  0  0  0  0  0  0  0  0  0
   57.8130   31.5730   44.0370 C   0  0  0  0  0  0  0  0  0  0  0  0
   57.5160   32.9190   44.3090 C   0  0  0  0  0  0  0  0  0  0  0  0
   57.9280   33.5040   45.5100 C   0  0  0  0  0  0  0  0  0  0  0  0
   58.6390   32.7510   46.4490 C   0  0  0  0  0  0  0  0  0  0  0  0
   59.1560   33.4870   47.9550 Cl  0  0  0  0  0  0  0  0  0  0  0  0
   58.9380   31.4110   46.1870 C   0  0  0  0  0  0  0  0  0  0  0  0
   58.5270   30.8230   44.9870 C   0  0  0  0  0  0  0  0  0  0  0  0
   55.6800   29.7380   44.1570 C   0  0  0  0  0  0  0  0  0  0  0  0
   55.1420   30.8250   44.4930 O   0  0  0  0  0  0  0  0  0  0  0  0
   55.5240   28.6210   44.9700 O   0  0  0  0  0  0  0  0  0  0  0  0
   58.3500   28.7080   43.1320 H   0  0  0  0  0  0  0  0  0  0  0  0
   57.0150   27.8070   43.6180 H   0  0  0  0  0  0  0  0  0  0  0  0
   55.8386   29.6176   42.0583 H   0  0  0  0  0  0  0  0  0  0  0  0
   58.2857   30.6793   42.1603 H   0  0  0  0  0  0  0  0  0  0  0  0
   56.7587   31.6818   42.2079 H   0  0  0  0  0  0  0  0  0  0  0  0
   56.9565   33.5155   43.5733 H   0  0  0  0  0  0  0  0  0  0  0  0
   57.6924   34.5584   45.7164 H   0  0  0  0  0  0  0  0  0  0  0  0
   59.4974   30.8183   46.9258 H   0  0  0  0  0  0  0  0  0  0  0  0
   58.7637   29.7679   44.7854 H   0  0  0  0  0  0  0  0  0  0  0  0
  1  2  1  0
  2  3  1  0
  3  4  1  0
  4  5  2  0
  5  6  1  0
  6  7  2  0
  7  8  1  0
  7  9  1  0
  9 10  2  0
  2 11  1  0
 11 12  2  0
 11 13  1  0
 10  4  1  0
  1 14  1  0
  1 15  1  0
  2 16  1  6
  3 17  1  0
  3 18  1  0
  5 19  1  0
  6 20  1  0
  9 21  1  0
 10 22  1  0
M  CHG  1  13  -1
M  END
>  <UniqueID>  (86) 
79

>  <SMILES>  (86) 
N[C@H](Cc1ccc(Cl)cc1)C(=O)[O-]

>  <Energy>  (86) 
18.697560015931302

>  <Genealogy>  (86) 
NC(Cc1ccc(Cl)cc1)C(=O)[O-] (protonated)
N[C@H](Cc1ccc(Cl)cc1)C(=O)[O-] (chirality)
N[C@H](Cc1ccc(Cl)cc1)C(=O)[O-] (3D coordinates assigned)
N[C@H](Cc1ccc(Cl)cc1)C(=O)[O-] (optimized conformer: 18.697560015931302 kcal/mol)

>  <smiles>  (86) 
NC(Cc1ccc(Cl)cc1)C(=O)O

>  <score_type>  (86) 
oracle

>  <origin>  (86) 
adg

>  <m_score__min__energy>  (86) 
-8.9600000000000009

>  <m_primary>  (86) 
energy

$$$$
86:0
     RDKit          3D

 35 36  0  0  0  0  0  0  0  0999 V2000
   59.0410   32.7020   49.4310 C   0  0  0  0  0  0  0  0  0  0  0  0
   59.7140   34.0350   49.1200 C   0  0  0  0  0  0  0  0  0  0  0  0
   61.0280   33.8170   48.4120 C   0  0  0  0  0  0  0  0  0  0  0  0
   62.1940   33.6000   49.1650 C   0  0  0  0  0  0  0  0  0  0  0  0
   63.4340   33.4340   48.5300 C   0  0  0  0  0  0  0  0  0  0  0  0
   64.6660   33.1570   49.3410 C   0  0  0  0  0  0  0  0  0  0  0  0
   63.5010   33.4600   47.1320 C   0  0  0  0  0  0  0  0  0  0  0  0
   62.3510   33.6910   46.3750 C   0  0  0  0  0  0  0  0  0  0  0  0
   61.1110   33.8940   47.0060 C   0  0  0  0  0  0  0  0  0  0  0  0
   59.9460   34.1250   46.2580 O   0  0  0  0  0  0  0  0  0  0  0  0
   59.1170   33.1300   45.7200 C   0  0  0  0  0  0  0  0  0  0  0  0
   58.3040   33.3680   44.6000 C   0  0  0  0  0  0  0  0  0  0  0  0
   57.4830   32.3490   44.1210 C   0  0  0  0  0  0  0  0  0  0  0  0
   57.4490   31.1020   44.7630 C   0  0  0  0  0  0  0  0  0  0  0  0
   56.5680   30.0300   44.2450 C   0  0  0  0  0  0  0  0  0  0  0  0
   56.9040   29.2960   43.0660 N   0  0  0  0  0  0  0  0  0  0  0  0
   55.5130   29.7360   44.8690 O   0  0  0  0  0  0  0  0  0  0  0  0
   58.2780   30.9060   45.8840 C   0  0  0  0  0  0  0  0  0  0  0  0
   58.3390   29.7050   46.5100 F   0  0  0  0  0  0  0  0  0  0  0  0
   59.0740   31.9160   46.3270 N   0  0  0  0  0  0  0  0  0  0  0  0
   58.9745   32.5703   50.5211 H   0  0  0  0  0  0  0  0  0  0  0  0
   58.0298   32.6920   48.9981 H   0  0  0  0  0  0  0  0  0  0  0  0
   59.6333   31.8824   48.9981 H   0  0  0  0  0  0  0  0  0  0  0  0
   59.0517   34.6322   48.4761 H   0  0  0  0  0  0  0  0  0  0  0  0
   59.9054   34.5634   50.0656 H   0  0  0  0  0  0  0  0  0  0  0  0
   62.1342   33.5599   50.2626 H   0  0  0  0  0  0  0  0  0  0  0  0
   64.4202   33.2123   50.4118 H   0  0  0  0  0  0  0  0  0  0  0  0
   65.0434   32.1516   49.1028 H   0  0  0  0  0  0  0  0  0  0  0  0
   65.4374   33.9041   49.1028 H   0  0  0  0  0  0  0  0  0  0  0  0
   64.4648   33.2976   46.6273 H   0  0  0  0  0  0  0  0  0  0  0  0
   62.4154   33.7144   45.2771 H   0  0  0  0  0  0  0  0  0  0  0  0
   58.3151   34.3503   44.1051 H   0  0  0  0  0  0  0  0  0  0  0  0
   56.8572   32.5235   43.2333 H   0  0  0  0  0  0  0  0  0  0  0  0
   57.8480   29.3750   42.6270 H   0  0  0  0  0  0  0  0  0  0  0  0
   56.2390   28.5870   42.6850 H   0  0  0  0  0  0  0  0  0  0  0  0
  1  2  1  0
  2  3  1  0
  3  4  2  0
  4  5  1  0
  5  6  1  0
  5  7  2  0
  7  8  1  0
  8  9  2  0
  9 10  1  0
 10 11  1  0
 11 12  2  0
 12 13  1  0
 13 14  2  0
 14 15  1  0
 15 16  1  0
 15 17  2  0
 14 18  1  0
 18 19  1  0
 18 20  2  0
  9  3  1  0
 20 11  1  0
  1 21  1  0
  1 22  1  0
  1 23  1  0
  2 24  1  0
  2 25  1  0
  4 26  1  0
  6 27  1  0
  6 28  1  0
  6 29  1  0
  7 30  1  0
  8 31  1  0
 12 32  1  0
 13 33  1  0
 16 34  1  0
 16 35  1  0
M  END
>  <UniqueID>  (87) 
80

>  <SMILES>  (87) 
CCc1cc(C)ccc1Oc1ccc(C(N)=O)c(F)n1

>  <Energy>  (87) 
41.405223539464046

>  <Genealogy>  (87) 
CCc1cc(C)ccc1Oc1ccc(C(N)=O)c(F)n1 (3D coordinates assigned)
CCc1cc(C)ccc1Oc1ccc(C(N)=O)c(F)n1 (optimized conformer: 41.405223539464046 kcal/mol)

>  <smiles>  (87) 
CCc1cc(C)ccc1Oc1ccc(C(N)=O)c(F)n1

>  <score_type>  (87) 
oracle

>  <origin>  (87) 
adg

>  <m_score__min__energy>  (87) 
-7.5700000000000003

>  <m_primary>  (87) 
energy

$$$$
87:0
     RDKit          3D

 42 44  0  0  0  0  0  0  0  0999 V2000
   57.2290   34.2020   45.2240 C   0  0  0  0  0  0  0  0  0  0  0  0
   57.8620   33.5080   46.2760 O   0  0  0  0  0  0  0  0  0  0  0  0
   59.1900   33.1820   45.9140 C   0  0  0  0  0  0  0  0  0  0  0  0
   59.5610   31.8590   46.4350 N   0  0  0  0  0  0  0  0  0  0  0  0
   60.6180   31.4760   47.2220 C   0  0  0  0  0  0  0  0  0  0  0  0
   61.7080   32.3660   47.7890 C   0  0  0  0  0  0  0  0  0  0  0  0
   62.8040   31.5790   48.5260 C   0  0  0  0  0  0  0  0  0  0  0  0
   63.8740   32.5380   49.0700 C   0  0  0  0  0  0  0  0  0  0  0  0
   64.4320   33.3790   48.0010 N   0  0  0  0  0  0  0  0  0  0  0  0
   63.3870   34.2040   47.3760 C   0  0  0  0  0  0  0  0  0  0  0  0
   62.2890   33.3360   46.7460 C   0  0  0  0  0  0  0  0  0  0  0  0
   60.5820   30.1500   47.5130 N   0  0  0  0  0  0  0  0  0  0  0  0
   59.4740   29.6970   46.9100 C   0  0  0  0  0  0  0  0  0  0  0  0
   58.9600   28.4040   46.9210 C   0  0  0  0  0  0  0  0  0  0  0  0
   57.7540   28.1730   46.2360 C   0  0  0  0  0  0  0  0  0  0  0  0
   57.0860   29.2370   45.5670 C   0  0  0  0  0  0  0  0  0  0  0  0
   55.8780   29.0470   44.8800 O   0  0  0  0  0  0  0  0  0  0  0  0
   55.5130   29.7360   43.6890 C   0  0  0  0  0  0  0  0  0  0  0  0
   57.6430   30.5310   45.5880 C   0  0  0  0  0  0  0  0  0  0  0  0
   58.8500   30.7220   46.2680 C   0  0  0  0  0  0  0  0  0  0  0  0
   56.5431   34.9540   45.6412 H   0  0  0  0  0  0  0  0  0  0  0  0
   57.9887   34.7019   44.6051 H   0  0  0  0  0  0  0  0  0  0  0  0
   56.6615   33.4914   44.6051 H   0  0  0  0  0  0  0  0  0  0  0  0
   59.2737   33.1745   44.8172 H   0  0  0  0  0  0  0  0  0  0  0  0
   59.8682   33.9340   46.3437 H   0  0  0  0  0  0  0  0  0  0  0  0
   61.2135   32.9879   48.5497 H   0  0  0  0  0  0  0  0  0  0  0  0
   62.3531   31.0258   49.3630 H   0  0  0  0  0  0  0  0  0  0  0  0
   63.2761   30.8779   47.8221 H   0  0  0  0  0  0  0  0  0  0  0  0
   63.4195   33.1852   49.8345 H   0  0  0  0  0  0  0  0  0  0  0  0
   64.6895   31.9390   49.5014 H   0  0  0  0  0  0  0  0  0  0  0  0
   64.8630   32.7640   47.2720 H   0  0  0  0  0  0  0  0  0  0  0  0
   62.9357   34.8510   48.1427 H   0  0  0  0  0  0  0  0  0  0  0  0
   63.8510   34.8057   46.5807 H   0  0  0  0  0  0  0  0  0  0  0  0
   61.4857   33.9855   46.3680 H   0  0  0  0  0  0  0  0  0  0  0  0
   62.7241   32.7537   45.9204 H   0  0  0  0  0  0  0  0  0  0  0  0
   61.2510   29.6030   48.0970 H   0  0  0  0  0  0  0  0  0  0  0  0
   59.4796   27.5901   47.4478 H   0  0  0  0  0  0  0  0  0  0  0  0
   57.3230   27.1611   46.2170 H   0  0  0  0  0  0  0  0  0  0  0  0
   55.0128   30.6802   43.9503 H   0  0  0  0  0  0  0  0  0  0  0  0
   56.4157   29.9505   43.0982 H   0  0  0  0  0  0  0  0  0  0  0  0
   54.8284   29.1097   43.0982 H   0  0  0  0  0  0  0  0  0  0  0  0
   57.1414   31.3694   45.0826 H   0  0  0  0  0  0  0  0  0  0  0  0
  1  2  1  0
  2  3  1  0
  3  4  1  0
  4  5  1  0
  5  6  1  0
  6  7  1  0
  7  8  1  0
  8  9  1  0
  9 10  1  0
 10 11  1  0
  5 12  2  0
 12 13  1  0
 13 14  2  0
 14 15  1  0
 15 16  2  0
 16 17  1  0
 17 18  1  0
 16 19  1  0
 19 20  2  0
 20  4  1  0
 11  6  1  0
 20 13  1  0
  1 21  1  0
  1 22  1  0
  1 23  1  0
  3 24  1  0
  3 25  1  0
  6 26  1  0
  7 27  1  0
  7 28  1  0
  8 29  1  0
  8 30  1  0
  9 31  1  0
 10 32  1  0
 10 33  1  0
 11 34  1  0
 11 35  1  0
 12 36  1  0
 14 37  1  0
 15 38  1  0
 18 39  1  0
 18 40  1  0
 18 41  1  0
 19 42  1  0
M  CHG  1  12   1
M  END
>  <UniqueID>  (88) 
81

>  <SMILES>  (88) 
COCn1c(C2CCNCC2)[nH+]c2ccc(OC)cc21

>  <Energy>  (88) 
81.70727396410504

>  <Genealogy>  (88) 
COCn1c(C2CCNCC2)[nH+]c2ccc(OC)cc21 (protonated)
COCn1c(C2CCNCC2)[nH+]c2ccc(OC)cc21 (3D coordinates assigned)
COCn1c(C2CCNCC2)[nH+]c2ccc(OC)cc21 (nonaromatic ring conformer: 81.70727396410504 kcal/mol)

>  <smiles>  (88) 
COCn1c(C2CCNCC2)nc2ccc(OC)cc21

>  <score_type>  (88) 
oracle

>  <origin>  (88) 
adg

>  <m_score__min__energy>  (88) 
-5.1299999999999999

>  <m_primary>  (88) 
energy

$$$$
88:0
     RDKit          3D

 45 47  0  0  0  0  0  0  0  0999 V2000
   55.5350   29.7200   43.5280 C   0  0  0  0  0  0  0  0  0  0  0  0
   56.5630   30.0600   44.5560 C   0  0  0  0  0  0  0  0  0  0  0  0
   57.1360   29.0760   45.2980 N   0  0  0  0  0  0  0  0  0  0  0  0
   58.0930   29.3640   46.2160 C   0  0  0  0  0  0  0  0  0  0  0  0
   58.5120   30.6810   46.3980 C   0  0  0  0  0  0  0  0  0  0  0  0
   57.9340   31.6880   45.6080 C   0  0  0  0  0  0  0  0  0  0  0  0
   58.3230   33.0700   45.7450 N   0  0  0  0  0  0  0  0  0  0  0  0
   58.5270   33.8670   44.5290 C   0  0  0  0  0  0  0  0  0  0  0  0
   58.9520   35.2970   44.8750 C   0  0  0  0  0  0  0  0  0  0  0  0
   60.0260   35.2720   45.8710 N   0  0  0  0  0  0  0  0  0  0  0  0
   59.5900   34.7000   47.1670 C   0  0  2  0  0  0  0  0  0  0  0  0
   60.7630   34.0430   47.8780 C   0  0  0  0  0  0  0  0  0  0  0  0
   61.8690   33.5700   47.1510 C   0  0  0  0  0  0  0  0  0  0  0  0
   62.9480   32.9750   47.8060 C   0  0  0  0  0  0  0  0  0  0  0  0
   62.9570   32.8390   49.2100 C   0  0  0  0  0  0  0  0  0  0  0  0
   64.0800   32.2190   49.8920 N   0  0  0  0  0  0  0  0  0  0  0  0
   65.4410   32.7390   49.7120 C   0  0  0  0  0  0  0  0  0  0  0  0
   63.8720   31.0640   50.7730 C   0  0  0  0  0  0  0  0  0  0  0  0
   61.8480   33.3240   49.9330 C   0  0  0  0  0  0  0  0  0  0  0  0
   60.7680   33.9200   49.2760 C   0  0  0  0  0  0  0  0  0  0  0  0
   58.3810   33.7250   47.0610 C   0  0  0  0  0  0  0  0  0  0  0  0
   56.9700   31.3490   44.7090 N   0  0  0  0  0  0  0  0  0  0  0  0
   54.6046   29.4123   44.0277 H   0  0  0  0  0  0  0  0  0  0  0  0
   55.3395   30.6013   42.8995 H   0  0  0  0  0  0  0  0  0  0  0  0
   55.9035   28.8959   42.8995 H   0  0  0  0  0  0  0  0  0  0  0  0
   58.5385   28.5575   46.8170 H   0  0  0  0  0  0  0  0  0  0  0  0
   59.2804   30.9267   47.1458 H   0  0  0  0  0  0  0  0  0  0  0  0
   59.3113   33.3965   43.9179 H   0  0  0  0  0  0  0  0  0  0  0  0
   57.5784   33.9080   43.9736 H   0  0  0  0  0  0  0  0  0  0  0  0
   59.3102   35.8010   43.9653 H   0  0  0  0  0  0  0  0  0  0  0  0
   58.0893   35.8410   45.2870 H   0  0  0  0  0  0  0  0  0  0  0  0
   60.8250   34.7270   45.4670 H   0  0  0  0  0  0  0  0  0  0  0  0
   59.2258   35.5478   47.7659 H   0  0  0  0  0  0  0  0  0  0  0  0
   61.8842   33.6698   46.0556 H   0  0  0  0  0  0  0  0  0  0  0  0
   63.8029   32.6071   47.2197 H   0  0  0  0  0  0  0  0  0  0  0  0
   65.8997   32.9143   50.6963 H   0  0  0  0  0  0  0  0  0  0  0  0
   66.0421   32.0072   49.1524 H   0  0  0  0  0  0  0  0  0  0  0  0
   65.4010   33.6852   49.1524 H   0  0  0  0  0  0  0  0  0  0  0  0
   63.9304   31.3882   51.8225 H   0  0  0  0  0  0  0  0  0  0  0  0
   62.8809   30.6282   50.5784 H   0  0  0  0  0  0  0  0  0  0  0  0
   64.6488   30.3098   50.5784 H   0  0  0  0  0  0  0  0  0  0  0  0
   61.8326   33.2321   51.0290 H   0  0  0  0  0  0  0  0  0  0  0  0
   59.9147   34.2959   49.8596 H   0  0  0  0  0  0  0  0  0  0  0  0
   58.4762   32.9534   47.8392 H   0  0  0  0  0  0  0  0  0  0  0  0
   57.4579   34.3082   47.1944 H   0  0  0  0  0  0  0  0  0  0  0  0
  1  2  1  0
  2  3  2  0
  3  4  1  0
  4  5  2  0
  5  6  1  0
  6  7  1  0
  7  8  1  0
  8  9  1  0
  9 10  1  0
 10 11  1  0
 11 12  1  0
 12 13  2  0
 13 14  1  0
 14 15  2  0
 15 16  1  0
 16 17  1  0
 16 18  1  0
 15 19  1  0
 19 20  2  0
 11 21  1  0
  6 22  2  0
 22  2  1  0
 21  7  1  0
 20 12  1  0
  1 23  1  0
  1 24  1  0
  1 25  1  0
  4 26  1  0
  5 27  1  0
  8 28  1  0
  8 29  1  0
  9 30  1  0
  9 31  1  0
 10 32  1  0
 11 33  1  1
 13 34  1  0
 14 35  1  0
 17 36  1  0
 17 37  1  0
 17 38  1  0
 18 39  1  0
 18 40  1  0
 18 41  1  0
 19 42  1  0
 20 43  1  0
 21 44  1  0
 21 45  1  0
M  END
>  <UniqueID>  (89) 
82

>  <SMILES>  (89) 
Cc1nccc(N2CCN[C@H](c3ccc(N(C)C)cc3)C2)n1

>  <Energy>  (89) 
55.742104094203775

>  <Genealogy>  (89) 
Cc1nccc(N2CCN[C@H](c3ccc(N(C)C)cc3)C2)n1 (chirality)
Cc1nccc(N2CCN[C@H](c3ccc(N(C)C)cc3)C2)n1 (3D coordinates assigned)
Cc1nccc(N2CCN[C@H](c3ccc(N(C)C)cc3)C2)n1 (nonaromatic ring conformer: 55.742104094203775 kcal/mol)

>  <smiles>  (89) 
Cc1nccc(N2CCNC(c3ccc(N(C)C)cc3)C2)n1

>  <score_type>  (89) 
oracle

>  <origin>  (89) 
adg

>  <m_score__min__energy>  (89) 
-7.1799999999999997

>  <m_primary>  (89) 
energy

$$$$
90:0
     RDKit          3D

 59 62  0  0  0  0  0  0  0  0999 V2000
   60.5990   29.3590   48.3190 C   0  0  0  0  0  0  0  0  0  0  0  0
   59.9830   29.1210   46.9710 C   0  0  0  0  0  0  0  0  0  0  0  0
   60.7740   29.1800   45.8150 C   0  0  0  0  0  0  0  0  0  0  0  0
   60.2080   28.9270   44.5640 C   0  0  0  0  0  0  0  0  0  0  0  0
   58.8540   28.6000   44.4570 C   0  0  0  0  0  0  0  0  0  0  0  0
   58.0480   28.5170   45.6080 C   0  0  0  0  0  0  0  0  0  0  0  0
   56.6160   28.1590   45.4950 C   0  0  0  0  0  0  0  0  0  0  0  0
   56.2490   26.9620   45.6480 O   0  0  0  0  0  0  0  0  0  0  0  0
   55.6400   29.1680   45.2130 N   0  0  0  0  0  0  0  0  0  0  0  0
   55.4060   29.6890   43.8740 C   0  0  0  0  0  0  0  0  0  0  0  0
   56.4190   30.7530   43.5680 C   0  0  0  0  0  0  0  0  0  0  0  0
   56.8060   30.9950   42.2430 C   0  0  0  0  0  0  0  0  0  0  0  0
   57.7730   31.9600   41.9580 C   0  0  0  0  0  0  0  0  0  0  0  0
   58.3680   32.6860   42.9920 C   0  0  0  0  0  0  0  0  0  0  0  0
   58.0040   32.4490   44.3300 C   0  0  0  0  0  0  0  0  0  0  0  0
   58.6340   33.2200   45.4310 C   0  0  0  0  0  0  0  0  0  0  0  0
   58.8160   34.6090   45.3140 C   0  0  0  0  0  0  0  0  0  0  0  0
   59.4230   35.3320   46.3430 C   0  0  0  0  0  0  0  0  0  0  0  0
   59.8480   34.6820   47.5020 C   0  0  0  0  0  0  0  0  0  0  0  0
   59.6580   33.2990   47.6510 C   0  0  0  0  0  0  0  0  0  0  0  0
   60.1300   32.5890   48.9050 C   0  0  0  0  0  0  0  0  0  0  0  0
   61.6050   32.4480   49.0190 N   0  0  0  0  0  0  0  0  0  0  0  0
   62.2160   33.5010   49.8670 C   0  0  0  0  0  0  0  0  0  0  0  0
   63.7540   33.5560   49.7190 C   0  0  0  0  0  0  0  0  0  0  0  0
   64.3010   32.2960   49.2010 N   0  0  0  0  0  0  0  0  0  0  0  0
   63.7590   31.9700   47.8700 C   0  0  0  0  0  0  0  0  0  0  0  0
   62.2750   32.3710   47.7060 C   0  0  0  0  0  0  0  0  0  0  0  0
   59.0650   32.5730   46.6030 C   0  0  0  0  0  0  0  0  0  0  0  0
   57.0300   31.4720   44.6080 C   0  0  0  0  0  0  0  0  0  0  0  0
   58.6270   28.7730   46.8660 C   0  0  0  0  0  0  0  0  0  0  0  0
   59.8807   29.0815   49.1045 H   0  0  0  0  0  0  0  0  0  0  0  0
   61.5075   28.7472   48.4202 H   0  0  0  0  0  0  0  0  0  0  0  0
   60.8602   30.4228   48.4202 H   0  0  0  0  0  0  0  0  0  0  0  0
   61.8432   29.4262   45.8938 H   0  0  0  0  0  0  0  0  0  0  0  0
   60.8307   28.9854   43.6591 H   0  0  0  0  0  0  0  0  0  0  0  0
   58.4150   28.4062   43.4672 H   0  0  0  0  0  0  0  0  0  0  0  0
   55.4981   28.8733   43.1417 H   0  0  0  0  0  0  0  0  0  0  0  0
   54.3947   30.1183   43.8188 H   0  0  0  0  0  0  0  0  0  0  0  0
   56.3458   30.4221   41.4245 H   0  0  0  0  0  0  0  0  0  0  0  0
   58.0676   32.1494   40.9152 H   0  0  0  0  0  0  0  0  0  0  0  0
   59.1262   33.4481   42.7587 H   0  0  0  0  0  0  0  0  0  0  0  0
   58.4781   35.1298   44.4059 H   0  0  0  0  0  0  0  0  0  0  0  0
   59.5665   36.4177   46.2394 H   0  0  0  0  0  0  0  0  0  0  0  0
   60.3348   35.2565   48.3038 H   0  0  0  0  0  0  0  0  0  0  0  0
   59.7714   33.1569   49.7762 H   0  0  0  0  0  0  0  0  0  0  0  0
   59.7224   31.5684   48.8571 H   0  0  0  0  0  0  0  0  0  0  0  0
   61.7570   31.5300   49.5010 H   0  0  0  0  0  0  0  0  0  0  0  0
   61.7978   34.4760   49.5763 H   0  0  0  0  0  0  0  0  0  0  0  0
   61.9877   33.2621   50.9162 H   0  0  0  0  0  0  0  0  0  0  0  0
   64.0154   34.3687   49.0253 H   0  0  0  0  0  0  0  0  0  0  0  0
   64.1857   33.7301   50.7157 H   0  0  0  0  0  0  0  0  0  0  0  0
   64.0650   31.5250   49.8700 H   0  0  0  0  0  0  0  0  0  0  0  0
   64.3515   32.5015   47.1107 H   0  0  0  0  0  0  0  0  0  0  0  0
   63.8196   30.8784   47.7490 H   0  0  0  0  0  0  0  0  0  0  0  0
   62.2191   33.3534   47.2143 H   0  0  0  0  0  0  0  0  0  0  0  0
   61.7689   31.6083   47.0959 H   0  0  0  0  0  0  0  0  0  0  0  0
   58.9365   31.4849   46.7011 H   0  0  0  0  0  0  0  0  0  0  0  0
   56.7443   31.2695   45.6508 H   0  0  0  0  0  0  0  0  0  0  0  0
   58.0112   28.6996   47.7745 H   0  0  0  0  0  0  0  0  0  0  0  0
  1  2  1  0
  2  3  2  0
  3  4  1  0
  4  5  2  0
  5  6  1  0
  6  7  1  0
  7  8  2  0
  7  9  1  0
  9 10  1  0
 10 11  1  0
 11 12  2  0
 12 13  1  0
 13 14  2  0
 14 15  1  0
 15 16  1  0
 16 17  2  0
 17 18  1  0
 18 19  2  0
 19 20  1  0
 20 21  1  0
 21 22  1  0
 22 23  1  0
 23 24  1  0
 24 25  1  0
 25 26  1  0
 26 27  1  0
 20 28  2  0
 15 29  2  0
  6 30  2  0
 30  2  1  0
 29 11  1  0
 28 16  1  0
 27 22  1  0
  1 31  1  0
  1 32  1  0
  1 33  1  0
  3 34  1  0
  4 35  1  0
  5 36  1  0
 10 37  1  0
 10 38  1  0
 12 39  1  0
 13 40  1  0
 14 41  1  0
 17 42  1  0
 18 43  1  0
 19 44  1  0
 21 45  1  0
 21 46  1  0
 22 47  1  0
 23 48  1  0
 23 49  1  0
 24 50  1  0
 24 51  1  0
 25 52  1  0
 26 53  1  0
 26 54  1  0
 27 55  1  0
 27 56  1  0
 28 57  1  0
 29 58  1  0
 30 59  1  0
M  CHG  2   9  -1  22   1
M  END
>  <UniqueID>  (90) 
83

>  <SMILES>  (90) 
Cc1cccc(C(=O)[N-]Cc2cccc(-c3cccc(C[NH+]4CCNCC4)c3)c2)c1

>  <Energy>  (90) 
75.48843853893213

>  <Genealogy>  (90) 
Cc1cccc(C(=O)[N-]Cc2cccc(-c3cccc(C[NH+]4CCNCC4)c3)c2)c1 (protonated)
Cc1cccc(C(=O)[N-]Cc2cccc(-c3cccc(C[NH+]4CCNCC4)c3)c2)c1 (3D coordinates assigned)
Cc1cccc(C(=O)[N-]Cc2cccc(-c3cccc(C[NH+]4CCNCC4)c3)c2)c1 (nonaromatic ring conformer: 75.48843853893213 kcal/mol)

>  <smiles>  (90) 
Cc1cccc(C(=O)NCc2cccc(-c3cccc(CN4CCNCC4)c3)c2)c1

>  <score_type>  (90) 
oracle

>  <origin>  (90) 
adg

>  <m_score__min__energy>  (90) 
-10.91

>  <m_primary>  (90) 
energy

$$$$
91:0
     RDKit          3D

 30 31  0  0  0  0  0  0  0  0999 V2000
   56.6940   30.3820   43.1760 C   0  0  0  0  0  0  0  0  0  0  0  0
   56.5110   30.8700   44.5000 O   0  0  0  0  0  0  0  0  0  0  0  0
   57.3980   31.7370   45.1540 C   0  0  0  0  0  0  0  0  0  0  0  0
   57.4220   33.0810   44.7700 C   0  0  0  0  0  0  0  0  0  0  0  0
   58.2890   33.9840   45.3920 C   0  0  0  0  0  0  0  0  0  0  0  0
   59.1430   33.5590   46.4240 C   0  0  0  0  0  0  0  0  0  0  0  0
   60.1010   34.5510   47.0580 C   0  0  2  0  0  0  0  0  0  0  0  0
   61.5710   34.2110   46.7280 C   0  0  0  0  0  0  0  0  0  0  0  0
   62.1410   33.1490   47.6430 C   0  0  0  0  0  0  0  0  0  0  0  0
   63.2360   32.2490   47.1630 C   0  0  0  0  0  0  0  0  0  0  0  0
   61.7630   33.0680   48.8840 N   0  0  0  0  0  0  0  0  0  0  0  0
   60.7070   33.8780   49.4050 C   0  0  0  0  0  0  0  0  0  0  0  0
   60.3580   33.8290   51.0000 S   0  0  0  0  0  0  0  0  0  0  0  0
   59.8910   34.6350   48.5050 N   0  0  0  0  0  0  0  0  0  0  0  0
   59.1280   32.2030   46.8000 C   0  0  0  0  0  0  0  0  0  0  0  0
   58.2620   31.3010   46.1770 C   0  0  0  0  0  0  0  0  0  0  0  0
   57.0800   29.3527   43.2147 H   0  0  0  0  0  0  0  0  0  0  0  0
   55.7308   30.3927   42.6449 H   0  0  0  0  0  0  0  0  0  0  0  0
   57.4127   31.0234   42.6449 H   0  0  0  0  0  0  0  0  0  0  0  0
   56.7522   33.4313   43.9708 H   0  0  0  0  0  0  0  0  0  0  0  0
   58.3029   35.0360   45.0710 H   0  0  0  0  0  0  0  0  0  0  0  0
   59.8864   35.5396   46.6261 H   0  0  0  0  0  0  0  0  0  0  0  0
   61.6247   33.8485   45.6908 H   0  0  0  0  0  0  0  0  0  0  0  0
   62.1648   35.1262   46.8685 H   0  0  0  0  0  0  0  0  0  0  0  0
   63.7613   31.8173   48.0277 H   0  0  0  0  0  0  0  0  0  0  0  0
   62.8055   31.4402   46.5542 H   0  0  0  0  0  0  0  0  0  0  0  0
   63.9461   32.8279   46.5542 H   0  0  0  0  0  0  0  0  0  0  0  0
   59.0660   35.1640   48.8700 H   0  0  0  0  0  0  0  0  0  0  0  0
   59.8047   31.8499   47.5921 H   0  0  0  0  0  0  0  0  0  0  0  0
   58.2550   30.2456   46.4869 H   0  0  0  0  0  0  0  0  0  0  0  0
  1  2  1  0
  2  3  1  0
  3  4  2  0
  4  5  1  0
  5  6  2  0
  6  7  1  0
  7  8  1  0
  8  9  1  0
  9 10  1  0
  9 11  2  0
 11 12  1  0
 12 13  2  0
 12 14  1  0
  6 15  1  0
 15 16  2  0
 16  3  1  0
 14  7  1  0
  1 17  1  0
  1 18  1  0
  1 19  1  0
  4 20  1  0
  5 21  1  0
  7 22  1  6
  8 23  1  0
  8 24  1  0
 10 25  1  0
 10 26  1  0
 10 27  1  0
 14 28  1  0
 15 29  1  0
 16 30  1  0
M  END
>  <UniqueID>  (91) 
84

>  <SMILES>  (91) 
COc1ccc([C@@H]2CC(C)=NC(=S)N2)cc1

>  <Energy>  (91) 
26.833841397198082

>  <Genealogy>  (91) 
COc1ccc([C@@H]2CC(C)=NC(=S)N2)cc1 (chirality)
COc1ccc([C@@H]2CC(C)=NC(=S)N2)cc1 (3D coordinates assigned)
COc1ccc([C@@H]2CC(C)=NC(=S)N2)cc1 (nonaromatic ring conformer: 26.833841397198082 kcal/mol)

>  <smiles>  (91) 
COc1ccc(C2CC(C)=NC(=S)N2)cc1

>  <score_type>  (91) 
oracle

>  <origin>  (91) 
adg

>  <m_score__min__energy>  (91) 
-6.2699999999999996

>  <m_primary>  (91) 
energy

$$$$
92:0
     RDKit          3D

 60 63  0  0  0  0  0  0  0  0999 V2000
   55.7310   28.7540   45.1920 N   0  0  0  0  0  0  0  0  0  0  0  0
   56.7670   30.0490   44.7080 S   0  0  0  0  0  0  0  0  0  0  0  0
   56.0030   31.3420   44.7520 O   0  0  0  0  0  0  0  0  0  0  0  0
   57.2410   29.8170   43.3010 O   0  0  0  0  0  0  0  0  0  0  0  0
   58.1500   30.1340   45.7950 C   0  0  0  0  0  0  0  0  0  0  0  0
   58.1020   29.4980   47.0410 C   0  0  0  0  0  0  0  0  0  0  0  0
   59.1920   29.5740   47.9150 C   0  0  0  0  0  0  0  0  0  0  0  0
   60.3490   30.2880   47.5520 C   0  0  0  0  0  0  0  0  0  0  0  0
   61.5100   30.3890   48.4680 C   0  0  0  0  0  0  0  0  0  0  0  0
   62.5920   30.8750   48.0400 O   0  0  0  0  0  0  0  0  0  0  0  0
   61.4280   29.9280   49.8280 N   0  0  0  0  0  0  0  0  0  0  0  0
   62.5020   30.1540   50.7940 C   0  0  0  0  0  0  0  0  0  0  0  0
   61.9310   30.5310   52.1450 C   0  0  0  0  0  0  0  0  0  0  0  0
   61.2220   29.5470   52.8560 C   0  0  0  0  0  0  0  0  0  0  0  0
   60.6730   29.8250   54.1080 C   0  0  0  0  0  0  0  0  0  0  0  0
   60.8190   31.0930   54.6680 C   0  0  0  0  0  0  0  0  0  0  0  0
   61.5090   32.0870   53.9760 C   0  0  0  0  0  0  0  0  0  0  0  0
   62.0690   31.8300   52.7100 C   0  0  0  0  0  0  0  0  0  0  0  0
   62.7790   32.9590   51.9930 C   0  0  0  0  0  0  0  0  0  0  0  0
   61.8260   33.7560   51.1950 N   0  0  0  0  0  0  0  0  0  0  0  0
   60.5220   33.0620   51.1090 C   0  0  0  0  0  0  0  0  0  0  0  0
   59.6000   33.7280   50.0850 C   0  0  0  0  0  0  0  0  0  0  0  0
   60.2360   33.7540   48.7630 N   0  0  0  0  0  0  0  0  0  0  0  0
   59.4310   33.8800   47.5700 C   0  0  0  0  0  0  0  0  0  0  0  0
   58.1380   33.3230   47.5180 C   0  0  0  0  0  0  0  0  0  0  0  0
   57.3600   33.4400   46.3620 C   0  0  0  0  0  0  0  0  0  0  0  0
   57.8630   34.1070   45.2430 C   0  0  0  0  0  0  0  0  0  0  0  0
   57.1090   34.2170   44.1230 F   0  0  0  0  0  0  0  0  0  0  0  0
   59.1460   34.6610   45.2790 C   0  0  0  0  0  0  0  0  0  0  0  0
   59.9260   34.5480   46.4330 C   0  0  0  0  0  0  0  0  0  0  0  0
   61.6870   33.5430   48.6710 C   0  0  0  0  0  0  0  0  0  0  0  0
   62.3930   34.1710   49.8810 C   0  0  0  0  0  0  0  0  0  0  0  0
   60.3810   30.9390   46.3050 C   0  0  0  0  0  0  0  0  0  0  0  0
   59.2900   30.8610   45.4330 C   0  0  0  0  0  0  0  0  0  0  0  0
   54.7730   28.9850   44.8440 H   0  0  0  0  0  0  0  0  0  0  0  0
   57.2032   28.9358   47.3344 H   0  0  0  0  0  0  0  0  0  0  0  0
   59.1442   29.0721   48.8927 H   0  0  0  0  0  0  0  0  0  0  0  0
   60.5980   29.3770   50.1440 H   0  0  0  0  0  0  0  0  0  0  0  0
   63.0961   29.2339   50.8963 H   0  0  0  0  0  0  0  0  0  0  0  0
   63.1362   30.9775   50.4340 H   0  0  0  0  0  0  0  0  0  0  0  0
   61.0985   28.5449   52.4195 H   0  0  0  0  0  0  0  0  0  0  0  0
   60.1245   29.0430   54.6536 H   0  0  0  0  0  0  0  0  0  0  0  0
   60.3892   31.3095   55.6571 H   0  0  0  0  0  0  0  0  0  0  0  0
   61.6174   33.0854   54.4249 H   0  0  0  0  0  0  0  0  0  0  0  0
   63.2608   33.6114   52.7361 H   0  0  0  0  0  0  0  0  0  0  0  0
   63.5313   32.5282   51.3159 H   0  0  0  0  0  0  0  0  0  0  0  0
   60.6920   32.0169   50.8108 H   0  0  0  0  0  0  0  0  0  0  0  0
   60.0375   33.1133   52.0952 H   0  0  0  0  0  0  0  0  0  0  0  0
   58.6588   33.1621   50.0231 H   0  0  0  0  0  0  0  0  0  0  0  0
   59.4001   34.7614   50.4046 H   0  0  0  0  0  0  0  0  0  0  0  0
   57.7372   32.7918   48.3939 H   0  0  0  0  0  0  0  0  0  0  0  0
   56.3497   33.0058   46.3340 H   0  0  0  0  0  0  0  0  0  0  0  0
   59.5422   35.1866   44.3977 H   0  0  0  0  0  0  0  0  0  0  0  0
   60.9354   34.9846   46.4536 H   0  0  0  0  0  0  0  0  0  0  0  0
   61.8963   32.4633   48.6485 H   0  0  0  0  0  0  0  0  0  0  0  0
   62.0607   34.0177   47.7518 H   0  0  0  0  0  0  0  0  0  0  0  0
   63.4530   33.8783   49.8535 H   0  0  0  0  0  0  0  0  0  0  0  0
   62.2524   35.2592   49.8026 H   0  0  0  0  0  0  0  0  0  0  0  0
   61.2719   31.5144   46.0132 H   0  0  0  0  0  0  0  0  0  0  0  0
   59.3281   31.3725   44.4599 H   0  0  0  0  0  0  0  0  0  0  0  0
  1  2  1  0
  2  3  2  0
  2  4  2  0
  2  5  1  0
  5  6  2  0
  6  7  1  0
  7  8  2  0
  8  9  1  0
  9 10  2  0
  9 11  1  0
 11 12  1  0
 12 13  1  0
 13 14  2  0
 14 15  1  0
 15 16  2  0
 16 17  1  0
 17 18  2  0
 18 19  1  0
 19 20  1  0
 20 21  1  0
 21 22  1  0
 22 23  1  0
 23 24  1  0
 24 25  2  0
 25 26  1  0
 26 27  2  0
 27 28  1  0
 27 29  1  0
 29 30  2  0
 23 31  1  0
 31 32  1  0
  8 33  1  0
 33 34  2  0
 34  5  1  0
 18 13  1  0
 32 20  1  0
 30 24  1  0
  1 35  1  0
  6 36  1  0
  7 37  1  0
 11 38  1  0
 12 39  1  0
 12 40  1  0
 14 41  1  0
 15 42  1  0
 16 43  1  0
 17 44  1  0
 19 45  1  0
 19 46  1  0
 21 47  1  0
 21 48  1  0
 22 49  1  0
 22 50  1  0
 25 51  1  0
 26 52  1  0
 29 53  1  0
 30 54  1  0
 31 55  1  0
 31 56  1  0
 32 57  1  0
 32 58  1  0
 33 59  1  0
 34 60  1  0
M  CHG  1   1  -1
M  END
>  <UniqueID>  (92) 
85

>  <SMILES>  (92) 
[NH-]S(=O)(=O)c1ccc(C(=O)NCc2ccccc2CN2CCN(c3ccc(F)cc3)CC2)cc1

>  <Energy>  (92) 
75.86815754725052

>  <Genealogy>  (92) 
[NH-]S(=O)(=O)c1ccc(C(=O)NCc2ccccc2CN2CCN(c3ccc(F)cc3)CC2)cc1 (protonated)
[NH-]S(=O)(=O)c1ccc(C(=O)NCc2ccccc2CN2CCN(c3ccc(F)cc3)CC2)cc1 (3D coordinates assigned)
[NH-]S(=O)(=O)c1ccc(C(=O)NCc2ccccc2CN2CCN(c3ccc(F)cc3)CC2)cc1 (nonaromatic ring conformer: 75.86815754725052 kcal/mol)

>  <smiles>  (92) 
NS(=O)(=O)c1ccc(C(=O)NCc2ccccc2CN2CCN(c3ccc(F)cc3)CC2)cc1

>  <score_type>  (92) 
oracle

>  <origin>  (92) 
adg

>  <m_score__min__energy>  (92) 
-11.529999999999999

>  <m_primary>  (92) 
energy

$$$$
93:0
     RDKit          3D

 34 35  0  0  0  0  0  0  0  0999 V2000
   55.4360   29.7450   43.8750 C   0  0  0  0  0  0  0  0  0  0  0  0
   55.7190   28.8140   44.9140 O   0  0  0  0  0  0  0  0  0  0  0  0
   57.0000   28.3230   45.2150 C   0  0  0  0  0  0  0  0  0  0  0  0
   58.1700   29.0050   44.8280 C   0  0  0  0  0  0  0  0  0  0  0  0
   59.4280   28.4890   45.1520 C   0  0  0  0  0  0  0  0  0  0  0  0
   59.5310   27.2980   45.8720 C   0  0  0  0  0  0  0  0  0  0  0  0
   58.3770   26.6130   46.2610 C   0  0  0  0  0  0  0  0  0  0  0  0
   57.1060   27.1100   45.9190 C   0  0  0  0  0  0  0  0  0  0  0  0
   55.9020   26.4400   46.3260 N   0  0  0  0  0  0  0  0  0  0  0  0
   55.5200   25.0960   46.0010 C   0  0  0  0  0  0  0  0  0  0  0  0
   54.3480   24.8510   45.6060 O   0  0  0  0  0  0  0  0  0  0  0  0
   56.4560   24.0160   46.1960 N   0  0  0  0  0  0  0  0  0  0  0  0
   56.9970   23.7620   47.5340 C   0  0  0  0  0  0  0  0  0  0  0  0
   56.7650   23.1100   45.1180 C   0  0  0  0  0  0  0  0  0  0  0  0
   56.2760   23.3440   43.8240 C   0  0  0  0  0  0  0  0  0  0  0  0
   56.5900   22.4640   42.7870 C   0  0  0  0  0  0  0  0  0  0  0  0
   57.3940   21.3540   43.0530 C   0  0  0  0  0  0  0  0  0  0  0  0
   57.8680   21.1380   44.3090 N   0  0  0  0  0  0  0  0  0  0  0  0
   57.5750   21.9840   45.3350 C   0  0  0  0  0  0  0  0  0  0  0  0
   55.1430   30.7090   44.3163 H   0  0  0  0  0  0  0  0  0  0  0  0
   56.3325   29.8839   43.2529 H   0  0  0  0  0  0  0  0  0  0  0  0
   54.6139   29.3615   43.2529 H   0  0  0  0  0  0  0  0  0  0  0  0
   58.0934   29.9486   44.2679 H   0  0  0  0  0  0  0  0  0  0  0  0
   60.3378   29.0223   44.8391 H   0  0  0  0  0  0  0  0  0  0  0  0
   60.5218   26.8981   46.1336 H   0  0  0  0  0  0  0  0  0  0  0  0
   58.4627   25.6802   46.8377 H   0  0  0  0  0  0  0  0  0  0  0  0
   56.2752   24.1009   48.2918 H   0  0  0  0  0  0  0  0  0  0  0  0
   57.1792   22.6842   47.6573 H   0  0  0  0  0  0  0  0  0  0  0  0
   57.9426   24.3102   47.6573 H   0  0  0  0  0  0  0  0  0  0  0  0
   55.6441   24.2224   43.6263 H   0  0  0  0  0  0  0  0  0  0  0  0
   56.2081   22.6431   41.7711 H   0  0  0  0  0  0  0  0  0  0  0  0
   57.6448   20.6521   42.2440 H   0  0  0  0  0  0  0  0  0  0  0  0
   58.4690   20.3040   44.4910 H   0  0  0  0  0  0  0  0  0  0  0  0
   57.9753   21.7840   46.3398 H   0  0  0  0  0  0  0  0  0  0  0  0
  1  2  1  0
  2  3  1  0
  3  4  2  0
  4  5  1  0
  5  6  2  0
  6  7  1  0
  7  8  2  0
  8  9  1  0
  9 10  1  0
 10 11  2  0
 10 12  1  0
 12 13  1  0
 12 14  1  0
 14 15  2  0
 15 16  1  0
 16 17  2  0
 17 18  1  0
 18 19  2  0
  8  3  1  0
 19 14  1  0
  1 20  1  0
  1 21  1  0
  1 22  1  0
  4 23  1  0
  5 24  1  0
  6 25  1  0
  7 26  1  0
 13 27  1  0
 13 28  1  0
 13 29  1  0
 15 30  1  0
 16 31  1  0
 17 32  1  0
 18 33  1  0
 19 34  1  0
M  CHG  2   9  -1  18   1
M  END
>  <UniqueID>  (93) 
86

>  <SMILES>  (93) 
COc1ccccc1[N-]C(=O)N(C)c1ccc[nH+]c1

>  <Energy>  (93) 
42.35715313060627

>  <Genealogy>  (93) 
COc1ccccc1[N-]C(=O)N(C)c1ccc[nH+]c1 (protonated)
COc1ccccc1[N-]C(=O)N(C)c1ccc[nH+]c1 (3D coordinates assigned)
COc1ccccc1[N-]C(=O)N(C)c1ccc[nH+]c1 (optimized conformer: 42.35715313060627 kcal/mol)

>  <smiles>  (93) 
COc1ccccc1NC(=O)N(C)c1cccnc1

>  <score_type>  (93) 
oracle

>  <origin>  (93) 
adg

>  <m_score__min__energy>  (93) 
-7.9400000000000004

>  <m_primary>  (93) 
energy

$$$$
94:0
     RDKit          3D

 52 55  0  0  1  0  0  0  0  0999 V2000
   63.1160   33.1790   47.6120 C   0  0  0  0  0  0  0  0  0  0  0  0
   61.9450   33.0270   48.3990 O   0  0  0  0  0  0  0  0  0  0  0  0
   61.2770   31.8110   48.3000 C   0  0  0  0  0  0  0  0  0  0  0  0
   61.2440   31.1330   47.0960 C   0  0  0  0  0  0  0  0  0  0  0  0
   60.5690   29.9130   47.0110 C   0  0  0  0  0  0  0  0  0  0  0  0
   59.9440   29.3960   48.1260 C   0  0  0  0  0  0  0  0  0  0  0  0
   59.2410   28.1690   48.1200 N   0  0  0  0  0  0  0  0  0  0  0  0
   58.6400   27.8180   47.0210 C   0  0  0  0  0  0  0  0  0  0  0  0
   58.9080   26.5540   46.5100 C   0  0  0  0  0  0  0  0  0  0  0  0
   58.2710   26.1730   45.3390 C   0  0  0  0  0  0  0  0  0  0  0  0
   57.4230   27.0360   44.7460 N   0  0  0  0  0  0  0  0  0  0  0  0
   57.1640   28.2640   45.2430 C   0  0  0  0  0  0  0  0  0  0  0  0
   56.3480   29.0680   44.6550 N   0  0  0  0  0  0  0  0  0  0  0  0
   56.8660   30.3000   44.1800 C   0  0  0  0  0  0  0  0  0  0  0  0
   56.8950   30.4960   42.8210 C   0  0  0  0  0  0  0  0  0  0  0  0
   57.3980   31.6930   42.3650 C   0  0  0  0  0  0  0  0  0  0  0  0
   57.8680   32.6830   43.2350 C   0  0  0  0  0  0  0  0  0  0  0  0
   57.8390   32.4840   44.5940 C   0  0  0  0  0  0  0  0  0  0  0  0
   58.3240   33.5110   45.4370 N   0  0  0  0  0  0  0  0  0  0  0  0
   59.4500   34.2950   44.9550 C   0  0  0  0  0  0  0  0  0  0  0  0
   59.9140   35.2490   46.0410 C   0  0  0  0  0  0  0  0  0  0  0  0
   60.1280   34.4130   47.2160 N   0  0  0  0  0  0  0  0  0  0  0  0
   58.9080   33.8860   47.7550 C   0  0  0  0  0  0  0  0  0  0  0  0
   57.7910   33.8400   46.7290 C   0  0  0  0  0  0  0  0  0  0  0  0
   57.3340   31.2850   45.0470 C   0  0  0  0  0  0  0  0  0  0  0  0
   57.7790   28.6590   46.3940 N   0  0  0  0  0  0  0  0  0  0  0  0
   59.9870   30.0960   49.3360 C   0  0  0  0  0  0  0  0  0  0  0  0
   60.6580   31.3150   49.4290 C   0  0  0  0  0  0  0  0  0  0  0  0
   63.9889   33.2923   48.2716 H   0  0  0  0  0  0  0  0  0  0  0  0
   63.2490   32.2906   46.9772 H   0  0  0  0  0  0  0  0  0  0  0  0
   63.0178   34.0719   46.9772 H   0  0  0  0  0  0  0  0  0  0  0  0
   61.7458   31.5512   46.2109 H   0  0  0  0  0  0  0  0  0  0  0  0
   60.5362   29.3662   46.0571 H   0  0  0  0  0  0  0  0  0  0  0  0
   59.6063   25.8744   47.0204 H   0  0  0  0  0  0  0  0  0  0  0  0
   58.4551   25.1811   44.9006 H   0  0  0  0  0  0  0  0  0  0  0  0
   56.9670   26.7030   43.8650 H   0  0  0  0  0  0  0  0  0  0  0  0
   56.5305   29.7265   42.1245 H   0  0  0  0  0  0  0  0  0  0  0  0
   57.4317   31.8776   41.2811 H   0  0  0  0  0  0  0  0  0  0  0  0
   58.2629   33.6258   42.8286 H   0  0  0  0  0  0  0  0  0  0  0  0
   60.2756   33.6204   44.6842 H   0  0  0  0  0  0  0  0  0  0  0  0
   59.1392   34.8728   44.0721 H   0  0  0  0  0  0  0  0  0  0  0  0
   60.8499   35.7454   45.7448 H   0  0  0  0  0  0  0  0  0  0  0  0
   59.1796   36.0457   46.2306 H   0  0  0  0  0  0  0  0  0  0  0  0
   60.6200   34.9460   47.9610 H   0  0  0  0  0  0  0  0  0  0  0  0
   59.0952   32.8648   48.1186 H   0  0  0  0  0  0  0  0  0  0  0  0
   58.5868   34.5528   48.5688 H   0  0  0  0  0  0  0  0  0  0  0  0
   57.0559   33.0770   47.0248 H   0  0  0  0  0  0  0  0  0  0  0  0
   57.3059   34.8260   46.6790 H   0  0  0  0  0  0  0  0  0  0  0  0
   57.2991   31.0989   46.1306 H   0  0  0  0  0  0  0  0  0  0  0  0
   57.5770   29.6080   46.7760 H   0  0  0  0  0  0  0  0  0  0  0  0
   59.4865   29.6809   50.2233 H   0  0  0  0  0  0  0  0  0  0  0  0
   60.6929   31.8677   50.3794 H   0  0  0  0  0  0  0  0  0  0  0  0
  1  2  1  0
  2  3  1  0
  3  4  2  0
  4  5  1  0
  5  6  2  0
  6  7  1  0
  7  8  2  0
  8  9  1  0
  9 10  2  0
 10 11  1  0
 11 12  1  0
 12 13  2  0
 13 14  1  0
 14 15  2  0
 15 16  1  0
 16 17  2  0
 17 18  1  0
 18 19  1  0
 19 20  1  0
 20 21  1  0
 21 22  1  0
 22 23  1  0
 23 24  1  0
 18 25  2  0
 12 26  1  0
  6 27  1  0
 27 28  2  0
 28  3  1  0
 26  8  1  0
 25 14  1  0
 24 19  1  0
  1 29  1  0
  1 30  1  0
  1 31  1  0
  4 32  1  0
  5 33  1  0
  9 34  1  0
 10 35  1  0
 11 36  1  0
 15 37  1  0
 16 38  1  0
 17 39  1  0
 20 40  1  0
 20 41  1  0
 21 42  1  0
 21 43  1  0
 22 44  1  0
 23 45  1  0
 23 46  1  0
 24 47  1  0
 24 48  1  0
 25 49  1  0
 26 50  1  0
 27 51  1  0
 28 52  1  0
M  END
>  <smiles>  (94) 
COc1ccc(N=c2cc[nH]c(=Nc3cccc(N4CCNCC4)c3)[nH]2)cc1

>  <score_type>  (94) 
oracle

>  <origin>  (94) 
adg

>  <m_score__min__energy>  (94) 
-9.5500000000000007

>  <m_primary>  (94) 
energy

$$$$
95:0
     RDKit          3D

 28 29  0  0  0  0  0  0  0  0999 V2000
   56.9680   30.4520   43.1270 C   0  0  0  0  0  0  0  0  0  0  0  0
   57.7090   30.5040   44.3920 N   0  0  0  0  0  0  0  0  0  0  0  0
   58.0090   31.7660   45.0310 C   0  0  0  0  0  0  0  0  0  0  0  0
   58.1950   31.8510   46.4270 C   0  0  0  0  0  0  0  0  0  0  0  0
   58.4860   33.0780   47.0310 C   0  0  0  0  0  0  0  0  0  0  0  0
   58.5980   34.2330   46.2550 C   0  0  0  0  0  0  0  0  0  0  0  0
   58.8810   35.4210   46.8440 F   0  0  0  0  0  0  0  0  0  0  0  0
   58.4190   34.1640   44.8720 C   0  0  0  0  0  0  0  0  0  0  0  0
   58.1270   32.9410   44.2630 C   0  0  0  0  0  0  0  0  0  0  0  0
   58.3420   29.2980   44.8550 C   0  0  0  0  0  0  0  0  0  0  0  0
   59.7410   29.2290   44.8860 C   0  0  0  0  0  0  0  0  0  0  0  0
   60.3770   28.0500   45.2710 C   0  0  0  0  0  0  0  0  0  0  0  0
   59.6060   26.9440   45.6220 C   0  0  0  0  0  0  0  0  0  0  0  0
   58.2500   27.0240   45.6010 N   0  0  0  0  0  0  0  0  0  0  0  0
   57.5910   28.1630   45.2410 C   0  0  0  0  0  0  0  0  0  0  0  0
   56.1550   28.1770   45.2850 N   0  0  0  0  0  0  0  0  0  0  0  0
   55.5390   27.1460   45.6270 O   0  0  0  0  0  0  0  0  0  0  0  0
   55.4480   29.3450   45.1160 O   0  0  0  0  0  0  0  0  0  0  0  0
   55.8907   30.3764   43.3360 H   0  0  0  0  0  0  0  0  0  0  0  0
   57.1660   31.3662   42.5482 H   0  0  0  0  0  0  0  0  0  0  0  0
   57.2917   29.5744   42.5482 H   0  0  0  0  0  0  0  0  0  0  0  0
   58.1104   30.9450   47.0450 H   0  0  0  0  0  0  0  0  0  0  0  0
   58.6271   33.1333   48.1205 H   0  0  0  0  0  0  0  0  0  0  0  0
   58.5080   35.0742   44.2608 H   0  0  0  0  0  0  0  0  0  0  0  0
   57.9878   32.8951   43.1728 H   0  0  0  0  0  0  0  0  0  0  0  0
   60.3395   30.1083   44.6055 H   0  0  0  0  0  0  0  0  0  0  0  0
   61.4752   27.9935   45.2974 H   0  0  0  0  0  0  0  0  0  0  0  0
   60.0961   26.0043   45.9167 H   0  0  0  0  0  0  0  0  0  0  0  0
  1  2  1  0
  2  3  1  0
  3  4  2  0
  4  5  1  0
  5  6  2  0
  6  7  1  0
  6  8  1  0
  8  9  2  0
  2 10  1  0
 10 11  2  0
 11 12  1  0
 12 13  2  0
 13 14  1  0
 14 15  2  0
 15 16  1  0
 16 17  2  0
 16 18  1  0
  9  3  1  0
 15 10  1  0
  1 19  1  0
  1 20  1  0
  1 21  1  0
  4 22  1  0
  5 23  1  0
  8 24  1  0
  9 25  1  0
 11 26  1  0
 12 27  1  0
 13 28  1  0
M  CHG  2  16   1  18  -1
M  END
>  <UniqueID>  (95) 
87

>  <SMILES>  (95) 
CN(c1ccc(F)cc1)c1cccnc1[N+](=O)[O-]

>  <Energy>  (95) 
40.87677035114575

>  <Genealogy>  (95) 
CN(c1ccc(F)cc1)c1cccnc1[N+](=O)[O-] (3D coordinates assigned)
CN(c1ccc(F)cc1)c1cccnc1[N+](=O)[O-] (optimized conformer: 40.87677035114575 kcal/mol)

>  <smiles>  (95) 
CN(c1ccc(F)cc1)c1cccnc1[N+](=O)[O-]

>  <score_type>  (95) 
oracle

>  <origin>  (95) 
adg

>  <m_score__min__energy>  (95) 
-7.4500000000000002

>  <m_primary>  (95) 
energy

$$$$
