0:0
     RDKit          3D

 30 31  0  0  0  0  0  0  0  0999 V2000
   59.2197   35.4110   47.1677 H   0  0  0  0  0  0  0  0  0  0  0  0
   59.8720   34.6960   46.6450 C   0  0  0  0  0  0  0  0  0  0  0  0
   59.5350   34.3330   45.4390 N   0  0  0  0  0  0  0  0  0  0  0  0
   58.7650   33.1830   45.0550 C   0  0  0  0  0  0  0  0  0  0  0  0
   58.5390   32.1710   45.9940 C   0  0  0  0  0  0  0  0  0  0  0  0
   58.9719   32.2547   47.0018 H   0  0  0  0  0  0  0  0  0  0  0  0
   57.7670   31.0540   45.6610 C   0  0  0  0  0  0  0  0  0  0  0  0
   57.6121   30.2567   46.4028 H   0  0  0  0  0  0  0  0  0  0  0  0
   57.1870   30.9420   44.3850 C   0  0  0  0  0  0  0  0  0  0  0  0
   56.3950   29.7900   44.0430 N   0  0  0  0  0  0  0  0  0  0  0  0
   56.6200   29.1510   42.9960 O   0  0  0  0  0  0  0  0  0  0  0  0
   55.3760   29.3740   44.8690 O   0  0  0  0  0  0  0  0  0  0  0  0
   57.3890   31.9780   43.4540 C   0  0  0  0  0  0  0  0  0  0  0  0
   56.9363   31.9087   42.4539 H   0  0  0  0  0  0  0  0  0  0  0  0
   58.1600   33.0940   43.7900 C   0  0  0  0  0  0  0  0  0  0  0  0
   58.2939   33.9066   43.0607 H   0  0  0  0  0  0  0  0  0  0  0  0
   61.0750   34.2090   47.3570 C   0  0  0  0  0  0  0  0  0  0  0  0
   62.1960   33.8150   46.6120 C   0  0  0  0  0  0  0  0  0  0  0  0
   62.1635   33.8514   45.5131 H   0  0  0  0  0  0  0  0  0  0  0  0
   63.3550   33.3760   47.2600 C   0  0  0  0  0  0  0  0  0  0  0  0
   64.2279   33.0636   46.6680 H   0  0  0  0  0  0  0  0  0  0  0  0
   63.4100   33.3320   48.6600 C   0  0  0  0  0  0  0  0  0  0  0  0
   64.6670   32.8980   49.3550 C   0  0  0  0  0  0  0  0  0  0  0  0
   64.5201   32.9487   50.4440 H   0  0  0  0  0  0  0  0  0  0  0  0
   64.9081   31.8646   49.0653 H   0  0  0  0  0  0  0  0  0  0  0  0
   65.4943   33.5625   49.0653 H   0  0  0  0  0  0  0  0  0  0  0  0
   62.3080   33.7740   49.4070 C   0  0  0  0  0  0  0  0  0  0  0  0
   62.3557   33.7745   50.5060 H   0  0  0  0  0  0  0  0  0  0  0  0
   61.1490   34.2140   48.7600 C   0  0  0  0  0  0  0  0  0  0  0  0
   60.2913   34.5656   49.3522 H   0  0  0  0  0  0  0  0  0  0  0  0
  1  2  1  0
  2  3  2  0
  3  4  1  0
  4  5  2  0
  5  6  1  0
  5  7  1  0
  7  8  1  0
  7  9  2  0
  9 10  1  0
 10 11  2  0
 10 12  1  0
  9 13  1  0
 13 14  1  0
 13 15  2  0
 15 16  1  0
  2 17  1  0
 17 18  2  0
 18 19  1  0
 18 20  1  0
 20 21  1  0
 20 22  2  0
 22 23  1  0
 23 24  1  0
 23 25  1  0
 23 26  1  0
 22 27  1  0
 27 28  1  0
 27 29  2  0
 29 30  1  0
 15  4  1  0
 29 17  1  0
M  CHG  2  10   1  12  -1
M  END
>  <UniqueID>  (1) 
1

>  <SMILES>  (1) 
Cc1ccc(/C=N\c2ccc([N+](=O)[O-])cc2)cc1

>  <Energy>  (1) 
42.062024809236405

>  <Genealogy>  (1) 
Cc1ccc(/C=N\c2ccc([N+](=O)[O-])cc2)cc1 (cis-trans isomerization)
Cc1ccc(/C=N\c2ccc([N+](=O)[O-])cc2)cc1 (3D coordinates assigned)
Cc1ccc(/C=N\c2ccc([N+](=O)[O-])cc2)cc1 (optimized conformer: 42.062024809236405 kcal/mol)

>  <smiles>  (1) 
Cc1ccc(C=Nc2ccc([N+](=O)[O-])cc2)cc1

>  <score_type>  (1) 
oracle

>  <origin>  (1) 
adg

>  <m_score__min__energy>  (1) 
-7.21

>  <m_primary>  (1) 
energy

$$$$
1:0
     RDKit          3D

 66 69  0  0  0  0  0  0  0  0999 V2000
   63.1270   33.8520   48.1310 C   0  0  0  0  0  0  0  0  0  0  0  0
   62.3210   32.5850   48.3630 C   0  0  0  0  0  0  0  0  0  0  0  0
   62.6170   31.7640   49.4840 C   0  0  0  0  0  0  0  0  0  0  0  0
   63.6720   32.1240   50.4650 C   0  0  0  0  0  0  0  0  0  0  0  0
   63.3900   32.1290   51.8420 C   0  0  0  0  0  0  0  0  0  0  0  0
   64.3860   32.4730   52.7580 C   0  0  0  0  0  0  0  0  0  0  0  0
   65.6710   32.8030   52.3120 C   0  0  0  0  0  0  0  0  0  0  0  0
   65.9630   32.7920   50.9430 C   0  0  0  0  0  0  0  0  0  0  0  0
   67.2870   33.1240   50.4850 C   0  0  0  0  0  0  0  0  0  0  0  0
   68.3510   33.3950   50.1180 N   0  0  0  0  0  0  0  0  0  0  0  0
   64.9650   32.4530   50.0200 C   0  0  0  0  0  0  0  0  0  0  0  0
   61.8990   30.5730   49.6710 C   0  0  0  0  0  0  0  0  0  0  0  0
   62.1570   29.8250   50.6560 O   0  0  0  0  0  0  0  0  0  0  0  0
   60.8970   30.2090   48.7660 C   0  0  0  0  0  0  0  0  0  0  0  0
   60.1350   28.9530   48.9450 C   0  0  0  0  0  0  0  0  0  0  0  0
   58.9660   29.0060   49.4100 O   0  0  0  0  0  0  0  0  0  0  0  0
   60.7140   27.6720   48.6660 N   0  0  0  0  0  0  0  0  0  0  0  0
   60.5380   26.9230   47.4260 C   0  0  0  0  0  0  0  0  0  0  0  0
   59.6590   27.7160   46.4990 C   0  0  0  0  0  0  0  0  0  0  0  0
   58.2610   27.6500   46.6250 C   0  0  0  0  0  0  0  0  0  0  0  0
   57.4420   28.4420   45.8130 C   0  0  0  0  0  0  0  0  0  0  0  0
   58.0100   29.3130   44.8720 C   0  0  0  0  0  0  0  0  0  0  0  0
   56.9730   30.3310   43.8760 S   0  0  0  0  0  0  0  0  0  0  0  0
   56.2680   29.3540   42.5660 C   0  0  0  0  0  0  0  0  0  0  0  0
   57.7820   31.4510   43.2860 O   0  0  0  0  0  0  0  0  0  0  0  0
   55.8700   30.9220   44.7110 O   0  0  0  0  0  0  0  0  0  0  0  0
   59.4070   29.3910   44.7550 C   0  0  0  0  0  0  0  0  0  0  0  0
   60.2270   28.6000   45.5660 C   0  0  0  0  0  0  0  0  0  0  0  0
   60.5990   31.0660   47.7060 C   0  0  0  0  0  0  0  0  0  0  0  0
   61.2870   32.2330   47.5140 N   0  0  0  0  0  0  0  0  0  0  0  0
   60.8520   33.0860   46.3850 C   0  0  0  0  0  0  0  0  0  0  0  0
   59.8370   34.1730   46.8290 C   0  0  0  0  0  0  0  0  0  0  0  0
   58.6410   33.6180   47.6460 C   0  0  0  0  0  0  0  0  0  0  0  0
   57.4100   33.2940   46.7780 C   0  0  0  0  0  0  0  0  0  0  0  0
   57.8130   32.9680   45.4060 N   0  0  0  0  0  0  0  0  0  0  0  0
   58.3670   34.1500   44.7180 C   0  0  0  0  0  0  0  0  0  0  0  0
   59.3260   34.9730   45.6130 C   0  0  0  0  0  0  0  0  0  0  0  0
   63.4065   34.2913   49.0999 H   0  0  0  0  0  0  0  0  0  0  0  0
   64.0368   33.6089   47.5626 H   0  0  0  0  0  0  0  0  0  0  0  0
   62.5212   34.5730   47.5626 H   0  0  0  0  0  0  0  0  0  0  0  0
   62.3841   31.8618   52.1981 H   0  0  0  0  0  0  0  0  0  0  0  0
   64.1599   32.4847   53.8345 H   0  0  0  0  0  0  0  0  0  0  0  0
   66.4524   33.0713   53.0382 H   0  0  0  0  0  0  0  0  0  0  0  0
   65.1934   32.4441   48.9440 H   0  0  0  0  0  0  0  0  0  0  0  0
   61.5171   26.7557   46.9535 H   0  0  0  0  0  0  0  0  0  0  0  0
   60.0715   25.9503   47.6410 H   0  0  0  0  0  0  0  0  0  0  0  0
   57.8089   26.9731   47.3648 H   0  0  0  0  0  0  0  0  0  0  0  0
   56.3482   28.3813   45.9131 H   0  0  0  0  0  0  0  0  0  0  0  0
   55.6761   28.5337   42.9982 H   0  0  0  0  0  0  0  0  0  0  0  0
   55.6178   29.9878   41.9451 H   0  0  0  0  0  0  0  0  0  0  0  0
   57.0744   28.9367   41.9451 H   0  0  0  0  0  0  0  0  0  0  0  0
   59.8581   30.0768   44.0228 H   0  0  0  0  0  0  0  0  0  0  0  0
   61.3208   28.6701   45.4732 H   0  0  0  0  0  0  0  0  0  0  0  0
   59.7921   30.7971   47.0084 H   0  0  0  0  0  0  0  0  0  0  0  0
   61.7349   33.5806   45.9539 H   0  0  0  0  0  0  0  0  0  0  0  0
   60.3543   32.4406   45.6462 H   0  0  0  0  0  0  0  0  0  0  0  0
   60.3912   34.8399   47.5058 H   0  0  0  0  0  0  0  0  0  0  0  0
   58.9624   32.6969   48.1542 H   0  0  0  0  0  0  0  0  0  0  0  0
   58.3412   34.4006   48.3585 H   0  0  0  0  0  0  0  0  0  0  0  0
   56.8786   32.4342   47.2120 H   0  0  0  0  0  0  0  0  0  0  0  0
   56.7534   34.1762   46.7530 H   0  0  0  0  0  0  0  0  0  0  0  0
   56.9620   32.6550   44.8800 H   0  0  0  0  0  0  0  0  0  0  0  0
   58.9198   33.8118   43.8291 H   0  0  0  0  0  0  0  0  0  0  0  0
   57.5228   34.8026   44.4509 H   0  0  0  0  0  0  0  0  0  0  0  0
   60.1903   35.2856   45.0087 H   0  0  0  0  0  0  0  0  0  0  0  0
   58.7641   35.8377   45.9958 H   0  0  0  0  0  0  0  0  0  0  0  0
  1  2  1  0
  2  3  2  0
  3  4  1  0
  4  5  2  0
  5  6  1  0
  6  7  2  0
  7  8  1  0
  8  9  1  0
  9 10  3  0
  8 11  2  0
  3 12  1  0
 12 13  2  0
 12 14  1  0
 14 15  1  0
 15 16  2  0
 15 17  1  0
 17 18  1  0
 18 19  1  0
 19 20  2  0
 20 21  1  0
 21 22  2  0
 22 23  1  0
 23 24  1  0
 23 25  2  0
 23 26  2  0
 22 27  1  0
 27 28  2  0
 14 29  2  0
 29 30  1  0
 30 31  1  0
 31 32  1  0
 32 33  1  0
 33 34  1  0
 34 35  1  0
 35 36  1  0
 36 37  1  0
 30  2  1  0
 37 32  1  0
 11  4  1  0
 28 19  1  0
  1 38  1  0
  1 39  1  0
  1 40  1  0
  5 41  1  0
  6 42  1  0
  7 43  1  0
 11 44  1  0
 18 45  1  0
 18 46  1  0
 20 47  1  0
 21 48  1  0
 24 49  1  0
 24 50  1  0
 24 51  1  0
 27 52  1  0
 28 53  1  0
 29 54  1  0
 31 55  1  0
 31 56  1  0
 32 57  1  0
 33 58  1  0
 33 59  1  0
 34 60  1  0
 34 61  1  0
 35 62  1  0
 36 63  1  0
 36 64  1  0
 37 65  1  0
 37 66  1  0
M  CHG  1  17  -1
M  END
>  <UniqueID>  (2) 
2

>  <SMILES>  (2) 
Cc1c(-c2cccc(C#N)c2)c(=O)c(C(=O)[N-]Cc2ccc(S(C)(=O)=O)cc2)cn1CC1CCNCC1

>  <Energy>  (2) 
87.97442783980799

>  <Genealogy>  (2) 
Cc1c(-c2cccc(C#N)c2)c(=O)c(C(=O)[N-]Cc2ccc(S(C)(=O)=O)cc2)cn1CC1CCNCC1 (protonated)
Cc1c(-c2cccc(C#N)c2)c(=O)c(C(=O)[N-]Cc2ccc(S(C)(=O)=O)cc2)cn1CC1CCNCC1 (3D coordinates assigned)
Cc1c(-c2cccc(C#N)c2)c(=O)c(C(=O)[N-]Cc2ccc(S(C)(=O)=O)cc2)cn1CC1CCNCC1 (nonaromatic ring conformer: 87.97442783980799 kcal/mol)

>  <smiles>  (2) 
Cc1c(-c2cccc(C#N)c2)c(=O)c(C(=O)NCc2ccc(S(C)(=O)=O)cc2)cn1CC1CCNCC1

>  <score_type>  (2) 
oracle

>  <origin>  (2) 
adg

>  <m_score__min__energy>  (2) 
-11.35

>  <m_primary>  (2) 
energy

$$$$
2:0
     RDKit          3D

 41 42  0  0  0  0  0  0  0  0999 V2000
   63.3620   33.7320   50.5400 C   0  0  0  0  0  0  0  0  0  0  0  0
   62.5300   33.3990   49.3700 N   0  0  0  0  0  0  0  0  0  0  0  0
   61.3010   34.2130   49.3490 C   0  0  0  0  0  0  0  0  0  0  0  0
   63.2840   33.4690   48.0950 C   0  0  0  0  0  0  0  0  0  0  0  0
   63.3820   32.1270   47.3320 C   0  0  0  0  0  0  0  0  0  0  0  0
   61.9950   31.5210   47.0880 C   0  0  0  0  0  0  0  0  0  0  0  0
   61.5550   30.7560   48.2620 N   0  0  0  0  0  0  0  0  0  0  0  0
   60.1450   31.0150   48.5780 C   0  0  0  0  0  0  0  0  0  0  0  0
   59.2810   30.8830   47.3320 C   0  0  0  0  0  0  0  0  0  0  0  0
   58.9450   29.5830   46.8880 C   0  0  0  0  0  0  0  0  0  0  0  0
   59.4950   27.9940   47.8240 Br  0  0  0  0  0  0  0  0  0  0  0  0
   58.1820   29.4010   45.7370 C   0  0  0  0  0  0  0  0  0  0  0  0
   57.7220   30.4870   45.0000 C   0  0  0  0  0  0  0  0  0  0  0  0
   56.6870   30.0960   43.4270 Br  0  0  0  0  0  0  0  0  0  0  0  0
   58.0090   31.8000   45.4260 C   0  0  0  0  0  0  0  0  0  0  0  0
   57.5290   32.9110   44.7020 C   0  0  0  0  0  0  0  0  0  0  0  0
   57.7900   34.2080   45.1340 C   0  0  0  0  0  0  0  0  0  0  0  0
   58.5240   34.4240   46.2940 C   0  0  0  0  0  0  0  0  0  0  0  0
   59.0140   33.3430   47.0280 C   0  0  0  0  0  0  0  0  0  0  0  0
   58.7820   32.0100   46.6090 C   0  0  0  0  0  0  0  0  0  0  0  0
   62.8046   33.5089   51.4617 H   0  0  0  0  0  0  0  0  0  0  0  0
   64.2849   33.1340   50.5158 H   0  0  0  0  0  0  0  0  0  0  0  0
   63.6174   34.8017   50.5158 H   0  0  0  0  0  0  0  0  0  0  0  0
   62.2300   32.4010   49.4850 H   0  0  0  0  0  0  0  0  0  0  0  0
   60.9830   34.4236   50.3808 H   0  0  0  0  0  0  0  0  0  0  0  0
   61.4974   35.1602   48.8253 H   0  0  0  0  0  0  0  0  0  0  0  0
   60.5055   33.6626   48.8253 H   0  0  0  0  0  0  0  0  0  0  0  0
   62.7859   34.2001   47.4412 H   0  0  0  0  0  0  0  0  0  0  0  0
   64.3134   33.7558   48.3562 H   0  0  0  0  0  0  0  0  0  0  0  0
   63.8723   32.3011   46.3628 H   0  0  0  0  0  0  0  0  0  0  0  0
   63.9655   31.4226   47.9430 H   0  0  0  0  0  0  0  0  0  0  0  0
   61.2757   32.3299   46.8925 H   0  0  0  0  0  0  0  0  0  0  0  0
   62.0492   30.8447   46.2221 H   0  0  0  0  0  0  0  0  0  0  0  0
   61.6450   29.7370   48.0310 H   0  0  0  0  0  0  0  0  0  0  0  0
   59.8048   30.2896   49.3317 H   0  0  0  0  0  0  0  0  0  0  0  0
   60.0522   32.0403   48.9655 H   0  0  0  0  0  0  0  0  0  0  0  0
   57.9391   28.3807   45.4052 H   0  0  0  0  0  0  0  0  0  0  0  0
   56.9418   32.7507   43.7857 H   0  0  0  0  0  0  0  0  0  0  0  0
   57.4141   35.0647   44.5554 H   0  0  0  0  0  0  0  0  0  0  0  0
   58.7196   35.4513   46.6351 H   0  0  0  0  0  0  0  0  0  0  0  0
   59.5896   33.5291   47.9467 H   0  0  0  0  0  0  0  0  0  0  0  0
  1  2  1  0
  2  3  1  0
  2  4  1  0
  4  5  1  0
  5  6  1  0
  6  7  1  0
  7  8  1  0
  8  9  1  0
  9 10  2  0
 10 11  1  0
 10 12  1  0
 12 13  2  0
 13 14  1  0
 13 15  1  0
 15 16  2  0
 16 17  1  0
 17 18  2  0
 18 19  1  0
 19 20  2  0
 20  9  1  0
 20 15  1  0
  1 21  1  0
  1 22  1  0
  1 23  1  0
  2 24  1  0
  3 25  1  0
  3 26  1  0
  3 27  1  0
  4 28  1  0
  4 29  1  0
  5 30  1  0
  5 31  1  0
  6 32  1  0
  6 33  1  0
  7 34  1  0
  8 35  1  0
  8 36  1  0
 12 37  1  0
 16 38  1  0
 17 39  1  0
 18 40  1  0
 19 41  1  0
M  CHG  1   2   1
M  END
>  <UniqueID>  (3) 
3

>  <SMILES>  (3) 
C[NH+](C)CCCNCc1c(Br)cc(Br)c2ccccc12

>  <Energy>  (3) 
49.918569306364326

>  <Genealogy>  (3) 
C[NH+](C)CCCNCc1c(Br)cc(Br)c2ccccc12 (protonated)
C[NH+](C)CCCNCc1c(Br)cc(Br)c2ccccc12 (3D coordinates assigned)
C[NH+](C)CCCNCc1c(Br)cc(Br)c2ccccc12 (optimized conformer: 49.918569306364326 kcal/mol)

>  <smiles>  (3) 
CN(C)CCCNCc1c(Br)cc(Br)c2ccccc12

>  <score_type>  (3) 
oracle

>  <origin>  (3) 
adg

>  <m_score__min__energy>  (3) 
-6.1699999999999999

>  <m_primary>  (3) 
energy

$$$$
3:0
     RDKit          3D

 43 46  0  0  0  0  0  0  0  0999 V2000
   56.6493   33.9576   46.5693 H   0  0  0  0  0  0  0  0  0  0  0  0
   57.6120   33.4530   46.4000 C   0  0  0  0  0  0  0  0  0  0  0  0
   57.7040   32.5190   45.2640 C   0  0  0  0  0  0  0  0  0  0  0  0
   58.7840   32.4430   44.6180 O   0  0  0  0  0  0  0  0  0  0  0  0
   56.5730   31.7350   44.8690 N   0  0  0  0  0  0  0  0  0  0  0  0
   56.6850   30.0590   44.4480 S   0  0  0  0  0  0  0  0  0  0  0  0
   55.4670   29.3400   44.9580 O   0  0  0  0  0  0  0  0  0  0  0  0
   56.7480   29.9270   42.9520 O   0  0  0  0  0  0  0  0  0  0  0  0
   58.1340   29.3570   45.1430 C   0  0  0  0  0  0  0  0  0  0  0  0
   58.2440   28.6750   46.6720 S   0  0  0  0  0  0  0  0  0  0  0  0
   59.8850   28.3110   46.5840 C   0  0  0  0  0  0  0  0  0  0  0  0
   60.4775   27.8191   47.3695 H   0  0  0  0  0  0  0  0  0  0  0  0
   60.3650   28.7370   45.3510 C   0  0  0  0  0  0  0  0  0  0  0  0
   61.4136   28.6214   45.0394 H   0  0  0  0  0  0  0  0  0  0  0  0
   59.3840   29.3280   44.5430 C   0  0  0  0  0  0  0  0  0  0  0  0
   59.5846   29.7272   43.5378 H   0  0  0  0  0  0  0  0  0  0  0  0
   58.6170   33.7320   47.2420 C   0  0  0  0  0  0  0  0  0  0  0  0
   58.5682   34.6761   47.8044 H   0  0  0  0  0  0  0  0  0  0  0  0
   59.7850   32.8570   47.4650 C   0  0  0  0  0  0  0  0  0  0  0  0
   59.8560   31.7280   48.2890 C   0  0  0  0  0  0  0  0  0  0  0  0
   58.7400   31.1440   49.1040 C   0  0  0  0  0  0  0  0  0  0  0  0
   57.8157   31.1538   48.5077 H   0  0  0  0  0  0  0  0  0  0  0  0
   59.0092   30.1138   49.3801 H   0  0  0  0  0  0  0  0  0  0  0  0
   58.5210   31.9380   50.3660 C   0  0  0  0  0  0  0  0  0  0  0  0
   59.3330   33.0480   50.6580 C   0  0  0  0  0  0  0  0  0  0  0  0
   60.1449   33.3290   49.9710 H   0  0  0  0  0  0  0  0  0  0  0  0
   59.1120   33.7970   51.8200 C   0  0  0  0  0  0  0  0  0  0  0  0
   59.7485   34.6665   52.0409 H   0  0  0  0  0  0  0  0  0  0  0  0
   58.0860   33.4440   52.7000 C   0  0  0  0  0  0  0  0  0  0  0  0
   57.9203   34.0300   53.6161 H   0  0  0  0  0  0  0  0  0  0  0  0
   57.2700   32.3450   52.4150 C   0  0  0  0  0  0  0  0  0  0  0  0
   56.4616   32.0666   53.1070 H   0  0  0  0  0  0  0  0  0  0  0  0
   57.4810   31.5990   51.2500 C   0  0  0  0  0  0  0  0  0  0  0  0
   56.8293   30.7421   51.0242 H   0  0  0  0  0  0  0  0  0  0  0  0
   61.1410   31.2800   48.3390 N   0  0  0  0  0  0  0  0  0  0  0  0
   61.5330   30.4960   48.9060 H   0  0  0  0  0  0  0  0  0  0  0  0
   61.8000   32.1450   47.5520 C   0  0  0  0  0  0  0  0  0  0  0  0
   63.4300   32.3800   47.2460 S   0  0  0  0  0  0  0  0  0  0  0  0
   63.0950   33.8140   46.3680 C   0  0  0  0  0  0  0  0  0  0  0  0
   63.8475   34.4443   45.8715 H   0  0  0  0  0  0  0  0  0  0  0  0
   61.7150   34.0600   46.3800 C   0  0  0  0  0  0  0  0  0  0  0  0
   61.2399   34.9354   45.9132 H   0  0  0  0  0  0  0  0  0  0  0  0
   61.0390   33.0890   47.0360 N   0  0  0  0  0  0  0  0  0  0  0  0
  1  2  1  0
  2  3  1  0
  3  4  2  0
  3  5  1  0
  5  6  1  0
  6  7  2  0
  6  8  2  0
  6  9  1  0
  9 10  1  0
 10 11  1  0
 11 12  1  0
 11 13  2  0
 13 14  1  0
 13 15  1  0
 15 16  1  0
  2 17  2  0
 17 18  1  0
 17 19  1  0
 19 20  2  0
 20 21  1  0
 21 22  1  0
 21 23  1  0
 21 24  1  0
 24 25  2  0
 25 26  1  0
 25 27  1  0
 27 28  1  0
 27 29  2  0
 29 30  1  0
 29 31  1  0
 31 32  1  0
 31 33  2  0
 33 34  1  0
 20 35  1  0
 35 36  1  0
 35 37  2  0
 37 38  1  0
 38 39  1  0
 39 40  1  0
 39 41  2  0
 41 42  1  0
 41 43  1  0
 15  9  2  0
 43 19  1  0
 33 24  1  0
 43 37  1  0
M  CHG  2   5  -1  35   1
M  END
>  <UniqueID>  (4) 
4

>  <SMILES>  (4) 
O=C(/C=C\c1c(Cc2ccccc2)[nH+]c2sccn12)[N-]S(=O)(=O)c1cccs1

>  <Energy>  (4) 
159.24839330613025

>  <Genealogy>  (4) 
O=C(C=Cc1c(Cc2ccccc2)[nH+]c2sccn12)[N-]S(=O)(=O)c1cccs1 (protonated)
O=C(/C=C\c1c(Cc2ccccc2)[nH+]c2sccn12)[N-]S(=O)(=O)c1cccs1 (cis-trans isomerization)
O=C(/C=C\c1c(Cc2ccccc2)[nH+]c2sccn12)[N-]S(=O)(=O)c1cccs1 (3D coordinates assigned)
O=C(/C=C\c1c(Cc2ccccc2)[nH+]c2sccn12)[N-]S(=O)(=O)c1cccs1 (optimized conformer: 159.24839330613025 kcal/mol)

>  <smiles>  (4) 
O=C(C=Cc1c(Cc2ccccc2)nc2sccn12)NS(=O)(=O)c1cccs1

>  <score_type>  (4) 
oracle

>  <origin>  (4) 
adg

>  <m_score__min__energy>  (4) 
-9.2899999999999991

>  <m_primary>  (4) 
energy

$$$$
4:0
     RDKit          3D

 34 35  0  0  0  0  0  0  0  0999 V2000
   56.3210   20.6340   43.7900 N   0  0  0  0  0  0  0  0  0  0  0  0
   56.7630   21.4470   42.6610 C   0  0  0  0  0  0  0  0  0  0  0  0
   56.2860   22.8930   42.8150 C   0  0  0  0  0  0  0  0  0  0  0  0
   57.0950   23.5990   43.8030 N   0  0  0  0  0  0  0  0  0  0  0  0
   57.3680   24.9170   43.8060 C   0  0  0  0  0  0  0  0  0  0  0  0
   58.1230   25.1880   44.9250 C   0  0  0  0  0  0  0  0  0  0  0  0
   58.6590   26.5180   45.3540 C   0  0  0  0  0  0  0  0  0  0  0  0
   57.6500   27.2750   46.0900 N   0  0  0  0  0  0  0  0  0  0  0  0
   56.2660   27.3970   45.7340 C   0  0  0  0  0  0  0  0  0  0  0  0
   55.4790   26.4600   46.0210 O   0  0  0  0  0  0  0  0  0  0  0  0
   55.7410   28.5850   45.1300 N   0  0  0  0  0  0  0  0  0  0  0  0
   56.5210   29.6140   44.5090 C   0  0  0  0  0  0  0  0  0  0  0  0
   56.2490   30.0570   43.2020 C   0  0  0  0  0  0  0  0  0  0  0  0
   57.0190   31.0750   42.6310 C   0  0  0  0  0  0  0  0  0  0  0  0
   58.0520   31.6660   43.3630 C   0  0  0  0  0  0  0  0  0  0  0  0
   58.3120   31.2450   44.6700 C   0  0  0  0  0  0  0  0  0  0  0  0
   57.5430   30.2280   45.2440 C   0  0  0  0  0  0  0  0  0  0  0  0
   58.2580   23.9780   45.5800 C   0  0  0  0  0  0  0  0  0  0  0  0
   57.6190   23.0230   44.8750 N   0  0  0  0  0  0  0  0  0  0  0  0
   56.8210   19.7160   43.7490 H   0  0  0  0  0  0  0  0  0  0  0  0
   56.6400   21.1060   44.6660 H   0  0  0  0  0  0  0  0  0  0  0  0
   57.8619   21.4325   42.6141 H   0  0  0  0  0  0  0  0  0  0  0  0
   56.3356   21.0305   41.7370 H   0  0  0  0  0  0  0  0  0  0  0  0
   56.3699   23.4064   41.8458 H   0  0  0  0  0  0  0  0  0  0  0  0
   55.2393   22.8867   43.1533 H   0  0  0  0  0  0  0  0  0  0  0  0
   57.0454   25.6474   43.0494 H   0  0  0  0  0  0  0  0  0  0  0  0
   59.5346   26.3614   46.0012 H   0  0  0  0  0  0  0  0  0  0  0  0
   58.9407   27.0888   44.4569 H   0  0  0  0  0  0  0  0  0  0  0  0
   55.4287   29.6016   42.6278 H   0  0  0  0  0  0  0  0  0  0  0  0
   56.8112   31.4109   41.6044 H   0  0  0  0  0  0  0  0  0  0  0  0
   58.6607   32.4627   42.9105 H   0  0  0  0  0  0  0  0  0  0  0  0
   59.1222   31.7140   45.2476 H   0  0  0  0  0  0  0  0  0  0  0  0
   57.7416   29.9086   46.2777 H   0  0  0  0  0  0  0  0  0  0  0  0
   58.7996   23.8200   46.5243 H   0  0  0  0  0  0  0  0  0  0  0  0
  1  2  1  0
  2  3  1  0
  3  4  1  0
  4  5  1  0
  5  6  2  0
  6  7  1  0
  7  8  1  0
  8  9  1  0
  9 10  2  0
  9 11  1  0
 11 12  1  0
 12 13  2  0
 13 14  1  0
 14 15  2  0
 15 16  1  0
 16 17  2  0
  6 18  1  0
 18 19  2  0
 19  4  1  0
 17 12  1  0
  1 20  1  0
  1 21  1  0
  2 22  1  0
  2 23  1  0
  3 24  1  0
  3 25  1  0
  5 26  1  0
  7 27  1  0
  7 28  1  0
 13 29  1  0
 14 30  1  0
 15 31  1  0
 16 32  1  0
 17 33  1  0
 18 34  1  0
M  CHG  2   8  -1  11  -1
M  END
>  <UniqueID>  (5) 
5

>  <SMILES>  (5) 
NCCn1cc(C[N-]C(=O)[N-]c2ccccc2)cn1

>  <Energy>  (5) 
62.40563177205482

>  <Genealogy>  (5) 
NCCn1cc(C[N-]C(=O)[N-]c2ccccc2)cn1 (protonated)
NCCn1cc(C[N-]C(=O)[N-]c2ccccc2)cn1 (3D coordinates assigned)
NCCn1cc(C[N-]C(=O)[N-]c2ccccc2)cn1 (optimized conformer: 62.40563177205482 kcal/mol)

>  <smiles>  (5) 
NCCn1cc(CNC(=O)Nc2ccccc2)cn1

>  <score_type>  (5) 
oracle

>  <origin>  (5) 
adg

>  <m_score__min__energy>  (5) 
-9.5600000000000005

>  <m_primary>  (5) 
energy

$$$$
5:0
     RDKit          3D

 35 38  0  0  0  0  0  0  0  0999 V2000
   58.2691   26.6641   47.5457 H   0  0  0  0  0  0  0  0  0  0  0  0
   57.7910   27.4050   46.8880 C   0  0  0  0  0  0  0  0  0  0  0  0
   56.7830   27.0390   46.0570 N   0  0  0  0  0  0  0  0  0  0  0  0
   56.1910   27.9260   45.2570 N   0  0  0  0  0  0  0  0  0  0  0  0
   56.5790   29.2300   45.2530 C   0  0  0  0  0  0  0  0  0  0  0  0
   56.0050   30.1000   44.4780 N   0  0  0  0  0  0  0  0  0  0  0  0
   56.7120   31.0330   43.6020 C   0  0  0  0  0  0  0  0  0  0  0  0
   57.4645   30.4825   43.0183 H   0  0  0  0  0  0  0  0  0  0  0  0
   55.9851   31.5098   42.9281 H   0  0  0  0  0  0  0  0  0  0  0  0
   57.3930   32.0930   44.4090 C   0  0  0  0  0  0  0  0  0  0  0  0
   58.0500   33.1120   43.8760 O   0  0  0  0  0  0  0  0  0  0  0  0
   58.5220   33.8000   44.8860 C   0  0  0  0  0  0  0  0  0  0  0  0
   59.2860   34.9640   44.8720 C   0  0  0  0  0  0  0  0  0  0  0  0
   59.5780   35.4433   43.9259 H   0  0  0  0  0  0  0  0  0  0  0  0
   59.6710   35.5050   46.1140 C   0  0  0  0  0  0  0  0  0  0  0  0
   60.2748   36.4239   46.1464 H   0  0  0  0  0  0  0  0  0  0  0  0
   59.2860   34.8740   47.3200 C   0  0  0  0  0  0  0  0  0  0  0  0
   59.5927   35.3059   48.2840 H   0  0  0  0  0  0  0  0  0  0  0  0
   58.5130   33.6970   47.2960 C   0  0  0  0  0  0  0  0  0  0  0  0
   58.2077   33.1950   48.2259 H   0  0  0  0  0  0  0  0  0  0  0  0
   58.1500   33.1930   46.0490 C   0  0  0  0  0  0  0  0  0  0  0  0
   57.4290   32.0990   45.7650 N   0  0  0  0  0  0  0  0  0  0  0  0
   57.0030   31.4130   46.4270 H   0  0  0  0  0  0  0  0  0  0  0  0
   57.5830   29.6250   46.0760 N   0  0  0  0  0  0  0  0  0  0  0  0
   58.2150   28.7440   46.8960 C   0  0  0  0  0  0  0  0  0  0  0  0
   59.2990   29.2380   47.7770 C   0  0  0  0  0  0  0  0  0  0  0  0
   59.8280   30.4710   47.5300 N   0  0  0  0  0  0  0  0  0  0  0  0
   60.8310   30.9960   48.2840 C   0  0  0  0  0  0  0  0  0  0  0  0
   61.2264   31.9963   48.0537 H   0  0  0  0  0  0  0  0  0  0  0  0
   61.3580   30.2660   49.3490 C   0  0  0  0  0  0  0  0  0  0  0  0
   62.1656   30.6868   49.9660 H   0  0  0  0  0  0  0  0  0  0  0  0
   60.8500   28.9970   49.6230 C   0  0  0  0  0  0  0  0  0  0  0  0
   61.2588   28.4090   50.4579 H   0  0  0  0  0  0  0  0  0  0  0  0
   59.8220   28.4730   48.8370 C   0  0  0  0  0  0  0  0  0  0  0  0
   59.4233   27.4690   49.0445 H   0  0  0  0  0  0  0  0  0  0  0  0
  1  2  1  0
  2  3  2  0
  3  4  1  0
  4  5  1  0
  5  6  2  0
  6  7  1  0
  7  8  1  0
  7  9  1  0
  7 10  1  0
 10 11  1  0
 11 12  1  0
 12 13  2  0
 13 14  1  0
 13 15  1  0
 15 16  1  0
 15 17  2  0
 17 18  1  0
 17 19  1  0
 19 20  1  0
 19 21  2  0
 21 22  1  0
 22 23  1  0
  5 24  1  0
 24 25  2  0
 25 26  1  0
 26 27  2  0
 27 28  1  0
 28 29  1  0
 28 30  2  0
 30 31  1  0
 30 32  1  0
 32 33  1  0
 32 34  2  0
 34 35  1  0
 25  2  1  0
 34 26  1  0
 22 10  2  0
 21 12  1  0
M  CHG  2   4  -1  22   1
M  END
>  <UniqueID>  (6) 
6

>  <SMILES>  (6) 
c1ccc(-c2cn[n-]/c(=N\Cc3[nH+]c4ccccc4o3)n2)nc1

>  <Energy>  (6) 
83.00217089212109

>  <Genealogy>  (6) 
c1ccc(-c2cn[n-]c(=NCc3[nH+]c4ccccc4o3)n2)nc1 (protonated)
c1ccc(-c2cn[n-]/c(=N\Cc3[nH+]c4ccccc4o3)n2)nc1 (cis-trans isomerization)
c1ccc(-c2cn[n-]/c(=N\Cc3[nH+]c4ccccc4o3)n2)nc1 (3D coordinates assigned)
c1ccc(-c2cn[n-]/c(=N\Cc3[nH+]c4ccccc4o3)n2)nc1 (optimized conformer: 83.00217089212109 kcal/mol)

>  <smiles>  (6) 
c1ccc(-c2cn[nH]c(=NCc3nc4ccccc4o3)n2)nc1

>  <score_type>  (6) 
oracle

>  <origin>  (6) 
adg

>  <m_score__min__energy>  (6) 
-8.0600000000000005

>  <m_primary>  (6) 
energy

$$$$
6:0
     RDKit          3D

 68 71  0  0  0  0  0  0  0  0999 V2000
   64.4090   32.6770   49.1480 C   0  0  0  0  0  0  0  0  0  0  0  0
   63.5660   32.5630   48.0070 O   0  0  0  0  0  0  0  0  0  0  0  0
   62.3090   33.1760   47.8830 C   0  0  0  0  0  0  0  0  0  0  0  0
   61.5590   33.3870   49.0450 C   0  0  0  0  0  0  0  0  0  0  0  0
   60.2940   33.9990   48.9800 C   0  0  0  0  0  0  0  0  0  0  0  0
   59.5110   34.2290   50.1210 O   0  0  0  0  0  0  0  0  0  0  0  0
   59.5620   33.4400   51.3050 C   0  0  0  0  0  0  0  0  0  0  0  0
   59.7890   34.3950   47.7380 C   0  0  0  0  0  0  0  0  0  0  0  0
   60.5220   34.1940   46.5650 C   0  0  0  0  0  0  0  0  0  0  0  0
   59.9620   34.6180   45.3500 O   0  0  0  0  0  0  0  0  0  0  0  0
   58.5690   34.5970   45.0510 C   0  0  0  0  0  0  0  0  0  0  0  0
   58.1690   33.2100   44.6420 C   0  0  0  0  0  0  0  0  0  0  0  0
   57.8030   32.2610   45.6090 C   0  0  0  0  0  0  0  0  0  0  0  0
   57.4130   30.9760   45.2230 C   0  0  0  0  0  0  0  0  0  0  0  0
   57.3590   30.6280   43.8640 C   0  0  0  0  0  0  0  0  0  0  0  0
   56.9810   29.2310   43.4500 C   0  0  0  0  0  0  0  0  0  0  0  0
   58.1410   28.2560   43.7420 C   0  0  0  0  0  0  0  0  0  0  0  0
   58.7640   28.4410   45.0700 N   0  0  0  0  0  0  0  0  0  0  0  0
   60.1240   29.0010   45.0180 C   0  0  0  0  0  0  0  0  0  0  0  0
   60.4970   29.5150   46.4060 C   0  0  0  0  0  0  0  0  0  0  0  0
   60.1920   28.5120   47.4390 N   0  0  0  0  0  0  0  0  0  0  0  0
   60.5880   28.7660   48.8040 C   0  0  0  0  0  0  0  0  0  0  0  0
   60.8080   30.0800   49.2470 C   0  0  0  0  0  0  0  0  0  0  0  0
   61.1930   30.3260   50.5670 C   0  0  0  0  0  0  0  0  0  0  0  0
   61.3640   29.2640   51.4570 C   0  0  0  0  0  0  0  0  0  0  0  0
   61.1520   27.9460   51.0390 C   0  0  0  0  0  0  0  0  0  0  0  0
   61.3360   26.9150   51.9720 O   0  0  0  0  0  0  0  0  0  0  0  0
   62.4730   26.0570   52.0100 C   0  0  0  0  0  0  0  0  0  0  0  0
   60.7640   27.7000   49.7070 C   0  0  0  0  0  0  0  0  0  0  0  0
   59.7220   27.1760   47.0420 C   0  0  0  0  0  0  0  0  0  0  0  0
   58.6290   27.2600   45.9560 C   0  0  0  0  0  0  0  0  0  0  0  0
   57.7180   31.5800   42.8970 C   0  0  0  0  0  0  0  0  0  0  0  0
   58.1090   32.8660   43.2830 C   0  0  0  0  0  0  0  0  0  0  0  0
   61.7870   33.5810   46.6400 C   0  0  0  0  0  0  0  0  0  0  0  0
   63.8022   32.5949   50.0618 H   0  0  0  0  0  0  0  0  0  0  0  0
   65.1585   31.8720   49.1320 H   0  0  0  0  0  0  0  0  0  0  0  0
   64.9178   33.6521   49.1320 H   0  0  0  0  0  0  0  0  0  0  0  0
   61.9622   33.0714   50.0186 H   0  0  0  0  0  0  0  0  0  0  0  0
   59.5195   34.0975   52.1859 H   0  0  0  0  0  0  0  0  0  0  0  0
   58.7067   32.7485   51.3220 H   0  0  0  0  0  0  0  0  0  0  0  0
   60.4992   32.8644   51.3220 H   0  0  0  0  0  0  0  0  0  0  0  0
   58.7994   34.8722   47.6830 H   0  0  0  0  0  0  0  0  0  0  0  0
   57.9976   34.8962   45.9421 H   0  0  0  0  0  0  0  0  0  0  0  0
   58.3584   35.2978   44.2297 H   0  0  0  0  0  0  0  0  0  0  0  0
   57.8233   32.5300   46.6754 H   0  0  0  0  0  0  0  0  0  0  0  0
   57.1466   30.2325   45.9887 H   0  0  0  0  0  0  0  0  0  0  0  0
   56.0900   28.9142   44.0118 H   0  0  0  0  0  0  0  0  0  0  0  0
   56.7677   29.2219   42.3709 H   0  0  0  0  0  0  0  0  0  0  0  0
   57.7523   27.2287   43.6827 H   0  0  0  0  0  0  0  0  0  0  0  0
   58.9217   28.4581   42.9939 H   0  0  0  0  0  0  0  0  0  0  0  0
   60.8342   28.2195   44.7098 H   0  0  0  0  0  0  0  0  0  0  0  0
   60.1613   29.8259   44.2912 H   0  0  0  0  0  0  0  0  0  0  0  0
   61.5736   29.7395   46.4292 H   0  0  0  0  0  0  0  0  0  0  0  0
   59.9099   30.4218   46.6136 H   0  0  0  0  0  0  0  0  0  0  0  0
   60.6764   30.9210   48.5503 H   0  0  0  0  0  0  0  0  0  0  0  0
   61.3618   31.3587   50.9060 H   0  0  0  0  0  0  0  0  0  0  0  0
   61.6678   29.4652   52.4949 H   0  0  0  0  0  0  0  0  0  0  0  0
   62.7435   25.8529   53.0565 H   0  0  0  0  0  0  0  0  0  0  0  0
   62.2356   25.1110   51.5014 H   0  0  0  0  0  0  0  0  0  0  0  0
   63.3176   26.5448   51.5014 H   0  0  0  0  0  0  0  0  0  0  0  0
   60.5972   26.6664   49.3697 H   0  0  0  0  0  0  0  0  0  0  0  0
   60.5728   26.6001   46.6489 H   0  0  0  0  0  0  0  0  0  0  0  0
   59.2917   26.6847   47.9271 H   0  0  0  0  0  0  0  0  0  0  0  0
   58.6832   26.3524   45.3368 H   0  0  0  0  0  0  0  0  0  0  0  0
   57.6639   27.3543   46.4754 H   0  0  0  0  0  0  0  0  0  0  0  0
   57.6916   31.3132   41.8302 H   0  0  0  0  0  0  0  0  0  0  0  0
   58.3708   33.6114   42.5176 H   0  0  0  0  0  0  0  0  0  0  0  0
   62.3708   33.4176   45.7222 H   0  0  0  0  0  0  0  0  0  0  0  0
  1  2  1  0
  2  3  1  0
  3  4  2  0
  4  5  1  0
  5  6  1  0
  6  7  1  0
  5  8  2  0
  8  9  1  0
  9 10  1  0
 10 11  1  0
 11 12  1  0
 12 13  2  0
 13 14  1  0
 14 15  2  0
 15 16  1  0
 16 17  1  0
 17 18  1  0
 18 19  1  0
 19 20  1  0
 20 21  1  0
 21 22  1  0
 22 23  2  0
 23 24  1  0
 24 25  2  0
 25 26  1  0
 26 27  1  0
 27 28  1  0
 26 29  2  0
 21 30  1  0
 30 31  1  0
 15 32  1  0
 32 33  2  0
  9 34  2  0
 34  3  1  0
 33 12  1  0
 31 18  1  0
 29 22  1  0
  1 35  1  0
  1 36  1  0
  1 37  1  0
  4 38  1  0
  7 39  1  0
  7 40  1  0
  7 41  1  0
  8 42  1  0
 11 43  1  0
 11 44  1  0
 13 45  1  0
 14 46  1  0
 16 47  1  0
 16 48  1  0
 17 49  1  0
 17 50  1  0
 19 51  1  0
 19 52  1  0
 20 53  1  0
 20 54  1  0
 23 55  1  0
 24 56  1  0
 25 57  1  0
 28 58  1  0
 28 59  1  0
 28 60  1  0
 29 61  1  0
 30 62  1  0
 30 63  1  0
 31 64  1  0
 31 65  1  0
 32 66  1  0
 33 67  1  0
 34 68  1  0
M  END
>  <UniqueID>  (7) 
7

>  <SMILES>  (7) 
COc1cc(OC)cc(OCc2ccc(CCN3CCN(c4cccc(OC)c4)CC3)cc2)c1

>  <Energy>  (7) 
78.48314885565235

>  <Genealogy>  (7) 
COc1cc(OC)cc(OCc2ccc(CCN3CCN(c4cccc(OC)c4)CC3)cc2)c1 (3D coordinates assigned)
COc1cc(OC)cc(OCc2ccc(CCN3CCN(c4cccc(OC)c4)CC3)cc2)c1 (nonaromatic ring conformer: 78.48314885565235 kcal/mol)

>  <smiles>  (7) 
COc1cc(OC)cc(OCc2ccc(CCN3CCN(c4cccc(OC)c4)CC3)cc2)c1

>  <score_type>  (7) 
oracle

>  <origin>  (7) 
adg

>  <m_score__min__energy>  (7) 
-9.3000000000000007

>  <m_primary>  (7) 
energy

$$$$
7:0
     RDKit          3D

 36 38  0  0  0  0  0  0  0  0999 V2000
   57.3060   23.6730   46.6660 C   0  0  0  0  0  0  0  0  0  0  0  0
   56.8560   25.0490   46.3120 C   0  0  0  0  0  0  0  0  0  0  0  0
   57.6650   26.0980   45.9320 C   0  0  0  0  0  0  0  0  0  0  0  0
   56.7740   27.1430   45.7400 C   0  0  0  0  0  0  0  0  0  0  0  0
   57.0970   28.5280   45.3200 C   0  0  0  0  0  0  0  0  0  0  0  0
   58.3220   29.1290   45.6620 C   0  0  0  0  0  0  0  0  0  0  0  0
   58.6080   30.4360   45.2590 C   0  0  0  0  0  0  0  0  0  0  0  0
   57.6780   31.1740   44.5110 C   0  0  0  0  0  0  0  0  0  0  0  0
   58.0030   32.5210   44.1230 N   0  0  0  0  0  0  0  0  0  0  0  0
   58.0660   33.8580   45.2290 S   0  0  0  0  0  0  0  0  0  0  0  0
   58.6520   35.0520   44.5290 O   0  0  0  0  0  0  0  0  0  0  0  0
   56.6700   34.1900   45.6760 O   0  0  0  0  0  0  0  0  0  0  0  0
   59.0830   33.4540   46.6070 C   0  0  0  0  0  0  0  0  0  0  0  0
   58.5130   32.9720   47.7930 C   0  0  0  0  0  0  0  0  0  0  0  0
   59.3290   32.6360   48.8790 C   0  0  0  0  0  0  0  0  0  0  0  0
   58.5480   31.9730   50.4920 Br  0  0  0  0  0  0  0  0  0  0  0  0
   60.7160   32.7850   48.7840 C   0  0  0  0  0  0  0  0  0  0  0  0
   61.2890   33.2710   47.6040 C   0  0  0  0  0  0  0  0  0  0  0  0
   63.1840   33.4700   47.4740 Br  0  0  0  0  0  0  0  0  0  0  0  0
   60.4740   33.6080   46.5190 C   0  0  0  0  0  0  0  0  0  0  0  0
   56.4580   30.5720   44.1590 C   0  0  0  0  0  0  0  0  0  0  0  0
   56.1710   29.2640   44.5620 C   0  0  0  0  0  0  0  0  0  0  0  0
   55.5230   26.7100   46.0020 N   0  0  0  0  0  0  0  0  0  0  0  0
   55.6110   25.4580   46.3430 O   0  0  0  0  0  0  0  0  0  0  0  0
   57.3401   23.5686   47.7605 H   0  0  0  0  0  0  0  0  0  0  0  0
   56.6013   22.9382   46.2494 H   0  0  0  0  0  0  0  0  0  0  0  0
   58.3087   23.4966   46.2494 H   0  0  0  0  0  0  0  0  0  0  0  0
   58.7582   26.1047   45.8100 H   0  0  0  0  0  0  0  0  0  0  0  0
   59.0605   28.5657   46.2513 H   0  0  0  0  0  0  0  0  0  0  0  0
   59.5719   30.8910   45.5308 H   0  0  0  0  0  0  0  0  0  0  0  0
   58.3050   32.7070   43.1400 H   0  0  0  0  0  0  0  0  0  0  0  0
   57.4217   32.8575   47.8704 H   0  0  0  0  0  0  0  0  0  0  0  0
   61.3570   32.5199   49.6377 H   0  0  0  0  0  0  0  0  0  0  0  0
   60.9254   33.9951   45.5936 H   0  0  0  0  0  0  0  0  0  0  0  0
   55.7238   31.1334   43.5625 H   0  0  0  0  0  0  0  0  0  0  0  0
   55.2104   28.8067   44.2826 H   0  0  0  0  0  0  0  0  0  0  0  0
  1  2  1  0
  2  3  2  0
  3  4  1  0
  4  5  1  0
  5  6  2  0
  6  7  1  0
  7  8  2  0
  8  9  1  0
  9 10  1  0
 10 11  2  0
 10 12  2  0
 10 13  1  0
 13 14  2  0
 14 15  1  0
 15 16  1  0
 15 17  2  0
 17 18  1  0
 18 19  1  0
 18 20  2  0
  8 21  1  0
 21 22  2  0
  4 23  2  0
 23 24  1  0
 24  2  1  0
 22  5  1  0
 20 13  1  0
  1 25  1  0
  1 26  1  0
  1 27  1  0
  3 28  1  0
  6 29  1  0
  7 30  1  0
  9 31  1  0
 14 32  1  0
 17 33  1  0
 20 34  1  0
 21 35  1  0
 22 36  1  0
M  END
>  <UniqueID>  (8) 
8

>  <SMILES>  (8) 
Cc1cc(-c2ccc(NS(=O)(=O)c3cc(Br)cc(Br)c3)cc2)no1

>  <Energy>  (8) 
70.83039846121754

>  <Genealogy>  (8) 
Cc1cc(-c2ccc(NS(=O)(=O)c3cc(Br)cc(Br)c3)cc2)no1 (3D coordinates assigned)
Cc1cc(-c2ccc(NS(=O)(=O)c3cc(Br)cc(Br)c3)cc2)no1 (optimized conformer: 70.83039846121754 kcal/mol)

>  <smiles>  (8) 
Cc1cc(-c2ccc(NS(=O)(=O)c3cc(Br)cc(Br)c3)cc2)no1

>  <score_type>  (8) 
oracle

>  <origin>  (8) 
adg

>  <m_score__min__energy>  (8) 
-9.6999999999999993

>  <m_primary>  (8) 
energy

$$$$
8:0
     RDKit          3D

 62 65  0  0  0  0  0  0  0  0999 V2000
   59.6930   26.5370   46.0290 C   0  0  0  0  0  0  0  0  0  0  0  0
   58.6370   27.5980   45.9800 C   0  0  0  0  0  0  0  0  0  0  0  0
   57.5330   27.5730   45.1510 C   0  0  0  0  0  0  0  0  0  0  0  0
   56.8920   28.7620   45.4200 C   0  0  0  0  0  0  0  0  0  0  0  0
   55.7180   29.1900   44.7950 O   0  0  0  0  0  0  0  0  0  0  0  0
   55.7030   30.0710   43.6730 C   0  0  0  0  0  0  0  0  0  0  0  0
   57.1210   30.5080   43.2680 C   0  0  0  0  0  0  0  0  0  0  0  0
   57.7370   31.5690   44.2000 C   0  0  0  0  0  0  0  0  0  0  0  0
   56.7000   32.4820   44.8920 C   0  0  0  0  0  0  0  0  0  0  0  0
   57.3560   33.5640   45.6610 N   0  0  0  0  0  0  0  0  0  0  0  0
   57.6650   33.1470   47.0540 C   0  0  0  0  0  0  0  0  0  0  0  0
   59.1350   32.7300   47.2270 C   0  0  0  0  0  0  0  0  0  0  0  0
   60.0770   33.8280   46.8830 N   0  0  0  0  0  0  0  0  0  0  0  0
   60.5680   34.5230   48.0940 C   0  0  0  0  0  0  0  0  0  0  0  0
   61.9680   34.0790   48.4380 C   0  0  0  0  0  0  0  0  0  0  0  0
   62.4420   34.2060   49.7550 C   0  0  0  0  0  0  0  0  0  0  0  0
   63.7270   33.7710   50.0860 C   0  0  0  0  0  0  0  0  0  0  0  0
   64.5440   33.1980   49.1100 C   0  0  0  0  0  0  0  0  0  0  0  0
   64.0770   33.0590   47.8000 C   0  0  0  0  0  0  0  0  0  0  0  0
   62.7930   33.4960   47.4630 C   0  0  0  0  0  0  0  0  0  0  0  0
   59.5150   34.7910   45.9020 C   0  0  0  0  0  0  0  0  0  0  0  0
   58.5360   34.1060   44.9410 C   0  0  0  0  0  0  0  0  0  0  0  0
   57.5570   29.4580   46.3610 N   0  0  0  0  0  0  0  0  0  0  0  0
   58.6140   28.7410   46.7090 N   0  0  0  0  0  0  0  0  0  0  0  0
   59.5710   29.1870   47.6840 C   0  0  0  0  0  0  0  0  0  0  0  0
   60.6400   30.0040   47.2870 C   0  0  0  0  0  0  0  0  0  0  0  0
   61.5710   30.4580   48.2260 C   0  0  0  0  0  0  0  0  0  0  0  0
   61.4370   30.1100   49.5750 C   0  0  0  0  0  0  0  0  0  0  0  0
   62.6260   30.7020   50.7290 Cl  0  0  0  0  0  0  0  0  0  0  0  0
   60.3570   29.3090   49.9860 C   0  0  0  0  0  0  0  0  0  0  0  0
   60.1390   28.8680   51.6730 Cl  0  0  0  0  0  0  0  0  0  0  0  0
   59.4260   28.8580   49.0420 C   0  0  0  0  0  0  0  0  0  0  0  0
   59.9276   26.3013   47.0775 H   0  0  0  0  0  0  0  0  0  0  0  0
   59.3269   25.6316   45.5227 H   0  0  0  0  0  0  0  0  0  0  0  0
   60.6001   26.8988   45.5227 H   0  0  0  0  0  0  0  0  0  0  0  0
   57.2350   26.7870   44.4415 H   0  0  0  0  0  0  0  0  0  0  0  0
   55.2331   29.5556   42.8224 H   0  0  0  0  0  0  0  0  0  0  0  0
   55.1360   30.9709   43.9537 H   0  0  0  0  0  0  0  0  0  0  0  0
   57.7719   29.6213   43.2746 H   0  0  0  0  0  0  0  0  0  0  0  0
   57.0416   30.9660   42.2710 H   0  0  0  0  0  0  0  0  0  0  0  0
   58.3146   31.0502   44.9793 H   0  0  0  0  0  0  0  0  0  0  0  0
   58.3609   32.2198   43.5698 H   0  0  0  0  0  0  0  0  0  0  0  0
   56.0515   32.9311   44.1254 H   0  0  0  0  0  0  0  0  0  0  0  0
   56.1132   31.8687   45.5916 H   0  0  0  0  0  0  0  0  0  0  0  0
   57.4544   33.9888   47.7300 H   0  0  0  0  0  0  0  0  0  0  0  0
   57.0381   32.2746   47.2905 H   0  0  0  0  0  0  0  0  0  0  0  0
   59.2991   32.4384   48.2749 H   0  0  0  0  0  0  0  0  0  0  0  0
   59.3301   31.8920   46.5417 H   0  0  0  0  0  0  0  0  0  0  0  0
   60.5686   35.6078   47.9116 H   0  0  0  0  0  0  0  0  0  0  0  0
   59.9038   34.2757   48.9352 H   0  0  0  0  0  0  0  0  0  0  0  0
   61.7980   34.6500   50.5284 H   0  0  0  0  0  0  0  0  0  0  0  0
   64.0957   33.8800   51.1166 H   0  0  0  0  0  0  0  0  0  0  0  0
   65.5560   32.8556   49.3720 H   0  0  0  0  0  0  0  0  0  0  0  0
   64.7213   32.6048   47.0328 H   0  0  0  0  0  0  0  0  0  0  0  0
   62.4279   33.3829   46.4315 H   0  0  0  0  0  0  0  0  0  0  0  0
   58.9847   35.5868   46.4456 H   0  0  0  0  0  0  0  0  0  0  0  0
   60.3448   35.2067   45.3116 H   0  0  0  0  0  0  0  0  0  0  0  0
   58.1942   34.8396   44.1960 H   0  0  0  0  0  0  0  0  0  0  0  0
   59.0583   33.2687   44.4551 H   0  0  0  0  0  0  0  0  0  0  0  0
   60.7464   30.2893   46.2300 H   0  0  0  0  0  0  0  0  0  0  0  0
   62.4112   31.0905   47.9036 H   0  0  0  0  0  0  0  0  0  0  0  0
   58.5747   28.2415   49.3664 H   0  0  0  0  0  0  0  0  0  0  0  0
  1  2  1  0
  2  3  2  0
  3  4  1  0
  4  5  1  0
  5  6  1  0
  6  7  1  0
  7  8  1  0
  8  9  1  0
  9 10  1  0
 10 11  1  0
 11 12  1  0
 12 13  1  0
 13 14  1  0
 14 15  1  0
 15 16  2  0
 16 17  1  0
 17 18  2  0
 18 19  1  0
 19 20  2  0
 13 21  1  0
 21 22  1  0
  4 23  2  0
 23 24  1  0
 24 25  1  0
 25 26  2  0
 26 27  1  0
 27 28  2  0
 28 29  1  0
 28 30  1  0
 30 31  1  0
 30 32  2  0
 24  2  1  0
 32 25  1  0
 22 10  1  0
 20 15  1  0
  1 33  1  0
  1 34  1  0
  1 35  1  0
  3 36  1  0
  6 37  1  0
  6 38  1  0
  7 39  1  0
  7 40  1  0
  8 41  1  0
  8 42  1  0
  9 43  1  0
  9 44  1  0
 11 45  1  0
 11 46  1  0
 12 47  1  0
 12 48  1  0
 14 49  1  0
 14 50  1  0
 16 51  1  0
 17 52  1  0
 18 53  1  0
 19 54  1  0
 20 55  1  0
 21 56  1  0
 21 57  1  0
 22 58  1  0
 22 59  1  0
 26 60  1  0
 27 61  1  0
 32 62  1  0
M  END
>  <UniqueID>  (9) 
9

>  <SMILES>  (9) 
Cc1cc(OCCCCN2CCN(Cc3ccccc3)CC2)nn1-c1ccc(Cl)c(Cl)c1

>  <Energy>  (9) 
111.17445122947554

>  <Genealogy>  (9) 
Cc1cc(OCCCCN2CCN(Cc3ccccc3)CC2)nn1-c1ccc(Cl)c(Cl)c1 (3D coordinates assigned)
Cc1cc(OCCCCN2CCN(Cc3ccccc3)CC2)nn1-c1ccc(Cl)c(Cl)c1 (nonaromatic ring conformer: 111.17445122947554 kcal/mol)

>  <smiles>  (9) 
Cc1cc(OCCCCN2CCN(Cc3ccccc3)CC2)nn1-c1ccc(Cl)c(Cl)c1

>  <score_type>  (9) 
oracle

>  <origin>  (9) 
adg

>  <m_score__min__energy>  (9) 
-8.9700000000000006

>  <m_primary>  (9) 
energy

$$$$
9:0
     RDKit          3D

 62 65  0  0  1  0  0  0  0  0999 V2000
   60.5310   28.4620   44.4100 N   0  0  0  0  0  0  0  0  0  0  0  0
   59.3480   28.7730   44.8060 C   0  0  0  0  0  0  0  0  0  0  0  0
   58.5770   29.5840   44.0580 N   0  0  0  0  0  0  0  0  0  0  0  0
   57.3540   29.8850   44.5030 C   0  0  0  0  0  0  0  0  0  0  0  0
   56.6060   30.6480   43.8180 N   0  0  0  0  0  0  0  0  0  0  0  0
   57.0570   31.4820   42.7200 C   0  0  0  0  0  0  0  0  0  0  0  0
   58.1500   32.4320   43.1490 C   0  0  0  0  0  0  0  0  0  0  0  0
   58.1000   32.5340   44.6630 C   0  0  0  0  0  0  0  0  0  0  0  0
   57.8350   33.9180   45.0800 N   0  0  0  0  0  0  0  0  0  0  0  0
   58.9650   34.7520   44.8220 C   0  0  0  0  0  0  0  0  0  0  0  0
   59.5600   35.2900   46.1200 C   0  0  0  0  0  0  0  0  0  0  0  0
   59.8120   34.1240   46.9370 N   0  0  0  0  0  0  0  0  0  0  0  0
   61.0960   33.7030   47.3590 C   0  0  0  0  0  0  0  0  0  0  0  0
   62.1610   33.6840   46.4550 C   0  0  0  0  0  0  0  0  0  0  0  0
   63.4270   33.2830   46.8200 C   0  0  0  0  0  0  0  0  0  0  0  0
   63.6940   32.8770   48.1190 C   0  0  0  0  0  0  0  0  0  0  0  0
   62.6550   32.8900   49.0210 C   0  0  0  0  0  0  0  0  0  0  0  0
   62.9800   32.3770   50.6680 Cl  0  0  0  0  0  0  0  0  0  0  0  0
   61.3920   33.2950   48.6380 C   0  0  0  0  0  0  0  0  0  0  0  0
   58.6440   33.3470   47.3380 C   0  0  0  0  0  0  0  0  0  0  0  0
   57.4660   33.8230   46.4810 C   0  0  0  0  0  0  0  0  0  0  0  0
   56.8520   29.4120   45.6740 N   0  0  0  0  0  0  0  0  0  0  0  0
   57.6440   28.5960   46.4130 C   0  0  0  0  0  0  0  0  0  0  0  0
   58.9170   28.2490   46.0050 C   0  0  0  0  0  0  0  0  0  0  0  0
   59.7300   27.4010   46.7830 O   0  0  0  0  0  0  0  0  0  0  0  0
   60.1790   28.0030   47.9670 C   0  0  0  0  0  0  0  0  0  0  0  0
   60.3460   29.3680   48.0830 C   0  0  0  0  0  0  0  0  0  0  0  0
   60.7910   29.8590   49.2890 C   0  0  0  0  0  0  0  0  0  0  0  0
   61.0710   29.0170   50.3700 C   0  0  0  0  0  0  0  0  0  0  0  0
   60.8960   27.6510   50.2310 C   0  0  0  0  0  0  0  0  0  0  0  0
   61.1690   26.7090   51.3200 C   0  0  0  0  0  0  0  0  0  0  0  0
   61.9740   27.1090   52.4370 N   0  0  0  0  0  0  0  0  0  0  0  0
   60.7100   25.5300   51.3090 O   0  0  0  0  0  0  0  0  0  0  0  0
   60.4520   27.1420   49.0340 C   0  0  0  0  0  0  0  0  0  0  0  0
   61.1870   27.8390   44.9240 H   0  0  0  0  0  0  0  0  0  0  0  0
   58.9080   29.9730   43.1580 H   0  0  0  0  0  0  0  0  0  0  0  0
   57.4417   30.8361   41.9170 H   0  0  0  0  0  0  0  0  0  0  0  0
   56.2020   32.0798   42.3713 H   0  0  0  0  0  0  0  0  0  0  0  0
   59.1295   32.0453   42.8311 H   0  0  0  0  0  0  0  0  0  0  0  0
   58.0051   33.4210   42.6897 H   0  0  0  0  0  0  0  0  0  0  0  0
   57.2993   31.8824   45.0429 H   0  0  0  0  0  0  0  0  0  0  0  0
   59.0720   32.2206   45.0717 H   0  0  0  0  0  0  0  0  0  0  0  0
   59.7303   34.1659   44.2921 H   0  0  0  0  0  0  0  0  0  0  0  0
   58.6368   35.6044   44.2091 H   0  0  0  0  0  0  0  0  0  0  0  0
   60.4973   35.8297   45.9195 H   0  0  0  0  0  0  0  0  0  0  0  0
   58.8834   36.0005   46.6174 H   0  0  0  0  0  0  0  0  0  0  0  0
   61.9823   34.0000   45.4166 H   0  0  0  0  0  0  0  0  0  0  0  0
   64.2349   33.2848   46.0734 H   0  0  0  0  0  0  0  0  0  0  0  0
   64.7025   32.5554   48.4181 H   0  0  0  0  0  0  0  0  0  0  0  0
   60.5879   33.2911   49.3886 H   0  0  0  0  0  0  0  0  0  0  0  0
   58.8267   32.2760   47.1657 H   0  0  0  0  0  0  0  0  0  0  0  0
   58.4302   33.4879   48.4078 H   0  0  0  0  0  0  0  0  0  0  0  0
   56.6360   33.1086   46.5849 H   0  0  0  0  0  0  0  0  0  0  0  0
   57.1662   34.8226   46.8288 H   0  0  0  0  0  0  0  0  0  0  0  0
   55.8830   29.6710   45.9910 H   0  0  0  0  0  0  0  0  0  0  0  0
   57.2614   28.1990   47.3649 H   0  0  0  0  0  0  0  0  0  0  0  0
   60.1306   30.0408   47.2398 H   0  0  0  0  0  0  0  0  0  0  0  0
   60.9304   30.9438   49.4061 H   0  0  0  0  0  0  0  0  0  0  0  0
   61.4272   29.4366   51.3224 H   0  0  0  0  0  0  0  0  0  0  0  0
   62.7510   27.8040   52.2400 H   0  0  0  0  0  0  0  0  0  0  0  0
   61.8050   26.7360   53.4050 H   0  0  0  0  0  0  0  0  0  0  0  0
   60.3115   26.0575   48.9156 H   0  0  0  0  0  0  0  0  0  0  0  0
  1  2  2  3
  2  3  1  0
  3  4  1  0
  4  5  2  0
  5  6  1  0
  6  7  1  0
  7  8  1  0
  8  9  1  0
  9 10  1  0
 10 11  1  0
 11 12  1  0
 12 13  1  0
 13 14  2  0
 14 15  1  0
 15 16  2  0
 16 17  1  0
 17 18  1  0
 17 19  2  0
 12 20  1  0
 20 21  1  0
  4 22  1  0
 22 23  1  0
 23 24  2  0
 24 25  1  0
 25 26  1  0
 26 27  2  0
 27 28  1  0
 28 29  2  0
 29 30  1  0
 30 31  1  0
 31 32  1  0
 31 33  2  0
 30 34  2  0
 24  2  1  0
 34 26  1  0
 21  9  1  0
 19 13  1  0
  1 35  1  0
  3 36  1  0
  6 37  1  0
  6 38  1  0
  7 39  1  0
  7 40  1  0
  8 41  1  0
  8 42  1  0
 10 43  1  0
 10 44  1  0
 11 45  1  0
 11 46  1  0
 14 47  1  0
 15 48  1  0
 16 49  1  0
 19 50  1  0
 20 51  1  0
 20 52  1  0
 21 53  1  0
 21 54  1  0
 22 55  1  0
 23 56  1  0
 27 57  1  0
 28 58  1  0
 29 59  1  0
 32 60  1  0
 32 61  1  0
 34 62  1  0
M  END
>  <smiles>  (10) 
N=c1[nH]c(=NCCCN2CCN(c3cccc(Cl)c3)CC2)[nH]cc1Oc1cccc(C(N)=O)c1

>  <score_type>  (10) 
oracle

>  <origin>  (10) 
adg

>  <m_score__min__energy>  (10) 
-9.7400000000000002

>  <m_primary>  (10) 
energy

$$$$
10:0
     RDKit          3D

 62 65  0  0  0  0  0  0  0  0999 V2000
   63.8460   34.5390   51.3960 C   0  0  0  0  0  0  0  0  0  0  0  0
   63.3020   33.7040   52.5550 C   0  0  0  0  0  0  0  0  0  0  0  0
   62.1940   32.8230   52.1260 N   0  0  0  0  0  0  0  0  0  0  0  0
   60.8380   33.4150   52.2460 C   0  0  0  0  0  0  0  0  0  0  0  0
   59.7290   32.6020   51.5620 C   0  0  0  0  0  0  0  0  0  0  0  0
   62.2780   31.4720   52.7250 C   0  0  0  0  0  0  0  0  0  0  0  0
   63.3500   30.6400   52.0140 C   0  0  0  0  0  0  0  0  0  0  0  0
   63.4790   31.0440   50.6490 O   0  0  0  0  0  0  0  0  0  0  0  0
   62.5230   30.8620   49.6340 C   0  0  0  0  0  0  0  0  0  0  0  0
   61.3250   30.1570   49.8450 C   0  0  0  0  0  0  0  0  0  0  0  0
   60.4150   29.9720   48.8030 C   0  0  0  0  0  0  0  0  0  0  0  0
   60.6800   30.4770   47.5190 C   0  0  0  0  0  0  0  0  0  0  0  0
   59.7130   30.2570   46.4130 C   0  0  0  0  0  0  0  0  0  0  0  0
   59.0590   31.2510   45.6720 C   0  0  0  0  0  0  0  0  0  0  0  0
   58.2170   30.7250   44.6870 C   0  0  0  0  0  0  0  0  0  0  0  0
   57.4420   31.4610   43.7890 C   0  0  0  0  0  0  0  0  0  0  0  0
   56.6460   30.7710   42.8580 C   0  0  0  0  0  0  0  0  0  0  0  0
   56.6380   29.3620   42.8300 C   0  0  0  0  0  0  0  0  0  0  0  0
   57.4260   28.6320   43.7340 C   0  0  0  0  0  0  0  0  0  0  0  0
   58.2040   29.3390   44.6480 C   0  0  0  0  0  0  0  0  0  0  0  0
   59.2310   28.7360   45.8270 S   0  0  0  0  0  0  0  0  0  0  0  0
   61.8750   31.1860   47.3070 C   0  0  0  0  0  0  0  0  0  0  0  0
   62.7950   31.3870   48.3520 C   0  0  0  0  0  0  0  0  0  0  0  0
   64.0310   32.0880   48.0950 N   0  0  0  0  0  0  0  0  0  0  0  0
   63.8440   33.5310   48.3000 C   0  0  0  0  0  0  0  0  0  0  0  0
   62.4260   33.9280   47.9870 C   0  0  0  0  0  0  0  0  0  0  0  0
   61.9990   34.0390   46.6520 C   0  0  0  0  0  0  0  0  0  0  0  0
   60.6720   34.3720   46.3640 C   0  0  0  0  0  0  0  0  0  0  0  0
   59.7600   34.5810   47.4060 C   0  0  0  0  0  0  0  0  0  0  0  0
   60.1740   34.4560   48.7340 C   0  0  0  0  0  0  0  0  0  0  0  0
   61.5010   34.1250   49.0260 C   0  0  0  0  0  0  0  0  0  0  0  0
   64.4057   35.3982   51.7941 H   0  0  0  0  0  0  0  0  0  0  0  0
   64.5144   33.9196   50.7799 H   0  0  0  0  0  0  0  0  0  0  0  0
   63.0093   34.9001   50.7799 H   0  0  0  0  0  0  0  0  0  0  0  0
   64.1151   33.0825   52.9582 H   0  0  0  0  0  0  0  0  0  0  0  0
   62.9139   34.3930   53.3196 H   0  0  0  0  0  0  0  0  0  0  0  0
   60.5930   33.5001   53.3150 H   0  0  0  0  0  0  0  0  0  0  0  0
   60.8739   34.3889   51.7359 H   0  0  0  0  0  0  0  0  0  0  0  0
   59.0917   32.1348   52.3273 H   0  0  0  0  0  0  0  0  0  0  0  0
   59.1195   33.2688   50.9344 H   0  0  0  0  0  0  0  0  0  0  0  0
   60.1815   31.8201   50.9344 H   0  0  0  0  0  0  0  0  0  0  0  0
   62.5368   31.5630   53.7903 H   0  0  0  0  0  0  0  0  0  0  0  0
   61.3050   30.9709   52.6146 H   0  0  0  0  0  0  0  0  0  0  0  0
   64.3140   30.7803   52.5249 H   0  0  0  0  0  0  0  0  0  0  0  0
   63.0536   29.5811   52.0433 H   0  0  0  0  0  0  0  0  0  0  0  0
   61.1027   29.7471   50.8413 H   0  0  0  0  0  0  0  0  0  0  0  0
   59.4794   29.4244   48.9893 H   0  0  0  0  0  0  0  0  0  0  0  0
   59.1936   32.3287   45.8465 H   0  0  0  0  0  0  0  0  0  0  0  0
   57.4539   32.5607   43.8095 H   0  0  0  0  0  0  0  0  0  0  0  0
   56.0250   31.3349   42.1464 H   0  0  0  0  0  0  0  0  0  0  0  0
   56.0119   28.8321   42.0970 H   0  0  0  0  0  0  0  0  0  0  0  0
   57.4290   27.5321   43.7209 H   0  0  0  0  0  0  0  0  0  0  0  0
   62.0943   31.5902   46.3078 H   0  0  0  0  0  0  0  0  0  0  0  0
   64.7830   31.7380   48.7360 H   0  0  0  0  0  0  0  0  0  0  0  0
   64.3470   31.9050   47.1140 H   0  0  0  0  0  0  0  0  0  0  0  0
   64.0667   33.7797   49.3481 H   0  0  0  0  0  0  0  0  0  0  0  0
   64.5230   34.0769   47.6285 H   0  0  0  0  0  0  0  0  0  0  0  0
   62.7109   33.8634   45.8320 H   0  0  0  0  0  0  0  0  0  0  0  0
   60.3442   34.4699   45.3185 H   0  0  0  0  0  0  0  0  0  0  0  0
   58.7164   34.8439   47.1783 H   0  0  0  0  0  0  0  0  0  0  0  0
   59.4556   34.6181   49.5511 H   0  0  0  0  0  0  0  0  0  0  0  0
   61.8217   34.0185   50.0728 H   0  0  0  0  0  0  0  0  0  0  0  0
  1  2  1  0
  2  3  1  0
  3  4  1  0
  4  5  1  0
  3  6  1  0
  6  7  1  0
  7  8  1  0
  8  9  1  0
  9 10  2  0
 10 11  1  0
 11 12  2  0
 12 13  1  0
 13 14  2  0
 14 15  1  0
 15 16  2  0
 16 17  1  0
 17 18  2  0
 18 19  1  0
 19 20  2  0
 20 21  1  0
 12 22  1  0
 22 23  2  0
 23 24  1  0
 24 25  1  0
 25 26  1  0
 26 27  2  0
 27 28  1  0
 28 29  2  0
 29 30  1  0
 30 31  2  0
 23  9  1  0
 31 26  1  0
 21 13  1  0
 20 15  1  0
  1 32  1  0
  1 33  1  0
  1 34  1  0
  2 35  1  0
  2 36  1  0
  4 37  1  0
  4 38  1  0
  5 39  1  0
  5 40  1  0
  5 41  1  0
  6 42  1  0
  6 43  1  0
  7 44  1  0
  7 45  1  0
 10 46  1  0
 11 47  1  0
 14 48  1  0
 16 49  1  0
 17 50  1  0
 18 51  1  0
 19 52  1  0
 22 53  1  0
 24 54  1  0
 24 55  1  0
 25 56  1  0
 25 57  1  0
 27 58  1  0
 28 59  1  0
 29 60  1  0
 30 61  1  0
 31 62  1  0
M  CHG  1  24   1
M  END
>  <UniqueID>  (11) 
10

>  <SMILES>  (11) 
CCN(CC)CCOc1ccc(-c2cc3ccccc3s2)cc1[NH2+]Cc1ccccc1

>  <Energy>  (11) 
100.2103610974155

>  <Genealogy>  (11) 
CCN(CC)CCOc1ccc(-c2cc3ccccc3s2)cc1[NH2+]Cc1ccccc1 (protonated)
CCN(CC)CCOc1ccc(-c2cc3ccccc3s2)cc1[NH2+]Cc1ccccc1 (3D coordinates assigned)
CCN(CC)CCOc1ccc(-c2cc3ccccc3s2)cc1[NH2+]Cc1ccccc1 (optimized conformer: 100.2103610974155 kcal/mol)

>  <smiles>  (11) 
CCN(CC)CCOc1ccc(-c2cc3ccccc3s2)cc1NCc1ccccc1

>  <score_type>  (11) 
oracle

>  <origin>  (11) 
adg

>  <m_score__min__energy>  (11) 
-7.1900000000000004

>  <m_primary>  (11) 
energy

$$$$
11:0
     RDKit          3D

 32 33  0  0  0  0  0  0  0  0999 V2000
   55.1840   30.4980   45.2600 H   0  0  0  0  0  0  0  0  0  0  0  0
   55.1860   29.5130   45.0300 O   0  0  0  0  0  0  0  0  0  0  0  0
   56.3720   28.8130   45.0140 N   0  0  0  0  0  0  0  0  0  0  0  0
   57.4770   29.2810   45.5150 C   0  0  0  0  0  0  0  0  0  0  0  0
   57.7200   30.7380   45.6320 C   0  0  0  0  0  0  0  0  0  0  0  0
   57.0650   31.5510   44.9260 O   0  0  0  0  0  0  0  0  0  0  0  0
   58.6890   31.2260   46.5670 N   0  0  0  0  0  0  0  0  0  0  0  0
   59.1480   32.6100   46.6120 C   0  0  0  0  0  0  0  0  0  0  0  0
   58.8971   33.1063   45.6629 H   0  0  0  0  0  0  0  0  0  0  0  0
   58.6526   33.1237   47.4491 H   0  0  0  0  0  0  0  0  0  0  0  0
   60.6380   32.6610   46.8200 C   0  0  0  0  0  0  0  0  0  0  0  0
   61.3630   33.8230   46.5070 C   0  0  0  0  0  0  0  0  0  0  0  0
   60.8368   34.7135   46.1326 H   0  0  0  0  0  0  0  0  0  0  0  0
   62.7520   33.8510   46.6700 C   0  0  0  0  0  0  0  0  0  0  0  0
   63.3153   34.7639   46.4263 H   0  0  0  0  0  0  0  0  0  0  0  0
   63.4250   32.7210   47.1420 C   0  0  0  0  0  0  0  0  0  0  0  0
   64.5175   32.7443   47.2679 H   0  0  0  0  0  0  0  0  0  0  0  0
   62.7110   31.5620   47.4540 C   0  0  0  0  0  0  0  0  0  0  0  0
   63.2417   30.6732   47.8260 H   0  0  0  0  0  0  0  0  0  0  0  0
   61.3220   31.5300   47.2940 C   0  0  0  0  0  0  0  0  0  0  0  0
   60.7631   30.6152   47.5405 H   0  0  0  0  0  0  0  0  0  0  0  0
   58.4570   28.3140   46.0440 C   0  0  0  0  0  0  0  0  0  0  0  0
   58.0810   27.1060   47.1550 S   0  0  0  0  0  0  0  0  0  0  0  0
   59.6170   26.4340   47.2450 C   0  0  0  0  0  0  0  0  0  0  0  0
   59.9119   25.5814   47.8744 H   0  0  0  0  0  0  0  0  0  0  0  0
   60.4500   27.1390   46.3890 C   0  0  0  0  0  0  0  0  0  0  0  0
   61.5171   26.9039   46.2621 H   0  0  0  0  0  0  0  0  0  0  0  0
   59.8080   28.1800   45.6990 C   0  0  0  0  0  0  0  0  0  0  0  0
   60.5280   29.0240   44.6920 C   0  0  0  0  0  0  0  0  0  0  0  0
   61.1566   29.7608   45.2135 H   0  0  0  0  0  0  0  0  0  0  0  0
   61.1613   28.3825   44.0616 H   0  0  0  0  0  0  0  0  0  0  0  0
   59.7947   29.5483   44.0616 H   0  0  0  0  0  0  0  0  0  0  0  0
  1  2  1  0
  2  3  1  0
  3  4  2  0
  4  5  1  0
  5  6  2  0
  5  7  1  0
  7  8  1  0
  8  9  1  0
  8 10  1  0
  8 11  1  0
 11 12  2  0
 12 13  1  0
 12 14  1  0
 14 15  1  0
 14 16  2  0
 16 17  1  0
 16 18  1  0
 18 19  1  0
 18 20  2  0
 20 21  1  0
  4 22  1  0
 22 23  1  0
 23 24  1  0
 24 25  1  0
 24 26  2  0
 26 27  1  0
 26 28  1  0
 28 29  1  0
 29 30  1  0
 29 31  1  0
 29 32  1  0
 20 11  1  0
 28 22  2  0
M  CHG  1   7  -1
M  END
>  <UniqueID>  (12) 
11

>  <SMILES>  (12) 
Cc1ccsc1/C(=N/O)C(=O)[N-]Cc1ccccc1

>  <Energy>  (12) 
59.31984086504336

>  <Genealogy>  (12) 
Cc1ccsc1C(=NO)C(=O)[N-]Cc1ccccc1 (protonated)
Cc1ccsc1/C(=N/O)C(=O)[N-]Cc1ccccc1 (cis-trans isomerization)
Cc1ccsc1/C(=N/O)C(=O)[N-]Cc1ccccc1 (3D coordinates assigned)
Cc1ccsc1/C(=N/O)C(=O)[N-]Cc1ccccc1 (optimized conformer: 59.31984086504336 kcal/mol)

>  <smiles>  (12) 
Cc1ccsc1C(=NO)C(=O)NCc1ccccc1

>  <score_type>  (12) 
oracle

>  <origin>  (12) 
adg

>  <m_score__min__energy>  (12) 
-9.0399999999999991

>  <m_primary>  (12) 
energy

$$$$
12:0
     RDKit          3D

 29 30  0  0  0  0  0  0  0  0999 V2000
   55.8010   29.7100   46.0010 H   0  0  0  0  0  0  0  0  0  0  0  0
   55.6670   29.7840   45.0000 O   0  0  0  0  0  0  0  0  0  0  0  0
   56.7390   29.7920   44.1300 N   0  0  0  0  0  0  0  0  0  0  0  0
   57.4380   28.7060   43.9230 C   0  0  0  0  0  0  0  0  0  0  0  0
   57.4145   28.2520   42.9213 H   0  0  0  0  0  0  0  0  0  0  0  0
   58.2590   28.0580   44.9700 C   0  0  0  0  0  0  0  0  0  0  0  0
   59.6400   28.3010   45.0010 C   0  0  0  0  0  0  0  0  0  0  0  0
   60.1055   28.9454   44.2407 H   0  0  0  0  0  0  0  0  0  0  0  0
   60.4210   27.7200   46.0030 C   0  0  0  0  0  0  0  0  0  0  0  0
   61.5073   27.8924   46.0217 H   0  0  0  0  0  0  0  0  0  0  0  0
   59.8410   26.9420   46.9550 N   0  0  0  0  0  0  0  0  0  0  0  0
   58.5020   26.7090   46.9660 C   0  0  0  0  0  0  0  0  0  0  0  0
   58.0607   26.0787   47.7521 H   0  0  0  0  0  0  0  0  0  0  0  0
   57.6850   27.2690   45.9800 C   0  0  0  0  0  0  0  0  0  0  0  0
   56.5993   27.0929   45.9950 H   0  0  0  0  0  0  0  0  0  0  0  0
   57.0880   31.0380   43.4410 C   0  0  0  0  0  0  0  0  0  0  0  0
   57.8317   30.8259   42.6587 H   0  0  0  0  0  0  0  0  0  0  0  0
   56.1819   31.4663   42.9876 H   0  0  0  0  0  0  0  0  0  0  0  0
   57.6630   32.0230   44.4210 C   0  0  0  0  0  0  0  0  0  0  0  0
   58.1320   33.2710   43.9780 C   0  0  0  0  0  0  0  0  0  0  0  0
   58.0501   33.5425   42.9152 H   0  0  0  0  0  0  0  0  0  0  0  0
   58.7030   34.1690   44.8860 C   0  0  0  0  0  0  0  0  0  0  0  0
   59.0623   35.1483   44.5369 H   0  0  0  0  0  0  0  0  0  0  0  0
   58.8180   33.8250   46.2350 C   0  0  0  0  0  0  0  0  0  0  0  0
   59.2646   34.5345   46.9472 H   0  0  0  0  0  0  0  0  0  0  0  0
   58.3660   32.5800   46.6800 C   0  0  0  0  0  0  0  0  0  0  0  0
   58.4592   32.3089   47.7420 H   0  0  0  0  0  0  0  0  0  0  0  0
   57.7950   31.6780   45.7760 C   0  0  0  0  0  0  0  0  0  0  0  0
   57.4482   30.6951   46.1276 H   0  0  0  0  0  0  0  0  0  0  0  0
  1  2  1  0
  2  3  1  0
  3  4  2  0
  4  5  1  0
  4  6  1  0
  6  7  2  0
  7  8  1  0
  7  9  1  0
  9 10  1  0
  9 11  2  0
 11 12  1  0
 12 13  1  0
 12 14  2  0
 14 15  1  0
  3 16  1  0
 16 17  1  0
 16 18  1  0
 16 19  1  0
 19 20  2  0
 20 21  1  0
 20 22  1  0
 22 23  1  0
 22 24  2  0
 24 25  1  0
 24 26  1  0
 26 27  1  0
 26 28  2  0
 28 29  1  0
 14  6  1  0
 28 19  1  0
M  CHG  1   3   1
M  END
>  <UniqueID>  (13) 
12

>  <SMILES>  (13) 
O/[N+](=C\c1ccncc1)Cc1ccccc1

>  <Energy>  (13) 
33.43272102476346

>  <Genealogy>  (13) 
O[N+](=Cc1ccncc1)Cc1ccccc1 (protonated)
O/[N+](=C\c1ccncc1)Cc1ccccc1 (cis-trans isomerization)
O/[N+](=C\c1ccncc1)Cc1ccccc1 (3D coordinates assigned)
O/[N+](=C\c1ccncc1)Cc1ccccc1 (optimized conformer: 33.43272102476346 kcal/mol)

>  <smiles>  (13) 
[O-][N+](=Cc1ccncc1)Cc1ccccc1

>  <score_type>  (13) 
oracle

>  <origin>  (13) 
adg

>  <m_score__min__energy>  (13) 
-5.0700000000000003

>  <m_primary>  (13) 
energy

$$$$
13:0
     RDKit          3D

 31 32  0  0  0  0  0  0  0  0999 V2000
   59.8100   28.5190   44.6750 C   0  0  0  0  0  0  0  0  0  0  0  0
   58.6940   29.2720   44.0890 N   0  0  0  0  0  0  0  0  0  0  0  0
   57.3850   28.6610   44.4040 C   0  0  1  0  0  0  0  0  0  0  0  0
   57.4880   27.8030   45.6720 C   0  0  0  0  0  0  0  0  0  0  0  0
   56.3160   29.7100   44.5930 C   0  0  0  0  0  0  0  0  0  0  0  0
   55.1370   29.3450   44.8540 O   0  0  0  0  0  0  0  0  0  0  0  0
   56.6600   31.1020   44.4840 N   0  0  0  0  0  0  0  0  0  0  0  0
   57.4700   31.7810   45.2420 C   0  0  0  0  0  0  0  0  0  0  0  0
   58.5800   31.2340   45.7700 N   0  0  0  0  0  0  0  0  0  0  0  0
   59.3020   32.1070   46.5340 C   0  0  0  0  0  0  0  0  0  0  0  0
   60.4820   31.6570   47.1410 C   0  0  0  0  0  0  0  0  0  0  0  0
   60.8090   30.4540   46.9420 O   0  0  0  0  0  0  0  0  0  0  0  0
   61.3430   32.4030   47.9500 C   0  0  0  0  0  0  0  0  0  0  0  0
   61.2610   33.7330   48.3530 C   0  0  0  0  0  0  0  0  0  0  0  0
   60.2920   34.6820   48.0510 C   0  0  0  0  0  0  0  0  0  0  0  0
   59.1580   34.5320   47.2690 C   0  0  0  0  0  0  0  0  0  0  0  0
   58.7340   33.3900   46.6060 C   0  0  0  0  0  0  0  0  0  0  0  0
   57.3170   33.3900   45.6910 S   0  0  0  0  0  0  0  0  0  0  0  0
   59.7456   28.5625   45.7723 H   0  0  0  0  0  0  0  0  0  0  0  0
   59.7579   27.4707   44.3459 H   0  0  0  0  0  0  0  0  0  0  0  0
   60.7626   28.9597   44.3459 H   0  0  0  0  0  0  0  0  0  0  0  0
   58.8300   29.3360   43.0530 H   0  0  0  0  0  0  0  0  0  0  0  0
   58.7260   30.2430   44.4830 H   0  0  0  0  0  0  0  0  0  0  0  0
   57.1027   28.0267   43.5508 H   0  0  0  0  0  0  0  0  0  0  0  0
   57.4105   28.4489   46.5590 H   0  0  0  0  0  0  0  0  0  0  0  0
   56.6719   27.0655   45.6830 H   0  0  0  0  0  0  0  0  0  0  0  0
   58.4554   27.2796   45.6830 H   0  0  0  0  0  0  0  0  0  0  0  0
   62.2199   31.8556   48.3260 H   0  0  0  0  0  0  0  0  0  0  0  0
   62.0781   34.0816   49.0017 H   0  0  0  0  0  0  0  0  0  0  0  0
   60.4446   35.6796   48.4885 H   0  0  0  0  0  0  0  0  0  0  0  0
   58.5202   35.4217   47.1616 H   0  0  0  0  0  0  0  0  0  0  0  0
  1  2  1  0
  2  3  1  0
  3  4  1  0
  3  5  1  0
  5  6  2  0
  5  7  1  0
  7  8  2  3
  8  9  1  0
  9 10  1  0
 10 11  1  0
 11 12  2  0
 11 13  1  0
 13 14  2  0
 14 15  1  0
 15 16  2  0
 16 17  1  0
 17 18  1  0
 18  8  1  0
 17 10  2  0
  1 19  1  0
  1 20  1  0
  1 21  1  0
  2 22  1  0
  2 23  1  0
  3 24  1  6
  4 25  1  0
  4 26  1  0
  4 27  1  0
 13 28  1  0
 14 29  1  0
 15 30  1  0
 16 31  1  0
M  CHG  2   2   1   9  -1
M  END
>  <UniqueID>  (14) 
13

>  <SMILES>  (14) 
C[NH2+][C@@H](C)C(=O)N=c1[n-]c2c(=O)ccccc2s1

>  <Energy>  (14) 
77.43006577664468

>  <Genealogy>  (14) 
C[NH2+]C(C)C(=O)N=c1[n-]c2c(=O)ccccc2s1 (protonated)
C[NH2+][C@@H](C)C(=O)N=c1[n-]c2c(=O)ccccc2s1 (chirality)
C[NH2+][C@@H](C)C(=O)N=c1[n-]c2c(=O)ccccc2s1 (3D coordinates assigned)
C[NH2+][C@@H](C)C(=O)N=c1[n-]c2c(=O)ccccc2s1 (optimized conformer: 77.43006577664468 kcal/mol)

>  <smiles>  (14) 
CNC(C)C(=O)N=c1[nH]c2c(=O)ccccc2s1

>  <score_type>  (14) 
oracle

>  <origin>  (14) 
adg

>  <m_score__min__energy>  (14) 
-6.7199999999999998

>  <m_primary>  (14) 
energy

$$$$
14:0
     RDKit          3D

 39 40  0  0  0  0  0  0  0  0999 V2000
   57.6930   33.4200   47.3950 C   0  0  0  0  0  0  0  0  0  0  0  0
   59.0870   32.8400   47.7530 C   0  0  0  0  0  0  0  0  0  0  0  0
   59.6140   33.6590   48.9540 C   0  0  0  0  0  0  0  0  0  0  0  0
   60.0030   33.0330   46.5300 C   0  0  0  0  0  0  0  0  0  0  0  0
   58.9960   31.3870   48.0890 N   0  0  0  0  0  0  0  0  0  0  0  0
   59.0940   30.3670   47.1970 C   0  0  0  0  0  0  0  0  0  0  0  0
   59.0210   29.1450   47.8270 C   0  0  0  0  0  0  0  0  0  0  0  0
   58.8890   29.4040   49.1670 C   0  0  0  0  0  0  0  0  0  0  0  0
   58.8970   30.7800   49.3090 C   0  0  0  0  0  0  0  0  0  0  0  0
   58.7400   31.4390   50.6540 C   0  0  0  0  0  0  0  0  0  0  0  0
   57.3390   31.7750   50.9070 N   0  0  0  0  0  0  0  0  0  0  0  0
   56.4710   30.8730   51.6120 C   0  0  0  0  0  0  0  0  0  0  0  0
   56.9130   29.7630   52.0140 O   0  0  0  0  0  0  0  0  0  0  0  0
   55.1010   31.2030   51.8710 N   0  0  0  0  0  0  0  0  0  0  0  0
   53.9760   30.2800   51.7630 C   0  0  0  0  0  0  0  0  0  0  0  0
   52.7820   30.9610   51.1670 C   0  0  0  0  0  0  0  0  0  0  0  0
   52.0080   30.5170   50.1180 C   0  0  0  0  0  0  0  0  0  0  0  0
   50.9820   31.3700   49.9420 N   0  0  0  0  0  0  0  0  0  0  0  0
   51.0720   32.3340   50.8480 N   0  0  0  0  0  0  0  0  0  0  0  0
   52.1560   32.1050   51.6140 C   0  0  0  0  0  0  0  0  0  0  0  0
   57.1427   33.6490   48.3195 H   0  0  0  0  0  0  0  0  0  0  0  0
   57.8191   34.3403   46.8058 H   0  0  0  0  0  0  0  0  0  0  0  0
   57.1290   32.6819   46.8058 H   0  0  0  0  0  0  0  0  0  0  0  0
   59.3031   33.1758   49.8920 H   0  0  0  0  0  0  0  0  0  0  0  0
   60.7122   33.7059   48.9122 H   0  0  0  0  0  0  0  0  0  0  0  0
   59.2016   34.6779   48.9122 H   0  0  0  0  0  0  0  0  0  0  0  0
   61.0269   33.2487   46.8692 H   0  0  0  0  0  0  0  0  0  0  0  0
   60.0033   32.1152   45.9237 H   0  0  0  0  0  0  0  0  0  0  0  0
   59.6330   33.8729   45.9237 H   0  0  0  0  0  0  0  0  0  0  0  0
   59.2159   30.5002   46.1119 H   0  0  0  0  0  0  0  0  0  0  0  0
   59.0608   28.1550   47.3491 H   0  0  0  0  0  0  0  0  0  0  0  0
   58.7950   28.6614   49.9730 H   0  0  0  0  0  0  0  0  0  0  0  0
   59.0928   30.7508   51.4362 H   0  0  0  0  0  0  0  0  0  0  0  0
   59.3324   32.3658   50.6640 H   0  0  0  0  0  0  0  0  0  0  0  0
   56.9620   32.6800   50.5510 H   0  0  0  0  0  0  0  0  0  0  0  0
   54.2648   29.4334   51.1228 H   0  0  0  0  0  0  0  0  0  0  0  0
   53.7128   29.9268   52.7709 H   0  0  0  0  0  0  0  0  0  0  0  0
   52.1975   29.6126   49.5212 H   0  0  0  0  0  0  0  0  0  0  0  0
   52.4873   32.7284   52.4576 H   0  0  0  0  0  0  0  0  0  0  0  0
  1  2  1  0
  2  3  1  0
  2  4  1  0
  2  5  1  0
  5  6  1  0
  6  7  2  0
  7  8  1  0
  8  9  2  0
  9 10  1  0
 10 11  1  0
 11 12  1  0
 12 13  2  0
 12 14  1  0
 14 15  1  0
 15 16  1  0
 16 17  1  0
 17 18  2  0
 18 19  1  0
 19 20  1  0
  9  5  1  0
 20 16  2  0
  1 21  1  0
  1 22  1  0
  1 23  1  0
  3 24  1  0
  3 25  1  0
  3 26  1  0
  4 27  1  0
  4 28  1  0
  4 29  1  0
  6 30  1  0
  7 31  1  0
  8 32  1  0
 10 33  1  0
 10 34  1  0
 11 35  1  0
 15 36  1  0
 15 37  1  0
 17 38  1  0
 20 39  1  0
M  CHG  2  14  -1  19  -1
M  END
>  <UniqueID>  (15) 
14

>  <SMILES>  (15) 
CC(C)(C)n1cccc1CNC(=O)[N-]Cc1cn[n-]c1

>  <Energy>  (15) 
90.22838619389631

>  <Genealogy>  (15) 
CC(C)(C)n1cccc1CNC(=O)[N-]Cc1cn[n-]c1 (protonated)
CC(C)(C)n1cccc1CNC(=O)[N-]Cc1cn[n-]c1 (3D coordinates assigned)
CC(C)(C)n1cccc1CNC(=O)[N-]Cc1cn[n-]c1 (optimized conformer: 90.22838619389631 kcal/mol)

>  <smiles>  (15) 
CC(C)(C)n1cccc1CNC(=O)NCc1cn[nH]c1

>  <score_type>  (15) 
oracle

>  <origin>  (15) 
adg

>  <m_score__min__energy>  (15) 
-10.42

>  <m_primary>  (15) 
energy

$$$$
15:0
     RDKit          3D

 46 49  0  0  0  0  0  0  0  0999 V2000
   57.0700   31.5100   45.3840 O   0  0  0  0  0  0  0  0  0  0  0  0
   57.5780   30.4040   45.0600 C   0  0  0  0  0  0  0  0  0  0  0  0
   58.8710   30.3890   44.3330 C   0  0  0  0  0  0  0  0  0  0  0  0
   59.9070   29.5930   45.1100 C   0  0  1  0  0  0  0  0  0  0  0  0
   60.1080   30.0900   46.5370 C   0  0  0  0  0  0  0  0  0  0  0  0
   59.8020   29.2250   47.6040 C   0  0  0  0  0  0  0  0  0  0  0  0
   59.9960   29.6270   48.9290 C   0  0  0  0  0  0  0  0  0  0  0  0
   60.5030   30.8980   49.2060 C   0  0  0  0  0  0  0  0  0  0  0  0
   60.6920   31.2870   50.4910 F   0  0  0  0  0  0  0  0  0  0  0  0
   60.8170   31.7670   48.1590 C   0  0  0  0  0  0  0  0  0  0  0  0
   60.6240   31.3700   46.8330 C   0  0  0  0  0  0  0  0  0  0  0  0
   59.6360   28.1610   45.0300 N   0  0  0  0  0  0  0  0  0  0  0  0
   58.5640   27.4500   45.2590 C   0  0  0  0  0  0  0  0  0  0  0  0
   58.7700   26.0620   45.3450 C   0  0  0  0  0  0  0  0  0  0  0  0
   57.7420   25.1910   45.7150 C   0  0  0  0  0  0  0  0  0  0  0  0
   58.0500   23.4640   45.8770 S   0  0  0  0  0  0  0  0  0  0  0  0
   57.6550   23.0030   47.2540 O   0  0  0  0  0  0  0  0  0  0  0  0
   59.5200   23.2130   45.6940 O   0  0  0  0  0  0  0  0  0  0  0  0
   57.1490   22.5890   44.6650 N   0  0  0  0  0  0  0  0  0  0  0  0
   58.0150   21.5860   44.0190 C   0  0  0  0  0  0  0  0  0  0  0  0
   57.3490   21.0170   42.7500 C   0  0  0  0  0  0  0  0  0  0  0  0
   55.9760   21.3510   42.7060 O   0  0  0  0  0  0  0  0  0  0  0  0
   55.8280   22.7550   42.5840 C   0  0  0  0  0  0  0  0  0  0  0  0
   56.6200   23.5250   43.6630 C   0  0  0  0  0  0  0  0  0  0  0  0
   56.4840   25.7040   46.0170 C   0  0  0  0  0  0  0  0  0  0  0  0
   56.2410   27.0710   45.9090 C   0  0  0  0  0  0  0  0  0  0  0  0
   57.2440   27.9660   45.4980 C   0  0  0  0  0  0  0  0  0  0  0  0
   56.8620   29.2060   45.3580 N   0  0  0  0  0  0  0  0  0  0  0  0
   58.7259   29.9277   43.3450 H   0  0  0  0  0  0  0  0  0  0  0  0
   59.2280   31.4232   44.2188 H   0  0  0  0  0  0  0  0  0  0  0  0
   60.8773   29.7664   44.6216 H   0  0  0  0  0  0  0  0  0  0  0  0
   59.4055   28.2208   47.3931 H   0  0  0  0  0  0  0  0  0  0  0  0
   59.7491   28.9418   49.7533 H   0  0  0  0  0  0  0  0  0  0  0  0
   61.2177   32.7676   48.3787 H   0  0  0  0  0  0  0  0  0  0  0  0
   60.8760   32.0600   46.0142 H   0  0  0  0  0  0  0  0  0  0  0  0
   59.7645   25.6518   45.1155 H   0  0  0  0  0  0  0  0  0  0  0  0
   58.9693   22.0586   43.7435 H   0  0  0  0  0  0  0  0  0  0  0  0
   58.1840   20.7608   44.7265 H   0  0  0  0  0  0  0  0  0  0  0  0
   57.8493   21.4336   41.8634 H   0  0  0  0  0  0  0  0  0  0  0  0
   57.4431   19.9211   42.7658 H   0  0  0  0  0  0  0  0  0  0  0  0
   56.1899   23.0637   41.5922 H   0  0  0  0  0  0  0  0  0  0  0  0
   54.7622   22.9932   42.7156 H   0  0  0  0  0  0  0  0  0  0  0  0
   57.4555   24.0604   43.1884 H   0  0  0  0  0  0  0  0  0  0  0  0
   55.9494   24.2423   44.1588 H   0  0  0  0  0  0  0  0  0  0  0  0
   55.6795   25.0279   46.3419 H   0  0  0  0  0  0  0  0  0  0  0  0
   55.2407   27.4595   46.1510 H   0  0  0  0  0  0  0  0  0  0  0  0
  1  2  2  0
  2  3  1  0
  3  4  1  0
  4  5  1  0
  5  6  2  0
  6  7  1  0
  7  8  2  0
  8  9  1  0
  8 10  1  0
 10 11  2  0
  4 12  1  0
 12 13  2  0
 13 14  1  0
 14 15  2  0
 15 16  1  0
 16 17  2  0
 16 18  2  0
 16 19  1  0
 19 20  1  0
 20 21  1  0
 21 22  1  0
 22 23  1  0
 23 24  1  0
 15 25  1  0
 25 26  2  0
 26 27  1  0
 27 28  2  0
 28  2  1  0
 11  5  1  0
 27 13  1  0
 24 19  1  0
  3 29  1  0
  3 30  1  0
  4 31  1  6
  6 32  1  0
  7 33  1  0
 10 34  1  0
 11 35  1  0
 14 36  1  0
 20 37  1  0
 20 38  1  0
 21 39  1  0
 21 40  1  0
 23 41  1  0
 23 42  1  0
 24 43  1  0
 24 44  1  0
 25 45  1  0
 26 46  1  0
M  END
>  <UniqueID>  (16) 
15

>  <SMILES>  (16) 
O=C1C[C@@H](c2ccc(F)cc2)N=c2cc(S(=O)(=O)N3CCOCC3)ccc2=N1

>  <Energy>  (16) 
76.46647443309499

>  <Genealogy>  (16) 
O=C1C[C@@H](c2ccc(F)cc2)N=c2cc(S(=O)(=O)N3CCOCC3)ccc2=N1 (chirality)
O=C1C[C@@H](c2ccc(F)cc2)N=c2cc(S(=O)(=O)N3CCOCC3)ccc2=N1 (3D coordinates assigned)
O=C1C[C@@H](c2ccc(F)cc2)N=c2cc(S(=O)(=O)N3CCOCC3)ccc2=N1 (nonaromatic ring conformer: 76.46647443309499 kcal/mol)

>  <smiles>  (16) 
O=C1CC(c2ccc(F)cc2)N=c2cc(S(=O)(=O)N3CCOCC3)ccc2=N1

>  <score_type>  (16) 
oracle

>  <origin>  (16) 
adg

>  <m_score__min__energy>  (16) 
-6.9299999999999997

>  <m_primary>  (16) 
energy

$$$$
16:0
     RDKit          3D

 33 34  0  0  0  0  0  0  0  0999 V2000
   60.7430   26.6550   46.3780 C   0  0  0  0  0  0  0  0  0  0  0  0
   59.7680   27.6820   45.8820 C   0  0  0  0  0  0  0  0  0  0  0  0
   60.1660   28.6420   44.9420 C   0  0  0  0  0  0  0  0  0  0  0  0
   59.2700   29.6250   44.5130 C   0  0  0  0  0  0  0  0  0  0  0  0
   57.9680   29.6810   45.0420 C   0  0  0  0  0  0  0  0  0  0  0  0
   57.0200   30.7380   44.6140 C   0  0  0  0  0  0  0  0  0  0  0  0
   55.7960   30.4580   44.5040 O   0  0  0  0  0  0  0  0  0  0  0  0
   57.4580   32.0660   44.2890 N   0  0  0  0  0  0  0  0  0  0  0  0
   58.5450   32.7310   44.9490 C   0  0  0  0  0  0  0  0  0  0  0  0
   59.0560   33.7520   44.4150 O   0  0  0  0  0  0  0  0  0  0  0  0
   59.0040   32.2870   46.2350 N   0  0  0  0  0  0  0  0  0  0  0  0
   60.3530   32.4500   46.7070 C   0  0  0  0  0  0  0  0  0  0  0  0
   61.0770   31.3220   47.1250 C   0  0  0  0  0  0  0  0  0  0  0  0
   62.4000   31.4500   47.5570 C   0  0  0  0  0  0  0  0  0  0  0  0
   63.0170   32.7030   47.5620 C   0  0  0  0  0  0  0  0  0  0  0  0
   62.3130   33.8290   47.1270 C   0  0  0  0  0  0  0  0  0  0  0  0
   60.9890   33.7060   46.6970 C   0  0  0  0  0  0  0  0  0  0  0  0
   57.5710   28.7150   45.9810 C   0  0  0  0  0  0  0  0  0  0  0  0
   58.4660   27.7290   46.4050 C   0  0  0  0  0  0  0  0  0  0  0  0
   60.7452   26.6527   47.4780 H   0  0  0  0  0  0  0  0  0  0  0  0
   60.4479   25.6613   46.0098 H   0  0  0  0  0  0  0  0  0  0  0  0
   61.7506   26.8981   46.0098 H   0  0  0  0  0  0  0  0  0  0  0  0
   61.1895   28.6218   44.5395 H   0  0  0  0  0  0  0  0  0  0  0  0
   59.5850   30.3594   43.7570 H   0  0  0  0  0  0  0  0  0  0  0  0
   56.9090   32.6080   43.5840 H   0  0  0  0  0  0  0  0  0  0  0  0
   58.3090   31.8360   46.8710 H   0  0  0  0  0  0  0  0  0  0  0  0
   60.5998   30.3310   47.1124 H   0  0  0  0  0  0  0  0  0  0  0  0
   62.9561   30.5626   47.8936 H   0  0  0  0  0  0  0  0  0  0  0  0
   64.0563   32.8034   47.9081 H   0  0  0  0  0  0  0  0  0  0  0  0
   62.8020   34.8143   47.1230 H   0  0  0  0  0  0  0  0  0  0  0  0
   60.4414   34.5944   46.3492 H   0  0  0  0  0  0  0  0  0  0  0  0
   56.5483   28.7346   46.3856 H   0  0  0  0  0  0  0  0  0  0  0  0
   58.1489   26.9863   47.1519 H   0  0  0  0  0  0  0  0  0  0  0  0
  1  2  1  0
  2  3  2  0
  3  4  1  0
  4  5  2  0
  5  6  1  0
  6  7  2  0
  6  8  1  0
  8  9  1  0
  9 10  2  0
  9 11  1  0
 11 12  1  0
 12 13  2  0
 13 14  1  0
 14 15  2  0
 15 16  1  0
 16 17  2  0
  5 18  1  0
 18 19  2  0
 19  2  1  0
 17 12  1  0
  1 20  1  0
  1 21  1  0
  1 22  1  0
  3 23  1  0
  4 24  1  0
  8 25  1  0
 11 26  1  0
 13 27  1  0
 14 28  1  0
 15 29  1  0
 16 30  1  0
 17 31  1  0
 18 32  1  0
 19 33  1  0
M  END
>  <UniqueID>  (17) 
16

>  <SMILES>  (17) 
Cc1ccc(C(=O)NC(=O)Nc2ccccc2)cc1

>  <Energy>  (17) 
40.065122601815155

>  <Genealogy>  (17) 
Cc1ccc(C(=O)NC(=O)Nc2ccccc2)cc1 (3D coordinates assigned)
Cc1ccc(C(=O)NC(=O)Nc2ccccc2)cc1 (optimized conformer: 40.065122601815155 kcal/mol)

>  <smiles>  (17) 
Cc1ccc(C(=O)NC(=O)Nc2ccccc2)cc1

>  <score_type>  (17) 
oracle

>  <origin>  (17) 
adg

>  <m_score__min__energy>  (17) 
-6.6399999999999997

>  <m_primary>  (17) 
energy

$$$$
17:0
     RDKit          3D

 51 53  0  0  0  0  0  0  0  0999 V2000
   56.5044   33.9422   46.2068 H   0  0  0  0  0  0  0  0  0  0  0  0
   57.4750   33.4600   46.3950 C   0  0  0  0  0  0  0  0  0  0  0  0
   58.3330   34.0370   47.1690 N   0  0  0  0  0  0  0  0  0  0  0  0
   59.4060   34.7220   46.6430 O   0  0  0  0  0  0  0  0  0  0  0  0
   60.5500   34.0310   46.1540 C   0  0  0  0  0  0  0  0  0  0  0  0
   60.2361   33.0540   45.7577 H   0  0  0  0  0  0  0  0  0  0  0  0
   61.0126   34.6412   45.3643 H   0  0  0  0  0  0  0  0  0  0  0  0
   61.5880   33.8100   47.2670 C   0  0  0  0  0  0  0  0  0  0  0  0
   61.2330   34.5513   47.9981 H   0  0  0  0  0  0  0  0  0  0  0  0
   63.0370   33.8420   46.7830 C   0  0  0  0  0  0  0  0  0  0  0  0
   63.1465   34.0206   45.7031 H   0  0  0  0  0  0  0  0  0  0  0  0
   63.7328   34.6085   47.1550 H   0  0  0  0  0  0  0  0  0  0  0  0
   63.2020   32.3840   47.1930 C   0  0  0  0  0  0  0  0  0  0  0  0
   63.4241   31.7057   46.3559 H   0  0  0  0  0  0  0  0  0  0  0  0
   64.0115   32.0890   47.8769 H   0  0  0  0  0  0  0  0  0  0  0  0
   61.7530   32.3420   47.6570 C   0  0  0  0  0  0  0  0  0  0  0  0
   61.1175   31.6506   47.0841 H   0  0  0  0  0  0  0  0  0  0  0  0
   61.5026   32.0036   48.6733 H   0  0  0  0  0  0  0  0  0  0  0  0
   57.7780   32.1640   45.7600 C   0  0  0  0  0  0  0  0  0  0  0  0
   58.3530   31.1140   46.4960 C   0  0  0  0  0  0  0  0  0  0  0  0
   58.6029   31.2625   47.5569 H   0  0  0  0  0  0  0  0  0  0  0  0
   58.6090   29.8830   45.8880 C   0  0  0  0  0  0  0  0  0  0  0  0
   59.0239   29.0558   46.4826 H   0  0  0  0  0  0  0  0  0  0  0  0
   58.3400   29.6940   44.5210 C   0  0  0  0  0  0  0  0  0  0  0  0
   58.5900   28.4340   43.8740 N   0  0  0  0  0  0  0  0  0  0  0  0
   59.3530   28.3900   43.1610 H   0  0  0  0  0  0  0  0  0  0  0  0
   57.8440   27.2330   44.1260 C   0  0  0  0  0  0  0  0  0  0  0  0
   57.7710   26.3580   43.2210 O   0  0  0  0  0  0  0  0  0  0  0  0
   57.2280   27.0020   45.4060 N   0  0  0  0  0  0  0  0  0  0  0  0
   57.3620   27.7040   46.1660 H   0  0  0  0  0  0  0  0  0  0  0  0
   56.2340   25.9920   45.6210 C   0  0  0  0  0  0  0  0  0  0  0  0
   55.1380   26.3260   46.1480 O   0  0  0  0  0  0  0  0  0  0  0  0
   56.4830   24.5670   45.2980 C   0  0  0  0  0  0  0  0  0  0  0  0
   56.3340   24.0860   43.9860 C   0  0  0  0  0  0  0  0  0  0  0  0
   55.9810   24.7619   43.1932 H   0  0  0  0  0  0  0  0  0  0  0  0
   56.6310   22.7560   43.6820 C   0  0  0  0  0  0  0  0  0  0  0  0
   56.5077   22.3884   42.6526 H   0  0  0  0  0  0  0  0  0  0  0  0
   57.0840   21.8910   44.6800 C   0  0  0  0  0  0  0  0  0  0  0  0
   57.3221   20.8459   44.4330 H   0  0  0  0  0  0  0  0  0  0  0  0
   57.2370   22.3520   46.0010 C   0  0  0  0  0  0  0  0  0  0  0  0
   57.6790   21.5250   47.0440 O   0  0  0  0  0  0  0  0  0  0  0  0
   57.7230   20.1040   46.9800 C   0  0  0  0  0  0  0  0  0  0  0  0
   57.7358   19.6913   47.9996 H   0  0  0  0  0  0  0  0  0  0  0  0
   56.8359   19.7334   46.4455 H   0  0  0  0  0  0  0  0  0  0  0  0
   58.6313   19.7890   46.4455 H   0  0  0  0  0  0  0  0  0  0  0  0
   56.9410   23.6890   46.2960 C   0  0  0  0  0  0  0  0  0  0  0  0
   57.0689   24.0577   47.3245 H   0  0  0  0  0  0  0  0  0  0  0  0
   57.7500   30.7370   43.7940 C   0  0  0  0  0  0  0  0  0  0  0  0
   57.5069   30.5915   42.7311 H   0  0  0  0  0  0  0  0  0  0  0  0
   57.4680   31.9600   44.4080 C   0  0  0  0  0  0  0  0  0  0  0  0
   56.9997   32.7680   43.8268 H   0  0  0  0  0  0  0  0  0  0  0  0
  1  2  1  0
  2  3  2  0
  3  4  1  0
  4  5  1  0
  5  6  1  0
  5  7  1  0
  5  8  1  0
  8  9  1  0
  8 10  1  0
 10 11  1  0
 10 12  1  0
 10 13  1  0
 13 14  1  0
 13 15  1  0
 13 16  1  0
 16 17  1  0
 16 18  1  0
  2 19  1  0
 19 20  2  0
 20 21  1  0
 20 22  1  0
 22 23  1  0
 22 24  2  0
 24 25  1  0
 25 26  1  0
 25 27  1  0
 27 28  2  0
 27 29  1  0
 29 30  1  0
 29 31  1  0
 31 32  2  0
 31 33  1  0
 33 34  2  0
 34 35  1  0
 34 36  1  0
 36 37  1  0
 36 38  2  0
 38 39  1  0
 38 40  1  0
 40 41  1  0
 41 42  1  0
 42 43  1  0
 42 44  1  0
 42 45  1  0
 40 46  2  0
 46 47  1  0
 24 48  1  0
 48 49  1  0
 48 50  2  0
 50 51  1  0
 16  8  1  0
 50 19  1  0
 46 33  1  0
M  END
>  <UniqueID>  (18) 
17

>  <SMILES>  (18) 
COc1cccc(C(=O)NC(=O)Nc2ccc(/C=N/OCC3CCC3)cc2)c1

>  <Energy>  (18) 
116.90104749827606

>  <Genealogy>  (18) 
COc1cccc(C(=O)NC(=O)Nc2ccc(/C=N/OCC3CCC3)cc2)c1 (cis-trans isomerization)
COc1cccc(C(=O)NC(=O)Nc2ccc(/C=N/OCC3CCC3)cc2)c1 (3D coordinates assigned)
COc1cccc(C(=O)NC(=O)Nc2ccc(/C=N/OCC3CCC3)cc2)c1 (nonaromatic ring conformer: 116.90104749827606 kcal/mol)

>  <smiles>  (18) 
COc1cccc(C(=O)NC(=O)Nc2ccc(C=NOCC3CCC3)cc2)c1

>  <score_type>  (18) 
oracle

>  <origin>  (18) 
adg

>  <m_score__min__energy>  (18) 
-8.7200000000000006

>  <m_primary>  (18) 
energy

$$$$
18:0
     RDKit          3D

 32 35  0  0  0  0  0  0  0  0999 V2000
   55.9070   31.0320   44.7300 O   0  0  0  0  0  0  0  0  0  0  0  0
   57.2570   30.9260   45.0260 N   0  0  0  0  0  0  0  0  0  0  0  0
   57.8570   29.8030   44.7300 C   0  0  0  0  0  0  0  0  0  0  0  0
   57.3790   29.0500   43.6320 C   0  0  0  0  0  0  0  0  0  0  0  0
   57.8470   27.7640   43.3740 C   0  0  0  0  0  0  0  0  0  0  0  0
   58.7530   27.1710   44.2430 C   0  0  0  0  0  0  0  0  0  0  0  0
   59.1900   27.8640   45.3690 C   0  0  0  0  0  0  0  0  0  0  0  0
   58.7840   29.1960   45.6200 C   0  0  0  0  0  0  0  0  0  0  0  0
   59.0800   29.7320   46.7740 N   0  0  0  0  0  0  0  0  0  0  0  0
   59.1790   28.8890   47.8690 O   0  0  0  0  0  0  0  0  0  0  0  0
   59.6170   31.0680   46.8950 C   0  0  0  0  0  0  0  0  0  0  0  0
   60.7560   31.2300   47.7120 C   0  0  0  0  0  0  0  0  0  0  0  0
   61.3570   32.4670   47.8910 C   0  0  0  0  0  0  0  0  0  0  0  0
   60.8520   33.5820   47.2440 C   0  0  0  0  0  0  0  0  0  0  0  0
   59.7440   33.4640   46.3960 C   0  0  0  0  0  0  0  0  0  0  0  0
   59.2820   34.6090   45.7400 C   0  0  0  0  0  0  0  0  0  0  0  0
   58.2070   34.5300   44.8720 C   0  0  0  0  0  0  0  0  0  0  0  0
   57.5740   33.3130   44.6610 C   0  0  0  0  0  0  0  0  0  0  0  0
   57.9820   32.1390   45.3280 C   0  0  0  0  0  0  0  0  0  0  0  0
   59.1050   32.1970   46.1980 C   0  0  0  0  0  0  0  0  0  0  0  0
   55.2000   30.5280   45.2530 H   0  0  0  0  0  0  0  0  0  0  0  0
   56.6209   29.4899   42.9673 H   0  0  0  0  0  0  0  0  0  0  0  0
   57.4996   27.2193   42.4837 H   0  0  0  0  0  0  0  0  0  0  0  0
   59.1250   26.1554   44.0424 H   0  0  0  0  0  0  0  0  0  0  0  0
   59.8658   27.3649   46.0791 H   0  0  0  0  0  0  0  0  0  0  0  0
   60.0720   28.6510   48.2860 H   0  0  0  0  0  0  0  0  0  0  0  0
   61.1788   30.3512   48.2208 H   0  0  0  0  0  0  0  0  0  0  0  0
   62.2349   32.5622   48.5470 H   0  0  0  0  0  0  0  0  0  0  0  0
   61.3230   34.5643   47.3967 H   0  0  0  0  0  0  0  0  0  0  0  0
   59.7750   35.5767   45.9145 H   0  0  0  0  0  0  0  0  0  0  0  0
   57.8544   35.4315   44.3495 H   0  0  0  0  0  0  0  0  0  0  0  0
   56.7320   33.2627   43.9550 H   0  0  0  0  0  0  0  0  0  0  0  0
  1  2  1  0
  2  3  2  0
  3  4  1  0
  4  5  2  0
  5  6  1  0
  6  7  2  0
  7  8  1  0
  8  9  2  0
  9 10  1  0
  9 11  1  0
 11 12  2  0
 12 13  1  0
 13 14  2  0
 14 15  1  0
 15 16  2  0
 16 17  1  0
 17 18  2  0
 18 19  1  0
 19 20  2  0
 19  2  1  0
  8  3  1  0
 20 11  1  0
 20 15  1  0
  1 21  1  0
  4 22  1  0
  5 23  1  0
  6 24  1  0
  7 25  1  0
 10 26  1  0
 12 27  1  0
 13 28  1  0
 14 29  1  0
 16 30  1  0
 17 31  1  0
 18 32  1  0
M  CHG  2   2   1   9   1
M  END
>  <UniqueID>  (19) 
18

>  <SMILES>  (19) 
O[N+]1=c2ccccc2=[N+](O)c2cccc3cccc1c23

>  <Energy>  (19) 
102.56512889332265

>  <Genealogy>  (19) 
O[N+]1=c2ccccc2=[N+](O)c2cccc3cccc1c23 (protonated)
O[N+]1=c2ccccc2=[N+](O)c2cccc3cccc1c23 (3D coordinates assigned)
O[N+]1=c2ccccc2=[N+](O)c2cccc3cccc1c23 (nonaromatic ring conformer: 102.56512889332265 kcal/mol)

>  <smiles>  (19) 
[O-][N+]1=c2ccccc2=[N+]([O-])c2cccc3cccc1c23

>  <score_type>  (19) 
oracle

>  <origin>  (19) 
adg

>  <m_score__min__energy>  (19) 
-4.9900000000000002

>  <m_primary>  (19) 
energy

$$$$
19:0
     RDKit          3D

 25 26  0  0  0  0  0  0  0  0999 V2000
   57.7650   32.3390   41.4620 C   0  0  0  0  0  0  0  0  0  0  0  0
   57.8410   32.0460   42.9320 C   0  0  0  0  0  0  0  0  0  0  0  0
   57.8270   33.0890   43.8580 C   0  0  0  0  0  0  0  0  0  0  0  0
   57.9300   32.7950   45.2130 C   0  0  0  0  0  0  0  0  0  0  0  0
   58.0600   31.4680   45.6170 C   0  0  0  0  0  0  0  0  0  0  0  0
   58.1260   31.2000   46.8480 O   0  0  0  0  0  0  0  0  0  0  0  0
   58.1020   30.4710   44.6750 N   0  0  0  0  0  0  0  0  0  0  0  0
   58.2460   29.0930   45.0700 C   0  0  0  0  0  0  0  0  0  0  0  0
   59.5270   28.5490   45.2510 C   0  0  0  0  0  0  0  0  0  0  0  0
   59.6790   27.2150   45.6430 C   0  0  0  0  0  0  0  0  0  0  0  0
   58.5520   26.4190   45.8650 C   0  0  0  0  0  0  0  0  0  0  0  0
   58.7010   25.1260   46.2480 F   0  0  0  0  0  0  0  0  0  0  0  0
   57.2730   26.9560   45.7000 C   0  0  0  0  0  0  0  0  0  0  0  0
   57.1150   28.2890   45.3060 C   0  0  0  0  0  0  0  0  0  0  0  0
   55.8660   28.8040   45.1820 F   0  0  0  0  0  0  0  0  0  0  0  0
   57.9910   30.7640   43.3710 N   0  0  0  0  0  0  0  0  0  0  0  0
   57.4914   33.3938   41.3120 H   0  0  0  0  0  0  0  0  0  0  0  0
   58.7433   32.1445   40.9983 H   0  0  0  0  0  0  0  0  0  0  0  0
   57.0046   31.6935   40.9983 H   0  0  0  0  0  0  0  0  0  0  0  0
   57.7355   34.1319   43.5202 H   0  0  0  0  0  0  0  0  0  0  0  0
   57.9090   33.6028   45.9593 H   0  0  0  0  0  0  0  0  0  0  0  0
   60.4160   29.1749   45.0837 H   0  0  0  0  0  0  0  0  0  0  0  0
   60.6857   26.7924   45.7766 H   0  0  0  0  0  0  0  0  0  0  0  0
   56.3875   26.3289   45.8804 H   0  0  0  0  0  0  0  0  0  0  0  0
   58.0320   29.9920   42.6640 H   0  0  0  0  0  0  0  0  0  0  0  0
  1  2  1  0
  2  3  1  0
  3  4  2  0
  4  5  1  0
  5  6  2  0
  5  7  1  0
  7  8  1  0
  8  9  2  0
  9 10  1  0
 10 11  2  0
 11 12  1  0
 11 13  1  0
 13 14  2  0
 14 15  1  0
  7 16  1  0
 16  2  2  0
 14  8  1  0
  1 17  1  0
  1 18  1  0
  1 19  1  0
  3 20  1  0
  4 21  1  0
  9 22  1  0
 10 23  1  0
 13 24  1  0
 16 25  1  0
M  CHG  1  16   1
M  END
>  <UniqueID>  (20) 
19

>  <SMILES>  (20) 
Cc1ccc(=O)n(-c2ccc(F)cc2F)[nH+]1

>  <Energy>  (20) 
33.580455103387266

>  <Genealogy>  (20) 
Cc1ccc(=O)n(-c2ccc(F)cc2F)[nH+]1 (protonated)
Cc1ccc(=O)n(-c2ccc(F)cc2F)[nH+]1 (3D coordinates assigned)
Cc1ccc(=O)n(-c2ccc(F)cc2F)[nH+]1 (optimized conformer: 33.580455103387266 kcal/mol)

>  <smiles>  (20) 
Cc1ccc(=O)n(-c2ccc(F)cc2F)n1

>  <score_type>  (20) 
oracle

>  <origin>  (20) 
adg

>  <m_score__min__energy>  (20) 
-4.5899999999999999

>  <m_primary>  (20) 
energy

$$$$
20:0
     RDKit          3D

 32 34  0  0  0  0  0  0  0  0999 V2000
   59.4886   29.0711   43.5678 H   0  0  0  0  0  0  0  0  0  0  0  0
   58.5940   28.8140   44.1540 C   0  0  0  0  0  0  0  0  0  0  0  0
   57.7980   27.3310   44.1360 S   0  0  0  0  0  0  0  0  0  0  0  0
   56.6440   27.8250   45.2450 C   0  0  0  0  0  0  0  0  0  0  0  0
   55.6760   27.0640   45.6630 N   0  0  0  0  0  0  0  0  0  0  0  0
   55.8180   25.7620   46.2530 C   0  0  0  0  0  0  0  0  0  0  0  0
   54.9840   24.8490   46.0110 O   0  0  0  0  0  0  0  0  0  0  0  0
   56.8780   25.4980   47.1770 N   0  0  0  0  0  0  0  0  0  0  0  0
   58.1940   26.0710   47.1430 C   0  0  0  0  0  0  0  0  0  0  0  0
   58.4760   27.3000   47.7700 C   0  0  0  0  0  0  0  0  0  0  0  0
   57.6822   27.8311   48.3157 H   0  0  0  0  0  0  0  0  0  0  0  0
   59.7600   27.8480   47.7020 C   0  0  0  0  0  0  0  0  0  0  0  0
   59.9770   28.8015   48.2058 H   0  0  0  0  0  0  0  0  0  0  0  0
   60.7680   27.1880   46.9960 C   0  0  0  0  0  0  0  0  0  0  0  0
   61.7795   27.6178   46.9499 H   0  0  0  0  0  0  0  0  0  0  0  0
   60.4910   25.9810   46.3480 C   0  0  0  0  0  0  0  0  0  0  0  0
   61.2841   25.4650   45.7870 H   0  0  0  0  0  0  0  0  0  0  0  0
   59.2070   25.4270   46.4110 C   0  0  0  0  0  0  0  0  0  0  0  0
   58.8920   23.9090   45.5810 Cl  0  0  0  0  0  0  0  0  0  0  0  0
   56.8360   29.1020   45.6410 N   0  0  0  0  0  0  0  0  0  0  0  0
   57.9240   29.6650   45.0420 C   0  0  0  0  0  0  0  0  0  0  0  0
   58.3220   31.0690   45.3240 C   0  0  0  0  0  0  0  0  0  0  0  0
   57.7920   32.1490   44.5900 C   0  0  0  0  0  0  0  0  0  0  0  0
   57.0634   31.9591   43.7881 H   0  0  0  0  0  0  0  0  0  0  0  0
   58.1860   33.4610   44.8740 C   0  0  0  0  0  0  0  0  0  0  0  0
   57.7652   34.2970   44.2960 H   0  0  0  0  0  0  0  0  0  0  0  0
   59.1120   33.7130   45.8890 C   0  0  0  0  0  0  0  0  0  0  0  0
   59.6460   35.5060   46.2710 Br  0  0  0  0  0  0  0  0  0  0  0  0
   59.6490   32.6510   46.6190 C   0  0  0  0  0  0  0  0  0  0  0  0
   60.3806   32.8483   47.4163 H   0  0  0  0  0  0  0  0  0  0  0  0
   59.2600   31.3380   46.3400 C   0  0  0  0  0  0  0  0  0  0  0  0
   59.6900   30.5073   46.9188 H   0  0  0  0  0  0  0  0  0  0  0  0
  1  2  1  0
  2  3  1  0
  3  4  1  0
  4  5  2  0
  5  6  1  0
  6  7  2  0
  6  8  1  0
  8  9  1  0
  9 10  2  0
 10 11  1  0
 10 12  1  0
 12 13  1  0
 12 14  2  0
 14 15  1  0
 14 16  1  0
 16 17  1  0
 16 18  2  0
 18 19  1  0
  4 20  1  0
 20 21  1  0
 21 22  1  0
 22 23  2  0
 23 24  1  0
 23 25  1  0
 25 26  1  0
 25 27  2  0
 27 28  1  0
 27 29  1  0
 29 30  1  0
 29 31  2  0
 31 32  1  0
 21  2  2  0
 31 22  1  0
 18  9  1  0
M  CHG  2   8  -1  20  -1
M  END
>  <UniqueID>  (21) 
20

>  <SMILES>  (21) 
O=C(/N=c1\[n-]c(-c2ccc(Br)cc2)cs1)[N-]c1ccccc1Cl

>  <Energy>  (21) 
72.69840143188831

>  <Genealogy>  (21) 
O=C(N=c1[n-]c(-c2ccc(Br)cc2)cs1)[N-]c1ccccc1Cl (protonated)
O=C(/N=c1\[n-]c(-c2ccc(Br)cc2)cs1)[N-]c1ccccc1Cl (cis-trans isomerization)
O=C(/N=c1\[n-]c(-c2ccc(Br)cc2)cs1)[N-]c1ccccc1Cl (3D coordinates assigned)
O=C(/N=c1\[n-]c(-c2ccc(Br)cc2)cs1)[N-]c1ccccc1Cl (optimized conformer: 72.69840143188831 kcal/mol)

>  <smiles>  (21) 
O=C(N=c1[nH]c(-c2ccc(Br)cc2)cs1)Nc1ccccc1Cl

>  <score_type>  (21) 
oracle

>  <origin>  (21) 
adg

>  <m_score__min__energy>  (21) 
-10.300000000000001

>  <m_primary>  (21) 
energy

$$$$
21:0
     RDKit          3D

 50 53  0  0  1  0  0  0  0  0999 V2000
   61.7330   32.8600   51.7810 C   0  0  0  0  0  0  0  0  0  0  0  0
   60.3530   33.4530   51.6540 C   0  0  0  0  0  0  0  0  0  0  0  0
   59.8800   33.5520   50.2530 C   0  0  0  0  0  0  0  0  0  0  0  0
   60.2100   34.5300   49.3680 N   0  0  0  0  0  0  0  0  0  0  0  0
   59.6030   34.2830   48.1960 C   0  0  0  0  0  0  0  0  0  0  0  0
   59.6520   35.0100   47.0240 C   0  0  0  0  0  0  0  0  0  0  0  0
   58.9400   34.5650   45.9360 C   0  0  0  0  0  0  0  0  0  0  0  0
   58.1890   33.3900   46.0510 C   0  0  0  0  0  0  0  0  0  0  0  0
   57.4680   32.9730   44.8660 C   0  0  0  0  0  0  0  0  0  0  0  0
   57.7720   33.4820   43.7550 O   0  0  0  0  0  0  0  0  0  0  0  0
   56.4190   32.0120   44.8670 N   0  0  0  0  0  0  0  0  0  0  0  0
   56.6450   30.7750   44.4920 C   0  0  0  0  0  0  0  0  0  0  0  0
   57.3830   30.3700   43.3710 C   0  0  0  0  0  0  0  0  0  0  0  0
   57.3260   28.9840   43.4250 C   0  0  0  0  0  0  0  0  0  0  0  0
   56.6190   28.5790   44.4830 N   0  0  0  0  0  0  0  0  0  0  0  0
   56.2050   29.6730   45.1350 N   0  0  0  0  0  0  0  0  0  0  0  0
   58.1820   32.7100   47.2480 C   0  0  0  0  0  0  0  0  0  0  0  0
   58.8800   33.1510   48.3070 N   0  0  0  0  0  0  0  0  0  0  0  0
   59.0320   32.6870   49.5500 C   0  0  0  0  0  0  0  0  0  0  0  0
   58.4790   31.5390   50.1700 N   0  0  0  0  0  0  0  0  0  0  0  0
   57.4280   31.7200   51.1650 C   0  0  0  0  0  0  0  0  0  0  0  0
   58.9040   30.1810   49.9170 C   0  0  0  0  0  0  0  0  0  0  0  0
   59.4960   30.0490   48.5560 C   0  0  0  0  0  0  0  0  0  0  0  0
   60.7280   30.5430   48.2000 C   0  0  0  0  0  0  0  0  0  0  0  0
   61.1460   30.3240   46.9040 C   0  0  0  0  0  0  0  0  0  0  0  0
   60.3570   29.6320   45.9790 C   0  0  0  0  0  0  0  0  0  0  0  0
   59.1280   29.1440   46.3370 C   0  0  0  0  0  0  0  0  0  0  0  0
   58.6990   29.3560   47.6330 C   0  0  0  0  0  0  0  0  0  0  0  0
   61.9884   32.7503   52.8453 H   0  0  0  0  0  0  0  0  0  0  0  0
   61.7542   31.8733   51.2952 H   0  0  0  0  0  0  0  0  0  0  0  0
   62.4634   33.5237   51.2952 H   0  0  0  0  0  0  0  0  0  0  0  0
   59.6492   32.8210   52.2155 H   0  0  0  0  0  0  0  0  0  0  0  0
   60.4024   34.4771   52.0525 H   0  0  0  0  0  0  0  0  0  0  0  0
   60.2511   35.9305   46.9617 H   0  0  0  0  0  0  0  0  0  0  0  0
   58.9602   35.1242   44.9889 H   0  0  0  0  0  0  0  0  0  0  0  0
   57.8879   31.0013   42.6249 H   0  0  0  0  0  0  0  0  0  0  0  0
   57.7991   28.3106   42.6951 H   0  0  0  0  0  0  0  0  0  0  0  0
   56.4190   27.6040   44.7600 H   0  0  0  0  0  0  0  0  0  0  0  0
   55.6140   29.6860   46.0210 H   0  0  0  0  0  0  0  0  0  0  0  0
   57.5922   31.7859   47.3388 H   0  0  0  0  0  0  0  0  0  0  0  0
   57.8610   31.6454   52.1734 H   0  0  0  0  0  0  0  0  0  0  0  0
   56.9676   32.7107   51.0360 H   0  0  0  0  0  0  0  0  0  0  0  0
   56.6627   30.9404   51.0360 H   0  0  0  0  0  0  0  0  0  0  0  0
   59.6573   29.8949   50.6658 H   0  0  0  0  0  0  0  0  0  0  0  0
   58.0254   29.5222   49.9813 H   0  0  0  0  0  0  0  0  0  0  0  0
   61.3550   31.0906   48.9191 H   0  0  0  0  0  0  0  0  0  0  0  0
   62.1286   30.7046   46.5885 H   0  0  0  0  0  0  0  0  0  0  0  0
   60.7269   29.4783   44.9545 H   0  0  0  0  0  0  0  0  0  0  0  0
   58.5018   28.5999   45.6146 H   0  0  0  0  0  0  0  0  0  0  0  0
   57.7158   28.9749   47.9463 H   0  0  0  0  0  0  0  0  0  0  0  0
  1  2  1  0
  2  3  1  0
  3  4  1  0
  4  5  2  0
  5  6  1  0
  6  7  2  0
  7  8  1  0
  8  9  1  0
  9 10  2  0
  9 11  1  0
 11 12  2  0
 12 13  1  0
 13 14  2  0
 14 15  1  0
 15 16  1  0
  8 17  2  0
 17 18  1  0
 18 19  1  0
 19 20  1  0
 20 21  1  0
 20 22  1  0
 22 23  1  0
 23 24  2  0
 24 25  1  0
 25 26  2  0
 26 27  1  0
 27 28  2  0
 19  3  2  0
 28 23  1  0
 18  5  1  0
 16 12  1  0
  1 29  1  0
  1 30  1  0
  1 31  1  0
  2 32  1  0
  2 33  1  0
  6 34  1  0
  7 35  1  0
 13 36  1  0
 14 37  1  0
 15 38  1  0
 16 39  1  0
 17 40  1  0
 21 41  1  0
 21 42  1  0
 21 43  1  0
 22 44  1  0
 22 45  1  0
 24 46  1  0
 25 47  1  0
 26 48  1  0
 27 49  1  0
 28 50  1  0
M  END
>  <smiles>  (22) 
CCc1nc2ccc(C(=O)N=c3cc[nH][nH]3)cn2c1N(C)Cc1ccccc1

>  <score_type>  (22) 
oracle

>  <origin>  (22) 
adg

>  <m_score__min__energy>  (22) 
-9.0199999999999996

>  <m_primary>  (22) 
energy

$$$$
22:0
     RDKit          3D

 60 64  0  0  0  0  0  0  0  0999 V2000
   64.5620   32.4320   49.1860 C   0  0  0  0  0  0  0  0  0  0  0  0
   63.1970   32.6750   48.5360 C   0  0  2  0  0  0  0  0  0  0  0  0
   63.3530   33.0950   47.0580 C   0  0  0  0  0  0  0  0  0  0  0  0
   62.0540   33.4140   46.4520 N   0  0  0  0  0  0  0  0  0  0  0  0
   61.0940   33.9300   47.1610 C   0  0  0  0  0  0  0  0  0  0  0  0
   59.7620   34.3250   46.6390 C   0  0  1  0  0  0  0  0  0  0  0  0
   59.0100   33.1290   46.0930 C   0  0  0  0  0  0  0  0  0  0  0  0
   58.8310   31.9880   46.8930 C   0  0  0  0  0  0  0  0  0  0  0  0
   58.1430   30.8770   46.3980 C   0  0  0  0  0  0  0  0  0  0  0  0
   57.6200   30.8920   45.0990 C   0  0  0  0  0  0  0  0  0  0  0  0
   56.7850   29.4790   44.4630 S   0  0  0  0  0  0  0  0  0  0  0  0
   55.3990   29.3880   45.0360 O   0  0  0  0  0  0  0  0  0  0  0  0
   56.6800   29.5950   42.9680 O   0  0  0  0  0  0  0  0  0  0  0  0
   57.6920   28.0400   44.8870 C   0  0  0  0  0  0  0  0  0  0  0  0
   59.0720   27.9470   44.9880 C   0  0  0  0  0  0  0  0  0  0  0  0
   59.5070   26.6720   45.3650 C   0  0  0  0  0  0  0  0  0  0  0  0
   58.4670   25.7630   45.5430 C   0  0  0  0  0  0  0  0  0  0  0  0
   58.6110   24.3340   46.0030 C   0  0  0  0  0  0  0  0  0  0  0  0
   58.3430   23.3180   44.9620 N   0  0  0  0  0  0  0  0  0  0  0  0
   58.0670   21.9710   45.4620 C   0  0  0  0  0  0  0  0  0  0  0  0
   57.3470   21.2400   44.3370 C   0  0  0  0  0  0  0  0  0  0  0  0
   56.8490   22.3270   43.3930 C   0  0  0  0  0  0  0  0  0  0  0  0
   57.2560   23.6430   44.0370 C   0  0  0  0  0  0  0  0  0  0  0  0
   57.0050   26.5550   45.2660 S   0  0  0  0  0  0  0  0  0  0  0  0
   57.8030   32.0210   44.2920 C   0  0  0  0  0  0  0  0  0  0  0  0
   58.4900   33.1340   44.7840 C   0  0  0  0  0  0  0  0  0  0  0  0
   59.0720   34.9380   47.8840 C   0  0  0  0  0  0  0  0  0  0  0  0
   59.9920   34.6810   49.0980 C   0  0  0  0  0  0  0  0  0  0  0  0
   61.2030   34.0970   48.5560 N   0  0  0  0  0  0  0  0  0  0  0  0
   62.4020   33.7450   49.3090 C   0  0  0  0  0  0  0  0  0  0  0  0
   64.4554   32.4510   50.2807 H   0  0  0  0  0  0  0  0  0  0  0  0
   64.9481   31.4510   48.8721 H   0  0  0  0  0  0  0  0  0  0  0  0
   65.2630   33.2195   48.8721 H   0  0  0  0  0  0  0  0  0  0  0  0
   62.6383   31.7281   48.5722 H   0  0  0  0  0  0  0  0  0  0  0  0
   64.0006   33.9826   47.0045 H   0  0  0  0  0  0  0  0  0  0  0  0
   63.7965   32.2545   46.5041 H   0  0  0  0  0  0  0  0  0  0  0  0
   61.9270   33.2780   45.4230 H   0  0  0  0  0  0  0  0  0  0  0  0
   59.8091   35.0274   45.7938 H   0  0  0  0  0  0  0  0  0  0  0  0
   59.2352   31.9691   47.9159 H   0  0  0  0  0  0  0  0  0  0  0  0
   58.0117   29.9871   47.0312 H   0  0  0  0  0  0  0  0  0  0  0  0
   59.7534   28.7880   44.7921 H   0  0  0  0  0  0  0  0  0  0  0  0
   60.5666   26.4128   45.5069 H   0  0  0  0  0  0  0  0  0  0  0  0
   59.6409   24.1923   46.3626 H   0  0  0  0  0  0  0  0  0  0  0  0
   57.8535   24.1826   46.7861 H   0  0  0  0  0  0  0  0  0  0  0  0
   59.0069   21.4566   45.7109 H   0  0  0  0  0  0  0  0  0  0  0  0
   57.4565   22.0000   46.3766 H   0  0  0  0  0  0  0  0  0  0  0  0
   58.0395   20.5647   43.8133 H   0  0  0  0  0  0  0  0  0  0  0  0
   56.5203   20.6221   44.7175 H   0  0  0  0  0  0  0  0  0  0  0  0
   57.3186   22.2217   42.4039 H   0  0  0  0  0  0  0  0  0  0  0  0
   55.7614   22.2671   43.2397 H   0  0  0  0  0  0  0  0  0  0  0  0
   57.6042   24.3520   43.2714 H   0  0  0  0  0  0  0  0  0  0  0  0
   56.4105   24.1162   44.5578 H   0  0  0  0  0  0  0  0  0  0  0  0
   57.4046   32.0321   43.2668 H   0  0  0  0  0  0  0  0  0  0  0  0
   58.6255   34.0192   44.1452 H   0  0  0  0  0  0  0  0  0  0  0  0
   58.9318   36.0197   47.7413 H   0  0  0  0  0  0  0  0  0  0  0  0
   58.0837   34.4820   48.0433 H   0  0  0  0  0  0  0  0  0  0  0  0
   60.2193   35.6257   49.6137 H   0  0  0  0  0  0  0  0  0  0  0  0
   59.5159   34.0174   49.8348 H   0  0  0  0  0  0  0  0  0  0  0  0
   63.0268   34.6403   49.4435 H   0  0  0  0  0  0  0  0  0  0  0  0
   62.1138   33.3483   50.2937 H   0  0  0  0  0  0  0  0  0  0  0  0
  1  2  1  0
  2  3  1  0
  3  4  1  0
  4  5  2  0
  5  6  1  0
  6  7  1  0
  7  8  2  0
  8  9  1  0
  9 10  2  0
 10 11  1  0
 11 12  2  0
 11 13  2  0
 11 14  1  0
 14 15  2  0
 15 16  1  0
 16 17  2  0
 17 18  1  0
 18 19  1  0
 19 20  1  0
 20 21  1  0
 21 22  1  0
 22 23  1  0
 17 24  1  0
 10 25  1  0
 25 26  2  0
  6 27  1  0
 27 28  1  0
 28 29  1  0
 29 30  1  0
 30  2  1  0
 29  5  1  0
 26  7  1  0
 24 14  1  0
 23 19  1  0
  1 31  1  0
  1 32  1  0
  1 33  1  0
  2 34  1  6
  3 35  1  0
  3 36  1  0
  4 37  1  0
  6 38  1  6
  8 39  1  0
  9 40  1  0
 15 41  1  0
 16 42  1  0
 18 43  1  0
 18 44  1  0
 20 45  1  0
 20 46  1  0
 21 47  1  0
 21 48  1  0
 22 49  1  0
 22 50  1  0
 23 51  1  0
 23 52  1  0
 25 53  1  0
 26 54  1  0
 27 55  1  0
 27 56  1  0
 28 57  1  0
 28 58  1  0
 30 59  1  0
 30 60  1  0
M  CHG  1   4   1
M  END
>  <UniqueID>  (23) 
21

>  <SMILES>  (23) 
C[C@@H]1C[NH+]=C2[C@@H](c3ccc(S(=O)(=O)c4ccc(CN5CCCC5)s4)cc3)CCN2C1

>  <Energy>  (23) 
100.88825740274946

>  <Genealogy>  (23) 
CC1C[NH+]=C2C(c3ccc(S(=O)(=O)c4ccc(CN5CCCC5)s4)cc3)CCN2C1 (protonated)
C[C@@H]1C[NH+]=C2[C@@H](c3ccc(S(=O)(=O)c4ccc(CN5CCCC5)s4)cc3)CCN2C1 (chirality)
C[C@@H]1C[NH+]=C2[C@@H](c3ccc(S(=O)(=O)c4ccc(CN5CCCC5)s4)cc3)CCN2C1 (3D coordinates assigned)
C[C@@H]1C[NH+]=C2[C@@H](c3ccc(S(=O)(=O)c4ccc(CN5CCCC5)s4)cc3)CCN2C1 (nonaromatic ring conformer: 100.88825740274946 kcal/mol)

>  <smiles>  (23) 
CC1CN=C2C(c3ccc(S(=O)(=O)c4ccc(CN5CCCC5)s4)cc3)CCN2C1

>  <score_type>  (23) 
oracle

>  <origin>  (23) 
adg

>  <m_score__min__energy>  (23) 
-9.2599999999999998

>  <m_primary>  (23) 
energy

$$$$
23:0
     RDKit          3D

 57 60  0  0  0  0  0  0  0  0999 V2000
   57.2570   34.3711   44.7239 H   0  0  0  0  0  0  0  0  0  0  0  0
   58.1210   33.7290   44.9500 C   0  0  0  0  0  0  0  0  0  0  0  0
   59.3100   34.3170   45.1560 C   0  0  0  0  0  0  0  0  0  0  0  0
   59.7425   34.9167   44.3415 H   0  0  0  0  0  0  0  0  0  0  0  0
   60.0720   34.2010   46.4240 C   0  0  0  0  0  0  0  0  0  0  0  0
   59.4040   34.4460   47.6340 C   0  0  0  0  0  0  0  0  0  0  0  0
   58.3400   34.7248   47.6227 H   0  0  0  0  0  0  0  0  0  0  0  0
   60.0780   34.3390   48.8510 C   0  0  0  0  0  0  0  0  0  0  0  0
   59.5462   34.5429   49.7921 H   0  0  0  0  0  0  0  0  0  0  0  0
   61.4250   33.9740   48.8780 C   0  0  0  0  0  0  0  0  0  0  0  0
   61.9513   33.8982   49.8410 H   0  0  0  0  0  0  0  0  0  0  0  0
   62.1100   33.7040   47.6890 C   0  0  0  0  0  0  0  0  0  0  0  0
   63.4590   33.3280   47.7720 O   0  0  0  0  0  0  0  0  0  0  0  0
   64.0090   32.5200   48.8080 C   0  0  0  0  0  0  0  0  0  0  0  0
   63.7261   32.9356   49.7864 H   0  0  0  0  0  0  0  0  0  0  0  0
   63.6204   31.4948   48.7189 H   0  0  0  0  0  0  0  0  0  0  0  0
   65.1053   32.5056   48.7189 H   0  0  0  0  0  0  0  0  0  0  0  0
   61.4290   33.8120   46.4600 C   0  0  0  0  0  0  0  0  0  0  0  0
   61.9586   33.5916   45.5214 H   0  0  0  0  0  0  0  0  0  0  0  0
   57.9060   32.2620   45.0100 C   0  0  0  0  0  0  0  0  0  0  0  0
   57.2860   31.6300   43.9210 C   0  0  0  0  0  0  0  0  0  0  0  0
   56.9761   32.2264   43.0502 H   0  0  0  0  0  0  0  0  0  0  0  0
   57.0580   30.2510   43.9310 C   0  0  0  0  0  0  0  0  0  0  0  0
   56.5754   29.7717   43.0665 H   0  0  0  0  0  0  0  0  0  0  0  0
   57.4400   29.4720   45.0360 C   0  0  0  0  0  0  0  0  0  0  0  0
   57.1980   28.0090   45.0570 C   0  0  0  0  0  0  0  0  0  0  0  0
   58.0470   27.2340   44.5360 O   0  0  0  0  0  0  0  0  0  0  0  0
   55.9890   27.4690   45.6170 N   0  0  0  0  0  0  0  0  0  0  0  0
   55.1430   28.0810   45.6620 H   0  0  0  0  0  0  0  0  0  0  0  0
   55.8410   26.1040   46.0330 C   0  0  0  0  0  0  0  0  0  0  0  0
   56.7430   25.4150   46.8160 C   0  0  0  0  0  0  0  0  0  0  0  0
   57.6696   25.8080   47.2599 H   0  0  0  0  0  0  0  0  0  0  0  0
   56.2450   24.1270   46.9300 C   0  0  0  0  0  0  0  0  0  0  0  0
   56.9080   23.0500   47.6990 C   0  0  0  0  0  0  0  0  0  0  0  0
   57.0780   23.1970   48.9390 O   0  0  0  0  0  0  0  0  0  0  0  0
   57.3980   21.8770   47.0400 N   0  0  0  0  0  0  0  0  0  0  0  0
   57.1560   21.4930   45.6790 C   0  0  0  0  0  0  0  0  0  0  0  0
   56.1980   20.5240   45.3270 C   0  0  0  0  0  0  0  0  0  0  0  0
   55.6184   20.0144   46.1108 H   0  0  0  0  0  0  0  0  0  0  0  0
   55.9880   20.2170   44.0190 N   0  0  0  0  0  0  0  0  0  0  0  0
   56.6780   20.8280   43.0190 C   0  0  0  0  0  0  0  0  0  0  0  0
   56.4937   20.5467   41.9717 H   0  0  0  0  0  0  0  0  0  0  0  0
   57.6200   21.8120   43.3220 C   0  0  0  0  0  0  0  0  0  0  0  0
   58.1742   22.3171   42.5172 H   0  0  0  0  0  0  0  0  0  0  0  0
   57.8520   22.1490   44.6570 C   0  0  0  0  0  0  0  0  0  0  0  0
   58.5835   22.9319   44.9062 H   0  0  0  0  0  0  0  0  0  0  0  0
   55.0850   24.0190   46.2320 N   0  0  0  0  0  0  0  0  0  0  0  0
   54.2380   22.8390   46.0700 C   0  0  0  0  0  0  0  0  0  0  0  0
   53.9585   22.4496   47.0601 H   0  0  0  0  0  0  0  0  0  0  0  0
   53.3294   23.1134   45.5140 H   0  0  0  0  0  0  0  0  0  0  0  0
   54.7887   22.0659   45.5140 H   0  0  0  0  0  0  0  0  0  0  0  0
   54.8390   25.2230   45.6760 C   0  0  0  0  0  0  0  0  0  0  0  0
   53.9760   25.4652   45.0384 H   0  0  0  0  0  0  0  0  0  0  0  0
   58.0340   30.1070   46.1390 C   0  0  0  0  0  0  0  0  0  0  0  0
   58.3204   29.5134   47.0197 H   0  0  0  0  0  0  0  0  0  0  0  0
   58.2650   31.4860   46.1290 C   0  0  0  0  0  0  0  0  0  0  0  0
   58.7304   31.9681   47.0013 H   0  0  0  0  0  0  0  0  0  0  0  0
  1  2  1  0
  2  3  2  0
  3  4  1  0
  3  5  1  0
  5  6  2  0
  6  7  1  0
  6  8  1  0
  8  9  1  0
  8 10  2  0
 10 11  1  0
 10 12  1  0
 12 13  1  0
 13 14  1  0
 14 15  1  0
 14 16  1  0
 14 17  1  0
 12 18  2  0
 18 19  1  0
  2 20  1  0
 20 21  2  0
 21 22  1  0
 21 23  1  0
 23 24  1  0
 23 25  2  0
 25 26  1  0
 26 27  2  0
 26 28  1  0
 28 29  1  0
 28 30  1  0
 30 31  1  0
 31 32  1  0
 31 33  2  0
 33 34  1  0
 34 35  2  0
 34 36  1  0
 36 37  1  0
 37 38  2  0
 38 39  1  0
 38 40  1  0
 40 41  2  0
 41 42  1  0
 41 43  1  0
 43 44  1  0
 43 45  2  0
 45 46  1  0
 33 47  1  0
 47 48  1  0
 48 49  1  0
 48 50  1  0
 48 51  1  0
 47 52  1  0
 52 53  1  0
 25 54  1  0
 54 55  1  0
 54 56  2  0
 56 57  1  0
 18  5  1  0
 56 20  1  0
 52 30  2  0
 45 37  1  0
M  CHG  1  36  -1
M  END
>  <UniqueID>  (24) 
22

>  <SMILES>  (24) 
COc1cccc(/C=C/c2ccc(C(=O)Nc3cc(C(=O)[N-]c4cccnc4)n(C)c3)cc2)c1

>  <Energy>  (24) 
101.53542650191903

>  <Genealogy>  (24) 
COc1cccc(C=Cc2ccc(C(=O)Nc3cc(C(=O)[N-]c4cccnc4)n(C)c3)cc2)c1 (protonated)
COc1cccc(/C=C/c2ccc(C(=O)Nc3cc(C(=O)[N-]c4cccnc4)n(C)c3)cc2)c1 (cis-trans isomerization)
COc1cccc(/C=C/c2ccc(C(=O)Nc3cc(C(=O)[N-]c4cccnc4)n(C)c3)cc2)c1 (3D coordinates assigned)
COc1cccc(/C=C/c2ccc(C(=O)Nc3cc(C(=O)[N-]c4cccnc4)n(C)c3)cc2)c1 (optimized conformer: 101.53542650191903 kcal/mol)

>  <smiles>  (24) 
COc1cccc(C=Cc2ccc(C(=O)Nc3cc(C(=O)Nc4cccnc4)n(C)c3)cc2)c1

>  <score_type>  (24) 
oracle

>  <origin>  (24) 
adg

>  <m_score__min__energy>  (24) 
-11.06

>  <m_primary>  (24) 
energy

$$$$
24:0
     RDKit          3D

 42 44  0  0  0  0  0  0  0  0999 V2000
   57.0090   24.7450   43.3450 C   0  0  0  0  0  0  0  0  0  0  0  0
   57.4890   25.1240   44.7090 C   0  0  0  0  0  0  0  0  0  0  0  0
   58.2580   24.3470   45.3370 O   0  0  0  0  0  0  0  0  0  0  0  0
   57.1030   26.3820   45.2780 N   0  0  0  0  0  0  0  0  0  0  0  0
   57.5140   26.7980   46.6170 C   0  0  0  0  0  0  0  0  0  0  0  0
   58.6560   27.7740   46.5320 C   0  0  0  0  0  0  0  0  0  0  0  0
   59.5780   27.6830   45.4780 C   0  0  0  0  0  0  0  0  0  0  0  0
   60.6260   28.6020   45.3780 C   0  0  0  0  0  0  0  0  0  0  0  0
   60.7610   29.6180   46.3270 C   0  0  0  0  0  0  0  0  0  0  0  0
   59.8500   29.7190   47.3900 C   0  0  0  0  0  0  0  0  0  0  0  0
   59.9820   30.8210   48.4080 C   0  0  0  0  0  0  0  0  0  0  0  0
   59.0120   31.8420   48.1780 O   0  0  0  0  0  0  0  0  0  0  0  0
   58.9720   32.6820   47.0520 C   0  0  0  0  0  0  0  0  0  0  0  0
   59.5690   33.9650   47.0310 C   0  0  0  0  0  0  0  0  0  0  0  0
   59.4970   34.7710   45.8790 C   0  0  0  0  0  0  0  0  0  0  0  0
   58.8330   34.3140   44.7320 C   0  0  0  0  0  0  0  0  0  0  0  0
   58.2550   33.0490   44.7690 C   0  0  0  0  0  0  0  0  0  0  0  0
   57.4070   32.2650   43.5500 S   0  0  0  0  0  0  0  0  0  0  0  0
   57.1040   30.8690   44.4590 C   0  0  0  0  0  0  0  0  0  0  0  0
   56.3600   29.6970   43.9780 C   0  0  0  0  0  0  0  0  0  0  0  0
   55.5190   28.9690   44.8700 N   0  0  0  0  0  0  0  0  0  0  0  0
   56.4610   29.3310   42.7770 O   0  0  0  0  0  0  0  0  0  0  0  0
   57.6680   31.0090   45.7270 C   0  0  0  0  0  0  0  0  0  0  0  0
   58.3160   32.2410   45.8940 C   0  0  0  0  0  0  0  0  0  0  0  0
   58.7910   28.8010   47.4800 C   0  0  0  0  0  0  0  0  0  0  0  0
   56.1486   24.0656   43.4347 H   0  0  0  0  0  0  0  0  0  0  0  0
   56.7060   25.6502   42.7983 H   0  0  0  0  0  0  0  0  0  0  0  0
   57.8192   24.2404   42.7983 H   0  0  0  0  0  0  0  0  0  0  0  0
   56.5090   27.0320   44.7150 H   0  0  0  0  0  0  0  0  0  0  0  0
   56.6641   27.2770   47.1252 H   0  0  0  0  0  0  0  0  0  0  0  0
   57.8405   25.9129   47.1827 H   0  0  0  0  0  0  0  0  0  0  0  0
   59.4754   26.8852   44.7277 H   0  0  0  0  0  0  0  0  0  0  0  0
   61.3462   28.5251   44.5501 H   0  0  0  0  0  0  0  0  0  0  0  0
   61.5847   30.3420   46.2409 H   0  0  0  0  0  0  0  0  0  0  0  0
   59.8332   30.4022   49.4142 H   0  0  0  0  0  0  0  0  0  0  0  0
   60.9858   31.2624   48.3217 H   0  0  0  0  0  0  0  0  0  0  0  0
   60.0943   34.3360   47.9234 H   0  0  0  0  0  0  0  0  0  0  0  0
   59.9651   35.7664   45.8789 H   0  0  0  0  0  0  0  0  0  0  0  0
   58.7707   34.9380   43.8282 H   0  0  0  0  0  0  0  0  0  0  0  0
   54.5910   29.3500   45.1620 H   0  0  0  0  0  0  0  0  0  0  0  0
   57.6107   30.2380   46.5095 H   0  0  0  0  0  0  0  0  0  0  0  0
   58.0619   28.8871   48.2992 H   0  0  0  0  0  0  0  0  0  0  0  0
  1  2  1  0
  2  3  2  0
  2  4  1  0
  4  5  1  0
  5  6  1  0
  6  7  2  0
  7  8  1  0
  8  9  2  0
  9 10  1  0
 10 11  1  0
 11 12  1  0
 12 13  1  0
 13 14  2  0
 14 15  1  0
 15 16  2  0
 16 17  1  0
 17 18  1  0
 18 19  1  0
 19 20  1  0
 20 21  1  0
 20 22  2  0
 19 23  2  0
 23 24  1  0
 10 25  2  0
 25  6  1  0
 24 13  1  0
 24 17  2  0
  1 26  1  0
  1 27  1  0
  1 28  1  0
  4 29  1  0
  5 30  1  0
  5 31  1  0
  7 32  1  0
  8 33  1  0
  9 34  1  0
 11 35  1  0
 11 36  1  0
 14 37  1  0
 15 38  1  0
 16 39  1  0
 21 40  1  0
 23 41  1  0
 25 42  1  0
M  CHG  1  21  -1
M  END
>  <UniqueID>  (25) 
23

>  <SMILES>  (25) 
CC(=O)NCc1cccc(COc2cccc3sc(C([NH-])=O)cc23)c1

>  <Energy>  (25) 
68.51881678392941

>  <Genealogy>  (25) 
CC(=O)NCc1cccc(COc2cccc3sc(C([NH-])=O)cc23)c1 (protonated)
CC(=O)NCc1cccc(COc2cccc3sc(C([NH-])=O)cc23)c1 (3D coordinates assigned)
CC(=O)NCc1cccc(COc2cccc3sc(C([NH-])=O)cc23)c1 (optimized conformer: 68.51881678392941 kcal/mol)

>  <smiles>  (25) 
CC(=O)NCc1cccc(COc2cccc3sc(C(N)=O)cc23)c1

>  <score_type>  (25) 
oracle

>  <origin>  (25) 
adg

>  <m_score__min__energy>  (25) 
-11.91

>  <m_primary>  (25) 
energy

$$$$
25:0
     RDKit          3D

 28 30  0  0  0  0  0  0  0  0999 V2000
   59.2650   33.5150   45.5740 N   0  0  0  0  0  0  0  0  0  0  0  0
   58.6230   32.7110   45.0440 C   0  0  0  0  0  0  0  0  0  0  0  0
   57.8240   31.7100   44.3860 C   0  0  0  0  0  0  0  0  0  0  0  0
   57.7160   31.7070   42.9900 C   0  0  0  0  0  0  0  0  0  0  0  0
   56.9590   30.7220   42.3500 C   0  0  0  0  0  0  0  0  0  0  0  0
   56.3010   29.7450   43.1010 C   0  0  0  0  0  0  0  0  0  0  0  0
   56.3800   29.7530   44.5010 C   0  0  0  0  0  0  0  0  0  0  0  0
   55.7070   28.7210   45.2350 N   0  0  0  0  0  0  0  0  0  0  0  0
   56.2690   27.4620   45.6250 C   0  0  0  0  0  0  0  0  0  0  0  0
   55.5080   26.5750   46.0930 O   0  0  0  0  0  0  0  0  0  0  0  0
   57.6880   27.2580   45.5890 N   0  0  0  0  0  0  0  0  0  0  0  0
   58.6970   28.1940   45.9930 C   0  0  0  0  0  0  0  0  0  0  0  0
   59.7860   28.4180   45.1280 C   0  0  0  0  0  0  0  0  0  0  0  0
   60.8140   29.3040   45.4780 C   0  0  0  0  0  0  0  0  0  0  0  0
   60.7600   29.9580   46.7070 C   0  0  0  0  0  0  0  0  0  0  0  0
   61.7170   30.8250   47.1230 N   0  0  0  0  0  0  0  0  0  0  0  0
   61.1130   31.2330   48.6080 S   0  0  0  0  0  0  0  0  0  0  0  0
   59.7030   30.3830   48.7820 N   0  0  0  0  0  0  0  0  0  0  0  0
   59.6780   29.7210   47.5980 C   0  0  0  0  0  0  0  0  0  0  0  0
   58.6540   28.8390   47.2470 C   0  0  0  0  0  0  0  0  0  0  0  0
   57.1660   30.7300   45.1400 C   0  0  0  0  0  0  0  0  0  0  0  0
   58.2270   32.4799   42.3971 H   0  0  0  0  0  0  0  0  0  0  0  0
   56.8811   30.7160   41.2528 H   0  0  0  0  0  0  0  0  0  0  0  0
   55.7173   28.9646   42.5909 H   0  0  0  0  0  0  0  0  0  0  0  0
   59.8302   27.8900   44.1640 H   0  0  0  0  0  0  0  0  0  0  0  0
   61.6540   29.4810   44.7902 H   0  0  0  0  0  0  0  0  0  0  0  0
   57.8222   28.6490   47.9412 H   0  0  0  0  0  0  0  0  0  0  0  0
   57.2640   30.7240   46.2356 H   0  0  0  0  0  0  0  0  0  0  0  0
  1  2  3  0
  2  3  1  0
  3  4  2  0
  4  5  1  0
  5  6  2  0
  6  7  1  0
  7  8  1  0
  8  9  1  0
  9 10  2  0
  9 11  1  0
 11 12  1  0
 12 13  1  0
 13 14  2  0
 14 15  1  0
 15 16  2  0
 16 17  1  0
 17 18  1  0
 18 19  2  0
 19 20  1  0
  7 21  2  0
 21  3  1  0
 20 12  2  0
 19 15  1  0
  4 22  1  0
  5 23  1  0
  6 24  1  0
 13 25  1  0
 14 26  1  0
 20 27  1  0
 21 28  1  0
M  CHG  2   8  -1  11  -1
M  END
>  <UniqueID>  (26) 
24

>  <SMILES>  (26) 
N#Cc1cccc([N-]C(=O)[N-]c2ccc3nsnc3c2)c1

>  <Energy>  (26) 
74.38801347845055

>  <Genealogy>  (26) 
N#Cc1cccc([N-]C(=O)[N-]c2ccc3nsnc3c2)c1 (protonated)
N#Cc1cccc([N-]C(=O)[N-]c2ccc3nsnc3c2)c1 (3D coordinates assigned)
N#Cc1cccc([N-]C(=O)[N-]c2ccc3nsnc3c2)c1 (optimized conformer: 74.38801347845055 kcal/mol)

>  <smiles>  (26) 
N#Cc1cccc(NC(=O)Nc2ccc3nsnc3c2)c1

>  <score_type>  (26) 
oracle

>  <origin>  (26) 
adg

>  <m_score__min__energy>  (26) 
-11.07

>  <m_primary>  (26) 
energy

$$$$
26:0
     RDKit          3D

 44 47  0  0  0  0  0  0  0  0999 V2000
   63.3580   34.2520   50.5930 C   0  0  0  0  0  0  0  0  0  0  0  0
   62.5490   34.8900   49.6100 O   0  0  0  0  0  0  0  0  0  0  0  0
   61.6830   34.2150   48.7370 C   0  0  0  0  0  0  0  0  0  0  0  0
   62.1400   33.5420   47.5910 C   0  0  0  0  0  0  0  0  0  0  0  0
   61.2370   32.8840   46.7510 C   0  0  0  0  0  0  0  0  0  0  0  0
   59.8600   32.8800   47.0390 C   0  0  0  0  0  0  0  0  0  0  0  0
   58.9170   32.1730   46.1310 C   0  0  0  0  0  0  0  0  0  0  0  0
   57.9840   32.8120   45.3080 C   0  0  0  0  0  0  0  0  0  0  0  0
   57.1320   31.6280   44.4700 S   0  0  0  0  0  0  0  0  0  0  0  0
   57.9720   30.3540   45.1790 C   0  0  0  0  0  0  0  0  0  0  0  0
   57.7580   28.9520   44.9160 N   0  0  0  0  0  0  0  0  0  0  0  0
   57.4970   28.4720   43.5510 C   0  0  0  0  0  0  0  0  0  0  0  0
   58.1360   27.1000   43.3300 C   0  0  0  0  0  0  0  0  0  0  0  0
   57.8060   26.1920   44.4380 N   0  0  0  0  0  0  0  0  0  0  0  0
   57.5730   24.7870   44.1900 C   0  0  0  0  0  0  0  0  0  0  0  0
   58.2750   23.8380   44.8720 N   0  0  0  0  0  0  0  0  0  0  0  0
   58.0680   22.5140   44.6560 C   0  0  0  0  0  0  0  0  0  0  0  0
   57.1200   22.1020   43.7210 C   0  0  0  0  0  0  0  0  0  0  0  0
   56.4060   23.0780   43.0290 C   0  0  0  0  0  0  0  0  0  0  0  0
   56.6430   24.3930   43.2750 N   0  0  0  0  0  0  0  0  0  0  0  0
   58.0760   26.6740   45.8010 C   0  0  0  0  0  0  0  0  0  0  0  0
   57.4310   28.0420   46.0220 C   0  0  0  0  0  0  0  0  0  0  0  0
   58.8980   30.8120   46.0520 N   0  0  0  0  0  0  0  0  0  0  0  0
   59.4090   33.5610   48.1860 C   0  0  0  0  0  0  0  0  0  0  0  0
   60.3140   34.2190   49.0230 C   0  0  0  0  0  0  0  0  0  0  0  0
   63.0042   34.5310   51.5965 H   0  0  0  0  0  0  0  0  0  0  0  0
   63.2912   33.1608   50.4709 H   0  0  0  0  0  0  0  0  0  0  0  0
   64.4035   34.5713   50.4709 H   0  0  0  0  0  0  0  0  0  0  0  0
   63.2141   33.5330   47.3538 H   0  0  0  0  0  0  0  0  0  0  0  0
   61.6071   32.3638   45.8552 H   0  0  0  0  0  0  0  0  0  0  0  0
   57.8337   33.8984   45.2235 H   0  0  0  0  0  0  0  0  0  0  0  0
   56.4106   28.3936   43.3972 H   0  0  0  0  0  0  0  0  0  0  0  0
   57.9328   29.1849   42.8356 H   0  0  0  0  0  0  0  0  0  0  0  0
   57.7599   26.6733   42.3885 H   0  0  0  0  0  0  0  0  0  0  0  0
   59.2284   27.2205   43.2831 H   0  0  0  0  0  0  0  0  0  0  0  0
   58.6477   21.7671   45.2182 H   0  0  0  0  0  0  0  0  0  0  0  0
   56.9400   21.0330   43.5341 H   0  0  0  0  0  0  0  0  0  0  0  0
   55.6514   22.7843   42.2845 H   0  0  0  0  0  0  0  0  0  0  0  0
   57.6635   25.9577   46.5267 H   0  0  0  0  0  0  0  0  0  0  0  0
   59.1636   26.7671   45.9368 H   0  0  0  0  0  0  0  0  0  0  0  0
   56.3392   27.9218   46.0806 H   0  0  0  0  0  0  0  0  0  0  0  0
   57.8173   28.4693   46.9591 H   0  0  0  0  0  0  0  0  0  0  0  0
   58.3354   33.5751   48.4251 H   0  0  0  0  0  0  0  0  0  0  0  0
   59.9459   34.7455   49.9159 H   0  0  0  0  0  0  0  0  0  0  0  0
  1  2  1  0
  2  3  1  0
  3  4  2  0
  4  5  1  0
  5  6  2  0
  6  7  1  0
  7  8  2  0
  8  9  1  0
  9 10  1  0
 10 11  1  0
 11 12  1  0
 12 13  1  0
 13 14  1  0
 14 15  1  0
 15 16  2  0
 16 17  1  0
 17 18  2  0
 18 19  1  0
 19 20  2  0
 14 21  1  0
 21 22  1  0
 10 23  2  0
  6 24  1  0
 24 25  2  0
 25  3  1  0
 23  7  1  0
 22 11  1  0
 20 15  1  0
  1 26  1  0
  1 27  1  0
  1 28  1  0
  4 29  1  0
  5 30  1  0
  8 31  1  0
 12 32  1  0
 12 33  1  0
 13 34  1  0
 13 35  1  0
 17 36  1  0
 18 37  1  0
 19 38  1  0
 21 39  1  0
 21 40  1  0
 22 41  1  0
 22 42  1  0
 24 43  1  0
 25 44  1  0
M  END
>  <UniqueID>  (27) 
25

>  <SMILES>  (27) 
COc1ccc(-c2csc(N3CCN(c4ncccn4)CC3)n2)cc1

>  <Energy>  (27) 
81.48901762607976

>  <Genealogy>  (27) 
COc1ccc(-c2csc(N3CCN(c4ncccn4)CC3)n2)cc1 (3D coordinates assigned)
COc1ccc(-c2csc(N3CCN(c4ncccn4)CC3)n2)cc1 (nonaromatic ring conformer: 81.48901762607976 kcal/mol)

>  <smiles>  (27) 
COc1ccc(-c2csc(N3CCN(c4ncccn4)CC3)n2)cc1

>  <score_type>  (27) 
oracle

>  <origin>  (27) 
adg

>  <m_score__min__energy>  (27) 
-6.54

>  <m_primary>  (27) 
energy

$$$$
27:0
     RDKit          3D

 36 38  0  0  0  0  0  0  0  0999 V2000
   58.0550   31.9690   50.5690 C   0  0  0  0  0  0  0  0  0  0  0  0
   58.9780   33.0990   50.6620 N   0  0  0  0  0  0  0  0  0  0  0  0
   58.9660   33.9150   51.8720 C   0  0  0  0  0  0  0  0  0  0  0  0
   60.1520   33.1020   49.8400 C   0  0  0  0  0  0  0  0  0  0  0  0
   61.6690   32.5890   50.3810 S   0  0  0  0  0  0  0  0  0  0  0  0
   62.3920   32.9480   48.9110 C   0  0  0  0  0  0  0  0  0  0  0  0
   63.7310   32.7940   48.5600 C   0  0  0  0  0  0  0  0  0  0  0  0
   64.1280   33.1770   47.2730 C   0  0  0  0  0  0  0  0  0  0  0  0
   63.1900   33.7050   46.3690 C   0  0  0  0  0  0  0  0  0  0  0  0
   61.8430   33.8550   46.7420 C   0  0  0  0  0  0  0  0  0  0  0  0
   61.4440   33.4660   48.0340 C   0  0  0  0  0  0  0  0  0  0  0  0
   60.1780   33.5510   48.5530 N   0  0  0  0  0  0  0  0  0  0  0  0
   59.0130   34.1560   47.8880 C   0  0  0  0  0  0  0  0  0  0  0  0
   58.5190   33.2590   46.7830 C   0  0  0  0  0  0  0  0  0  0  0  0
   58.6350   31.8630   46.8960 C   0  0  0  0  0  0  0  0  0  0  0  0
   58.1410   31.0310   45.8870 C   0  0  0  0  0  0  0  0  0  0  0  0
   57.5260   31.5830   44.7600 C   0  0  0  0  0  0  0  0  0  0  0  0
   56.8480   30.4450   43.3860 Br  0  0  0  0  0  0  0  0  0  0  0  0
   57.4050   32.9720   44.6420 C   0  0  0  0  0  0  0  0  0  0  0  0
   57.8990   33.8070   45.6490 C   0  0  0  0  0  0  0  0  0  0  0  0
   57.7818   31.6345   51.5807 H   0  0  0  0  0  0  0  0  0  0  0  0
   57.1488   32.2793   50.0282 H   0  0  0  0  0  0  0  0  0  0  0  0
   58.5400   31.1430   50.0282 H   0  0  0  0  0  0  0  0  0  0  0  0
   58.9756   33.2603   52.7559 H   0  0  0  0  0  0  0  0  0  0  0  0
   59.8547   34.5631   51.8860 H   0  0  0  0  0  0  0  0  0  0  0  0
   58.0586   34.5367   51.8860 H   0  0  0  0  0  0  0  0  0  0  0  0
   64.4580   32.3821   49.2754 H   0  0  0  0  0  0  0  0  0  0  0  0
   65.1788   33.0642   46.9680 H   0  0  0  0  0  0  0  0  0  0  0  0
   63.5129   34.0035   45.3607 H   0  0  0  0  0  0  0  0  0  0  0  0
   61.1111   34.2707   46.0338 H   0  0  0  0  0  0  0  0  0  0  0  0
   58.2091   34.3010   48.6247 H   0  0  0  0  0  0  0  0  0  0  0  0
   59.3086   35.1244   47.4582 H   0  0  0  0  0  0  0  0  0  0  0  0
   59.1164   31.4232   47.7819 H   0  0  0  0  0  0  0  0  0  0  0  0
   58.2366   29.9391   45.9804 H   0  0  0  0  0  0  0  0  0  0  0  0
   56.9205   33.4077   43.7557 H   0  0  0  0  0  0  0  0  0  0  0  0
   57.8013   34.8984   45.5521 H   0  0  0  0  0  0  0  0  0  0  0  0
  1  2  1  0
  2  3  1  0
  2  4  1  0
  4  5  1  0
  5  6  1  0
  6  7  2  0
  7  8  1  0
  8  9  2  0
  9 10  1  0
 10 11  2  0
 11 12  1  0
 12 13  1  0
 13 14  1  0
 14 15  2  0
 15 16  1  0
 16 17  2  0
 17 18  1  0
 17 19  1  0
 19 20  2  0
 12  4  2  0
 20 14  1  0
 11  6  1  0
  1 21  1  0
  1 22  1  0
  1 23  1  0
  3 24  1  0
  3 25  1  0
  3 26  1  0
  7 27  1  0
  8 28  1  0
  9 29  1  0
 10 30  1  0
 13 31  1  0
 13 32  1  0
 15 33  1  0
 16 34  1  0
 19 35  1  0
 20 36  1  0
M  CHG  1  12   1
M  END
>  <UniqueID>  (28) 
26

>  <SMILES>  (28) 
CN(C)c1sc2ccccc2[n+]1Cc1ccc(Br)cc1

>  <Energy>  (28) 
76.07883589960429

>  <Genealogy>  (28) 
CN(C)c1sc2ccccc2[n+]1Cc1ccc(Br)cc1 (3D coordinates assigned)
CN(C)c1sc2ccccc2[n+]1Cc1ccc(Br)cc1 (optimized conformer: 76.07883589960429 kcal/mol)

>  <smiles>  (28) 
CN(C)c1sc2ccccc2[n+]1Cc1ccc(Br)cc1

>  <score_type>  (28) 
oracle

>  <origin>  (28) 
adg

>  <m_score__min__energy>  (28) 
-6.0199999999999996

>  <m_primary>  (28) 
energy

$$$$
28:0
     RDKit          3D

 20 21  0  0  0  0  0  0  0  0999 V2000
   54.0440   24.6360   46.0550 O   0  0  0  0  0  0  0  0  0  0  0  0
   55.2100   25.0920   45.9220 C   0  0  0  0  0  0  0  0  0  0  0  0
   56.3500   24.1600   45.6840 C   0  0  0  0  0  0  0  0  0  0  0  0
   57.2370   24.1960   46.8800 C   0  0  0  0  0  0  0  0  0  0  0  0
   57.4190   23.1420   47.5460 O   0  0  0  0  0  0  0  0  0  0  0  0
   57.8690   25.4110   47.2980 N   0  0  0  0  0  0  0  0  0  0  0  0
   57.8770   26.6320   46.5310 C   0  0  0  0  0  0  0  0  0  0  0  0
   56.6950   27.1660   45.9470 C   0  0  0  0  0  0  0  0  0  0  0  0
   56.7350   28.4260   45.3370 C   0  0  0  0  0  0  0  0  0  0  0  0
   57.9250   29.1440   45.2590 C   0  0  0  0  0  0  0  0  0  0  0  0
   59.0950   28.6200   45.8050 C   0  0  0  0  0  0  0  0  0  0  0  0
   60.2470   29.3300   45.7180 F   0  0  0  0  0  0  0  0  0  0  0  0
   59.0760   27.3760   46.4470 C   0  0  0  0  0  0  0  0  0  0  0  0
   60.5810   26.7560   47.1220 Cl  0  0  0  0  0  0  0  0  0  0  0  0
   55.4230   26.5030   45.9980 N   0  0  0  0  0  0  0  0  0  0  0  0
   55.9707   23.1387   45.5321 H   0  0  0  0  0  0  0  0  0  0  0  0
   56.9089   24.4641   44.7867 H   0  0  0  0  0  0  0  0  0  0  0  0
   58.4710   25.3580   48.1500 H   0  0  0  0  0  0  0  0  0  0  0  0
   55.8141   28.8538   44.9140 H   0  0  0  0  0  0  0  0  0  0  0  0
   57.9418   30.1269   44.7654 H   0  0  0  0  0  0  0  0  0  0  0  0
  1  2  2  0
  2  3  1  0
  3  4  1  0
  4  5  2  0
  4  6  1  0
  6  7  1  0
  7  8  2  0
  8  9  1  0
  9 10  2  0
 10 11  1  0
 11 12  1  0
 11 13  2  0
 13 14  1  0
  8 15  1  0
 15  2  1  0
 13  7  1  0
  3 16  1  0
  3 17  1  0
  6 18  1  0
  9 19  1  0
 10 20  1  0
M  CHG  1  15  -1
M  END
>  <UniqueID>  (29) 
27

>  <SMILES>  (29) 
O=C1CC(=O)Nc2c(ccc(F)c2Cl)[N-]1

>  <Energy>  (29) 
30.45658352975758

>  <Genealogy>  (29) 
O=C1CC(=O)Nc2c(ccc(F)c2Cl)[N-]1 (protonated)
O=C1CC(=O)Nc2c(ccc(F)c2Cl)[N-]1 (3D coordinates assigned)
O=C1CC(=O)Nc2c(ccc(F)c2Cl)[N-]1 (nonaromatic ring conformer: 30.45658352975758 kcal/mol)

>  <smiles>  (29) 
O=C1CC(=O)Nc2c(ccc(F)c2Cl)N1

>  <score_type>  (29) 
oracle

>  <origin>  (29) 
adg

>  <m_score__min__energy>  (29) 
-6.4299999999999997

>  <m_primary>  (29) 
energy

$$$$
29:0
     RDKit          3D

 52 54  0  0  0  0  0  0  0  0999 V2000
   55.8810   22.2280   42.5030 N   0  0  0  0  0  0  0  0  0  0  0  0
   56.6940   21.7420   43.3900 C   0  0  0  0  0  0  0  0  0  0  0  0
   56.7260   20.3260   43.5940 N   0  0  0  0  0  0  0  0  0  0  0  0
   57.6000   22.6270   44.1640 C   0  0  0  0  0  0  0  0  0  0  0  0
   57.2040   23.9270   44.5260 C   0  0  0  0  0  0  0  0  0  0  0  0
   58.0710   24.7600   45.2410 C   0  0  0  0  0  0  0  0  0  0  0  0
   59.3420   24.2990   45.6250 C   0  0  0  0  0  0  0  0  0  0  0  0
   60.2780   25.1310   46.3270 N   0  0  0  0  0  0  0  0  0  0  0  0
   60.0190   26.4140   46.9140 C   0  0  0  0  0  0  0  0  0  0  0  0
   60.5350   26.7190   48.0250 O   0  0  0  0  0  0  0  0  0  0  0  0
   59.1860   27.4040   46.1920 C   0  0  0  0  0  0  0  0  0  0  0  0
   57.8380   27.5960   46.5400 C   0  0  0  0  0  0  0  0  0  0  0  0
   57.0520   28.5260   45.8530 C   0  0  0  0  0  0  0  0  0  0  0  0
   57.5960   29.2800   44.8000 C   0  0  0  0  0  0  0  0  0  0  0  0
   56.7680   30.2680   44.0690 C   0  0  0  0  0  0  0  0  0  0  0  0
   56.1760   29.9190   43.0130 O   0  0  0  0  0  0  0  0  0  0  0  0
   56.6560   31.6320   44.5000 N   0  0  0  0  0  0  0  0  0  0  0  0
   57.6060   32.3370   45.3120 C   0  0  0  0  0  0  0  0  0  0  0  0
   58.0770   33.6130   44.9540 C   0  0  0  0  0  0  0  0  0  0  0  0
   59.0220   34.2620   45.7530 C   0  0  0  0  0  0  0  0  0  0  0  0
   59.5110   33.6430   46.9070 C   0  0  0  0  0  0  0  0  0  0  0  0
   59.0530   32.3680   47.2730 C   0  0  0  0  0  0  0  0  0  0  0  0
   59.6010   31.6880   48.4970 C   0  0  0  0  0  0  0  0  0  0  0  0
   59.7910   30.2190   48.2370 C   0  0  0  0  0  0  0  0  0  0  0  0
   60.8940   29.7780   47.4360 N   0  0  0  0  0  0  0  0  0  0  0  0
   58.9890   29.3490   48.7770 N   0  0  0  0  0  0  0  0  0  0  0  0
   58.1130   31.7130   46.4580 C   0  0  0  0  0  0  0  0  0  0  0  0
   58.9480   29.1050   44.4640 C   0  0  0  0  0  0  0  0  0  0  0  0
   59.7340   28.1730   45.1490 C   0  0  0  0  0  0  0  0  0  0  0  0
   59.7410   23.0090   45.2550 C   0  0  0  0  0  0  0  0  0  0  0  0
   58.8790   22.1760   44.5380 C   0  0  0  0  0  0  0  0  0  0  0  0
   56.2100   22.7630   41.6660 H   0  0  0  0  0  0  0  0  0  0  0  0
   56.1420   19.6930   43.0040 H   0  0  0  0  0  0  0  0  0  0  0  0
   57.2980   19.9020   44.3570 H   0  0  0  0  0  0  0  0  0  0  0  0
   56.2050   24.2915   44.2448 H   0  0  0  0  0  0  0  0  0  0  0  0
   57.7565   25.7808   45.5040 H   0  0  0  0  0  0  0  0  0  0  0  0
   57.3976   27.0096   47.3599 H   0  0  0  0  0  0  0  0  0  0  0  0
   55.9995   28.6684   46.1393 H   0  0  0  0  0  0  0  0  0  0  0  0
   57.7006   34.1012   44.0430 H   0  0  0  0  0  0  0  0  0  0  0  0
   59.3822   35.2630   45.4730 H   0  0  0  0  0  0  0  0  0  0  0  0
   60.2574   34.1571   47.5304 H   0  0  0  0  0  0  0  0  0  0  0  0
   60.5697   32.1384   48.7593 H   0  0  0  0  0  0  0  0  0  0  0  0
   58.8893   31.8155   49.3260 H   0  0  0  0  0  0  0  0  0  0  0  0
   61.0430   28.7620   47.2440 H   0  0  0  0  0  0  0  0  0  0  0  0
   61.5720   30.4670   47.0370 H   0  0  0  0  0  0  0  0  0  0  0  0
   58.1380   29.6520   49.3010 H   0  0  0  0  0  0  0  0  0  0  0  0
   59.1860   28.3260   48.7050 H   0  0  0  0  0  0  0  0  0  0  0  0
   57.7729   30.7011   46.7233 H   0  0  0  0  0  0  0  0  0  0  0  0
   59.3921   29.7052   43.6562 H   0  0  0  0  0  0  0  0  0  0  0  0
   60.7897   28.0400   44.8700 H   0  0  0  0  0  0  0  0  0  0  0  0
   60.7427   22.6481   45.5315 H   0  0  0  0  0  0  0  0  0  0  0  0
   59.2023   21.1609   44.2640 H   0  0  0  0  0  0  0  0  0  0  0  0
  1  2  2  3
  2  3  1  0
  2  4  1  0
  4  5  2  0
  5  6  1  0
  6  7  2  0
  7  8  1  0
  8  9  1  0
  9 10  2  0
  9 11  1  0
 11 12  2  0
 12 13  1  0
 13 14  2  0
 14 15  1  0
 15 16  2  0
 15 17  1  0
 17 18  1  0
 18 19  2  0
 19 20  1  0
 20 21  2  0
 21 22  1  0
 22 23  1  0
 23 24  1  0
 24 25  1  0
 24 26  2  0
 22 27  2  0
 14 28  1  0
 28 29  2  0
  7 30  1  0
 30 31  2  0
 31  4  1  0
 29 11  1  0
 27 18  1  0
  1 32  1  0
  3 33  1  0
  3 34  1  0
  5 35  1  0
  6 36  1  0
 12 37  1  0
 13 38  1  0
 19 39  1  0
 20 40  1  0
 21 41  1  0
 23 42  1  0
 23 43  1  0
 25 44  1  0
 25 45  1  0
 26 46  1  0
 26 47  1  0
 27 48  1  0
 28 49  1  0
 29 50  1  0
 30 51  1  0
 31 52  1  0
M  CHG  3   8  -1  17  -1  26   1
M  END
>  <UniqueID>  (30) 
28

>  <SMILES>  (30) 
N=C(N)c1ccc([N-]C(=O)c2ccc(C(=O)[N-]c3cccc(CC(N)=[NH2+])c3)cc2)cc1

>  <Energy>  (30) 
64.30107143393901

>  <Genealogy>  (30) 
N=C(N)c1ccc([N-]C(=O)c2ccc(C(=O)[N-]c3cccc(CC(N)=[NH2+])c3)cc2)cc1 (protonated)
N=C(N)c1ccc([N-]C(=O)c2ccc(C(=O)[N-]c3cccc(CC(N)=[NH2+])c3)cc2)cc1 (3D coordinates assigned)
N=C(N)c1ccc([N-]C(=O)c2ccc(C(=O)[N-]c3cccc(CC(N)=[NH2+])c3)cc2)cc1 (optimized conformer: 64.30107143393901 kcal/mol)

>  <smiles>  (30) 
N=C(N)Cc1cccc(NC(=O)c2ccc(C(=O)Nc3ccc(C(=N)N)cc3)cc2)c1

>  <score_type>  (30) 
oracle

>  <origin>  (30) 
adg

>  <m_score__min__energy>  (30) 
-10.050000000000001

>  <m_primary>  (30) 
energy

$$$$
30:0
     RDKit          3D

 51 53  0  0  0  0  0  0  0  0999 V2000
   55.5520   29.7200   43.4390 C   0  0  0  0  0  0  0  0  0  0  0  0
   55.7090   29.4750   44.8330 O   0  0  0  0  0  0  0  0  0  0  0  0
   56.9060   29.0590   45.4380 C   0  0  0  0  0  0  0  0  0  0  0  0
   58.0270   29.9050   45.5340 C   0  0  0  0  0  0  0  0  0  0  0  0
   59.2000   29.4570   46.1430 C   0  0  0  0  0  0  0  0  0  0  0  0
   59.2770   28.1580   46.6620 C   0  0  0  0  0  0  0  0  0  0  0  0
   60.5370   27.6890   47.3440 C   0  0  0  0  0  0  0  0  0  0  0  0
   60.2620   27.0840   48.7350 C   0  0  0  0  0  0  0  0  0  0  0  0
   60.0200   28.0920   49.7850 N   0  0  0  0  0  0  0  0  0  0  0  0
   61.2320   28.8570   50.1200 C   0  0  0  0  0  0  0  0  0  0  0  0
   61.1830   30.2130   49.4830 C   0  0  0  0  0  0  0  0  0  0  0  0
   62.0070   31.2740   49.7730 C   0  0  0  0  0  0  0  0  0  0  0  0
   61.5970   32.2910   49.0580 O   0  0  0  0  0  0  0  0  0  0  0  0
   60.5530   31.8920   48.3610 C   0  0  0  0  0  0  0  0  0  0  0  0
   59.8180   32.7790   47.4200 C   0  0  0  0  0  0  0  0  0  0  0  0
   58.4120   32.7070   47.4170 C   0  0  0  0  0  0  0  0  0  0  0  0
   57.6540   33.5210   46.5750 C   0  0  0  0  0  0  0  0  0  0  0  0
   58.2830   34.4210   45.7200 C   0  0  0  0  0  0  0  0  0  0  0  0
   59.6750   34.5050   45.6970 C   0  0  0  0  0  0  0  0  0  0  0  0
   60.4610   33.6870   46.5310 C   0  0  0  0  0  0  0  0  0  0  0  0
   61.9600   33.8050   46.4370 C   0  0  0  0  0  0  0  0  0  0  0  0
   60.2490   30.5970   48.5950 N   0  0  0  0  0  0  0  0  0  0  0  0
   58.1600   27.3120   46.5710 C   0  0  0  0  0  0  0  0  0  0  0  0
   56.9720   27.7580   45.9600 C   0  0  0  0  0  0  0  0  0  0  0  0
   55.8380   26.9370   45.8500 O   0  0  0  0  0  0  0  0  0  0  0  0
   55.8450   25.5220   46.0130 C   0  0  0  0  0  0  0  0  0  0  0  0
   54.9638   30.6378   43.2920 H   0  0  0  0  0  0  0  0  0  0  0  0
   56.5416   29.8403   42.9741 H   0  0  0  0  0  0  0  0  0  0  0  0
   55.0293   28.8711   42.9741 H   0  0  0  0  0  0  0  0  0  0  0  0
   57.9781   30.9255   45.1265 H   0  0  0  0  0  0  0  0  0  0  0  0
   60.0689   30.1275   46.2159 H   0  0  0  0  0  0  0  0  0  0  0  0
   61.0157   26.9244   46.7146 H   0  0  0  0  0  0  0  0  0  0  0  0
   61.1894   28.5639   47.4818 H   0  0  0  0  0  0  0  0  0  0  0  0
   59.3745   26.4381   48.6631 H   0  0  0  0  0  0  0  0  0  0  0  0
   61.1649   26.5275   49.0268 H   0  0  0  0  0  0  0  0  0  0  0  0
   59.6310   27.6390   50.6450 H   0  0  0  0  0  0  0  0  0  0  0  0
   59.2970   28.7570   49.4230 H   0  0  0  0  0  0  0  0  0  0  0  0
   61.2990   28.9711   51.2120 H   0  0  0  0  0  0  0  0  0  0  0  0
   62.1126   28.3160   49.7433 H   0  0  0  0  0  0  0  0  0  0  0  0
   62.8536   31.2695   50.4753 H   0  0  0  0  0  0  0  0  0  0  0  0
   57.9039   31.9989   48.0881 H   0  0  0  0  0  0  0  0  0  0  0  0
   56.5563   33.4513   46.5869 H   0  0  0  0  0  0  0  0  0  0  0  0
   57.6822   35.0663   45.0622 H   0  0  0  0  0  0  0  0  0  0  0  0
   60.1649   35.2192   45.0188 H   0  0  0  0  0  0  0  0  0  0  0  0
   62.3893   33.8388   47.4492 H   0  0  0  0  0  0  0  0  0  0  0  0
   62.3631   32.9358   45.8966 H   0  0  0  0  0  0  0  0  0  0  0  0
   62.2221   34.7266   45.8966 H   0  0  0  0  0  0  0  0  0  0  0  0
   58.2133   26.2924   46.9803 H   0  0  0  0  0  0  0  0  0  0  0  0
   55.8462   25.2764   47.0852 H   0  0  0  0  0  0  0  0  0  0  0  0
   54.9490   25.0940   45.5398 H   0  0  0  0  0  0  0  0  0  0  0  0
   56.7452   25.1028   45.5398 H   0  0  0  0  0  0  0  0  0  0  0  0
  1  2  1  0
  2  3  1  0
  3  4  2  0
  4  5  1  0
  5  6  2  0
  6  7  1  0
  7  8  1  0
  8  9  1  0
  9 10  1  0
 10 11  1  0
 11 12  2  0
 12 13  1  0
 13 14  1  0
 14 15  1  0
 15 16  2  0
 16 17  1  0
 17 18  2  0
 18 19  1  0
 19 20  2  0
 20 21  1  0
 14 22  2  0
  6 23  1  0
 23 24  2  0
 24 25  1  0
 25 26  1  0
 24  3  1  0
 22 11  1  0
 20 15  1  0
  1 27  1  0
  1 28  1  0
  1 29  1  0
  4 30  1  0
  5 31  1  0
  7 32  1  0
  7 33  1  0
  8 34  1  0
  8 35  1  0
  9 36  1  0
  9 37  1  0
 10 38  1  0
 10 39  1  0
 12 40  1  0
 16 41  1  0
 17 42  1  0
 18 43  1  0
 19 44  1  0
 21 45  1  0
 21 46  1  0
 21 47  1  0
 23 48  1  0
 26 49  1  0
 26 50  1  0
 26 51  1  0
M  CHG  1   9   1
M  END
>  <UniqueID>  (31) 
29

>  <SMILES>  (31) 
COc1ccc(CC[NH2+]Cc2coc(-c3ccccc3C)n2)cc1OC

>  <Energy>  (31) 
81.45098624698647

>  <Genealogy>  (31) 
COc1ccc(CC[NH2+]Cc2coc(-c3ccccc3C)n2)cc1OC (protonated)
COc1ccc(CC[NH2+]Cc2coc(-c3ccccc3C)n2)cc1OC (3D coordinates assigned)
COc1ccc(CC[NH2+]Cc2coc(-c3ccccc3C)n2)cc1OC (optimized conformer: 81.45098624698647 kcal/mol)

>  <smiles>  (31) 
COc1ccc(CCNCc2coc(-c3ccccc3C)n2)cc1OC

>  <score_type>  (31) 
oracle

>  <origin>  (31) 
adg

>  <m_score__min__energy>  (31) 
-6.4699999999999998

>  <m_primary>  (31) 
energy

$$$$
31:0
     RDKit          3D

 36 37  0  0  0  0  0  0  0  0999 V2000
   55.2110   23.3760   45.4080 C   0  0  0  0  0  0  0  0  0  0  0  0
   55.6800   24.2360   46.3090 C   0  0  0  0  0  0  0  0  0  0  0  0
   56.1450   25.5880   45.9490 C   0  0  0  0  0  0  0  0  0  0  0  0
   55.3480   26.5660   45.9930 O   0  0  0  0  0  0  0  0  0  0  0  0
   57.4990   25.7760   45.5110 N   0  0  0  0  0  0  0  0  0  0  0  0
   58.1060   27.0630   45.3080 C   0  0  0  0  0  0  0  0  0  0  0  0
   59.4140   27.3350   45.7510 C   0  0  0  0  0  0  0  0  0  0  0  0
   59.9800   28.5940   45.5410 C   0  0  0  0  0  0  0  0  0  0  0  0
   59.2550   29.5900   44.8810 C   0  0  0  0  0  0  0  0  0  0  0  0
   57.9650   29.3210   44.4070 C   0  0  0  0  0  0  0  0  0  0  0  0
   57.0220   30.5910   43.6320 S   0  0  0  0  0  0  0  0  0  0  0  0
   55.8810   30.9910   44.5260 O   0  0  0  0  0  0  0  0  0  0  0  0
   56.4590   30.0840   42.3340 O   0  0  0  0  0  0  0  0  0  0  0  0
   58.0610   32.0080   43.3140 C   0  0  0  0  0  0  0  0  0  0  0  0
   58.2650   32.8010   44.5750 C   0  0  0  0  0  0  0  0  0  0  0  0
   58.9260   34.0400   44.5350 C   0  0  0  0  0  0  0  0  0  0  0  0
   59.1820   34.7410   45.7170 C   0  0  0  0  0  0  0  0  0  0  0  0
   58.7810   34.2110   46.9460 C   0  0  0  0  0  0  0  0  0  0  0  0
   58.1260   32.9770   46.9960 C   0  0  0  0  0  0  0  0  0  0  0  0
   57.8710   32.2710   45.8150 C   0  0  0  0  0  0  0  0  0  0  0  0
   57.3990   28.0560   44.6150 C   0  0  0  0  0  0  0  0  0  0  0  0
   54.8751   22.3772   45.7237 H   0  0  0  0  0  0  0  0  0  0  0  0
   55.1593   23.6640   44.3476 H   0  0  0  0  0  0  0  0  0  0  0  0
   55.7224   23.9259   47.3635 H   0  0  0  0  0  0  0  0  0  0  0  0
   58.0410   24.9290   45.2250 H   0  0  0  0  0  0  0  0  0  0  0  0
   59.9924   26.5529   46.2645 H   0  0  0  0  0  0  0  0  0  0  0  0
   60.9999   28.8026   45.8962 H   0  0  0  0  0  0  0  0  0  0  0  0
   59.6980   30.5860   44.7337 H   0  0  0  0  0  0  0  0  0  0  0  0
   59.0368   31.6653   42.9393 H   0  0  0  0  0  0  0  0  0  0  0  0
   57.5724   32.6481   42.5647 H   0  0  0  0  0  0  0  0  0  0  0  0
   59.2435   34.4603   43.5693 H   0  0  0  0  0  0  0  0  0  0  0  0
   59.6997   35.7109   45.6795 H   0  0  0  0  0  0  0  0  0  0  0  0
   58.9808   34.7652   47.8750 H   0  0  0  0  0  0  0  0  0  0  0  0
   57.8109   32.5608   47.9642 H   0  0  0  0  0  0  0  0  0  0  0  0
   57.3603   31.2977   45.8577 H   0  0  0  0  0  0  0  0  0  0  0  0
   56.3910   27.8401   44.2312 H   0  0  0  0  0  0  0  0  0  0  0  0
  1  2  2  0
  2  3  1  0
  3  4  2  0
  3  5  1  0
  5  6  1  0
  6  7  2  0
  7  8  1  0
  8  9  2  0
  9 10  1  0
 10 11  1  0
 11 12  2  0
 11 13  2  0
 11 14  1  0
 14 15  1  0
 15 16  2  0
 16 17  1  0
 17 18  2  0
 18 19  1  0
 19 20  2  0
 10 21  2  0
 21  6  1  0
 20 15  1  0
  1 22  1  0
  1 23  1  0
  2 24  1  0
  5 25  1  0
  7 26  1  0
  8 27  1  0
  9 28  1  0
 14 29  1  0
 14 30  1  0
 16 31  1  0
 17 32  1  0
 18 33  1  0
 19 34  1  0
 20 35  1  0
 21 36  1  0
M  END
>  <UniqueID>  (32) 
30

>  <SMILES>  (32) 
C=CC(=O)Nc1cccc(S(=O)(=O)Cc2ccccc2)c1

>  <Energy>  (32) 
32.62789634319619

>  <Genealogy>  (32) 
C=CC(=O)Nc1cccc(S(=O)(=O)Cc2ccccc2)c1 (3D coordinates assigned)
C=CC(=O)Nc1cccc(S(=O)(=O)Cc2ccccc2)c1 (optimized conformer: 32.62789634319619 kcal/mol)

>  <smiles>  (32) 
C=CC(=O)Nc1cccc(S(=O)(=O)Cc2ccccc2)c1

>  <score_type>  (32) 
oracle

>  <origin>  (32) 
adg

>  <m_score__min__energy>  (32) 
-8.5199999999999996

>  <m_primary>  (32) 
energy

$$$$
32:0
     RDKit          3D

 19 20  0  0  0  0  0  0  0  0999 V2000
   54.9081   24.4637   46.2144 H   0  0  0  0  0  0  0  0  0  0  0  0
   55.7820   25.1280   46.1440 C   0  0  0  0  0  0  0  0  0  0  0  0
   57.0500   24.6310   46.1640 N   0  0  0  0  0  0  0  0  0  0  0  0
   58.0380   25.9620   46.0350 S   0  0  0  0  0  0  0  0  0  0  0  0
   56.8290   27.1060   45.9610 C   0  0  0  0  0  0  0  0  0  0  0  0
   56.9500   28.3970   45.8500 N   0  0  0  0  0  0  0  0  0  0  0  0
   56.2780   29.2580   44.9140 C   0  0  0  0  0  0  0  0  0  0  0  0
   55.1240   28.9790   44.4920 O   0  0  0  0  0  0  0  0  0  0  0  0
   56.9390   30.4880   44.4370 C   0  0  0  0  0  0  0  0  0  0  0  0
   57.4960   31.3410   45.3430 N   0  0  0  0  0  0  0  0  0  0  0  0
   58.1180   32.4890   44.9640 C   0  0  0  0  0  0  0  0  0  0  0  0
   58.5559   33.1527   45.7241 H   0  0  0  0  0  0  0  0  0  0  0  0
   58.2020   32.8270   43.6130 C   0  0  0  0  0  0  0  0  0  0  0  0
   58.7034   33.7553   43.3019 H   0  0  0  0  0  0  0  0  0  0  0  0
   57.6420   31.9730   42.6600 C   0  0  0  0  0  0  0  0  0  0  0  0
   57.7360   32.3770   40.9550 Cl  0  0  0  0  0  0  0  0  0  0  0  0
   57.0060   30.7980   43.0680 C   0  0  0  0  0  0  0  0  0  0  0  0
   56.5613   30.1210   42.3237 H   0  0  0  0  0  0  0  0  0  0  0  0
   55.6350   26.4850   46.0330 N   0  0  0  0  0  0  0  0  0  0  0  0
  1  2  1  0
  2  3  2  0
  3  4  1  0
  4  5  1  0
  5  6  2  0
  6  7  1  0
  7  8  2  0
  7  9  1  0
  9 10  2  0
 10 11  1  0
 11 12  1  0
 11 13  2  0
 13 14  1  0
 13 15  1  0
 15 16  1  0
 15 17  2  0
 17 18  1  0
  5 19  1  0
 19  2  1  0
 17  9  1  0
M  CHG  1  19  -1
M  END
>  <UniqueID>  (33) 
31

>  <SMILES>  (33) 
O=C(/N=c1/[n-]cns1)c1cc(Cl)ccn1

>  <Energy>  (33) 
61.34236266824136

>  <Genealogy>  (33) 
O=C(N=c1[n-]cns1)c1cc(Cl)ccn1 (protonated)
O=C(/N=c1/[n-]cns1)c1cc(Cl)ccn1 (cis-trans isomerization)
O=C(/N=c1/[n-]cns1)c1cc(Cl)ccn1 (3D coordinates assigned)
O=C(/N=c1/[n-]cns1)c1cc(Cl)ccn1 (optimized conformer: 61.34236266824136 kcal/mol)

>  <smiles>  (33) 
O=C(N=c1[nH]cns1)c1cc(Cl)ccn1

>  <score_type>  (33) 
oracle

>  <origin>  (33) 
adg

>  <m_score__min__energy>  (33) 
-8.0399999999999991

>  <m_primary>  (33) 
energy

$$$$
33:0
     RDKit          3D

 50 54  0  0  1  0  0  0  0  0999 V2000
   58.7390   33.3340   52.2680 N   0  0  0  0  0  0  0  0  0  0  0  0
   58.8390   32.6670   51.1690 C   0  0  0  0  0  0  0  0  0  0  0  0
   58.5070   31.3700   51.1680 N   0  0  0  0  0  0  0  0  0  0  0  0
   58.6160   30.6800   50.0050 C   0  0  0  0  0  0  0  0  0  0  0  0
   59.0410   31.2420   48.8650 N   0  0  0  0  0  0  0  0  0  0  0  0
   59.3890   32.5470   48.8090 C   0  0  0  0  0  0  0  0  0  0  0  0
   59.2760   33.2500   49.9960 C   0  0  0  0  0  0  0  0  0  0  0  0
   59.6560   34.5100   49.7510 N   0  0  0  0  0  0  0  0  0  0  0  0
   59.9900   34.5720   48.4520 C   0  0  0  0  0  0  0  0  0  0  0  0
   59.8350   33.3750   47.8480 N   0  0  0  0  0  0  0  0  0  0  0  0
   60.0910   33.0890   46.4760 C   0  0  1  0  0  0  0  0  0  0  0  0
   59.4590   31.8770   46.1610 O   0  0  0  0  0  0  0  0  0  0  0  0
   58.1080   32.1640   45.9750 C   0  0  2  0  0  0  0  0  0  0  0  0
   57.6210   31.1430   45.0550 C   0  0  0  0  0  0  0  0  0  0  0  0
   56.4220   31.2700   44.6270 O   0  0  0  0  0  0  0  0  0  0  0  0
   58.4420   30.0670   44.6580 N   0  0  0  0  0  0  0  0  0  0  0  0
   58.0480   29.0140   43.7550 C   0  0  0  0  0  0  0  0  0  0  0  0
   57.7610   27.7760   44.5150 C   0  0  0  0  0  0  0  0  0  0  0  0
   57.8230   26.5100   43.9770 C   0  0  0  0  0  0  0  0  0  0  0  0
   57.5450   25.3830   44.7250 C   0  0  0  0  0  0  0  0  0  0  0  0
   57.1910   25.4850   46.0540 C   0  0  0  0  0  0  0  0  0  0  0  0
   56.8930   24.3120   46.8720 C   0  0  0  0  0  0  0  0  0  0  0  0
   57.7120   23.2550   47.1170 N   0  0  0  0  0  0  0  0  0  0  0  0
   57.0180   22.4420   47.9040 N   0  0  0  0  0  0  0  0  0  0  0  0
   55.8160   22.9580   48.1480 N   0  0  0  0  0  0  0  0  0  0  0  0
   55.7180   24.1320   47.5100 N   0  0  0  0  0  0  0  0  0  0  0  0
   57.1210   26.7440   46.6200 C   0  0  0  0  0  0  0  0  0  0  0  0
   57.4050   27.8750   45.8530 C   0  0  0  0  0  0  0  0  0  0  0  0
   57.9560   33.5790   45.7330 C   0  0  2  0  0  0  0  0  0  0  0  0
   57.2140   34.0660   44.7060 O   0  0  0  0  0  0  0  0  0  0  0  0
   59.4150   34.0030   45.4820 C   0  0  1  0  0  0  0  0  0  0  0  0
   59.6350   35.3350   45.6590 O   0  0  0  0  0  0  0  0  0  0  0  0
   58.9560   34.3490   52.3060 H   0  0  0  0  0  0  0  0  0  0  0  0
   58.1790   30.9260   52.0350 H   0  0  0  0  0  0  0  0  0  0  0  0
   58.3440   29.6142   49.9974 H   0  0  0  0  0  0  0  0  0  0  0  0
   60.3445   35.4816   47.9451 H   0  0  0  0  0  0  0  0  0  0  0  0
   61.1864   33.1480   46.3945 H   0  0  0  0  0  0  0  0  0  0  0  0
   57.4250   32.0686   46.8320 H   0  0  0  0  0  0  0  0  0  0  0  0
   59.4190   30.0570   45.0740 H   0  0  0  0  0  0  0  0  0  0  0  0
   57.1454   29.3226   43.2072 H   0  0  0  0  0  0  0  0  0  0  0  0
   58.8668   28.8209   43.0463 H   0  0  0  0  0  0  0  0  0  0  0  0
   58.1024   26.3929   42.9195 H   0  0  0  0  0  0  0  0  0  0  0  0
   57.6067   24.3906   44.2545 H   0  0  0  0  0  0  0  0  0  0  0  0
   55.0470   22.5420   48.7390 H   0  0  0  0  0  0  0  0  0  0  0  0
   56.8407   26.8549   47.6779 H   0  0  0  0  0  0  0  0  0  0  0  0
   57.3452   28.8690   46.3202 H   0  0  0  0  0  0  0  0  0  0  0  0
   57.3822   33.9714   46.5855 H   0  0  0  0  0  0  0  0  0  0  0  0
   56.6670   33.4060   44.2050 H   0  0  0  0  0  0  0  0  0  0  0  0
   59.7818   33.8971   44.4504 H   0  0  0  0  0  0  0  0  0  0  0  0
   58.8860   35.8650   45.3090 H   0  0  0  0  0  0  0  0  0  0  0  0
  1  2  2  3
  2  3  1  0
  3  4  1  0
  4  5  2  0
  5  6  1  0
  6  7  2  0
  7  8  1  0
  8  9  2  0
  9 10  1  0
 10 11  1  0
 11 12  1  0
 12 13  1  0
 13 14  1  0
 14 15  2  0
 14 16  1  0
 16 17  1  0
 17 18  1  0
 18 19  2  0
 19 20  1  0
 20 21  2  0
 21 22  1  0
 22 23  1  0
 23 24  2  0
 24 25  1  0
 25 26  1  0
 21 27  1  0
 27 28  2  0
 13 29  1  0
 29 30  1  0
 29 31  1  0
 31 32  1  0
  7  2  1  0
 31 11  1  0
 10  6  1  0
 28 18  1  0
 26 22  2  0
  1 33  1  0
  3 34  1  0
  4 35  1  0
  9 36  1  0
 11 37  1  1
 13 38  1  1
 16 39  1  0
 17 40  1  0
 17 41  1  0
 19 42  1  0
 20 43  1  0
 25 44  1  0
 27 45  1  0
 28 46  1  0
 29 47  1  1
 30 48  1  0
 31 49  1  6
 32 50  1  0
M  END
>  <smiles>  (34) 
N=c1[nH]cnc2c1ncn2C1OC(C(=O)NCc2ccc(-c3nn[nH]n3)cc2)C(O)C1O

>  <score_type>  (34) 
oracle

>  <origin>  (34) 
adg

>  <m_score__min__energy>  (34) 
-8.9600000000000009

>  <m_primary>  (34) 
energy

$$$$
34:0
     RDKit          3D

 77 81  0  0  0  0  0  0  0  0999 V2000
   54.4770   25.0770   45.5990 C   0  0  0  0  0  0  0  0  0  0  0  0
   55.1630   26.2510   46.1230 N   0  0  0  0  0  0  0  0  0  0  0  0
   56.3580   26.6160   45.7660 C   0  0  0  0  0  0  0  0  0  0  0  0
   57.1090   25.7790   44.9290 C   0  0  0  0  0  0  0  0  0  0  0  0
   58.3900   26.1740   44.5360 C   0  0  0  0  0  0  0  0  0  0  0  0
   58.9110   27.3910   44.9740 C   0  0  0  0  0  0  0  0  0  0  0  0
   58.1350   28.2060   45.8120 C   0  0  0  0  0  0  0  0  0  0  0  0
   58.6470   29.5070   46.2790 C   0  0  0  0  0  0  0  0  0  0  0  0
   58.2810   30.7700   45.7720 C   0  0  0  0  0  0  0  0  0  0  0  0
   57.3100   31.1290   44.6580 C   0  0  0  0  0  0  0  0  0  0  0  0
   58.0190   31.5810   43.3860 C   0  0  0  0  0  0  0  0  0  0  0  0
   57.0310   31.2850   42.2680 C   0  0  0  0  0  0  0  0  0  0  0  0
   56.2710   30.0430   42.7140 C   0  0  0  0  0  0  0  0  0  0  0  0
   56.3250   30.0220   44.2440 C   0  0  0  0  0  0  0  0  0  0  0  0
   59.0960   31.6720   46.4390 C   0  0  0  0  0  0  0  0  0  0  0  0
   59.2200   33.0560   46.2970 C   0  0  0  0  0  0  0  0  0  0  0  0
   60.1640   33.7240   47.0880 C   0  0  0  0  0  0  0  0  0  0  0  0
   60.9800   33.0080   48.0070 C   0  0  0  0  0  0  0  0  0  0  0  0
   62.0130   33.7360   48.7800 C   0  0  0  0  0  0  0  0  0  0  0  0
   61.7460   34.8390   49.3300 O   0  0  0  0  0  0  0  0  0  0  0  0
   63.3160   33.1560   48.9250 N   0  0  0  0  0  0  0  0  0  0  0  0
   64.1000   33.0270   50.1610 C   0  0  0  0  0  0  0  0  0  0  0  0
   63.8040   34.2650   51.0270 C   0  0  0  0  0  0  0  0  0  0  0  0
   65.6030   32.9940   49.8080 C   0  0  0  0  0  0  0  0  0  0  0  0
   63.7170   31.7900   50.9520 C   0  0  0  0  0  0  0  0  0  0  0  0
   63.9880   31.7500   52.1910 O   0  0  0  0  0  0  0  0  0  0  0  0
   62.9010   30.7500   50.3660 N   0  0  0  0  0  0  0  0  0  0  0  0
   62.4970   29.5770   51.0930 C   0  0  0  0  0  0  0  0  0  0  0  0
   63.4340   28.7970   51.7970 C   0  0  0  0  0  0  0  0  0  0  0  0
   63.0240   27.6680   52.5080 C   0  0  0  0  0  0  0  0  0  0  0  0
   61.6720   27.3160   52.5520 C   0  0  0  0  0  0  0  0  0  0  0  0
   61.2540   26.1180   53.3040 C   0  0  0  0  0  0  0  0  0  0  0  0
   60.8920   24.9520   52.7430 C   0  0  0  0  0  0  0  0  0  0  0  0
   61.8300   23.9370   52.2110 C   0  0  0  0  0  0  0  0  0  0  0  0
   62.9310   24.2670   51.6970 O   0  0  0  0  0  0  0  0  0  0  0  0
   61.4390   22.6020   52.1760 O   0  0  0  0  0  0  0  0  0  0  0  0
   60.7410   28.0590   51.8090 C   0  0  0  0  0  0  0  0  0  0  0  0
   61.1570   29.1760   51.0740 C   0  0  0  0  0  0  0  0  0  0  0  0
   60.8380   31.6020   48.1140 C   0  0  0  0  0  0  0  0  0  0  0  0
   59.8820   30.9650   47.3140 C   0  0  0  0  0  0  0  0  0  0  0  0
   59.6250   29.6410   47.2170 N   0  0  0  0  0  0  0  0  0  0  0  0
   60.2580   28.5670   47.9850 C   0  0  0  0  0  0  0  0  0  0  0  0
   56.8910   27.7980   46.1860 N   0  0  0  0  0  0  0  0  0  0  0  0
   54.1162   24.4596   46.4349 H   0  0  0  0  0  0  0  0  0  0  0  0
   53.6230   25.3957   44.9833 H   0  0  0  0  0  0  0  0  0  0  0  0
   55.1739   24.4895   44.9833 H   0  0  0  0  0  0  0  0  0  0  0  0
   56.6936   24.8203   44.5850 H   0  0  0  0  0  0  0  0  0  0  0  0
   58.9883   25.5243   43.8803 H   0  0  0  0  0  0  0  0  0  0  0  0
   59.9183   27.7083   44.6662 H   0  0  0  0  0  0  0  0  0  0  0  0
   56.7354   31.9465   45.1179 H   0  0  0  0  0  0  0  0  0  0  0  0
   58.2452   32.6566   43.4292 H   0  0  0  0  0  0  0  0  0  0  0  0
   58.9800   31.0662   43.2396 H   0  0  0  0  0  0  0  0  0  0  0  0
   56.3401   32.1301   42.1319 H   0  0  0  0  0  0  0  0  0  0  0  0
   57.5395   31.1282   41.3053 H   0  0  0  0  0  0  0  0  0  0  0  0
   55.2268   30.0939   42.3719 H   0  0  0  0  0  0  0  0  0  0  0  0
   56.7169   29.1316   42.2891 H   0  0  0  0  0  0  0  0  0  0  0  0
   55.3280   30.2235   44.6629 H   0  0  0  0  0  0  0  0  0  0  0  0
   56.6481   29.0395   44.6186 H   0  0  0  0  0  0  0  0  0  0  0  0
   58.5921   33.6078   45.5819 H   0  0  0  0  0  0  0  0  0  0  0  0
   60.2753   34.8146   46.9973 H   0  0  0  0  0  0  0  0  0  0  0  0
   63.8692   33.9925   52.0907 H   0  0  0  0  0  0  0  0  0  0  0  0
   64.5392   35.0524   50.8045 H   0  0  0  0  0  0  0  0  0  0  0  0
   62.7922   34.6347   50.8045 H   0  0  0  0  0  0  0  0  0  0  0  0
   66.1969   32.9810   50.7338 H   0  0  0  0  0  0  0  0  0  0  0  0
   65.8216   32.0908   49.2194 H   0  0  0  0  0  0  0  0  0  0  0  0
   65.8611   33.8867   49.2194 H   0  0  0  0  0  0  0  0  0  0  0  0
   62.4710   30.9010   49.4120 H   0  0  0  0  0  0  0  0  0  0  0  0
   64.4971   29.0794   51.7867 H   0  0  0  0  0  0  0  0  0  0  0  0
   63.7677   27.0529   53.0357 H   0  0  0  0  0  0  0  0  0  0  0  0
   61.2375   26.1838   54.4019 H   0  0  0  0  0  0  0  0  0  0  0  0
   59.8159   24.7346   52.6735 H   0  0  0  0  0  0  0  0  0  0  0  0
   59.6816   27.7629   51.8042 H   0  0  0  0  0  0  0  0  0  0  0  0
   60.4256   29.7416   50.4781 H   0  0  0  0  0  0  0  0  0  0  0  0
   61.4646   31.0245   48.8097 H   0  0  0  0  0  0  0  0  0  0  0  0
   60.1403   28.7667   49.0603 H   0  0  0  0  0  0  0  0  0  0  0  0
   59.7809   27.6077   47.7358 H   0  0  0  0  0  0  0  0  0  0  0  0
   61.3284   28.5198   47.7358 H   0  0  0  0  0  0  0  0  0  0  0  0
  1  2  1  0
  2  3  2  3
  3  4  1  0
  4  5  2  0
  5  6  1  0
  6  7  2  0
  7  8  1  0
  8  9  2  0
  9 10  1  0
 10 11  1  0
 11 12  1  0
 12 13  1  0
 13 14  1  0
  9 15  1  0
 15 16  2  0
 16 17  1  0
 17 18  2  0
 18 19  1  0
 19 20  2  0
 19 21  1  0
 21 22  1  0
 22 23  1  0
 22 24  1  0
 22 25  1  0
 25 26  2  0
 25 27  1  0
 27 28  1  0
 28 29  2  0
 29 30  1  0
 30 31  2  0
 31 32  1  0
 32 33  2  3
 33 34  1  0
 34 35  2  0
 34 36  1  0
 31 37  1  0
 37 38  2  0
 18 39  1  0
 39 40  2  0
 40 41  1  0
 41 42  1  0
  7 43  1  0
 43  3  1  0
 41  8  1  0
 14 10  1  0
 40 15  1  0
 38 28  1  0
  1 44  1  0
  1 45  1  0
  1 46  1  0
  4 47  1  0
  5 48  1  0
  6 49  1  0
 10 50  1  0
 11 51  1  0
 11 52  1  0
 12 53  1  0
 12 54  1  0
 13 55  1  0
 13 56  1  0
 14 57  1  0
 14 58  1  0
 16 59  1  0
 17 60  1  0
 23 61  1  0
 23 62  1  0
 23 63  1  0
 24 64  1  0
 24 65  1  0
 24 66  1  0
 27 67  1  0
 29 68  1  0
 30 69  1  0
 32 70  1  0
 33 71  1  0
 37 72  1  0
 38 73  1  0
 39 74  1  0
 42 75  1  0
 42 76  1  0
 42 77  1  0
M  CHG  3  21  -1  36  -1  43  -1
M  END
>  <UniqueID>  (35) 
32

>  <SMILES>  (35) 
CN=c1cccc(-c2c(C3CCCC3)c3ccc(C(=O)[N-]C(C)(C)C(=O)Nc4ccc(C=CC(=O)[O-])cc4)cc3n2C)[n-]1

>  <Energy>  (35) 
134.15359122325475

>  <Genealogy>  (35) 
CN=c1cccc(-c2c(C3CCCC3)c3ccc(C(=O)[N-]C(C)(C)C(=O)Nc4ccc(C=CC(=O)[O-])cc4)cc3n2C)[n-]1 (protonated)
CN=c1cccc(-c2c(C3CCCC3)c3ccc(C(=O)[N-]C(C)(C)C(=O)Nc4ccc(C=CC(=O)[O-])cc4)cc3n2C)[n-]1 (3D coordinates assigned)
CN=c1cccc(-c2c(C3CCCC3)c3ccc(C(=O)[N-]C(C)(C)C(=O)Nc4ccc(C=CC(=O)[O-])cc4)cc3n2C)[n-]1 (nonaromatic ring conformer: 134.15359122325475 kcal/mol)

>  <smiles>  (35) 
CN=c1cccc(-c2c(C3CCCC3)c3ccc(C(=O)NC(C)(C)C(=O)Nc4ccc(C=CC(=O)O)cc4)cc3n2C)[nH]1

>  <score_type>  (35) 
oracle

>  <origin>  (35) 
adg

>  <m_score__min__energy>  (35) 
-16.739999999999998

>  <m_primary>  (35) 
energy

$$$$
35:0
     RDKit          3D

 63 65  0  0  0  0  0  0  0  0999 V2000
   54.3340   24.9640   45.5990 C   0  0  0  0  0  0  0  0  0  0  0  0
   54.9770   26.1840   45.9450 O   0  0  0  0  0  0  0  0  0  0  0  0
   56.3300   26.2540   46.2960 C   0  0  0  0  0  0  0  0  0  0  0  0
   56.7730   25.5850   47.2720 O   0  0  0  0  0  0  0  0  0  0  0  0
   57.2630   27.1540   45.5280 C   0  0  1  0  0  0  0  0  0  0  0  0
   58.1990   27.8080   46.4510 N   0  0  0  0  0  0  0  0  0  0  0  0
   59.3820   27.1580   46.9360 C   0  0  0  0  0  0  0  0  0  0  0  0
   59.4920   25.9030   46.8870 O   0  0  0  0  0  0  0  0  0  0  0  0
   60.5280   27.9780   47.4460 C   0  0  0  0  0  0  0  0  0  0  0  0
   60.0860   28.7860   48.5950 N   0  0  0  0  0  0  0  0  0  0  0  0
   60.1910   28.2580   49.8520 C   0  0  0  0  0  0  0  0  0  0  0  0
   59.7300   28.9610   50.9620 C   0  0  0  0  0  0  0  0  0  0  0  0
   59.1760   30.2250   50.7890 C   0  0  0  0  0  0  0  0  0  0  0  0
   59.0900   30.7820   49.5130 C   0  0  0  0  0  0  0  0  0  0  0  0
   58.5280   32.0970   49.3700 N   0  0  0  0  0  0  0  0  0  0  0  0
   59.2700   33.3140   49.2230 C   0  0  0  0  0  0  0  0  0  0  0  0
   59.2810   34.1350   50.1780 O   0  0  0  0  0  0  0  0  0  0  0  0
   60.1050   33.5700   48.0260 C   0  0  0  0  0  0  0  0  0  0  0  0
   61.4850   33.4810   48.0050 C   0  0  0  0  0  0  0  0  0  0  0  0
   61.8810   33.7780   46.7170 C   0  0  0  0  0  0  0  0  0  0  0  0
   60.7320   34.0290   46.0000 C   0  0  0  0  0  0  0  0  0  0  0  0
   59.6500   33.9090   46.7970 N   0  0  0  0  0  0  0  0  0  0  0  0
   58.2640   34.0730   46.3480 C   0  0  0  0  0  0  0  0  0  0  0  0
   57.5370   32.7230   46.2880 C   0  0  0  0  0  0  0  0  0  0  0  0
   57.5110   32.1650   44.8890 C   0  0  0  0  0  0  0  0  0  0  0  0
   58.0710   32.8880   43.8240 C   0  0  0  0  0  0  0  0  0  0  0  0
   58.0040   32.3670   42.5300 C   0  0  0  0  0  0  0  0  0  0  0  0
   57.3960   31.1710   42.3060 N   0  0  0  0  0  0  0  0  0  0  0  0
   56.8410   30.4520   43.3180 C   0  0  0  0  0  0  0  0  0  0  0  0
   56.8850   30.9370   44.6280 C   0  0  0  0  0  0  0  0  0  0  0  0
   59.5100   30.0180   48.4040 C   0  0  0  0  0  0  0  0  0  0  0  0
   59.3270   30.4580   47.2350 O   0  0  0  0  0  0  0  0  0  0  0  0
   58.0150   26.3830   44.4080 C   0  0  0  0  0  0  0  0  0  0  0  0
   58.1230   27.1690   43.0890 C   0  0  0  0  0  0  0  0  0  0  0  0
   57.3690   25.0130   44.1570 C   0  0  0  0  0  0  0  0  0  0  0  0
   54.0505   24.4261   46.5157 H   0  0  0  0  0  0  0  0  0  0  0  0
   53.4325   25.1798   45.0068 H   0  0  0  0  0  0  0  0  0  0  0  0
   55.0216   24.3422   45.0068 H   0  0  0  0  0  0  0  0  0  0  0  0
   56.6626   27.9288   45.0288 H   0  0  0  0  0  0  0  0  0  0  0  0
   58.1300   28.8420   46.5820 H   0  0  0  0  0  0  0  0  0  0  0  0
   61.3440   27.3107   47.7603 H   0  0  0  0  0  0  0  0  0  0  0  0
   60.8838   28.6446   46.6466 H   0  0  0  0  0  0  0  0  0  0  0  0
   60.6453   27.2655   49.9880 H   0  0  0  0  0  0  0  0  0  0  0  0
   59.8033   28.5204   51.9672 H   0  0  0  0  0  0  0  0  0  0  0  0
   58.8052   30.7861   51.6595 H   0  0  0  0  0  0  0  0  0  0  0  0
   62.1396   33.2235   48.8507 H   0  0  0  0  0  0  0  0  0  0  0  0
   62.9128   33.8084   46.3370 H   0  0  0  0  0  0  0  0  0  0  0  0
   60.7010   34.2897   44.9318 H   0  0  0  0  0  0  0  0  0  0  0  0
   57.7352   34.7344   47.0501 H   0  0  0  0  0  0  0  0  0  0  0  0
   58.2742   34.5085   45.3379 H   0  0  0  0  0  0  0  0  0  0  0  0
   58.0546   32.0099   46.9465 H   0  0  0  0  0  0  0  0  0  0  0  0
   56.4980   32.8786   46.6141 H   0  0  0  0  0  0  0  0  0  0  0  0
   58.5585   33.8569   44.0072 H   0  0  0  0  0  0  0  0  0  0  0  0
   58.4438   32.9250   41.6902 H   0  0  0  0  0  0  0  0  0  0  0  0
   56.3568   29.4875   43.1053 H   0  0  0  0  0  0  0  0  0  0  0  0
   56.4323   30.3603   45.4480 H   0  0  0  0  0  0  0  0  0  0  0  0
   59.0418   26.2421   44.7766 H   0  0  0  0  0  0  0  0  0  0  0  0
   58.2697   28.2367   43.3094 H   0  0  0  0  0  0  0  0  0  0  0  0
   58.9780   26.7938   42.5075 H   0  0  0  0  0  0  0  0  0  0  0  0
   57.1985   27.0383   42.5075 H   0  0  0  0  0  0  0  0  0  0  0  0
   57.1424   24.5325   45.1202 H   0  0  0  0  0  0  0  0  0  0  0  0
   56.4385   25.1455   43.5855 H   0  0  0  0  0  0  0  0  0  0  0  0
   58.0632   24.3794   43.5855 H   0  0  0  0  0  0  0  0  0  0  0  0
  1  2  1  0
  2  3  1  0
  3  4  2  0
  3  5  1  0
  5  6  1  0
  6  7  1  0
  7  8  2  0
  7  9  1  0
  9 10  1  0
 10 11  1  0
 11 12  2  0
 12 13  1  0
 13 14  2  0
 14 15  1  0
 15 16  1  0
 16 17  2  0
 16 18  1  0
 18 19  2  0
 19 20  1  0
 20 21  2  0
 21 22  1  0
 22 23  1  0
 23 24  1  0
 24 25  1  0
 25 26  2  0
 26 27  1  0
 27 28  2  0
 28 29  1  0
 29 30  2  0
 14 31  1  0
 31 32  2  0
  5 33  1  0
 33 34  1  0
 33 35  1  0
 31 10  1  0
 22 18  1  0
 30 25  1  0
  1 36  1  0
  1 37  1  0
  1 38  1  0
  5 39  1  6
  6 40  1  0
  9 41  1  0
  9 42  1  0
 11 43  1  0
 12 44  1  0
 13 45  1  0
 19 46  1  0
 20 47  1  0
 21 48  1  0
 23 49  1  0
 23 50  1  0
 24 51  1  0
 24 52  1  0
 26 53  1  0
 27 54  1  0
 29 55  1  0
 30 56  1  0
 33 57  1  0
 34 58  1  0
 34 59  1  0
 34 60  1  0
 35 61  1  0
 35 62  1  0
 35 63  1  0
M  CHG  1  15  -1
M  END
>  <UniqueID>  (36) 
33

>  <SMILES>  (36) 
COC(=O)[C@@H](NC(=O)Cn1cccc([N-]C(=O)c2cccn2CCc2ccncc2)c1=O)C(C)C

>  <Energy>  (36) 
87.94554194557988

>  <Genealogy>  (36) 
COC(=O)C(NC(=O)Cn1cccc([N-]C(=O)c2cccn2CCc2ccncc2)c1=O)C(C)C (protonated)
COC(=O)[C@@H](NC(=O)Cn1cccc([N-]C(=O)c2cccn2CCc2ccncc2)c1=O)C(C)C (chirality)
COC(=O)[C@@H](NC(=O)Cn1cccc([N-]C(=O)c2cccn2CCc2ccncc2)c1=O)C(C)C (3D coordinates assigned)
COC(=O)[C@@H](NC(=O)Cn1cccc([N-]C(=O)c2cccn2CCc2ccncc2)c1=O)C(C)C (optimized conformer: 87.94554194557988 kcal/mol)

>  <smiles>  (36) 
COC(=O)C(NC(=O)Cn1cccc(NC(=O)c2cccn2CCc2ccncc2)c1=O)C(C)C

>  <score_type>  (36) 
oracle

>  <origin>  (36) 
adg

>  <m_score__min__energy>  (36) 
-10.23

>  <m_primary>  (36) 
energy

$$$$
36:0
     RDKit          3D

 52 55  0  0  0  0  0  0  0  0999 V2000
   56.6050   27.3690   46.0070 O   0  0  0  0  0  0  0  0  0  0  0  0
   57.5400   28.2120   46.0070 C   0  0  0  0  0  0  0  0  0  0  0  0
   58.6990   27.9520   46.8130 N   0  0  0  0  0  0  0  0  0  0  0  0
   59.4270   28.8290   47.4490 C   0  0  0  0  0  0  0  0  0  0  0  0
   60.5070   29.5040   46.8450 C   0  0  0  0  0  0  0  0  0  0  0  0
   61.2390   30.4340   47.5880 C   0  0  0  0  0  0  0  0  0  0  0  0
   60.9070   30.6950   48.8800 N   0  0  0  0  0  0  0  0  0  0  0  0
   59.8590   30.0700   49.4820 C   0  0  0  0  0  0  0  0  0  0  0  0
   59.1010   29.1330   48.7760 C   0  0  0  0  0  0  0  0  0  0  0  0
   57.4570   29.3990   45.1190 C   0  0  0  0  0  0  0  0  0  0  0  0
   56.9970   29.2780   43.7960 C   0  0  0  0  0  0  0  0  0  0  0  0
   56.9160   30.4020   42.9700 C   0  0  0  0  0  0  0  0  0  0  0  0
   57.2870   31.6580   43.4550 C   0  0  0  0  0  0  0  0  0  0  0  0
   57.7400   31.7970   44.7720 C   0  0  0  0  0  0  0  0  0  0  0  0
   58.1890   33.3870   45.3930 S   0  0  0  0  0  0  0  0  0  0  0  0
   57.0030   34.0020   46.0860 O   0  0  0  0  0  0  0  0  0  0  0  0
   58.5660   34.2800   44.2440 O   0  0  0  0  0  0  0  0  0  0  0  0
   59.5260   33.2840   46.5130 N   0  0  0  0  0  0  0  0  0  0  0  0
   60.7230   33.8710   45.9090 C   0  0  0  0  0  0  0  0  0  0  0  0
   61.9420   33.6320   46.8030 C   0  0  0  0  0  0  0  0  0  0  0  0
   61.6710   33.7450   48.2550 N   0  0  0  0  0  0  0  0  0  0  0  0
   62.7870   33.6190   49.1930 C   0  0  0  0  0  0  0  0  0  0  0  0
   62.7370   34.2120   50.4790 C   0  0  0  0  0  0  0  0  0  0  0  0
   63.8060   34.0900   51.3720 C   0  0  0  0  0  0  0  0  0  0  0  0
   64.9460   33.3760   51.0110 C   0  0  0  0  0  0  0  0  0  0  0  0
   65.9800   33.2590   51.8800 F   0  0  0  0  0  0  0  0  0  0  0  0
   65.0190   32.7750   49.7550 C   0  0  0  0  0  0  0  0  0  0  0  0
   63.9550   32.8910   48.8550 C   0  0  0  0  0  0  0  0  0  0  0  0
   60.2910   33.8120   48.7880 C   0  0  0  0  0  0  0  0  0  0  0  0
   59.2120   34.0380   47.7280 C   0  0  0  0  0  0  0  0  0  0  0  0
   57.8190   30.6690   45.6020 C   0  0  0  0  0  0  0  0  0  0  0  0
   60.7716   29.3003   45.7969 H   0  0  0  0  0  0  0  0  0  0  0  0
   62.0883   30.9576   47.1249 H   0  0  0  0  0  0  0  0  0  0  0  0
   61.4640   31.3940   49.4210 H   0  0  0  0  0  0  0  0  0  0  0  0
   59.6081   30.3032   50.5273 H   0  0  0  0  0  0  0  0  0  0  0  0
   58.2492   28.6347   49.2620 H   0  0  0  0  0  0  0  0  0  0  0  0
   56.6991   28.2924   43.4088 H   0  0  0  0  0  0  0  0  0  0  0  0
   56.5590   30.2973   41.9348 H   0  0  0  0  0  0  0  0  0  0  0  0
   57.2231   32.5399   42.8006 H   0  0  0  0  0  0  0  0  0  0  0  0
   60.8975   33.4083   44.9264 H   0  0  0  0  0  0  0  0  0  0  0  0
   60.5708   34.9544   45.7943 H   0  0  0  0  0  0  0  0  0  0  0  0
   62.3219   32.6194   46.6023 H   0  0  0  0  0  0  0  0  0  0  0  0
   62.6687   34.4207   46.5582 H   0  0  0  0  0  0  0  0  0  0  0  0
   61.8427   34.7775   50.7797 H   0  0  0  0  0  0  0  0  0  0  0  0
   63.7463   34.5603   52.3646 H   0  0  0  0  0  0  0  0  0  0  0  0
   65.9173   32.2072   49.4709 H   0  0  0  0  0  0  0  0  0  0  0  0
   64.0258   32.4093   47.8686 H   0  0  0  0  0  0  0  0  0  0  0  0
   60.0747   32.8637   49.3017 H   0  0  0  0  0  0  0  0  0  0  0  0
   60.2570   34.6825   49.4596 H   0  0  0  0  0  0  0  0  0  0  0  0
   58.2410   33.7032   48.1218 H   0  0  0  0  0  0  0  0  0  0  0  0
   59.1707   35.1096   47.4829 H   0  0  0  0  0  0  0  0  0  0  0  0
   58.1671   30.7789   46.6397 H   0  0  0  0  0  0  0  0  0  0  0  0
  1  2  2  0
  2  3  1  0
  3  4  2  3
  4  5  1  0
  5  6  2  0
  6  7  1  0
  7  8  1  0
  8  9  2  0
  2 10  1  0
 10 11  2  0
 11 12  1  0
 12 13  2  0
 13 14  1  0
 14 15  1  0
 15 16  2  0
 15 17  2  0
 15 18  1  0
 18 19  1  0
 19 20  1  0
 20 21  1  0
 21 22  1  0
 22 23  2  0
 23 24  1  0
 24 25  2  0
 25 26  1  0
 25 27  1  0
 27 28  2  0
 21 29  1  0
 29 30  1  0
 14 31  2  0
  9  4  1  0
 31 10  1  0
 30 18  1  0
 28 22  1  0
  5 32  1  0
  6 33  1  0
  7 34  1  0
  8 35  1  0
  9 36  1  0
 11 37  1  0
 12 38  1  0
 13 39  1  0
 19 40  1  0
 19 41  1  0
 20 42  1  0
 20 43  1  0
 23 44  1  0
 24 45  1  0
 27 46  1  0
 28 47  1  0
 29 48  1  0
 29 49  1  0
 30 50  1  0
 30 51  1  0
 31 52  1  0
M  END
>  <UniqueID>  (37) 
34

>  <SMILES>  (37) 
O=C(N=c1cc[nH]cc1)c1cccc(S(=O)(=O)N2CCN(c3ccc(F)cc3)CC2)c1

>  <Energy>  (37) 
72.07465634409931

>  <Genealogy>  (37) 
O=C(N=c1cc[nH]cc1)c1cccc(S(=O)(=O)N2CCN(c3ccc(F)cc3)CC2)c1 (3D coordinates assigned)
O=C(N=c1cc[nH]cc1)c1cccc(S(=O)(=O)N2CCN(c3ccc(F)cc3)CC2)c1 (nonaromatic ring conformer: 72.07465634409931 kcal/mol)

>  <smiles>  (37) 
O=C(N=c1cc[nH]cc1)c1cccc(S(=O)(=O)N2CCN(c3ccc(F)cc3)CC2)c1

>  <score_type>  (37) 
oracle

>  <origin>  (37) 
adg

>  <m_score__min__energy>  (37) 
-9.4600000000000009

>  <m_primary>  (37) 
energy

$$$$
37:0
     RDKit          3D

 40 42  0  0  0  0  0  0  0  0999 V2000
   57.9240   33.6230   45.8010 C   0  0  0  0  0  0  0  0  0  0  0  0
   58.7270   32.5260   46.2250 O   0  0  0  0  0  0  0  0  0  0  0  0
   60.0990   32.6080   46.5200 C   0  0  0  0  0  0  0  0  0  0  0  0
   60.7800   33.8420   46.5320 C   0  0  0  0  0  0  0  0  0  0  0  0
   62.1360   33.9000   46.8610 C   0  0  0  0  0  0  0  0  0  0  0  0
   62.8280   32.7340   47.1840 C   0  0  0  0  0  0  0  0  0  0  0  0
   62.1690   31.5040   47.1730 C   0  0  0  0  0  0  0  0  0  0  0  0
   60.8060   31.4250   46.8340 C   0  0  0  0  0  0  0  0  0  0  0  0
   60.1350   30.1030   46.8170 C   0  0  0  0  0  0  0  0  0  0  0  0
   60.4350   29.1630   45.8150 C   0  0  0  0  0  0  0  0  0  0  0  0
   59.8070   27.9140   45.8070 C   0  0  0  0  0  0  0  0  0  0  0  0
   58.8660   27.5870   46.7950 C   0  0  0  0  0  0  0  0  0  0  0  0
   58.2200   26.2310   46.8050 C   0  0  0  0  0  0  0  0  0  0  0  0
   57.2140   26.1740   45.7550 N   0  0  0  0  0  0  0  0  0  0  0  0
   55.9880   26.9180   45.6720 C   0  0  0  0  0  0  0  0  0  0  0  0
   54.9190   26.3350   45.9860 O   0  0  0  0  0  0  0  0  0  0  0  0
   55.9140   28.2880   45.2520 N   0  0  0  0  0  0  0  0  0  0  0  0
   56.8650   29.0090   44.4180 C   0  0  0  0  0  0  0  0  0  0  0  0
   56.1770   29.7560   43.2890 C   0  0  0  0  0  0  0  0  0  0  0  0
   56.7300   30.5200   44.4810 C   0  0  0  0  0  0  0  0  0  0  0  0
   58.5830   28.5140   47.8090 C   0  0  0  0  0  0  0  0  0  0  0  0
   59.2110   29.7630   47.8180 C   0  0  0  0  0  0  0  0  0  0  0  0
   57.5349   34.1546   46.6819 H   0  0  0  0  0  0  0  0  0  0  0  0
   58.5332   34.3114   45.1968 H   0  0  0  0  0  0  0  0  0  0  0  0
   57.0837   33.2504   45.1968 H   0  0  0  0  0  0  0  0  0  0  0  0
   60.2393   34.7663   46.2803 H   0  0  0  0  0  0  0  0  0  0  0  0
   62.6589   34.8677   46.8652 H   0  0  0  0  0  0  0  0  0  0  0  0
   63.8947   32.7834   47.4479 H   0  0  0  0  0  0  0  0  0  0  0  0
   62.7203   30.5880   47.4317 H   0  0  0  0  0  0  0  0  0  0  0  0
   61.1678   29.4118   45.0333 H   0  0  0  0  0  0  0  0  0  0  0  0
   60.0520   27.1836   45.0218 H   0  0  0  0  0  0  0  0  0  0  0  0
   58.9826   25.4586   46.6266 H   0  0  0  0  0  0  0  0  0  0  0  0
   57.7461   26.0540   47.7817 H   0  0  0  0  0  0  0  0  0  0  0  0
   57.7086   28.3089   44.5092 H   0  0  0  0  0  0  0  0  0  0  0  0
   56.6655   29.8401   42.3070 H   0  0  0  0  0  0  0  0  0  0  0  0
   55.1964   29.6882   42.7952 H   0  0  0  0  0  0  0  0  0  0  0  0
   57.6187   31.1571   44.3618 H   0  0  0  0  0  0  0  0  0  0  0  0
   56.3154   31.2344   45.2075 H   0  0  0  0  0  0  0  0  0  0  0  0
   57.8637   28.2571   48.6006 H   0  0  0  0  0  0  0  0  0  0  0  0
   58.9795   30.4847   48.6152 H   0  0  0  0  0  0  0  0  0  0  0  0
  1  2  1  0
  2  3  1  0
  3  4  2  0
  4  5  1  0
  5  6  2  0
  6  7  1  0
  7  8  2  0
  8  9  1  0
  9 10  2  0
 10 11  1  0
 11 12  2  0
 12 13  1  0
 13 14  1  0
 14 15  1  0
 15 16  2  0
 15 17  1  0
 17 18  1  0
 18 19  1  0
 19 20  1  0
 12 21  1  0
 21 22  2  0
  8  3  1  0
 22  9  1  0
 20 18  1  0
  1 23  1  0
  1 24  1  0
  1 25  1  0
  4 26  1  0
  5 27  1  0
  6 28  1  0
  7 29  1  0
 10 30  1  0
 11 31  1  0
 13 32  1  0
 13 33  1  0
 18 34  1  0
 19 35  1  0
 19 36  1  0
 20 37  1  0
 20 38  1  0
 21 39  1  0
 22 40  1  0
M  CHG  2  14  -1  17  -1
M  END
>  <UniqueID>  (38) 
35

>  <SMILES>  (38) 
COc1ccccc1-c1ccc(C[N-]C(=O)[N-]C2CC2)cc1

>  <Energy>  (38) 
311.2934960970943

>  <Genealogy>  (38) 
COc1ccccc1-c1ccc(C[N-]C(=O)[N-]C2CC2)cc1 (protonated)
COc1ccccc1-c1ccc(C[N-]C(=O)[N-]C2CC2)cc1 (3D coordinates assigned)
COc1ccccc1-c1ccc(C[N-]C(=O)[N-]C2CC2)cc1 (nonaromatic ring conformer: 311.2934960970943 kcal/mol)

>  <smiles>  (38) 
COc1ccccc1-c1ccc(CNC(=O)NC2CC2)cc1

>  <score_type>  (38) 
oracle

>  <origin>  (38) 
adg

>  <m_score__min__energy>  (38) 
-10.92

>  <m_primary>  (38) 
energy

$$$$
38:0
     RDKit          3D

 49 51  0  0  0  0  0  0  0  0999 V2000
   60.0970   30.5130   46.8220 C   0  0  0  0  0  0  0  0  0  0  0  0
   59.3240   29.2340   46.6510 C   0  0  0  0  0  0  0  0  0  0  0  0
   59.4730   28.2160   47.6060 C   0  0  0  0  0  0  0  0  0  0  0  0
   58.7460   27.0290   47.4990 C   0  0  0  0  0  0  0  0  0  0  0  0
   57.8550   26.8400   46.4360 C   0  0  0  0  0  0  0  0  0  0  0  0
   56.9530   25.3290   46.2880 S   0  0  0  0  0  0  0  0  0  0  0  0
   55.5100   25.6410   45.9970 O   0  0  0  0  0  0  0  0  0  0  0  0
   57.0130   24.5870   47.5940 O   0  0  0  0  0  0  0  0  0  0  0  0
   57.6020   24.3170   45.0190 N   0  0  0  0  0  0  0  0  0  0  0  0
   56.8880   24.5270   43.7340 C   0  0  0  0  0  0  0  0  0  0  0  0
   55.8890   23.4040   43.4150 C   0  0  0  0  0  0  0  0  0  0  0  0
   56.5920   22.0370   43.3480 C   0  0  0  0  0  0  0  0  0  0  0  0
   57.8140   21.9500   44.2800 C   0  0  0  0  0  0  0  0  0  0  0  0
   57.6700   22.9080   45.4670 C   0  0  0  0  0  0  0  0  0  0  0  0
   57.7040   27.8480   45.4760 C   0  0  0  0  0  0  0  0  0  0  0  0
   58.4560   29.0250   45.5520 C   0  0  0  0  0  0  0  0  0  0  0  0
   58.2930   30.0030   44.5170 N   0  0  0  0  0  0  0  0  0  0  0  0
   57.1980   30.9220   44.4530 C   0  0  0  0  0  0  0  0  0  0  0  0
   56.0520   30.5810   44.8530 O   0  0  0  0  0  0  0  0  0  0  0  0
   57.4380   32.3250   43.9980 C   0  0  0  0  0  0  0  0  0  0  0  0
   58.0470   33.1270   45.1160 C   0  0  0  0  0  0  0  0  0  0  0  0
   57.7760   32.7970   46.4540 C   0  0  0  0  0  0  0  0  0  0  0  0
   58.3760   33.5180   47.4920 C   0  0  0  0  0  0  0  0  0  0  0  0
   59.2550   34.5650   47.2010 C   0  0  0  0  0  0  0  0  0  0  0  0
   59.5390   34.8910   45.8720 C   0  0  0  0  0  0  0  0  0  0  0  0
   58.9410   34.1730   44.8310 C   0  0  0  0  0  0  0  0  0  0  0  0
   60.2244   30.7239   47.8940 H   0  0  0  0  0  0  0  0  0  0  0  0
   61.0846   30.4107   46.3485 H   0  0  0  0  0  0  0  0  0  0  0  0
   59.5473   31.3398   46.3485 H   0  0  0  0  0  0  0  0  0  0  0  0
   60.1690   28.3549   48.4464 H   0  0  0  0  0  0  0  0  0  0  0  0
   58.8739   26.2387   48.2534 H   0  0  0  0  0  0  0  0  0  0  0  0
   56.3401   25.4793   43.7884 H   0  0  0  0  0  0  0  0  0  0  0  0
   57.6430   24.5344   42.9341 H   0  0  0  0  0  0  0  0  0  0  0  0
   55.1199   23.3739   44.2009 H   0  0  0  0  0  0  0  0  0  0  0  0
   55.4340   23.6103   42.4350 H   0  0  0  0  0  0  0  0  0  0  0  0
   55.8725   21.2569   43.6376 H   0  0  0  0  0  0  0  0  0  0  0  0
   56.9503   21.8983   42.3173 H   0  0  0  0  0  0  0  0  0  0  0  0
   57.9056   20.9209   44.6576 H   0  0  0  0  0  0  0  0  0  0  0  0
   58.7106   22.2328   43.7088 H   0  0  0  0  0  0  0  0  0  0  0  0
   56.7488   22.6621   46.0156 H   0  0  0  0  0  0  0  0  0  0  0  0
   58.5523   22.7927   46.1138 H   0  0  0  0  0  0  0  0  0  0  0  0
   56.9864   27.7129   44.6533 H   0  0  0  0  0  0  0  0  0  0  0  0
   58.1241   32.3176   43.1382 H   0  0  0  0  0  0  0  0  0  0  0  0
   56.4805   32.7802   43.7046 H   0  0  0  0  0  0  0  0  0  0  0  0
   57.0900   31.9692   46.6865 H   0  0  0  0  0  0  0  0  0  0  0  0
   58.1557   33.2606   48.5385 H   0  0  0  0  0  0  0  0  0  0  0  0
   59.7235   35.1327   48.0184 H   0  0  0  0  0  0  0  0  0  0  0  0
   60.2335   35.7131   45.6443 H   0  0  0  0  0  0  0  0  0  0  0  0
   59.1713   34.4280   43.7860 H   0  0  0  0  0  0  0  0  0  0  0  0
  1  2  1  0
  2  3  2  0
  3  4  1  0
  4  5  2  0
  5  6  1  0
  6  7  2  0
  6  8  2  0
  6  9  1  0
  9 10  1  0
 10 11  1  0
 11 12  1  0
 12 13  1  0
 13 14  1  0
  5 15  1  0
 15 16  2  0
 16 17  1  0
 17 18  1  0
 18 19  2  0
 18 20  1  0
 20 21  1  0
 21 22  2  0
 22 23  1  0
 23 24  2  0
 24 25  1  0
 25 26  2  0
 16  2  1  0
 26 21  1  0
 14  9  1  0
  1 27  1  0
  1 28  1  0
  1 29  1  0
  3 30  1  0
  4 31  1  0
 10 32  1  0
 10 33  1  0
 11 34  1  0
 11 35  1  0
 12 36  1  0
 12 37  1  0
 13 38  1  0
 13 39  1  0
 14 40  1  0
 14 41  1  0
 15 42  1  0
 20 43  1  0
 20 44  1  0
 22 45  1  0
 23 46  1  0
 24 47  1  0
 25 48  1  0
 26 49  1  0
M  CHG  1  17  -1
M  END
>  <UniqueID>  (39) 
36

>  <SMILES>  (39) 
Cc1ccc(S(=O)(=O)N2CCCCC2)cc1[N-]C(=O)Cc1ccccc1

>  <Energy>  (39) 
58.61142409305214

>  <Genealogy>  (39) 
Cc1ccc(S(=O)(=O)N2CCCCC2)cc1[N-]C(=O)Cc1ccccc1 (protonated)
Cc1ccc(S(=O)(=O)N2CCCCC2)cc1[N-]C(=O)Cc1ccccc1 (3D coordinates assigned)
Cc1ccc(S(=O)(=O)N2CCCCC2)cc1[N-]C(=O)Cc1ccccc1 (nonaromatic ring conformer: 58.61142409305214 kcal/mol)

>  <smiles>  (39) 
Cc1ccc(S(=O)(=O)N2CCCCC2)cc1NC(=O)Cc1ccccc1

>  <score_type>  (39) 
oracle

>  <origin>  (39) 
adg

>  <m_score__min__energy>  (39) 
-11.470000000000001

>  <m_primary>  (39) 
energy

$$$$
39:0
     RDKit          3D

 39 41  0  0  0  0  0  0  0  0999 V2000
   54.7020   26.3030   45.9980 N   0  0  0  0  0  0  0  0  0  0  0  0
   56.2760   25.5900   46.0160 S   0  0  0  0  0  0  0  0  0  0  0  0
   56.5860   25.1180   47.4090 O   0  0  0  0  0  0  0  0  0  0  0  0
   56.3070   24.4110   45.0850 O   0  0  0  0  0  0  0  0  0  0  0  0
   57.4650   26.7800   45.4950 C   0  0  0  0  0  0  0  0  0  0  0  0
   58.1730   26.6130   44.2970 C   0  0  0  0  0  0  0  0  0  0  0  0
   59.1120   27.5670   43.8990 C   0  0  0  0  0  0  0  0  0  0  0  0
   59.3610   28.6870   44.7000 C   0  0  0  0  0  0  0  0  0  0  0  0
   58.6750   28.8500   45.9160 C   0  0  0  0  0  0  0  0  0  0  0  0
   58.8860   29.9800   46.7720 N   0  0  0  0  0  0  0  0  0  0  0  0
   59.8960   30.9920   46.6560 C   0  0  0  0  0  0  0  0  0  0  0  0
   61.0980   30.6730   46.4480 O   0  0  0  0  0  0  0  0  0  0  0  0
   59.5310   32.4220   46.8010 C   0  0  0  0  0  0  0  0  0  0  0  0
   60.0020   33.1250   47.9270 C   0  0  0  0  0  0  0  0  0  0  0  0
   59.7480   34.4890   48.0740 C   0  0  0  0  0  0  0  0  0  0  0  0
   59.0210   35.1750   47.1030 C   0  0  0  0  0  0  0  0  0  0  0  0
   58.5290   34.4950   45.9890 C   0  0  0  0  0  0  0  0  0  0  0  0
   58.7600   33.1180   45.8290 C   0  0  0  0  0  0  0  0  0  0  0  0
   58.1380   32.4330   44.6720 C   0  0  0  0  0  0  0  0  0  0  0  0
   57.1880   31.4170   44.8740 C   0  0  0  0  0  0  0  0  0  0  0  0
   56.6230   30.7540   43.7800 C   0  0  0  0  0  0  0  0  0  0  0  0
   56.9930   31.1070   42.4800 C   0  0  0  0  0  0  0  0  0  0  0  0
   57.9250   32.1290   42.2710 C   0  0  0  0  0  0  0  0  0  0  0  0
   58.4930   32.7940   43.3620 C   0  0  0  0  0  0  0  0  0  0  0  0
   57.7150   27.9030   46.2940 C   0  0  0  0  0  0  0  0  0  0  0  0
   54.7130   27.0890   46.6880 H   0  0  0  0  0  0  0  0  0  0  0  0
   57.9887   25.7288   43.6691 H   0  0  0  0  0  0  0  0  0  0  0  0
   59.6577   27.4376   42.9527 H   0  0  0  0  0  0  0  0  0  0  0  0
   60.0944   29.4408   44.3777 H   0  0  0  0  0  0  0  0  0  0  0  0
   60.5766   32.5926   48.6992 H   0  0  0  0  0  0  0  0  0  0  0  0
   60.1227   35.0244   48.9589 H   0  0  0  0  0  0  0  0  0  0  0  0
   58.8351   36.2534   47.2151 H   0  0  0  0  0  0  0  0  0  0  0  0
   57.9540   35.0424   45.2275 H   0  0  0  0  0  0  0  0  0  0  0  0
   56.8879   31.1425   45.8960 H   0  0  0  0  0  0  0  0  0  0  0  0
   55.8864   29.9536   43.9433 H   0  0  0  0  0  0  0  0  0  0  0  0
   56.5514   30.5812   41.6206 H   0  0  0  0  0  0  0  0  0  0  0  0
   58.2115   32.4099   41.2468 H   0  0  0  0  0  0  0  0  0  0  0  0
   59.2200   33.6022   43.1938 H   0  0  0  0  0  0  0  0  0  0  0  0
   57.1513   28.0425   47.2282 H   0  0  0  0  0  0  0  0  0  0  0  0
  1  2  1  0
  2  3  2  0
  2  4  2  0
  2  5  1  0
  5  6  2  0
  6  7  1  0
  7  8  2  0
  8  9  1  0
  9 10  1  0
 10 11  1  0
 11 12  2  0
 11 13  1  0
 13 14  2  0
 14 15  1  0
 15 16  2  0
 16 17  1  0
 17 18  2  0
 18 19  1  0
 19 20  2  0
 20 21  1  0
 21 22  2  0
 22 23  1  0
 23 24  2  0
  9 25  2  0
 25  5  1  0
 18 13  1  0
 24 19  1  0
  1 26  1  0
  6 27  1  0
  7 28  1  0
  8 29  1  0
 14 30  1  0
 15 31  1  0
 16 32  1  0
 17 33  1  0
 20 34  1  0
 21 35  1  0
 22 36  1  0
 23 37  1  0
 24 38  1  0
 25 39  1  0
M  CHG  2   1  -1  10  -1
M  END
>  <UniqueID>  (40) 
37

>  <SMILES>  (40) 
[NH-]S(=O)(=O)c1cccc([N-]C(=O)c2ccccc2-c2ccccc2)c1

>  <Energy>  (40) 
54.921897278930004

>  <Genealogy>  (40) 
[NH-]S(=O)(=O)c1cccc([N-]C(=O)c2ccccc2-c2ccccc2)c1 (protonated)
[NH-]S(=O)(=O)c1cccc([N-]C(=O)c2ccccc2-c2ccccc2)c1 (3D coordinates assigned)
[NH-]S(=O)(=O)c1cccc([N-]C(=O)c2ccccc2-c2ccccc2)c1 (optimized conformer: 54.921897278930004 kcal/mol)

>  <smiles>  (40) 
NS(=O)(=O)c1cccc(NC(=O)c2ccccc2-c2ccccc2)c1

>  <score_type>  (40) 
oracle

>  <origin>  (40) 
adg

>  <m_score__min__energy>  (40) 
-13.039999999999999

>  <m_primary>  (40) 
energy

$$$$
40:0
     RDKit          3D

 38 40  0  0  0  0  0  0  0  0999 V2000
   58.2696   25.8949   44.0762 H   0  0  0  0  0  0  0  0  0  0  0  0
   57.4020   25.2710   44.3370 C   0  0  0  0  0  0  0  0  0  0  0  0
   57.2550   24.0050   43.7580 C   0  0  0  0  0  0  0  0  0  0  0  0
   57.9989   23.6449   43.0321 H   0  0  0  0  0  0  0  0  0  0  0  0
   56.1590   23.1910   44.1010 C   0  0  0  0  0  0  0  0  0  0  0  0
   55.9660   21.9170   43.5480 O   0  0  0  0  0  0  0  0  0  0  0  0
   57.0070   21.1090   43.0070 C   0  0  0  0  0  0  0  0  0  0  0  0
   57.5861   20.6595   43.8271 H   0  0  0  0  0  0  0  0  0  0  0  0
   56.5687   20.3123   42.3881 H   0  0  0  0  0  0  0  0  0  0  0  0
   57.6701   21.7313   42.3881 H   0  0  0  0  0  0  0  0  0  0  0  0
   55.2260   23.6600   45.0330 C   0  0  0  0  0  0  0  0  0  0  0  0
   54.3697   23.0286   45.3123 H   0  0  0  0  0  0  0  0  0  0  0  0
   55.3730   24.9240   45.6120 C   0  0  0  0  0  0  0  0  0  0  0  0
   54.6416   25.2726   46.3560 H   0  0  0  0  0  0  0  0  0  0  0  0
   56.4450   25.7490   45.2510 C   0  0  0  0  0  0  0  0  0  0  0  0
   56.5740   27.0290   45.8940 N   0  0  0  0  0  0  0  0  0  0  0  0
   56.6230   28.1890   45.3090 C   0  0  0  0  0  0  0  0  0  0  0  0
   55.5620   29.0150   45.1570 N   0  0  0  0  0  0  0  0  0  0  0  0
   55.8800   30.1630   44.5620 N   0  0  0  0  0  0  0  0  0  0  0  0
   57.1920   30.2510   44.2510 C   0  0  0  0  0  0  0  0  0  0  0  0
   57.9220   31.6660   43.4390 S   0  0  0  0  0  0  0  0  0  0  0  0
   58.6000   32.3020   44.9700 C   0  0  0  0  0  0  0  0  0  0  0  0
   59.2700   31.4450   45.8510 C   0  0  0  0  0  0  0  0  0  0  0  0
   59.3845   30.3801   45.6003 H   0  0  0  0  0  0  0  0  0  0  0  0
   59.7940   31.9400   47.0490 C   0  0  0  0  0  0  0  0  0  0  0  0
   60.3225   31.2638   47.7371 H   0  0  0  0  0  0  0  0  0  0  0  0
   59.6480   33.2950   47.3760 C   0  0  0  0  0  0  0  0  0  0  0  0
   60.3210   33.9210   48.8770 S   0  0  0  0  0  0  0  0  0  0  0  0
   59.3970   34.9550   49.4570 O   0  0  0  0  0  0  0  0  0  0  0  0
   61.6530   34.5640   48.6080 O   0  0  0  0  0  0  0  0  0  0  0  0
   60.5230   32.6290   50.0060 N   0  0  0  0  0  0  0  0  0  0  0  0
   61.2250   31.9720   49.5960 H   0  0  0  0  0  0  0  0  0  0  0  0
   60.9560   33.0380   50.8640 H   0  0  0  0  0  0  0  0  0  0  0  0
   58.9870   34.1550   46.4860 C   0  0  0  0  0  0  0  0  0  0  0  0
   58.8800   35.2219   46.7314 H   0  0  0  0  0  0  0  0  0  0  0  0
   58.4640   33.6590   45.2880 C   0  0  0  0  0  0  0  0  0  0  0  0
   57.9446   34.3361   44.5938 H   0  0  0  0  0  0  0  0  0  0  0  0
   58.0410   28.8720   44.7170 S   0  0  0  0  0  0  0  0  0  0  0  0
  1  2  1  0
  2  3  2  0
  3  4  1  0
  3  5  1  0
  5  6  1  0
  6  7  1  0
  7  8  1  0
  7  9  1  0
  7 10  1  0
  5 11  2  0
 11 12  1  0
 11 13  1  0
 13 14  1  0
 13 15  2  0
 15 16  1  0
 16 17  2  0
 17 18  1  0
 18 19  1  0
 19 20  2  0
 20 21  1  0
 21 22  1  0
 22 23  2  0
 23 24  1  0
 23 25  1  0
 25 26  1  0
 25 27  2  0
 27 28  1  0
 28 29  2  0
 28 30  2  0
 28 31  1  0
 31 32  1  0
 31 33  1  0
 27 34  1  0
 34 35  1  0
 34 36  2  0
 36 37  1  0
 20 38  1  0
 15  2  1  0
 38 17  1  0
 36 22  1  0
M  CHG  1  18  -1
M  END
>  <UniqueID>  (41) 
38

>  <SMILES>  (41) 
COc1ccc(/N=c2\[n-]nc(Sc3ccc(S(N)(=O)=O)cc3)s2)cc1

>  <Energy>  (41) 
74.4212125559606

>  <Genealogy>  (41) 
COc1ccc(N=c2[n-]nc(Sc3ccc(S(N)(=O)=O)cc3)s2)cc1 (protonated)
COc1ccc(/N=c2\[n-]nc(Sc3ccc(S(N)(=O)=O)cc3)s2)cc1 (cis-trans isomerization)
COc1ccc(/N=c2\[n-]nc(Sc3ccc(S(N)(=O)=O)cc3)s2)cc1 (3D coordinates assigned)
COc1ccc(/N=c2\[n-]nc(Sc3ccc(S(N)(=O)=O)cc3)s2)cc1 (optimized conformer: 74.4212125559606 kcal/mol)

>  <smiles>  (41) 
COc1ccc(N=c2[nH]nc(Sc3ccc(S(N)(=O)=O)cc3)s2)cc1

>  <score_type>  (41) 
oracle

>  <origin>  (41) 
adg

>  <m_score__min__energy>  (41) 
-10.039999999999999

>  <m_primary>  (41) 
energy

$$$$
41:0
     RDKit          3D

 33 34  0  0  0  0  0  0  0  0999 V2000
   59.1192   36.0708   47.1645 H   0  0  0  0  0  0  0  0  0  0  0  0
   59.3180   34.9900   47.1170 C   0  0  0  0  0  0  0  0  0  0  0  0
   59.1920   34.0210   45.7440 S   0  0  0  0  0  0  0  0  0  0  0  0
   59.6290   32.6240   46.5640 C   0  0  0  0  0  0  0  0  0  0  0  0
   59.7480   31.4620   45.9920 N   0  0  0  0  0  0  0  0  0  0  0  0
   60.4060   30.3210   46.5540 C   0  0  0  0  0  0  0  0  0  0  0  0
   61.1310   30.4770   47.5720 O   0  0  0  0  0  0  0  0  0  0  0  0
   60.4100   28.9980   45.8320 C   0  0  0  0  0  0  0  0  0  0  0  0
   61.1580   28.3412   46.3000 H   0  0  0  0  0  0  0  0  0  0  0  0
   60.6510   29.1900   44.7760 H   0  0  0  0  0  0  0  0  0  0  0  0
   59.0630   28.3160   45.8840 C   0  0  0  0  0  0  0  0  0  0  0  0
   58.9360   27.0510   46.4740 C   0  0  0  0  0  0  0  0  0  0  0  0
   59.8213   26.5539   46.8971 H   0  0  0  0  0  0  0  0  0  0  0  0
   57.6930   26.4180   46.5280 C   0  0  0  0  0  0  0  0  0  0  0  0
   57.6041   25.4279   46.9990 H   0  0  0  0  0  0  0  0  0  0  0  0
   56.5530   27.0380   45.9840 C   0  0  0  0  0  0  0  0  0  0  0  0
   55.2860   26.4340   46.0240 O   0  0  0  0  0  0  0  0  0  0  0  0
   55.0080   25.1120   45.5720 C   0  0  0  0  0  0  0  0  0  0  0  0
   54.8687   24.4497   46.4392 H   0  0  0  0  0  0  0  0  0  0  0  0
   54.0914   25.1176   44.9639 H   0  0  0  0  0  0  0  0  0  0  0  0
   55.8492   24.7479   44.9639 H   0  0  0  0  0  0  0  0  0  0  0  0
   56.6720   28.2980   45.3780 C   0  0  0  0  0  0  0  0  0  0  0  0
   55.5190   28.8910   44.8410 O   0  0  0  0  0  0  0  0  0  0  0  0
   55.5190   30.0370   43.9960 C   0  0  0  0  0  0  0  0  0  0  0  0
   56.5561   30.3321   43.7784 H   0  0  0  0  0  0  0  0  0  0  0  0
   55.0005   29.7991   43.0555 H   0  0  0  0  0  0  0  0  0  0  0  0
   55.0005   30.8651   44.5013 H   0  0  0  0  0  0  0  0  0  0  0  0
   57.9310   28.9290   45.3230 C   0  0  0  0  0  0  0  0  0  0  0  0
   58.0278   29.9107   44.8362 H   0  0  0  0  0  0  0  0  0  0  0  0
   59.8930   32.8760   47.8670 N   0  0  0  0  0  0  0  0  0  0  0  0
   60.2420   32.1740   48.5540 H   0  0  0  0  0  0  0  0  0  0  0  0
   59.7170   34.1860   48.1800 C   0  0  0  0  0  0  0  0  0  0  0  0
   59.8774   34.5802   49.1943 H   0  0  0  0  0  0  0  0  0  0  0  0
  1  2  1  0
  2  3  1  0
  3  4  1  0
  4  5  2  0
  5  6  1  0
  6  7  2  0
  6  8  1  0
  8  9  1  0
  8 10  1  0
  8 11  1  0
 11 12  2  0
 12 13  1  0
 12 14  1  0
 14 15  1  0
 14 16  2  0
 16 17  1  0
 17 18  1  0
 18 19  1  0
 18 20  1  0
 18 21  1  0
 16 22  1  0
 22 23  1  0
 23 24  1  0
 24 25  1  0
 24 26  1  0
 24 27  1  0
 22 28  2  0
 28 29  1  0
  4 30  1  0
 30 31  1  0
 30 32  1  0
 32 33  1  0
 32  2  2  0
 28 11  1  0
M  END
>  <UniqueID>  (42) 
39

>  <SMILES>  (42) 
COc1ccc(CC(=O)/N=c2\[nH]ccs2)cc1OC

>  <Energy>  (42) 
68.76031248255745

>  <Genealogy>  (42) 
COc1ccc(CC(=O)/N=c2\[nH]ccs2)cc1OC (cis-trans isomerization)
COc1ccc(CC(=O)/N=c2\[nH]ccs2)cc1OC (3D coordinates assigned)
COc1ccc(CC(=O)/N=c2\[nH]ccs2)cc1OC (optimized conformer: 68.76031248255745 kcal/mol)

>  <smiles>  (42) 
COc1ccc(CC(=O)N=c2[nH]ccs2)cc1OC

>  <score_type>  (42) 
oracle

>  <origin>  (42) 
adg

>  <m_score__min__energy>  (42) 
-6.3099999999999996

>  <m_primary>  (42) 
energy

$$$$
42:0
     RDKit          3D

 43 45  0  0  0  0  0  0  0  0999 V2000
   62.0970   32.1400   47.5240 C   0  0  0  0  0  0  0  0  0  0  0  0
   60.8110   32.7430   47.1570 N   0  0  0  0  0  0  0  0  0  0  0  0
   60.4580   34.0440   47.6790 C   0  0  0  0  0  0  0  0  0  0  0  0
   61.1930   34.6090   48.5340 O   0  0  0  0  0  0  0  0  0  0  0  0
   59.1920   34.7210   47.2450 C   0  0  0  0  0  0  0  0  0  0  0  0
   58.9800   34.4820   45.4540 S   0  0  0  0  0  0  0  0  0  0  0  0
   58.8880   32.6960   45.6110 C   0  0  0  0  0  0  0  0  0  0  0  0
   57.8570   32.0020   44.9720 C   0  0  0  0  0  0  0  0  0  0  0  0
   57.7950   30.6100   45.0490 C   0  0  0  0  0  0  0  0  0  0  0  0
   58.7590   29.8920   45.7750 C   0  0  0  0  0  0  0  0  0  0  0  0
   58.6760   28.4140   45.8580 C   0  0  0  0  0  0  0  0  0  0  0  0
   59.7390   27.7350   45.8680 O   0  0  0  0  0  0  0  0  0  0  0  0
   57.4050   27.7470   45.9460 N   0  0  0  0  0  0  0  0  0  0  0  0
   57.2780   26.2930   45.7970 C   0  0  2  0  0  0  0  0  0  0  0  0
   57.7220   25.8710   44.3830 C   0  0  0  0  0  0  0  0  0  0  0  0
   57.5080   24.3970   44.1490 C   0  0  0  0  0  0  0  0  0  0  0  0
   56.5360   23.9550   43.2340 C   0  0  0  0  0  0  0  0  0  0  0  0
   56.3220   22.5860   43.0400 C   0  0  0  0  0  0  0  0  0  0  0  0
   57.0700   21.6510   43.7620 C   0  0  0  0  0  0  0  0  0  0  0  0
   58.0320   22.0830   44.6790 C   0  0  0  0  0  0  0  0  0  0  0  0
   58.2490   23.4510   44.8750 C   0  0  0  0  0  0  0  0  0  0  0  0
   55.8570   25.8710   46.0640 C   0  0  0  0  0  0  0  0  0  0  0  0
   54.9240   26.7150   46.0020 O   0  0  0  0  0  0  0  0  0  0  0  0
   55.5660   24.5520   46.3860 O   0  0  0  0  0  0  0  0  0  0  0  0
   59.7700   30.5990   46.4520 C   0  0  0  0  0  0  0  0  0  0  0  0
   59.8440   32.0030   46.3750 C   0  0  0  0  0  0  0  0  0  0  0  0
   62.1835   32.0994   48.6198 H   0  0  0  0  0  0  0  0  0  0  0  0
   62.1546   31.1210   47.1137 H   0  0  0  0  0  0  0  0  0  0  0  0
   62.9172   32.7474   47.1137 H   0  0  0  0  0  0  0  0  0  0  0  0
   58.3367   34.2824   47.7798 H   0  0  0  0  0  0  0  0  0  0  0  0
   59.2467   35.7956   47.4737 H   0  0  0  0  0  0  0  0  0  0  0  0
   57.0921   32.5546   44.4067 H   0  0  0  0  0  0  0  0  0  0  0  0
   56.9844   30.0708   44.5368 H   0  0  0  0  0  0  0  0  0  0  0  0
   56.5530   28.3140   46.1560 H   0  0  0  0  0  0  0  0  0  0  0  0
   57.9294   25.7925   46.5286 H   0  0  0  0  0  0  0  0  0  0  0  0
   57.1393   26.4380   43.6421 H   0  0  0  0  0  0  0  0  0  0  0  0
   58.7970   26.0819   44.2835 H   0  0  0  0  0  0  0  0  0  0  0  0
   55.9418   24.6881   42.6688 H   0  0  0  0  0  0  0  0  0  0  0  0
   55.5646   22.2450   42.3188 H   0  0  0  0  0  0  0  0  0  0  0  0
   56.9012   20.5750   43.6082 H   0  0  0  0  0  0  0  0  0  0  0  0
   58.6192   21.3466   45.2473 H   0  0  0  0  0  0  0  0  0  0  0  0
   59.0037   23.7871   45.6013 H   0  0  0  0  0  0  0  0  0  0  0  0
   60.5117   30.0479   47.0488 H   0  0  0  0  0  0  0  0  0  0  0  0
  1  2  1  0
  2  3  1  0
  3  4  2  0
  3  5  1  0
  5  6  1  0
  6  7  1  0
  7  8  2  0
  8  9  1  0
  9 10  2  0
 10 11  1  0
 11 12  2  0
 11 13  1  0
 13 14  1  0
 14 15  1  0
 15 16  1  0
 16 17  2  0
 17 18  1  0
 18 19  2  0
 19 20  1  0
 20 21  2  0
 14 22  1  0
 22 23  2  0
 22 24  1  0
 10 25  1  0
 25 26  2  0
 26  2  1  0
 26  7  1  0
 21 16  1  0
  1 27  1  0
  1 28  1  0
  1 29  1  0
  5 30  1  0
  5 31  1  0
  8 32  1  0
  9 33  1  0
 13 34  1  0
 14 35  1  1
 15 36  1  0
 15 37  1  0
 17 38  1  0
 18 39  1  0
 19 40  1  0
 20 41  1  0
 21 42  1  0
 25 43  1  0
M  CHG  1  24  -1
M  END
>  <UniqueID>  (43) 
40

>  <SMILES>  (43) 
CN1C(=O)CSc2ccc(C(=O)N[C@H](Cc3ccccc3)C(=O)[O-])cc21

>  <Energy>  (43) 
49.87947033183435

>  <Genealogy>  (43) 
CN1C(=O)CSc2ccc(C(=O)NC(Cc3ccccc3)C(=O)[O-])cc21 (protonated)
CN1C(=O)CSc2ccc(C(=O)N[C@H](Cc3ccccc3)C(=O)[O-])cc21 (chirality)
CN1C(=O)CSc2ccc(C(=O)N[C@H](Cc3ccccc3)C(=O)[O-])cc21 (3D coordinates assigned)
CN1C(=O)CSc2ccc(C(=O)N[C@H](Cc3ccccc3)C(=O)[O-])cc21 (nonaromatic ring conformer: 49.87947033183435 kcal/mol)

>  <smiles>  (43) 
CN1C(=O)CSc2ccc(C(=O)NC(Cc3ccccc3)C(=O)O)cc21

>  <score_type>  (43) 
oracle

>  <origin>  (43) 
adg

>  <m_score__min__energy>  (43) 
-11.57

>  <m_primary>  (43) 
energy

$$$$
43:0
     RDKit          3D

 60 63  0  0  0  0  0  0  0  0999 V2000
   54.0640   30.2660   52.2310 C   0  0  0  0  0  0  0  0  0  0  0  0
   54.6960   30.2680   53.6200 C   0  0  0  0  0  0  0  0  0  0  0  0
   55.9920   30.8670   53.5900 O   0  0  0  0  0  0  0  0  0  0  0  0
   56.8700   30.8610   52.4940 C   0  0  0  0  0  0  0  0  0  0  0  0
   57.6030   29.6970   52.2390 C   0  0  0  0  0  0  0  0  0  0  0  0
   58.4940   29.6380   51.1620 C   0  0  0  0  0  0  0  0  0  0  0  0
   58.6670   30.7460   50.3200 C   0  0  0  0  0  0  0  0  0  0  0  0
   59.6400   30.6820   49.2630 N   0  0  0  0  0  0  0  0  0  0  0  0
   59.6870   31.6030   48.1630 C   0  0  0  0  0  0  0  0  0  0  0  0
   58.6140   31.9970   47.6320 O   0  0  0  0  0  0  0  0  0  0  0  0
   60.9900   32.1470   47.7160 C   0  0  0  0  0  0  0  0  0  0  0  0
   62.0350   31.2280   47.5040 C   0  0  0  0  0  0  0  0  0  0  0  0
   63.3130   31.6630   47.1520 C   0  0  0  0  0  0  0  0  0  0  0  0
   63.5700   33.0230   47.0040 C   0  0  0  0  0  0  0  0  0  0  0  0
   62.5470   33.9520   47.1920 C   0  0  0  0  0  0  0  0  0  0  0  0
   61.2470   33.5370   47.5390 C   0  0  0  0  0  0  0  0  0  0  0  0
   60.1760   34.6030   47.5970 C   0  0  0  0  0  0  0  0  0  0  0  0
   59.8760   35.2720   45.9250 S   0  0  0  0  0  0  0  0  0  0  0  0
   58.5460   34.1370   45.5440 C   0  0  0  0  0  0  0  0  0  0  0  0
   57.3200   34.1870   46.0980 N   0  0  0  0  0  0  0  0  0  0  0  0
   56.6430   33.1730   45.5830 N   0  0  0  0  0  0  0  0  0  0  0  0
   57.4840   32.5500   44.7340 C   0  0  0  0  0  0  0  0  0  0  0  0
   57.1610   31.3020   43.9790 C   0  0  0  0  0  0  0  0  0  0  0  0
   56.7920   30.2420   44.8590 O   0  0  0  0  0  0  0  0  0  0  0  0
   57.6120   29.1560   45.2020 C   0  0  0  0  0  0  0  0  0  0  0  0
   57.6930   27.9870   44.4210 C   0  0  0  0  0  0  0  0  0  0  0  0
   58.5560   26.9550   44.7930 C   0  0  0  0  0  0  0  0  0  0  0  0
   59.3490   27.0760   45.9370 C   0  0  0  0  0  0  0  0  0  0  0  0
   59.2690   28.2360   46.7320 C   0  0  0  0  0  0  0  0  0  0  0  0
   60.0450   28.4170   47.8860 O   0  0  0  0  0  0  0  0  0  0  0  0
   60.3720   27.3820   48.8050 C   0  0  0  0  0  0  0  0  0  0  0  0
   58.3880   29.2580   46.3610 C   0  0  0  0  0  0  0  0  0  0  0  0
   58.6560   33.1360   44.7080 O   0  0  0  0  0  0  0  0  0  0  0  0
   57.9410   31.9220   50.5850 C   0  0  0  0  0  0  0  0  0  0  0  0
   57.0470   31.9770   51.6560 C   0  0  0  0  0  0  0  0  0  0  0  0
   52.9682   30.2625   52.3268 H   0  0  0  0  0  0  0  0  0  0  0  0
   54.3813   31.1652   51.6825 H   0  0  0  0  0  0  0  0  0  0  0  0
   54.3870   29.3689   51.6825 H   0  0  0  0  0  0  0  0  0  0  0  0
   54.0525   30.8365   54.3075 H   0  0  0  0  0  0  0  0  0  0  0  0
   54.7980   29.2271   53.9609 H   0  0  0  0  0  0  0  0  0  0  0  0
   57.4776   28.8202   52.8913 H   0  0  0  0  0  0  0  0  0  0  0  0
   59.0631   28.7156   50.9743 H   0  0  0  0  0  0  0  0  0  0  0  0
   60.4140   29.9840   49.3420 H   0  0  0  0  0  0  0  0  0  0  0  0
   61.8411   30.1512   47.6175 H   0  0  0  0  0  0  0  0  0  0  0  0
   64.1180   30.9308   46.9913 H   0  0  0  0  0  0  0  0  0  0  0  0
   64.5811   33.3654   46.7385 H   0  0  0  0  0  0  0  0  0  0  0  0
   62.7587   35.0242   47.0674 H   0  0  0  0  0  0  0  0  0  0  0  0
   59.2456   34.1647   47.9871 H   0  0  0  0  0  0  0  0  0  0  0  0
   60.5092   35.4162   48.2586 H   0  0  0  0  0  0  0  0  0  0  0  0
   56.3254   31.5049   43.2930 H   0  0  0  0  0  0  0  0  0  0  0  0
   58.0575   30.9929   43.4216 H   0  0  0  0  0  0  0  0  0  0  0  0
   57.0752   27.8870   43.5164 H   0  0  0  0  0  0  0  0  0  0  0  0
   58.6121   26.0418   44.1824 H   0  0  0  0  0  0  0  0  0  0  0  0
   60.0366   26.2644   46.2171 H   0  0  0  0  0  0  0  0  0  0  0  0
   60.2544   27.7542   49.8334 H   0  0  0  0  0  0  0  0  0  0  0  0
   59.7008   26.5251   48.6462 H   0  0  0  0  0  0  0  0  0  0  0  0
   61.4137   27.0662   48.6462 H   0  0  0  0  0  0  0  0  0  0  0  0
   58.3045   30.1559   46.9910 H   0  0  0  0  0  0  0  0  0  0  0  0
   58.0789   32.8048   49.9434 H   0  0  0  0  0  0  0  0  0  0  0  0
   56.4775   32.8988   51.8457 H   0  0  0  0  0  0  0  0  0  0  0  0
  1  2  1  0
  2  3  1  0
  3  4  1  0
  4  5  2  0
  5  6  1  0
  6  7  2  0
  7  8  1  0
  8  9  1  0
  9 10  2  0
  9 11  1  0
 11 12  2  0
 12 13  1  0
 13 14  2  0
 14 15  1  0
 15 16  2  0
 16 17  1  0
 17 18  1  0
 18 19  1  0
 19 20  2  0
 20 21  1  0
 21 22  2  0
 22 23  1  0
 23 24  1  0
 24 25  1  0
 25 26  2  0
 26 27  1  0
 27 28  2  0
 28 29  1  0
 29 30  1  0
 30 31  1  0
 29 32  2  0
 22 33  1  0
  7 34  1  0
 34 35  2  0
 35  4  1  0
 16 11  1  0
 33 19  1  0
 32 25  1  0
  1 36  1  0
  1 37  1  0
  1 38  1  0
  2 39  1  0
  2 40  1  0
  5 41  1  0
  6 42  1  0
  8 43  1  0
 12 44  1  0
 13 45  1  0
 14 46  1  0
 15 47  1  0
 17 48  1  0
 17 49  1  0
 23 50  1  0
 23 51  1  0
 26 52  1  0
 27 53  1  0
 28 54  1  0
 31 55  1  0
 31 56  1  0
 31 57  1  0
 32 58  1  0
 34 59  1  0
 35 60  1  0
M  END
>  <UniqueID>  (44) 
41

>  <SMILES>  (44) 
CCOc1ccc(NC(=O)c2ccccc2CSc2nnc(COc3cccc(OC)c3)o2)cc1

>  <Energy>  (44) 
95.51217584437917

>  <Genealogy>  (44) 
CCOc1ccc(NC(=O)c2ccccc2CSc2nnc(COc3cccc(OC)c3)o2)cc1 (3D coordinates assigned)
CCOc1ccc(NC(=O)c2ccccc2CSc2nnc(COc3cccc(OC)c3)o2)cc1 (optimized conformer: 95.51217584437917 kcal/mol)

>  <smiles>  (44) 
CCOc1ccc(NC(=O)c2ccccc2CSc2nnc(COc3cccc(OC)c3)o2)cc1

>  <score_type>  (44) 
oracle

>  <origin>  (44) 
adg

>  <m_score__min__energy>  (44) 
-10.029999999999999

>  <m_primary>  (44) 
energy

$$$$
44:0
     RDKit          3D

 47 49  0  0  0  0  0  0  0  0999 V2000
   59.2060   34.9760   46.1840 C   0  0  0  0  0  0  0  0  0  0  0  0
   59.6620   33.7490   46.8360 N   0  0  0  0  0  0  0  0  0  0  0  0
   58.6860   32.7140   47.1960 C   0  0  0  0  0  0  0  0  0  0  0  0
   57.7540   32.4280   46.0140 C   0  0  0  0  0  0  0  0  0  0  0  0
   57.8910   31.0220   45.5790 N   0  0  0  0  0  0  0  0  0  0  0  0
   57.3480   30.8180   44.2210 C   0  0  0  0  0  0  0  0  0  0  0  0
   57.2070   29.3140   43.9640 C   0  0  0  0  0  0  0  0  0  0  0  0
   58.3300   28.5780   44.5600 N   0  0  0  0  0  0  0  0  0  0  0  0
   58.2300   27.1580   44.7860 C   0  0  0  0  0  0  0  0  0  0  0  0
   58.8730   26.5670   45.8870 C   0  0  0  0  0  0  0  0  0  0  0  0
   58.7650   25.1900   46.0880 C   0  0  0  0  0  0  0  0  0  0  0  0
   58.0270   24.4140   45.1960 C   0  0  0  0  0  0  0  0  0  0  0  0
   57.4090   25.0280   44.1060 C   0  0  0  0  0  0  0  0  0  0  0  0
   57.5220   26.3720   43.9220 N   0  0  0  0  0  0  0  0  0  0  0  0
   59.5790   29.2950   44.8440 C   0  0  0  0  0  0  0  0  0  0  0  0
   59.3060   30.5820   45.6520 C   0  0  0  0  0  0  0  0  0  0  0  0
   61.0180   33.6510   47.2990 C   0  0  0  0  0  0  0  0  0  0  0  0
   62.0670   33.5590   46.3700 C   0  0  0  0  0  0  0  0  0  0  0  0
   63.3900   33.4630   46.8090 C   0  0  0  0  0  0  0  0  0  0  0  0
   63.6750   33.4590   48.1770 C   0  0  0  0  0  0  0  0  0  0  0  0
   62.6380   33.5550   49.1080 C   0  0  0  0  0  0  0  0  0  0  0  0
   61.3100   33.6500   48.6770 C   0  0  0  0  0  0  0  0  0  0  0  0
   59.9250   33.8220   49.9890 Br  0  0  0  0  0  0  0  0  0  0  0  0
   58.9306   35.7171   46.9488 H   0  0  0  0  0  0  0  0  0  0  0  0
   60.0141   35.3798   45.5564 H   0  0  0  0  0  0  0  0  0  0  0  0
   58.3303   34.7541   45.5564 H   0  0  0  0  0  0  0  0  0  0  0  0
   59.2193   31.7915   47.4691 H   0  0  0  0  0  0  0  0  0  0  0  0
   58.0861   33.0684   48.0472 H   0  0  0  0  0  0  0  0  0  0  0  0
   56.7136   32.6133   46.3195 H   0  0  0  0  0  0  0  0  0  0  0  0
   58.0253   33.0887   45.1774 H   0  0  0  0  0  0  0  0  0  0  0  0
   56.3626   31.3003   44.1410 H   0  0  0  0  0  0  0  0  0  0  0  0
   58.0268   31.2613   43.4776 H   0  0  0  0  0  0  0  0  0  0  0  0
   56.2657   28.9584   44.4084 H   0  0  0  0  0  0  0  0  0  0  0  0
   57.2062   29.1393   42.8780 H   0  0  0  0  0  0  0  0  0  0  0  0
   59.4569   27.1849   46.5850 H   0  0  0  0  0  0  0  0  0  0  0  0
   59.2614   24.7182   46.9488 H   0  0  0  0  0  0  0  0  0  0  0  0
   57.9327   23.3289   45.3497 H   0  0  0  0  0  0  0  0  0  0  0  0
   56.8286   24.4240   43.3931 H   0  0  0  0  0  0  0  0  0  0  0  0
   57.0700   26.7960   43.0800 H   0  0  0  0  0  0  0  0  0  0  0  0
   60.2457   28.6403   45.4244 H   0  0  0  0  0  0  0  0  0  0  0  0
   60.0485   29.5734   43.8890 H   0  0  0  0  0  0  0  0  0  0  0  0
   59.5614   30.3954   46.7056 H   0  0  0  0  0  0  0  0  0  0  0  0
   59.9226   31.3818   45.2160 H   0  0  0  0  0  0  0  0  0  0  0  0
   61.8463   33.5625   45.2924 H   0  0  0  0  0  0  0  0  0  0  0  0
   64.2079   33.3905   46.0771 H   0  0  0  0  0  0  0  0  0  0  0  0
   64.7168   33.3802   48.5210 H   0  0  0  0  0  0  0  0  0  0  0  0
   62.8662   33.5559   50.1841 H   0  0  0  0  0  0  0  0  0  0  0  0
  1  2  1  0
  2  3  1  0
  3  4  1  0
  4  5  1  0
  5  6  1  0
  6  7  1  0
  7  8  1  0
  8  9  1  0
  9 10  2  0
 10 11  1  0
 11 12  2  0
 12 13  1  0
 13 14  2  0
  8 15  1  0
 15 16  1  0
  2 17  1  0
 17 18  2  0
 18 19  1  0
 19 20  2  0
 20 21  1  0
 21 22  2  0
 22 23  1  0
 16  5  1  0
 22 17  1  0
 14  9  1  0
  1 24  1  0
  1 25  1  0
  1 26  1  0
  3 27  1  0
  3 28  1  0
  4 29  1  0
  4 30  1  0
  6 31  1  0
  6 32  1  0
  7 33  1  0
  7 34  1  0
 10 35  1  0
 11 36  1  0
 12 37  1  0
 13 38  1  0
 14 39  1  0
 15 40  1  0
 15 41  1  0
 16 42  1  0
 16 43  1  0
 18 44  1  0
 19 45  1  0
 20 46  1  0
 21 47  1  0
M  CHG  1  14   1
M  END
>  <UniqueID>  (45) 
42

>  <SMILES>  (45) 
CN(CCN1CCN(c2cccc[nH+]2)CC1)c1ccccc1Br

>  <Energy>  (45) 
60.590849504884034

>  <Genealogy>  (45) 
CN(CCN1CCN(c2cccc[nH+]2)CC1)c1ccccc1Br (protonated)
CN(CCN1CCN(c2cccc[nH+]2)CC1)c1ccccc1Br (3D coordinates assigned)
CN(CCN1CCN(c2cccc[nH+]2)CC1)c1ccccc1Br (nonaromatic ring conformer: 60.590849504884034 kcal/mol)

>  <smiles>  (45) 
CN(CCN1CCN(c2ccccn2)CC1)c1ccccc1Br

>  <score_type>  (45) 
oracle

>  <origin>  (45) 
adg

>  <m_score__min__energy>  (45) 
-6.1699999999999999

>  <m_primary>  (45) 
energy

$$$$
45:0
     RDKit          3D

 60 64  0  0  0  0  0  0  0  0999 V2000
   61.7004   26.5988   52.0035 H   0  0  0  0  0  0  0  0  0  0  0  0
   61.6910   27.6080   51.5660 C   0  0  0  0  0  0  0  0  0  0  0  0
   62.7650   28.4740   51.7880 C   0  0  0  0  0  0  0  0  0  0  0  0
   63.6188   28.1455   52.3989 H   0  0  0  0  0  0  0  0  0  0  0  0
   62.7550   29.7580   51.2340 C   0  0  0  0  0  0  0  0  0  0  0  0
   63.5987   30.4399   51.4159 H   0  0  0  0  0  0  0  0  0  0  0  0
   61.6740   30.1790   50.4480 C   0  0  0  0  0  0  0  0  0  0  0  0
   61.6750   31.5080   49.9060 N   0  0  0  0  0  0  0  0  0  0  0  0
   61.5260   32.6350   50.8280 C   0  0  0  0  0  0  0  0  0  0  0  0
   60.4562   32.8142   51.0106 H   0  0  0  0  0  0  0  0  0  0  0  0
   62.0366   32.3923   51.7716 H   0  0  0  0  0  0  0  0  0  0  0  0
   62.1570   33.9040   50.2340 C   0  0  0  0  0  0  0  0  0  0  0  0
   61.8791   34.7630   50.8624 H   0  0  0  0  0  0  0  0  0  0  0  0
   63.2465   33.7545   50.2101 H   0  0  0  0  0  0  0  0  0  0  0  0
   61.7090   34.1670   48.8450 N   0  0  0  0  0  0  0  0  0  0  0  0
   62.2910   34.9680   48.4980 H   0  0  0  0  0  0  0  0  0  0  0  0
   60.2840   34.5960   48.8010 C   0  0  0  0  0  0  0  0  0  0  0  0
   59.7785   34.2396   49.7106 H   0  0  0  0  0  0  0  0  0  0  0  0
   60.2638   35.6939   48.7357 H   0  0  0  0  0  0  0  0  0  0  0  0
   59.5590   34.0460   47.5940 C   0  0  0  0  0  0  0  0  0  0  0  0
   59.8380   34.5490   46.3120 C   0  0  0  0  0  0  0  0  0  0  0  0
   60.5961   35.3361   46.1861 H   0  0  0  0  0  0  0  0  0  0  0  0
   59.1580   34.0550   45.1970 C   0  0  0  0  0  0  0  0  0  0  0  0
   59.3812   34.4571   44.1978 H   0  0  0  0  0  0  0  0  0  0  0  0
   58.1920   33.0490   45.3440 C   0  0  0  0  0  0  0  0  0  0  0  0
   57.4080   32.5770   44.1480 C   0  0  0  0  0  0  0  0  0  0  0  0
   56.7715   33.3970   43.7842 H   0  0  0  0  0  0  0  0  0  0  0  0
   58.1090   32.2672   43.3590 H   0  0  0  0  0  0  0  0  0  0  0  0
   56.5660   31.4370   44.5130 N   0  0  0  0  0  0  0  0  0  0  0  0
   57.0210   30.2520   44.7810 C   0  0  0  0  0  0  0  0  0  0  0  0
   56.2380   29.2150   45.1710 N   0  0  0  0  0  0  0  0  0  0  0  0
   56.9810   28.0930   45.3510 C   0  0  0  0  0  0  0  0  0  0  0  0
   56.4690   26.8610   45.7540 C   0  0  0  0  0  0  0  0  0  0  0  0
   55.1450   26.7100   46.0060 F   0  0  0  0  0  0  0  0  0  0  0  0
   57.3500   25.7750   45.9040 C   0  0  0  0  0  0  0  0  0  0  0  0
   56.9638   24.7968   46.2264 H   0  0  0  0  0  0  0  0  0  0  0  0
   58.7250   25.9350   45.6430 C   0  0  0  0  0  0  0  0  0  0  0  0
   59.4052   25.0775   45.7529 H   0  0  0  0  0  0  0  0  0  0  0  0
   59.2340   27.1830   45.2430 C   0  0  0  0  0  0  0  0  0  0  0  0
   60.3069   27.3188   45.0417 H   0  0  0  0  0  0  0  0  0  0  0  0
   58.3390   28.2430   45.1090 C   0  0  0  0  0  0  0  0  0  0  0  0
   58.6570   29.8340   44.6610 S   0  0  0  0  0  0  0  0  0  0  0  0
   57.9190   32.5390   46.6250 C   0  0  0  0  0  0  0  0  0  0  0  0
   57.1656   31.7471   46.7486 H   0  0  0  0  0  0  0  0  0  0  0  0
   58.5980   33.0310   47.7420 C   0  0  0  0  0  0  0  0  0  0  0  0
   58.3801   32.6231   48.7401 H   0  0  0  0  0  0  0  0  0  0  0  0
   62.0080   33.0010   47.9730 C   0  0  0  0  0  0  0  0  0  0  0  0
   61.6223   33.2080   46.9638 H   0  0  0  0  0  0  0  0  0  0  0  0
   63.0988   32.8590   47.9699 H   0  0  0  0  0  0  0  0  0  0  0  0
   61.3720   31.7010   48.4850 C   0  0  0  0  0  0  0  0  0  0  0  0
   60.2815   31.7540   48.3511 H   0  0  0  0  0  0  0  0  0  0  0  0
   61.7827   30.8547   47.9149 H   0  0  0  0  0  0  0  0  0  0  0  0
   60.5840   29.3130   50.2210 C   0  0  0  0  0  0  0  0  0  0  0  0
   59.5120   29.7690   49.4360 O   0  0  0  0  0  0  0  0  0  0  0  0
   59.0500   29.1310   48.2460 C   0  0  0  0  0  0  0  0  0  0  0  0
   58.4241   28.2666   48.5127 H   0  0  0  0  0  0  0  0  0  0  0  0
   58.4575   29.8441   47.6540 H   0  0  0  0  0  0  0  0  0  0  0  0
   59.9123   28.7905   47.6540 H   0  0  0  0  0  0  0  0  0  0  0  0
   60.6030   28.0220   50.7880 C   0  0  0  0  0  0  0  0  0  0  0  0
   59.7592   27.3370   50.6183 H   0  0  0  0  0  0  0  0  0  0  0  0
  1  2  1  0
  2  3  2  0
  3  4  1  0
  3  5  1  0
  5  6  1  0
  5  7  2  0
  7  8  1  0
  8  9  1  0
  9 10  1  0
  9 11  1  0
  9 12  1  0
 12 13  1  0
 12 14  1  0
 12 15  1  0
 15 16  1  0
 15 17  1  0
 17 18  1  0
 17 19  1  0
 17 20  1  0
 20 21  2  0
 21 22  1  0
 21 23  1  0
 23 24  1  0
 23 25  2  0
 25 26  1  0
 26 27  1  0
 26 28  1  0
 26 29  1  0
 29 30  2  0
 30 31  1  0
 31 32  1  0
 32 33  2  0
 33 34  1  0
 33 35  1  0
 35 36  1  0
 35 37  2  0
 37 38  1  0
 37 39  1  0
 39 40  1  0
 39 41  2  0
 41 42  1  0
 25 43  1  0
 43 44  1  0
 43 45  2  0
 45 46  1  0
 15 47  1  0
 47 48  1  0
 47 49  1  0
 47 50  1  0
 50 51  1  0
 50 52  1  0
  7 53  1  0
 53 54  1  0
 54 55  1  0
 55 56  1  0
 55 57  1  0
 55 58  1  0
 53 59  2  0
 59 60  1  0
 59  2  1  0
 50  8  1  0
 45 20  1  0
 42 30  1  0
 41 32  1  0
M  CHG  2  15   1  31  -1
M  END
>  <UniqueID>  (46) 
43

>  <SMILES>  (46) 
COc1ccccc1N1CC[NH+](Cc2ccc(C/N=c3\[n-]c4c(F)cccc4s3)cc2)CC1

>  <Energy>  (46) 
107.1033773065332

>  <Genealogy>  (46) 
COc1ccccc1N1CC[NH+](Cc2ccc(CN=c3[n-]c4c(F)cccc4s3)cc2)CC1 (protonated)
COc1ccccc1N1CC[NH+](Cc2ccc(C/N=c3\[n-]c4c(F)cccc4s3)cc2)CC1 (cis-trans isomerization)
COc1ccccc1N1CC[NH+](Cc2ccc(C/N=c3\[n-]c4c(F)cccc4s3)cc2)CC1 (3D coordinates assigned)
COc1ccccc1N1CC[NH+](Cc2ccc(C/N=c3\[n-]c4c(F)cccc4s3)cc2)CC1 (nonaromatic ring conformer: 107.1033773065332 kcal/mol)

>  <smiles>  (46) 
COc1ccccc1N1CCN(Cc2ccc(CN=c3[nH]c4c(F)cccc4s3)cc2)CC1

>  <score_type>  (46) 
oracle

>  <origin>  (46) 
adg

>  <m_score__min__energy>  (46) 
-9.1300000000000008

>  <m_primary>  (46) 
energy

$$$$
46:0
     RDKit          3D

 37 39  0  0  0  0  0  0  0  0999 V2000
   58.5490   33.2820   47.8630 C   0  0  0  0  0  0  0  0  0  0  0  0
   58.4390   33.0070   46.3920 C   0  0  0  0  0  0  0  0  0  0  0  0
   59.0240   33.8780   45.4670 C   0  0  0  0  0  0  0  0  0  0  0  0
   58.8860   33.6450   44.0980 C   0  0  0  0  0  0  0  0  0  0  0  0
   58.1490   32.5460   43.6270 C   0  0  0  0  0  0  0  0  0  0  0  0
   58.0310   32.3340   42.1410 C   0  0  0  0  0  0  0  0  0  0  0  0
   57.5650   31.6530   44.5600 C   0  0  0  0  0  0  0  0  0  0  0  0
   56.6480   30.2250   44.0450 S   0  0  0  0  0  0  0  0  0  0  0  0
   56.2730   30.3350   42.5940 O   0  0  0  0  0  0  0  0  0  0  0  0
   55.3970   30.1230   44.8720 O   0  0  0  0  0  0  0  0  0  0  0  0
   57.5950   28.7870   44.2540 N   0  0  0  0  0  0  0  0  0  0  0  0
   57.7720   27.7870   43.3580 C   0  0  0  0  0  0  0  0  0  0  0  0
   58.5580   26.7850   43.8300 N   0  0  0  0  0  0  0  0  0  0  0  0
   58.8710   27.2010   45.0720 C   0  0  0  0  0  0  0  0  0  0  0  0
   59.6450   26.5400   46.0210 C   0  0  0  0  0  0  0  0  0  0  0  0
   59.8190   27.1590   47.2730 C   0  0  0  0  0  0  0  0  0  0  0  0
   59.2290   28.4210   47.5440 C   0  0  0  0  0  0  0  0  0  0  0  0
   59.3830   29.0460   48.8990 C   0  0  0  0  0  0  0  0  0  0  0  0
   58.4390   29.0530   46.5600 C   0  0  0  0  0  0  0  0  0  0  0  0
   58.2940   28.4080   45.3320 C   0  0  0  0  0  0  0  0  0  0  0  0
   57.6960   31.9120   45.9340 C   0  0  0  0  0  0  0  0  0  0  0  0
   58.1983   32.4052   48.4272 H   0  0  0  0  0  0  0  0  0  0  0  0
   59.5986   33.4876   48.1201 H   0  0  0  0  0  0  0  0  0  0  0  0
   57.9308   34.1547   48.1201 H   0  0  0  0  0  0  0  0  0  0  0  0
   59.5948   34.7496   45.8199 H   0  0  0  0  0  0  0  0  0  0  0  0
   59.3599   34.3299   43.3795 H   0  0  0  0  0  0  0  0  0  0  0  0
   57.5045   31.3880   41.9462 H   0  0  0  0  0  0  0  0  0  0  0  0
   57.4664   33.1663   41.6956 H   0  0  0  0  0  0  0  0  0  0  0  0
   59.0359   32.2927   41.6956 H   0  0  0  0  0  0  0  0  0  0  0  0
   57.3256   27.7864   42.3526 H   0  0  0  0  0  0  0  0  0  0  0  0
   60.1056   25.5659   45.7999 H   0  0  0  0  0  0  0  0  0  0  0  0
   60.4180   26.6599   48.0489 H   0  0  0  0  0  0  0  0  0  0  0  0
   59.1965   28.2892   49.6752 H   0  0  0  0  0  0  0  0  0  0  0  0
   60.4048   29.4387   49.0077 H   0  0  0  0  0  0  0  0  0  0  0  0
   58.6606   29.8684   49.0077 H   0  0  0  0  0  0  0  0  0  0  0  0
   57.9543   30.0210   46.7549 H   0  0  0  0  0  0  0  0  0  0  0  0
   57.2082   31.2455   46.6605 H   0  0  0  0  0  0  0  0  0  0  0  0
  1  2  1  0
  2  3  2  0
  3  4  1  0
  4  5  2  0
  5  6  1  0
  5  7  1  0
  7  8  1  0
  8  9  2  0
  8 10  2  0
  8 11  1  0
 11 12  1  0
 12 13  2  0
 13 14  1  0
 14 15  2  0
 15 16  1  0
 16 17  2  0
 17 18  1  0
 17 19  1  0
 19 20  2  0
  7 21  2  0
 21  2  1  0
 20 11  1  0
 20 14  1  0
  1 22  1  0
  1 23  1  0
  1 24  1  0
  3 25  1  0
  4 26  1  0
  6 27  1  0
  6 28  1  0
  6 29  1  0
 12 30  1  0
 15 31  1  0
 16 32  1  0
 18 33  1  0
 18 34  1  0
 18 35  1  0
 19 36  1  0
 21 37  1  0
M  END
>  <UniqueID>  (47) 
44

>  <SMILES>  (47) 
Cc1ccc(C)c(S(=O)(=O)n2cnc3ccc(C)cc32)c1

>  <Energy>  (47) 
77.79534679713505

>  <Genealogy>  (47) 
Cc1ccc(C)c(S(=O)(=O)n2cnc3ccc(C)cc32)c1 (3D coordinates assigned)
Cc1ccc(C)c(S(=O)(=O)n2cnc3ccc(C)cc32)c1 (optimized conformer: 77.79534679713505 kcal/mol)

>  <smiles>  (47) 
Cc1ccc(C)c(S(=O)(=O)n2cnc3ccc(C)cc32)c1

>  <score_type>  (47) 
oracle

>  <origin>  (47) 
adg

>  <m_score__min__energy>  (47) 
-8.2300000000000004

>  <m_primary>  (47) 
energy

$$$$
47:0
     RDKit          3D

 37 39  0  0  0  0  0  0  0  0999 V2000
   57.8223   35.5301   44.7935 H   0  0  0  0  0  0  0  0  0  0  0  0
   58.0320   34.4860   45.0690 C   0  0  0  0  0  0  0  0  0  0  0  0
   57.7810   33.4580   44.1570 C   0  0  0  0  0  0  0  0  0  0  0  0
   57.3767   33.6935   43.1615 H   0  0  0  0  0  0  0  0  0  0  0  0
   58.0430   32.1300   44.5080 C   0  0  0  0  0  0  0  0  0  0  0  0
   57.8511   31.3258   43.7824 H   0  0  0  0  0  0  0  0  0  0  0  0
   58.5490   31.8150   45.7790 C   0  0  0  0  0  0  0  0  0  0  0  0
   58.8190   30.4420   46.1090 N   0  0  0  0  0  0  0  0  0  0  0  0
   59.7020   30.2210   46.6210 H   0  0  0  0  0  0  0  0  0  0  0  0
   57.8750   29.3760   45.9410 C   0  0  0  0  0  0  0  0  0  0  0  0
   56.7250   29.5190   45.2510 N   0  0  0  0  0  0  0  0  0  0  0  0
   56.0690   28.3700   45.3190 N   0  0  0  0  0  0  0  0  0  0  0  0
   55.1380   28.2000   44.8760 H   0  0  0  0  0  0  0  0  0  0  0  0
   56.7770   27.4880   46.0480 C   0  0  0  0  0  0  0  0  0  0  0  0
   56.3440   26.2910   46.3220 N   0  0  0  0  0  0  0  0  0  0  0  0
   56.2380   25.1860   45.4140 C   0  0  0  0  0  0  0  0  0  0  0  0
   55.0800   24.3930   45.3690 C   0  0  0  0  0  0  0  0  0  0  0  0
   54.2196   24.6425   46.0074 H   0  0  0  0  0  0  0  0  0  0  0  0
   55.0170   23.2880   44.5160 C   0  0  0  0  0  0  0  0  0  0  0  0
   54.0976   22.6859   44.4702 H   0  0  0  0  0  0  0  0  0  0  0  0
   56.1150   22.9410   43.7190 C   0  0  0  0  0  0  0  0  0  0  0  0
   56.0030   21.8240   42.8780 O   0  0  0  0  0  0  0  0  0  0  0  0
   56.9310   20.7460   42.8450 C   0  0  0  0  0  0  0  0  0  0  0  0
   57.1858   20.4500   43.8733 H   0  0  0  0  0  0  0  0  0  0  0  0
   56.4816   19.8913   42.3181 H   0  0  0  0  0  0  0  0  0  0  0  0
   57.8430   21.0633   42.3181 H   0  0  0  0  0  0  0  0  0  0  0  0
   57.2890   23.7170   43.7930 C   0  0  0  0  0  0  0  0  0  0  0  0
   58.1612   23.4507   43.1778 H   0  0  0  0  0  0  0  0  0  0  0  0
   57.3500   24.8240   44.6450 C   0  0  0  0  0  0  0  0  0  0  0  0
   58.2765   25.4133   44.7112 H   0  0  0  0  0  0  0  0  0  0  0  0
   57.9420   28.1010   46.4850 C   0  0  0  0  0  0  0  0  0  0  0  0
   58.8280   27.6260   47.5050 N   0  0  0  0  0  0  0  0  0  0  0  0
   59.8100   28.2920   47.8910 O   0  0  0  0  0  0  0  0  0  0  0  0
   58.8140   32.8600   46.6870 C   0  0  0  0  0  0  0  0  0  0  0  0
   59.2303   32.6311   47.6791 H   0  0  0  0  0  0  0  0  0  0  0  0
   58.5500   34.1860   46.3320 C   0  0  0  0  0  0  0  0  0  0  0  0
   58.7505   34.9959   47.0489 H   0  0  0  0  0  0  0  0  0  0  0  0
  1  2  1  0
  2  3  2  0
  3  4  1  0
  3  5  1  0
  5  6  1  0
  5  7  2  0
  7  8  1  0
  8  9  1  0
  8 10  1  0
 10 11  1  0
 11 12  1  0
 12 13  1  0
 12 14  1  0
 14 15  2  0
 15 16  1  0
 16 17  2  0
 17 18  1  0
 17 19  1  0
 19 20  1  0
 19 21  2  0
 21 22  1  0
 22 23  1  0
 23 24  1  0
 23 25  1  0
 23 26  1  0
 21 27  1  0
 27 28  1  0
 27 29  2  0
 29 30  1  0
 14 31  1  0
 31 32  1  0
 32 33  2  0
  7 34  1  0
 34 35  1  0
 34 36  2  0
 36 37  1  0
 36  2  1  0
 31 10  2  0
 29 16  1  0
M  CHG  1  11  -1
M  END
>  <UniqueID>  (48) 
45

>  <SMILES>  (48) 
COc1ccc(/N=c2/[nH][n-]c(Nc3ccccc3)c2N=O)cc1

>  <Energy>  (48) 
88.98360306378835

>  <Genealogy>  (48) 
COc1ccc(N=c2[nH][n-]c(Nc3ccccc3)c2N=O)cc1 (protonated)
COc1ccc(/N=c2/[nH][n-]c(Nc3ccccc3)c2N=O)cc1 (cis-trans isomerization)
COc1ccc(/N=c2/[nH][n-]c(Nc3ccccc3)c2N=O)cc1 (3D coordinates assigned)
COc1ccc(/N=c2/[nH][n-]c(Nc3ccccc3)c2N=O)cc1 (optimized conformer: 88.98360306378835 kcal/mol)

>  <smiles>  (48) 
COc1ccc(N=c2[nH][nH]c(Nc3ccccc3)c2N=O)cc1

>  <score_type>  (48) 
oracle

>  <origin>  (48) 
adg

>  <m_score__min__energy>  (48) 
-10.02

>  <m_primary>  (48) 
energy

$$$$
48:0
     RDKit          3D

 57 60  0  0  0  0  0  0  0  0999 V2000
   60.5920   27.7020   48.3530 C   0  0  0  0  0  0  0  0  0  0  0  0
   59.7890   27.8810   47.0990 C   0  0  0  0  0  0  0  0  0  0  0  0
   60.3560   28.4900   45.9710 C   0  0  0  0  0  0  0  0  0  0  0  0
   59.6230   28.6030   44.7830 C   0  0  0  0  0  0  0  0  0  0  0  0
   58.3110   28.1000   44.7080 C   0  0  0  0  0  0  0  0  0  0  0  0
   57.5360   28.1780   43.5400 O   0  0  0  0  0  0  0  0  0  0  0  0
   56.8690   29.3520   43.0750 C   0  0  0  0  0  0  0  0  0  0  0  0
   56.1990   30.0740   44.2020 C   0  0  0  0  0  0  0  0  0  0  0  0
   55.4790   29.4270   45.0090 O   0  0  0  0  0  0  0  0  0  0  0  0
   56.3760   31.4910   44.3470 N   0  0  0  0  0  0  0  0  0  0  0  0
   57.2240   32.1530   45.2970 C   0  0  0  0  0  0  0  0  0  0  0  0
   57.2270   33.5530   45.4420 C   0  0  0  0  0  0  0  0  0  0  0  0
   58.0810   34.1610   46.3640 C   0  0  0  0  0  0  0  0  0  0  0  0
   58.9430   33.3840   47.1430 C   0  0  0  0  0  0  0  0  0  0  0  0
   58.9650   31.9870   46.9930 C   0  0  0  0  0  0  0  0  0  0  0  0
   59.8470   31.1780   47.7870 N   0  0  0  0  0  0  0  0  0  0  0  0
   61.1920   31.5830   48.0740 C   0  0  0  0  0  0  0  0  0  0  0  0
   61.8910   32.3740   47.1530 C   0  0  0  0  0  0  0  0  0  0  0  0
   63.1950   32.7940   47.4350 C   0  0  0  0  0  0  0  0  0  0  0  0
   63.8120   32.4110   48.6310 C   0  0  0  0  0  0  0  0  0  0  0  0
   63.1260   31.6050   49.5460 C   0  0  0  0  0  0  0  0  0  0  0  0
   61.8180   31.1890   49.2720 C   0  0  0  0  0  0  0  0  0  0  0  0
   61.1500   30.2960   50.1670 N   0  0  0  0  0  0  0  0  0  0  0  0
   59.7500   30.3900   50.4530 C   0  0  0  0  0  0  0  0  0  0  0  0
   58.9840   29.4190   50.1880 O   0  0  0  0  0  0  0  0  0  0  0  0
   59.2150   31.6010   51.1150 C   0  0  0  0  0  0  0  0  0  0  0  0
   60.0590   32.6990   51.3930 C   0  0  0  0  0  0  0  0  0  0  0  0
   59.5580   33.8300   52.0450 C   0  0  0  0  0  0  0  0  0  0  0  0
   58.2160   33.8760   52.4350 C   0  0  0  0  0  0  0  0  0  0  0  0
   57.3710   32.7890   52.1710 C   0  0  0  0  0  0  0  0  0  0  0  0
   57.8650   31.6580   51.5130 C   0  0  0  0  0  0  0  0  0  0  0  0
   58.1160   31.3820   46.0550 C   0  0  0  0  0  0  0  0  0  0  0  0
   57.7510   27.4900   45.8360 C   0  0  0  0  0  0  0  0  0  0  0  0
   58.4860   27.3700   47.0200 C   0  0  0  0  0  0  0  0  0  0  0  0
   59.9420   27.8469   49.2285 H   0  0  0  0  0  0  0  0  0  0  0  0
   61.0161   26.6873   48.3751 H   0  0  0  0  0  0  0  0  0  0  0  0
   61.4069   28.4405   48.3751 H   0  0  0  0  0  0  0  0  0  0  0  0
   61.3828   28.8815   46.0192 H   0  0  0  0  0  0  0  0  0  0  0  0
   60.0749   29.0871   43.9047 H   0  0  0  0  0  0  0  0  0  0  0  0
   57.6053   30.0217   42.6067 H   0  0  0  0  0  0  0  0  0  0  0  0
   56.1009   29.0519   42.3470 H   0  0  0  0  0  0  0  0  0  0  0  0
   56.5548   34.1697   44.8273 H   0  0  0  0  0  0  0  0  0  0  0  0
   58.0755   35.2551   46.4778 H   0  0  0  0  0  0  0  0  0  0  0  0
   59.6060   33.8674   47.8756 H   0  0  0  0  0  0  0  0  0  0  0  0
   59.4740   30.3240   48.2720 H   0  0  0  0  0  0  0  0  0  0  0  0
   61.4133   32.6654   46.2060 H   0  0  0  0  0  0  0  0  0  0  0  0
   63.7361   33.4262   46.7156 H   0  0  0  0  0  0  0  0  0  0  0  0
   64.8369   32.7438   48.8520 H   0  0  0  0  0  0  0  0  0  0  0  0
   63.6153   31.2978   50.4821 H   0  0  0  0  0  0  0  0  0  0  0  0
   61.1172   32.6641   51.0947 H   0  0  0  0  0  0  0  0  0  0  0  0
   60.2200   34.6840   52.2512 H   0  0  0  0  0  0  0  0  0  0  0  0
   57.8231   34.7655   52.9492 H   0  0  0  0  0  0  0  0  0  0  0  0
   56.3166   32.8257   52.4822 H   0  0  0  0  0  0  0  0  0  0  0  0
   57.1965   30.8095   51.3054 H   0  0  0  0  0  0  0  0  0  0  0  0
   58.1504   30.2918   45.9127 H   0  0  0  0  0  0  0  0  0  0  0  0
   56.7230   27.1012   45.7912 H   0  0  0  0  0  0  0  0  0  0  0  0
   58.0394   26.8722   47.8934 H   0  0  0  0  0  0  0  0  0  0  0  0
  1  2  1  0
  2  3  2  0
  3  4  1  0
  4  5  2  0
  5  6  1  0
  6  7  1  0
  7  8  1  0
  8  9  2  0
  8 10  1  0
 10 11  1  0
 11 12  2  0
 12 13  1  0
 13 14  2  0
 14 15  1  0
 15 16  1  0
 16 17  1  0
 17 18  2  0
 18 19  1  0
 19 20  2  0
 20 21  1  0
 21 22  2  0
 22 23  1  0
 23 24  1  0
 24 25  2  0
 24 26  1  0
 26 27  2  0
 27 28  1  0
 28 29  2  0
 29 30  1  0
 30 31  2  0
 15 32  2  0
  5 33  1  0
 33 34  2  0
 34  2  1  0
 32 11  1  0
 22 17  1  0
 31 26  1  0
  1 35  1  0
  1 36  1  0
  1 37  1  0
  3 38  1  0
  4 39  1  0
  7 40  1  0
  7 41  1  0
 12 42  1  0
 13 43  1  0
 14 44  1  0
 16 45  1  0
 18 46  1  0
 19 47  1  0
 20 48  1  0
 21 49  1  0
 27 50  1  0
 28 51  1  0
 29 52  1  0
 30 53  1  0
 31 54  1  0
 32 55  1  0
 33 56  1  0
 34 57  1  0
M  CHG  2  10  -1  23  -1
M  END
>  <UniqueID>  (49) 
46

>  <SMILES>  (49) 
Cc1ccc(OCC(=O)[N-]c2cccc(Nc3ccccc3[N-]C(=O)c3ccccc3)c2)cc1

>  <Energy>  (49) 
74.89237650672229

>  <Genealogy>  (49) 
Cc1ccc(OCC(=O)[N-]c2cccc(Nc3ccccc3[N-]C(=O)c3ccccc3)c2)cc1 (protonated)
Cc1ccc(OCC(=O)[N-]c2cccc(Nc3ccccc3[N-]C(=O)c3ccccc3)c2)cc1 (3D coordinates assigned)
Cc1ccc(OCC(=O)[N-]c2cccc(Nc3ccccc3[N-]C(=O)c3ccccc3)c2)cc1 (optimized conformer: 74.89237650672229 kcal/mol)

>  <smiles>  (49) 
Cc1ccc(OCC(=O)Nc2cccc(Nc3ccccc3NC(=O)c3ccccc3)c2)cc1

>  <score_type>  (49) 
oracle

>  <origin>  (49) 
adg

>  <m_score__min__energy>  (49) 
-12.73

>  <m_primary>  (49) 
energy

$$$$
49:0
     RDKit          3D

 35 37  0  0  0  0  0  0  0  0999 V2000
   59.6487   30.4416   44.6847 H   0  0  0  0  0  0  0  0  0  0  0  0
   58.5860   30.6200   44.9060 C   0  0  0  0  0  0  0  0  0  0  0  0
   58.1310   31.8360   44.9530 N   0  0  0  0  0  0  0  0  0  0  0  0
   58.6320   32.9090   45.7680 C   0  0  0  0  0  0  0  0  0  0  0  0
   58.6310   32.7360   47.1600 C   0  0  0  0  0  0  0  0  0  0  0  0
   58.2589   31.7954   47.5923 H   0  0  0  0  0  0  0  0  0  0  0  0
   59.0990   33.7490   48.0030 C   0  0  0  0  0  0  0  0  0  0  0  0
   59.0991   33.6008   49.0930 H   0  0  0  0  0  0  0  0  0  0  0  0
   59.5660   34.9480   47.4620 C   0  0  0  0  0  0  0  0  0  0  0  0
   59.9397   35.7419   48.1254 H   0  0  0  0  0  0  0  0  0  0  0  0
   59.5590   35.1400   46.0790 C   0  0  0  0  0  0  0  0  0  0  0  0
   59.9207   36.0883   45.6549 H   0  0  0  0  0  0  0  0  0  0  0  0
   59.0930   34.1290   45.2310 C   0  0  0  0  0  0  0  0  0  0  0  0
   59.0862   34.2863   44.1423 H   0  0  0  0  0  0  0  0  0  0  0  0
   57.6880   29.4810   45.1470 C   0  0  0  0  0  0  0  0  0  0  0  0
   56.3450   29.3790   44.8150 C   0  0  0  0  0  0  0  0  0  0  0  0
   55.5200   30.4190   44.1320 C   0  0  0  0  0  0  0  0  0  0  0  0
   55.0225   31.0461   44.8864 H   0  0  0  0  0  0  0  0  0  0  0  0
   56.1684   31.0468   43.5032 H   0  0  0  0  0  0  0  0  0  0  0  0
   54.7612   29.9304   43.5032 H   0  0  0  0  0  0  0  0  0  0  0  0
   55.8610   28.1870   45.2260 N   0  0  0  0  0  0  0  0  0  0  0  0
   56.8520   27.5170   45.7990 N   0  0  0  0  0  0  0  0  0  0  0  0
   56.6910   26.2040   46.3700 C   0  0  0  0  0  0  0  0  0  0  0  0
   55.6680   25.3590   45.9040 C   0  0  0  0  0  0  0  0  0  0  0  0
   54.9902   25.7083   45.1112 H   0  0  0  0  0  0  0  0  0  0  0  0
   55.5060   24.0780   46.4410 C   0  0  0  0  0  0  0  0  0  0  0  0
   54.6983   23.4271   46.0750 H   0  0  0  0  0  0  0  0  0  0  0  0
   56.3680   23.6240   47.4410 C   0  0  0  0  0  0  0  0  0  0  0  0
   56.2110   22.3800   47.9590 F   0  0  0  0  0  0  0  0  0  0  0  0
   57.4000   24.4470   47.9000 C   0  0  0  0  0  0  0  0  0  0  0  0
   58.0838   24.0855   48.6821 H   0  0  0  0  0  0  0  0  0  0  0  0
   57.5650   25.7290   47.3670 C   0  0  0  0  0  0  0  0  0  0  0  0
   58.3823   26.3704   47.7285 H   0  0  0  0  0  0  0  0  0  0  0  0
   57.9650   28.2820   45.7730 C   0  0  0  0  0  0  0  0  0  0  0  0
   59.0700   27.9600   46.2850 O   0  0  0  0  0  0  0  0  0  0  0  0
  1  2  1  0
  2  3  2  0
  3  4  1  0
  4  5  2  0
  5  6  1  0
  5  7  1  0
  7  8  1  0
  7  9  2  0
  9 10  1  0
  9 11  1  0
 11 12  1  0
 11 13  2  0
 13 14  1  0
  2 15  1  0
 15 16  2  0
 16 17  1  0
 17 18  1  0
 17 19  1  0
 17 20  1  0
 16 21  1  0
 21 22  1  0
 22 23  1  0
 23 24  2  0
 24 25  1  0
 24 26  1  0
 26 27  1  0
 26 28  2  0
 28 29  1  0
 28 30  1  0
 30 31  1  0
 30 32  2  0
 32 33  1  0
 22 34  1  0
 34 35  2  0
 13  4  1  0
 34 15  1  0
 32 23  1  0
M  CHG  1  21  -1
M  END
>  <UniqueID>  (50) 
47

>  <SMILES>  (50) 
Cc1[n-]n(-c2ccc(F)cc2)c(=O)c1/C=N/c1ccccc1

>  <Energy>  (50) 
75.5523266629647

>  <Genealogy>  (50) 
Cc1[n-]n(-c2ccc(F)cc2)c(=O)c1C=Nc1ccccc1 (protonated)
Cc1[n-]n(-c2ccc(F)cc2)c(=O)c1/C=N/c1ccccc1 (cis-trans isomerization)
Cc1[n-]n(-c2ccc(F)cc2)c(=O)c1/C=N/c1ccccc1 (3D coordinates assigned)
Cc1[n-]n(-c2ccc(F)cc2)c(=O)c1/C=N/c1ccccc1 (optimized conformer: 75.5523266629647 kcal/mol)

>  <smiles>  (50) 
Cc1[nH]n(-c2ccc(F)cc2)c(=O)c1C=Nc1ccccc1

>  <score_type>  (50) 
oracle

>  <origin>  (50) 
adg

>  <m_score__min__energy>  (50) 
-8.4199999999999999

>  <m_primary>  (50) 
energy

$$$$
50:0
     RDKit          3D

 39 42  0  0  0  0  0  0  0  0999 V2000
   59.6510   33.5460   50.0990 C   0  0  0  0  0  0  0  0  0  0  0  0
   59.4600   33.6870   48.6190 C   0  0  0  0  0  0  0  0  0  0  0  0
   59.6530   34.9290   47.9950 C   0  0  0  0  0  0  0  0  0  0  0  0
   59.4420   35.0650   46.6210 C   0  0  0  0  0  0  0  0  0  0  0  0
   59.0260   33.9690   45.8610 C   0  0  0  0  0  0  0  0  0  0  0  0
   58.8090   32.7230   46.4740 C   0  0  0  0  0  0  0  0  0  0  0  0
   58.3620   31.5620   45.6790 C   0  0  0  0  0  0  0  0  0  0  0  0
   59.1370   30.4830   45.4260 N   0  0  0  0  0  0  0  0  0  0  0  0
   58.3340   29.6890   44.6910 C   0  0  0  0  0  0  0  0  0  0  0  0
   58.7530   28.3600   44.1400 C   0  0  0  0  0  0  0  0  0  0  0  0
   58.3090   27.2810   45.0310 N   0  0  0  0  0  0  0  0  0  0  0  0
   58.3170   27.3630   46.3890 C   0  0  0  0  0  0  0  0  0  0  0  0
   58.7360   28.3670   47.0250 O   0  0  0  0  0  0  0  0  0  0  0  0
   57.6950   25.9810   47.1310 S   0  0  0  0  0  0  0  0  0  0  0  0
   57.3890   25.2450   45.6510 C   0  0  0  0  0  0  0  0  0  0  0  0
   56.8220   23.9960   45.4190 C   0  0  0  0  0  0  0  0  0  0  0  0
   56.6340   23.5740   44.0860 C   0  0  0  0  0  0  0  0  0  0  0  0
   56.0510   22.2880   43.8090 N   0  0  0  0  0  0  0  0  0  0  0  0
   56.0490   21.8270   42.6480 O   0  0  0  0  0  0  0  0  0  0  0  0
   55.4850   21.5450   44.8190 O   0  0  0  0  0  0  0  0  0  0  0  0
   57.0220   24.4320   43.0280 C   0  0  0  0  0  0  0  0  0  0  0  0
   57.5920   25.6890   43.2890 C   0  0  0  0  0  0  0  0  0  0  0  0
   57.7760   26.0900   44.6200 C   0  0  0  0  0  0  0  0  0  0  0  0
   57.1180   30.3140   44.5180 C   0  0  0  0  0  0  0  0  0  0  0  0
   55.7270   29.7190   43.6310 Cl  0  0  0  0  0  0  0  0  0  0  0  0
   57.1650   31.4640   45.1410 O   0  0  0  0  0  0  0  0  0  0  0  0
   59.0240   32.5910   47.8580 C   0  0  0  0  0  0  0  0  0  0  0  0
   58.8739   34.1197   50.6253 H   0  0  0  0  0  0  0  0  0  0  0  0
   59.5762   32.4848   50.3789 H   0  0  0  0  0  0  0  0  0  0  0  0
   60.6431   33.9300   50.3789 H   0  0  0  0  0  0  0  0  0  0  0  0
   59.9714   35.7979   48.5896 H   0  0  0  0  0  0  0  0  0  0  0  0
   59.6040   36.0387   46.1355 H   0  0  0  0  0  0  0  0  0  0  0  0
   58.8676   34.0817   44.7783 H   0  0  0  0  0  0  0  0  0  0  0  0
   58.3023   28.2198   43.1464 H   0  0  0  0  0  0  0  0  0  0  0  0
   59.8498   28.3329   44.0611 H   0  0  0  0  0  0  0  0  0  0  0  0
   56.5260   23.3500   46.2586 H   0  0  0  0  0  0  0  0  0  0  0  0
   56.8748   24.1093   41.9868 H   0  0  0  0  0  0  0  0  0  0  0  0
   57.8897   26.3493   42.4612 H   0  0  0  0  0  0  0  0  0  0  0  0
   58.8491   31.6216   48.3475 H   0  0  0  0  0  0  0  0  0  0  0  0
  1  2  1  0
  2  3  2  0
  3  4  1  0
  4  5  2  0
  5  6  1  0
  6  7  1  0
  7  8  2  0
  8  9  1  0
  9 10  1  0
 10 11  1  0
 11 12  1  0
 12 13  2  0
 12 14  1  0
 14 15  1  0
 15 16  2  0
 16 17  1  0
 17 18  1  0
 18 19  2  0
 18 20  1  0
 17 21  2  0
 21 22  1  0
 22 23  2  0
  9 24  2  0
 24 25  1  0
 24 26  1  0
  6 27  2  0
 27  2  1  0
 26  7  1  0
 23 11  1  0
 23 15  1  0
  1 28  1  0
  1 29  1  0
  1 30  1  0
  3 31  1  0
  4 32  1  0
  5 33  1  0
 10 34  1  0
 10 35  1  0
 16 36  1  0
 21 37  1  0
 22 38  1  0
 27 39  1  0
M  CHG  2  18   1  20  -1
M  END
>  <UniqueID>  (51) 
48

>  <SMILES>  (51) 
Cc1cccc(-c2nc(Cn3c(=O)sc4cc([N+](=O)[O-])ccc43)c(Cl)o2)c1

>  <Energy>  (51) 
109.45353598311699

>  <Genealogy>  (51) 
Cc1cccc(-c2nc(Cn3c(=O)sc4cc([N+](=O)[O-])ccc43)c(Cl)o2)c1 (3D coordinates assigned)
Cc1cccc(-c2nc(Cn3c(=O)sc4cc([N+](=O)[O-])ccc43)c(Cl)o2)c1 (optimized conformer: 109.45353598311699 kcal/mol)

>  <smiles>  (51) 
Cc1cccc(-c2nc(Cn3c(=O)sc4cc([N+](=O)[O-])ccc43)c(Cl)o2)c1

>  <score_type>  (51) 
oracle

>  <origin>  (51) 
adg

>  <m_score__min__energy>  (51) 
-8.9000000000000004

>  <m_primary>  (51) 
energy

$$$$
51:0
     RDKit          3D

 64 67  0  0  0  0  0  0  0  0999 V2000
   62.8450   32.6000   47.2810 C   0  0  0  0  0  0  0  0  0  0  0  0
   62.1720   31.2400   47.1390 C   0  0  0  0  0  0  0  0  0  0  0  0
   60.8830   31.2100   47.8380 N   0  0  0  0  0  0  0  0  0  0  0  0
   60.6640   32.1040   48.9390 C   0  0  0  0  0  0  0  0  0  0  0  0
   61.3140   31.8450   50.1560 C   0  0  0  0  0  0  0  0  0  0  0  0
   61.1430   32.6930   51.2550 C   0  0  0  0  0  0  0  0  0  0  0  0
   61.9810   32.3500   52.7670 S   0  0  0  0  0  0  0  0  0  0  0  0
   61.6110   33.3800   53.7980 O   0  0  0  0  0  0  0  0  0  0  0  0
   61.5450   31.0000   53.2660 O   0  0  0  0  0  0  0  0  0  0  0  0
   63.7090   32.3520   52.5070 N   0  0  0  0  0  0  0  0  0  0  0  0
   64.1070   31.1240   51.7770 C   0  0  0  0  0  0  0  0  0  0  0  0
   65.4580   31.2940   51.0710 C   0  0  0  0  0  0  0  0  0  0  0  0
   65.3900   32.4060   50.0100 C   0  0  0  0  0  0  0  0  0  0  0  0
   64.3320   33.4740   50.3380 C   0  0  0  0  0  0  0  0  0  0  0  0
   64.1450   33.6180   51.8550 C   0  0  0  0  0  0  0  0  0  0  0  0
   60.3270   33.8210   51.1370 C   0  0  0  0  0  0  0  0  0  0  0  0
   59.6740   34.0920   49.9320 C   0  0  0  0  0  0  0  0  0  0  0  0
   59.8320   33.2440   48.8220 C   0  0  0  0  0  0  0  0  0  0  0  0
   59.1320   33.5420   47.6010 N   0  0  0  0  0  0  0  0  0  0  0  0
   59.7820   34.0850   46.4220 C   0  0  0  0  0  0  0  0  0  0  0  0
   58.6830   34.2340   45.3780 C   0  0  0  0  0  0  0  0  0  0  0  0
   57.5360   33.3480   45.8510 C   0  0  0  0  0  0  0  0  0  0  0  0
   57.7630   33.1260   47.3410 C   0  0  0  0  0  0  0  0  0  0  0  0
   59.9250   29.7580   47.7730 S   0  0  0  0  0  0  0  0  0  0  0  0
   60.8310   28.5590   47.7810 O   0  0  0  0  0  0  0  0  0  0  0  0
   59.0350   29.6890   48.9820 O   0  0  0  0  0  0  0  0  0  0  0  0
   58.9210   29.7320   46.3250 C   0  0  0  0  0  0  0  0  0  0  0  0
   59.1730   30.6290   45.2770 C   0  0  0  0  0  0  0  0  0  0  0  0
   58.3650   30.6250   44.1360 C   0  0  0  0  0  0  0  0  0  0  0  0
   57.3010   29.7220   44.0350 C   0  0  0  0  0  0  0  0  0  0  0  0
   56.2860   29.7160   42.6040 Cl  0  0  0  0  0  0  0  0  0  0  0  0
   57.0490   28.8210   45.0750 C   0  0  0  0  0  0  0  0  0  0  0  0
   57.8560   28.8240   46.2170 C   0  0  0  0  0  0  0  0  0  0  0  0
   62.9641   32.8406   48.3477 H   0  0  0  0  0  0  0  0  0  0  0  0
   63.8333   32.5722   46.7989 H   0  0  0  0  0  0  0  0  0  0  0  0
   62.2234   33.3688   46.7989 H   0  0  0  0  0  0  0  0  0  0  0  0
   62.0062   31.0315   46.0717 H   0  0  0  0  0  0  0  0  0  0  0  0
   62.8281   30.4786   47.5859 H   0  0  0  0  0  0  0  0  0  0  0  0
   61.9662   30.9638   50.2464 H   0  0  0  0  0  0  0  0  0  0  0  0
   64.1490   32.3170   53.4550 H   0  0  0  0  0  0  0  0  0  0  0  0
   64.1816   30.2924   52.4932 H   0  0  0  0  0  0  0  0  0  0  0  0
   63.3444   30.9190   51.0113 H   0  0  0  0  0  0  0  0  0  0  0  0
   66.2233   31.5549   51.8169 H   0  0  0  0  0  0  0  0  0  0  0  0
   65.7135   30.3480   50.5711 H   0  0  0  0  0  0  0  0  0  0  0  0
   66.3742   32.8931   49.9468 H   0  0  0  0  0  0  0  0  0  0  0  0
   65.1062   31.9385   49.0556 H   0  0  0  0  0  0  0  0  0  0  0  0
   64.6554   34.4398   49.9225 H   0  0  0  0  0  0  0  0  0  0  0  0
   63.3737   33.1645   49.8953 H   0  0  0  0  0  0  0  0  0  0  0  0
   65.1019   33.9301   52.2987 H   0  0  0  0  0  0  0  0  0  0  0  0
   63.3545   34.3646   52.0212 H   0  0  0  0  0  0  0  0  0  0  0  0
   60.1984   34.4973   51.9949 H   0  0  0  0  0  0  0  0  0  0  0  0
   59.0288   34.9792   49.8509 H   0  0  0  0  0  0  0  0  0  0  0  0
   60.2316   35.0631   46.6480 H   0  0  0  0  0  0  0  0  0  0  0  0
   60.5928   33.4315   46.0678 H   0  0  0  0  0  0  0  0  0  0  0  0
   58.3556   35.2822   45.3137 H   0  0  0  0  0  0  0  0  0  0  0  0
   59.0337   33.9415   44.3773 H   0  0  0  0  0  0  0  0  0  0  0  0
   56.5714   33.8490   45.6819 H   0  0  0  0  0  0  0  0  0  0  0  0
   57.5099   32.3955   45.3014 H   0  0  0  0  0  0  0  0  0  0  0  0
   57.0600   33.7333   47.9300 H   0  0  0  0  0  0  0  0  0  0  0  0
   57.5993   32.0754   47.6227 H   0  0  0  0  0  0  0  0  0  0  0  0
   60.0099   31.3388   45.3529 H   0  0  0  0  0  0  0  0  0  0  0  0
   58.5658   31.3319   43.3175 H   0  0  0  0  0  0  0  0  0  0  0  0
   56.2145   28.1089   44.9943 H   0  0  0  0  0  0  0  0  0  0  0  0
   57.6558   28.1133   47.0324 H   0  0  0  0  0  0  0  0  0  0  0  0
  1  2  1  0
  2  3  1  0
  3  4  1  0
  4  5  2  0
  5  6  1  0
  6  7  1  0
  7  8  2  0
  7  9  2  0
  7 10  1  0
 10 11  1  0
 11 12  1  0
 12 13  1  0
 13 14  1  0
 14 15  1  0
  6 16  2  0
 16 17  1  0
 17 18  2  0
 18 19  1  0
 19 20  1  0
 20 21  1  0
 21 22  1  0
 22 23  1  0
  3 24  1  0
 24 25  2  0
 24 26  2  0
 24 27  1  0
 27 28  2  0
 28 29  1  0
 29 30  2  0
 30 31  1  0
 30 32  1  0
 32 33  2  0
 18  4  1  0
 23 19  1  0
 33 27  1  0
 15 10  1  0
  1 34  1  0
  1 35  1  0
  1 36  1  0
  2 37  1  0
  2 38  1  0
  5 39  1  0
 10 40  1  0
 11 41  1  0
 11 42  1  0
 12 43  1  0
 12 44  1  0
 13 45  1  0
 13 46  1  0
 14 47  1  0
 14 48  1  0
 15 49  1  0
 15 50  1  0
 16 51  1  0
 17 52  1  0
 20 53  1  0
 20 54  1  0
 21 55  1  0
 21 56  1  0
 22 57  1  0
 22 58  1  0
 23 59  1  0
 23 60  1  0
 28 61  1  0
 29 62  1  0
 32 63  1  0
 33 64  1  0
M  CHG  1  10   1
M  END
>  <UniqueID>  (52) 
49

>  <SMILES>  (52) 
CCN(c1cc(S(=O)(=O)[NH+]2CCCCC2)ccc1N1CCCC1)S(=O)(=O)c1ccc(Cl)cc1

>  <Energy>  (52) 
77.96749624969469

>  <Genealogy>  (52) 
CCN(c1cc(S(=O)(=O)[NH+]2CCCCC2)ccc1N1CCCC1)S(=O)(=O)c1ccc(Cl)cc1 (protonated)
CCN(c1cc(S(=O)(=O)[NH+]2CCCCC2)ccc1N1CCCC1)S(=O)(=O)c1ccc(Cl)cc1 (3D coordinates assigned)
CCN(c1cc(S(=O)(=O)[NH+]2CCCCC2)ccc1N1CCCC1)S(=O)(=O)c1ccc(Cl)cc1 (nonaromatic ring conformer: 77.96749624969469 kcal/mol)

>  <smiles>  (52) 
CCN(c1cc(S(=O)(=O)N2CCCCC2)ccc1N1CCCC1)S(=O)(=O)c1ccc(Cl)cc1

>  <score_type>  (52) 
oracle

>  <origin>  (52) 
adg

>  <m_score__min__energy>  (52) 
-8.1699999999999999

>  <m_primary>  (52) 
energy

$$$$
52:0
     RDKit          3D

 45 47  0  0  0  0  0  0  0  0999 V2000
   60.4770   29.1210   45.6310 C   0  0  0  0  0  0  0  0  0  0  0  0
   59.2910   29.9030   45.9920 N   0  0  0  0  0  0  0  0  0  0  0  0
   59.0320   30.4110   47.3270 C   0  0  0  0  0  0  0  0  0  0  0  0
   58.4850   29.6400   48.1650 O   0  0  0  0  0  0  0  0  0  0  0  0
   59.4130   31.8200   47.7970 C   0  0  0  0  0  0  0  0  0  0  0  0
   58.7410   32.0430   49.0200 O   0  0  0  0  0  0  0  0  0  0  0  0
   60.9210   31.9490   48.1020 C   0  0  0  0  0  0  0  0  0  0  0  0
   61.8640   31.4700   47.1650 C   0  0  0  0  0  0  0  0  0  0  0  0
   63.2360   31.6280   47.3790 C   0  0  0  0  0  0  0  0  0  0  0  0
   63.6950   32.2980   48.5140 C   0  0  0  0  0  0  0  0  0  0  0  0
   62.7820   32.8250   49.4260 C   0  0  0  0  0  0  0  0  0  0  0  0
   61.4080   32.6720   49.2180 C   0  0  0  0  0  0  0  0  0  0  0  0
   58.8800   32.8310   46.7640 C   0  0  0  0  0  0  0  0  0  0  0  0
   59.7220   33.6360   45.9610 C   0  0  0  0  0  0  0  0  0  0  0  0
   59.1800   34.5230   45.0260 C   0  0  0  0  0  0  0  0  0  0  0  0
   57.7970   34.6190   44.8680 C   0  0  0  0  0  0  0  0  0  0  0  0
   56.9510   33.8240   45.6420 C   0  0  0  0  0  0  0  0  0  0  0  0
   57.4860   32.9360   46.5780 C   0  0  0  0  0  0  0  0  0  0  0  0
   58.3220   30.1530   44.9580 C   0  0  0  0  0  0  0  0  0  0  0  0
   58.5070   31.2670   44.1250 C   0  0  0  0  0  0  0  0  0  0  0  0
   57.6270   31.5220   43.0730 C   0  0  0  0  0  0  0  0  0  0  0  0
   56.5540   30.6640   42.8400 C   0  0  0  0  0  0  0  0  0  0  0  0
   56.3510   29.5540   43.6620 C   0  0  0  0  0  0  0  0  0  0  0  0
   57.2220   29.2830   44.7370 C   0  0  0  0  0  0  0  0  0  0  0  0
   56.9490   28.1120   45.6080 C   0  0  0  0  0  0  0  0  0  0  0  0
   57.8590   27.6430   46.3430 O   0  0  0  0  0  0  0  0  0  0  0  0
   55.7050   27.4950   45.6110 O   0  0  0  0  0  0  0  0  0  0  0  0
   60.9869   28.7848   46.5458 H   0  0  0  0  0  0  0  0  0  0  0  0
   60.1727   28.2459   45.0381 H   0  0  0  0  0  0  0  0  0  0  0  0
   61.1615   29.7455   45.0381 H   0  0  0  0  0  0  0  0  0  0  0  0
   58.3470   31.1860   49.3300 H   0  0  0  0  0  0  0  0  0  0  0  0
   61.5128   30.9650   46.2531 H   0  0  0  0  0  0  0  0  0  0  0  0
   63.9553   31.2236   46.6516 H   0  0  0  0  0  0  0  0  0  0  0  0
   64.7753   32.4100   48.6886 H   0  0  0  0  0  0  0  0  0  0  0  0
   63.1444   33.3640   50.3138 H   0  0  0  0  0  0  0  0  0  0  0  0
   60.6973   33.1182   49.9292 H   0  0  0  0  0  0  0  0  0  0  0  0
   60.8138   33.5633   46.0734 H   0  0  0  0  0  0  0  0  0  0  0  0
   59.8463   35.1474   44.4127 H   0  0  0  0  0  0  0  0  0  0  0  0
   57.3741   35.3207   44.1340 H   0  0  0  0  0  0  0  0  0  0  0  0
   55.8608   33.8967   45.5148 H   0  0  0  0  0  0  0  0  0  0  0  0
   56.8103   32.3095   47.1787 H   0  0  0  0  0  0  0  0  0  0  0  0
   59.3541   31.9457   44.3032 H   0  0  0  0  0  0  0  0  0  0  0  0
   57.7800   32.3997   42.4279 H   0  0  0  0  0  0  0  0  0  0  0  0
   55.8648   30.8619   42.0058 H   0  0  0  0  0  0  0  0  0  0  0  0
   55.5013   28.8828   43.4686 H   0  0  0  0  0  0  0  0  0  0  0  0
  1  2  1  0
  2  3  1  0
  3  4  2  0
  3  5  1  0
  5  6  1  0
  5  7  1  0
  7  8  2  0
  8  9  1  0
  9 10  2  0
 10 11  1  0
 11 12  2  0
  5 13  1  0
 13 14  2  0
 14 15  1  0
 15 16  2  0
 16 17  1  0
 17 18  2  0
  2 19  1  0
 19 20  2  0
 20 21  1  0
 21 22  2  0
 22 23  1  0
 23 24  2  0
 24 25  1  0
 25 26  2  0
 25 27  1  0
 12  7  1  0
 18 13  1  0
 24 19  1  0
  1 28  1  0
  1 29  1  0
  1 30  1  0
  6 31  1  0
  8 32  1  0
  9 33  1  0
 10 34  1  0
 11 35  1  0
 12 36  1  0
 14 37  1  0
 15 38  1  0
 16 39  1  0
 17 40  1  0
 18 41  1  0
 20 42  1  0
 21 43  1  0
 22 44  1  0
 23 45  1  0
M  CHG  1  27  -1
M  END
>  <UniqueID>  (53) 
50

>  <SMILES>  (53) 
CN(C(=O)C(O)(c1ccccc1)c1ccccc1)c1ccccc1C(=O)[O-]

>  <Energy>  (53) 
70.98485093871211

>  <Genealogy>  (53) 
CN(C(=O)C(O)(c1ccccc1)c1ccccc1)c1ccccc1C(=O)[O-] (protonated)
CN(C(=O)C(O)(c1ccccc1)c1ccccc1)c1ccccc1C(=O)[O-] (3D coordinates assigned)
CN(C(=O)C(O)(c1ccccc1)c1ccccc1)c1ccccc1C(=O)[O-] (optimized conformer: 70.98485093871211 kcal/mol)

>  <smiles>  (53) 
CN(C(=O)C(O)(c1ccccc1)c1ccccc1)c1ccccc1C(=O)O

>  <score_type>  (53) 
oracle

>  <origin>  (53) 
adg

>  <m_score__min__energy>  (53) 
-10.57

>  <m_primary>  (53) 
energy

$$$$
53:0
     RDKit          3D

 45 48  0  0  0  0  0  0  0  0999 V2000
   57.7840   27.1000   42.6180 C   0  0  0  0  0  0  0  0  0  0  0  0
   58.0690   27.9440   43.8240 C   0  0  0  0  0  0  0  0  0  0  0  0
   59.3040   27.8420   44.4820 C   0  0  0  0  0  0  0  0  0  0  0  0
   59.5840   28.6550   45.5850 C   0  0  0  0  0  0  0  0  0  0  0  0
   58.6420   29.5920   46.0350 C   0  0  0  0  0  0  0  0  0  0  0  0
   58.9270   30.4210   47.1770 N   0  0  0  0  0  0  0  0  0  0  0  0
   58.5890   31.8190   47.2040 C   0  0  0  0  0  0  0  0  0  0  0  0
   58.1840   32.3850   46.1510 O   0  0  0  0  0  0  0  0  0  0  0  0
   58.7720   32.6030   48.4060 N   0  0  0  0  0  0  0  0  0  0  0  0
   59.3540   33.9480   48.2680 C   0  0  0  0  0  0  0  0  0  0  0  0
   60.8480   33.8360   48.1280 C   0  0  0  0  0  0  0  0  0  0  0  0
   61.4280   33.6410   46.8640 C   0  0  0  0  0  0  0  0  0  0  0  0
   62.8110   33.4720   46.7410 C   0  0  0  0  0  0  0  0  0  0  0  0
   63.6210   33.4840   47.8800 C   0  0  0  0  0  0  0  0  0  0  0  0
   63.0490   33.6640   49.1430 C   0  0  0  0  0  0  0  0  0  0  0  0
   61.6680   33.8330   49.2690 C   0  0  0  0  0  0  0  0  0  0  0  0
   58.6940   31.9900   49.7150 C   0  0  0  0  0  0  0  0  0  0  0  0
   58.1720   32.7060   50.8110 C   0  0  0  0  0  0  0  0  0  0  0  0
   58.1470   32.1340   52.0860 C   0  0  0  0  0  0  0  0  0  0  0  0
   58.6340   30.8410   52.2850 C   0  0  0  0  0  0  0  0  0  0  0  0
   59.1320   30.1090   51.2050 C   0  0  0  0  0  0  0  0  0  0  0  0
   59.1530   30.6760   49.9250 C   0  0  0  0  0  0  0  0  0  0  0  0
   59.7200   29.7520   48.5590 S   0  0  0  0  0  0  0  0  0  0  0  0
   61.2100   29.8810   48.4190 O   0  0  0  0  0  0  0  0  0  0  0  0
   59.3330   28.3080   48.7190 O   0  0  0  0  0  0  0  0  0  0  0  0
   57.4110   29.7010   45.3670 C   0  0  0  0  0  0  0  0  0  0  0  0
   57.1310   28.8890   44.2650 C   0  0  0  0  0  0  0  0  0  0  0  0
   57.4474   26.1033   42.9393 H   0  0  0  0  0  0  0  0  0  0  0  0
   56.9968   27.5761   42.0150 H   0  0  0  0  0  0  0  0  0  0  0  0
   58.6987   27.0014   42.0150 H   0  0  0  0  0  0  0  0  0  0  0  0
   60.0549   27.1198   44.1290 H   0  0  0  0  0  0  0  0  0  0  0  0
   60.5495   28.5590   46.1032 H   0  0  0  0  0  0  0  0  0  0  0  0
   58.9378   34.4378   47.3754 H   0  0  0  0  0  0  0  0  0  0  0  0
   59.1130   34.5451   49.1598 H   0  0  0  0  0  0  0  0  0  0  0  0
   60.7919   33.6211   45.9668 H   0  0  0  0  0  0  0  0  0  0  0  0
   63.2613   33.3296   45.7476 H   0  0  0  0  0  0  0  0  0  0  0  0
   64.7087   33.3518   47.7827 H   0  0  0  0  0  0  0  0  0  0  0  0
   63.6873   33.6726   50.0388 H   0  0  0  0  0  0  0  0  0  0  0  0
   61.2208   33.9642   50.2654 H   0  0  0  0  0  0  0  0  0  0  0  0
   57.7811   33.7233   50.6617 H   0  0  0  0  0  0  0  0  0  0  0  0
   57.7424   32.7044   52.9351 H   0  0  0  0  0  0  0  0  0  0  0  0
   58.6255   30.3988   53.2922 H   0  0  0  0  0  0  0  0  0  0  0  0
   59.5078   29.0869   51.3600 H   0  0  0  0  0  0  0  0  0  0  0  0
   56.6634   30.4297   45.7135 H   0  0  0  0  0  0  0  0  0  0  0  0
   56.1696   28.9914   43.7403 H   0  0  0  0  0  0  0  0  0  0  0  0
  1  2  1  0
  2  3  2  0
  3  4  1  0
  4  5  2  0
  5  6  1  0
  6  7  1  0
  7  8  2  0
  7  9  1  0
  9 10  1  0
 10 11  1  0
 11 12  2  0
 12 13  1  0
 13 14  2  0
 14 15  1  0
 15 16  2  0
  9 17  1  0
 17 18  2  0
 18 19  1  0
 19 20  2  0
 20 21  1  0
 21 22  2  0
 22 23  1  0
 23 24  2  0
 23 25  2  0
  5 26  1  0
 26 27  2  0
 27  2  1  0
 23  6  1  0
 16 11  1  0
 22 17  1  0
  1 28  1  0
  1 29  1  0
  1 30  1  0
  3 31  1  0
  4 32  1  0
 10 33  1  0
 10 34  1  0
 12 35  1  0
 13 36  1  0
 14 37  1  0
 15 38  1  0
 16 39  1  0
 18 40  1  0
 19 41  1  0
 20 42  1  0
 21 43  1  0
 26 44  1  0
 27 45  1  0
M  END
>  <UniqueID>  (54) 
51

>  <SMILES>  (54) 
Cc1ccc(N2C(=O)N(Cc3ccccc3)c3ccccc3S2(=O)=O)cc1

>  <Energy>  (54) 
63.24582515663376

>  <Genealogy>  (54) 
Cc1ccc(N2C(=O)N(Cc3ccccc3)c3ccccc3S2(=O)=O)cc1 (3D coordinates assigned)
Cc1ccc(N2C(=O)N(Cc3ccccc3)c3ccccc3S2(=O)=O)cc1 (nonaromatic ring conformer: 63.24582515663376 kcal/mol)

>  <smiles>  (54) 
Cc1ccc(N2C(=O)N(Cc3ccccc3)c3ccccc3S2(=O)=O)cc1

>  <score_type>  (54) 
oracle

>  <origin>  (54) 
adg

>  <m_score__min__energy>  (54) 
-8.0899999999999999

>  <m_primary>  (54) 
energy

$$$$
54:0
     RDKit          3D

 34 36  0  0  0  0  0  0  0  0999 V2000
   56.0900   30.1390   43.1680 O   0  0  0  0  0  0  0  0  0  0  0  0
   56.7060   30.3450   44.2470 C   0  0  0  0  0  0  0  0  0  0  0  0
   56.5840   31.6300   44.8720 N   0  0  0  0  0  0  0  0  0  0  0  0
   57.6170   32.3290   45.5810 C   0  0  0  0  0  0  0  0  0  0  0  0
   58.0800   33.5480   45.0770 C   0  0  0  0  0  0  0  0  0  0  0  0
   59.0890   34.2530   45.7410 C   0  0  0  0  0  0  0  0  0  0  0  0
   59.6400   33.7490   46.9360 C   0  0  0  0  0  0  0  0  0  0  0  0
   60.6600   34.4070   47.6450 O   0  0  0  0  0  0  0  0  0  0  0  0
   61.8430   33.8050   48.1700 C   0  0  0  0  0  0  0  0  0  0  0  0
   62.3960   34.6010   49.1560 F   0  0  0  0  0  0  0  0  0  0  0  0
   61.5060   32.5880   48.7290 F   0  0  0  0  0  0  0  0  0  0  0  0
   63.1350   33.4810   46.7580 Br  0  0  0  0  0  0  0  0  0  0  0  0
   59.1530   32.5420   47.4520 C   0  0  0  0  0  0  0  0  0  0  0  0
   58.1450   31.8390   46.7870 C   0  0  0  0  0  0  0  0  0  0  0  0
   57.5740   29.2780   44.8040 C   0  0  0  0  0  0  0  0  0  0  0  0
   58.9710   29.4270   44.7840 C   0  0  0  0  0  0  0  0  0  0  0  0
   59.7940   28.4240   45.3000 C   0  0  0  0  0  0  0  0  0  0  0  0
   59.2350   27.2670   45.8470 C   0  0  0  0  0  0  0  0  0  0  0  0
   57.8400   27.1060   45.8930 C   0  0  0  0  0  0  0  0  0  0  0  0
   57.2460   25.8810   46.4710 C   0  0  0  0  0  0  0  0  0  0  0  0
   55.9230   25.6160   46.4750 N   0  0  0  0  0  0  0  0  0  0  0  0
   55.8770   24.4230   47.0980 C   0  0  0  0  0  0  0  0  0  0  0  0
   57.0980   23.9860   47.4550 N   0  0  0  0  0  0  0  0  0  0  0  0
   57.9610   24.9040   47.0600 N   0  0  0  0  0  0  0  0  0  0  0  0
   57.0160   28.1230   45.3790 C   0  0  0  0  0  0  0  0  0  0  0  0
   57.6475   33.9557   44.1514 H   0  0  0  0  0  0  0  0  0  0  0  0
   59.4541   35.2052   45.3286 H   0  0  0  0  0  0  0  0  0  0  0  0
   59.5678   32.1434   48.3896 H   0  0  0  0  0  0  0  0  0  0  0  0
   57.7633   30.8979   47.2097 H   0  0  0  0  0  0  0  0  0  0  0  0
   59.4184   30.3380   44.3599 H   0  0  0  0  0  0  0  0  0  0  0  0
   60.8870   28.5456   45.2756 H   0  0  0  0  0  0  0  0  0  0  0  0
   59.8903   26.4776   46.2439 H   0  0  0  0  0  0  0  0  0  0  0  0
   54.9469   23.8690   47.2928 H   0  0  0  0  0  0  0  0  0  0  0  0
   55.9225   28.0135   45.4274 H   0  0  0  0  0  0  0  0  0  0  0  0
  1  2  2  0
  2  3  1  0
  3  4  1  0
  4  5  2  0
  5  6  1  0
  6  7  2  0
  7  8  1  0
  8  9  1  0
  9 10  1  0
  9 11  1  0
  9 12  1  0
  7 13  1  0
 13 14  2  0
  2 15  1  0
 15 16  2  0
 16 17  1  0
 17 18  2  0
 18 19  1  0
 19 20  1  0
 20 21  1  0
 21 22  2  0
 22 23  1  0
 23 24  1  0
 19 25  2  0
 14  4  1  0
 25 15  1  0
 24 20  2  0
  5 26  1  0
  6 27  1  0
 13 28  1  0
 14 29  1  0
 16 30  1  0
 17 31  1  0
 18 32  1  0
 22 33  1  0
 25 34  1  0
M  CHG  2   3  -1  23  -1
M  END
>  <UniqueID>  (55) 
52

>  <SMILES>  (55) 
O=C([N-]c1ccc(OC(F)(F)Br)cc1)c1cccc(-c2nc[n-]n2)c1

>  <Energy>  (55) 
76.36265258486425

>  <Genealogy>  (55) 
O=C([N-]c1ccc(OC(F)(F)Br)cc1)c1cccc(-c2nc[n-]n2)c1 (protonated)
O=C([N-]c1ccc(OC(F)(F)Br)cc1)c1cccc(-c2nc[n-]n2)c1 (3D coordinates assigned)
O=C([N-]c1ccc(OC(F)(F)Br)cc1)c1cccc(-c2nc[n-]n2)c1 (optimized conformer: 76.36265258486425 kcal/mol)

>  <smiles>  (55) 
O=C(Nc1ccc(OC(F)(F)Br)cc1)c1cccc(-c2nc[nH]n2)c1

>  <score_type>  (55) 
oracle

>  <origin>  (55) 
adg

>  <m_score__min__energy>  (55) 
-11.31

>  <m_primary>  (55) 
energy

$$$$
55:0
     RDKit          3D

 56 60  0  0  0  0  0  0  0  0999 V2000
   64.5110   32.3670   50.1370 C   0  0  0  0  0  0  0  0  0  0  0  0
   63.9140   31.1760   50.5480 C   0  0  0  0  0  0  0  0  0  0  0  0
   62.6350   30.8930   50.1850 N   0  0  0  0  0  0  0  0  0  0  0  0
   61.9080   31.7480   49.4150 C   0  0  0  0  0  0  0  0  0  0  0  0
   62.4670   32.9590   48.9700 C   0  0  0  0  0  0  0  0  0  0  0  0
   61.6480   33.9110   48.1140 C   0  0  0  0  0  0  0  0  0  0  0  0
   60.2910   34.2400   48.7690 C   0  0  0  0  0  0  0  0  0  0  0  0
   59.3270   34.7950   47.7180 C   0  0  0  0  0  0  0  0  0  0  0  0
   58.9850   33.7750   46.6980 N   0  0  0  0  0  0  0  0  0  0  0  0
   58.4170   34.4090   45.4910 C   0  0  0  0  0  0  0  0  0  0  0  0
   57.4020   33.4730   44.8170 C   0  0  0  0  0  0  0  0  0  0  0  0
   58.0410   32.5950   43.7320 C   0  0  0  0  0  0  0  0  0  0  0  0
   57.5290   31.1840   43.7780 C   0  0  0  0  0  0  0  0  0  0  0  0
   56.6400   30.6000   42.8820 C   0  0  0  0  0  0  0  0  0  0  0  0
   56.3410   29.3400   43.2680 N   0  0  0  0  0  0  0  0  0  0  0  0
   57.0250   29.1290   44.4060 C   0  0  0  0  0  0  0  0  0  0  0  0
   57.0200   27.9800   45.1880 C   0  0  0  0  0  0  0  0  0  0  0  0
   57.7970   27.9780   46.3610 C   0  0  0  0  0  0  0  0  0  0  0  0
   58.5590   29.1190   46.7400 C   0  0  0  0  0  0  0  0  0  0  0  0
   59.3450   29.1110   47.9550 N   0  0  0  0  0  0  0  0  0  0  0  0
   59.1720   29.8490   49.0700 C   0  0  0  0  0  0  0  0  0  0  0  0
   60.1100   29.5640   49.9930 N   0  0  0  0  0  0  0  0  0  0  0  0
   60.8960   28.6330   49.4770 N   0  0  0  0  0  0  0  0  0  0  0  0
   60.4300   28.3600   48.2450 C   0  0  0  0  0  0  0  0  0  0  0  0
   58.5320   30.2660   45.9110 C   0  0  0  0  0  0  0  0  0  0  0  0
   57.7580   30.2310   44.7520 C   0  0  0  0  0  0  0  0  0  0  0  0
   60.0900   32.8270   46.3780 C   0  0  0  0  0  0  0  0  0  0  0  0
   61.4910   33.4010   46.6580 C   0  0  0  0  0  0  0  0  0  0  0  0
   63.7870   33.2610   49.3490 C   0  0  0  0  0  0  0  0  0  0  0  0
   65.5449   32.5996   50.4320 H   0  0  0  0  0  0  0  0  0  0  0  0
   64.4791   30.4639   51.1673 H   0  0  0  0  0  0  0  0  0  0  0  0
   62.2010   29.9980   50.5050 H   0  0  0  0  0  0  0  0  0  0  0  0
   60.8751   31.4896   49.1387 H   0  0  0  0  0  0  0  0  0  0  0  0
   62.2103   34.8544   48.0517 H   0  0  0  0  0  0  0  0  0  0  0  0
   59.8659   33.3249   49.2070 H   0  0  0  0  0  0  0  0  0  0  0  0
   60.4417   34.9933   49.5563 H   0  0  0  0  0  0  0  0  0  0  0  0
   58.4039   35.1230   48.2182 H   0  0  0  0  0  0  0  0  0  0  0  0
   59.8195   35.6374   47.2103 H   0  0  0  0  0  0  0  0  0  0  0  0
   57.9127   35.3439   45.7767 H   0  0  0  0  0  0  0  0  0  0  0  0
   59.2321   34.6182   44.7826 H   0  0  0  0  0  0  0  0  0  0  0  0
   56.9608   32.8200   45.5844 H   0  0  0  0  0  0  0  0  0  0  0  0
   56.6396   34.1007   44.3324 H   0  0  0  0  0  0  0  0  0  0  0  0
   57.8107   33.0246   42.7459 H   0  0  0  0  0  0  0  0  0  0  0  0
   59.1261   32.5692   43.9105 H   0  0  0  0  0  0  0  0  0  0  0  0
   56.2371   31.0941   41.9856 H   0  0  0  0  0  0  0  0  0  0  0  0
   55.6920   28.6760   42.7880 H   0  0  0  0  0  0  0  0  0  0  0  0
   56.4271   27.0997   44.8989 H   0  0  0  0  0  0  0  0  0  0  0  0
   57.8159   27.0798   46.9957 H   0  0  0  0  0  0  0  0  0  0  0  0
   58.3689   30.5879   49.2078 H   0  0  0  0  0  0  0  0  0  0  0  0
   60.8747   27.6211   47.5622 H   0  0  0  0  0  0  0  0  0  0  0  0
   59.1087   31.1647   46.1753 H   0  0  0  0  0  0  0  0  0  0  0  0
   59.9575   31.9197   46.9856 H   0  0  0  0  0  0  0  0  0  0  0  0
   60.0352   32.6179   45.2994 H   0  0  0  0  0  0  0  0  0  0  0  0
   62.2368   32.6125   46.4789 H   0  0  0  0  0  0  0  0  0  0  0  0
   61.6386   34.2601   45.9870 H   0  0  0  0  0  0  0  0  0  0  0  0
   64.2494   34.2044   49.0232 H   0  0  0  0  0  0  0  0  0  0  0  0
  1  2  2  0
  2  3  1  0
  3  4  2  0
  4  5  1  0
  5  6  1  0
  6  7  1  0
  7  8  1  0
  8  9  1  0
  9 10  1  0
 10 11  1  0
 11 12  1  0
 12 13  1  0
 13 14  2  0
 14 15  1  0
 15 16  1  0
 16 17  2  0
 17 18  1  0
 18 19  2  0
 19 20  1  0
 20 21  1  0
 21 22  2  0
 22 23  1  0
 23 24  2  0
 19 25  1  0
 25 26  2  0
  9 27  1  0
 27 28  1  0
  5 29  2  0
 29  1  1  0
 28  6  1  0
 26 13  1  0
 26 16  1  0
 24 20  1  0
  1 30  1  0
  2 31  1  0
  3 32  1  0
  4 33  1  0
  6 34  1  0
  7 35  1  0
  7 36  1  0
  8 37  1  0
  8 38  1  0
 10 39  1  0
 10 40  1  0
 11 41  1  0
 11 42  1  0
 12 43  1  0
 12 44  1  0
 14 45  1  0
 15 46  1  0
 17 47  1  0
 18 48  1  0
 21 49  1  0
 24 50  1  0
 25 51  1  0
 27 52  1  0
 27 53  1  0
 28 54  1  0
 28 55  1  0
 29 56  1  0
M  CHG  1   3   1
M  END
>  <UniqueID>  (56) 
53

>  <SMILES>  (56) 
c1c[nH+]cc(C2CCN(CCCc3c[nH]c4ccc(-n5cnnc5)cc34)CC2)c1

>  <Energy>  (56) 
136.76195132239388

>  <Genealogy>  (56) 
c1c[nH+]cc(C2CCN(CCCc3c[nH]c4ccc(-n5cnnc5)cc34)CC2)c1 (protonated)
c1c[nH+]cc(C2CCN(CCCc3c[nH]c4ccc(-n5cnnc5)cc34)CC2)c1 (3D coordinates assigned)
c1c[nH+]cc(C2CCN(CCCc3c[nH]c4ccc(-n5cnnc5)cc34)CC2)c1 (nonaromatic ring conformer: 136.76195132239388 kcal/mol)

>  <smiles>  (56) 
c1cncc(C2CCN(CCCc3c[nH]c4ccc(-n5cnnc5)cc34)CC2)c1

>  <score_type>  (56) 
oracle

>  <origin>  (56) 
adg

>  <m_score__min__energy>  (56) 
-8.0999999999999996

>  <m_primary>  (56) 
energy

$$$$
56:0
     RDKit          3D

 28 29  0  0  0  0  0  0  0  0999 V2000
   59.2230   26.0430   46.5300 C   0  0  0  0  0  0  0  0  0  0  0  0
   58.4000   27.2060   46.0510 C   0  0  0  0  0  0  0  0  0  0  0  0
   57.0120   27.2590   45.9750 C   0  0  0  0  0  0  0  0  0  0  0  0
   56.0580   26.2500   46.3410 N   0  0  0  0  0  0  0  0  0  0  0  0
   56.3800   25.3120   47.0970 O   0  0  0  0  0  0  0  0  0  0  0  0
   54.7590   26.3370   45.9020 O   0  0  0  0  0  0  0  0  0  0  0  0
   56.7340   28.5180   45.4830 C   0  0  0  0  0  0  0  0  0  0  0  0
   55.5860   28.9790   45.2370 O   0  0  0  0  0  0  0  0  0  0  0  0
   57.8850   29.1910   45.2850 N   0  0  0  0  0  0  0  0  0  0  0  0
   57.9970   30.5180   44.7410 C   0  0  0  0  0  0  0  0  0  0  0  0
   58.4060   31.5850   45.5570 C   0  0  0  0  0  0  0  0  0  0  0  0
   58.5000   32.8770   45.0310 C   0  0  0  0  0  0  0  0  0  0  0  0
   58.1830   33.1140   43.6900 C   0  0  0  0  0  0  0  0  0  0  0  0
   57.7650   32.0580   42.8750 C   0  0  0  0  0  0  0  0  0  0  0  0
   57.6690   30.7640   43.3980 C   0  0  0  0  0  0  0  0  0  0  0  0
   58.8970   28.4050   45.6510 N   0  0  0  0  0  0  0  0  0  0  0  0
   60.3120   28.7900   45.6420 C   0  0  0  0  0  0  0  0  0  0  0  0
   59.2329   26.0291   47.6299 H   0  0  0  0  0  0  0  0  0  0  0  0
   58.7861   25.1056   46.1553 H   0  0  0  0  0  0  0  0  0  0  0  0
   60.2524   26.1432   46.1553 H   0  0  0  0  0  0  0  0  0  0  0  0
   58.6532   31.4038   46.6134 H   0  0  0  0  0  0  0  0  0  0  0  0
   58.8241   33.7089   45.6736 H   0  0  0  0  0  0  0  0  0  0  0  0
   58.2624   34.1303   43.2768 H   0  0  0  0  0  0  0  0  0  0  0  0
   57.5112   32.2447   41.8211 H   0  0  0  0  0  0  0  0  0  0  0  0
   57.3354   29.9363   42.7549 H   0  0  0  0  0  0  0  0  0  0  0  0
   60.6719   28.8879   46.6768 H   0  0  0  0  0  0  0  0  0  0  0  0
   60.8985   28.0188   45.1212 H   0  0  0  0  0  0  0  0  0  0  0  0
   60.4269   29.7521   45.1212 H   0  0  0  0  0  0  0  0  0  0  0  0
  1  2  1  0
  2  3  2  0
  3  4  1  0
  4  5  2  0
  4  6  1  0
  3  7  1  0
  7  8  2  0
  7  9  1  0
  9 10  1  0
 10 11  2  0
 11 12  1  0
 12 13  2  0
 13 14  1  0
 14 15  2  0
  9 16  1  0
 16 17  1  0
 16  2  1  0
 15 10  1  0
  1 18  1  0
  1 19  1  0
  1 20  1  0
 11 21  1  0
 12 22  1  0
 13 23  1  0
 14 24  1  0
 15 25  1  0
 17 26  1  0
 17 27  1  0
 17 28  1  0
M  CHG  2   4   1   6  -1
M  END
>  <UniqueID>  (57) 
54

>  <SMILES>  (57) 
Cc1c([N+](=O)[O-])c(=O)n(-c2ccccc2)n1C

>  <Energy>  (57) 
70.87888848571787

>  <Genealogy>  (57) 
Cc1c([N+](=O)[O-])c(=O)n(-c2ccccc2)n1C (3D coordinates assigned)
Cc1c([N+](=O)[O-])c(=O)n(-c2ccccc2)n1C (optimized conformer: 70.87888848571787 kcal/mol)

>  <smiles>  (57) 
Cc1c([N+](=O)[O-])c(=O)n(-c2ccccc2)n1C

>  <score_type>  (57) 
oracle

>  <origin>  (57) 
adg

>  <m_score__min__energy>  (57) 
-6.8899999999999997

>  <m_primary>  (57) 
energy

$$$$
57:0
     RDKit          3D

 44 46  0  0  0  0  0  0  0  0999 V2000
   57.7890   33.1840   44.7920 C   0  0  0  0  0  0  0  0  0  0  0  0
   57.4330   31.7440   44.9700 C   0  0  0  0  0  0  0  0  0  0  0  0
   56.2740   31.2060   44.5420 N   0  0  0  0  0  0  0  0  0  0  0  0
   56.2930   29.9460   44.8700 O   0  0  0  0  0  0  0  0  0  0  0  0
   57.4040   29.6310   45.4950 C   0  0  0  0  0  0  0  0  0  0  0  0
   57.6990   28.2600   46.0110 C   0  0  0  0  0  0  0  0  0  0  0  0
   58.1980   30.7640   45.5820 C   0  0  0  0  0  0  0  0  0  0  0  0
   59.5270   30.9180   46.2130 C   0  0  0  0  0  0  0  0  0  0  0  0
   60.3820   30.0020   46.0840 O   0  0  0  0  0  0  0  0  0  0  0  0
   59.8300   32.0730   47.0110 N   0  0  0  0  0  0  0  0  0  0  0  0
   61.1690   32.5200   47.2860 C   0  0  0  0  0  0  0  0  0  0  0  0
   61.7560   33.4890   46.4610 C   0  0  0  0  0  0  0  0  0  0  0  0
   63.0590   33.9290   46.7030 C   0  0  0  0  0  0  0  0  0  0  0  0
   63.7920   33.3980   47.7660 C   0  0  0  0  0  0  0  0  0  0  0  0
   63.2280   32.4160   48.5960 C   0  0  0  0  0  0  0  0  0  0  0  0
   64.0260   31.8300   49.7420 C   0  0  0  0  0  0  0  0  0  0  0  0
   65.1670   32.6680   50.1740 N   0  0  0  0  0  0  0  0  0  0  0  0
   66.3710   31.8940   50.5180 C   0  0  0  0  0  0  0  0  0  0  0  0
   67.5460   32.8560   50.7990 C   0  0  0  0  0  0  0  0  0  0  0  0
   67.1450   34.2150   50.7680 O   0  0  0  0  0  0  0  0  0  0  0  0
   66.0740   34.4200   51.6700 C   0  0  0  0  0  0  0  0  0  0  0  0
   64.8270   33.6150   51.2510 C   0  0  0  0  0  0  0  0  0  0  0  0
   61.9210   31.9680   48.3390 C   0  0  0  0  0  0  0  0  0  0  0  0
   57.9060   33.6574   45.7780 H   0  0  0  0  0  0  0  0  0  0  0  0
   58.7334   33.2619   44.2335 H   0  0  0  0  0  0  0  0  0  0  0  0
   56.9897   33.6930   44.2335 H   0  0  0  0  0  0  0  0  0  0  0  0
   57.6961   28.2737   47.1109 H   0  0  0  0  0  0  0  0  0  0  0  0
   56.9310   27.5596   45.6510 H   0  0  0  0  0  0  0  0  0  0  0  0
   58.6871   27.9375   45.6510 H   0  0  0  0  0  0  0  0  0  0  0  0
   59.0430   32.5390   47.5120 H   0  0  0  0  0  0  0  0  0  0  0  0
   61.1865   33.9057   45.6172 H   0  0  0  0  0  0  0  0  0  0  0  0
   63.5088   34.6955   46.0548 H   0  0  0  0  0  0  0  0  0  0  0  0
   64.8167   33.7508   47.9542 H   0  0  0  0  0  0  0  0  0  0  0  0
   63.3510   31.6963   50.6002 H   0  0  0  0  0  0  0  0  0  0  0  0
   64.4482   30.8802   49.3818 H   0  0  0  0  0  0  0  0  0  0  0  0
   66.1723   31.2880   51.4143 H   0  0  0  0  0  0  0  0  0  0  0  0
   66.6330   31.2351   49.6770 H   0  0  0  0  0  0  0  0  0  0  0  0
   67.9579   32.6309   51.7938 H   0  0  0  0  0  0  0  0  0  0  0  0
   68.2990   32.7083   50.0109 H   0  0  0  0  0  0  0  0  0  0  0  0
   66.3859   34.1003   52.6752 H   0  0  0  0  0  0  0  0  0  0  0  0
   65.8152   35.4891   51.6646 H   0  0  0  0  0  0  0  0  0  0  0  0
   64.4474   33.0561   52.1191 H   0  0  0  0  0  0  0  0  0  0  0  0
   64.0580   34.3114   50.8853 H   0  0  0  0  0  0  0  0  0  0  0  0
   61.4820   31.1786   48.9669 H   0  0  0  0  0  0  0  0  0  0  0  0
  1  2  1  0
  2  3  2  0
  3  4  1  0
  4  5  1  0
  5  6  1  0
  5  7  2  0
  7  8  1  0
  8  9  2  0
  8 10  1  0
 10 11  1  0
 11 12  2  0
 12 13  1  0
 13 14  2  0
 14 15  1  0
 15 16  1  0
 16 17  1  0
 17 18  1  0
 18 19  1  0
 19 20  1  0
 20 21  1  0
 21 22  1  0
 15 23  2  0
  7  2  1  0
 23 11  1  0
 22 17  1  0
  1 24  1  0
  1 25  1  0
  1 26  1  0
  6 27  1  0
  6 28  1  0
  6 29  1  0
 10 30  1  0
 12 31  1  0
 13 32  1  0
 14 33  1  0
 16 34  1  0
 16 35  1  0
 18 36  1  0
 18 37  1  0
 19 38  1  0
 19 39  1  0
 21 40  1  0
 21 41  1  0
 22 42  1  0
 22 43  1  0
 23 44  1  0
M  END
>  <UniqueID>  (58) 
55

>  <SMILES>  (58) 
Cc1noc(C)c1C(=O)Nc1cccc(CN2CCOCC2)c1

>  <Energy>  (58) 
90.37435452165444

>  <Genealogy>  (58) 
Cc1noc(C)c1C(=O)Nc1cccc(CN2CCOCC2)c1 (3D coordinates assigned)
Cc1noc(C)c1C(=O)Nc1cccc(CN2CCOCC2)c1 (nonaromatic ring conformer: 90.37435452165444 kcal/mol)

>  <smiles>  (58) 
Cc1noc(C)c1C(=O)Nc1cccc(CN2CCOCC2)c1

>  <score_type>  (58) 
oracle

>  <origin>  (58) 
adg

>  <m_score__min__energy>  (58) 
-7.5800000000000001

>  <m_primary>  (58) 
energy

$$$$
58:0
     RDKit          3D

 44 47  0  0  1  0  0  0  0  0999 V2000
   54.5500   30.8230   51.8950 C   0  0  0  0  0  0  0  0  0  0  0  0
   56.0250   30.8050   52.0580 C   0  0  0  0  0  0  0  0  0  0  0  0
   56.7750   31.9670   52.0420 C   0  0  0  0  0  0  0  0  0  0  0  0
   58.1480   31.9130   52.1980 C   0  0  0  0  0  0  0  0  0  0  0  0
   58.8550   33.0080   52.1830 N   0  0  0  0  0  0  0  0  0  0  0  0
   59.8030   33.2200   51.1450 C   0  0  0  0  0  0  0  0  0  0  0  0
   59.2660   33.4670   49.8770 C   0  0  0  0  0  0  0  0  0  0  0  0
   60.1040   33.6820   48.8140 C   0  0  0  0  0  0  0  0  0  0  0  0
   59.5180   33.9360   47.5030 C   0  0  0  0  0  0  0  0  0  0  0  0
   58.3040   33.3940   47.1520 C   0  0  0  0  0  0  0  0  0  0  0  0
   57.7230   33.6080   45.9330 C   0  0  0  0  0  0  0  0  0  0  0  0
   58.3660   34.3930   45.0140 C   0  0  0  0  0  0  0  0  0  0  0  0
   59.6000   34.9690   45.3180 C   0  0  0  0  0  0  0  0  0  0  0  0
   60.1580   34.7350   46.5520 C   0  0  0  0  0  0  0  0  0  0  0  0
   61.4750   33.6490   49.0280 C   0  0  0  0  0  0  0  0  0  0  0  0
   62.0190   33.4060   50.2820 C   0  0  0  0  0  0  0  0  0  0  0  0
   63.4710   33.3910   50.4030 C   0  0  0  0  0  0  0  0  0  0  0  0
   64.2900   32.6830   49.5620 C   0  0  0  0  0  0  0  0  0  0  0  0
   65.6510   32.7170   49.7370 C   0  0  0  0  0  0  0  0  0  0  0  0
   66.1930   33.4620   50.7560 C   0  0  0  0  0  0  0  0  0  0  0  0
   65.3580   34.1830   51.6110 C   0  0  0  0  0  0  0  0  0  0  0  0
   64.0220   34.1160   51.3960 N   0  0  0  0  0  0  0  0  0  0  0  0
   61.1680   33.1910   51.3440 C   0  0  0  0  0  0  0  0  0  0  0  0
   58.7040   30.6980   52.3600 N   0  0  0  0  0  0  0  0  0  0  0  0
   57.9930   29.5550   52.3780 C   0  0  0  0  0  0  0  0  0  0  0  0
   56.6400   29.6100   52.2260 N   0  0  0  0  0  0  0  0  0  0  0  0
   54.0717   30.8288   52.8855 H   0  0  0  0  0  0  0  0  0  0  0  0
   54.2535   31.7248   51.3393 H   0  0  0  0  0  0  0  0  0  0  0  0
   54.2316   29.9287   51.3393 H   0  0  0  0  0  0  0  0  0  0  0  0
   56.2772   32.9383   51.9046 H   0  0  0  0  0  0  0  0  0  0  0  0
   58.1756   33.4886   49.7337 H   0  0  0  0  0  0  0  0  0  0  0  0
   57.7782   32.7617   47.8826 H   0  0  0  0  0  0  0  0  0  0  0  0
   56.7499   33.1545   45.6934 H   0  0  0  0  0  0  0  0  0  0  0  0
   57.9072   34.5707   44.0302 H   0  0  0  0  0  0  0  0  0  0  0  0
   60.1182   35.6006   44.5814 H   0  0  0  0  0  0  0  0  0  0  0  0
   61.1306   35.1870   46.7966 H   0  0  0  0  0  0  0  0  0  0  0  0
   62.1514   33.8207   48.1777 H   0  0  0  0  0  0  0  0  0  0  0  0
   63.8559   32.0868   48.7458 H   0  0  0  0  0  0  0  0  0  0  0  0
   66.3072   32.1481   49.0618 H   0  0  0  0  0  0  0  0  0  0  0  0
   67.2834   33.4903   50.8979 H   0  0  0  0  0  0  0  0  0  0  0  0
   65.7713   34.7861   52.4328 H   0  0  0  0  0  0  0  0  0  0  0  0
   61.5754   32.9969   52.3472 H   0  0  0  0  0  0  0  0  0  0  0  0
   59.7480   30.6820   52.4770 H   0  0  0  0  0  0  0  0  0  0  0  0
   58.4986   28.5876   52.5139 H   0  0  0  0  0  0  0  0  0  0  0  0
  1  2  1  0
  2  3  2  0
  3  4  1  0
  4  5  2  0
  5  6  1  0
  6  7  2  0
  7  8  1  0
  8  9  1  0
  9 10  2  0
 10 11  1  0
 11 12  2  0
 12 13  1  0
 13 14  2  0
  8 15  2  0
 15 16  1  0
 16 17  1  0
 17 18  2  0
 18 19  1  0
 19 20  2  0
 20 21  1  0
 21 22  2  0
 16 23  2  0
  4 24  1  0
 24 25  1  0
 25 26  2  0
 26  2  1  0
 23  6  1  0
 14  9  1  0
 22 17  1  0
  1 27  1  0
  1 28  1  0
  1 29  1  0
  3 30  1  0
  7 31  1  0
 10 32  1  0
 11 33  1  0
 12 34  1  0
 13 35  1  0
 14 36  1  0
 15 37  1  0
 18 38  1  0
 19 39  1  0
 20 40  1  0
 21 41  1  0
 23 42  1  0
 24 43  1  0
 25 44  1  0
M  END
>  <smiles>  (59) 
Cc1cc(=Nc2cc(-c3ccccc3)cc(-c3ccccn3)c2)[nH]cn1

>  <score_type>  (59) 
oracle

>  <origin>  (59) 
adg

>  <m_score__min__energy>  (59) 
-7.75

>  <m_primary>  (59) 
energy

$$$$
59:0
     RDKit          3D

 46 48  0  0  1  0  0  0  0  0999 V2000
   59.7850   34.2140   49.7400 C   0  0  0  0  0  0  0  0  0  0  0  0
   60.8530   33.2520   49.2930 C   0  0  0  0  0  0  0  0  0  0  0  0
   60.8570   31.9930   49.8260 C   0  0  0  0  0  0  0  0  0  0  0  0
   61.8210   31.0860   49.4390 C   0  0  0  0  0  0  0  0  0  0  0  0
   61.8530   29.8920   49.9220 N   0  0  0  0  0  0  0  0  0  0  0  0
   60.6420   28.7240   49.4960 S   0  0  0  0  0  0  0  0  0  0  0  0
   59.5570   28.8550   50.5340 O   0  0  0  0  0  0  0  0  0  0  0  0
   61.1490   27.3150   49.5860 O   0  0  0  0  0  0  0  0  0  0  0  0
   60.0030   29.0770   47.9070 C   0  0  0  0  0  0  0  0  0  0  0  0
   60.7660   29.5330   46.8650 C   0  0  0  0  0  0  0  0  0  0  0  0
   60.2070   29.7990   45.6160 C   0  0  0  0  0  0  0  0  0  0  0  0
   58.8360   29.5870   45.4580 C   0  0  0  0  0  0  0  0  0  0  0  0
   58.3100   29.8720   44.1670 N   0  0  0  0  0  0  0  0  0  0  0  0
   57.2010   31.2040   43.9600 S   0  0  0  0  0  0  0  0  0  0  0  0
   57.1640   31.5590   42.5180 O   0  0  0  0  0  0  0  0  0  0  0  0
   55.8560   30.8360   44.4850 O   0  0  0  0  0  0  0  0  0  0  0  0
   57.9050   32.5300   44.8940 C   0  0  0  0  0  0  0  0  0  0  0  0
   57.7450   32.6010   46.2640 C   0  0  0  0  0  0  0  0  0  0  0  0
   58.3350   33.6760   46.8990 C   0  0  0  0  0  0  0  0  0  0  0  0
   59.0520   34.6470   46.2320 C   0  0  0  0  0  0  0  0  0  0  0  0
   59.1870   34.5340   44.8580 C   0  0  0  0  0  0  0  0  0  0  0  0
   58.6110   33.4690   44.1750 C   0  0  0  0  0  0  0  0  0  0  0  0
   58.0580   29.1280   46.5040 C   0  0  0  0  0  0  0  0  0  0  0  0
   58.6330   28.8690   47.7350 C   0  0  0  0  0  0  0  0  0  0  0  0
   62.7470   31.4750   48.5300 N   0  0  0  0  0  0  0  0  0  0  0  0
   62.7220   32.7360   48.0110 C   0  0  0  0  0  0  0  0  0  0  0  0
   63.7810   33.0980   47.0070 C   0  0  0  0  0  0  0  0  0  0  0  0
   61.7850   33.6270   48.3840 N   0  0  0  0  0  0  0  0  0  0  0  0
   59.7537   34.2422   50.8392 H   0  0  0  0  0  0  0  0  0  0  0  0
   60.0115   35.2187   49.3537 H   0  0  0  0  0  0  0  0  0  0  0  0
   58.8093   33.8841   49.3537 H   0  0  0  0  0  0  0  0  0  0  0  0
   60.0926   31.7040   50.5623 H   0  0  0  0  0  0  0  0  0  0  0  0
   61.8436   29.6929   47.0171 H   0  0  0  0  0  0  0  0  0  0  0  0
   60.8254   30.1638   44.7826 H   0  0  0  0  0  0  0  0  0  0  0  0
   58.5970   29.2780   43.3570 H   0  0  0  0  0  0  0  0  0  0  0  0
   57.1771   31.8408   46.8204 H   0  0  0  0  0  0  0  0  0  0  0  0
   58.2278   33.7620   47.9904 H   0  0  0  0  0  0  0  0  0  0  0  0
   59.5046   35.4888   46.7765 H   0  0  0  0  0  0  0  0  0  0  0  0
   59.7554   35.2942   44.3021 H   0  0  0  0  0  0  0  0  0  0  0  0
   58.7168   33.3782   43.0839 H   0  0  0  0  0  0  0  0  0  0  0  0
   56.9796   28.9684   46.3573 H   0  0  0  0  0  0  0  0  0  0  0  0
   58.0174   28.5029   48.5699 H   0  0  0  0  0  0  0  0  0  0  0  0
   64.6946   33.4103   47.5341 H   0  0  0  0  0  0  0  0  0  0  0  0
   64.0021   32.2244   46.3762 H   0  0  0  0  0  0  0  0  0  0  0  0
   63.4211   33.9241   46.3762 H   0  0  0  0  0  0  0  0  0  0  0  0
   61.7710   34.5930   47.9830 H   0  0  0  0  0  0  0  0  0  0  0  0
  1  2  1  0
  2  3  2  0
  3  4  1  0
  4  5  2  0
  5  6  1  0
  6  7  2  0
  6  8  2  0
  6  9  1  0
  9 10  2  0
 10 11  1  0
 11 12  2  0
 12 13  1  0
 13 14  1  0
 14 15  2  0
 14 16  2  0
 14 17  1  0
 17 18  2  0
 18 19  1  0
 19 20  2  0
 20 21  1  0
 21 22  2  0
 12 23  1  0
 23 24  2  0
  4 25  1  0
 25 26  2  0
 26 27  1  0
 26 28  1  0
 28  2  1  0
 24  9  1  0
 22 17  1  0
  1 29  1  0
  1 30  1  0
  1 31  1  0
  3 32  1  0
 10 33  1  0
 11 34  1  0
 13 35  1  0
 18 36  1  0
 19 37  1  0
 20 38  1  0
 21 39  1  0
 22 40  1  0
 23 41  1  0
 24 42  1  0
 27 43  1  0
 27 44  1  0
 27 45  1  0
 28 46  1  0
M  END
>  <smiles>  (60) 
Cc1cc(=NS(=O)(=O)c2ccc(NS(=O)(=O)c3ccccc3)cc2)nc(C)[nH]1

>  <score_type>  (60) 
oracle

>  <origin>  (60) 
adg

>  <m_score__min__energy>  (60) 
-9.6099999999999994

>  <m_primary>  (60) 
energy

$$$$
60:0
     RDKit          3D

 32 33  0  0  0  0  0  0  0  0999 V2000
   56.9730   31.2320   41.9250 O   0  0  0  0  0  0  0  0  0  0  0  0
   56.7680   30.9170   43.1300 C   0  0  0  0  0  0  0  0  0  0  0  0
   55.9400   29.7150   43.4480 C   0  0  0  0  0  0  0  0  0  0  0  0
   55.9750   29.4800   44.8530 O   0  0  0  0  0  0  0  0  0  0  0  0
   57.0290   28.8450   45.5240 C   0  0  0  0  0  0  0  0  0  0  0  0
   58.0920   29.5600   46.1120 C   0  0  0  0  0  0  0  0  0  0  0  0
   59.1200   28.8770   46.7720 C   0  0  0  0  0  0  0  0  0  0  0  0
   59.0970   27.4830   46.8510 C   0  0  0  0  0  0  0  0  0  0  0  0
   58.0460   26.7670   46.2700 C   0  0  0  0  0  0  0  0  0  0  0  0
   57.0180   27.4460   45.6090 C   0  0  0  0  0  0  0  0  0  0  0  0
   57.2910   31.7280   44.1890 N   0  0  0  0  0  0  0  0  0  0  0  0
   58.0910   32.9200   43.9140 C   0  0  0  0  0  0  0  0  0  0  0  0
   58.5520   33.5540   45.1940 C   0  0  0  0  0  0  0  0  0  0  0  0
   59.2690   34.7590   45.1760 C   0  0  0  0  0  0  0  0  0  0  0  0
   59.6560   35.3440   46.3830 C   0  0  0  0  0  0  0  0  0  0  0  0
   59.3150   34.7330   47.5920 C   0  0  0  0  0  0  0  0  0  0  0  0
   58.5870   33.5410   47.5720 C   0  0  0  0  0  0  0  0  0  0  0  0
   58.2210   32.9850   46.3860 N   0  0  0  0  0  0  0  0  0  0  0  0
   54.9015   29.8891   43.1299 H   0  0  0  0  0  0  0  0  0  0  0  0
   56.3409   28.8391   42.9168 H   0  0  0  0  0  0  0  0  0  0  0  0
   58.1137   30.6581   46.0520 H   0  0  0  0  0  0  0  0  0  0  0  0
   59.9475   29.4393   47.2293 H   0  0  0  0  0  0  0  0  0  0  0  0
   59.9058   26.9482   47.3704 H   0  0  0  0  0  0  0  0  0  0  0  0
   58.0279   25.6690   46.3330 H   0  0  0  0  0  0  0  0  0  0  0  0
   56.1942   26.8779   45.1522 H   0  0  0  0  0  0  0  0  0  0  0  0
   57.0840   31.4520   45.1770 H   0  0  0  0  0  0  0  0  0  0  0  0
   58.9686   32.6360   43.3147 H   0  0  0  0  0  0  0  0  0  0  0  0
   57.4718   33.6432   43.3631 H   0  0  0  0  0  0  0  0  0  0  0  0
   59.5241   35.2388   44.2196 H   0  0  0  0  0  0  0  0  0  0  0  0
   60.2279   36.2836   46.3820 H   0  0  0  0  0  0  0  0  0  0  0  0
   59.6162   35.1852   48.5485 H   0  0  0  0  0  0  0  0  0  0  0  0
   58.3093   33.0512   48.5170 H   0  0  0  0  0  0  0  0  0  0  0  0
  1  2  2  0
  2  3  1  0
  3  4  1  0
  4  5  1  0
  5  6  2  0
  6  7  1  0
  7  8  2  0
  8  9  1  0
  9 10  2  0
  2 11  1  0
 11 12  1  0
 12 13  1  0
 13 14  2  0
 14 15  1  0
 15 16  2  0
 16 17  1  0
 17 18  2  0
 10  5  1  0
 18 13  1  0
  3 19  1  0
  3 20  1  0
  6 21  1  0
  7 22  1  0
  8 23  1  0
  9 24  1  0
 10 25  1  0
 11 26  1  0
 12 27  1  0
 12 28  1  0
 14 29  1  0
 15 30  1  0
 16 31  1  0
 17 32  1  0
M  END
>  <UniqueID>  (61) 
56

>  <SMILES>  (61) 
O=C(COc1ccccc1)NCc1ccccn1

>  <Energy>  (61) 
28.669312958563765

>  <Genealogy>  (61) 
O=C(COc1ccccc1)NCc1ccccn1 (3D coordinates assigned)
O=C(COc1ccccc1)NCc1ccccn1 (optimized conformer: 28.669312958563765 kcal/mol)

>  <smiles>  (61) 
O=C(COc1ccccc1)NCc1ccccn1

>  <score_type>  (61) 
oracle

>  <origin>  (61) 
adg

>  <m_score__min__energy>  (61) 
-5.9199999999999999

>  <m_primary>  (61) 
energy

$$$$
61:0
     RDKit          3D

 26 27  0  0  1  0  0  0  0  0999 V2000
   55.8840   25.2310   46.7740 N   0  0  0  0  0  0  0  0  0  0  0  0
   56.3870   26.0980   46.1680 C   0  0  0  0  0  0  0  0  0  0  0  0
   57.0010   27.1500   45.4030 C   0  0  0  0  0  0  0  0  0  0  0  0
   58.0530   26.8200   44.5410 C   0  0  0  0  0  0  0  0  0  0  0  0
   58.6570   27.8330   43.7940 C   0  0  0  0  0  0  0  0  0  0  0  0
   58.1910   29.0790   43.9450 N   0  0  0  0  0  0  0  0  0  0  0  0
   57.1970   29.4230   44.7520 C   0  0  0  0  0  0  0  0  0  0  0  0
   56.7810   30.6380   44.8670 N   0  0  0  0  0  0  0  0  0  0  0  0
   57.3830   31.7210   44.0790 C   0  0  0  0  0  0  0  0  0  0  0  0
   57.9830   32.7120   45.0370 C   0  0  0  0  0  0  0  0  0  0  0  0
   58.6530   33.8100   44.4940 C   0  0  0  0  0  0  0  0  0  0  0  0
   59.2360   34.7730   45.2900 C   0  0  0  0  0  0  0  0  0  0  0  0
   59.1340   34.6130   46.6570 C   0  0  0  0  0  0  0  0  0  0  0  0
   58.4690   33.5220   47.2180 C   0  0  0  0  0  0  0  0  0  0  0  0
   57.8840   32.5560   46.4050 C   0  0  0  0  0  0  0  0  0  0  0  0
   56.6080   28.4350   45.4810 N   0  0  0  0  0  0  0  0  0  0  0  0
   58.3984   25.7793   44.4535 H   0  0  0  0  0  0  0  0  0  0  0  0
   59.4867   27.6151   43.1055 H   0  0  0  0  0  0  0  0  0  0  0  0
   58.6610   29.8230   43.3730 H   0  0  0  0  0  0  0  0  0  0  0  0
   58.1665   31.3145   43.4226 H   0  0  0  0  0  0  0  0  0  0  0  0
   56.6212   32.2075   43.4521 H   0  0  0  0  0  0  0  0  0  0  0  0
   58.7175   33.9095   43.4004 H   0  0  0  0  0  0  0  0  0  0  0  0
   59.7616   35.6347   44.8528 H   0  0  0  0  0  0  0  0  0  0  0  0
   59.5880   35.3638   47.3205 H   0  0  0  0  0  0  0  0  0  0  0  0
   58.4067   33.4248   48.3119 H   0  0  0  0  0  0  0  0  0  0  0  0
   57.3580   31.6932   46.8397 H   0  0  0  0  0  0  0  0  0  0  0  0
  1  2  3  0
  2  3  1  0
  3  4  1  0
  4  5  2  0
  5  6  1  0
  6  7  1  0
  7  8  2  0
  8  9  1  0
  9 10  1  0
 10 11  2  0
 11 12  1  0
 12 13  2  0
 13 14  1  0
 14 15  2  0
  7 16  1  0
 16  3  2  0
 15 10  1  0
  4 17  1  0
  5 18  1  0
  6 19  1  0
  9 20  1  0
  9 21  1  0
 11 22  1  0
 12 23  1  0
 13 24  1  0
 14 25  1  0
 15 26  1  0
M  END
>  <smiles>  (62) 
N#Cc1cc[nH]c(=NCc2ccccc2)n1

>  <score_type>  (62) 
oracle

>  <origin>  (62) 
adg

>  <m_score__min__energy>  (62) 
-6.6699999999999999

>  <m_primary>  (62) 
energy

$$$$
62:0
     RDKit          3D

 63 67  0  0  0  0  0  0  0  0999 V2000
   56.2250   29.7150   43.0110 C   0  0  0  0  0  0  0  0  0  0  0  0
   55.8890   29.3810   44.4630 C   0  0  0  0  0  0  0  0  0  0  0  0
   57.0990   29.4650   45.3180 N   0  0  0  0  0  0  0  0  0  0  0  0
   57.7300   30.6810   45.4210 C   0  0  0  0  0  0  0  0  0  0  0  0
   57.2320   31.6990   44.8590 O   0  0  0  0  0  0  0  0  0  0  0  0
   58.9320   30.8180   46.1370 C   0  0  0  0  0  0  0  0  0  0  0  0
   59.5870   32.0680   46.1950 C   0  0  0  0  0  0  0  0  0  0  0  0
   60.8010   32.2160   46.8810 C   0  0  0  0  0  0  0  0  0  0  0  0
   61.4790   33.4420   46.9720 O   0  0  0  0  0  0  0  0  0  0  0  0
   61.1230   34.5240   47.8340 C   0  0  0  0  0  0  0  0  0  0  0  0
   60.9460   34.0410   49.2490 C   0  0  0  0  0  0  0  0  0  0  0  0
   62.0700   33.8350   50.0660 C   0  0  0  0  0  0  0  0  0  0  0  0
   61.9130   33.3920   51.3830 C   0  0  0  0  0  0  0  0  0  0  0  0
   60.6330   33.1570   51.8940 C   0  0  0  0  0  0  0  0  0  0  0  0
   59.5100   33.3680   51.0900 C   0  0  0  0  0  0  0  0  0  0  0  0
   59.6630   33.8130   49.7730 C   0  0  0  0  0  0  0  0  0  0  0  0
   61.3680   31.1050   47.4960 C   0  0  0  0  0  0  0  0  0  0  0  0
   60.7320   29.8640   47.4580 C   0  0  0  0  0  0  0  0  0  0  0  0
   59.4920   29.6970   46.7930 C   0  0  0  0  0  0  0  0  0  0  0  0
   58.7900   28.4600   46.7610 C   0  0  0  0  0  0  0  0  0  0  0  0
   59.2480   27.3170   47.4630 C   0  0  0  0  0  0  0  0  0  0  0  0
   58.5540   26.1140   47.4130 C   0  0  0  0  0  0  0  0  0  0  0  0
   57.3830   26.0100   46.6710 C   0  0  0  0  0  0  0  0  0  0  0  0
   56.6710   24.7260   46.6110 C   0  0  0  0  0  0  0  0  0  0  0  0
   57.3300   23.6610   46.7320 O   0  0  0  0  0  0  0  0  0  0  0  0
   55.2570   24.6450   46.3730 N   0  0  0  0  0  0  0  0  0  0  0  0
   54.5140   23.5580   45.7230 C   0  0  1  0  0  0  0  0  0  0  0  0
   53.1950   24.0890   45.1490 C   0  0  0  0  0  0  0  0  0  0  0  0
   55.3850   22.7840   44.7470 C   0  0  0  0  0  0  0  0  0  0  0  0
   55.8320   21.5020   45.1190 C   0  0  0  0  0  0  0  0  0  0  0  0
   56.6630   20.7630   44.2720 C   0  0  0  0  0  0  0  0  0  0  0  0
   57.0560   21.2900   43.0400 C   0  0  0  0  0  0  0  0  0  0  0  0
   56.6170   22.5580   42.6520 C   0  0  0  0  0  0  0  0  0  0  0  0
   55.7860   23.3030   43.4950 C   0  0  0  0  0  0  0  0  0  0  0  0
   56.8770   27.1310   46.0140 C   0  0  0  0  0  0  0  0  0  0  0  0
   57.5760   28.3680   46.0140 C   0  0  0  0  0  0  0  0  0  0  0  0
   57.0049   30.4903   42.9841 H   0  0  0  0  0  0  0  0  0  0  0  0
   56.5892   28.8107   42.5016 H   0  0  0  0  0  0  0  0  0  0  0  0
   55.3229   30.0846   42.5016 H   0  0  0  0  0  0  0  0  0  0  0  0
   55.1368   30.0938   44.8320 H   0  0  0  0  0  0  0  0  0  0  0  0
   55.4979   28.3538   44.5065 H   0  0  0  0  0  0  0  0  0  0  0  0
   59.1380   32.9386   45.6945 H   0  0  0  0  0  0  0  0  0  0  0  0
   61.9188   35.2830   47.8084 H   0  0  0  0  0  0  0  0  0  0  0  0
   60.1728   34.9554   47.4861 H   0  0  0  0  0  0  0  0  0  0  0  0
   63.0781   34.0230   49.6680 H   0  0  0  0  0  0  0  0  0  0  0  0
   62.7968   33.2284   52.0171 H   0  0  0  0  0  0  0  0  0  0  0  0
   60.5101   32.8059   52.9292 H   0  0  0  0  0  0  0  0  0  0  0  0
   58.5035   33.1837   51.4937 H   0  0  0  0  0  0  0  0  0  0  0  0
   58.7759   33.9849   49.1457 H   0  0  0  0  0  0  0  0  0  0  0  0
   62.3303   31.2061   48.0191 H   0  0  0  0  0  0  0  0  0  0  0  0
   61.2010   29.0006   47.9526 H   0  0  0  0  0  0  0  0  0  0  0  0
   60.1703   27.3834   48.0587 H   0  0  0  0  0  0  0  0  0  0  0  0
   58.9330   25.2401   47.9631 H   0  0  0  0  0  0  0  0  0  0  0  0
   54.2284   22.8045   46.4718 H   0  0  0  0  0  0  0  0  0  0  0  0
   52.5195   24.3610   45.9734 H   0  0  0  0  0  0  0  0  0  0  0  0
   53.3951   24.9766   44.5309 H   0  0  0  0  0  0  0  0  0  0  0  0
   52.7242   23.3103   44.5309 H   0  0  0  0  0  0  0  0  0  0  0  0
   55.5243   21.0775   46.0860 H   0  0  0  0  0  0  0  0  0  0  0  0
   57.0082   19.7640   44.5767 H   0  0  0  0  0  0  0  0  0  0  0  0
   57.7108   20.7070   42.3756 H   0  0  0  0  0  0  0  0  0  0  0  0
   56.9257   22.9718   41.6807 H   0  0  0  0  0  0  0  0  0  0  0  0
   55.4422   24.2997   43.1814 H   0  0  0  0  0  0  0  0  0  0  0  0
   55.9159   27.0560   45.4843 H   0  0  0  0  0  0  0  0  0  0  0  0
  1  2  1  0
  2  3  1  0
  3  4  1  0
  4  5  2  0
  4  6  1  0
  6  7  2  0
  7  8  1  0
  8  9  1  0
  9 10  1  0
 10 11  1  0
 11 12  2  0
 12 13  1  0
 13 14  2  0
 14 15  1  0
 15 16  2  0
  8 17  2  0
 17 18  1  0
 18 19  2  0
 19 20  1  0
 20 21  2  0
 21 22  1  0
 22 23  2  0
 23 24  1  0
 24 25  2  0
 24 26  1  0
 26 27  1  0
 27 28  1  0
 27 29  1  0
 29 30  2  0
 30 31  1  0
 31 32  2  0
 32 33  1  0
 33 34  2  0
 23 35  1  0
 35 36  2  0
 36  3  1  0
 19  6  1  0
 36 20  1  0
 16 11  1  0
 34 29  1  0
  1 37  1  0
  1 38  1  0
  1 39  1  0
  2 40  1  0
  2 41  1  0
  7 42  1  0
 10 43  1  0
 10 44  1  0
 12 45  1  0
 13 46  1  0
 14 47  1  0
 15 48  1  0
 16 49  1  0
 17 50  1  0
 18 51  1  0
 21 52  1  0
 22 53  1  0
 27 54  1  1
 28 55  1  0
 28 56  1  0
 28 57  1  0
 30 58  1  0
 31 59  1  0
 32 60  1  0
 33 61  1  0
 34 62  1  0
 35 63  1  0
M  CHG  1  26  -1
M  END
>  <UniqueID>  (63) 
57

>  <SMILES>  (63) 
CCn1c(=O)c2cc(OCc3ccccc3)ccc2c2ccc(C(=O)[N-][C@@H](C)c3ccccc3)cc21

>  <Energy>  (63) 
93.38222163078123

>  <Genealogy>  (63) 
CCn1c(=O)c2cc(OCc3ccccc3)ccc2c2ccc(C(=O)[N-]C(C)c3ccccc3)cc21 (protonated)
CCn1c(=O)c2cc(OCc3ccccc3)ccc2c2ccc(C(=O)[N-][C@@H](C)c3ccccc3)cc21 (chirality)
CCn1c(=O)c2cc(OCc3ccccc3)ccc2c2ccc(C(=O)[N-][C@@H](C)c3ccccc3)cc21 (3D coordinates assigned)
CCn1c(=O)c2cc(OCc3ccccc3)ccc2c2ccc(C(=O)[N-][C@@H](C)c3ccccc3)cc21 (optimized conformer: 93.38222163078123 kcal/mol)

>  <smiles>  (63) 
CCn1c(=O)c2cc(OCc3ccccc3)ccc2c2ccc(C(=O)NC(C)c3ccccc3)cc21

>  <score_type>  (63) 
oracle

>  <origin>  (63) 
adg

>  <m_score__min__energy>  (63) 
-11.59

>  <m_primary>  (63) 
energy

$$$$
63:0
     RDKit          3D

 67 70  0  0  1  0  0  0  0  0999 V2000
   63.3990   33.4870   46.7340 C   0  0  0  0  0  0  0  0  0  0  0  0
   63.2100   32.9810   48.1310 C   0  0  0  0  0  0  0  0  0  0  0  0
   61.8400   32.9070   48.5210 N   0  0  0  0  0  0  0  0  0  0  0  0
   60.9980   33.9600   48.0200 C   0  0  0  0  0  0  0  0  0  0  0  0
   59.9030   33.4550   47.1580 C   0  0  0  0  0  0  0  0  0  0  0  0
   59.1310   32.3990   47.6030 C   0  0  0  0  0  0  0  0  0  0  0  0
   58.1080   31.9180   46.8150 C   0  0  0  0  0  0  0  0  0  0  0  0
   57.8220   32.4610   45.5830 C   0  0  0  0  0  0  0  0  0  0  0  0
   56.7510   31.9370   44.7980 N   0  0  0  0  0  0  0  0  0  0  0  0
   56.6610   30.2750   44.3490 S   0  0  0  0  0  0  0  0  0  0  0  0
   55.3770   29.7130   44.8650 O   0  0  0  0  0  0  0  0  0  0  0  0
   56.6350   30.1960   42.8550 O   0  0  0  0  0  0  0  0  0  0  0  0
   58.0530   29.3890   44.9610 C   0  0  0  0  0  0  0  0  0  0  0  0
   59.1770   29.3850   44.1370 C   0  0  0  0  0  0  0  0  0  0  0  0
   60.3270   28.7280   44.5140 C   0  0  0  0  0  0  0  0  0  0  0  0
   60.3100   28.0820   45.7300 C   0  0  0  0  0  0  0  0  0  0  0  0
   59.1800   28.0860   46.5570 C   0  0  0  0  0  0  0  0  0  0  0  0
   59.3100   27.3770   47.7830 N   0  0  0  0  0  0  0  0  0  0  0  0
   59.9080   27.9160   48.8180 C   0  0  0  0  0  0  0  0  0  0  0  0
   60.5480   27.0500   49.6240 N   0  0  0  0  0  0  0  0  0  0  0  0
   61.1800   27.5870   50.7030 C   0  0  0  0  0  0  0  0  0  0  0  0
   61.1600   28.9400   50.9520 C   0  0  0  0  0  0  0  0  0  0  0  0
   60.4920   29.7910   50.1000 C   0  0  0  0  0  0  0  0  0  0  0  0
   60.4930   31.0540   50.3460 N   0  0  0  0  0  0  0  0  0  0  0  0
   59.4220   31.7360   51.0240 C   0  0  0  0  0  0  0  0  0  0  0  0
   59.6920   32.9270   51.7050 C   0  0  0  0  0  0  0  0  0  0  0  0
   58.7010   33.6240   52.3720 C   0  0  0  0  0  0  0  0  0  0  0  0
   57.4140   33.1190   52.3570 C   0  0  0  0  0  0  0  0  0  0  0  0
   57.1450   31.9390   51.6830 C   0  0  0  0  0  0  0  0  0  0  0  0
   55.8150   31.3920   51.6480 N   0  0  0  0  0  0  0  0  0  0  0  0
   55.6980   30.0330   52.0490 C   0  0  0  0  0  0  0  0  0  0  0  0
   54.3930   29.3510   52.0610 C   0  0  0  0  0  0  0  0  0  0  0  0
   56.7620   29.4510   52.3910 O   0  0  0  0  0  0  0  0  0  0  0  0
   58.1400   31.2510   51.0210 C   0  0  0  0  0  0  0  0  0  0  0  0
   59.8760   29.2370   49.0420 N   0  0  0  0  0  0  0  0  0  0  0  0
   58.0400   28.7450   46.1710 C   0  0  0  0  0  0  0  0  0  0  0  0
   58.6050   33.5230   45.1440 C   0  0  0  0  0  0  0  0  0  0  0  0
   59.6370   34.0080   45.9390 C   0  0  0  0  0  0  0  0  0  0  0  0
   63.7837   34.5170   46.7660 H   0  0  0  0  0  0  0  0  0  0  0  0
   64.1174   32.8435   46.2050 H   0  0  0  0  0  0  0  0  0  0  0  0
   62.4347   33.4721   46.2050 H   0  0  0  0  0  0  0  0  0  0  0  0
   63.6482   31.9745   48.2006 H   0  0  0  0  0  0  0  0  0  0  0  0
   63.7043   33.6943   48.8069 H   0  0  0  0  0  0  0  0  0  0  0  0
   61.6800   32.6830   49.5200 H   0  0  0  0  0  0  0  0  0  0  0  0
   60.5559   34.4937   48.8742 H   0  0  0  0  0  0  0  0  0  0  0  0
   61.6250   34.6236   47.4064 H   0  0  0  0  0  0  0  0  0  0  0  0
   59.3325   31.9435   48.5838 H   0  0  0  0  0  0  0  0  0  0  0  0
   57.5025   31.0758   47.1811 H   0  0  0  0  0  0  0  0  0  0  0  0
   56.0200   32.6260   44.5080 H   0  0  0  0  0  0  0  0  0  0  0  0
   59.1451   29.9136   43.1729 H   0  0  0  0  0  0  0  0  0  0  0  0
   61.2201   28.7196   43.8719 H   0  0  0  0  0  0  0  0  0  0  0  0
   61.2117   27.5464   46.0619 H   0  0  0  0  0  0  0  0  0  0  0  0
   60.5880   26.0230   49.4730 H   0  0  0  0  0  0  0  0  0  0  0  0
   61.7204   26.9227   51.3934 H   0  0  0  0  0  0  0  0  0  0  0  0
   61.6791   29.3431   51.8341 H   0  0  0  0  0  0  0  0  0  0  0  0
   60.7194   33.3198   51.7104 H   0  0  0  0  0  0  0  0  0  0  0  0
   58.9316   34.5595   52.9027 H   0  0  0  0  0  0  0  0  0  0  0  0
   56.6060   33.6527   52.8788 H   0  0  0  0  0  0  0  0  0  0  0  0
   54.9900   31.9650   51.3440 H   0  0  0  0  0  0  0  0  0  0  0  0
   54.0755   29.1851   53.1010 H   0  0  0  0  0  0  0  0  0  0  0  0
   53.6483   29.9752   51.5455 H   0  0  0  0  0  0  0  0  0  0  0  0
   54.4803   28.3832   51.5455 H   0  0  0  0  0  0  0  0  0  0  0  0
   57.9055   30.3155   50.4920 H   0  0  0  0  0  0  0  0  0  0  0  0
   59.3620   29.8860   48.3850 H   0  0  0  0  0  0  0  0  0  0  0  0
   57.1456   28.7561   46.8112 H   0  0  0  0  0  0  0  0  0  0  0  0
   58.4070   33.9811   44.1637 H   0  0  0  0  0  0  0  0  0  0  0  0
   60.2480   34.8495   45.5805 H   0  0  0  0  0  0  0  0  0  0  0  0
  1  2  1  0
  2  3  1  0
  3  4  1  0
  4  5  1  0
  5  6  2  0
  6  7  1  0
  7  8  2  0
  8  9  1  0
  9 10  1  0
 10 11  2  0
 10 12  2  0
 10 13  1  0
 13 14  2  0
 14 15  1  0
 15 16  2  0
 16 17  1  0
 17 18  1  0
 18 19  2  0
 19 20  1  0
 20 21  1  0
 21 22  2  0
 22 23  1  0
 23 24  2  0
 24 25  1  0
 25 26  2  0
 26 27  1  0
 27 28  2  0
 28 29  1  0
 29 30  1  0
 30 31  1  0
 31 32  1  0
 31 33  2  0
 29 34  2  0
 23 35  1  0
 17 36  2  0
  8 37  1  0
 37 38  2  0
 38  5  1  0
 36 13  1  0
 35 19  1  0
 34 25  1  0
  1 39  1  0
  1 40  1  0
  1 41  1  0
  2 42  1  0
  2 43  1  0
  3 44  1  0
  4 45  1  0
  4 46  1  0
  6 47  1  0
  7 48  1  0
  9 49  1  0
 14 50  1  0
 15 51  1  0
 16 52  1  0
 20 53  1  0
 21 54  1  0
 22 55  1  0
 26 56  1  0
 27 57  1  0
 28 58  1  0
 30 59  1  0
 32 60  1  0
 32 61  1  0
 32 62  1  0
 34 63  1  0
 35 64  1  0
 36 65  1  0
 37 66  1  0
 38 67  1  0
M  END
>  <smiles>  (64) 
CCNCc1ccc(NS(=O)(=O)c2cccc(N=c3[nH]ccc(=Nc4cccc(NC(C)=O)c4)[nH]3)c2)cc1

>  <score_type>  (64) 
oracle

>  <origin>  (64) 
adg

>  <m_score__min__energy>  (64) 
-10.42

>  <m_primary>  (64) 
energy

$$$$
64:0
     RDKit          3D

 39 42  0  0  0  0  0  0  0  0999 V2000
   62.6820   34.1310   50.6310 C   0  0  0  0  0  0  0  0  0  0  0  0
   62.4610   34.0100   49.1520 C   0  0  0  0  0  0  0  0  0  0  0  0
   63.5400   33.6990   48.3120 C   0  0  0  0  0  0  0  0  0  0  0  0
   63.3520   33.6070   46.9310 C   0  0  0  0  0  0  0  0  0  0  0  0
   62.0850   33.8130   46.3810 C   0  0  0  0  0  0  0  0  0  0  0  0
   60.9920   34.1040   47.2050 C   0  0  0  0  0  0  0  0  0  0  0  0
   59.7400   34.3080   46.6060 O   0  0  0  0  0  0  0  0  0  0  0  0
   59.1550   33.4780   45.6390 C   0  0  0  0  0  0  0  0  0  0  0  0
   58.9830   33.8980   44.4620 O   0  0  0  0  0  0  0  0  0  0  0  0
   58.7400   32.1450   45.9990 N   0  0  0  0  0  0  0  0  0  0  0  0
   58.9520   31.6300   47.3300 C   0  0  0  0  0  0  0  0  0  0  0  0
   58.5250   32.3500   48.4600 C   0  0  0  0  0  0  0  0  0  0  0  0
   58.5870   31.7660   49.7300 C   0  0  0  0  0  0  0  0  0  0  0  0
   59.0450   30.4530   49.8760 C   0  0  0  0  0  0  0  0  0  0  0  0
   59.4560   29.7230   48.7580 C   0  0  0  0  0  0  0  0  0  0  0  0
   59.4220   30.3130   47.4890 C   0  0  0  0  0  0  0  0  0  0  0  0
   60.0290   29.4180   46.0550 S   0  0  0  0  0  0  0  0  0  0  0  0
   58.6240   29.8850   45.0360 C   0  0  0  0  0  0  0  0  0  0  0  0
   57.9840   28.9340   44.2360 C   0  0  0  0  0  0  0  0  0  0  0  0
   56.9350   29.3200   43.3970 C   0  0  0  0  0  0  0  0  0  0  0  0
   56.5160   30.6540   43.3680 C   0  0  0  0  0  0  0  0  0  0  0  0
   57.1370   31.6040   44.1850 C   0  0  0  0  0  0  0  0  0  0  0  0
   58.2020   31.2280   45.0220 C   0  0  0  0  0  0  0  0  0  0  0  0
   61.1890   34.2220   48.5950 C   0  0  0  0  0  0  0  0  0  0  0  0
   61.8393   33.6696   51.1666 H   0  0  0  0  0  0  0  0  0  0  0  0
   63.6157   33.6183   50.9054 H   0  0  0  0  0  0  0  0  0  0  0  0
   62.7531   35.1939   50.9054 H   0  0  0  0  0  0  0  0  0  0  0  0
   64.5377   33.5269   48.7421 H   0  0  0  0  0  0  0  0  0  0  0  0
   64.2035   33.3719   46.2755 H   0  0  0  0  0  0  0  0  0  0  0  0
   61.9451   33.7460   45.2920 H   0  0  0  0  0  0  0  0  0  0  0  0
   58.1414   33.3745   48.3452 H   0  0  0  0  0  0  0  0  0  0  0  0
   58.2751   32.3405   50.6146 H   0  0  0  0  0  0  0  0  0  0  0  0
   59.0818   29.9932   50.8746 H   0  0  0  0  0  0  0  0  0  0  0  0
   59.8057   28.6866   48.8747 H   0  0  0  0  0  0  0  0  0  0  0  0
   58.3058   27.8826   44.2668 H   0  0  0  0  0  0  0  0  0  0  0  0
   56.4386   28.5740   42.7590 H   0  0  0  0  0  0  0  0  0  0  0  0
   55.6957   30.9568   42.7007 H   0  0  0  0  0  0  0  0  0  0  0  0
   56.7912   32.6482   44.1727 H   0  0  0  0  0  0  0  0  0  0  0  0
   60.3423   34.4815   49.2475 H   0  0  0  0  0  0  0  0  0  0  0  0
  1  2  1  0
  2  3  2  0
  3  4  1  0
  4  5  2  0
  5  6  1  0
  6  7  1  0
  7  8  1  0
  8  9  2  0
  8 10  1  0
 10 11  1  0
 11 12  2  0
 12 13  1  0
 13 14  2  0
 14 15  1  0
 15 16  2  0
 16 17  1  0
 17 18  1  0
 18 19  2  0
 19 20  1  0
 20 21  2  0
 21 22  1  0
 22 23  2  0
  6 24  2  0
 24  2  1  0
 23 10  1  0
 16 11  1  0
 23 18  1  0
  1 25  1  0
  1 26  1  0
  1 27  1  0
  3 28  1  0
  4 29  1  0
  5 30  1  0
 12 31  1  0
 13 32  1  0
 14 33  1  0
 15 34  1  0
 19 35  1  0
 20 36  1  0
 21 37  1  0
 22 38  1  0
 24 39  1  0
M  END
>  <UniqueID>  (65) 
58

>  <SMILES>  (65) 
Cc1cccc(OC(=O)N2c3ccccc3Sc3ccccc32)c1

>  <Energy>  (65) 
67.53789291418394

>  <Genealogy>  (65) 
Cc1cccc(OC(=O)N2c3ccccc3Sc3ccccc32)c1 (3D coordinates assigned)
Cc1cccc(OC(=O)N2c3ccccc3Sc3ccccc32)c1 (nonaromatic ring conformer: 67.53789291418394 kcal/mol)

>  <smiles>  (65) 
Cc1cccc(OC(=O)N2c3ccccc3Sc3ccccc32)c1

>  <score_type>  (65) 
oracle

>  <origin>  (65) 
adg

>  <m_score__min__energy>  (65) 
-7.9900000000000002

>  <m_primary>  (65) 
energy

$$$$
65:0
     RDKit          3D

 34 36  0  0  1  0  0  0  0  0999 V2000
   57.5540   32.3250   41.4780 C   0  0  0  0  0  0  0  0  0  0  0  0
   57.8380   32.0940   42.9170 C   0  0  0  0  0  0  0  0  0  0  0  0
   57.8080   33.1650   43.7460 N   0  0  0  0  0  0  0  0  0  0  0  0
   58.0510   33.0630   45.0600 C   0  0  0  0  0  0  0  0  0  0  0  0
   58.0150   34.1110   45.8370 N   0  0  0  0  0  0  0  0  0  0  0  0
   59.2400   34.9010   45.8330 C   0  0  0  0  0  0  0  0  0  0  0  0
   60.2310   34.4450   46.8110 C   0  0  0  0  0  0  0  0  0  0  0  0
   61.4090   33.8660   46.3730 C   0  0  0  0  0  0  0  0  0  0  0  0
   62.3430   33.4370   47.2780 C   0  0  0  0  0  0  0  0  0  0  0  0
   62.1370   33.5670   48.6330 C   0  0  0  0  0  0  0  0  0  0  0  0
   60.9550   34.1470   49.0650 C   0  0  0  0  0  0  0  0  0  0  0  0
   59.9970   34.5890   48.1720 C   0  0  0  0  0  0  0  0  0  0  0  0
   58.3450   31.8180   45.6010 C   0  0  0  0  0  0  0  0  0  0  0  0
   58.6020   31.6290   46.9220 C   0  0  0  0  0  0  0  0  0  0  0  0
   58.8880   30.3540   47.3830 C   0  0  0  0  0  0  0  0  0  0  0  0
   58.9090   29.2880   46.5090 C   0  0  0  0  0  0  0  0  0  0  0  0
   58.6520   29.4500   45.1640 C   0  0  0  0  0  0  0  0  0  0  0  0
   58.3690   30.7340   44.7230 C   0  0  0  0  0  0  0  0  0  0  0  0
   58.1190   30.8790   43.4090 N   0  0  0  0  0  0  0  0  0  0  0  0
   56.7042   33.0162   41.3783 H   0  0  0  0  0  0  0  0  0  0  0  0
   58.4405   32.7617   40.9948 H   0  0  0  0  0  0  0  0  0  0  0  0
   57.3070   31.3682   40.9948 H   0  0  0  0  0  0  0  0  0  0  0  0
   59.6883   34.8438   44.8301 H   0  0  0  0  0  0  0  0  0  0  0  0
   58.9633   35.9297   46.1074 H   0  0  0  0  0  0  0  0  0  0  0  0
   61.5957   33.7500   45.2952 H   0  0  0  0  0  0  0  0  0  0  0  0
   63.2755   32.9799   46.9154 H   0  0  0  0  0  0  0  0  0  0  0  0
   62.8913   33.2194   49.3542 H   0  0  0  0  0  0  0  0  0  0  0  0
   60.7748   34.2583   50.1444 H   0  0  0  0  0  0  0  0  0  0  0  0
   59.0647   35.0472   48.5336 H   0  0  0  0  0  0  0  0  0  0  0  0
   58.5832   32.4801   47.6186 H   0  0  0  0  0  0  0  0  0  0  0  0
   59.0991   30.1918   48.4503 H   0  0  0  0  0  0  0  0  0  0  0  0
   59.1365   28.2831   46.8943 H   0  0  0  0  0  0  0  0  0  0  0  0
   58.6707   28.5967   44.4701 H   0  0  0  0  0  0  0  0  0  0  0  0
   58.1420   30.0460   42.7640 H   0  0  0  0  0  0  0  0  0  0  0  0
  1  2  1  0
  2  3  2  0
  3  4  1  0
  4  5  2  0
  5  6  1  0
  6  7  1  0
  7  8  2  0
  8  9  1  0
  9 10  2  0
 10 11  1  0
 11 12  2  0
  4 13  1  0
 13 14  2  0
 14 15  1  0
 15 16  2  0
 16 17  1  0
 17 18  2  0
 18 19  1  0
 19  2  1  0
 12  7  1  0
 18 13  1  0
  1 20  1  0
  1 21  1  0
  1 22  1  0
  6 23  1  0
  6 24  1  0
  8 25  1  0
  9 26  1  0
 10 27  1  0
 11 28  1  0
 12 29  1  0
 14 30  1  0
 15 31  1  0
 16 32  1  0
 17 33  1  0
 19 34  1  0
M  END
>  <smiles>  (66) 
Cc1nc(=NCc2ccccc2)c2ccccc2[nH]1

>  <score_type>  (66) 
oracle

>  <origin>  (66) 
adg

>  <m_score__min__energy>  (66) 
-7.0300000000000002

>  <m_primary>  (66) 
energy

$$$$
66:0
     RDKit          3D

 39 41  0  0  0  0  0  0  0  0999 V2000
   62.5910   34.2380   49.7720 C   0  0  0  0  0  0  0  0  0  0  0  0
   63.3480   33.3350   48.9040 N   0  0  0  0  0  0  0  0  0  0  0  0
   64.3470   32.4190   49.4630 C   0  0  0  0  0  0  0  0  0  0  0  0
   63.1100   33.3560   47.4860 C   0  0  0  0  0  0  0  0  0  0  0  0
   63.7400   32.5650   46.7300 O   0  0  0  0  0  0  0  0  0  0  0  0
   62.1370   34.2170   46.9600 O   0  0  0  0  0  0  0  0  0  0  0  0
   60.8580   33.8310   46.5310 C   0  0  0  0  0  0  0  0  0  0  0  0
   60.0070   34.8120   46.0110 C   0  0  0  0  0  0  0  0  0  0  0  0
   58.7280   34.4750   45.5710 C   0  0  0  0  0  0  0  0  0  0  0  0
   58.2890   33.1510   45.6330 C   0  0  0  0  0  0  0  0  0  0  0  0
   59.1350   32.1410   46.1270 C   0  0  0  0  0  0  0  0  0  0  0  0
   58.6750   30.7310   46.1740 C   0  0  0  0  0  0  0  0  0  0  0  0
   57.4970   30.2300   45.6060 C   0  0  0  0  0  0  0  0  0  0  0  0
   57.5340   28.8910   45.9240 C   0  0  0  0  0  0  0  0  0  0  0  0
   56.6260   27.9340   45.6180 N   0  0  0  0  0  0  0  0  0  0  0  0
   56.8560   26.6500   46.0250 C   0  0  0  0  0  0  0  0  0  0  0  0
   55.8480   25.5870   45.7210 C   0  0  0  0  0  0  0  0  0  0  0  0
   54.5800   26.1350   45.7330 F   0  0  0  0  0  0  0  0  0  0  0  0
   58.0180   26.3370   46.7690 C   0  0  0  0  0  0  0  0  0  0  0  0
   58.9270   27.3640   47.0630 C   0  0  0  0  0  0  0  0  0  0  0  0
   59.9770   27.1310   47.7190 O   0  0  0  0  0  0  0  0  0  0  0  0
   58.6410   28.6140   46.6200 N   0  0  0  0  0  0  0  0  0  0  0  0
   59.3470   29.7200   46.7820 N   0  0  0  0  0  0  0  0  0  0  0  0
   60.4240   32.4920   46.5720 C   0  0  0  0  0  0  0  0  0  0  0  0
   62.7965   33.9929   50.8245 H   0  0  0  0  0  0  0  0  0  0  0  0
   62.8920   35.2769   49.5720 H   0  0  0  0  0  0  0  0  0  0  0  0
   61.5155   34.1229   49.5720 H   0  0  0  0  0  0  0  0  0  0  0  0
   64.3054   32.4572   50.5616 H   0  0  0  0  0  0  0  0  0  0  0  0
   64.1356   31.3943   49.1234 H   0  0  0  0  0  0  0  0  0  0  0  0
   65.3496   32.7183   49.1234 H   0  0  0  0  0  0  0  0  0  0  0  0
   60.3492   35.8556   45.9490 H   0  0  0  0  0  0  0  0  0  0  0  0
   58.0621   35.2550   45.1734 H   0  0  0  0  0  0  0  0  0  0  0  0
   57.2744   32.8957   45.2932 H   0  0  0  0  0  0  0  0  0  0  0  0
   56.7268   30.7756   45.0411 H   0  0  0  0  0  0  0  0  0  0  0  0
   56.0534   25.1607   44.7280 H   0  0  0  0  0  0  0  0  0  0  0  0
   55.9112   24.7948   46.4815 H   0  0  0  0  0  0  0  0  0  0  0  0
   58.2050   25.3081   47.1103 H   0  0  0  0  0  0  0  0  0  0  0  0
   60.2660   29.7700   47.2750 H   0  0  0  0  0  0  0  0  0  0  0  0
   61.0987   31.7124   46.9555 H   0  0  0  0  0  0  0  0  0  0  0  0
  1  2  1  0
  2  3  1  0
  2  4  1  0
  4  5  2  0
  4  6  1  0
  6  7  1  0
  7  8  2  0
  8  9  1  0
  9 10  2  0
 10 11  1  0
 11 12  1  0
 12 13  1  0
 13 14  2  0
 14 15  1  0
 15 16  1  0
 16 17  1  0
 17 18  1  0
 16 19  2  0
 19 20  1  0
 20 21  2  0
 20 22  1  0
 22 23  1  0
 11 24  2  0
 24  7  1  0
 23 12  2  0
 22 14  1  0
  1 25  1  0
  1 26  1  0
  1 27  1  0
  3 28  1  0
  3 29  1  0
  3 30  1  0
  8 31  1  0
  9 32  1  0
 10 33  1  0
 13 34  1  0
 17 35  1  0
 17 36  1  0
 19 37  1  0
 23 38  1  0
 24 39  1  0
M  CHG  2  15  -1  23   1
M  END
>  <UniqueID>  (67) 
59

>  <SMILES>  (67) 
CN(C)C(=O)Oc1cccc(-c2cc3[n-]c(CF)cc(=O)n3[nH+]2)c1

>  <Energy>  (67) 
81.663787863367

>  <Genealogy>  (67) 
CN(C)C(=O)Oc1cccc(-c2cc3[n-]c(CF)cc(=O)n3[nH+]2)c1 (protonated)
CN(C)C(=O)Oc1cccc(-c2cc3[n-]c(CF)cc(=O)n3[nH+]2)c1 (3D coordinates assigned)
CN(C)C(=O)Oc1cccc(-c2cc3[n-]c(CF)cc(=O)n3[nH+]2)c1 (optimized conformer: 81.663787863367 kcal/mol)

>  <smiles>  (67) 
CN(C)C(=O)Oc1cccc(-c2cc3[nH]c(CF)cc(=O)n3n2)c1

>  <score_type>  (67) 
oracle

>  <origin>  (67) 
adg

>  <m_score__min__energy>  (67) 
-6.9400000000000004

>  <m_primary>  (67) 
energy

$$$$
67:0
     RDKit          3D

 33 34  0  0  0  0  0  0  0  0999 V2000
   58.3460   33.2820   44.2700 O   0  0  0  0  0  0  0  0  0  0  0  0
   57.6790   32.4780   45.3510 S   0  0  0  0  0  0  0  0  0  0  0  0
   56.2740   32.1630   44.9250 O   0  0  0  0  0  0  0  0  0  0  0  0
   57.6250   33.4260   46.8160 N   0  0  0  0  0  0  0  0  0  0  0  0
   58.5710   34.5500   46.7740 C   0  0  0  0  0  0  0  0  0  0  0  0
   59.9370   34.1270   47.2510 C   0  0  0  0  0  0  0  0  0  0  0  0
   60.9510   33.8770   46.3110 C   0  0  0  0  0  0  0  0  0  0  0  0
   62.2440   33.5550   46.7370 C   0  0  0  0  0  0  0  0  0  0  0  0
   62.5350   33.4820   48.1020 C   0  0  0  0  0  0  0  0  0  0  0  0
   64.1630   33.1070   48.6340 Cl  0  0  0  0  0  0  0  0  0  0  0  0
   61.5270   33.7150   49.0440 C   0  0  0  0  0  0  0  0  0  0  0  0
   60.2310   34.0310   48.6240 C   0  0  0  0  0  0  0  0  0  0  0  0
   59.2740   34.2590   49.5580 F   0  0  0  0  0  0  0  0  0  0  0  0
   58.5300   30.9460   45.6530 C   0  0  0  0  0  0  0  0  0  0  0  0
   59.4950   30.9440   46.6740 C   0  0  0  0  0  0  0  0  0  0  0  0
   60.2760   29.8170   46.9210 C   0  0  0  0  0  0  0  0  0  0  0  0
   60.0960   28.6670   46.1620 C   0  0  0  0  0  0  0  0  0  0  0  0
   59.1090   28.6270   45.1770 C   0  0  0  0  0  0  0  0  0  0  0  0
   58.2840   29.7440   44.9280 C   0  0  0  0  0  0  0  0  0  0  0  0
   57.1950   29.6260   43.8780 C   0  0  0  0  0  0  0  0  0  0  0  0
   57.3680   28.4580   43.1600 F   0  0  0  0  0  0  0  0  0  0  0  0
   55.9370   29.5930   44.4570 F   0  0  0  0  0  0  0  0  0  0  0  0
   57.2250   30.7120   43.0220 F   0  0  0  0  0  0  0  0  0  0  0  0
   56.6620   33.8290   46.8750 H   0  0  0  0  0  0  0  0  0  0  0  0
   58.6489   34.9157   45.7395 H   0  0  0  0  0  0  0  0  0  0  0  0
   58.1995   35.3447   47.4377 H   0  0  0  0  0  0  0  0  0  0  0  0
   60.7272   33.9347   45.2356 H   0  0  0  0  0  0  0  0  0  0  0  0
   63.0332   33.3589   45.9962 H   0  0  0  0  0  0  0  0  0  0  0  0
   61.7546   33.6494   50.1182 H   0  0  0  0  0  0  0  0  0  0  0  0
   59.6361   31.8459   47.2877 H   0  0  0  0  0  0  0  0  0  0  0  0
   61.0351   29.8375   47.7168 H   0  0  0  0  0  0  0  0  0  0  0  0
   60.7325   27.7873   46.3381 H   0  0  0  0  0  0  0  0  0  0  0  0
   58.9718   27.7100   44.5851 H   0  0  0  0  0  0  0  0  0  0  0  0
  1  2  2  0
  2  3  2  0
  2  4  1  0
  4  5  1  0
  5  6  1  0
  6  7  2  0
  7  8  1  0
  8  9  2  0
  9 10  1  0
  9 11  1  0
 11 12  2  0
 12 13  1  0
  2 14  1  0
 14 15  2  0
 15 16  1  0
 16 17  2  0
 17 18  1  0
 18 19  2  0
 19 20  1  0
 20 21  1  0
 20 22  1  0
 20 23  1  0
 12  6  1  0
 19 14  1  0
  4 24  1  0
  5 25  1  0
  5 26  1  0
  7 27  1  0
  8 28  1  0
 11 29  1  0
 15 30  1  0
 16 31  1  0
 17 32  1  0
 18 33  1  0
M  END
>  <UniqueID>  (68) 
60

>  <SMILES>  (68) 
O=S(=O)(NCc1ccc(Cl)cc1F)c1ccccc1C(F)(F)F

>  <Energy>  (68) 
34.85121507224066

>  <Genealogy>  (68) 
O=S(=O)(NCc1ccc(Cl)cc1F)c1ccccc1C(F)(F)F (3D coordinates assigned)
O=S(=O)(NCc1ccc(Cl)cc1F)c1ccccc1C(F)(F)F (optimized conformer: 34.85121507224066 kcal/mol)

>  <smiles>  (68) 
O=S(=O)(NCc1ccc(Cl)cc1F)c1ccccc1C(F)(F)F

>  <score_type>  (68) 
oracle

>  <origin>  (68) 
adg

>  <m_score__min__energy>  (68) 
-7.2199999999999998

>  <m_primary>  (68) 
energy

$$$$
68:0
     RDKit          3D

 43 44  0  0  0  0  0  0  0  0999 V2000
   57.6080   28.2720   43.3860 C   0  0  0  0  0  0  0  0  0  0  0  0
   56.6490   29.1780   42.6190 C   0  0  0  0  0  0  0  0  0  0  0  0
   56.8210   30.5800   43.0290 N   0  0  0  0  0  0  0  0  0  0  0  0
   57.0090   31.5930   41.9790 C   0  0  0  0  0  0  0  0  0  0  0  0
   58.3340   32.3310   42.1610 C   0  0  0  0  0  0  0  0  0  0  0  0
   56.7240   30.9260   44.4320 C   0  0  0  0  0  0  0  0  0  0  0  0
   56.2410   30.0910   45.2460 O   0  0  0  0  0  0  0  0  0  0  0  0
   57.2520   32.2230   44.9930 C   0  0  0  0  0  0  0  0  0  0  0  0
   58.4240   32.0050   45.9320 C   0  0  0  0  0  0  0  0  0  0  0  0
   58.6360   30.7740   46.4930 N   0  0  0  0  0  0  0  0  0  0  0  0
   59.7080   30.5340   47.3040 C   0  0  0  0  0  0  0  0  0  0  0  0
   59.9230   29.2320   47.8880 N   0  0  0  0  0  0  0  0  0  0  0  0
   59.8000   28.0140   47.0760 C   0  0  0  0  0  0  0  0  0  0  0  0
   60.6520   26.8900   47.6710 C   0  0  0  0  0  0  0  0  0  0  0  0
   60.3770   26.7250   49.0480 O   0  0  0  0  0  0  0  0  0  0  0  0
   60.7860   27.8790   49.7540 C   0  0  0  0  0  0  0  0  0  0  0  0
   59.9420   29.0910   49.3490 C   0  0  0  0  0  0  0  0  0  0  0  0
   60.5890   31.5360   47.5580 N   0  0  0  0  0  0  0  0  0  0  0  0
   60.4370   32.7660   47.0120 C   0  0  0  0  0  0  0  0  0  0  0  0
   59.3600   33.0310   46.1690 C   0  0  0  0  0  0  0  0  0  0  0  0
   59.2390   34.7730   45.3730 Br  0  0  0  0  0  0  0  0  0  0  0  0
   57.4595   28.4123   44.4669 H   0  0  0  0  0  0  0  0  0  0  0  0
   57.4111   27.2225   43.1220 H   0  0  0  0  0  0  0  0  0  0  0  0
   58.6447   28.5282   43.1220 H   0  0  0  0  0  0  0  0  0  0  0  0
   56.8517   29.0891   41.5415 H   0  0  0  0  0  0  0  0  0  0  0  0
   55.6166   28.8685   42.8391 H   0  0  0  0  0  0  0  0  0  0  0  0
   57.0050   31.0979   40.9967 H   0  0  0  0  0  0  0  0  0  0  0  0
   56.1891   32.3233   42.0459 H   0  0  0  0  0  0  0  0  0  0  0  0
   58.5441   32.4480   43.2344 H   0  0  0  0  0  0  0  0  0  0  0  0
   59.1431   31.7536   41.6898 H   0  0  0  0  0  0  0  0  0  0  0  0
   58.2690   33.3229   41.6898 H   0  0  0  0  0  0  0  0  0  0  0  0
   57.5794   32.8624   44.1599 H   0  0  0  0  0  0  0  0  0  0  0  0
   56.4425   32.6977   45.5669 H   0  0  0  0  0  0  0  0  0  0  0  0
   57.9540   30.0060   46.3160 H   0  0  0  0  0  0  0  0  0  0  0  0
   58.7467   27.6978   47.0536 H   0  0  0  0  0  0  0  0  0  0  0  0
   60.1514   28.2274   46.0557 H   0  0  0  0  0  0  0  0  0  0  0  0
   60.4286   25.9508   47.1438 H   0  0  0  0  0  0  0  0  0  0  0  0
   61.7136   27.1529   47.5531 H   0  0  0  0  0  0  0  0  0  0  0  0
   60.6687   27.7021   50.8333 H   0  0  0  0  0  0  0  0  0  0  0  0
   61.8391   28.0857   49.5125 H   0  0  0  0  0  0  0  0  0  0  0  0
   58.9133   28.9554   49.7141 H   0  0  0  0  0  0  0  0  0  0  0  0
   60.3816   29.9974   49.7907 H   0  0  0  0  0  0  0  0  0  0  0  0
   61.1665   33.5586   47.2349 H   0  0  0  0  0  0  0  0  0  0  0  0
  1  2  1  0
  2  3  1  0
  3  4  1  0
  4  5  1  0
  3  6  1  0
  6  7  2  0
  6  8  1  0
  8  9  1  0
  9 10  2  0
 10 11  1  0
 11 12  1  0
 12 13  1  0
 13 14  1  0
 14 15  1  0
 15 16  1  0
 16 17  1  0
 11 18  2  0
 18 19  1  0
 19 20  2  0
 20 21  1  0
 20  9  1  0
 17 12  1  0
  1 22  1  0
  1 23  1  0
  1 24  1  0
  2 25  1  0
  2 26  1  0
  4 27  1  0
  4 28  1  0
  5 29  1  0
  5 30  1  0
  5 31  1  0
  8 32  1  0
  8 33  1  0
 10 34  1  0
 13 35  1  0
 13 36  1  0
 14 37  1  0
 14 38  1  0
 16 39  1  0
 16 40  1  0
 17 41  1  0
 17 42  1  0
 19 43  1  0
M  CHG  1  10   1
M  END
>  <UniqueID>  (69) 
61

>  <SMILES>  (69) 
CCN(CC)C(=O)Cc1[nH+]c(N2CCOCC2)ncc1Br

>  <Energy>  (69) 
41.921322638844316

>  <Genealogy>  (69) 
CCN(CC)C(=O)Cc1[nH+]c(N2CCOCC2)ncc1Br (protonated)
CCN(CC)C(=O)Cc1[nH+]c(N2CCOCC2)ncc1Br (3D coordinates assigned)
CCN(CC)C(=O)Cc1[nH+]c(N2CCOCC2)ncc1Br (nonaromatic ring conformer: 41.921322638844316 kcal/mol)

>  <smiles>  (69) 
CCN(CC)C(=O)Cc1nc(N2CCOCC2)ncc1Br

>  <score_type>  (69) 
oracle

>  <origin>  (69) 
adg

>  <m_score__min__energy>  (69) 
-5.1500000000000004

>  <m_primary>  (69) 
energy

$$$$
69:0
     RDKit          3D

 28 29  0  0  0  0  0  0  0  0999 V2000
   59.2625   31.5112   44.8659 H   0  0  0  0  0  0  0  0  0  0  0  0
   58.7130   30.5870   45.0980 C   0  0  0  0  0  0  0  0  0  0  0  0
   57.1240   30.2490   44.6240 S   0  0  0  0  0  0  0  0  0  0  0  0
   57.0800   28.7380   45.3470 C   0  0  0  0  0  0  0  0  0  0  0  0
   58.2820   28.4620   45.9660 C   0  0  0  0  0  0  0  0  0  0  0  0
   59.2190   29.5080   45.8310 C   0  0  0  0  0  0  0  0  0  0  0  0
   60.6060   29.4930   46.3970 C   0  0  0  0  0  0  0  0  0  0  0  0
   60.5537   29.4936   47.4958 H   0  0  0  0  0  0  0  0  0  0  0  0
   61.1317   28.5891   46.0554 H   0  0  0  0  0  0  0  0  0  0  0  0
   61.1511   30.3853   46.0554 H   0  0  0  0  0  0  0  0  0  0  0  0
   58.4160   27.2340   46.6230 C   0  0  0  0  0  0  0  0  0  0  0  0
   59.4830   26.9150   47.2110 O   0  0  0  0  0  0  0  0  0  0  0  0
   57.3620   26.3700   46.6210 N   0  0  0  0  0  0  0  0  0  0  0  0
   56.1820   26.6700   45.9940 C   0  0  0  0  0  0  0  0  0  0  0  0
   55.1890   25.8290   46.0060 N   0  0  0  0  0  0  0  0  0  0  0  0
   55.2890   24.3960   45.7270 C   0  0  0  0  0  0  0  0  0  0  0  0
   54.2789   23.9607   45.7133 H   0  0  0  0  0  0  0  0  0  0  0  0
   55.8996   23.9275   46.5129 H   0  0  0  0  0  0  0  0  0  0  0  0
   55.9590   24.1470   44.3760 C   0  0  0  0  0  0  0  0  0  0  0  0
   57.0491   24.0947   44.5138 H   0  0  0  0  0  0  0  0  0  0  0  0
   55.7094   24.9708   43.6911 H   0  0  0  0  0  0  0  0  0  0  0  0
   55.4980   22.9310   43.8270 O   0  0  0  0  0  0  0  0  0  0  0  0
   56.5280   22.3400   43.0680 C   0  0  0  0  0  0  0  0  0  0  0  0
   57.2804   21.9083   43.7444 H   0  0  0  0  0  0  0  0  0  0  0  0
   56.1068   21.5462   42.4336 H   0  0  0  0  0  0  0  0  0  0  0  0
   57.0007   23.1042   42.4336 H   0  0  0  0  0  0  0  0  0  0  0  0
   56.0400   27.8680   45.3530 N   0  0  0  0  0  0  0  0  0  0  0  0
   55.1460   28.1150   44.8710 H   0  0  0  0  0  0  0  0  0  0  0  0
  1  2  1  0
  2  3  1  0
  3  4  1  0
  4  5  2  0
  5  6  1  0
  6  7  1  0
  7  8  1  0
  7  9  1  0
  7 10  1  0
  5 11  1  0
 11 12  2  0
 11 13  1  0
 13 14  1  0
 14 15  2  0
 15 16  1  0
 16 17  1  0
 16 18  1  0
 16 19  1  0
 19 20  1  0
 19 21  1  0
 19 22  1  0
 22 23  1  0
 23 24  1  0
 23 25  1  0
 23 26  1  0
 14 27  1  0
 27 28  1  0
  6  2  2  0
 27  4  1  0
M  CHG  1  13  -1
M  END
>  <UniqueID>  (70) 
62

>  <SMILES>  (70) 
COCC/N=c1\[n-]c(=O)c2c(C)csc2[nH]1

>  <Energy>  (70) 
60.031787479691914

>  <Genealogy>  (70) 
COCCN=c1[n-]c(=O)c2c(C)csc2[nH]1 (protonated)
COCC/N=c1\[n-]c(=O)c2c(C)csc2[nH]1 (cis-trans isomerization)
COCC/N=c1\[n-]c(=O)c2c(C)csc2[nH]1 (3D coordinates assigned)
COCC/N=c1\[n-]c(=O)c2c(C)csc2[nH]1 (optimized conformer: 60.031787479691914 kcal/mol)

>  <smiles>  (70) 
COCCN=c1[nH]c(=O)c2c(C)csc2[nH]1

>  <score_type>  (70) 
oracle

>  <origin>  (70) 
adg

>  <m_score__min__energy>  (70) 
-7.4900000000000002

>  <m_primary>  (70) 
energy

$$$$
70:0
     RDKit          3D

 46 48  0  0  0  0  0  0  0  0999 V2000
   60.3830   28.4570   48.5720 C   0  0  0  0  0  0  0  0  0  0  0  0
   60.3260   29.6810   47.6620 C   0  0  0  0  0  0  0  0  0  0  0  0
   59.1470   29.6200   46.7780 N   0  0  0  0  0  0  0  0  0  0  0  0
   58.5530   28.3970   46.6120 C   0  0  0  0  0  0  0  0  0  0  0  0
   57.4200   28.2360   45.8110 C   0  0  0  0  0  0  0  0  0  0  0  0
   56.8080   26.9000   45.6840 C   0  0  0  0  0  0  0  0  0  0  0  0
   57.5270   25.9240   45.3440 O   0  0  0  0  0  0  0  0  0  0  0  0
   55.4240   26.6740   45.9810 N   0  0  0  0  0  0  0  0  0  0  0  0
   54.6960   25.4650   45.6180 C   0  0  0  0  0  0  0  0  0  0  0  0
   55.4540   24.2030   46.0730 C   0  0  0  0  0  0  0  0  0  0  0  0
   55.7390   23.2080   45.0110 N   0  0  0  0  0  0  0  0  0  0  0  0
   56.7530   22.1980   45.3550 C   0  0  0  0  0  0  0  0  0  0  0  0
   56.7640   21.0850   44.2860 C   0  0  0  0  0  0  0  0  0  0  0  0
   56.0450   21.4420   43.1150 O   0  0  0  0  0  0  0  0  0  0  0  0
   56.4390   22.7280   42.6780 C   0  0  0  0  0  0  0  0  0  0  0  0
   55.9800   23.8020   43.6820 C   0  0  0  0  0  0  0  0  0  0  0  0
   56.9050   29.3410   45.1260 C   0  0  0  0  0  0  0  0  0  0  0  0
   55.9080   29.2010   44.3630 O   0  0  0  0  0  0  0  0  0  0  0  0
   57.5160   30.5960   45.2740 C   0  0  0  0  0  0  0  0  0  0  0  0
   57.0250   31.7280   44.6030 C   0  0  0  0  0  0  0  0  0  0  0  0
   57.6570   32.9580   44.7510 C   0  0  0  0  0  0  0  0  0  0  0  0
   58.7820   33.0550   45.5640 C   0  0  0  0  0  0  0  0  0  0  0  0
   59.5890   34.6040   45.7420 Cl  0  0  0  0  0  0  0  0  0  0  0  0
   59.2580   31.9590   46.2160 N   0  0  0  0  0  0  0  0  0  0  0  0
   58.6590   30.7270   46.1080 C   0  0  0  0  0  0  0  0  0  0  0  0
   60.3679   28.7806   49.6232 H   0  0  0  0  0  0  0  0  0  0  0  0
   59.5139   27.8123   48.3743 H   0  0  0  0  0  0  0  0  0  0  0  0
   61.3082   27.8959   48.3743 H   0  0  0  0  0  0  0  0  0  0  0  0
   60.2665   30.5884   48.2809 H   0  0  0  0  0  0  0  0  0  0  0  0
   61.2331   29.7014   47.0401 H   0  0  0  0  0  0  0  0  0  0  0  0
   58.9786   27.5202   47.1219 H   0  0  0  0  0  0  0  0  0  0  0  0
   53.7070   25.4831   46.0993 H   0  0  0  0  0  0  0  0  0  0  0  0
   54.5929   25.4348   44.5233 H   0  0  0  0  0  0  0  0  0  0  0  0
   56.4144   24.5222   46.5040 H   0  0  0  0  0  0  0  0  0  0  0  0
   54.7910   23.6962   46.7896 H   0  0  0  0  0  0  0  0  0  0  0  0
   57.7437   22.6743   45.3968 H   0  0  0  0  0  0  0  0  0  0  0  0
   56.5117   21.7593   46.3344 H   0  0  0  0  0  0  0  0  0  0  0  0
   57.8073   20.8747   44.0078 H   0  0  0  0  0  0  0  0  0  0  0  0
   56.2727   20.2021   44.7209 H   0  0  0  0  0  0  0  0  0  0  0  0
   57.5349   22.7602   42.5890 H   0  0  0  0  0  0  0  0  0  0  0  0
   55.9736   22.9306   41.7021 H   0  0  0  0  0  0  0  0  0  0  0  0
   56.7602   24.5727   43.7675 H   0  0  0  0  0  0  0  0  0  0  0  0
   55.0414   24.2460   43.3188 H   0  0  0  0  0  0  0  0  0  0  0  0
   56.1378   31.6414   43.9584 H   0  0  0  0  0  0  0  0  0  0  0  0
   57.2708   33.8464   44.2299 H   0  0  0  0  0  0  0  0  0  0  0  0
   60.1120   32.1030   46.7940 H   0  0  0  0  0  0  0  0  0  0  0  0
  1  2  1  0
  2  3  1  0
  3  4  1  0
  4  5  2  0
  5  6  1  0
  6  7  2  0
  6  8  1  0
  8  9  1  0
  9 10  1  0
 10 11  1  0
 11 12  1  0
 12 13  1  0
 13 14  1  0
 14 15  1  0
 15 16  1  0
  5 17  1  0
 17 18  2  0
 17 19  1  0
 19 20  2  0
 20 21  1  0
 21 22  2  0
 22 23  1  0
 22 24  1  0
 24 25  2  0
 25  3  1  0
 16 11  1  0
 25 19  1  0
  1 26  1  0
  1 27  1  0
  1 28  1  0
  2 29  1  0
  2 30  1  0
  4 31  1  0
  9 32  1  0
  9 33  1  0
 10 34  1  0
 10 35  1  0
 12 36  1  0
 12 37  1  0
 13 38  1  0
 13 39  1  0
 15 40  1  0
 15 41  1  0
 16 42  1  0
 16 43  1  0
 20 44  1  0
 21 45  1  0
 24 46  1  0
M  CHG  2   8  -1  24   1
M  END
>  <UniqueID>  (71) 
63

>  <SMILES>  (71) 
CCn1cc(C(=O)[N-]CCN2CCOCC2)c(=O)c2ccc(Cl)[nH+]c21

>  <Energy>  (71) 
71.80537797428667

>  <Genealogy>  (71) 
CCn1cc(C(=O)[N-]CCN2CCOCC2)c(=O)c2ccc(Cl)[nH+]c21 (protonated)
CCn1cc(C(=O)[N-]CCN2CCOCC2)c(=O)c2ccc(Cl)[nH+]c21 (3D coordinates assigned)
CCn1cc(C(=O)[N-]CCN2CCOCC2)c(=O)c2ccc(Cl)[nH+]c21 (nonaromatic ring conformer: 71.80537797428667 kcal/mol)

>  <smiles>  (71) 
CCn1cc(C(=O)NCCN2CCOCC2)c(=O)c2ccc(Cl)nc21

>  <score_type>  (71) 
oracle

>  <origin>  (71) 
adg

>  <m_score__min__energy>  (71) 
-8.5099999999999998

>  <m_primary>  (71) 
energy

$$$$
71:0
     RDKit          3D

 25 26  0  0  0  0  0  0  0  0999 V2000
   56.3220   30.8950   42.9030 O   0  0  0  0  0  0  0  0  0  0  0  0
   57.3570   30.9320   43.9940 S   0  0  0  0  0  0  0  0  0  0  0  0
   58.6980   31.2280   43.3870 O   0  0  0  0  0  0  0  0  0  0  0  0
   56.9510   32.1920   45.1150 N   0  0  0  0  0  0  0  0  0  0  0  0
   57.8740   33.1500   45.6480 C   0  0  0  0  0  0  0  0  0  0  0  0
   58.2270   33.0690   46.9990 C   0  0  0  0  0  0  0  0  0  0  0  0
   59.1190   33.9910   47.5480 C   0  0  0  0  0  0  0  0  0  0  0  0
   59.6540   34.9920   46.7360 C   0  0  0  0  0  0  0  0  0  0  0  0
   59.3050   35.0600   45.4230 N   0  0  0  0  0  0  0  0  0  0  0  0
   58.4380   34.1730   44.8660 C   0  0  0  0  0  0  0  0  0  0  0  0
   57.4370   29.3830   44.8260 C   0  0  0  0  0  0  0  0  0  0  0  0
   58.6730   28.8620   45.2380 C   0  0  0  0  0  0  0  0  0  0  0  0
   58.7310   27.6290   45.8940 C   0  0  0  0  0  0  0  0  0  0  0  0
   57.5570   26.9110   46.1440 C   0  0  0  0  0  0  0  0  0  0  0  0
   56.3220   27.4290   45.7410 C   0  0  0  0  0  0  0  0  0  0  0  0
   55.1560   26.7180   45.9910 O   0  0  0  0  0  0  0  0  0  0  0  0
   56.2610   28.6630   45.0850 C   0  0  0  0  0  0  0  0  0  0  0  0
   57.8001   32.2760   47.6307 H   0  0  0  0  0  0  0  0  0  0  0  0
   59.3977   33.9294   48.6103 H   0  0  0  0  0  0  0  0  0  0  0  0
   60.3573   35.7254   47.1574 H   0  0  0  0  0  0  0  0  0  0  0  0
   58.1772   34.2561   43.8006 H   0  0  0  0  0  0  0  0  0  0  0  0
   59.5980   29.4249   45.0444 H   0  0  0  0  0  0  0  0  0  0  0  0
   59.7017   27.2226   46.2142 H   0  0  0  0  0  0  0  0  0  0  0  0
   57.6050   25.9393   46.6574 H   0  0  0  0  0  0  0  0  0  0  0  0
   55.2884   29.0700   44.7714 H   0  0  0  0  0  0  0  0  0  0  0  0
  1  2  2  0
  2  3  2  0
  2  4  1  0
  4  5  1  0
  5  6  2  0
  6  7  1  0
  7  8  2  0
  8  9  1  0
  9 10  2  0
  2 11  1  0
 11 12  2  0
 12 13  1  0
 13 14  2  0
 14 15  1  0
 15 16  1  0
 15 17  2  0
 10  5  1  0
 17 11  1  0
  6 18  1  0
  7 19  1  0
  8 20  1  0
 10 21  1  0
 12 22  1  0
 13 23  1  0
 14 24  1  0
 17 25  1  0
M  CHG  2   4  -1  16  -1
M  END
>  <UniqueID>  (72) 
64

>  <SMILES>  (72) 
O=S(=O)([N-]c1cccnc1)c1cccc([O-])c1

>  <Energy>  (72) 
29.838470552066987

>  <Genealogy>  (72) 
O=S(=O)([N-]c1cccnc1)c1cccc([O-])c1 (protonated)
O=S(=O)([N-]c1cccnc1)c1cccc([O-])c1 (3D coordinates assigned)
O=S(=O)([N-]c1cccnc1)c1cccc([O-])c1 (optimized conformer: 29.838470552066987 kcal/mol)

>  <smiles>  (72) 
O=S(=O)(Nc1cccnc1)c1cccc(O)c1

>  <score_type>  (72) 
oracle

>  <origin>  (72) 
adg

>  <m_score__min__energy>  (72) 
-11.199999999999999

>  <m_primary>  (72) 
energy

$$$$
72:0
     RDKit          3D

 73 78  0  0  1  0  0  0  0  0999 V2000
   56.6810   30.9280   42.6740 C   0  0  0  0  0  0  0  0  0  0  0  0
   57.4200   31.5230   43.8110 C   0  0  0  0  0  0  0  0  0  0  0  0
   58.0740   32.7180   43.6180 C   0  0  0  0  0  0  0  0  0  0  0  0
   58.7710   33.3020   44.6480 C   0  0  0  0  0  0  0  0  0  0  0  0
   58.8410   32.7210   45.8960 C   0  0  0  0  0  0  0  0  0  0  0  0
   59.5710   33.3110   47.0130 C   0  0  0  0  0  0  0  0  0  0  0  0
   59.4620   34.5480   47.2860 O   0  0  0  0  0  0  0  0  0  0  0  0
   60.4330   32.5610   47.8520 N   0  0  0  0  0  0  0  0  0  0  0  0
   61.1490   33.1230   48.9430 C   0  0  0  0  0  0  0  0  0  0  0  0
   60.5450   33.2080   50.1900 C   0  0  0  0  0  0  0  0  0  0  0  0
   61.2000   33.7480   51.2900 C   0  0  0  0  0  0  0  0  0  0  0  0
   60.6070   33.8350   52.5750 N   0  0  0  0  0  0  0  0  0  0  0  0
   61.3290   33.4920   53.8070 C   0  0  0  0  0  0  0  0  0  0  0  0
   60.6010   32.2700   54.3500 C   0  0  0  0  0  0  0  0  0  0  0  0
   59.2710   32.7740   54.7280 N   0  0  0  0  0  0  0  0  0  0  0  0
   58.6140   31.6560   55.3760 C   0  0  0  0  0  0  0  0  0  0  0  0
   58.5540   33.0980   53.5190 C   0  0  0  0  0  0  0  0  0  0  0  0
   59.2240   34.2630   52.7860 C   0  0  0  0  0  0  0  0  0  0  0  0
   62.4840   34.1960   51.0730 C   0  0  0  0  0  0  0  0  0  0  0  0
   63.0930   34.1110   49.8150 C   0  0  0  0  0  0  0  0  0  0  0  0
   62.4340   33.5730   48.7340 C   0  0  0  0  0  0  0  0  0  0  0  0
   63.1800   33.4600   47.1600 Cl  0  0  0  0  0  0  0  0  0  0  0  0
   58.1900   31.5320   46.0850 C   0  0  0  0  0  0  0  0  0  0  0  0
   57.4940   30.9480   45.0620 C   0  0  0  0  0  0  0  0  0  0  0  0
   56.7930   29.6960   45.2140 N   0  0  0  0  0  0  0  0  0  0  0  0
   57.4960   28.5910   45.2340 C   0  0  0  0  0  0  0  0  0  0  0  0
   57.3900   27.6910   44.2130 N   0  0  0  0  0  0  0  0  0  0  0  0
   58.1050   26.5490   44.2140 C   0  0  0  0  0  0  0  0  0  0  0  0
   58.9610   26.2270   45.2100 N   0  0  0  0  0  0  0  0  0  0  0  0
   59.0690   27.1090   46.2150 C   0  0  0  0  0  0  0  0  0  0  0  0
   59.9510   26.7830   47.2460 C   0  0  0  0  0  0  0  0  0  0  0  0
   60.0550   27.6850   48.2650 N   0  0  0  0  0  0  0  0  0  0  0  0
   59.3510   28.8320   48.2860 C   0  0  0  0  0  0  0  0  0  0  0  0
   59.5480   29.6890   49.4040 N   0  0  0  0  0  0  0  0  0  0  0  0
   60.8580   29.7200   50.0320 C   0  0  0  0  0  0  0  0  0  0  0  0
   60.6120   29.6000   51.5360 C   0  0  0  0  0  0  0  0  0  0  0  0
   59.7180   30.5820   51.9500 O   0  0  0  0  0  0  0  0  0  0  0  0
   58.4460   30.2650   51.4370 C   0  0  0  0  0  0  0  0  0  0  0  0
   58.5010   30.5360   49.9470 C   0  0  0  0  0  0  0  0  0  0  0  0
   58.5000   29.1530   47.2960 N   0  0  0  0  0  0  0  0  0  0  0  0
   58.3620   28.2930   46.2660 C   0  0  0  0  0  0  0  0  0  0  0  0
   55.8778   30.2813   43.0569 H   0  0  0  0  0  0  0  0  0  0  0  0
   56.2449   31.7299   42.0602 H   0  0  0  0  0  0  0  0  0  0  0  0
   57.3714   30.3308   42.0602 H   0  0  0  0  0  0  0  0  0  0  0  0
   58.0387   33.2084   42.6340 H   0  0  0  0  0  0  0  0  0  0  0  0
   59.2864   34.2577   44.4722 H   0  0  0  0  0  0  0  0  0  0  0  0
   60.5700   31.5370   47.6870 H   0  0  0  0  0  0  0  0  0  0  0  0
   59.5167   32.8366   50.3110 H   0  0  0  0  0  0  0  0  0  0  0  0
   62.3799   33.2524   53.5875 H   0  0  0  0  0  0  0  0  0  0  0  0
   61.3442   34.3233   54.5273 H   0  0  0  0  0  0  0  0  0  0  0  0
   60.5171   31.4917   53.5772 H   0  0  0  0  0  0  0  0  0  0  0  0
   61.1305   31.8084   55.1965 H   0  0  0  0  0  0  0  0  0  0  0  0
   58.6827   31.7729   56.4676 H   0  0  0  0  0  0  0  0  0  0  0  0
   57.5560   31.6284   55.0760 H   0  0  0  0  0  0  0  0  0  0  0  0
   59.1047   30.7183   55.0760 H   0  0  0  0  0  0  0  0  0  0  0  0
   58.5409   32.2171   52.8603 H   0  0  0  0  0  0  0  0  0  0  0  0
   57.5280   33.3920   53.7853 H   0  0  0  0  0  0  0  0  0  0  0  0
   58.7266   34.4507   51.8230 H   0  0  0  0  0  0  0  0  0  0  0  0
   59.1652   35.1997   53.3598 H   0  0  0  0  0  0  0  0  0  0  0  0
   63.0468   34.6327   51.9112 H   0  0  0  0  0  0  0  0  0  0  0  0
   64.1206   34.4825   49.6884 H   0  0  0  0  0  0  0  0  0  0  0  0
   58.2267   31.0412   47.0688 H   0  0  0  0  0  0  0  0  0  0  0  0
   56.7610   27.8640   43.4220 H   0  0  0  0  0  0  0  0  0  0  0  0
   57.9878   25.8513   43.3717 H   0  0  0  0  0  0  0  0  0  0  0  0
   60.5316   25.8487   47.2379 H   0  0  0  0  0  0  0  0  0  0  0  0
   61.4710   28.8783   49.6774 H   0  0  0  0  0  0  0  0  0  0  0  0
   61.3987   30.6459   49.7866 H   0  0  0  0  0  0  0  0  0  0  0  0
   60.1926   28.6078   51.7588 H   0  0  0  0  0  0  0  0  0  0  0  0
   61.5649   29.7298   52.0700 H   0  0  0  0  0  0  0  0  0  0  0  0
   58.2153   29.2055   51.6219 H   0  0  0  0  0  0  0  0  0  0  0  0
   57.6618   30.8656   51.9210 H   0  0  0  0  0  0  0  0  0  0  0  0
   57.5353   30.2896   49.4815 H   0  0  0  0  0  0  0  0  0  0  0  0
   58.7089   31.5974   49.7467 H   0  0  0  0  0  0  0  0  0  0  0  0
  1  2  1  0
  2  3  2  0
  3  4  1  0
  4  5  2  0
  5  6  1  0
  6  7  2  0
  6  8  1  0
  8  9  1  0
  9 10  2  0
 10 11  1  0
 11 12  1  0
 12 13  1  0
 13 14  1  0
 14 15  1  0
 15 16  1  0
 15 17  1  0
 17 18  1  0
 11 19  2  0
 19 20  1  0
 20 21  2  0
 21 22  1  0
  5 23  1  0
 23 24  2  0
 24 25  1  0
 25 26  2  0
 26 27  1  0
 27 28  1  0
 28 29  2  0
 29 30  1  0
 30 31  2  0
 31 32  1  0
 32 33  2  0
 33 34  1  0
 34 35  1  0
 35 36  1  0
 36 37  1  0
 37 38  1  0
 38 39  1  0
 33 40  1  0
 40 41  2  0
 24  2  1  0
 41 26  1  0
 21  9  1  0
 41 30  1  0
 18 12  1  0
 39 34  1  0
  1 42  1  0
  1 43  1  0
  1 44  1  0
  3 45  1  0
  4 46  1  0
  8 47  1  0
 10 48  1  0
 13 49  1  0
 13 50  1  0
 14 51  1  0
 14 52  1  0
 16 53  1  0
 16 54  1  0
 16 55  1  0
 17 56  1  0
 17 57  1  0
 18 58  1  0
 18 59  1  0
 19 60  1  0
 20 61  1  0
 23 62  1  0
 27 63  1  0
 28 64  1  0
 31 65  1  0
 35 66  1  0
 35 67  1  0
 36 68  1  0
 36 69  1  0
 38 70  1  0
 38 71  1  0
 39 72  1  0
 39 73  1  0
M  END
>  <smiles>  (73) 
Cc1ccc(C(=O)Nc2cc(N3CCN(C)CC3)ccc2Cl)cc1N=c1[nH]cnc2cnc(N3CCOCC3)nc12

>  <score_type>  (73) 
oracle

>  <origin>  (73) 
adg

>  <m_score__min__energy>  (73) 
-9.8800000000000008

>  <m_primary>  (73) 
energy

$$$$
73:0
     RDKit          3D

 36 38  0  0  0  0  0  0  0  0999 V2000
   55.9020   29.7490   43.4590 C   0  0  0  0  0  0  0  0  0  0  0  0
   56.2590   29.7710   44.8370 O   0  0  0  0  0  0  0  0  0  0  0  0
   57.4940   30.2230   45.3360 C   0  0  0  0  0  0  0  0  0  0  0  0
   57.7560   31.5920   45.5410 C   0  0  0  0  0  0  0  0  0  0  0  0
   59.0020   32.0250   46.0270 C   0  0  0  0  0  0  0  0  0  0  0  0
   59.2520   33.4730   46.2330 C   0  0  0  0  0  0  0  0  0  0  0  0
   59.4500   34.3580   45.2370 N   0  0  0  0  0  0  0  0  0  0  0  0
   59.6330   35.5250   45.8390 N   0  0  0  0  0  0  0  0  0  0  0  0
   59.5510   35.3720   47.1510 N   0  0  0  0  0  0  0  0  0  0  0  0
   59.3140   34.1020   47.4220 N   0  0  0  0  0  0  0  0  0  0  0  0
   59.9930   31.0680   46.3020 C   0  0  0  0  0  0  0  0  0  0  0  0
   59.7410   29.7110   46.1020 C   0  0  0  0  0  0  0  0  0  0  0  0
   58.4940   29.2760   45.6340 C   0  0  0  0  0  0  0  0  0  0  0  0
   58.2580   27.8080   45.4000 C   0  0  0  0  0  0  0  0  0  0  0  0
   57.7920   27.0090   46.9700 S   0  0  0  0  0  0  0  0  0  0  0  0
   56.8190   25.7420   46.1670 C   0  0  0  0  0  0  0  0  0  0  0  0
   57.4370   24.7080   45.5380 N   0  0  0  0  0  0  0  0  0  0  0  0
   56.7180   23.7320   44.9220 C   0  0  0  0  0  0  0  0  0  0  0  0
   57.4230   22.6040   44.2390 C   0  0  0  0  0  0  0  0  0  0  0  0
   55.3210   23.7910   44.9330 C   0  0  0  0  0  0  0  0  0  0  0  0
   54.7050   24.8630   45.5820 C   0  0  0  0  0  0  0  0  0  0  0  0
   53.4500   24.9480   45.6110 O   0  0  0  0  0  0  0  0  0  0  0  0
   55.4620   25.8150   46.1840 N   0  0  0  0  0  0  0  0  0  0  0  0
   54.8081   29.6816   43.3647 H   0  0  0  0  0  0  0  0  0  0  0  0
   56.2558   30.6707   42.9738 H   0  0  0  0  0  0  0  0  0  0  0  0
   56.3663   28.8778   42.9738 H   0  0  0  0  0  0  0  0  0  0  0  0
   56.9742   32.3329   45.3175 H   0  0  0  0  0  0  0  0  0  0  0  0
   59.2040   33.7100   48.3820 H   0  0  0  0  0  0  0  0  0  0  0  0
   60.9749   31.3914   46.6778 H   0  0  0  0  0  0  0  0  0  0  0  0
   60.5298   28.9742   46.3140 H   0  0  0  0  0  0  0  0  0  0  0  0
   57.4468   27.6792   44.6683 H   0  0  0  0  0  0  0  0  0  0  0  0
   59.1782   27.3461   45.0129 H   0  0  0  0  0  0  0  0  0  0  0  0
   57.8469   21.9257   44.9941 H   0  0  0  0  0  0  0  0  0  0  0  0
   56.7087   22.0522   43.6102 H   0  0  0  0  0  0  0  0  0  0  0  0
   58.2320   23.0043   43.6102 H   0  0  0  0  0  0  0  0  0  0  0  0
   54.7210   23.0108   44.4417 H   0  0  0  0  0  0  0  0  0  0  0  0
  1  2  1  0
  2  3  1  0
  3  4  2  0
  4  5  1  0
  5  6  1  0
  6  7  2  0
  7  8  1  0
  8  9  1  0
  9 10  2  0
  5 11  2  0
 11 12  1  0
 12 13  2  0
 13 14  1  0
 14 15  1  0
 15 16  1  0
 16 17  2  0
 17 18  1  0
 18 19  1  0
 18 20  2  0
 20 21  1  0
 21 22  2  0
 21 23  1  0
 13  3  1  0
 23 16  1  0
 10  6  1  0
  1 24  1  0
  1 25  1  0
  1 26  1  0
  4 27  1  0
 10 28  1  0
 11 29  1  0
 12 30  1  0
 14 31  1  0
 14 32  1  0
 19 33  1  0
 19 34  1  0
 19 35  1  0
 20 36  1  0
M  CHG  3   8  -1  10   1  23  -1
M  END
>  <UniqueID>  (74) 
65

>  <SMILES>  (74) 
COc1cc(-c2n[n-]n[nH+]2)ccc1CSc1nc(C)cc(=O)[n-]1

>  <Energy>  (74) 
74.35330188208516

>  <Genealogy>  (74) 
COc1cc(-c2n[n-]n[nH+]2)ccc1CSc1nc(C)cc(=O)[n-]1 (protonated)
COc1cc(-c2n[n-]n[nH+]2)ccc1CSc1nc(C)cc(=O)[n-]1 (3D coordinates assigned)
COc1cc(-c2n[n-]n[nH+]2)ccc1CSc1nc(C)cc(=O)[n-]1 (optimized conformer: 74.35330188208516 kcal/mol)

>  <smiles>  (74) 
COc1cc(-c2nn[nH]n2)ccc1CSc1nc(C)cc(=O)[nH]1

>  <score_type>  (74) 
oracle

>  <origin>  (74) 
adg

>  <m_score__min__energy>  (74) 
-9.4600000000000009

>  <m_primary>  (74) 
energy

$$$$
74:0
     RDKit          3D

 43 46  0  0  0  0  0  0  0  0999 V2000
   56.1150   29.0410   45.1100 O   0  0  0  0  0  0  0  0  0  0  0  0
   57.2840   29.1370   45.5760 C   0  0  0  0  0  0  0  0  0  0  0  0
   57.9700   27.9530   46.0160 N   0  0  0  0  0  0  0  0  0  0  0  0
   57.5070   26.6330   45.6990 C   0  0  0  0  0  0  0  0  0  0  0  0
   57.0700   25.7960   46.7360 C   0  0  0  0  0  0  0  0  0  0  0  0
   56.6120   24.5040   46.4600 C   0  0  0  0  0  0  0  0  0  0  0  0
   56.0500   23.4740   47.7640 Cl  0  0  0  0  0  0  0  0  0  0  0  0
   56.6010   24.0340   45.1440 C   0  0  0  0  0  0  0  0  0  0  0  0
   57.0590   24.8490   44.1060 C   0  0  0  0  0  0  0  0  0  0  0  0
   57.5200   26.1440   44.3740 C   0  0  0  0  0  0  0  0  0  0  0  0
   58.1790   27.0900   43.0450 Cl  0  0  0  0  0  0  0  0  0  0  0  0
   57.9190   30.4720   45.6900 C   0  0  0  0  0  0  0  0  0  0  0  0
   59.0550   30.6670   46.4950 C   0  0  0  0  0  0  0  0  0  0  0  0
   59.6520   31.9270   46.5870 C   0  0  0  0  0  0  0  0  0  0  0  0
   59.1240   33.0170   45.8790 C   0  0  0  0  0  0  0  0  0  0  0  0
   59.7960   34.3610   45.9420 C   0  0  0  0  0  0  0  0  0  0  0  0
   60.8510   34.3490   46.9530 N   0  0  0  0  0  0  0  0  0  0  0  0
   60.6640   34.2770   48.3690 C   0  0  0  0  0  0  0  0  0  0  0  0
   59.5720   34.5050   48.9530 O   0  0  0  0  0  0  0  0  0  0  0  0
   61.9090   33.8840   49.0200 C   0  0  0  0  0  0  0  0  0  0  0  0
   62.2110   33.6900   50.3670 C   0  0  0  0  0  0  0  0  0  0  0  0
   63.5170   33.2870   50.6990 C   0  0  0  0  0  0  0  0  0  0  0  0
   64.4820   33.0860   49.6890 C   0  0  0  0  0  0  0  0  0  0  0  0
   64.1510   33.2850   48.3360 C   0  0  0  0  0  0  0  0  0  0  0  0
   62.8520   33.6880   48.0330 C   0  0  0  0  0  0  0  0  0  0  0  0
   62.2110   33.9550   46.7510 C   0  0  0  0  0  0  0  0  0  0  0  0
   62.7570   33.8420   45.6220 O   0  0  0  0  0  0  0  0  0  0  0  0
   58.0030   32.8230   45.0590 C   0  0  0  0  0  0  0  0  0  0  0  0
   57.4050   31.5630   44.9660 C   0  0  0  0  0  0  0  0  0  0  0  0
   58.6860   28.0470   46.7710 H   0  0  0  0  0  0  0  0  0  0  0  0
   57.0877   26.1586   47.7744 H   0  0  0  0  0  0  0  0  0  0  0  0
   56.2314   23.0213   44.9253 H   0  0  0  0  0  0  0  0  0  0  0  0
   57.0575   24.4717   43.0727 H   0  0  0  0  0  0  0  0  0  0  0  0
   59.4772   29.8209   47.0569 H   0  0  0  0  0  0  0  0  0  0  0  0
   60.5418   32.0652   47.2187 H   0  0  0  0  0  0  0  0  0  0  0  0
   60.2352   34.5943   44.9608 H   0  0  0  0  0  0  0  0  0  0  0  0
   59.0501   35.1239   46.2096 H   0  0  0  0  0  0  0  0  0  0  0  0
   61.4510   33.8473   51.1465 H   0  0  0  0  0  0  0  0  0  0  0  0
   63.7881   33.1274   51.7531 H   0  0  0  0  0  0  0  0  0  0  0  0
   65.5003   32.7715   49.9615 H   0  0  0  0  0  0  0  0  0  0  0  0
   64.8952   33.1272   47.5415 H   0  0  0  0  0  0  0  0  0  0  0  0
   57.5920   33.6671   44.4858 H   0  0  0  0  0  0  0  0  0  0  0  0
   56.5249   31.4234   44.3211 H   0  0  0  0  0  0  0  0  0  0  0  0
  1  2  2  0
  2  3  1  0
  3  4  1  0
  4  5  2  0
  5  6  1  0
  6  7  1  0
  6  8  2  0
  8  9  1  0
  9 10  2  0
 10 11  1  0
  2 12  1  0
 12 13  2  0
 13 14  1  0
 14 15  2  0
 15 16  1  0
 16 17  1  0
 17 18  1  0
 18 19  2  0
 18 20  1  0
 20 21  2  0
 21 22  1  0
 22 23  2  0
 23 24  1  0
 24 25  2  0
 25 26  1  0
 26 27  2  0
 15 28  1  0
 28 29  2  0
 10  4  1  0
 29 12  1  0
 26 17  1  0
 25 20  1  0
  3 30  1  0
  5 31  1  0
  8 32  1  0
  9 33  1  0
 13 34  1  0
 14 35  1  0
 16 36  1  0
 16 37  1  0
 21 38  1  0
 22 39  1  0
 23 40  1  0
 24 41  1  0
 28 42  1  0
 29 43  1  0
M  END
>  <UniqueID>  (75) 
66

>  <SMILES>  (75) 
O=C(Nc1cc(Cl)ccc1Cl)c1ccc(CN2C(=O)c3ccccc3C2=O)cc1

>  <Energy>  (75) 
85.99966314894395

>  <Genealogy>  (75) 
O=C(Nc1cc(Cl)ccc1Cl)c1ccc(CN2C(=O)c3ccccc3C2=O)cc1 (3D coordinates assigned)
O=C(Nc1cc(Cl)ccc1Cl)c1ccc(CN2C(=O)c3ccccc3C2=O)cc1 (nonaromatic ring conformer: 85.99966314894395 kcal/mol)

>  <smiles>  (75) 
O=C(Nc1cc(Cl)ccc1Cl)c1ccc(CN2C(=O)c3ccccc3C2=O)cc1

>  <score_type>  (75) 
oracle

>  <origin>  (75) 
adg

>  <m_score__min__energy>  (75) 
-8.9900000000000002

>  <m_primary>  (75) 
energy

$$$$
75:0
     RDKit          3D

 52 55  0  0  0  0  0  0  0  0999 V2000
   56.2107   32.5906   44.0199 H   0  0  0  0  0  0  0  0  0  0  0  0
   56.6460   31.7580   44.5920 C   0  0  0  0  0  0  0  0  0  0  0  0
   56.0850   30.5180   44.5000 N   0  0  0  0  0  0  0  0  0  0  0  0
   56.6260   29.5030   45.2080 C   0  0  0  0  0  0  0  0  0  0  0  0
   56.1970   28.2340   45.2270 N   0  0  0  0  0  0  0  0  0  0  0  0
   57.0820   27.6470   46.0790 C   0  0  0  0  0  0  0  0  0  0  0  0
   57.0260   26.2110   46.4320 C   0  0  0  0  0  0  0  0  0  0  0  0
   57.7930   25.7070   47.4960 C   0  0  0  0  0  0  0  0  0  0  0  0
   58.4405   26.3854   48.0708 H   0  0  0  0  0  0  0  0  0  0  0  0
   57.7400   24.3510   47.8300 C   0  0  0  0  0  0  0  0  0  0  0  0
   58.3436   23.9695   48.6667 H   0  0  0  0  0  0  0  0  0  0  0  0
   56.9180   23.4710   47.1010 C   0  0  0  0  0  0  0  0  0  0  0  0
   56.8310   22.1030   47.3960 O   0  0  0  0  0  0  0  0  0  0  0  0
   56.9390   21.0630   46.4280 C   0  0  0  0  0  0  0  0  0  0  0  0
   57.0396   20.0946   46.9399 H   0  0  0  0  0  0  0  0  0  0  0  0
   56.0371   21.0530   45.7984 H   0  0  0  0  0  0  0  0  0  0  0  0
   57.8237   21.2385   45.7984 H   0  0  0  0  0  0  0  0  0  0  0  0
   56.1540   23.9730   46.0410 C   0  0  0  0  0  0  0  0  0  0  0  0
   55.5079   23.2941   45.4652 H   0  0  0  0  0  0  0  0  0  0  0  0
   56.2050   25.3290   45.7080 C   0  0  0  0  0  0  0  0  0  0  0  0
   55.5982   25.7092   44.8730 H   0  0  0  0  0  0  0  0  0  0  0  0
   58.0240   28.4930   46.5770 N   0  0  0  0  0  0  0  0  0  0  0  0
   57.7060   29.6660   46.0060 C   0  0  0  0  0  0  0  0  0  0  0  0
   58.3460   30.8990   46.1530 C   0  0  0  0  0  0  0  0  0  0  0  0
   59.3870   30.9370   46.9460 N   0  0  0  0  0  0  0  0  0  0  0  0
   60.8290   30.8070   46.7320 C   0  0  0  0  0  0  0  0  0  0  0  0
   61.0648   31.0920   45.6961 H   0  0  0  0  0  0  0  0  0  0  0  0
   61.1158   29.7623   46.9227 H   0  0  0  0  0  0  0  0  0  0  0  0
   61.6230   31.7150   47.6970 C   0  0  2  0  0  0  0  0  0  0  0  0
   61.4403   31.3499   48.7184 H   0  0  0  0  0  0  0  0  0  0  0  0
   61.1130   33.1760   47.5810 C   0  0  0  0  0  0  0  0  0  0  0  0
   60.9801   33.4206   46.5168 H   0  0  0  0  0  0  0  0  0  0  0  0
   60.1631   33.2450   48.1313 H   0  0  0  0  0  0  0  0  0  0  0  0
   62.0520   34.1480   48.1780 N   0  0  0  0  0  0  0  0  0  0  0  0
   62.1290   34.0260   49.6510 C   0  0  0  0  0  0  0  0  0  0  0  0
   62.5635   34.9460   50.0691 H   0  0  0  0  0  0  0  0  0  0  0  0
   62.7598   33.1616   49.9059 H   0  0  0  0  0  0  0  0  0  0  0  0
   60.7380   33.8150   50.2380 C   0  0  0  0  0  0  0  0  0  0  0  0
   60.7983   33.8241   51.3363 H   0  0  0  0  0  0  0  0  0  0  0  0
   60.0713   34.6223   49.9006 H   0  0  0  0  0  0  0  0  0  0  0  0
   60.3407   32.8463   49.9006 H   0  0  0  0  0  0  0  0  0  0  0  0
   63.3880   34.1450   47.5220 C   0  0  0  0  0  0  0  0  0  0  0  0
   63.4238   34.9799   46.8067 H   0  0  0  0  0  0  0  0  0  0  0  0
   64.1358   34.2407   48.3231 H   0  0  0  0  0  0  0  0  0  0  0  0
   63.7120   32.8420   46.7630 C   0  0  0  0  0  0  0  0  0  0  0  0
   63.2628   32.8890   45.7600 H   0  0  0  0  0  0  0  0  0  0  0  0
   64.8050   32.7409   46.6920 H   0  0  0  0  0  0  0  0  0  0  0  0
   63.1580   31.6240   47.5020 C   0  0  0  0  0  0  0  0  0  0  0  0
   63.3896   30.7195   46.9204 H   0  0  0  0  0  0  0  0  0  0  0  0
   63.6263   31.5867   48.4966 H   0  0  0  0  0  0  0  0  0  0  0  0
   57.7810   31.9950   45.4120 C   0  0  0  0  0  0  0  0  0  0  0  0
   58.3800   33.8190   45.3920 Br  0  0  0  0  0  0  0  0  0  0  0  0
  1  2  1  0
  2  3  1  0
  3  4  1  0
  4  5  1  0
  5  6  1  0
  6  7  1  0
  7  8  2  0
  8  9  1  0
  8 10  1  0
 10 11  1  0
 10 12  2  0
 12 13  1  0
 13 14  1  0
 14 15  1  0
 14 16  1  0
 14 17  1  0
 12 18  1  0
 18 19  1  0
 18 20  2  0
 20 21  1  0
  6 22  2  0
 22 23  1  0
 23 24  1  0
 24 25  2  0
 25 26  1  0
 26 27  1  0
 26 28  1  0
 26 29  1  0
 29 30  1  1
 29 31  1  0
 31 32  1  0
 31 33  1  0
 31 34  1  0
 34 35  1  0
 35 36  1  0
 35 37  1  0
 35 38  1  0
 38 39  1  0
 38 40  1  0
 38 41  1  0
 34 42  1  0
 42 43  1  0
 42 44  1  0
 42 45  1  0
 45 46  1  0
 45 47  1  0
 45 48  1  0
 48 49  1  0
 48 50  1  0
 24 51  1  0
 51 52  1  0
 51  2  2  0
 23  4  2  0
 48 29  1  0
 20  7  1  0
M  CHG  2   3  -1   5  -1
M  END
>  <UniqueID>  (76) 
67

>  <SMILES>  (76) 
CCN1CCC[C@H](C/N=c2\c(Br)c[n-]c3[n-]c(-c4ccc(OC)cc4)nc23)C1

>  <Energy>  (76) 
113.19245814389727

>  <Genealogy>  (76) 
CCN1CCCC(CN=c2c(Br)c[n-]c3[n-]c(-c4ccc(OC)cc4)nc23)C1 (protonated)
CCN1CCC[C@H](CN=c2c(Br)c[n-]c3[n-]c(-c4ccc(OC)cc4)nc23)C1 (chirality)
CCN1CCC[C@H](C/N=c2\c(Br)c[n-]c3[n-]c(-c4ccc(OC)cc4)nc23)C1 (cis-trans isomerization)
CCN1CCC[C@H](C/N=c2\c(Br)c[n-]c3[n-]c(-c4ccc(OC)cc4)nc23)C1 (3D coordinates assigned)
CCN1CCC[C@H](C/N=c2\c(Br)c[n-]c3[n-]c(-c4ccc(OC)cc4)nc23)C1 (nonaromatic ring conformer: 113.19245814389727 kcal/mol)

>  <smiles>  (76) 
CCN1CCCC(CN=c2c(Br)c[nH]c3[nH]c(-c4ccc(OC)cc4)nc23)C1

>  <score_type>  (76) 
oracle

>  <origin>  (76) 
adg

>  <m_score__min__energy>  (76) 
-11.92

>  <m_primary>  (76) 
energy

$$$$
76:0
     RDKit          3D

 59 63  0  0  0  0  0  0  0  0999 V2000
   54.4040   22.9550   47.8970 C   0  0  0  0  0  0  0  0  0  0  0  0
   54.3230   22.1180   46.6270 C   0  0  0  0  0  0  0  0  0  0  0  0
   53.7750   22.8780   45.5520 O   0  0  0  0  0  0  0  0  0  0  0  0
   54.5500   23.6420   44.6720 C   0  0  0  0  0  0  0  0  0  0  0  0
   54.2180   23.7600   43.4620 O   0  0  0  0  0  0  0  0  0  0  0  0
   55.7720   24.2920   45.1640 C   0  0  0  0  0  0  0  0  0  0  0  0
   57.0570   23.7930   45.0840 C   0  0  0  0  0  0  0  0  0  0  0  0
   57.9440   24.6680   45.6020 N   0  0  0  0  0  0  0  0  0  0  0  0
   57.2290   25.7380   46.0170 C   0  0  0  0  0  0  0  0  0  0  0  0
   57.8420   26.9230   46.6700 C   0  0  0  0  0  0  0  0  0  0  0  0
   58.5780   26.7710   47.8580 C   0  0  0  0  0  0  0  0  0  0  0  0
   59.2460   27.8560   48.4390 C   0  0  0  0  0  0  0  0  0  0  0  0
   60.0550   27.6900   49.6090 N   0  0  0  0  0  0  0  0  0  0  0  0
   60.7770   29.0120   50.4740 S   0  0  0  0  0  0  0  0  0  0  0  0
   60.1310   29.1270   51.8260 O   0  0  0  0  0  0  0  0  0  0  0  0
   62.2390   28.7260   50.6700 O   0  0  0  0  0  0  0  0  0  0  0  0
   60.6070   30.5320   49.6010 C   0  0  0  0  0  0  0  0  0  0  0  0
   61.4950   30.8520   48.5670 C   0  0  0  0  0  0  0  0  0  0  0  0
   61.2830   31.9890   47.7820 C   0  0  0  0  0  0  0  0  0  0  0  0
   60.1710   32.8200   48.0140 C   0  0  0  0  0  0  0  0  0  0  0  0
   59.9350   33.9990   47.1460 C   0  0  0  0  0  0  0  0  0  0  0  0
   59.7250   34.0010   45.7790 C   0  0  0  0  0  0  0  0  0  0  0  0
   59.5580   35.3310   45.4690 C   0  0  0  0  0  0  0  0  0  0  0  0
   59.6700   36.0340   46.5720 O   0  0  0  0  0  0  0  0  0  0  0  0
   59.8980   35.2680   47.5980 N   0  0  0  0  0  0  0  0  0  0  0  0
   59.2960   32.5040   49.0680 C   0  0  0  0  0  0  0  0  0  0  0  0
   59.5140   31.3710   49.8570 C   0  0  0  0  0  0  0  0  0  0  0  0
   59.0930   29.1290   47.8900 C   0  0  0  0  0  0  0  0  0  0  0  0
   58.3450   29.3060   46.7250 C   0  0  0  0  0  0  0  0  0  0  0  0
   57.7440   28.2060   46.0850 C   0  0  0  0  0  0  0  0  0  0  0  0
   56.9960   28.3780   44.9100 O   0  0  0  0  0  0  0  0  0  0  0  0
   57.1180   29.4530   44.0160 C   0  0  0  0  0  0  0  0  0  0  0  0
   57.9200   30.5430   44.3790 C   0  0  0  0  0  0  0  0  0  0  0  0
   58.0620   31.6350   43.5170 C   0  0  0  0  0  0  0  0  0  0  0  0
   57.3920   31.6520   42.2910 C   0  0  0  0  0  0  0  0  0  0  0  0
   56.5700   30.5810   41.9310 C   0  0  0  0  0  0  0  0  0  0  0  0
   56.4250   29.4870   42.7910 C   0  0  0  0  0  0  0  0  0  0  0  0
   55.8850   25.5290   45.7550 C   0  0  0  0  0  0  0  0  0  0  0  0
   54.8390   26.4150   45.9950 O   0  0  0  0  0  0  0  0  0  0  0  0
   54.3402   22.2958   48.7753 H   0  0  0  0  0  0  0  0  0  0  0  0
   55.3591   23.5003   47.9164 H   0  0  0  0  0  0  0  0  0  0  0  0
   53.5712   23.6733   47.9164 H   0  0  0  0  0  0  0  0  0  0  0  0
   55.3336   21.7816   46.3520 H   0  0  0  0  0  0  0  0  0  0  0  0
   53.6692   21.2538   46.8162 H   0  0  0  0  0  0  0  0  0  0  0  0
   57.3217   22.8148   44.6560 H   0  0  0  0  0  0  0  0  0  0  0  0
   58.6301   25.7832   48.3393 H   0  0  0  0  0  0  0  0  0  0  0  0
   62.3634   30.2058   48.3715 H   0  0  0  0  0  0  0  0  0  0  0  0
   61.9906   32.2361   46.9769 H   0  0  0  0  0  0  0  0  0  0  0  0
   59.6978   33.1383   45.0970 H   0  0  0  0  0  0  0  0  0  0  0  0
   59.3633   35.7371   44.4654 H   0  0  0  0  0  0  0  0  0  0  0  0
   58.4326   33.1538   49.2735 H   0  0  0  0  0  0  0  0  0  0  0  0
   58.8251   31.1370   50.6820 H   0  0  0  0  0  0  0  0  0  0  0  0
   59.5633   29.9962   48.3767 H   0  0  0  0  0  0  0  0  0  0  0  0
   58.2241   30.3147   46.3031 H   0  0  0  0  0  0  0  0  0  0  0  0
   58.4410   30.5398   45.3478 H   0  0  0  0  0  0  0  0  0  0  0  0
   58.7022   32.4820   43.8046 H   0  0  0  0  0  0  0  0  0  0  0  0
   57.5115   32.5076   41.6100 H   0  0  0  0  0  0  0  0  0  0  0  0
   56.0358   30.5980   40.9696 H   0  0  0  0  0  0  0  0  0  0  0  0
   55.7677   28.6512   42.5093 H   0  0  0  0  0  0  0  0  0  0  0  0
  1  2  1  0
  2  3  1  0
  3  4  1  0
  4  5  2  0
  4  6  1  0
  6  7  2  0
  7  8  1  0
  8  9  1  0
  9 10  1  0
 10 11  2  0
 11 12  1  0
 12 13  1  0
 13 14  1  0
 14 15  2  0
 14 16  2  0
 14 17  1  0
 17 18  2  0
 18 19  1  0
 19 20  2  0
 20 21  1  0
 21 22  1  0
 22 23  2  0
 23 24  1  0
 24 25  1  0
 20 26  1  0
 26 27  2  0
 12 28  2  0
 28 29  1  0
 29 30  2  0
 30 31  1  0
 31 32  1  0
 32 33  2  0
 33 34  1  0
 34 35  2  0
 35 36  1  0
 36 37  2  0
  9 38  2  0
 38 39  1  0
 38  6  1  0
 30 10  1  0
 37 32  1  0
 27 17  1  0
 25 21  2  0
  1 40  1  0
  1 41  1  0
  1 42  1  0
  2 43  1  0
  2 44  1  0
  7 45  1  0
 11 46  1  0
 18 47  1  0
 19 48  1  0
 22 49  1  0
 23 50  1  0
 26 51  1  0
 27 52  1  0
 28 53  1  0
 29 54  1  0
 33 55  1  0
 34 56  1  0
 35 57  1  0
 36 58  1  0
 37 59  1  0
M  CHG  3   8  -1  13  -1  39  -1
M  END
>  <UniqueID>  (77) 
68

>  <SMILES>  (77) 
CCOC(=O)c1c[n-]c(-c2cc([N-]S(=O)(=O)c3ccc(-c4ccon4)cc3)ccc2Oc2ccccc2)c1[O-]

>  <Energy>  (77) 
134.68948130985402

>  <Genealogy>  (77) 
CCOC(=O)c1c[n-]c(-c2cc([N-]S(=O)(=O)c3ccc(-c4ccon4)cc3)ccc2Oc2ccccc2)c1[O-] (protonated)
CCOC(=O)c1c[n-]c(-c2cc([N-]S(=O)(=O)c3ccc(-c4ccon4)cc3)ccc2Oc2ccccc2)c1[O-] (3D coordinates assigned)
CCOC(=O)c1c[n-]c(-c2cc([N-]S(=O)(=O)c3ccc(-c4ccon4)cc3)ccc2Oc2ccccc2)c1[O-] (optimized conformer: 134.68948130985402 kcal/mol)

>  <smiles>  (77) 
CCOC(=O)c1c[nH]c(-c2cc(NS(=O)(=O)c3ccc(-c4ccon4)cc3)ccc2Oc2ccccc2)c1O

>  <score_type>  (77) 
oracle

>  <origin>  (77) 
adg

>  <m_score__min__energy>  (77) 
-14.039999999999999

>  <m_primary>  (77) 
energy

$$$$
77:0
     RDKit          3D

 38 40  0  0  0  0  0  0  0  0999 V2000
   59.0590   35.2680   47.1190 C   0  0  0  0  0  0  0  0  0  0  0  0
   58.2320   34.0530   47.0340 N   0  0  2  0  0  0  0  0  0  0  0  0
   58.7380   32.9890   47.9280 C   0  0  0  0  0  0  0  0  0  0  0  0
   60.2400   33.0430   48.0680 C   0  0  0  0  0  0  0  0  0  0  0  0
   61.0690   32.4450   47.1050 C   0  0  0  0  0  0  0  0  0  0  0  0
   62.4600   32.5140   47.2300 C   0  0  0  0  0  0  0  0  0  0  0  0
   63.0380   33.1840   48.3170 C   0  0  0  0  0  0  0  0  0  0  0  0
   64.4610   33.2540   48.4440 N   0  0  0  0  0  0  0  0  0  0  0  0
   62.2130   33.7840   49.2770 C   0  0  0  0  0  0  0  0  0  0  0  0
   60.8230   33.7160   49.1540 C   0  0  0  0  0  0  0  0  0  0  0  0
   58.2180   33.4790   45.3850 S   0  0  0  0  0  0  0  0  0  0  0  0
   57.3230   34.3460   44.5440 O   0  0  0  0  0  0  0  0  0  0  0  0
   59.6110   33.5300   44.8170 O   0  0  0  0  0  0  0  0  0  0  0  0
   57.6040   31.8280   45.3320 C   0  0  0  0  0  0  0  0  0  0  0  0
   56.5410   31.4810   44.4680 C   0  0  0  0  0  0  0  0  0  0  0  0
   56.0700   30.1570   44.4100 C   0  0  0  0  0  0  0  0  0  0  0  0
   56.6730   29.1940   45.2180 C   0  0  0  0  0  0  0  0  0  0  0  0
   56.3140   27.8860   45.2500 N   0  0  0  0  0  0  0  0  0  0  0  0
   57.0850   27.2020   46.1300 C   0  0  0  0  0  0  0  0  0  0  0  0
   56.9140   25.6040   46.4090 S   0  0  0  0  0  0  0  0  0  0  0  0
   58.2340   28.1790   46.8960 S   0  0  0  0  0  0  0  0  0  0  0  0
   57.7160   29.5420   46.0620 C   0  0  0  0  0  0  0  0  0  0  0  0
   58.2010   30.8440   46.1400 C   0  0  0  0  0  0  0  0  0  0  0  0
   59.2313   35.5211   48.1755 H   0  0  0  0  0  0  0  0  0  0  0  0
   60.0243   35.0900   46.6225 H   0  0  0  0  0  0  0  0  0  0  0  0
   58.5393   36.1007   46.6225 H   0  0  0  0  0  0  0  0  0  0  0  0
   57.2470   34.2960   47.2900 H   0  0  0  0  0  0  0  0  0  0  0  0
   58.2829   33.1125   48.9218 H   0  0  0  0  0  0  0  0  0  0  0  0
   58.4699   32.0167   47.4889 H   0  0  0  0  0  0  0  0  0  0  0  0
   60.6219   31.9197   46.2482 H   0  0  0  0  0  0  0  0  0  0  0  0
   63.1027   32.0410   46.4729 H   0  0  0  0  0  0  0  0  0  0  0  0
   65.0830   32.9510   47.6610 H   0  0  0  0  0  0  0  0  0  0  0  0
   64.9030   33.6070   49.3230 H   0  0  0  0  0  0  0  0  0  0  0  0
   62.6617   34.3112   50.1318 H   0  0  0  0  0  0  0  0  0  0  0  0
   60.1824   34.1917   49.9112 H   0  0  0  0  0  0  0  0  0  0  0  0
   56.0781   32.2528   43.8355 H   0  0  0  0  0  0  0  0  0  0  0  0
   55.2411   29.8863   43.7395 H   0  0  0  0  0  0  0  0  0  0  0  0
   59.0305   31.0971   46.8167 H   0  0  0  0  0  0  0  0  0  0  0  0
  1  2  1  0
  2  3  1  0
  3  4  1  0
  4  5  2  0
  5  6  1  0
  6  7  2  0
  7  8  1  0
  7  9  1  0
  9 10  2  0
  2 11  1  0
 11 12  2  0
 11 13  2  0
 11 14  1  0
 14 15  2  0
 15 16  1  0
 16 17  2  0
 17 18  1  0
 18 19  1  0
 19 20  2  0
 19 21  1  0
 21 22  1  0
 22 23  2  0
 10  4  1  0
 23 14  1  0
 22 17  1  0
  1 24  1  0
  1 25  1  0
  1 26  1  0
  2 27  1  1
  3 28  1  0
  3 29  1  0
  5 30  1  0
  6 31  1  0
  8 32  1  0
  8 33  1  0
  9 34  1  0
 10 35  1  0
 15 36  1  0
 16 37  1  0
 23 38  1  0
M  CHG  2   2   1  18  -1
M  END
>  <UniqueID>  (78) 
69

>  <SMILES>  (78) 
C[N@H+](Cc1ccc(N)cc1)S(=O)(=O)c1ccc2[n-]c(=S)sc2c1

>  <Energy>  (78) 
72.28580549730775

>  <Genealogy>  (78) 
C[NH+](Cc1ccc(N)cc1)S(=O)(=O)c1ccc2[n-]c(=S)sc2c1 (protonated)
C[N@H+](Cc1ccc(N)cc1)S(=O)(=O)c1ccc2[n-]c(=S)sc2c1 (chirality)
C[N@H+](Cc1ccc(N)cc1)S(=O)(=O)c1ccc2[n-]c(=S)sc2c1 (3D coordinates assigned)
C[N@H+](Cc1ccc(N)cc1)S(=O)(=O)c1ccc2[n-]c(=S)sc2c1 (optimized conformer: 72.28580549730775 kcal/mol)

>  <smiles>  (78) 
CN(Cc1ccc(N)cc1)S(=O)(=O)c1ccc2[nH]c(=S)sc2c1

>  <score_type>  (78) 
oracle

>  <origin>  (78) 
adg

>  <m_score__min__energy>  (78) 
-7.7000000000000002

>  <m_primary>  (78) 
energy

$$$$
78:0
     RDKit          3D

 40 42  0  0  0  0  0  0  0  0999 V2000
   57.0612   32.0268   42.4077 H   0  0  0  0  0  0  0  0  0  0  0  0
   57.4420   32.1940   43.4260 C   0  0  0  0  0  0  0  0  0  0  0  0
   57.9850   33.3930   43.7480 N   0  0  0  0  0  0  0  0  0  0  0  0
   58.4670   33.6530   44.9880 C   0  0  0  0  0  0  0  0  0  0  0  0
   58.9960   34.9170   45.2670 C   0  0  0  0  0  0  0  0  0  0  0  0
   59.0127   35.6893   44.4839 H   0  0  0  0  0  0  0  0  0  0  0  0
   59.5030   35.2020   46.5360 C   0  0  0  0  0  0  0  0  0  0  0  0
   59.9155   36.1992   46.7494 H   0  0  0  0  0  0  0  0  0  0  0  0
   59.4890   34.2250   47.5380 C   0  0  0  0  0  0  0  0  0  0  0  0
   60.0120   34.5210   48.8360 N   0  0  0  0  0  0  0  0  0  0  0  0
   60.7570   33.9250   49.2610 H   0  0  0  0  0  0  0  0  0  0  0  0
   59.6600   35.3400   49.3810 H   0  0  0  0  0  0  0  0  0  0  0  0
   58.9630   32.9540   47.2630 C   0  0  0  0  0  0  0  0  0  0  0  0
   58.9577   32.1849   48.0495 H   0  0  0  0  0  0  0  0  0  0  0  0
   58.4400   32.6520   45.9860 C   0  0  0  0  0  0  0  0  0  0  0  0
   57.9250   31.3690   45.6690 C   0  0  0  0  0  0  0  0  0  0  0  0
   58.0360   30.4240   46.5720 N   0  0  0  0  0  0  0  0  0  0  0  0
   58.5390   29.0880   46.4310 C   0  0  0  0  0  0  0  0  0  0  0  0
   57.6280   28.0270   46.3770 C   0  0  0  0  0  0  0  0  0  0  0  0
   56.5488   28.2296   46.4421 H   0  0  0  0  0  0  0  0  0  0  0  0
   58.0800   26.7130   46.2410 C   0  0  0  0  0  0  0  0  0  0  0  0
   57.3553   25.8870   46.1902 H   0  0  0  0  0  0  0  0  0  0  0  0
   59.4530   26.4420   46.1690 C   0  0  0  0  0  0  0  0  0  0  0  0
   59.9390   25.0280   46.0500 C   0  0  0  0  0  0  0  0  0  0  0  0
   60.0845   24.6045   47.0547 H   0  0  0  0  0  0  0  0  0  0  0  0
   59.1951   24.4293   45.5040 H   0  0  0  0  0  0  0  0  0  0  0  0
   60.8938   25.0132   45.5040 H   0  0  0  0  0  0  0  0  0  0  0  0
   60.3720   27.4960   46.2950 C   0  0  0  0  0  0  0  0  0  0  0  0
   61.4510   27.2836   46.2705 H   0  0  0  0  0  0  0  0  0  0  0  0
   59.9270   28.8190   46.4520 C   0  0  0  0  0  0  0  0  0  0  0  0
   60.9370   29.9210   46.6270 C   0  0  0  0  0  0  0  0  0  0  0  0
   61.1016   30.1006   47.6997 H   0  0  0  0  0  0  0  0  0  0  0  0
   61.8859   29.6271   46.1546 H   0  0  0  0  0  0  0  0  0  0  0  0
   60.5617   30.8408   46.1546 H   0  0  0  0  0  0  0  0  0  0  0  0
   57.3590   31.1640   44.3730 C   0  0  0  0  0  0  0  0  0  0  0  0
   56.5500   29.9840   44.0010 C   0  0  0  0  0  0  0  0  0  0  0  0
   55.3950   29.8390   44.4830 O   0  0  0  0  0  0  0  0  0  0  0  0
   57.0370   29.0410   43.0450 N   0  0  0  0  0  0  0  0  0  0  0  0
   56.4530   28.2210   42.7710 H   0  0  0  0  0  0  0  0  0  0  0  0
   57.9880   29.1470   42.6270 H   0  0  0  0  0  0  0  0  0  0  0  0
  1  2  1  0
  2  3  1  0
  3  4  1  0
  4  5  2  0
  5  6  1  0
  5  7  1  0
  7  8  1  0
  7  9  2  0
  9 10  1  0
 10 11  1  0
 10 12  1  0
  9 13  1  0
 13 14  1  0
 13 15  2  0
 15 16  1  0
 16 17  2  0
 17 18  1  0
 18 19  2  0
 19 20  1  0
 19 21  1  0
 21 22  1  0
 21 23  2  0
 23 24  1  0
 24 25  1  0
 24 26  1  0
 24 27  1  0
 23 28  1  0
 28 29  1  0
 28 30  2  0
 30 31  1  0
 31 32  1  0
 31 33  1  0
 31 34  1  0
 16 35  1  0
 35 36  1  0
 36 37  2  0
 36 38  1  0
 38 39  1  0
 38 40  1  0
 35  2  2  0
 15  4  1  0
 30 18  1  0
M  CHG  1   3  -1
M  END
>  <UniqueID>  (79) 
70

>  <SMILES>  (79) 
Cc1ccc(/N=c2\c(C(N)=O)c[n-]c3ccc(N)cc23)c(C)c1

>  <Energy>  (79) 
65.9992432440199

>  <Genealogy>  (79) 
Cc1ccc(N=c2c(C(N)=O)c[n-]c3ccc(N)cc23)c(C)c1 (protonated)
Cc1ccc(/N=c2\c(C(N)=O)c[n-]c3ccc(N)cc23)c(C)c1 (cis-trans isomerization)
Cc1ccc(/N=c2\c(C(N)=O)c[n-]c3ccc(N)cc23)c(C)c1 (3D coordinates assigned)
Cc1ccc(/N=c2\c(C(N)=O)c[n-]c3ccc(N)cc23)c(C)c1 (optimized conformer: 65.9992432440199 kcal/mol)

>  <smiles>  (79) 
Cc1ccc(N=c2c(C(N)=O)c[nH]c3ccc(N)cc23)c(C)c1

>  <score_type>  (79) 
oracle

>  <origin>  (79) 
adg

>  <m_score__min__energy>  (79) 
-8.8499999999999996

>  <m_primary>  (79) 
energy

$$$$
79:0
     RDKit          3D

 54 56  0  0  0  0  0  0  0  0999 V2000
   62.1830   35.4082   50.2394 H   0  0  0  0  0  0  0  0  0  0  0  0
   62.2790   34.3930   49.8270 C   0  0  0  0  0  0  0  0  0  0  0  0
   62.9180   34.2020   48.5990 C   0  0  0  0  0  0  0  0  0  0  0  0
   63.3305   35.0655   48.0566 H   0  0  0  0  0  0  0  0  0  0  0  0
   63.0360   32.9160   48.0550 C   0  0  0  0  0  0  0  0  0  0  0  0
   63.7550   32.7150   46.7550 C   0  0  0  0  0  0  0  0  0  0  0  0
   64.7970   32.4237   46.9535 H   0  0  0  0  0  0  0  0  0  0  0  0
   63.2560   31.9219   46.1788 H   0  0  0  0  0  0  0  0  0  0  0  0
   63.7396   33.6519   46.1788 H   0  0  0  0  0  0  0  0  0  0  0  0
   62.5200   31.8200   48.7640 C   0  0  0  0  0  0  0  0  0  0  0  0
   62.6214   30.8052   48.3519 H   0  0  0  0  0  0  0  0  0  0  0  0
   61.8780   32.0110   49.9910 C   0  0  0  0  0  0  0  0  0  0  0  0
   61.4632   31.1479   50.5324 H   0  0  0  0  0  0  0  0  0  0  0  0
   61.7600   33.3040   50.5370 C   0  0  0  0  0  0  0  0  0  0  0  0
   61.1440   33.5510   51.7770 O   0  0  0  0  0  0  0  0  0  0  0  0
   59.7360   33.5550   52.0110 C   0  0  0  0  0  0  0  0  0  0  0  0
   59.4210   34.5663   52.3079 H   0  0  0  0  0  0  0  0  0  0  0  0
   59.5058   32.8365   52.8115 H   0  0  0  0  0  0  0  0  0  0  0  0
   58.9970   33.1520   50.7690 C   0  0  0  0  0  0  0  0  0  0  0  0
   58.1650   32.2070   50.8340 O   0  0  0  0  0  0  0  0  0  0  0  0
   59.2690   33.8090   49.5200 N   0  0  0  0  0  0  0  0  0  0  0  0
   59.9650   34.5890   49.5240 H   0  0  0  0  0  0  0  0  0  0  0  0
   58.9090   33.2570   48.2430 C   0  0  0  0  0  0  0  0  0  0  0  0
   58.5210   34.0770   47.1700 C   0  0  0  0  0  0  0  0  0  0  0  0
   58.5323   35.1709   47.2848 H   0  0  0  0  0  0  0  0  0  0  0  0
   58.1210   33.5090   45.9580 C   0  0  0  0  0  0  0  0  0  0  0  0
   57.8058   34.1567   45.1267 H   0  0  0  0  0  0  0  0  0  0  0  0
   58.1200   32.1190   45.7980 C   0  0  0  0  0  0  0  0  0  0  0  0
   57.4800   31.4130   44.3160 S   0  0  0  0  0  0  0  0  0  0  0  0
   56.1040   30.8770   44.5880 O   0  0  0  0  0  0  0  0  0  0  0  0
   57.3940   32.4420   43.2240 O   0  0  0  0  0  0  0  0  0  0  0  0
   58.5090   30.1120   43.7940 N   0  0  0  0  0  0  0  0  0  0  0  0
   58.5960   28.9260   44.3280 C   0  0  0  0  0  0  0  0  0  0  0  0
   57.8000   27.9030   43.8120 C   0  0  0  0  0  0  0  0  0  0  0  0
   57.1365   28.1009   42.9573 H   0  0  0  0  0  0  0  0  0  0  0  0
   57.8450   26.6300   44.3790 C   0  0  0  0  0  0  0  0  0  0  0  0
   57.2184   25.8270   43.9636 H   0  0  0  0  0  0  0  0  0  0  0  0
   58.6590   26.3690   45.4450 N   0  0  0  0  0  0  0  0  0  0  0  0
   58.6710   25.0250   46.0360 C   0  0  0  0  0  0  0  0  0  0  0  0
   58.6703   25.1068   47.1330 H   0  0  0  0  0  0  0  0  0  0  0  0
   57.7778   24.4726   45.7089 H   0  0  0  0  0  0  0  0  0  0  0  0
   59.5740   24.4887   45.7089 H   0  0  0  0  0  0  0  0  0  0  0  0
   59.4550   27.3490   45.9790 C   0  0  0  0  0  0  0  0  0  0  0  0
   60.2650   27.0450   47.0890 O   0  0  0  0  0  0  0  0  0  0  0  0
   60.3970   27.8650   48.2470 C   0  0  0  0  0  0  0  0  0  0  0  0
   60.2970   27.2440   49.1494 H   0  0  0  0  0  0  0  0  0  0  0  0
   61.3847   28.3493   48.2427 H   0  0  0  0  0  0  0  0  0  0  0  0
   59.6112   28.6347   48.2427 H   0  0  0  0  0  0  0  0  0  0  0  0
   59.4450   28.6380   45.4120 C   0  0  0  0  0  0  0  0  0  0  0  0
   60.1024   29.4212   45.8176 H   0  0  0  0  0  0  0  0  0  0  0  0
   58.5580   31.3000   46.8460 C   0  0  0  0  0  0  0  0  0  0  0  0
   58.5903   30.2085   46.7132 H   0  0  0  0  0  0  0  0  0  0  0  0
   58.9540   31.8670   48.0600 C   0  0  0  0  0  0  0  0  0  0  0  0
   59.3033   31.2192   48.8775 H   0  0  0  0  0  0  0  0  0  0  0  0
  1  2  1  0
  2  3  2  0
  3  4  1  0
  3  5  1  0
  5  6  1  0
  6  7  1  0
  6  8  1  0
  6  9  1  0
  5 10  2  0
 10 11  1  0
 10 12  1  0
 12 13  1  0
 12 14  2  0
 14 15  1  0
 15 16  1  0
 16 17  1  0
 16 18  1  0
 16 19  1  0
 19 20  2  0
 19 21  1  0
 21 22  1  0
 21 23  1  0
 23 24  2  0
 24 25  1  0
 24 26  1  0
 26 27  1  0
 26 28  2  0
 28 29  1  0
 29 30  2  0
 29 31  2  0
 29 32  1  0
 32 33  2  0
 33 34  1  0
 34 35  1  0
 34 36  2  0
 36 37  1  0
 36 38  1  0
 38 39  1  0
 39 40  1  0
 39 41  1  0
 39 42  1  0
 38 43  1  0
 43 44  1  0
 44 45  1  0
 45 46  1  0
 45 47  1  0
 45 48  1  0
 43 49  2  0
 49 50  1  0
 28 51  1  0
 51 52  1  0
 51 53  2  0
 53 54  1  0
 14  2  1  0
 53 23  1  0
 49 33  1  0
M  END
>  <UniqueID>  (80) 
71

>  <SMILES>  (80) 
COc1c/c(=N\S(=O)(=O)c2ccc(NC(=O)COc3ccc(C)cc3)cc2)ccn1C

>  <Energy>  (80) 
62.36592457007713

>  <Genealogy>  (80) 
COc1c/c(=N\S(=O)(=O)c2ccc(NC(=O)COc3ccc(C)cc3)cc2)ccn1C (cis-trans isomerization)
COc1c/c(=N\S(=O)(=O)c2ccc(NC(=O)COc3ccc(C)cc3)cc2)ccn1C (3D coordinates assigned)
COc1c/c(=N\S(=O)(=O)c2ccc(NC(=O)COc3ccc(C)cc3)cc2)ccn1C (optimized conformer: 62.36592457007713 kcal/mol)

>  <smiles>  (80) 
COc1cc(=NS(=O)(=O)c2ccc(NC(=O)COc3ccc(C)cc3)cc2)ccn1C

>  <score_type>  (80) 
oracle

>  <origin>  (80) 
adg

>  <m_score__min__energy>  (80) 
-8.0299999999999994

>  <m_primary>  (80) 
energy

$$$$
80:0
     RDKit          3D

 50 52  0  0  0  0  0  0  0  0999 V2000
   59.5634   34.4062   49.5670 H   0  0  0  0  0  0  0  0  0  0  0  0
   59.2770   33.4650   49.0750 C   0  0  0  0  0  0  0  0  0  0  0  0
   59.3500   32.3290   49.7880 C   0  0  0  0  0  0  0  0  0  0  0  0
   60.0433   31.5426   49.4550 H   0  0  0  0  0  0  0  0  0  0  0  0
   58.5370   32.0890   51.0040 C   0  0  0  0  0  0  0  0  0  0  0  0
   57.3160   31.4100   50.8550 C   0  0  0  0  0  0  0  0  0  0  0  0
   57.0228   31.0378   49.8623 H   0  0  0  0  0  0  0  0  0  0  0  0
   56.4680   31.1990   51.9440 C   0  0  0  0  0  0  0  0  0  0  0  0
   55.2460   30.5450   51.7230 O   0  0  0  0  0  0  0  0  0  0  0  0
   54.0150   31.2170   51.4690 C   0  0  0  0  0  0  0  0  0  0  0  0
   54.1118   32.2759   51.7508 H   0  0  0  0  0  0  0  0  0  0  0  0
   53.7724   31.1395   50.3989 H   0  0  0  0  0  0  0  0  0  0  0  0
   52.9110   30.5820   52.2780 C   0  0  0  0  0  0  0  0  0  0  0  0
   53.2020   29.4070   52.9990 C   0  0  0  0  0  0  0  0  0  0  0  0
   54.2016   28.9547   52.9200 H   0  0  0  0  0  0  0  0  0  0  0  0
   52.2380   28.8100   53.8120 C   0  0  0  0  0  0  0  0  0  0  0  0
   52.4805   27.8953   54.3727 H   0  0  0  0  0  0  0  0  0  0  0  0
   50.9670   29.3740   53.9130 C   0  0  0  0  0  0  0  0  0  0  0  0
   50.2124   28.9131   54.5673 H   0  0  0  0  0  0  0  0  0  0  0  0
   50.6500   30.5230   53.1850 C   0  0  0  0  0  0  0  0  0  0  0  0
   49.6424   30.9566   53.2672 H   0  0  0  0  0  0  0  0  0  0  0  0
   51.6030   31.1340   52.3470 C   0  0  0  0  0  0  0  0  0  0  0  0
   51.1910   32.3170   51.5530 C   0  0  0  0  0  0  0  0  0  0  0  0
   51.3750   32.3370   50.3090 O   0  0  0  0  0  0  0  0  0  0  0  0
   50.6430   33.4370   52.1670 O   0  0  0  0  0  0  0  0  0  0  0  0
   56.8620   31.6490   53.2160 C   0  0  0  0  0  0  0  0  0  0  0  0
   56.1964   31.5013   54.0792 H   0  0  0  0  0  0  0  0  0  0  0  0
   58.0930   32.2820   53.3890 C   0  0  0  0  0  0  0  0  0  0  0  0
   58.3957   32.6185   54.3916 H   0  0  0  0  0  0  0  0  0  0  0  0
   58.9530   32.4950   52.2930 C   0  0  0  0  0  0  0  0  0  0  0  0
   60.2220   33.0760   52.4610 O   0  0  0  0  0  0  0  0  0  0  0  0
   61.4250   32.3460   52.6890 C   0  0  0  0  0  0  0  0  0  0  0  0
   61.5926   32.2443   53.7714 H   0  0  0  0  0  0  0  0  0  0  0  0
   61.3394   31.3474   52.2358 H   0  0  0  0  0  0  0  0  0  0  0  0
   62.2713   32.8830   52.2358 H   0  0  0  0  0  0  0  0  0  0  0  0
   58.8330   33.5210   47.6650 C   0  0  0  0  0  0  0  0  0  0  0  0
   59.1400   34.6060   46.8230 C   0  0  0  0  0  0  0  0  0  0  0  0
   59.6841   35.4733   47.2251 H   0  0  0  0  0  0  0  0  0  0  0  0
   58.7580   34.5880   45.4800 C   0  0  0  0  0  0  0  0  0  0  0  0
   59.0046   35.4399   44.8292 H   0  0  0  0  0  0  0  0  0  0  0  0
   58.0640   33.4930   44.9590 C   0  0  0  0  0  0  0  0  0  0  0  0
   57.7650   33.4859   43.9005 H   0  0  0  0  0  0  0  0  0  0  0  0
   57.7470   32.4000   45.7850 C   0  0  0  0  0  0  0  0  0  0  0  0
   57.0460   31.2780   45.3110 O   0  0  0  0  0  0  0  0  0  0  0  0
   57.4510   30.4900   44.1950 C   0  0  0  0  0  0  0  0  0  0  0  0
   57.9265   29.5648   44.5527 H   0  0  0  0  0  0  0  0  0  0  0  0
   56.5708   30.2379   43.5854 H   0  0  0  0  0  0  0  0  0  0  0  0
   58.1684   31.0590   43.5854 H   0  0  0  0  0  0  0  0  0  0  0  0
   58.1400   32.4210   47.1290 C   0  0  0  0  0  0  0  0  0  0  0  0
   57.9028   31.5634   47.7757 H   0  0  0  0  0  0  0  0  0  0  0  0
  1  2  1  0
  2  3  2  0
  3  4  1  0
  3  5  1  0
  5  6  2  0
  6  7  1  0
  6  8  1  0
  8  9  1  0
  9 10  1  0
 10 11  1  0
 10 12  1  0
 10 13  1  0
 13 14  2  0
 14 15  1  0
 14 16  1  0
 16 17  1  0
 16 18  2  0
 18 19  1  0
 18 20  1  0
 20 21  1  0
 20 22  2  0
 22 23  1  0
 23 24  2  0
 23 25  1  0
  8 26  2  0
 26 27  1  0
 26 28  1  0
 28 29  1  0
 28 30  2  0
 30 31  1  0
 31 32  1  0
 32 33  1  0
 32 34  1  0
 32 35  1  0
  2 36  1  0
 36 37  2  0
 37 38  1  0
 37 39  1  0
 39 40  1  0
 39 41  2  0
 41 42  1  0
 41 43  1  0
 43 44  1  0
 44 45  1  0
 45 46  1  0
 45 47  1  0
 45 48  1  0
 43 49  2  0
 49 50  1  0
 30  5  1  0
 49 36  1  0
 22 13  1  0
M  CHG  1  25  -1
M  END
>  <UniqueID>  (81) 
72

>  <SMILES>  (81) 
COc1cccc(/C=C/c2cc(OCc3ccccc3C(=O)[O-])ccc2OC)c1

>  <Energy>  (81) 
63.79943052624797

>  <Genealogy>  (81) 
COc1cccc(C=Cc2cc(OCc3ccccc3C(=O)[O-])ccc2OC)c1 (protonated)
COc1cccc(/C=C/c2cc(OCc3ccccc3C(=O)[O-])ccc2OC)c1 (cis-trans isomerization)
COc1cccc(/C=C/c2cc(OCc3ccccc3C(=O)[O-])ccc2OC)c1 (3D coordinates assigned)
COc1cccc(/C=C/c2cc(OCc3ccccc3C(=O)[O-])ccc2OC)c1 (optimized conformer: 63.79943052624797 kcal/mol)

>  <smiles>  (81) 
COc1cccc(C=Cc2cc(OCc3ccccc3C(=O)O)ccc2OC)c1

>  <score_type>  (81) 
oracle

>  <origin>  (81) 
adg

>  <m_score__min__energy>  (81) 
-11.59

>  <m_primary>  (81) 
energy

$$$$
81:0
     RDKit          3D

 39 41  0  0  0  0  0  0  0  0999 V2000
   59.5820   27.9660   45.1750 C   0  0  0  0  0  0  0  0  0  0  0  0
   60.5670   28.9550   45.2380 C   0  0  0  0  0  0  0  0  0  0  0  0
   60.3620   30.1000   46.0160 C   0  0  0  0  0  0  0  0  0  0  0  0
   59.1610   30.2670   46.7260 C   0  0  0  0  0  0  0  0  0  0  0  0
   58.9200   31.5060   47.5460 C   0  0  0  0  0  0  0  0  0  0  0  0
   59.0070   32.7190   46.6930 N   0  0  0  0  0  0  0  0  0  0  0  0
   59.5650   33.8720   47.4370 C   0  0  0  0  0  0  0  0  0  0  0  0
   61.0630   33.8180   47.4700 C   0  0  0  0  0  0  0  0  0  0  0  0
   61.9110   33.7660   46.3860 C   0  0  0  0  0  0  0  0  0  0  0  0
   63.1850   33.7340   46.9170 C   0  0  0  0  0  0  0  0  0  0  0  0
   63.1210   33.7560   48.2300 O   0  0  0  0  0  0  0  0  0  0  0  0
   61.8610   33.8040   48.5960 C   0  0  0  0  0  0  0  0  0  0  0  0
   57.6800   33.0640   46.1350 C   0  0  0  0  0  0  0  0  0  0  0  0
   57.4390   32.3060   44.8610 C   0  0  0  0  0  0  0  0  0  0  0  0
   58.0350   32.7220   43.6610 C   0  0  0  0  0  0  0  0  0  0  0  0
   57.8100   31.9880   42.4950 C   0  0  0  0  0  0  0  0  0  0  0  0
   56.9950   30.8550   42.5330 C   0  0  0  0  0  0  0  0  0  0  0  0
   56.4150   30.4720   43.7440 C   0  0  0  0  0  0  0  0  0  0  0  0
   56.6480   31.1970   44.8710 N   0  0  0  0  0  0  0  0  0  0  0  0
   58.1820   29.2610   46.6680 C   0  0  0  0  0  0  0  0  0  0  0  0
   58.3920   28.1170   45.8910 C   0  0  0  0  0  0  0  0  0  0  0  0
   59.7437   27.0677   44.5611 H   0  0  0  0  0  0  0  0  0  0  0  0
   61.5045   28.8335   44.6755 H   0  0  0  0  0  0  0  0  0  0  0  0
   61.1437   30.8719   46.0719 H   0  0  0  0  0  0  0  0  0  0  0  0
   57.9185   31.4521   47.9977 H   0  0  0  0  0  0  0  0  0  0  0  0
   59.6873   31.5676   48.3317 H   0  0  0  0  0  0  0  0  0  0  0  0
   59.2497   34.8039   46.9449 H   0  0  0  0  0  0  0  0  0  0  0  0
   59.1908   33.8354   48.4708 H   0  0  0  0  0  0  0  0  0  0  0  0
   61.6321   33.7528   45.3220 H   0  0  0  0  0  0  0  0  0  0  0  0
   64.1143   33.6958   46.3296 H   0  0  0  0  0  0  0  0  0  0  0  0
   61.4991   33.8291   49.6345 H   0  0  0  0  0  0  0  0  0  0  0  0
   56.9000   32.8037   46.8656 H   0  0  0  0  0  0  0  0  0  0  0  0
   57.6503   34.1427   45.9215 H   0  0  0  0  0  0  0  0  0  0  0  0
   58.6733   33.6176   43.6391 H   0  0  0  0  0  0  0  0  0  0  0  0
   58.2739   32.3017   41.5482 H   0  0  0  0  0  0  0  0  0  0  0  0
   56.8119   30.2707   41.6192 H   0  0  0  0  0  0  0  0  0  0  0  0
   55.7688   29.5828   43.7867 H   0  0  0  0  0  0  0  0  0  0  0  0
   57.2466   29.3734   47.2359 H   0  0  0  0  0  0  0  0  0  0  0  0
   57.6194   27.3355   45.8437 H   0  0  0  0  0  0  0  0  0  0  0  0
  1  2  2  0
  2  3  1  0
  3  4  2  0
  4  5  1  0
  5  6  1  0
  6  7  1  0
  7  8  1  0
  8  9  1  0
  9 10  2  0
 10 11  1  0
 11 12  1  0
  6 13  1  0
 13 14  1  0
 14 15  2  0
 15 16  1  0
 16 17  2  0
 17 18  1  0
 18 19  2  0
  4 20  1  0
 20 21  2  0
 21  1  1  0
 12  8  2  0
 19 14  1  0
  1 22  1  0
  2 23  1  0
  3 24  1  0
  5 25  1  0
  5 26  1  0
  7 27  1  0
  7 28  1  0
  9 29  1  0
 10 30  1  0
 12 31  1  0
 13 32  1  0
 13 33  1  0
 15 34  1  0
 16 35  1  0
 17 36  1  0
 18 37  1  0
 20 38  1  0
 21 39  1  0
M  END
>  <UniqueID>  (82) 
73

>  <SMILES>  (82) 
c1ccc(CN(Cc2ccoc2)Cc2ccccn2)cc1

>  <Energy>  (82) 
67.37621088788718

>  <Genealogy>  (82) 
c1ccc(CN(Cc2ccoc2)Cc2ccccn2)cc1 (3D coordinates assigned)
c1ccc(CN(Cc2ccoc2)Cc2ccccn2)cc1 (optimized conformer: 67.37621088788718 kcal/mol)

>  <smiles>  (82) 
c1ccc(CN(Cc2ccoc2)Cc2ccccn2)cc1

>  <score_type>  (82) 
oracle

>  <origin>  (82) 
adg

>  <m_score__min__energy>  (82) 
-6.9100000000000001

>  <m_primary>  (82) 
energy

$$$$
82:0
     RDKit          3D

 37 39  0  0  0  0  0  0  0  0999 V2000
   57.3080   32.9110   40.3570 N   0  0  0  0  0  0  0  0  0  0  0  0
   57.3590   32.3500   41.3680 C   0  0  0  0  0  0  0  0  0  0  0  0
   57.4220   31.6500   42.6240 C   0  0  0  0  0  0  0  0  0  0  0  0
   56.9150   30.3940   42.9010 C   0  0  0  0  0  0  0  0  0  0  0  0
   56.2710   29.5240   41.9670 N   0  0  0  0  0  0  0  0  0  0  0  0
   57.1650   30.1330   44.2390 C   0  0  0  0  0  0  0  0  0  0  0  0
   56.7440   28.9240   44.9710 C   0  0  0  0  0  0  0  0  0  0  0  0
   55.5220   28.7670   45.2380 O   0  0  0  0  0  0  0  0  0  0  0  0
   57.7130   27.9460   45.3870 N   0  0  0  0  0  0  0  0  0  0  0  0
   57.3880   26.7450   46.1070 C   0  0  0  0  0  0  0  0  0  0  0  0
   58.1890   26.3580   47.1920 C   0  0  0  0  0  0  0  0  0  0  0  0
   57.9080   25.1820   47.8950 C   0  0  0  0  0  0  0  0  0  0  0  0
   56.8360   24.3750   47.5080 C   0  0  0  0  0  0  0  0  0  0  0  0
   56.0470   24.7380   46.4140 C   0  0  0  0  0  0  0  0  0  0  0  0
   56.3230   25.9140   45.7100 C   0  0  0  0  0  0  0  0  0  0  0  0
   57.7890   31.2040   44.7910 N   0  0  0  0  0  0  0  0  0  0  0  0
   57.9640   32.1160   43.8070 C   0  0  0  0  0  0  0  0  0  0  0  0
   58.5110   33.4940   44.0540 C   0  0  0  0  0  0  0  0  0  0  0  0
   59.2240   33.5660   45.4120 C   0  0  0  0  0  0  0  0  0  0  0  0
   58.4000   32.8740   46.5080 C   0  0  0  0  0  0  0  0  0  0  0  0
   58.2140   31.3850   46.1830 C   0  0  0  0  0  0  0  0  0  0  0  0
   55.8570   29.8950   41.0840 H   0  0  0  0  0  0  0  0  0  0  0  0
   56.1810   28.5040   42.1680 H   0  0  0  0  0  0  0  0  0  0  0  0
   58.7220   28.1390   45.2100 H   0  0  0  0  0  0  0  0  0  0  0  0
   59.0430   26.9832   47.4915 H   0  0  0  0  0  0  0  0  0  0  0  0
   58.5319   24.8925   48.7534 H   0  0  0  0  0  0  0  0  0  0  0  0
   56.6128   23.4530   48.0649 H   0  0  0  0  0  0  0  0  0  0  0  0
   55.2073   24.0977   46.1059 H   0  0  0  0  0  0  0  0  0  0  0  0
   55.7058   26.1911   44.8427 H   0  0  0  0  0  0  0  0  0  0  0  0
   59.2271   33.7452   43.2577 H   0  0  0  0  0  0  0  0  0  0  0  0
   57.6745   34.2083   44.0583 H   0  0  0  0  0  0  0  0  0  0  0  0
   60.2021   33.0694   45.3307 H   0  0  0  0  0  0  0  0  0  0  0  0
   59.3485   34.6243   45.6849 H   0  0  0  0  0  0  0  0  0  0  0  0
   58.9237   32.9716   47.4704 H   0  0  0  0  0  0  0  0  0  0  0  0
   57.4108   33.3518   46.5639 H   0  0  0  0  0  0  0  0  0  0  0  0
   59.1678   30.8599   46.3399 H   0  0  0  0  0  0  0  0  0  0  0  0
   57.4371   30.9745   46.8447 H   0  0  0  0  0  0  0  0  0  0  0  0
  1  2  3  0
  2  3  1  0
  3  4  1  0
  4  5  1  0
  4  6  2  0
  6  7  1  0
  7  8  2  0
  7  9  1  0
  9 10  1  0
 10 11  2  0
 11 12  1  0
 12 13  2  0
 13 14  1  0
 14 15  2  0
  6 16  1  0
 16 17  1  0
 17 18  1  0
 18 19  1  0
 19 20  1  0
 20 21  1  0
 17  3  2  0
 15 10  1  0
 21 16  1  0
  5 22  1  0
  5 23  1  0
  9 24  1  0
 11 25  1  0
 12 26  1  0
 13 27  1  0
 14 28  1  0
 15 29  1  0
 18 30  1  0
 18 31  1  0
 19 32  1  0
 19 33  1  0
 20 34  1  0
 20 35  1  0
 21 36  1  0
 21 37  1  0
M  END
>  <UniqueID>  (83) 
74

>  <SMILES>  (83) 
N#Cc1c(N)c(C(=O)Nc2ccccc2)n2c1CCCC2

>  <Energy>  (83) 
72.02382348667174

>  <Genealogy>  (83) 
N#Cc1c(N)c(C(=O)Nc2ccccc2)n2c1CCCC2 (3D coordinates assigned)
N#Cc1c(N)c(C(=O)Nc2ccccc2)n2c1CCCC2 (nonaromatic ring conformer: 72.02382348667174 kcal/mol)

>  <smiles>  (83) 
N#Cc1c(N)c(C(=O)Nc2ccccc2)n2c1CCCC2

>  <score_type>  (83) 
oracle

>  <origin>  (83) 
adg

>  <m_score__min__energy>  (83) 
-7.3700000000000001

>  <m_primary>  (83) 
energy

$$$$
83:0
     RDKit          3D

 39 41  0  0  0  0  0  0  0  0999 V2000
   63.4451   31.7356   47.9527 H   0  0  0  0  0  0  0  0  0  0  0  0
   62.6350   32.3330   47.5090 C   0  0  0  0  0  0  0  0  0  0  0  0
   62.7120   33.6340   47.2590 C   0  0  0  0  0  0  0  0  0  0  0  0
   63.5943   34.2564   47.4693 H   0  0  0  0  0  0  0  0  0  0  0  0
   61.4490   34.1410   46.6570 C   0  0  0  0  0  0  0  0  0  0  0  0
   60.9899   34.9102   47.2953 H   0  0  0  0  0  0  0  0  0  0  0  0
   61.6017   34.6187   45.6780 H   0  0  0  0  0  0  0  0  0  0  0  0
   60.6070   32.9520   46.5850 N   0  0  0  0  0  0  0  0  0  0  0  0
   59.2570   32.9150   46.0880 C   0  0  0  0  0  0  0  0  0  0  0  0
   58.5140   34.0550   46.0770 N   0  0  0  0  0  0  0  0  0  0  0  0
   57.2330   34.0580   45.6280 C   0  0  0  0  0  0  0  0  0  0  0  0
   56.6503   34.9910   45.6360 H   0  0  0  0  0  0  0  0  0  0  0  0
   56.6700   32.9110   45.1690 N   0  0  0  0  0  0  0  0  0  0  0  0
   57.3690   31.7480   45.1310 C   0  0  0  0  0  0  0  0  0  0  0  0
   56.7070   30.5600   44.6660 N   0  0  0  0  0  0  0  0  0  0  0  0
   56.9720   29.3320   45.0070 C   0  0  0  0  0  0  0  0  0  0  0  0
   55.9770   28.4330   45.2470 N   0  0  0  0  0  0  0  0  0  0  0  0
   56.2250   27.1520   45.6300 C   0  0  0  0  0  0  0  0  0  0  0  0
   55.1200   26.2600   45.8150 N   0  0  0  0  0  0  0  0  0  0  0  0
   55.1400   24.8320   45.6820 C   0  0  0  0  0  0  0  0  0  0  0  0
   54.7550   24.1260   46.6510 O   0  0  0  0  0  0  0  0  0  0  0  0
   55.6440   24.1540   44.4450 C   0  0  0  0  0  0  0  0  0  0  0  0
   56.2783   23.3007   44.7271 H   0  0  0  0  0  0  0  0  0  0  0  0
   54.7911   23.7959   43.8498 H   0  0  0  0  0  0  0  0  0  0  0  0
   56.2327   24.8675   43.8498 H   0  0  0  0  0  0  0  0  0  0  0  0
   57.5540   26.7180   45.7570 C   0  0  0  0  0  0  0  0  0  0  0  0
   57.7717   25.6713   46.0161 H   0  0  0  0  0  0  0  0  0  0  0  0
   58.6010   27.6250   45.5520 C   0  0  0  0  0  0  0  0  0  0  0  0
   60.0260   27.1710   45.6590 C   0  0  0  0  0  0  0  0  0  0  0  0
   60.3040   27.0824   46.7196 H   0  0  0  0  0  0  0  0  0  0  0  0
   60.1371   26.1930   45.1679 H   0  0  0  0  0  0  0  0  0  0  0  0
   60.6824   27.9045   45.1679 H   0  0  0  0  0  0  0  0  0  0  0  0
   58.3060   28.9400   45.1680 C   0  0  0  0  0  0  0  0  0  0  0  0
   59.1187   29.6606   44.9940 H   0  0  0  0  0  0  0  0  0  0  0  0
   58.6850   31.7230   45.6220 C   0  0  0  0  0  0  0  0  0  0  0  0
   59.2571   30.7837   45.6405 H   0  0  0  0  0  0  0  0  0  0  0  0
   61.3080   31.7880   47.1100 C   0  0  0  0  0  0  0  0  0  0  0  0
   60.7782   31.3681   47.9778 H   0  0  0  0  0  0  0  0  0  0  0  0
   61.3830   30.9678   46.3809 H   0  0  0  0  0  0  0  0  0  0  0  0
  1  2  1  0
  2  3  2  0
  3  4  1  0
  3  5  1  0
  5  6  1  0
  5  7  1  0
  5  8  1  0
  8  9  1  0
  9 10  2  0
 10 11  1  0
 11 12  1  0
 11 13  2  0
 13 14  1  0
 14 15  1  0
 15 16  2  0
 16 17  1  0
 17 18  1  0
 18 19  1  0
 19 20  1  0
 20 21  2  0
 20 22  1  0
 22 23  1  0
 22 24  1  0
 22 25  1  0
 18 26  2  0
 26 27  1  0
 26 28  1  0
 28 29  1  0
 29 30  1  0
 29 31  1  0
 29 32  1  0
 28 33  2  0
 33 34  1  0
 14 35  2  0
 35 36  1  0
  8 37  1  0
 37 38  1  0
 37 39  1  0
 37  2  1  0
 35  9  1  0
 33 16  1  0
M  CHG  2  17  -1  19  -1
M  END
>  <UniqueID>  (84) 
75

>  <SMILES>  (84) 
CC(=O)[N-]c1cc(C)c/c(=N/c2cc(N3CC=CC3)ncn2)[n-]1

>  <Energy>  (84) 
56.8298766112108

>  <Genealogy>  (84) 
CC(=O)[N-]c1cc(C)cc(=Nc2cc(N3CC=CC3)ncn2)[n-]1 (protonated)
CC(=O)[N-]c1cc(C)c/c(=N/c2cc(N3CC=CC3)ncn2)[n-]1 (cis-trans isomerization)
CC(=O)[N-]c1cc(C)c/c(=N/c2cc(N3CC=CC3)ncn2)[n-]1 (3D coordinates assigned)
CC(=O)[N-]c1cc(C)c/c(=N/c2cc(N3CC=CC3)ncn2)[n-]1 (nonaromatic ring conformer: 56.8298766112108 kcal/mol)

>  <smiles>  (84) 
CC(=O)Nc1cc(C)cc(=Nc2cc(N3CC=CC3)ncn2)[nH]1

>  <score_type>  (84) 
oracle

>  <origin>  (84) 
adg

>  <m_score__min__energy>  (84) 
-12.050000000000001

>  <m_primary>  (84) 
energy

$$$$
84:0
     RDKit          3D

 44 46  0  0  0  0  0  0  0  0999 V2000
   56.5700   33.1410   45.3890 O   0  0  0  0  0  0  0  0  0  0  0  0
   57.7840   33.4820   45.3860 C   0  0  0  0  0  0  0  0  0  0  0  0
   58.4000   33.9760   46.5780 N   0  0  0  0  0  0  0  0  0  0  0  0
   58.8510   33.1300   47.6810 C   0  0  0  0  0  0  0  0  0  0  0  0
   59.7960   32.0190   47.2020 C   0  0  0  0  0  0  0  0  0  0  0  0
   61.2250   32.4720   47.1650 C   0  0  0  0  0  0  0  0  0  0  0  0
   61.6800   33.6820   46.6560 C   0  0  0  0  0  0  0  0  0  0  0  0
   63.0630   33.8470   46.7790 C   0  0  0  0  0  0  0  0  0  0  0  0
   63.6990   32.7740   47.3910 C   0  0  0  0  0  0  0  0  0  0  0  0
   62.5380   31.6190   47.7770 S   0  0  0  0  0  0  0  0  0  0  0  0
   58.5640   33.3640   44.1920 N   0  0  0  0  0  0  0  0  0  0  0  0
   58.1810   32.4750   43.0990 C   0  0  0  0  0  0  0  0  0  0  0  0
   57.6100   31.2030   43.6620 C   0  0  0  0  0  0  0  0  0  0  0  0
   58.3750   30.4220   44.5380 C   0  0  0  0  0  0  0  0  0  0  0  0
   57.8190   29.2960   45.1480 C   0  0  0  0  0  0  0  0  0  0  0  0
   56.4850   28.9440   44.9100 C   0  0  0  0  0  0  0  0  0  0  0  0
   55.9490   27.8190   45.6190 N   0  0  0  0  0  0  0  0  0  0  0  0
   56.7780   26.3280   45.9270 S   0  0  0  0  0  0  0  0  0  0  0  0
   55.9510   25.4610   46.8350 O   0  0  0  0  0  0  0  0  0  0  0  0
   57.0410   25.6210   44.6280 O   0  0  0  0  0  0  0  0  0  0  0  0
   58.3020   26.6750   46.7210 C   0  0  0  0  0  0  0  0  0  0  0  0
   58.4980   27.5960   47.7400 C   0  0  0  0  0  0  0  0  0  0  0  0
   59.8250   27.6420   48.1830 C   0  0  0  0  0  0  0  0  0  0  0  0
   60.6670   26.7600   47.5160 C   0  0  0  0  0  0  0  0  0  0  0  0
   59.7610   25.9200   46.3740 S   0  0  0  0  0  0  0  0  0  0  0  0
   55.7230   29.7070   44.0020 C   0  0  0  0  0  0  0  0  0  0  0  0
   54.4490   29.3680   43.6830 F   0  0  0  0  0  0  0  0  0  0  0  0
   56.2840   30.8340   43.3910 C   0  0  0  0  0  0  0  0  0  0  0  0
   59.3806   33.7552   48.4150 H   0  0  0  0  0  0  0  0  0  0  0  0
   57.9662   32.6546   48.1294 H   0  0  0  0  0  0  0  0  0  0  0  0
   59.7129   31.1626   47.8873 H   0  0  0  0  0  0  0  0  0  0  0  0
   59.5018   31.7412   46.1791 H   0  0  0  0  0  0  0  0  0  0  0  0
   61.0187   34.4346   46.2019 H   0  0  0  0  0  0  0  0  0  0  0  0
   63.5967   34.7413   46.4249 H   0  0  0  0  0  0  0  0  0  0  0  0
   64.7779   32.6933   47.5894 H   0  0  0  0  0  0  0  0  0  0  0  0
   59.5170   33.7950   44.1720 H   0  0  0  0  0  0  0  0  0  0  0  0
   57.4248   32.9700   42.4720 H   0  0  0  0  0  0  0  0  0  0  0  0
   59.0668   32.2406   42.4904 H   0  0  0  0  0  0  0  0  0  0  0  0
   59.4194   30.6974   44.7463 H   0  0  0  0  0  0  0  0  0  0  0  0
   58.4340   28.6805   45.8210 H   0  0  0  0  0  0  0  0  0  0  0  0
   57.6958   28.2234   48.1556 H   0  0  0  0  0  0  0  0  0  0  0  0
   60.1691   28.3131   48.9838 H   0  0  0  0  0  0  0  0  0  0  0  0
   61.7435   26.6327   47.7031 H   0  0  0  0  0  0  0  0  0  0  0  0
   55.6813   31.4345   42.6937 H   0  0  0  0  0  0  0  0  0  0  0  0
  1  2  2  0
  2  3  1  0
  3  4  1  0
  4  5  1  0
  5  6  1  0
  6  7  2  0
  7  8  1  0
  8  9  2  0
  9 10  1  0
  2 11  1  0
 11 12  1  0
 12 13  1  0
 13 14  2  0
 14 15  1  0
 15 16  2  0
 16 17  1  0
 17 18  1  0
 18 19  2  0
 18 20  2  0
 18 21  1  0
 21 22  2  0
 22 23  1  0
 23 24  2  0
 24 25  1  0
 16 26  1  0
 26 27  1  0
 26 28  2  0
 10  6  1  0
 28 13  1  0
 25 21  1  0
  4 29  1  0
  4 30  1  0
  5 31  1  0
  5 32  1  0
  7 33  1  0
  8 34  1  0
  9 35  1  0
 11 36  1  0
 12 37  1  0
 12 38  1  0
 14 39  1  0
 15 40  1  0
 22 41  1  0
 23 42  1  0
 24 43  1  0
 28 44  1  0
M  CHG  2   3  -1  17  -1
M  END
>  <UniqueID>  (85) 
76

>  <SMILES>  (85) 
O=C([N-]CCc1cccs1)NCc1ccc([N-]S(=O)(=O)c2cccs2)c(F)c1

>  <Energy>  (85) 
93.81559189679157

>  <Genealogy>  (85) 
O=C([N-]CCc1cccs1)NCc1ccc([N-]S(=O)(=O)c2cccs2)c(F)c1 (protonated)
O=C([N-]CCc1cccs1)NCc1ccc([N-]S(=O)(=O)c2cccs2)c(F)c1 (3D coordinates assigned)
O=C([N-]CCc1cccs1)NCc1ccc([N-]S(=O)(=O)c2cccs2)c(F)c1 (optimized conformer: 93.81559189679157 kcal/mol)

>  <smiles>  (85) 
O=C(NCCc1cccs1)NCc1ccc(NS(=O)(=O)c2cccs2)c(F)c1

>  <score_type>  (85) 
oracle

>  <origin>  (85) 
adg

>  <m_score__min__energy>  (85) 
-11.34

>  <m_primary>  (85) 
energy

$$$$
85:0
     RDKit          3D

 45 48  0  0  0  0  0  0  0  0999 V2000
   58.8600   32.5970   50.3530 C   0  0  0  0  0  0  0  0  0  0  0  0
   59.7480   32.6990   49.1880 N   0  0  0  0  0  0  0  0  0  0  0  0
   60.2240   31.5590   48.6000 C   0  0  0  0  0  0  0  0  0  0  0  0
   61.0690   31.6250   47.4820 C   0  0  0  0  0  0  0  0  0  0  0  0
   61.5570   30.3670   46.8170 C   0  0  0  0  0  0  0  0  0  0  0  0
   60.4800   29.3190   46.8360 C   0  0  0  0  0  0  0  0  0  0  0  0
   60.6030   28.1820   47.6760 C   0  0  0  0  0  0  0  0  0  0  0  0
   59.5850   27.2130   47.7270 C   0  0  0  0  0  0  0  0  0  0  0  0
   58.4550   27.4120   46.9380 C   0  0  0  0  0  0  0  0  0  0  0  0
   57.4000   26.6370   46.8410 O   0  0  0  0  0  0  0  0  0  0  0  0
   56.5740   27.2110   45.9860 C   0  0  0  0  0  0  0  0  0  0  0  0
   55.3420   26.6780   45.6270 O   0  0  0  0  0  0  0  0  0  0  0  0
   57.1040   28.4000   45.5070 C   0  0  0  0  0  0  0  0  0  0  0  0
   56.3870   29.5120   44.3510 S   0  0  0  0  0  0  0  0  0  0  0  0
   54.9300   29.6780   44.6790 O   0  0  0  0  0  0  0  0  0  0  0  0
   56.5140   28.9660   42.9570 O   0  0  0  0  0  0  0  0  0  0  0  0
   57.2250   31.0590   44.4310 C   0  0  0  0  0  0  0  0  0  0  0  0
   57.7360   31.6330   43.2580 C   0  0  0  0  0  0  0  0  0  0  0  0
   58.4220   32.8490   43.3130 C   0  0  0  0  0  0  0  0  0  0  0  0
   58.6040   33.4960   44.5390 C   0  0  0  0  0  0  0  0  0  0  0  0
   58.0980   32.9270   45.7110 C   0  0  0  0  0  0  0  0  0  0  0  0
   57.4090   31.7120   45.6600 C   0  0  0  0  0  0  0  0  0  0  0  0
   58.3260   28.5160   46.1330 C   0  0  0  0  0  0  0  0  0  0  0  0
   59.3150   29.4950   46.0600 C   0  0  0  0  0  0  0  0  0  0  0  0
   61.3940   32.8800   46.9560 C   0  0  0  0  0  0  0  0  0  0  0  0
   60.8990   34.0340   47.5540 C   0  0  0  0  0  0  0  0  0  0  0  0
   60.0690   33.9300   48.6750 C   0  0  0  0  0  0  0  0  0  0  0  0
   59.6200   34.9840   49.2050 O   0  0  0  0  0  0  0  0  0  0  0  0
   59.4557   32.6654   51.2752 H   0  0  0  0  0  0  0  0  0  0  0  0
   58.1270   33.4169   50.3283 H   0  0  0  0  0  0  0  0  0  0  0  0
   58.3320   31.6323   50.3283 H   0  0  0  0  0  0  0  0  0  0  0  0
   59.9405   30.5780   49.0091 H   0  0  0  0  0  0  0  0  0  0  0  0
   61.8296   30.5891   45.7747 H   0  0  0  0  0  0  0  0  0  0  0  0
   62.4347   29.9898   47.3623 H   0  0  0  0  0  0  0  0  0  0  0  0
   61.5044   28.0571   48.2940 H   0  0  0  0  0  0  0  0  0  0  0  0
   59.6785   26.3255   48.3701 H   0  0  0  0  0  0  0  0  0  0  0  0
   54.7810   27.1180   44.9070 H   0  0  0  0  0  0  0  0  0  0  0  0
   57.5965   31.1248   42.2925 H   0  0  0  0  0  0  0  0  0  0  0  0
   58.8193   33.2978   42.3907 H   0  0  0  0  0  0  0  0  0  0  0  0
   59.1453   34.4527   44.5811 H   0  0  0  0  0  0  0  0  0  0  0  0
   58.2423   33.4363   46.6753 H   0  0  0  0  0  0  0  0  0  0  0  0
   57.0106   31.2670   46.5837 H   0  0  0  0  0  0  0  0  0  0  0  0
   59.1910   30.3786   45.4166 H   0  0  0  0  0  0  0  0  0  0  0  0
   62.0410   32.9540   46.0695 H   0  0  0  0  0  0  0  0  0  0  0  0
   61.1587   35.0227   47.1477 H   0  0  0  0  0  0  0  0  0  0  0  0
  1  2  1  0
  2  3  1  0
  3  4  2  0
  4  5  1  0
  5  6  1  0
  6  7  2  0
  7  8  1  0
  8  9  2  0
  9 10  1  0
 10 11  1  0
 11 12  1  0
 11 13  2  0
 13 14  1  0
 14 15  2  0
 14 16  2  0
 14 17  1  0
 17 18  2  0
 18 19  1  0
 19 20  2  0
 20 21  1  0
 21 22  2  0
 13 23  1  0
 23 24  2  0
  4 25  1  0
 25 26  2  0
 26 27  1  0
 27 28  2  0
 27  2  1  0
 24  6  1  0
 23  9  1  0
 22 17  1  0
  1 29  1  0
  1 30  1  0
  1 31  1  0
  3 32  1  0
  5 33  1  0
  5 34  1  0
  7 35  1  0
  8 36  1  0
 12 37  1  0
 18 38  1  0
 19 39  1  0
 20 40  1  0
 21 41  1  0
 22 42  1  0
 24 43  1  0
 25 44  1  0
 26 45  1  0
M  END
>  <UniqueID>  (86) 
77

>  <SMILES>  (86) 
Cn1cc(Cc2ccc3oc(O)c(S(=O)(=O)c4ccccc4)c3c2)ccc1=O

>  <Energy>  (86) 
85.40861702527275

>  <Genealogy>  (86) 
Cn1cc(Cc2ccc3oc(O)c(S(=O)(=O)c4ccccc4)c3c2)ccc1=O (3D coordinates assigned)
Cn1cc(Cc2ccc3oc(O)c(S(=O)(=O)c4ccccc4)c3c2)ccc1=O (optimized conformer: 85.40861702527275 kcal/mol)

>  <smiles>  (86) 
Cn1cc(Cc2ccc3oc(O)c(S(=O)(=O)c4ccccc4)c3c2)ccc1=O

>  <score_type>  (86) 
oracle

>  <origin>  (86) 
adg

>  <m_score__min__energy>  (86) 
-8.8900000000000006

>  <m_primary>  (86) 
energy

$$$$
86:0
     RDKit          3D

 45 47  0  0  0  0  0  0  0  0999 V2000
   63.9740   34.2470   51.6370 C   0  0  0  0  0  0  0  0  0  0  0  0
   62.7800   33.9670   50.9120 O   0  0  0  0  0  0  0  0  0  0  0  0
   62.7030   33.8900   49.5140 C   0  0  0  0  0  0  0  0  0  0  0  0
   63.8250   33.4340   48.8120 C   0  0  0  0  0  0  0  0  0  0  0  0
   63.7960   33.3320   47.4190 C   0  0  0  0  0  0  0  0  0  0  0  0
   62.6460   33.6910   46.7140 C   0  0  0  0  0  0  0  0  0  0  0  0
   61.5180   34.1650   47.3930 C   0  0  0  0  0  0  0  0  0  0  0  0
   60.3760   34.4880   46.6450 O   0  0  0  0  0  0  0  0  0  0  0  0
   59.4210   33.5720   46.1720 C   0  0  0  0  0  0  0  0  0  0  0  0
   58.7240   33.8790   44.9990 C   0  0  0  0  0  0  0  0  0  0  0  0
   57.7500   33.0080   44.5070 C   0  0  0  0  0  0  0  0  0  0  0  0
   57.4380   31.8270   45.1880 C   0  0  0  0  0  0  0  0  0  0  0  0
   56.4350   30.9640   44.6290 N   0  0  0  0  0  0  0  0  0  0  0  0
   56.2540   29.5600   44.8520 C   0  0  0  0  0  0  0  0  0  0  0  0
   55.1850   28.9860   44.5100 O   0  0  0  0  0  0  0  0  0  0  0  0
   57.3130   28.8150   45.4700 N   0  0  0  0  0  0  0  0  0  0  0  0
   57.3480   27.3800   45.5760 C   0  0  0  0  0  0  0  0  0  0  0  0
   58.5830   26.7200   45.5470 C   0  0  0  0  0  0  0  0  0  0  0  0
   58.6450   25.3280   45.6150 C   0  0  0  0  0  0  0  0  0  0  0  0
   57.4730   24.5780   45.7090 C   0  0  0  0  0  0  0  0  0  0  0  0
   56.2220   25.2160   45.7420 C   0  0  0  0  0  0  0  0  0  0  0  0
   54.9510   24.4050   45.7770 C   0  0  0  0  0  0  0  0  0  0  0  0
   54.9700   23.4830   44.7500 F   0  0  0  0  0  0  0  0  0  0  0  0
   53.8460   25.2270   45.6290 F   0  0  0  0  0  0  0  0  0  0  0  0
   54.8310   23.7330   46.9820 F   0  0  0  0  0  0  0  0  0  0  0  0
   56.1670   26.6180   45.6410 C   0  0  0  0  0  0  0  0  0  0  0  0
   58.1430   31.5090   46.3650 C   0  0  0  0  0  0  0  0  0  0  0  0
   59.1140   32.3860   46.8620 C   0  0  0  0  0  0  0  0  0  0  0  0
   61.5430   34.2470   48.7980 C   0  0  0  0  0  0  0  0  0  0  0  0
   63.7675   34.1986   52.7164 H   0  0  0  0  0  0  0  0  0  0  0  0
   64.7433   33.5049   51.3772 H   0  0  0  0  0  0  0  0  0  0  0  0
   64.3332   35.2537   51.3772 H   0  0  0  0  0  0  0  0  0  0  0  0
   64.7361   33.1540   49.3612 H   0  0  0  0  0  0  0  0  0  0  0  0
   64.6811   32.9681   46.8767 H   0  0  0  0  0  0  0  0  0  0  0  0
   62.6263   33.6007   45.6179 H   0  0  0  0  0  0  0  0  0  0  0  0
   58.9445   34.8126   44.4606 H   0  0  0  0  0  0  0  0  0  0  0  0
   57.2223   33.2534   43.5736 H   0  0  0  0  0  0  0  0  0  0  0  0
   58.0710   29.3610   45.9380 H   0  0  0  0  0  0  0  0  0  0  0  0
   59.5119   27.3042   45.4700 H   0  0  0  0  0  0  0  0  0  0  0  0
   59.6208   24.8207   45.5944 H   0  0  0  0  0  0  0  0  0  0  0  0
   57.5286   23.4805   45.7576 H   0  0  0  0  0  0  0  0  0  0  0  0
   55.1906   27.1238   45.6125 H   0  0  0  0  0  0  0  0  0  0  0  0
   57.9300   30.5690   46.8951 H   0  0  0  0  0  0  0  0  0  0  0  0
   59.6400   32.1460   47.7978 H   0  0  0  0  0  0  0  0  0  0  0  0
   60.6507   34.5922   49.3409 H   0  0  0  0  0  0  0  0  0  0  0  0
  1  2  1  0
  2  3  1  0
  3  4  2  0
  4  5  1  0
  5  6  2  0
  6  7  1  0
  7  8  1  0
  8  9  1  0
  9 10  2  0
 10 11  1  0
 11 12  2  0
 12 13  1  0
 13 14  1  0
 14 15  2  0
 14 16  1  0
 16 17  1  0
 17 18  2  0
 18 19  1  0
 19 20  2  0
 20 21  1  0
 21 22  1  0
 22 23  1  0
 22 24  1  0
 22 25  1  0
 21 26  2  0
 12 27  1  0
 27 28  2  0
  7 29  2  0
 29  3  1  0
 28  9  1  0
 26 17  1  0
  1 30  1  0
  1 31  1  0
  1 32  1  0
  4 33  1  0
  5 34  1  0
  6 35  1  0
 10 36  1  0
 11 37  1  0
 16 38  1  0
 18 39  1  0
 19 40  1  0
 20 41  1  0
 26 42  1  0
 27 43  1  0
 28 44  1  0
 29 45  1  0
M  CHG  1  13  -1
M  END
>  <UniqueID>  (87) 
78

>  <SMILES>  (87) 
COc1cccc(Oc2ccc([N-]C(=O)Nc3cccc(C(F)(F)F)c3)cc2)c1

>  <Energy>  (87) 
60.83373349474999

>  <Genealogy>  (87) 
COc1cccc(Oc2ccc([N-]C(=O)Nc3cccc(C(F)(F)F)c3)cc2)c1 (protonated)
COc1cccc(Oc2ccc([N-]C(=O)Nc3cccc(C(F)(F)F)c3)cc2)c1 (3D coordinates assigned)
COc1cccc(Oc2ccc([N-]C(=O)Nc3cccc(C(F)(F)F)c3)cc2)c1 (optimized conformer: 60.83373349474999 kcal/mol)

>  <smiles>  (87) 
COc1cccc(Oc2ccc(NC(=O)Nc3cccc(C(F)(F)F)c3)cc2)c1

>  <score_type>  (87) 
oracle

>  <origin>  (87) 
adg

>  <m_score__min__energy>  (87) 
-9.4600000000000009

>  <m_primary>  (87) 
energy

$$$$
87:0
     RDKit          3D

 44 46  0  0  0  0  0  0  0  0999 V2000
   55.5570   28.5890   45.2230 O   0  0  0  0  0  0  0  0  0  0  0  0
   56.3660   29.5160   44.9620 C   0  0  0  0  0  0  0  0  0  0  0  0
   55.8810   30.7300   44.4950 O   0  0  0  0  0  0  0  0  0  0  0  0
   57.8310   29.3210   45.2040 C   0  0  0  0  0  0  0  0  0  0  0  0
   58.3690   30.3410   46.1250 N   0  0  0  0  0  0  0  0  0  0  0  0
   58.8980   29.9050   47.3910 C   0  0  0  0  0  0  0  0  0  0  0  0
   58.3080   28.9870   48.0290 O   0  0  0  0  0  0  0  0  0  0  0  0
   60.1420   30.4850   47.9400 C   0  0  0  0  0  0  0  0  0  0  0  0
   60.8120   31.4870   47.2150 C   0  0  0  0  0  0  0  0  0  0  0  0
   61.9760   32.0700   47.7210 C   0  0  0  0  0  0  0  0  0  0  0  0
   62.8570   33.4530   46.7380 Br  0  0  0  0  0  0  0  0  0  0  0  0
   62.4930   31.6410   48.9470 C   0  0  0  0  0  0  0  0  0  0  0  0
   61.8480   30.6320   49.6700 C   0  0  0  0  0  0  0  0  0  0  0  0
   60.6630   30.0510   49.1800 C   0  0  0  0  0  0  0  0  0  0  0  0
   60.0300   29.0000   49.8640 O   0  0  0  0  0  0  0  0  0  0  0  0
   59.5860   29.0450   51.1940 C   0  0  0  0  0  0  0  0  0  0  0  0
   60.0950   28.2860   52.0640 O   0  0  0  0  0  0  0  0  0  0  0  0
   58.5690   30.0460   51.5920 C   0  0  0  0  0  0  0  0  0  0  0  0
   57.4400   29.6660   52.3440 C   0  0  0  0  0  0  0  0  0  0  0  0
   56.4900   30.6220   52.7270 C   0  0  0  0  0  0  0  0  0  0  0  0
   56.6540   31.9620   52.3570 C   0  0  0  0  0  0  0  0  0  0  0  0
   57.7630   32.3460   51.6000 C   0  0  0  0  0  0  0  0  0  0  0  0
   58.7180   31.3930   51.2190 C   0  0  0  0  0  0  0  0  0  0  0  0
   58.2730   31.7590   45.8470 C   0  0  0  0  0  0  0  0  0  0  0  0
   58.5190   32.2400   44.5460 C   0  0  0  0  0  0  0  0  0  0  0  0
   58.3970   33.6020   44.2540 C   0  0  0  0  0  0  0  0  0  0  0  0
   58.0560   34.5060   45.2640 C   0  0  0  0  0  0  0  0  0  0  0  0
   57.8350   34.0500   46.5680 C   0  0  0  0  0  0  0  0  0  0  0  0
   57.9320   32.6850   46.8610 C   0  0  0  0  0  0  0  0  0  0  0  0
   57.9912   28.3246   45.6416 H   0  0  0  0  0  0  0  0  0  0  0  0
   58.3548   29.4155   44.2413 H   0  0  0  0  0  0  0  0  0  0  0  0
   60.4162   31.8139   46.2421 H   0  0  0  0  0  0  0  0  0  0  0  0
   63.4107   32.0987   49.3448 H   0  0  0  0  0  0  0  0  0  0  0  0
   62.2692   30.2905   50.6271 H   0  0  0  0  0  0  0  0  0  0  0  0
   57.3035   28.6132   52.6320 H   0  0  0  0  0  0  0  0  0  0  0  0
   55.6140   30.3191   53.3193 H   0  0  0  0  0  0  0  0  0  0  0  0
   55.9097   32.7122   52.6623 H   0  0  0  0  0  0  0  0  0  0  0  0
   57.8873   33.3976   51.3023 H   0  0  0  0  0  0  0  0  0  0  0  0
   59.5902   31.7016   50.6239 H   0  0  0  0  0  0  0  0  0  0  0  0
   58.8101   31.5369   43.7517 H   0  0  0  0  0  0  0  0  0  0  0  0
   58.5695   33.9621   43.2290 H   0  0  0  0  0  0  0  0  0  0  0  0
   57.9613   35.5774   45.0333 H   0  0  0  0  0  0  0  0  0  0  0  0
   57.5845   34.7659   47.3647 H   0  0  0  0  0  0  0  0  0  0  0  0
   57.7422   32.3302   47.8848 H   0  0  0  0  0  0  0  0  0  0  0  0
  1  2  2  0
  2  3  1  0
  2  4  1  0
  4  5  1  0
  5  6  1  0
  6  7  2  0
  6  8  1  0
  8  9  2  0
  9 10  1  0
 10 11  1  0
 10 12  2  0
 12 13  1  0
 13 14  2  0
 14 15  1  0
 15 16  1  0
 16 17  2  0
 16 18  1  0
 18 19  2  0
 19 20  1  0
 20 21  2  0
 21 22  1  0
 22 23  2  0
  5 24  1  0
 24 25  2  0
 25 26  1  0
 26 27  2  0
 27 28  1  0
 28 29  2  0
 14  8  1  0
 23 18  1  0
 29 24  1  0
  4 30  1  0
  4 31  1  0
  9 32  1  0
 12 33  1  0
 13 34  1  0
 19 35  1  0
 20 36  1  0
 21 37  1  0
 22 38  1  0
 23 39  1  0
 25 40  1  0
 26 41  1  0
 27 42  1  0
 28 43  1  0
 29 44  1  0
M  CHG  1   3  -1
M  END
>  <UniqueID>  (88) 
79

>  <SMILES>  (88) 
O=C([O-])CN(C(=O)c1cc(Br)ccc1OC(=O)c1ccccc1)c1ccccc1

>  <Energy>  (88) 
61.288608615507485

>  <Genealogy>  (88) 
O=C([O-])CN(C(=O)c1cc(Br)ccc1OC(=O)c1ccccc1)c1ccccc1 (protonated)
O=C([O-])CN(C(=O)c1cc(Br)ccc1OC(=O)c1ccccc1)c1ccccc1 (3D coordinates assigned)
O=C([O-])CN(C(=O)c1cc(Br)ccc1OC(=O)c1ccccc1)c1ccccc1 (optimized conformer: 61.288608615507485 kcal/mol)

>  <smiles>  (88) 
O=C(O)CN(C(=O)c1cc(Br)ccc1OC(=O)c1ccccc1)c1ccccc1

>  <score_type>  (88) 
oracle

>  <origin>  (88) 
adg

>  <m_score__min__energy>  (88) 
-11.02

>  <m_primary>  (88) 
energy

$$$$
88:0
     RDKit          3D

 30 32  0  0  0  0  0  0  0  0999 V2000
   60.4720   29.0900   47.9920 C   0  0  0  0  0  0  0  0  0  0  0  0
   59.4070   28.4790   47.1310 C   0  0  0  0  0  0  0  0  0  0  0  0
   59.2280   27.0800   47.1370 C   0  0  0  0  0  0  0  0  0  0  0  0
   58.2330   26.4770   46.3510 C   0  0  0  0  0  0  0  0  0  0  0  0
   57.4040   27.2580   45.5380 C   0  0  0  0  0  0  0  0  0  0  0  0
   57.5880   28.6430   45.5160 C   0  0  0  0  0  0  0  0  0  0  0  0
   58.5590   29.2500   46.3060 C   0  0  0  0  0  0  0  0  0  0  0  0
   58.4460   30.6980   46.1060 C   0  0  0  0  0  0  0  0  0  0  0  0
   59.1470   31.7640   46.6870 C   0  0  0  0  0  0  0  0  0  0  0  0
   58.7900   33.0750   46.3410 C   0  0  0  0  0  0  0  0  0  0  0  0
   57.7420   33.3130   45.4360 C   0  0  0  0  0  0  0  0  0  0  0  0
   57.0440   32.2400   44.8660 C   0  0  0  0  0  0  0  0  0  0  0  0
   57.4180   30.9360   45.2030 C   0  0  0  0  0  0  0  0  0  0  0  0
   56.7950   29.6500   44.7150 C   0  0  2  0  0  0  0  0  0  0  0  0
   55.4250   29.5930   45.0330 O   0  0  0  0  0  0  0  0  0  0  0  0
   57.0000   29.4600   43.1990 C   0  0  0  0  0  0  0  0  0  0  0  0
   57.7470   28.3200   42.9590 F   0  0  0  0  0  0  0  0  0  0  0  0
   55.7780   29.3190   42.5660 F   0  0  0  0  0  0  0  0  0  0  0  0
   57.6610   30.5490   42.6570 F   0  0  0  0  0  0  0  0  0  0  0  0
   60.2159   28.9431   49.0516 H   0  0  0  0  0  0  0  0  0  0  0  0
   61.4376   28.6085   47.7780 H   0  0  0  0  0  0  0  0  0  0  0  0
   60.5437   30.1666   47.7780 H   0  0  0  0  0  0  0  0  0  0  0  0
   59.8768   26.4528   47.7660 H   0  0  0  0  0  0  0  0  0  0  0  0
   58.1045   25.3848   46.3744 H   0  0  0  0  0  0  0  0  0  0  0  0
   56.6197   26.7889   44.9258 H   0  0  0  0  0  0  0  0  0  0  0  0
   59.9621   31.5754   47.4012 H   0  0  0  0  0  0  0  0  0  0  0  0
   59.3344   33.9234   46.7813 H   0  0  0  0  0  0  0  0  0  0  0  0
   57.4684   34.3457   45.1739 H   0  0  0  0  0  0  0  0  0  0  0  0
   56.2157   32.4208   44.1651 H   0  0  0  0  0  0  0  0  0  0  0  0
   55.1200   30.5130   45.2490 H   0  0  0  0  0  0  0  0  0  0  0  0
  1  2  1  0
  2  3  2  0
  3  4  1  0
  4  5  2  0
  5  6  1  0
  6  7  2  0
  7  8  1  0
  8  9  2  0
  9 10  1  0
 10 11  2  0
 11 12  1  0
 12 13  2  0
 13 14  1  0
 14 15  1  6
 14 16  1  0
 16 17  1  0
 16 18  1  0
 16 19  1  0
  7  2  1  0
 13  8  1  0
 14  6  1  0
  1 20  1  0
  1 21  1  0
  1 22  1  0
  3 23  1  0
  4 24  1  0
  5 25  1  0
  9 26  1  0
 10 27  1  0
 11 28  1  0
 12 29  1  0
 15 30  1  0
M  END
>  <UniqueID>  (89) 
80

>  <SMILES>  (89) 
Cc1cccc2c1-c1ccccc1[C@@]2(O)C(F)(F)F

>  <Energy>  (89) 
57.02636262916081

>  <Genealogy>  (89) 
Cc1cccc2c1-c1ccccc1[C@@]2(O)C(F)(F)F (chirality)
Cc1cccc2c1-c1ccccc1[C@@]2(O)C(F)(F)F (3D coordinates assigned)
Cc1cccc2c1-c1ccccc1[C@@]2(O)C(F)(F)F (nonaromatic ring conformer: 57.02636262916081 kcal/mol)

>  <smiles>  (89) 
Cc1cccc2c1-c1ccccc1C2(O)C(F)(F)F

>  <score_type>  (89) 
oracle

>  <origin>  (89) 
adg

>  <m_score__min__energy>  (89) 
-6.75

>  <m_primary>  (89) 
energy

$$$$
89:0
     RDKit          3D

 51 54  0  0  0  0  0  0  0  0999 V2000
   56.2660   30.4190   42.6670 C   0  0  0  0  0  0  0  0  0  0  0  0
   56.8870   30.2960   44.0210 C   0  0  0  0  0  0  0  0  0  0  0  0
   57.3800   31.4270   44.6800 C   0  0  0  0  0  0  0  0  0  0  0  0
   57.9630   31.2750   45.9510 C   0  0  0  0  0  0  0  0  0  0  0  0
   58.5050   32.4040   46.6840 N   0  0  0  0  0  0  0  0  0  0  0  0
   59.2660   33.4550   45.9860 C   0  0  0  0  0  0  0  0  0  0  0  0
   59.8600   34.4610   46.9710 C   0  0  0  0  0  0  0  0  0  0  0  0
   60.4210   33.7200   48.1130 N   0  0  0  0  0  0  0  0  0  0  0  0
   61.2890   34.5800   48.9420 C   0  0  0  0  0  0  0  0  0  0  0  0
   62.5460   33.8450   49.3250 C   0  0  0  0  0  0  0  0  0  0  0  0
   62.9870   32.7590   48.5490 C   0  0  0  0  0  0  0  0  0  0  0  0
   64.1580   32.0770   48.8940 C   0  0  0  0  0  0  0  0  0  0  0  0
   64.8980   32.4750   50.0110 C   0  0  0  0  0  0  0  0  0  0  0  0
   66.0340   31.8130   50.3430 F   0  0  0  0  0  0  0  0  0  0  0  0
   64.4670   33.5570   50.7850 C   0  0  0  0  0  0  0  0  0  0  0  0
   63.2970   34.2410   50.4450 C   0  0  0  0  0  0  0  0  0  0  0  0
   59.3430   33.1250   48.9340 C   0  0  0  0  0  0  0  0  0  0  0  0
   58.1470   32.6090   48.1000 C   0  0  0  0  0  0  0  0  0  0  0  0
   58.0200   30.0270   46.4930 N   0  0  0  0  0  0  0  0  0  0  0  0
   57.5240   28.9360   45.8500 C   0  0  0  0  0  0  0  0  0  0  0  0
   57.6480   27.5970   46.4670 C   0  0  0  0  0  0  0  0  0  0  0  0
   58.8580   27.2570   47.1000 C   0  0  0  0  0  0  0  0  0  0  0  0
   59.0470   25.9810   47.6370 C   0  0  0  0  0  0  0  0  0  0  0  0
   58.0310   25.0300   47.5520 C   0  0  0  0  0  0  0  0  0  0  0  0
   56.8160   25.3580   46.9460 C   0  0  0  0  0  0  0  0  0  0  0  0
   56.6050   26.6380   46.4190 C   0  0  0  0  0  0  0  0  0  0  0  0
   55.3430   26.9280   45.8940 O   0  0  0  0  0  0  0  0  0  0  0  0
   56.9760   29.0790   44.6150 N   0  0  0  0  0  0  0  0  0  0  0  0
   55.1921   30.6317   42.7741 H   0  0  0  0  0  0  0  0  0  0  0  0
   56.7489   31.2389   42.1152 H   0  0  0  0  0  0  0  0  0  0  0  0
   56.3999   29.4769   42.1152 H   0  0  0  0  0  0  0  0  0  0  0  0
   57.3128   32.4200   44.2115 H   0  0  0  0  0  0  0  0  0  0  0  0
   60.0824   32.9872   45.4163 H   0  0  0  0  0  0  0  0  0  0  0  0
   58.5793   33.9918   45.3150 H   0  0  0  0  0  0  0  0  0  0  0  0
   60.6548   35.0391   46.4771 H   0  0  0  0  0  0  0  0  0  0  0  0
   59.0801   35.1548   47.3179 H   0  0  0  0  0  0  0  0  0  0  0  0
   61.5562   35.4819   48.3718 H   0  0  0  0  0  0  0  0  0  0  0  0
   60.7458   34.8579   49.8572 H   0  0  0  0  0  0  0  0  0  0  0  0
   62.4090   32.4446   47.6675 H   0  0  0  0  0  0  0  0  0  0  0  0
   64.4973   31.2259   48.2853 H   0  0  0  0  0  0  0  0  0  0  0  0
   65.0503   33.8703   51.6634 H   0  0  0  0  0  0  0  0  0  0  0  0
   62.9626   35.0923   51.0560 H   0  0  0  0  0  0  0  0  0  0  0  0
   59.7625   32.2808   49.5009 H   0  0  0  0  0  0  0  0  0  0  0  0
   58.9606   33.9195   49.5917 H   0  0  0  0  0  0  0  0  0  0  0  0
   57.8071   31.6517   48.5220 H   0  0  0  0  0  0  0  0  0  0  0  0
   57.3523   33.3684   48.1418 H   0  0  0  0  0  0  0  0  0  0  0  0
   59.6630   28.0032   47.1727 H   0  0  0  0  0  0  0  0  0  0  0  0
   59.9982   25.7265   48.1273 H   0  0  0  0  0  0  0  0  0  0  0  0
   58.1863   24.0212   47.9622 H   0  0  0  0  0  0  0  0  0  0  0  0
   56.0177   24.6039   46.8822 H   0  0  0  0  0  0  0  0  0  0  0  0
   55.1470   27.7510   45.3400 H   0  0  0  0  0  0  0  0  0  0  0  0
  1  2  1  0
  2  3  2  0
  3  4  1  0
  4  5  1  0
  5  6  1  0
  6  7  1  0
  7  8  1  0
  8  9  1  0
  9 10  1  0
 10 11  2  0
 11 12  1  0
 12 13  2  0
 13 14  1  0
 13 15  1  0
 15 16  2  0
  8 17  1  0
 17 18  1  0
  4 19  2  0
 19 20  1  0
 20 21  1  0
 21 22  2  0
 22 23  1  0
 23 24  2  0
 24 25  1  0
 25 26  2  0
 26 27  1  0
 20 28  2  0
 28  2  1  0
 18  5  1  0
 26 21  1  0
 16 10  1  0
  1 29  1  0
  1 30  1  0
  1 31  1  0
  3 32  1  0
  6 33  1  0
  6 34  1  0
  7 35  1  0
  7 36  1  0
  9 37  1  0
  9 38  1  0
 11 39  1  0
 12 40  1  0
 15 41  1  0
 16 42  1  0
 17 43  1  0
 17 44  1  0
 18 45  1  0
 18 46  1  0
 22 47  1  0
 23 48  1  0
 24 49  1  0
 25 50  1  0
 27 51  1  0
M  END
>  <UniqueID>  (90) 
81

>  <SMILES>  (90) 
Cc1cc(N2CCN(Cc3ccc(F)cc3)CC2)nc(-c2ccccc2O)n1

>  <Energy>  (90) 
67.80171568125714

>  <Genealogy>  (90) 
Cc1cc(N2CCN(Cc3ccc(F)cc3)CC2)nc(-c2ccccc2O)n1 (3D coordinates assigned)
Cc1cc(N2CCN(Cc3ccc(F)cc3)CC2)nc(-c2ccccc2O)n1 (nonaromatic ring conformer: 67.80171568125714 kcal/mol)

>  <smiles>  (90) 
Cc1cc(N2CCN(Cc3ccc(F)cc3)CC2)nc(-c2ccccc2O)n1

>  <score_type>  (90) 
oracle

>  <origin>  (90) 
adg

>  <m_score__min__energy>  (90) 
-9.1600000000000001

>  <m_primary>  (90) 
energy

$$$$
90:0
     RDKit          3D

 46 49  0  0  0  0  0  0  0  0999 V2000
   55.1286   30.2301   43.7529 H   0  0  0  0  0  0  0  0  0  0  0  0
   55.9250   29.9190   44.4450 C   0  0  0  0  0  0  0  0  0  0  0  0
   56.8440   30.8210   44.8720 N   0  0  0  0  0  0  0  0  0  0  0  0
   57.8340   30.4450   45.7250 C   0  0  0  0  0  0  0  0  0  0  0  0
   58.8080   31.4090   46.1790 N   0  0  0  0  0  0  0  0  0  0  0  0
   59.9410   30.9460   46.9970 C   0  0  0  0  0  0  0  0  0  0  0  0
   60.3631   30.0442   46.5294 H   0  0  0  0  0  0  0  0  0  0  0  0
   59.5526   30.7480   48.0069 H   0  0  0  0  0  0  0  0  0  0  0  0
   61.0430   31.9750   47.1360 C   0  0  0  0  0  0  0  0  0  0  0  0
   62.1670   31.6730   47.9270 C   0  0  0  0  0  0  0  0  0  0  0  0
   62.2590   30.4780   48.5620 F   0  0  0  0  0  0  0  0  0  0  0  0
   63.2060   32.5970   48.0620 C   0  0  0  0  0  0  0  0  0  0  0  0
   64.0790   32.3539   48.6856 H   0  0  0  0  0  0  0  0  0  0  0  0
   63.1390   33.8270   47.4080 C   0  0  0  0  0  0  0  0  0  0  0  0
   63.9596   34.5516   47.5156 H   0  0  0  0  0  0  0  0  0  0  0  0
   62.0320   34.1400   46.6170 C   0  0  0  0  0  0  0  0  0  0  0  0
   61.9890   35.1070   46.0944 H   0  0  0  0  0  0  0  0  0  0  0  0
   60.9740   33.2280   46.4850 C   0  0  0  0  0  0  0  0  0  0  0  0
   59.8130   33.5630   45.5910 C   0  0  0  0  0  0  0  0  0  0  0  0
   60.0469   33.2489   44.5631 H   0  0  0  0  0  0  0  0  0  0  0  0
   59.6400   34.6486   45.6294 H   0  0  0  0  0  0  0  0  0  0  0  0
   58.5490   32.8500   46.0560 C   0  0  0  0  0  0  0  0  0  0  0  0
   57.7456   33.0155   45.3231 H   0  0  0  0  0  0  0  0  0  0  0  0
   58.2454   33.2496   47.0348 H   0  0  0  0  0  0  0  0  0  0  0  0
   57.8860   29.1530   46.1490 N   0  0  0  0  0  0  0  0  0  0  0  0
   56.9640   28.2470   45.7360 C   0  0  0  0  0  0  0  0  0  0  0  0
   57.0580   27.0160   46.1460 N   0  0  0  0  0  0  0  0  0  0  0  0
   56.6050   25.8350   45.4600 C   0  0  0  0  0  0  0  0  0  0  0  0
   57.5230   25.1250   44.6770 C   0  0  0  0  0  0  0  0  0  0  0  0
   58.5532   25.4957   44.5712 H   0  0  0  0  0  0  0  0  0  0  0  0
   57.1390   23.9500   44.0300 C   0  0  0  0  0  0  0  0  0  0  0  0
   57.8647   23.4031   43.4101 H   0  0  0  0  0  0  0  0  0  0  0  0
   55.8360   23.4660   44.1670 C   0  0  0  0  0  0  0  0  0  0  0  0
   55.5400   22.5408   43.6508 H   0  0  0  0  0  0  0  0  0  0  0  0
   54.9000   24.1530   44.9600 C   0  0  0  0  0  0  0  0  0  0  0  0
   53.5260   23.6200   45.1110 C   0  0  0  0  0  0  0  0  0  0  0  0
   53.3630   22.4080   45.4200 O   0  0  0  0  0  0  0  0  0  0  0  0
   52.3780   24.4540   44.8910 N   0  0  0  0  0  0  0  0  0  0  0  0
   52.4920   25.4160   44.4990 H   0  0  0  0  0  0  0  0  0  0  0  0
   51.0250   23.9720   45.1390 C   0  0  0  0  0  0  0  0  0  0  0  0
   50.8509   23.9100   46.2234 H   0  0  0  0  0  0  0  0  0  0  0  0
   50.3001   24.6672   44.6904 H   0  0  0  0  0  0  0  0  0  0  0  0
   50.9029   22.9751   44.6904 H   0  0  0  0  0  0  0  0  0  0  0  0
   55.3010   25.3290   45.6230 C   0  0  0  0  0  0  0  0  0  0  0  0
   54.5890   25.8572   46.2742 H   0  0  0  0  0  0  0  0  0  0  0  0
   55.9890   28.6340   44.8720 N   0  0  0  0  0  0  0  0  0  0  0  0
  1  2  1  0
  2  3  2  0
  3  4  1  0
  4  5  1  0
  5  6  1  0
  6  7  1  0
  6  8  1  0
  6  9  1  0
  9 10  2  0
 10 11  1  0
 10 12  1  0
 12 13  1  0
 12 14  2  0
 14 15  1  0
 14 16  1  0
 16 17  1  0
 16 18  2  0
 18 19  1  0
 19 20  1  0
 19 21  1  0
 19 22  1  0
 22 23  1  0
 22 24  1  0
  4 25  2  0
 25 26  1  0
 26 27  2  0
 27 28  1  0
 28 29  2  0
 29 30  1  0
 29 31  1  0
 31 32  1  0
 31 33  2  0
 33 34  1  0
 33 35  1  0
 35 36  1  0
 36 37  2  0
 36 38  1  0
 38 39  1  0
 38 40  1  0
 40 41  1  0
 40 42  1  0
 40 43  1  0
 35 44  2  0
 44 45  1  0
 26 46  1  0
 46  2  1  0
 22  5  1  0
 44 28  1  0
 18  9  1  0
M  CHG  1  46  -1
M  END
>  <UniqueID>  (91) 
82

>  <SMILES>  (91) 
CNC(=O)c1cccc(/N=c2/nc(N3CCc4cccc(F)c4C3)nc[n-]2)c1

>  <Energy>  (91) 
59.79654770820625

>  <Genealogy>  (91) 
CNC(=O)c1cccc(N=c2nc(N3CCc4cccc(F)c4C3)nc[n-]2)c1 (protonated)
CNC(=O)c1cccc(/N=c2/nc(N3CCc4cccc(F)c4C3)nc[n-]2)c1 (cis-trans isomerization)
CNC(=O)c1cccc(/N=c2/nc(N3CCc4cccc(F)c4C3)nc[n-]2)c1 (3D coordinates assigned)
CNC(=O)c1cccc(/N=c2/nc(N3CCc4cccc(F)c4C3)nc[n-]2)c1 (nonaromatic ring conformer: 59.79654770820625 kcal/mol)

>  <smiles>  (91) 
CNC(=O)c1cccc(N=c2nc(N3CCc4cccc(F)c4C3)nc[nH]2)c1

>  <score_type>  (91) 
oracle

>  <origin>  (91) 
adg

>  <m_score__min__energy>  (91) 
-9.9600000000000009

>  <m_primary>  (91) 
energy

$$$$
91:0
     RDKit          3D

 33 35  0  0  0  0  0  0  0  0999 V2000
   55.8320   22.7960   45.3780 C   0  0  0  0  0  0  0  0  0  0  0  0
   56.0380   24.2720   45.4810 C   0  0  0  0  0  0  0  0  0  0  0  0
   55.1410   24.9860   46.0060 O   0  0  0  0  0  0  0  0  0  0  0  0
   57.2060   24.8720   44.8990 N   0  0  0  0  0  0  0  0  0  0  0  0
   57.5920   26.2440   45.0950 C   0  0  0  0  0  0  0  0  0  0  0  0
   58.0300   27.0440   44.0260 C   0  0  0  0  0  0  0  0  0  0  0  0
   58.3750   28.3820   44.2390 C   0  0  0  0  0  0  0  0  0  0  0  0
   58.2770   28.9470   45.5210 C   0  0  0  0  0  0  0  0  0  0  0  0
   58.6330   30.3230   45.7410 N   0  0  0  0  0  0  0  0  0  0  0  0
   57.8760   31.4910   45.3980 C   0  0  0  0  0  0  0  0  0  0  0  0
   56.7300   31.4710   44.8750 O   0  0  0  0  0  0  0  0  0  0  0  0
   58.6020   32.6910   45.7970 C   0  0  0  0  0  0  0  0  0  0  0  0
   58.2680   34.0390   45.6730 C   0  0  0  0  0  0  0  0  0  0  0  0
   59.1810   34.9930   46.1600 C   0  0  0  0  0  0  0  0  0  0  0  0
   60.3950   34.5820   46.7540 C   0  0  0  0  0  0  0  0  0  0  0  0
   60.7070   33.2160   46.8690 C   0  0  0  0  0  0  0  0  0  0  0  0
   59.7860   32.2910   46.3790 C   0  0  0  0  0  0  0  0  0  0  0  0
   59.8230   30.8330   46.3520 C   0  0  0  0  0  0  0  0  0  0  0  0
   60.7800   30.1210   46.7590 O   0  0  0  0  0  0  0  0  0  0  0  0
   57.8190   28.1530   46.5840 C   0  0  0  0  0  0  0  0  0  0  0  0
   57.4720   26.8160   46.3700 C   0  0  0  0  0  0  0  0  0  0  0  0
   55.7716   22.3629   46.3873 H   0  0  0  0  0  0  0  0  0  0  0  0
   54.8969   22.5933   44.8354 H   0  0  0  0  0  0  0  0  0  0  0  0
   56.6759   22.3450   44.8354 H   0  0  0  0  0  0  0  0  0  0  0  0
   57.7610   24.2970   44.2250 H   0  0  0  0  0  0  0  0  0  0  0  0
   58.1018   26.6150   43.0157 H   0  0  0  0  0  0  0  0  0  0  0  0
   58.7256   28.9964   43.3967 H   0  0  0  0  0  0  0  0  0  0  0  0
   57.3197   34.3475   45.2087 H   0  0  0  0  0  0  0  0  0  0  0  0
   58.9479   36.0649   46.0776 H   0  0  0  0  0  0  0  0  0  0  0  0
   61.1017   35.3367   47.1295 H   0  0  0  0  0  0  0  0  0  0  0  0
   61.6492   32.8869   47.3316 H   0  0  0  0  0  0  0  0  0  0  0  0
   57.7326   28.5856   47.5917 H   0  0  0  0  0  0  0  0  0  0  0  0
   57.1018   26.2075   47.2083 H   0  0  0  0  0  0  0  0  0  0  0  0
  1  2  1  0
  2  3  2  0
  2  4  1  0
  4  5  1  0
  5  6  2  0
  6  7  1  0
  7  8  2  0
  8  9  1  0
  9 10  1  0
 10 11  2  0
 10 12  1  0
 12 13  2  0
 13 14  1  0
 14 15  2  0
 15 16  1  0
 16 17  2  0
 17 18  1  0
 18 19  2  0
  8 20  1  0
 20 21  2  0
 21  5  1  0
 18  9  1  0
 17 12  1  0
  1 22  1  0
  1 23  1  0
  1 24  1  0
  4 25  1  0
  6 26  1  0
  7 27  1  0
 13 28  1  0
 14 29  1  0
 15 30  1  0
 16 31  1  0
 20 32  1  0
 21 33  1  0
M  END
>  <UniqueID>  (92) 
83

>  <SMILES>  (92) 
CC(=O)Nc1ccc(N2C(=O)c3ccccc3C2=O)cc1

>  <Energy>  (92) 
74.11154291590165

>  <Genealogy>  (92) 
CC(=O)Nc1ccc(N2C(=O)c3ccccc3C2=O)cc1 (3D coordinates assigned)
CC(=O)Nc1ccc(N2C(=O)c3ccccc3C2=O)cc1 (nonaromatic ring conformer: 74.11154291590165 kcal/mol)

>  <smiles>  (92) 
CC(=O)Nc1ccc(N2C(=O)c3ccccc3C2=O)cc1

>  <score_type>  (92) 
oracle

>  <origin>  (92) 
adg

>  <m_score__min__energy>  (92) 
-7.3799999999999999

>  <m_primary>  (92) 
energy

$$$$
