0:0
     RDKit          3D

 35 36  0  0  0  0  0  0  0  0999 V2000
   60.0620   31.5990   50.3210 N   0  0  0  0  0  0  0  0  0  0  0  0
   59.5510   29.9850   49.9750 S   0  0  0  0  0  0  0  0  0  0  0  0
   60.4570   29.0130   50.6760 O   0  0  0  0  0  0  0  0  0  0  0  0
   58.1490   29.7830   50.4750 O   0  0  0  0  0  0  0  0  0  0  0  0
   59.6060   29.7090   48.2350 C   0  0  0  0  0  0  0  0  0  0  0  0
   60.8000   29.8990   47.5270 C   0  0  0  0  0  0  0  0  0  0  0  0
   60.8410   29.6720   46.1500 C   0  0  0  0  0  0  0  0  0  0  0  0
   59.6880   29.2700   45.4710 C   0  0  0  0  0  0  0  0  0  0  0  0
   58.4790   29.1080   46.1590 C   0  0  0  0  0  0  0  0  0  0  0  0
   57.3230   28.6820   45.4250 N   0  0  0  0  0  0  0  0  0  0  0  0
   56.3820   29.5270   44.7500 C   0  0  0  0  0  0  0  0  0  0  0  0
   55.1430   29.3270   44.8530 O   0  0  0  0  0  0  0  0  0  0  0  0
   56.8740   30.7200   43.9940 C   0  0  0  0  0  0  0  0  0  0  0  0
   56.7610   31.8960   44.7940 O   0  0  0  0  0  0  0  0  0  0  0  0
   57.7510   32.8860   44.8540 C   0  0  0  0  0  0  0  0  0  0  0  0
   58.1000   33.4970   43.8080 O   0  0  0  0  0  0  0  0  0  0  0  0
   58.3820   33.2140   46.1510 C   0  0  0  0  0  0  0  0  0  0  0  0
   59.2890   34.2820   46.2630 C   0  0  0  0  0  0  0  0  0  0  0  0
   59.8760   34.5770   47.4960 C   0  0  0  0  0  0  0  0  0  0  0  0
   59.5520   33.8000   48.6110 C   0  0  0  0  0  0  0  0  0  0  0  0
   60.0720   34.0510   49.7300 O   0  0  0  0  0  0  0  0  0  0  0  0
   58.6740   32.7690   48.4890 N   0  0  0  0  0  0  0  0  0  0  0  0
   58.0890   32.4630   47.3000 C   0  0  0  0  0  0  0  0  0  0  0  0
   58.4470   29.3130   47.5510 C   0  0  0  0  0  0  0  0  0  0  0  0
   60.4970   31.9750   49.4500 H   0  0  0  0  0  0  0  0  0  0  0  0
   59.1980   32.1620   50.4930 H   0  0  0  0  0  0  0  0  0  0  0  0
   61.7064   30.2275   48.0567 H   0  0  0  0  0  0  0  0  0  0  0  0
   61.7828   29.8099   45.5987 H   0  0  0  0  0  0  0  0  0  0  0  0
   59.7301   29.0794   44.3885 H   0  0  0  0  0  0  0  0  0  0  0  0
   57.9286   30.5669   43.7213 H   0  0  0  0  0  0  0  0  0  0  0  0
   56.2639   30.8448   43.0872 H   0  0  0  0  0  0  0  0  0  0  0  0
   59.5371   34.8866   45.3782 H   0  0  0  0  0  0  0  0  0  0  0  0
   60.5858   35.4123   47.5880 H   0  0  0  0  0  0  0  0  0  0  0  0
   57.3823   31.6223   47.2384 H   0  0  0  0  0  0  0  0  0  0  0  0
   57.5089   29.1620   48.1052 H   0  0  0  0  0  0  0  0  0  0  0  0
  1  2  1  0
  2  3  2  0
  2  4  2  0
  2  5  1  0
  5  6  2  0
  6  7  1  0
  7  8  2  0
  8  9  1  0
  9 10  1  0
 10 11  1  0
 11 12  2  0
 11 13  1  0
 13 14  1  0
 14 15  1  0
 15 16  2  0
 15 17  1  0
 17 18  1  0
 18 19  2  0
 19 20  1  0
 20 21  2  0
 20 22  1  0
 22 23  1  0
  9 24  2  0
 24  5  1  0
 23 17  2  0
  1 25  1  0
  1 26  1  0
  6 27  1  0
  7 28  1  0
  8 29  1  0
 13 30  1  0
 13 31  1  0
 18 32  1  0
 19 33  1  0
 23 34  1  0
 24 35  1  0
M  CHG  2  10  -1  22  -1
M  END
>  <UniqueID>  (1) 
1

>  <SMILES>  (1) 
NS(=O)(=O)c1cccc([N-]C(=O)COC(=O)c2ccc(=O)[n-]c2)c1

>  <Energy>  (1) 
36.384056235884835

>  <Genealogy>  (1) 
NS(=O)(=O)c1cccc([N-]C(=O)COC(=O)c2ccc(=O)[n-]c2)c1 (protonated)
NS(=O)(=O)c1cccc([N-]C(=O)COC(=O)c2ccc(=O)[n-]c2)c1 (3D coordinates assigned)
NS(=O)(=O)c1cccc([N-]C(=O)COC(=O)c2ccc(=O)[n-]c2)c1 (optimized conformer: 36.384056235884835 kcal/mol)

>  <smiles>  (1) 
NS(=O)(=O)c1cccc(NC(=O)COC(=O)c2ccc(=O)[nH]c2)c1

>  <score_type>  (1) 
oracle

>  <origin>  (1) 
adg

>  <m_score__min__energy>  (1) 
-10.76

>  <m_primary>  (1) 
energy

$$$$
1:0
     RDKit          3D

 30 31  0  0  0  0  0  0  0  0999 V2000
   58.4010   33.3180   44.1380 C   0  0  0  0  0  0  0  0  0  0  0  0
   57.9880   32.0600   44.2550 C   0  0  0  0  0  0  0  0  0  0  0  0
   57.4010   31.3010   43.2550 C   0  0  0  0  0  0  0  0  0  0  0  0
   57.0780   30.0020   43.6710 C   0  0  0  0  0  0  0  0  0  0  0  0
   57.3820   29.7260   45.0130 C   0  0  0  0  0  0  0  0  0  0  0  0
   57.2440   28.5060   45.6030 C   0  0  0  0  0  0  0  0  0  0  0  0
   55.9880   27.9780   45.6160 N   0  0  0  0  0  0  0  0  0  0  0  0
   55.7010   26.7090   45.9910 C   0  0  0  0  0  0  0  0  0  0  0  0
   54.3730   26.2990   45.9910 O   0  0  0  0  0  0  0  0  0  0  0  0
   56.7330   25.8330   46.3590 C   0  0  0  0  0  0  0  0  0  0  0  0
   56.4370   24.4140   46.7010 C   0  0  0  0  0  0  0  0  0  0  0  0
   56.0820   24.1090   47.8730 O   0  0  0  0  0  0  0  0  0  0  0  0
   56.5630   23.3920   45.7010 N   0  0  0  0  0  0  0  0  0  0  0  0
   57.2700   23.5160   44.6200 C   0  0  0  0  0  0  0  0  0  0  0  0
   56.6430   24.0650   43.3850 C   0  0  0  0  0  0  0  0  0  0  0  0
   58.0460   26.3430   46.4260 C   0  0  0  0  0  0  0  0  0  0  0  0
   58.9910   25.5770   46.7700 O   0  0  0  0  0  0  0  0  0  0  0  0
   58.3120   27.7070   46.1270 C   0  0  0  0  0  0  0  0  0  0  0  0
   59.5150   28.2150   46.4660 C   0  0  0  0  0  0  0  0  0  0  0  0
   58.1050   31.1260   45.6410 S   0  0  0  0  0  0  0  0  0  0  0  0
   58.8557   33.8299   44.9989 H   0  0  0  0  0  0  0  0  0  0  0  0
   58.2880   33.8471   43.1803 H   0  0  0  0  0  0  0  0  0  0  0  0
   57.2085   31.6788   42.2400 H   0  0  0  0  0  0  0  0  0  0  0  0
   56.6229   29.2588   42.9997 H   0  0  0  0  0  0  0  0  0  0  0  0
   58.3285   23.2168   44.6155 H   0  0  0  0  0  0  0  0  0  0  0  0
   55.8419   24.7664   43.6612 H   0  0  0  0  0  0  0  0  0  0  0  0
   57.4037   24.5927   42.7910 H   0  0  0  0  0  0  0  0  0  0  0  0
   56.2204   23.2412   42.7910 H   0  0  0  0  0  0  0  0  0  0  0  0
   59.7491   29.2673   46.2471 H   0  0  0  0  0  0  0  0  0  0  0  0
   60.2617   27.5769   46.9613 H   0  0  0  0  0  0  0  0  0  0  0  0
  1  2  2  0
  2  3  1  0
  3  4  2  0
  4  5  1  0
  5  6  2  3
  6  7  1  0
  7  8  1  0
  8  9  1  0
  8 10  2  0
 10 11  1  0
 11 12  2  0
 11 13  1  0
 13 14  2  3
 14 15  1  0
 10 16  1  0
 16 17  2  0
 16 18  1  0
 18 19  2  0
  5 20  1  0
 20  2  1  0
 18  6  1  0
  1 21  1  0
  1 22  1  0
  3 23  1  0
  4 24  1  0
 14 25  1  0
 15 26  1  0
 15 27  1  0
 15 28  1  0
 19 29  1  0
 19 30  1  0
M  CHG  2   7  -1   9  -1
M  END
>  <UniqueID>  (2) 
2

>  <SMILES>  (2) 
C=c1ccc(=c2[n-]c([O-])c(C(=O)N=CC)c(=O)c2=C)s1

>  <Energy>  (2) 
79.72133839862698

>  <Genealogy>  (2) 
C=c1ccc(=c2[n-]c([O-])c(C(=O)N=CC)c(=O)c2=C)s1 (protonated)
C=c1ccc(=c2[n-]c([O-])c(C(=O)N=CC)c(=O)c2=C)s1 (3D coordinates assigned)
C=c1ccc(=c2[n-]c([O-])c(C(=O)N=CC)c(=O)c2=C)s1 (optimized conformer: 79.72133839862698 kcal/mol)

>  <smiles>  (2) 
C=c1ccc(=c2[nH]c(O)c(C(=O)N=CC)c(=O)c2=C)s1

>  <score_type>  (2) 
oracle

>  <origin>  (2) 
adg

>  <m_score__min__energy>  (2) 
-13.039999999999999

>  <m_primary>  (2) 
energy

$$$$
2:0
     RDKit          3D

 32 33  0  0  0  0  0  0  0  0999 V2000
   61.9460   34.0300   48.9510 C   0  0  0  0  0  0  0  0  0  0  0  0
   62.4480   33.0070   47.5830 S   0  0  0  0  0  0  0  0  0  0  0  0
   62.4660   33.8450   46.3370 O   0  0  0  0  0  0  0  0  0  0  0  0
   63.8270   32.4580   47.8170 O   0  0  0  0  0  0  0  0  0  0  0  0
   61.3200   31.7080   47.3640 N   0  0  0  0  0  0  0  0  0  0  0  0
   60.0570   31.7950   46.6910 C   0  0  0  0  0  0  0  0  0  0  0  0
   59.2890   32.9730   46.6880 C   0  0  0  0  0  0  0  0  0  0  0  0
   58.0550   33.0040   46.0350 C   0  0  0  0  0  0  0  0  0  0  0  0
   57.5770   31.8700   45.3740 C   0  0  0  0  0  0  0  0  0  0  0  0
   56.3430   31.9160   44.7360 O   0  0  0  0  0  0  0  0  0  0  0  0
   58.3410   30.6950   45.3480 C   0  0  0  0  0  0  0  0  0  0  0  0
   57.8130   29.5380   44.6800 N   0  0  0  0  0  0  0  0  0  0  0  0
   56.7810   28.6670   45.1640 C   0  0  0  0  0  0  0  0  0  0  0  0
   55.5840   29.0660   45.1840 O   0  0  0  0  0  0  0  0  0  0  0  0
   57.1330   27.3220   45.6930 C   0  0  0  0  0  0  0  0  0  0  0  0
   58.4880   26.9470   45.7960 C   0  0  0  0  0  0  0  0  0  0  0  0
   58.8450   25.6880   46.2890 C   0  0  0  0  0  0  0  0  0  0  0  0
   60.1860   25.3360   46.3860 O   0  0  0  0  0  0  0  0  0  0  0  0
   57.8570   24.7860   46.6850 C   0  0  0  0  0  0  0  0  0  0  0  0
   56.5110   25.1380   46.5870 C   0  0  0  0  0  0  0  0  0  0  0  0
   56.1420   26.3950   46.0960 C   0  0  0  0  0  0  0  0  0  0  0  0
   54.7880   26.7040   46.0130 O   0  0  0  0  0  0  0  0  0  0  0  0
   59.5730   30.6590   46.0280 C   0  0  0  0  0  0  0  0  0  0  0  0
   62.1937   33.5253   49.8965 H   0  0  0  0  0  0  0  0  0  0  0  0
   62.4734   34.9940   48.9008 H   0  0  0  0  0  0  0  0  0  0  0  0
   60.8608   34.2027   48.9008 H   0  0  0  0  0  0  0  0  0  0  0  0
   59.6611   33.8720   47.2011 H   0  0  0  0  0  0  0  0  0  0  0  0
   57.4560   33.9266   46.0412 H   0  0  0  0  0  0  0  0  0  0  0  0
   59.2729   27.6523   45.4853 H   0  0  0  0  0  0  0  0  0  0  0  0
   58.1397   23.7969   47.0746 H   0  0  0  0  0  0  0  0  0  0  0  0
   55.7349   24.4230   46.8976 H   0  0  0  0  0  0  0  0  0  0  0  0
   60.1618   29.7299   46.0391 H   0  0  0  0  0  0  0  0  0  0  0  0
  1  2  1  0
  2  3  2  0
  2  4  2  0
  2  5  1  0
  5  6  1  0
  6  7  2  0
  7  8  1  0
  8  9  2  0
  9 10  1  0
  9 11  1  0
 11 12  1  0
 12 13  1  0
 13 14  2  0
 13 15  1  0
 15 16  2  0
 16 17  1  0
 17 18  1  0
 17 19  2  0
 19 20  1  0
 20 21  2  0
 21 22  1  0
 11 23  2  0
 23  6  1  0
 21 15  1  0
  1 24  1  0
  1 25  1  0
  1 26  1  0
  7 27  1  0
  8 28  1  0
 16 29  1  0
 19 30  1  0
 20 31  1  0
 23 32  1  0
M  CHG  5   5  -1  10  -1  12  -1  18  -1  22  -1
M  END
>  <UniqueID>  (3) 
3

>  <SMILES>  (3) 
CS(=O)(=O)[N-]c1ccc([O-])c([N-]C(=O)c2cc([O-])ccc2[O-])c1

>  <Energy>  (3) 
38.4323753626509

>  <Genealogy>  (3) 
CS(=O)(=O)[N-]c1ccc([O-])c([N-]C(=O)c2cc([O-])ccc2[O-])c1 (protonated)
CS(=O)(=O)[N-]c1ccc([O-])c([N-]C(=O)c2cc([O-])ccc2[O-])c1 (3D coordinates assigned)
CS(=O)(=O)[N-]c1ccc([O-])c([N-]C(=O)c2cc([O-])ccc2[O-])c1 (optimized conformer: 38.4323753626509 kcal/mol)

>  <smiles>  (3) 
CS(=O)(=O)Nc1ccc(O)c(NC(=O)c2cc(O)ccc2O)c1

>  <score_type>  (3) 
oracle

>  <origin>  (3) 
adg

>  <m_score__min__energy>  (3) 
-17.699999999999999

>  <m_primary>  (3) 
energy

$$$$
3:0
     RDKit          3D

 59 62  0  0  0  0  0  0  0  0999 V2000
   60.4300   28.4320   48.0750 C   0  0  0  0  0  0  0  0  0  0  0  0
   59.6850   27.7960   46.9380 C   0  0  0  0  0  0  0  0  0  0  0  0
   59.4310   26.4170   46.9490 C   0  0  0  0  0  0  0  0  0  0  0  0
   58.7020   25.8230   45.9110 C   0  0  0  0  0  0  0  0  0  0  0  0
   58.4710   24.3400   45.9030 C   0  0  0  0  0  0  0  0  0  0  0  0
   58.2410   26.6120   44.8460 C   0  0  0  0  0  0  0  0  0  0  0  0
   58.4820   27.9980   44.8260 C   0  0  0  0  0  0  0  0  0  0  0  0
   58.0320   28.8330   43.7430 N   0  0  0  0  0  0  0  0  0  0  0  0
   56.9020   30.1390   43.9260 S   0  0  0  0  0  0  0  0  0  0  0  0
   55.8420   29.7360   44.9120 O   0  0  0  0  0  0  0  0  0  0  0  0
   56.2580   30.4120   42.5960 O   0  0  0  0  0  0  0  0  0  0  0  0
   57.7150   31.5850   44.5310 C   0  0  0  0  0  0  0  0  0  0  0  0
   58.1790   31.6230   45.8530 C   0  0  0  0  0  0  0  0  0  0  0  0
   58.8550   32.7530   46.3420 C   0  0  0  0  0  0  0  0  0  0  0  0
   59.3840   32.7710   47.7220 C   0  0  0  0  0  0  0  0  0  0  0  0
   58.7300   32.2100   48.6430 O   0  0  0  0  0  0  0  0  0  0  0  0
   60.6280   33.4220   48.0350 N   0  0  0  0  0  0  0  0  0  0  0  0
   61.8240   33.1330   47.2250 C   0  0  0  0  0  0  0  0  0  0  0  0
   63.0940   33.6650   47.8940 C   0  0  0  0  0  0  0  0  0  0  0  0
   63.0710   33.3420   49.3270 N   0  0  0  0  0  0  0  0  0  0  0  0
   64.1610   32.6240   49.9350 C   0  0  0  0  0  0  0  0  0  0  0  0
   63.9200   31.4470   50.6650 C   0  0  0  0  0  0  0  0  0  0  0  0
   64.9820   30.7430   51.2410 C   0  0  0  0  0  0  0  0  0  0  0  0
   66.2920   31.2050   51.0920 C   0  0  0  0  0  0  0  0  0  0  0  0
   66.5430   32.3710   50.3650 C   0  0  0  0  0  0  0  0  0  0  0  0
   65.4830   33.0770   49.7860 C   0  0  0  0  0  0  0  0  0  0  0  0
   61.8870   33.6820   50.1330 C   0  0  0  0  0  0  0  0  0  0  0  0
   60.7490   34.2260   49.2600 C   0  0  0  0  0  0  0  0  0  0  0  0
   59.0660   33.8480   45.4870 C   0  0  0  0  0  0  0  0  0  0  0  0
   58.5870   33.8210   44.1760 C   0  0  0  0  0  0  0  0  0  0  0  0
   57.9090   32.6960   43.6970 C   0  0  0  0  0  0  0  0  0  0  0  0
   57.4500   32.6940   42.4200 F   0  0  0  0  0  0  0  0  0  0  0  0
   59.1920   28.5810   45.8870 C   0  0  0  0  0  0  0  0  0  0  0  0
   60.0144   28.0772   49.0297 H   0  0  0  0  0  0  0  0  0  0  0  0
   61.4940   28.1594   48.0143 H   0  0  0  0  0  0  0  0  0  0  0  0
   60.3277   29.5255   48.0143 H   0  0  0  0  0  0  0  0  0  0  0  0
   59.8064   25.7983   47.7774 H   0  0  0  0  0  0  0  0  0  0  0  0
   58.4137   23.9722   46.9381 H   0  0  0  0  0  0  0  0  0  0  0  0
   57.5275   24.1187   45.3825 H   0  0  0  0  0  0  0  0  0  0  0  0
   59.3024   23.8422   45.3825 H   0  0  0  0  0  0  0  0  0  0  0  0
   57.6865   26.1429   44.0199 H   0  0  0  0  0  0  0  0  0  0  0  0
   58.3360   28.6070   42.7690 H   0  0  0  0  0  0  0  0  0  0  0  0
   58.0122   30.7597   46.5139 H   0  0  0  0  0  0  0  0  0  0  0  0
   61.9157   32.0442   47.0980 H   0  0  0  0  0  0  0  0  0  0  0  0
   61.7111   33.6316   46.2510 H   0  0  0  0  0  0  0  0  0  0  0  0
   63.9751   33.1995   47.4283 H   0  0  0  0  0  0  0  0  0  0  0  0
   63.1427   34.7566   47.7672 H   0  0  0  0  0  0  0  0  0  0  0  0
   62.8906   31.0779   50.7837 H   0  0  0  0  0  0  0  0  0  0  0  0
   64.7856   29.8238   51.8124 H   0  0  0  0  0  0  0  0  0  0  0  0
   67.1258   30.6505   51.5472 H   0  0  0  0  0  0  0  0  0  0  0  0
   67.5746   32.7343   50.2477 H   0  0  0  0  0  0  0  0  0  0  0  0
   65.6856   33.9923   49.2106 H   0  0  0  0  0  0  0  0  0  0  0  0
   61.5374   32.7781   50.6533 H   0  0  0  0  0  0  0  0  0  0  0  0
   62.1727   34.4630   50.8530 H   0  0  0  0  0  0  0  0  0  0  0  0
   59.8044   34.1789   49.8216 H   0  0  0  0  0  0  0  0  0  0  0  0
   60.9690   35.2688   48.9878 H   0  0  0  0  0  0  0  0  0  0  0  0
   59.6112   34.7307   45.8525 H   0  0  0  0  0  0  0  0  0  0  0  0
   58.7436   34.6880   43.5174 H   0  0  0  0  0  0  0  0  0  0  0  0
   59.3636   29.6675   45.8937 H   0  0  0  0  0  0  0  0  0  0  0  0
  1  2  1  0
  2  3  2  0
  3  4  1  0
  4  5  1  0
  4  6  2  0
  6  7  1  0
  7  8  1  0
  8  9  1  0
  9 10  2  0
  9 11  2  0
  9 12  1  0
 12 13  2  0
 13 14  1  0
 14 15  1  0
 15 16  2  0
 15 17  1  0
 17 18  1  0
 18 19  1  0
 19 20  1  0
 20 21  1  0
 21 22  2  0
 22 23  1  0
 23 24  2  0
 24 25  1  0
 25 26  2  0
 20 27  1  0
 27 28  1  0
 14 29  2  0
 29 30  1  0
 30 31  2  0
 31 32  1  0
  7 33  2  0
 33  2  1  0
 31 12  1  0
 28 17  1  0
 26 21  1  0
  1 34  1  0
  1 35  1  0
  1 36  1  0
  3 37  1  0
  5 38  1  0
  5 39  1  0
  5 40  1  0
  6 41  1  0
  8 42  1  0
 13 43  1  0
 18 44  1  0
 18 45  1  0
 19 46  1  0
 19 47  1  0
 22 48  1  0
 23 49  1  0
 24 50  1  0
 25 51  1  0
 26 52  1  0
 27 53  1  0
 27 54  1  0
 28 55  1  0
 28 56  1  0
 29 57  1  0
 30 58  1  0
 33 59  1  0
M  END
>  <UniqueID>  (4) 
4

>  <SMILES>  (4) 
Cc1cc(C)cc(NS(=O)(=O)c2cc(C(=O)N3CCN(c4ccccc4)CC3)ccc2F)c1

>  <Energy>  (4) 
73.37292458029818

>  <Genealogy>  (4) 
Cc1cc(C)cc(NS(=O)(=O)c2cc(C(=O)N3CCN(c4ccccc4)CC3)ccc2F)c1 (3D coordinates assigned)
Cc1cc(C)cc(NS(=O)(=O)c2cc(C(=O)N3CCN(c4ccccc4)CC3)ccc2F)c1 (nonaromatic ring conformer: 73.37292458029818 kcal/mol)

>  <smiles>  (4) 
Cc1cc(C)cc(NS(=O)(=O)c2cc(C(=O)N3CCN(c4ccccc4)CC3)ccc2F)c1

>  <score_type>  (4) 
oracle

>  <origin>  (4) 
adg

>  <m_score__min__energy>  (4) 
-10.470000000000001

>  <m_primary>  (4) 
energy

$$$$
4:0
     RDKit          3D

 53 55  0  0  0  0  0  0  0  0999 V2000
   58.6470   27.8870   47.6420 C   0  0  0  0  0  0  0  0  0  0  0  0
   57.5150   27.4800   46.8800 O   0  0  0  0  0  0  0  0  0  0  0  0
   57.5800   26.9070   45.6000 C   0  0  0  0  0  0  0  0  0  0  0  0
   57.2000   25.5720   45.3590 C   0  0  0  0  0  0  0  0  0  0  0  0
   57.2880   25.0350   44.0710 C   0  0  0  0  0  0  0  0  0  0  0  0
   57.7590   25.8180   43.0150 C   0  0  0  0  0  0  0  0  0  0  0  0
   58.1390   27.1400   43.2430 C   0  0  0  0  0  0  0  0  0  0  0  0
   58.0480   27.6930   44.5290 C   0  0  0  0  0  0  0  0  0  0  0  0
   58.3870   29.0690   44.7400 N   0  0  0  0  0  0  0  0  0  0  0  0
   59.7890   29.4590   44.8620 C   0  0  0  0  0  0  0  0  0  0  0  0
   57.2020   30.2760   44.3410 S   0  0  0  0  0  0  0  0  0  0  0  0
   57.0050   30.3100   42.8510 O   0  0  0  0  0  0  0  0  0  0  0  0
   55.8870   29.9500   44.9930 O   0  0  0  0  0  0  0  0  0  0  0  0
   57.7570   31.8380   44.9320 C   0  0  0  0  0  0  0  0  0  0  0  0
   57.8030   32.9500   44.0830 C   0  0  0  0  0  0  0  0  0  0  0  0
   58.2870   34.1720   44.5560 C   0  0  0  0  0  0  0  0  0  0  0  0
   58.7340   34.2880   45.8760 C   0  0  0  0  0  0  0  0  0  0  0  0
   58.7040   33.1770   46.7390 C   0  0  0  0  0  0  0  0  0  0  0  0
   59.1950   33.2880   48.1340 C   0  0  0  0  0  0  0  0  0  0  0  0
   59.7070   34.3730   48.5300 O   0  0  0  0  0  0  0  0  0  0  0  0
   59.0000   32.1970   49.0510 N   0  0  0  0  0  0  0  0  0  0  0  0
   58.5700   32.2230   50.2850 C   0  0  0  0  0  0  0  0  0  0  0  0
   57.7750   31.1960   50.8360 C   0  0  0  0  0  0  0  0  0  0  0  0
   57.3650   31.2750   52.1730 C   0  0  0  0  0  0  0  0  0  0  0  0
   56.4900   30.2070   52.7610 C   0  0  0  0  0  0  0  0  0  0  0  0
   57.7090   32.3970   52.9330 C   0  0  0  0  0  0  0  0  0  0  0  0
   58.4620   33.4220   52.3520 C   0  0  0  0  0  0  0  0  0  0  0  0
   58.8640   34.6140   53.1680 C   0  0  0  0  0  0  0  0  0  0  0  0
   58.8790   33.3050   51.0570 N   0  0  0  0  0  0  0  0  0  0  0  0
   58.2070   31.9520   46.2550 C   0  0  0  0  0  0  0  0  0  0  0  0
   58.4162   27.8040   48.7143 H   0  0  0  0  0  0  0  0  0  0  0  0
   59.5035   27.2405   47.4002 H   0  0  0  0  0  0  0  0  0  0  0  0
   58.8957   28.9309   47.4002 H   0  0  0  0  0  0  0  0  0  0  0  0
   56.8324   24.9492   46.1879 H   0  0  0  0  0  0  0  0  0  0  0  0
   56.9855   23.9932   43.8891 H   0  0  0  0  0  0  0  0  0  0  0  0
   57.8302   25.3919   42.0034 H   0  0  0  0  0  0  0  0  0  0  0  0
   58.5124   27.7530   42.4095 H   0  0  0  0  0  0  0  0  0  0  0  0
   60.0575   29.5337   45.9261 H   0  0  0  0  0  0  0  0  0  0  0  0
   60.4235   28.7032   44.3759 H   0  0  0  0  0  0  0  0  0  0  0  0
   59.9421   30.4338   44.3759 H   0  0  0  0  0  0  0  0  0  0  0  0
   57.4577   32.8615   43.0424 H   0  0  0  0  0  0  0  0  0  0  0  0
   58.3166   35.0456   43.8882 H   0  0  0  0  0  0  0  0  0  0  0  0
   59.1116   35.2541   46.2421 H   0  0  0  0  0  0  0  0  0  0  0  0
   57.4781   30.3360   50.2177 H   0  0  0  0  0  0  0  0  0  0  0  0
   56.5337   30.2604   53.8588 H   0  0  0  0  0  0  0  0  0  0  0  0
   55.4527   30.3581   52.4276 H   0  0  0  0  0  0  0  0  0  0  0  0
   56.8422   29.2197   52.4276 H   0  0  0  0  0  0  0  0  0  0  0  0
   57.3889   32.4730   53.9826 H   0  0  0  0  0  0  0  0  0  0  0  0
   58.7819   34.3707   54.2376 H   0  0  0  0  0  0  0  0  0  0  0  0
   59.9035   34.8859   52.9325 H   0  0  0  0  0  0  0  0  0  0  0  0
   58.2014   35.4599   52.9325 H   0  0  0  0  0  0  0  0  0  0  0  0
   59.4640   34.0710   50.6450 H   0  0  0  0  0  0  0  0  0  0  0  0
   58.1714   31.0768   46.9204 H   0  0  0  0  0  0  0  0  0  0  0  0
  1  2  1  0
  2  3  1  0
  3  4  2  0
  4  5  1  0
  5  6  2  0
  6  7  1  0
  7  8  2  0
  8  9  1  0
  9 10  1  0
  9 11  1  0
 11 12  2  0
 11 13  2  0
 11 14  1  0
 14 15  2  0
 15 16  1  0
 16 17  2  0
 17 18  1  0
 18 19  1  0
 19 20  2  0
 19 21  1  0
 21 22  2  3
 22 23  1  0
 23 24  2  0
 24 25  1  0
 24 26  1  0
 26 27  2  0
 27 28  1  0
 27 29  1  0
 18 30  2  0
  8  3  1  0
 30 14  1  0
 29 22  1  0
  1 31  1  0
  1 32  1  0
  1 33  1  0
  4 34  1  0
  5 35  1  0
  6 36  1  0
  7 37  1  0
 10 38  1  0
 10 39  1  0
 10 40  1  0
 15 41  1  0
 16 42  1  0
 17 43  1  0
 23 44  1  0
 25 45  1  0
 25 46  1  0
 25 47  1  0
 26 48  1  0
 28 49  1  0
 28 50  1  0
 28 51  1  0
 29 52  1  0
 30 53  1  0
M  END
>  <UniqueID>  (5) 
5

>  <SMILES>  (5) 
COc1ccccc1N(C)S(=O)(=O)c1cccc(C(=O)N=c2cc(C)cc(C)[nH]2)c1

>  <Energy>  (5) 
67.20249078155366

>  <Genealogy>  (5) 
COc1ccccc1N(C)S(=O)(=O)c1cccc(C(=O)N=c2cc(C)cc(C)[nH]2)c1 (3D coordinates assigned)
COc1ccccc1N(C)S(=O)(=O)c1cccc(C(=O)N=c2cc(C)cc(C)[nH]2)c1 (optimized conformer: 67.20249078155366 kcal/mol)

>  <smiles>  (5) 
COc1ccccc1N(C)S(=O)(=O)c1cccc(C(=O)N=c2cc(C)cc(C)[nH]2)c1

>  <score_type>  (5) 
oracle

>  <origin>  (5) 
adg

>  <m_score__min__energy>  (5) 
-9.4299999999999997

>  <m_primary>  (5) 
energy

$$$$
5:0
     RDKit          3D

 54 57  0  0  0  0  0  0  0  0999 V2000
   57.5220   28.1110   46.4000 O   0  0  0  0  0  0  0  0  0  0  0  0
   58.1410   29.1420   46.7850 C   0  0  0  0  0  0  0  0  0  0  0  0
   59.3480   28.9970   47.6800 C   0  0  0  0  0  0  0  0  0  0  0  0
   59.5530   30.2260   48.5390 C   0  0  0  0  0  0  0  0  0  0  0  0
   58.9360   30.2950   49.7930 C   0  0  0  0  0  0  0  0  0  0  0  0
   59.1360   31.4030   50.6070 C   0  0  0  0  0  0  0  0  0  0  0  0
   59.9520   32.4460   50.1680 C   0  0  0  0  0  0  0  0  0  0  0  0
   60.5560   32.3960   48.9410 N   0  0  0  0  0  0  0  0  0  0  0  0
   61.3740   33.4790   48.5250 N   0  0  0  0  0  0  0  0  0  0  0  0
   62.6330   33.4350   49.2280 C   0  0  0  0  0  0  0  0  0  0  0  0
   62.8280   34.1930   50.3960 C   0  0  0  0  0  0  0  0  0  0  0  0
   64.0500   34.1540   51.0680 C   0  0  0  0  0  0  0  0  0  0  0  0
   65.0920   33.3590   50.5770 C   0  0  0  0  0  0  0  0  0  0  0  0
   64.9070   32.5970   49.4210 C   0  0  0  0  0  0  0  0  0  0  0  0
   63.6830   32.6320   48.7510 C   0  0  0  0  0  0  0  0  0  0  0  0
   60.3710   31.3040   48.1250 C   0  0  0  0  0  0  0  0  0  0  0  0
   60.9360   31.2610   46.9960 O   0  0  0  0  0  0  0  0  0  0  0  0
   57.7700   30.4090   46.2210 N   0  0  0  0  0  0  0  0  0  0  0  0
   57.4610   30.6770   44.8440 C   0  0  0  0  0  0  0  0  0  0  0  0
   57.0330   29.6520   43.9820 C   0  0  0  0  0  0  0  0  0  0  0  0
   56.7700   29.9220   42.6340 C   0  0  0  0  0  0  0  0  0  0  0  0
   56.9580   31.2100   42.1290 C   0  0  0  0  0  0  0  0  0  0  0  0
   57.4210   32.2270   42.9670 C   0  0  0  0  0  0  0  0  0  0  0  0
   57.6840   31.9630   44.3210 C   0  0  0  0  0  0  0  0  0  0  0  0
   58.1800   33.0120   45.1620 N   0  0  0  0  0  0  0  0  0  0  0  0
   57.8230   32.9720   46.5820 C   0  0  0  0  0  0  0  0  0  0  0  0
   58.3390   34.2020   47.3280 C   0  0  0  0  0  0  0  0  0  0  0  0
   59.6830   34.4580   46.9710 O   0  0  0  0  0  0  0  0  0  0  0  0
   59.7130   34.9330   45.6410 C   0  0  0  0  0  0  0  0  0  0  0  0
   59.2630   33.8550   44.6370 C   0  0  0  0  0  0  0  0  0  0  0  0
   59.2053   28.1239   48.3337 H   0  0  0  0  0  0  0  0  0  0  0  0
   60.2360   28.8690   47.0435 H   0  0  0  0  0  0  0  0  0  0  0  0
   58.2920   29.4712   50.1346 H   0  0  0  0  0  0  0  0  0  0  0  0
   58.6529   31.4577   51.5937 H   0  0  0  0  0  0  0  0  0  0  0  0
   60.1120   33.3199   50.8166 H   0  0  0  0  0  0  0  0  0  0  0  0
   60.9100   34.3950   48.7240 H   0  0  0  0  0  0  0  0  0  0  0  0
   61.5110   33.4250   47.4880 H   0  0  0  0  0  0  0  0  0  0  0  0
   62.0117   34.8209   50.7825 H   0  0  0  0  0  0  0  0  0  0  0  0
   64.1944   34.7475   51.9828 H   0  0  0  0  0  0  0  0  0  0  0  0
   66.0582   33.3342   51.1023 H   0  0  0  0  0  0  0  0  0  0  0  0
   65.7257   31.9695   49.0388 H   0  0  0  0  0  0  0  0  0  0  0  0
   63.5393   32.0270   47.8436 H   0  0  0  0  0  0  0  0  0  0  0  0
   56.9039   28.6307   44.3697 H   0  0  0  0  0  0  0  0  0  0  0  0
   56.4148   29.1186   41.9718 H   0  0  0  0  0  0  0  0  0  0  0  0
   56.7416   31.4237   41.0719 H   0  0  0  0  0  0  0  0  0  0  0  0
   57.5802   33.2384   42.5649 H   0  0  0  0  0  0  0  0  0  0  0  0
   56.7275   32.9328   46.6735 H   0  0  0  0  0  0  0  0  0  0  0  0
   58.2872   32.0800   47.0279 H   0  0  0  0  0  0  0  0  0  0  0  0
   57.7205   35.0729   47.0653 H   0  0  0  0  0  0  0  0  0  0  0  0
   58.2830   34.0163   48.4108 H   0  0  0  0  0  0  0  0  0  0  0  0
   59.0409   35.7998   45.5575 H   0  0  0  0  0  0  0  0  0  0  0  0
   60.7498   35.2113   45.4012 H   0  0  0  0  0  0  0  0  0  0  0  0
   58.9106   34.3516   43.7209 H   0  0  0  0  0  0  0  0  0  0  0  0
   60.1265   33.2032   44.4381 H   0  0  0  0  0  0  0  0  0  0  0  0
  1  2  2  0
  2  3  1  0
  3  4  1  0
  4  5  2  0
  5  6  1  0
  6  7  2  0
  7  8  1  0
  8  9  1  0
  9 10  1  0
 10 11  2  0
 11 12  1  0
 12 13  2  0
 13 14  1  0
 14 15  2  0
  8 16  1  0
 16 17  2  0
  2 18  1  0
 18 19  1  0
 19 20  2  0
 20 21  1  0
 21 22  2  0
 22 23  1  0
 23 24  2  0
 24 25  1  0
 25 26  1  0
 26 27  1  0
 27 28  1  0
 28 29  1  0
 29 30  1  0
 16  4  1  0
 24 19  1  0
 30 25  1  0
 15 10  1  0
  3 31  1  0
  3 32  1  0
  5 33  1  0
  6 34  1  0
  7 35  1  0
  9 36  1  0
  9 37  1  0
 11 38  1  0
 12 39  1  0
 13 40  1  0
 14 41  1  0
 15 42  1  0
 20 43  1  0
 21 44  1  0
 22 45  1  0
 23 46  1  0
 26 47  1  0
 26 48  1  0
 27 49  1  0
 27 50  1  0
 29 51  1  0
 29 52  1  0
 30 53  1  0
 30 54  1  0
M  CHG  2   9   1  18  -1
M  END
>  <UniqueID>  (6) 
6

>  <SMILES>  (6) 
O=C(Cc1cccn([NH2+]c2ccccc2)c1=O)[N-]c1ccccc1N1CCOCC1

>  <Energy>  (6) 
78.0231893021715

>  <Genealogy>  (6) 
O=C(Cc1cccn([NH2+]c2ccccc2)c1=O)[N-]c1ccccc1N1CCOCC1 (protonated)
O=C(Cc1cccn([NH2+]c2ccccc2)c1=O)[N-]c1ccccc1N1CCOCC1 (3D coordinates assigned)
O=C(Cc1cccn([NH2+]c2ccccc2)c1=O)[N-]c1ccccc1N1CCOCC1 (nonaromatic ring conformer: 78.0231893021715 kcal/mol)

>  <smiles>  (6) 
O=C(Cc1cccn(Nc2ccccc2)c1=O)Nc1ccccc1N1CCOCC1

>  <score_type>  (6) 
oracle

>  <origin>  (6) 
adg

>  <m_score__min__energy>  (6) 
-9.4199999999999999

>  <m_primary>  (6) 
energy

$$$$
6:0
     RDKit          3D

 41 43  0  0  0  0  0  0  0  0999 V2000
   57.3827   33.7691   48.0105 H   0  0  0  0  0  0  0  0  0  0  0  0
   57.9690   33.6250   47.0910 C   0  0  0  0  0  0  0  0  0  0  0  0
   59.4240   33.4370   47.2450 C   0  0  0  0  0  0  0  0  0  0  0  0
   60.1250   34.3080   47.8290 O   0  0  0  0  0  0  0  0  0  0  0  0
   57.3250   26.5160   46.9940 N   0  0  0  0  0  0  0  0  0  0  0  0
   56.8600   25.4960   46.3280 C   0  0  0  0  0  0  0  0  0  0  0  0
   58.8600   30.6560   47.5670 N   0  0  0  0  0  0  0  0  0  0  0  0
   58.5030   29.3550   47.7260 C   0  0  0  0  0  0  0  0  0  0  0  0
   57.7525   29.0822   48.4825 H   0  0  0  0  0  0  0  0  0  0  0  0
   59.0860   28.3580   46.9310 C   0  0  0  0  0  0  0  0  0  0  0  0
   58.6950   26.9310   47.0700 C   0  0  0  0  0  0  0  0  0  0  0  0
   59.5860   26.0490   47.1960 O   0  0  0  0  0  0  0  0  0  0  0  0
   60.0410   32.3330   46.5640 N   0  0  0  0  0  0  0  0  0  0  0  0
   59.7730   31.0590   46.6440 C   0  0  0  0  0  0  0  0  0  0  0  0
   60.4000   30.0870   45.8390 C   0  0  0  0  0  0  0  0  0  0  0  0
   54.7790   26.7000   45.9980 O   0  0  0  0  0  0  0  0  0  0  0  0
   60.0460   28.7430   45.9840 C   0  0  0  0  0  0  0  0  0  0  0  0
   60.5240   27.9812   45.3505 H   0  0  0  0  0  0  0  0  0  0  0  0
   55.8250   23.3470   44.8950 C   0  0  0  0  0  0  0  0  0  0  0  0
   55.4256   22.4882   44.3357 H   0  0  0  0  0  0  0  0  0  0  0  0
   57.1200   23.3100   45.4140 C   0  0  0  0  0  0  0  0  0  0  0  0
   57.7463   22.4191   45.2588 H   0  0  0  0  0  0  0  0  0  0  0  0
   57.6120   24.3700   46.1110 N   0  0  0  0  0  0  0  0  0  0  0  0
   58.5920   24.3000   46.4600 H   0  0  0  0  0  0  0  0  0  0  0  0
   55.0430   24.4840   45.0930 C   0  0  0  0  0  0  0  0  0  0  0  0
   54.0209   24.5276   44.6887 H   0  0  0  0  0  0  0  0  0  0  0  0
   55.5600   25.5660   45.8050 C   0  0  0  0  0  0  0  0  0  0  0  0
   61.1616   30.3837   45.1028 H   0  0  0  0  0  0  0  0  0  0  0  0
   57.2960   33.6360   45.9290 C   0  0  0  0  0  0  0  0  0  0  0  0
   56.6116   34.4789   45.7528 H   0  0  0  0  0  0  0  0  0  0  0  0
   57.3950   32.6170   44.8700 C   0  0  0  0  0  0  0  0  0  0  0  0
   56.8240   31.4390   44.9530 O   0  0  0  0  0  0  0  0  0  0  0  0
   57.0590   30.7870   43.8390 C   0  0  0  0  0  0  0  0  0  0  0  0
   56.5500   29.4160   43.5530 C   0  0  0  0  0  0  0  0  0  0  0  0
   56.3555   28.8921   44.5004 H   0  0  0  0  0  0  0  0  0  0  0  0
   55.6174   29.4845   42.9737 H   0  0  0  0  0  0  0  0  0  0  0  0
   57.3014   28.8594   42.9737 H   0  0  0  0  0  0  0  0  0  0  0  0
   57.7980   31.5690   42.9750 C   0  0  0  0  0  0  0  0  0  0  0  0
   58.1436   31.2999   41.9660 H   0  0  0  0  0  0  0  0  0  0  0  0
   58.0130   32.7570   43.6390 C   0  0  0  0  0  0  0  0  0  0  0  0
   58.5620   33.6350   43.2679 H   0  0  0  0  0  0  0  0  0  0  0  0
  1  2  1  0
  2  3  1  0
  3  4  2  0
  3  5  1  0
  5  6  2  0
  6  7  1  0
  7  8  1  0
  8  9  1  0
  8 10  2  0
 10 11  1  0
 11 12  2  0
 11 13  1  0
 13 14  2  0
 14 15  1  0
 15 16  1  0
 15 17  2  0
 17 18  1  0
 17 19  1  0
 19 20  1  0
 19 21  2  0
 21 22  1  0
 21 23  1  0
 23 24  1  0
 10 25  1  0
 25 26  1  0
 25 27  2  0
 27 28  1  0
  2 29  2  3
 29 30  1  0
 29 31  1  0
 31 32  1  0
 32 33  1  0
 33 34  1  0
 34 35  1  0
 34 36  1  0
 34 37  1  0
 33 38  2  0
 38 39  1  0
 38 40  1  0
 40 41  1  0
 27  6  1  0
 40 31  2  0
 23 14  1  0
M  CHG  2   7  -1  16  -1
M  END
>  <UniqueID>  (7) 
7

>  <SMILES>  (7) 
Cc1ccc(C=CC(=O)/N=c2\ccc(C(=O)/N=c3\[nH]cccc3[O-])c[n-]2)o1

>  <Energy>  (7) 
93.48168107762294

>  <Genealogy>  (7) 
Cc1ccc(C=CC(=O)N=c2ccc(C(=O)N=c3[nH]cccc3[O-])c[n-]2)o1 (protonated)
Cc1ccc(C=CC(=O)/N=c2\ccc(C(=O)/N=c3\[nH]cccc3[O-])c[n-]2)o1 (cis-trans isomerization)
Cc1ccc(C=CC(=O)/N=c2\ccc(C(=O)/N=c3\[nH]cccc3[O-])c[n-]2)o1 (3D coordinates assigned)
Cc1ccc(C=CC(=O)/N=c2\ccc(C(=O)/N=c3\[nH]cccc3[O-])c[n-]2)o1 (optimized conformer: 93.48168107762294 kcal/mol)

>  <smiles>  (7) 
Cc1ccc(C=CC(=O)N=c2ccc(C(=O)N=c3[nH]cccc3O)c[nH]2)o1

>  <score_type>  (7) 
oracle

>  <origin>  (7) 
adg

>  <m_score__min__energy>  (7) 
-13.35

>  <m_primary>  (7) 
energy

$$$$
7:0
     RDKit          3D

 39 40  0  0  0  0  0  0  0  0999 V2000
   53.9610   23.7990   44.7340 C   0  0  0  0  0  0  0  0  0  0  0  0
   54.6340   24.7210   45.6930 C   0  0  0  0  0  0  0  0  0  0  0  0
   54.3890   25.9560   45.6510 O   0  0  0  0  0  0  0  0  0  0  0  0
   55.5100   24.1890   46.6890 N   0  0  0  0  0  0  0  0  0  0  0  0
   57.1880   24.6080   46.7690 S   0  0  0  0  0  0  0  0  0  0  0  0
   57.9990   23.4900   46.1750 O   0  0  0  0  0  0  0  0  0  0  0  0
   57.5840   24.7930   48.2060 O   0  0  0  0  0  0  0  0  0  0  0  0
   57.4740   26.1100   45.8950 C   0  0  0  0  0  0  0  0  0  0  0  0
   57.7330   26.0910   44.5200 C   0  0  0  0  0  0  0  0  0  0  0  0
   57.9630   27.2850   43.8300 C   0  0  0  0  0  0  0  0  0  0  0  0
   57.9440   28.5140   44.5070 C   0  0  0  0  0  0  0  0  0  0  0  0
   58.1920   29.7240   43.7670 N   0  0  0  0  0  0  0  0  0  0  0  0
   57.3310   31.2100   44.0200 S   0  0  0  0  0  0  0  0  0  0  0  0
   55.9260   30.8950   44.4570 O   0  0  0  0  0  0  0  0  0  0  0  0
   57.2810   31.9800   42.7320 O   0  0  0  0  0  0  0  0  0  0  0  0
   58.1540   32.1850   45.2320 C   0  0  0  0  0  0  0  0  0  0  0  0
   58.2280   33.5770   45.0770 C   0  0  0  0  0  0  0  0  0  0  0  0
   58.8910   34.3560   46.0290 C   0  0  0  0  0  0  0  0  0  0  0  0
   59.4950   33.7510   47.1420 C   0  0  0  0  0  0  0  0  0  0  0  0
   60.1730   34.5910   48.1840 C   0  0  0  0  0  0  0  0  0  0  0  0
   59.3980   32.3610   47.3090 C   0  0  0  0  0  0  0  0  0  0  0  0
   58.7360   31.5830   46.3550 C   0  0  0  0  0  0  0  0  0  0  0  0
   57.6820   28.5270   45.8890 C   0  0  0  0  0  0  0  0  0  0  0  0
   57.4540   27.3320   46.5770 C   0  0  0  0  0  0  0  0  0  0  0  0
   53.4022   23.0334   45.2922 H   0  0  0  0  0  0  0  0  0  0  0  0
   53.2667   24.3712   44.1011 H   0  0  0  0  0  0  0  0  0  0  0  0
   54.7176   23.3121   44.1011 H   0  0  0  0  0  0  0  0  0  0  0  0
   57.7557   25.1330   43.9799 H   0  0  0  0  0  0  0  0  0  0  0  0
   58.1604   27.2608   42.7481 H   0  0  0  0  0  0  0  0  0  0  0  0
   58.9820   29.7490   43.0840 H   0  0  0  0  0  0  0  0  0  0  0  0
   57.7627   34.0570   44.2034 H   0  0  0  0  0  0  0  0  0  0  0  0
   58.9397   35.4480   45.9055 H   0  0  0  0  0  0  0  0  0  0  0  0
   59.8863   34.2358   49.1848 H   0  0  0  0  0  0  0  0  0  0  0  0
   61.2638   34.5124   48.0656 H   0  0  0  0  0  0  0  0  0  0  0  0
   59.8660   35.6406   48.0656 H   0  0  0  0  0  0  0  0  0  0  0  0
   59.8442   31.8824   48.1932 H   0  0  0  0  0  0  0  0  0  0  0  0
   58.6717   30.4928   46.4867 H   0  0  0  0  0  0  0  0  0  0  0  0
   57.6564   29.4836   46.4315 H   0  0  0  0  0  0  0  0  0  0  0  0
   57.2580   27.3520   47.6592 H   0  0  0  0  0  0  0  0  0  0  0  0
  1  2  1  0
  2  3  2  0
  2  4  1  0
  4  5  1  0
  5  6  2  0
  5  7  2  0
  5  8  1  0
  8  9  2  0
  9 10  1  0
 10 11  2  0
 11 12  1  0
 12 13  1  0
 13 14  2  0
 13 15  2  0
 13 16  1  0
 16 17  2  0
 17 18  1  0
 18 19  2  0
 19 20  1  0
 19 21  1  0
 21 22  2  0
 11 23  1  0
 23 24  2  0
 24  8  1  0
 22 16  1  0
  1 25  1  0
  1 26  1  0
  1 27  1  0
  9 28  1  0
 10 29  1  0
 12 30  1  0
 17 31  1  0
 18 32  1  0
 20 33  1  0
 20 34  1  0
 20 35  1  0
 21 36  1  0
 22 37  1  0
 23 38  1  0
 24 39  1  0
M  CHG  1   4  -1
M  END
>  <UniqueID>  (8) 
8

>  <SMILES>  (8) 
CC(=O)[N-]S(=O)(=O)c1ccc(NS(=O)(=O)c2ccc(C)cc2)cc1

>  <Energy>  (8) 
41.071230083034074

>  <Genealogy>  (8) 
CC(=O)[N-]S(=O)(=O)c1ccc(NS(=O)(=O)c2ccc(C)cc2)cc1 (protonated)
CC(=O)[N-]S(=O)(=O)c1ccc(NS(=O)(=O)c2ccc(C)cc2)cc1 (3D coordinates assigned)
CC(=O)[N-]S(=O)(=O)c1ccc(NS(=O)(=O)c2ccc(C)cc2)cc1 (optimized conformer: 41.071230083034074 kcal/mol)

>  <smiles>  (8) 
CC(=O)NS(=O)(=O)c1ccc(NS(=O)(=O)c2ccc(C)cc2)cc1

>  <score_type>  (8) 
oracle

>  <origin>  (8) 
adg

>  <m_score__min__energy>  (8) 
-11

>  <m_primary>  (8) 
energy

$$$$
8:0
     RDKit          3D

 46 48  0  0  0  0  0  0  0  0999 V2000
   56.6530   30.4550   42.9290 C   0  0  0  0  0  0  0  0  0  0  0  0
   57.4250   31.2800   43.9210 C   0  0  0  0  0  0  0  0  0  0  0  0
   57.7570   32.6110   43.6270 C   0  0  0  0  0  0  0  0  0  0  0  0
   58.4330   33.3970   44.5680 C   0  0  0  0  0  0  0  0  0  0  0  0
   58.7680   32.8680   45.8210 C   0  0  0  0  0  0  0  0  0  0  0  0
   59.5710   33.8920   47.0150 S   0  0  0  0  0  0  0  0  0  0  0  0
   59.3050   35.3260   46.6590 O   0  0  0  0  0  0  0  0  0  0  0  0
   61.0610   33.6570   47.0260 O   0  0  0  0  0  0  0  0  0  0  0  0
   58.9330   33.5560   48.5920 N   0  0  0  0  0  0  0  0  0  0  0  0
   59.2080   32.3690   49.3460 C   0  0  0  0  0  0  0  0  0  0  0  0
   60.4490   31.7170   49.2690 C   0  0  0  0  0  0  0  0  0  0  0  0
   60.6490   30.5130   49.9440 C   0  0  0  0  0  0  0  0  0  0  0  0
   59.6270   29.9600   50.7180 C   0  0  0  0  0  0  0  0  0  0  0  0
   58.3890   30.6180   50.8340 C   0  0  0  0  0  0  0  0  0  0  0  0
   57.3110   30.0730   51.6180 N   0  0  0  0  0  0  0  0  0  0  0  0
   56.2580   31.0300   52.6140 S   0  0  0  0  0  0  0  0  0  0  0  0
   56.5850   30.7600   54.0660 O   0  0  0  0  0  0  0  0  0  0  0  0
   56.4950   32.4980   52.3170 O   0  0  0  0  0  0  0  0  0  0  0  0
   54.5690   30.6180   52.3230 C   0  0  0  0  0  0  0  0  0  0  0  0
   54.0810   29.3310   52.6070 C   0  0  0  0  0  0  0  0  0  0  0  0
   52.7250   29.0260   52.3990 C   0  0  0  0  0  0  0  0  0  0  0  0
   51.8510   29.9980   51.9020 C   0  0  0  0  0  0  0  0  0  0  0  0
   52.3280   31.3000   51.6170 C   0  0  0  0  0  0  0  0  0  0  0  0
   51.3940   32.3410   51.1260 C   0  0  0  0  0  0  0  0  0  0  0  0
   51.3360   32.6230   49.8980 O   0  0  0  0  0  0  0  0  0  0  0  0
   50.5900   33.0480   52.0170 O   0  0  0  0  0  0  0  0  0  0  0  0
   53.6900   31.5980   51.8340 C   0  0  0  0  0  0  0  0  0  0  0  0
   58.2000   31.8300   50.1540 C   0  0  0  0  0  0  0  0  0  0  0  0
   58.4310   31.5410   46.1230 C   0  0  0  0  0  0  0  0  0  0  0  0
   57.7570   30.7510   45.1810 C   0  0  0  0  0  0  0  0  0  0  0  0
   55.9972   29.7542   43.4664 H   0  0  0  0  0  0  0  0  0  0  0  0
   56.0427   31.1173   42.2974 H   0  0  0  0  0  0  0  0  0  0  0  0
   57.3543   29.8899   42.2974 H   0  0  0  0  0  0  0  0  0  0  0  0
   57.4846   33.0397   42.6513 H   0  0  0  0  0  0  0  0  0  0  0  0
   58.7023   34.4348   44.3222 H   0  0  0  0  0  0  0  0  0  0  0  0
   61.2645   32.1562   48.6757 H   0  0  0  0  0  0  0  0  0  0  0  0
   61.6170   29.9964   49.8662 H   0  0  0  0  0  0  0  0  0  0  0  0
   59.7906   29.0054   51.2395 H   0  0  0  0  0  0  0  0  0  0  0  0
   57.2390   29.0500   51.7300 H   0  0  0  0  0  0  0  0  0  0  0  0
   54.7631   28.5594   52.9936 H   0  0  0  0  0  0  0  0  0  0  0  0
   52.3493   28.0179   52.6282 H   0  0  0  0  0  0  0  0  0  0  0  0
   50.7926   29.7508   51.7325 H   0  0  0  0  0  0  0  0  0  0  0  0
   54.0672   32.6085   51.6179 H   0  0  0  0  0  0  0  0  0  0  0  0
   57.2447   32.3654   50.2572 H   0  0  0  0  0  0  0  0  0  0  0  0
   58.6965   31.1179   47.1031 H   0  0  0  0  0  0  0  0  0  0  0  0
   57.4869   29.7138   45.4284 H   0  0  0  0  0  0  0  0  0  0  0  0
  1  2  1  0
  2  3  2  0
  3  4  1  0
  4  5  2  0
  5  6  1  0
  6  7  2  0
  6  8  2  0
  6  9  1  0
  9 10  1  0
 10 11  2  0
 11 12  1  0
 12 13  2  0
 13 14  1  0
 14 15  1  0
 15 16  1  0
 16 17  2  0
 16 18  2  0
 16 19  1  0
 19 20  2  0
 20 21  1  0
 21 22  2  0
 22 23  1  0
 23 24  1  0
 24 25  2  0
 24 26  1  0
 23 27  2  0
 14 28  2  0
  5 29  1  0
 29 30  2  0
 30  2  1  0
 28 10  1  0
 27 19  1  0
  1 31  1  0
  1 32  1  0
  1 33  1  0
  3 34  1  0
  4 35  1  0
 11 36  1  0
 12 37  1  0
 13 38  1  0
 15 39  1  0
 20 40  1  0
 21 41  1  0
 22 42  1  0
 27 43  1  0
 28 44  1  0
 29 45  1  0
 30 46  1  0
M  CHG  2   9  -1  26  -1
M  END
>  <UniqueID>  (9) 
9

>  <SMILES>  (9) 
Cc1ccc(S(=O)(=O)[N-]c2cccc(NS(=O)(=O)c3cccc(C(=O)[O-])c3)c2)cc1

>  <Energy>  (9) 
56.10990330462928

>  <Genealogy>  (9) 
Cc1ccc(S(=O)(=O)[N-]c2cccc(NS(=O)(=O)c3cccc(C(=O)[O-])c3)c2)cc1 (protonated)
Cc1ccc(S(=O)(=O)[N-]c2cccc(NS(=O)(=O)c3cccc(C(=O)[O-])c3)c2)cc1 (3D coordinates assigned)
Cc1ccc(S(=O)(=O)[N-]c2cccc(NS(=O)(=O)c3cccc(C(=O)[O-])c3)c2)cc1 (optimized conformer: 56.10990330462928 kcal/mol)

>  <smiles>  (9) 
Cc1ccc(S(=O)(=O)Nc2cccc(NS(=O)(=O)c3cccc(C(=O)O)c3)c2)cc1

>  <score_type>  (9) 
oracle

>  <origin>  (9) 
adg

>  <m_score__min__energy>  (9) 
-14.529999999999999

>  <m_primary>  (9) 
energy

$$$$
9:0
     RDKit          3D

 59 62  0  0  0  0  0  0  0  0999 V2000
   51.3230   23.0210   45.5360 C   0  0  0  0  0  0  0  0  0  0  0  0
   52.6100   22.4740   45.2680 O   0  0  0  0  0  0  0  0  0  0  0  0
   53.8100   23.1980   45.3420 C   0  0  0  0  0  0  0  0  0  0  0  0
   55.0660   22.6010   45.1330 C   0  0  0  0  0  0  0  0  0  0  0  0
   56.2320   23.3660   45.2150 C   0  0  0  0  0  0  0  0  0  0  0  0
   56.1650   24.7360   45.5150 C   0  0  0  0  0  0  0  0  0  0  0  0
   57.4260   25.5590   45.5460 C   0  0  0  0  0  0  0  0  0  0  0  0
   57.7660   25.9990   44.1880 N   0  0  0  0  0  0  0  0  0  0  0  0
   57.3980   25.1680   43.0380 C   0  0  0  0  0  0  0  0  0  0  0  0
   58.4860   27.2290   43.9850 C   0  0  0  0  0  0  0  0  0  0  0  0
   59.0650   27.4360   42.8850 O   0  0  0  0  0  0  0  0  0  0  0  0
   58.5630   28.2570   45.0490 C   0  0  0  0  0  0  0  0  0  0  0  0
   57.6910   29.3550   45.0200 C   0  0  0  0  0  0  0  0  0  0  0  0
   57.7350   30.2970   45.9960 N   0  0  0  0  0  0  0  0  0  0  0  0
   58.6120   30.2200   47.0310 C   0  0  0  0  0  0  0  0  0  0  0  0
   58.6240   31.2200   48.0090 C   0  0  0  0  0  0  0  0  0  0  0  0
   59.5250   31.1490   49.0800 C   0  0  0  0  0  0  0  0  0  0  0  0
   59.5390   32.4000   50.3220 S   0  0  0  0  0  0  0  0  0  0  0  0
   58.1190   32.7570   50.6600 O   0  0  0  0  0  0  0  0  0  0  0  0
   60.2340   31.9090   51.5620 O   0  0  0  0  0  0  0  0  0  0  0  0
   60.3600   33.8110   49.7330 N   0  0  0  0  0  0  0  0  0  0  0  0
   61.3780   33.7470   48.7180 C   0  0  0  0  0  0  0  0  0  0  0  0
   62.7210   33.5190   49.0750 C   0  0  0  0  0  0  0  0  0  0  0  0
   63.7150   33.4530   48.0980 C   0  0  0  0  0  0  0  0  0  0  0  0
   63.3870   33.6190   46.7540 C   0  0  0  0  0  0  0  0  0  0  0  0
   62.0620   33.8500   46.3800 C   0  0  0  0  0  0  0  0  0  0  0  0
   61.0470   33.9110   47.3510 C   0  0  0  0  0  0  0  0  0  0  0  0
   59.6250   34.1420   46.9160 C   0  0  0  0  0  0  0  0  0  0  0  0
   60.4210   30.0750   49.1640 C   0  0  0  0  0  0  0  0  0  0  0  0
   60.4120   29.0690   48.1960 C   0  0  0  0  0  0  0  0  0  0  0  0
   59.5080   29.1300   47.1180 C   0  0  0  0  0  0  0  0  0  0  0  0
   59.4740   28.1400   46.1170 C   0  0  0  0  0  0  0  0  0  0  0  0
   60.2660   27.1580   46.1670 O   0  0  0  0  0  0  0  0  0  0  0  0
   54.9070   25.3360   45.7150 C   0  0  0  0  0  0  0  0  0  0  0  0
   54.8050   26.6940   45.9920 O   0  0  0  0  0  0  0  0  0  0  0  0
   53.7430   24.5650   45.6340 C   0  0  0  0  0  0  0  0  0  0  0  0
   51.1712   23.0855   46.6236 H   0  0  0  0  0  0  0  0  0  0  0  0
   51.2531   24.0266   45.0957 H   0  0  0  0  0  0  0  0  0  0  0  0
   50.5504   22.3735   45.0957 H   0  0  0  0  0  0  0  0  0  0  0  0
   55.1306   21.5270   44.9040 H   0  0  0  0  0  0  0  0  0  0  0  0
   57.2095   22.8917   45.0433 H   0  0  0  0  0  0  0  0  0  0  0  0
   57.2718   26.4394   46.1872 H   0  0  0  0  0  0  0  0  0  0  0  0
   58.2485   24.9482   45.9465 H   0  0  0  0  0  0  0  0  0  0  0  0
   56.9765   24.2161   43.3934 H   0  0  0  0  0  0  0  0  0  0  0  0
   56.6495   25.6958   42.4288 H   0  0  0  0  0  0  0  0  0  0  0  0
   58.2919   24.9684   42.4288 H   0  0  0  0  0  0  0  0  0  0  0  0
   56.9653   29.4535   44.1993 H   0  0  0  0  0  0  0  0  0  0  0  0
   57.9237   32.0652   47.9372 H   0  0  0  0  0  0  0  0  0  0  0  0
   59.9910   34.7350   50.0460 H   0  0  0  0  0  0  0  0  0  0  0  0
   62.9890   33.3917   50.1342 H   0  0  0  0  0  0  0  0  0  0  0  0
   64.7597   33.2695   48.3894 H   0  0  0  0  0  0  0  0  0  0  0  0
   64.1733   33.5680   45.9865 H   0  0  0  0  0  0  0  0  0  0  0  0
   61.8102   33.9853   45.3178 H   0  0  0  0  0  0  0  0  0  0  0  0
   58.9826   34.2463   47.8028 H   0  0  0  0  0  0  0  0  0  0  0  0
   59.5705   35.0608   46.3136 H   0  0  0  0  0  0  0  0  0  0  0  0
   59.2825   33.2877   46.3136 H   0  0  0  0  0  0  0  0  0  0  0  0
   61.1362   30.0242   49.9982 H   0  0  0  0  0  0  0  0  0  0  0  0
   61.1137   28.2256   48.2757 H   0  0  0  0  0  0  0  0  0  0  0  0
   52.7642   25.0382   45.8016 H   0  0  0  0  0  0  0  0  0  0  0  0
  1  2  1  0
  2  3  1  0
  3  4  2  0
  4  5  1  0
  5  6  2  0
  6  7  1  0
  7  8  1  0
  8  9  1  0
  8 10  1  0
 10 11  2  0
 10 12  1  0
 12 13  2  0
 13 14  1  0
 14 15  1  0
 15 16  2  0
 16 17  1  0
 17 18  1  0
 18 19  2  0
 18 20  2  0
 18 21  1  0
 21 22  1  0
 22 23  2  0
 23 24  1  0
 24 25  2  0
 25 26  1  0
 26 27  2  0
 27 28  1  0
 17 29  2  0
 29 30  1  0
 30 31  2  0
 31 32  1  0
 32 33  2  0
  6 34  1  0
 34 35  1  0
 34 36  2  0
 36  3  1  0
 32 12  1  0
 31 15  1  0
 27 22  1  0
  1 37  1  0
  1 38  1  0
  1 39  1  0
  4 40  1  0
  5 41  1  0
  7 42  1  0
  7 43  1  0
  9 44  1  0
  9 45  1  0
  9 46  1  0
 13 47  1  0
 16 48  1  0
 21 49  1  0
 23 50  1  0
 24 51  1  0
 25 52  1  0
 26 53  1  0
 28 54  1  0
 28 55  1  0
 28 56  1  0
 29 57  1  0
 30 58  1  0
 36 59  1  0
M  CHG  2  14  -1  35  -1
M  END
>  <UniqueID>  (10) 
10

>  <SMILES>  (10) 
COc1ccc(CN(C)C(=O)c2c[n-]c3cc(S(=O)(=O)Nc4ccccc4C)ccc3c2=O)c([O-])c1

>  <Energy>  (10) 
76.04714365994279

>  <Genealogy>  (10) 
COc1ccc(CN(C)C(=O)c2c[n-]c3cc(S(=O)(=O)Nc4ccccc4C)ccc3c2=O)c([O-])c1 (protonated)
COc1ccc(CN(C)C(=O)c2c[n-]c3cc(S(=O)(=O)Nc4ccccc4C)ccc3c2=O)c([O-])c1 (3D coordinates assigned)
COc1ccc(CN(C)C(=O)c2c[n-]c3cc(S(=O)(=O)Nc4ccccc4C)ccc3c2=O)c([O-])c1 (optimized conformer: 76.04714365994279 kcal/mol)

>  <smiles>  (10) 
COc1ccc(CN(C)C(=O)c2c[nH]c3cc(S(=O)(=O)Nc4ccccc4C)ccc3c2=O)c(O)c1

>  <score_type>  (10) 
oracle

>  <origin>  (10) 
adg

>  <m_score__min__energy>  (10) 
-14.609999999999999

>  <m_primary>  (10) 
energy

$$$$
10:0
     RDKit          3D

 37 39  0  0  0  0  0  0  0  0999 V2000
   56.6090   30.1260   43.0140 C   0  0  0  0  0  0  0  0  0  0  0  0
   56.6480   28.9930   44.4380 S   0  0  0  0  0  0  0  0  0  0  0  0
   57.5020   30.1670   45.4940 C   0  0  0  0  0  0  0  0  0  0  0  0
   57.3790   31.5010   45.2660 N   0  0  0  0  0  0  0  0  0  0  0  0
   58.3730   32.2290   46.3780 S   0  0  0  0  0  0  0  0  0  0  0  0
   58.9850   30.8910   47.1510 C   0  0  0  0  0  0  0  0  0  0  0  0
   60.1220   30.9150   48.5380 S   0  0  0  0  0  0  0  0  0  0  0  0
   61.5750   31.2390   47.4920 C   0  0  0  0  0  0  0  0  0  0  0  0
   58.3770   29.7890   46.5500 C   0  0  0  0  0  0  0  0  0  0  0  0
   58.6310   28.3960   46.9740 C   0  0  0  0  0  0  0  0  0  0  0  0
   59.8170   27.9990   47.1130 O   0  0  0  0  0  0  0  0  0  0  0  0
   57.5640   27.4660   47.1950 N   0  0  0  0  0  0  0  0  0  0  0  0
   57.2870   26.3690   46.3610 N   0  0  0  0  0  0  0  0  0  0  0  0
   56.1020   26.0190   45.8150 C   0  0  0  0  0  0  0  0  0  0  0  0
   54.9090   26.7110   45.9950 O   0  0  0  0  0  0  0  0  0  0  0  0
   56.2400   24.8420   45.1060 C   0  0  0  0  0  0  0  0  0  0  0  0
   57.5430   24.4260   45.2860 C   0  0  0  0  0  0  0  0  0  0  0  0
   58.1620   25.3910   46.0550 C   0  0  0  0  0  0  0  0  0  0  0  0
   59.4910   25.3770   46.4600 O   0  0  0  0  0  0  0  0  0  0  0  0
   58.1260   23.1980   44.6550 C   0  0  0  0  0  0  0  0  0  0  0  0
   57.0020   22.2330   44.2280 C   0  0  0  0  0  0  0  0  0  0  0  0
   55.8530   22.9700   43.5050 C   0  0  0  0  0  0  0  0  0  0  0  0
   55.1920   24.0280   44.4120 C   0  0  0  0  0  0  0  0  0  0  0  0
   56.5732   31.1651   43.3731 H   0  0  0  0  0  0  0  0  0  0  0  0
   57.5127   29.9797   42.4042 H   0  0  0  0  0  0  0  0  0  0  0  0
   55.7175   29.9179   42.4042 H   0  0  0  0  0  0  0  0  0  0  0  0
   62.4498   31.4341   48.1298 H   0  0  0  0  0  0  0  0  0  0  0  0
   61.7723   30.3628   46.8569 H   0  0  0  0  0  0  0  0  0  0  0  0
   61.3814   32.1160   46.8569 H   0  0  0  0  0  0  0  0  0  0  0  0
   58.7118   23.4875   43.7701 H   0  0  0  0  0  0  0  0  0  0  0  0
   58.7742   22.6925   45.3860 H   0  0  0  0  0  0  0  0  0  0  0  0
   57.4219   21.4764   43.5489 H   0  0  0  0  0  0  0  0  0  0  0  0
   56.5901   21.7670   45.1353 H   0  0  0  0  0  0  0  0  0  0  0  0
   56.2563   23.4688   42.6114 H   0  0  0  0  0  0  0  0  0  0  0  0
   55.0886   22.2277   43.2318 H   0  0  0  0  0  0  0  0  0  0  0  0
   54.5640   24.6910   43.7988 H   0  0  0  0  0  0  0  0  0  0  0  0
   54.5751   23.5185   45.1669 H   0  0  0  0  0  0  0  0  0  0  0  0
  1  2  1  0
  2  3  1  0
  3  4  2  0
  4  5  1  0
  5  6  1  0
  6  7  1  0
  7  8  1  0
  6  9  2  0
  9 10  1  0
 10 11  2  0
 10 12  1  0
 12 13  1  0
 13 14  1  0
 14 15  1  0
 14 16  2  0
 16 17  1  0
 17 18  2  0
 18 19  1  0
 17 20  1  0
 20 21  1  0
 21 22  1  0
 22 23  1  0
  9  3  1  0
 18 13  1  0
 23 16  1  0
  1 24  1  0
  1 25  1  0
  1 26  1  0
  8 27  1  0
  8 28  1  0
  8 29  1  0
 20 30  1  0
 20 31  1  0
 21 32  1  0
 21 33  1  0
 22 34  1  0
 22 35  1  0
 23 36  1  0
 23 37  1  0
M  CHG  3  12  -1  15  -1  19  -1
M  END
>  <UniqueID>  (11) 
11

>  <SMILES>  (11) 
CSc1nsc(SC)c1C(=O)[N-]n1c([O-])c2c(c1[O-])CCCC2

>  <Energy>  (11) 
100.06139009818261

>  <Genealogy>  (11) 
CSc1nsc(SC)c1C(=O)[N-]n1c([O-])c2c(c1[O-])CCCC2 (protonated)
CSc1nsc(SC)c1C(=O)[N-]n1c([O-])c2c(c1[O-])CCCC2 (3D coordinates assigned)
CSc1nsc(SC)c1C(=O)[N-]n1c([O-])c2c(c1[O-])CCCC2 (nonaromatic ring conformer: 100.06139009818261 kcal/mol)

>  <smiles>  (11) 
CSc1nsc(SC)c1C(=O)Nn1c(O)c2c(c1O)CCCC2

>  <score_type>  (11) 
oracle

>  <origin>  (11) 
adg

>  <m_score__min__energy>  (11) 
-13.869999999999999

>  <m_primary>  (11) 
energy

$$$$
11:0
     RDKit          3D

102105  0  0  0  0  0  0  0  0999 V2000
   63.7570   31.5390   46.7850 N   0  0  0  0  0  0  0  0  0  0  0  0
   63.3420   32.4840   47.7750 C   0  0  0  0  0  0  0  0  0  0  0  0
   62.2360   33.3060   47.5490 C   0  0  0  0  0  0  0  0  0  0  0  0
   61.8350   34.2130   48.5260 C   0  0  0  0  0  0  0  0  0  0  0  0
   62.5460   34.2910   49.7240 C   0  0  0  0  0  0  0  0  0  0  0  0
   63.6300   33.4880   49.9430 N   0  0  0  0  0  0  0  0  0  0  0  0
   64.3950   33.6090   51.1940 C   0  0  0  0  0  0  0  0  0  0  0  0
   63.4880   33.8810   52.4070 C   0  0  0  0  0  0  0  0  0  0  0  0
   62.2760   32.9380   52.5020 C   0  0  0  0  0  0  0  0  0  0  0  0
   62.6440   31.4730   52.4880 C   0  0  0  0  0  0  0  0  0  0  0  0
   62.7330   30.7470   53.6870 C   0  0  0  0  0  0  0  0  0  0  0  0
   62.9820   29.3720   53.6670 C   0  0  0  0  0  0  0  0  0  0  0  0
   63.1290   28.6950   52.4460 C   0  0  0  0  0  0  0  0  0  0  0  0
   63.3230   27.1990   52.4260 C   0  0  0  0  0  0  0  0  0  0  0  0
   62.0890   26.4500   51.8990 C   0  0  0  0  0  0  0  0  0  0  0  0
   61.0200   26.1810   52.9720 C   0  0  0  0  0  0  0  0  0  0  0  0
   59.9800   27.2710   53.0510 C   0  0  0  0  0  0  0  0  0  0  0  0
   58.9490   27.2020   53.9950 C   0  0  0  0  0  0  0  0  0  0  0  0
   57.9690   28.1960   54.0230 C   0  0  0  0  0  0  0  0  0  0  0  0
   58.0070   29.2370   53.1360 N   0  0  0  0  0  0  0  0  0  0  0  0
   56.9210   30.2270   53.1210 C   0  0  0  0  0  0  0  0  0  0  0  0
   56.8900   31.0010   51.7950 C   0  0  0  0  0  0  0  0  0  0  0  0
   57.3160   32.4660   51.9690 C   0  0  0  0  0  0  0  0  0  0  0  0
   58.8420   32.6100   51.9450 C   0  0  0  0  0  0  0  0  0  0  0  0
   59.3290   32.9650   50.5320 C   0  0  0  0  0  0  0  0  0  0  0  0
   59.1000   31.8410   49.5070 C   0  0  0  0  0  0  0  0  0  0  0  0
   60.3660   31.0870   49.0510 C   0  0  0  0  0  0  0  0  0  0  0  0
   60.2740   29.5430   49.0830 C   0  0  0  0  0  0  0  0  0  0  0  0
   58.9440   28.9720   48.5430 C   0  0  0  0  0  0  0  0  0  0  0  0
   59.0550   28.3140   47.1580 C   0  0  0  0  0  0  0  0  0  0  0  0
   60.3120   28.7530   46.3710 C   0  0  0  0  0  0  0  0  0  0  0  0
   59.9920   29.2510   44.9530 C   0  0  0  0  0  0  0  0  0  0  0  0
   59.0400   30.3650   44.9780 N   0  0  0  0  0  0  0  0  0  0  0  0
   57.9770   30.4610   44.1440 C   0  0  0  0  0  0  0  0  0  0  0  0
   57.0760   31.8390   44.4910 S   0  0  0  0  0  0  0  0  0  0  0  0
   58.0930   32.3320   45.7370 C   0  0  0  0  0  0  0  0  0  0  0  0
   57.8850   33.5310   46.6080 C   0  0  0  0  0  0  0  0  0  0  0  0
   58.9360   34.6040   46.3100 C   0  0  0  0  0  0  0  0  0  0  0  0
   59.2590   35.3060   47.4800 O   0  0  0  0  0  0  0  0  0  0  0  0
   59.1150   31.3990   45.8630 C   0  0  0  0  0  0  0  0  0  0  0  0
   59.0250   29.3340   52.2290 C   0  0  0  0  0  0  0  0  0  0  0  0
   60.0280   28.3640   52.1760 C   0  0  0  0  0  0  0  0  0  0  0  0
   63.0430   29.4200   51.2480 C   0  0  0  0  0  0  0  0  0  0  0  0
   62.8010   30.7960   51.2670 C   0  0  0  0  0  0  0  0  0  0  0  0
   64.0390   32.6010   48.9830 C   0  0  0  0  0  0  0  0  0  0  0  0
   64.7310   31.5520   46.4070 H   0  0  0  0  0  0  0  0  0  0  0  0
   63.1030   30.7960   46.4490 H   0  0  0  0  0  0  0  0  0  0  0  0
   61.6827   33.2370   46.6008 H   0  0  0  0  0  0  0  0  0  0  0  0
   60.9644   34.8631   48.3549 H   0  0  0  0  0  0  0  0  0  0  0  0
   62.2312   35.0052   50.4991 H   0  0  0  0  0  0  0  0  0  0  0  0
   64.9439   32.6713   51.3655 H   0  0  0  0  0  0  0  0  0  0  0  0
   65.0817   34.4618   51.0883 H   0  0  0  0  0  0  0  0  0  0  0  0
   64.0886   33.7665   53.3214 H   0  0  0  0  0  0  0  0  0  0  0  0
   63.0915   34.9001   52.2876 H   0  0  0  0  0  0  0  0  0  0  0  0
   61.7414   33.1529   53.4390 H   0  0  0  0  0  0  0  0  0  0  0  0
   61.6550   33.1220   51.6129 H   0  0  0  0  0  0  0  0  0  0  0  0
   62.6057   31.2647   54.6492 H   0  0  0  0  0  0  0  0  0  0  0  0
   63.0633   28.8171   54.6133 H   0  0  0  0  0  0  0  0  0  0  0  0
   64.1809   26.9636   51.7790 H   0  0  0  0  0  0  0  0  0  0  0  0
   63.4942   26.8714   53.4620 H   0  0  0  0  0  0  0  0  0  0  0  0
   61.6334   27.0521   51.0991 H   0  0  0  0  0  0  0  0  0  0  0  0
   62.4379   25.4698   51.5419 H   0  0  0  0  0  0  0  0  0  0  0  0
   60.5165   25.2320   52.7356 H   0  0  0  0  0  0  0  0  0  0  0  0
   61.5316   26.1418   53.9450 H   0  0  0  0  0  0  0  0  0  0  0  0
   58.9110   26.3684   54.7117 H   0  0  0  0  0  0  0  0  0  0  0  0
   57.1588   28.1417   54.7651 H   0  0  0  0  0  0  0  0  0  0  0  0
   55.9607   29.7076   53.2553 H   0  0  0  0  0  0  0  0  0  0  0  0
   57.0932   30.9437   53.9375 H   0  0  0  0  0  0  0  0  0  0  0  0
   57.5750   30.5148   51.0848 H   0  0  0  0  0  0  0  0  0  0  0  0
   55.8550   30.9920   51.4226 H   0  0  0  0  0  0  0  0  0  0  0  0
   56.8870   33.0633   51.1510 H   0  0  0  0  0  0  0  0  0  0  0  0
   56.9496   32.8202   52.9438 H   0  0  0  0  0  0  0  0  0  0  0  0
   59.1410   33.4072   52.6414 H   0  0  0  0  0  0  0  0  0  0  0  0
   59.2935   31.6531   52.2459 H   0  0  0  0  0  0  0  0  0  0  0  0
   58.7901   33.8618   50.1924 H   0  0  0  0  0  0  0  0  0  0  0  0
   60.4145   33.1314   50.5947 H   0  0  0  0  0  0  0  0  0  0  0  0
   58.4130   31.1085   49.9558 H   0  0  0  0  0  0  0  0  0  0  0  0
   58.7010   32.3313   48.6068 H   0  0  0  0  0  0  0  0  0  0  0  0
   60.5869   31.3913   48.0172 H   0  0  0  0  0  0  0  0  0  0  0  0
   61.1519   31.3560   49.7721 H   0  0  0  0  0  0  0  0  0  0  0  0
   61.0953   29.1367   48.4744 H   0  0  0  0  0  0  0  0  0  0  0  0
   60.3368   29.2465   50.1404 H   0  0  0  0  0  0  0  0  0  0  0  0
   58.5787   28.2172   49.2549 H   0  0  0  0  0  0  0  0  0  0  0  0
   58.2565   29.8237   48.4334 H   0  0  0  0  0  0  0  0  0  0  0  0
   59.0903   27.2227   47.2917 H   0  0  0  0  0  0  0  0  0  0  0  0
   58.1781   28.6321   46.5750 H   0  0  0  0  0  0  0  0  0  0  0  0
   60.8054   29.5656   46.9244 H   0  0  0  0  0  0  0  0  0  0  0  0
   60.9606   27.8703   46.2700 H   0  0  0  0  0  0  0  0  0  0  0  0
   60.9231   29.5870   44.4734 H   0  0  0  0  0  0  0  0  0  0  0  0
   59.5390   28.4219   44.3896 H   0  0  0  0  0  0  0  0  0  0  0  0
   57.7363   29.7385   43.3502 H   0  0  0  0  0  0  0  0  0  0  0  0
   56.8832   33.9446   46.4202 H   0  0  0  0  0  0  0  0  0  0  0  0
   57.9799   33.2250   47.6603 H   0  0  0  0  0  0  0  0  0  0  0  0
   59.8425   34.1239   45.9128 H   0  0  0  0  0  0  0  0  0  0  0  0
   58.5284   35.3089   45.5704 H   0  0  0  0  0  0  0  0  0  0  0  0
   58.9050   36.2270   47.3650 H   0  0  0  0  0  0  0  0  0  0  0  0
   59.9155   31.4872   46.6123 H   0  0  0  0  0  0  0  0  0  0  0  0
   59.0544   30.1855   51.5333 H   0  0  0  0  0  0  0  0  0  0  0  0
   60.8506   28.4575   51.4518 H   0  0  0  0  0  0  0  0  0  0  0  0
   63.1671   28.9011   50.2861 H   0  0  0  0  0  0  0  0  0  0  0  0
   62.7330   31.3524   50.3205 H   0  0  0  0  0  0  0  0  0  0  0  0
   64.9246   31.9740   49.1633 H   0  0  0  0  0  0  0  0  0  0  0  0
  1  2  1  0
  2  3  2  0
  3  4  1  0
  4  5  2  0
  5  6  1  0
  6  7  1  0
  7  8  1  0
  8  9  1  0
  9 10  1  0
 10 11  2  0
 11 12  1  0
 12 13  2  0
 13 14  1  0
 14 15  1  0
 15 16  1  0
 16 17  1  0
 17 18  2  0
 18 19  1  0
 19 20  2  0
 20 21  1  0
 21 22  1  0
 22 23  1  0
 23 24  1  0
 24 25  1  0
 25 26  1  0
 26 27  1  0
 27 28  1  0
 28 29  1  0
 29 30  1  0
 30 31  1  0
 31 32  1  0
 32 33  1  0
 33 34  2  0
 34 35  1  0
 35 36  1  0
 36 37  1  0
 37 38  1  0
 38 39  1  0
 36 40  2  0
 20 41  1  0
 41 42  2  0
 13 43  1  0
 43 44  2  0
  6 45  2  0
 45  2  1  0
 44 10  1  0
 42 17  1  0
 40 33  1  0
  1 46  1  0
  1 47  1  0
  3 48  1  0
  4 49  1  0
  5 50  1  0
  7 51  1  0
  7 52  1  0
  8 53  1  0
  8 54  1  0
  9 55  1  0
  9 56  1  0
 11 57  1  0
 12 58  1  0
 14 59  1  0
 14 60  1  0
 15 61  1  0
 15 62  1  0
 16 63  1  0
 16 64  1  0
 18 65  1  0
 19 66  1  0
 21 67  1  0
 21 68  1  0
 22 69  1  0
 22 70  1  0
 23 71  1  0
 23 72  1  0
 24 73  1  0
 24 74  1  0
 25 75  1  0
 25 76  1  0
 26 77  1  0
 26 78  1  0
 27 79  1  0
 27 80  1  0
 28 81  1  0
 28 82  1  0
 29 83  1  0
 29 84  1  0
 30 85  1  0
 30 86  1  0
 31 87  1  0
 31 88  1  0
 32 89  1  0
 32 90  1  0
 34 91  1  0
 37 92  1  0
 37 93  1  0
 38 94  1  0
 38 95  1  0
 39 96  1  0
 40 97  1  0
 41 98  1  0
 42 99  1  0
 43100  1  0
 44101  1  0
 45102  1  0
M  CHG  3   6   1  20   1  33   1
M  END
>  <UniqueID>  (12) 
12

>  <SMILES>  (12) 
Nc1ccc[n+](CCCc2ccc(CCCc3cc[n+](CCCCCCCCCCCC[n+]4csc(CCO)c4)cc3)cc2)c1

>  <Energy>  (12) 
105.47529972770474

>  <Genealogy>  (12) 
Nc1ccc[n+](CCCc2ccc(CCCc3cc[n+](CCCCCCCCCCCC[n+]4csc(CCO)c4)cc3)cc2)c1 (3D coordinates assigned)
Nc1ccc[n+](CCCc2ccc(CCCc3cc[n+](CCCCCCCCCCCC[n+]4csc(CCO)c4)cc3)cc2)c1 (optimized conformer: 105.47529972770474 kcal/mol)

>  <smiles>  (12) 
Nc1ccc[n+](CCCc2ccc(CCCc3cc[n+](CCCCCCCCCCCC[n+]4csc(CCO)c4)cc3)cc2)c1

>  <score_type>  (12) 
oracle

>  <origin>  (12) 
adg

>  <m_score__min__energy>  (12) 
-6.71

>  <m_primary>  (12) 
energy

$$$$
12:0
     RDKit          3D

 46 49  0  0  0  0  0  0  0  0999 V2000
   58.1820   34.1290   46.5360 C   0  0  0  0  0  0  0  0  0  0  0  0
   58.0830   32.9970   45.5500 C   0  0  0  0  0  0  0  0  0  0  0  0
   57.9660   33.2700   44.1770 C   0  0  0  0  0  0  0  0  0  0  0  0
   57.8820   32.2260   43.2540 C   0  0  0  0  0  0  0  0  0  0  0  0
   57.9320   30.9010   43.6900 C   0  0  0  0  0  0  0  0  0  0  0  0
   58.0530   30.6170   45.0520 C   0  0  0  0  0  0  0  0  0  0  0  0
   58.1030   31.6580   45.9940 C   0  0  0  0  0  0  0  0  0  0  0  0
   58.1990   31.3830   47.4010 N   0  0  0  0  0  0  0  0  0  0  0  0
   59.2120   31.8510   48.3040 C   0  0  0  0  0  0  0  0  0  0  0  0
   60.4100   31.5380   48.0830 O   0  0  0  0  0  0  0  0  0  0  0  0
   58.9110   32.6620   49.4480 N   0  0  0  0  0  0  0  0  0  0  0  0
   58.4530   32.2180   50.7350 C   0  0  0  0  0  0  0  0  0  0  0  0
   58.9200   32.8780   51.8770 C   0  0  0  0  0  0  0  0  0  0  0  0
   58.5200   32.4590   53.1460 C   0  0  0  0  0  0  0  0  0  0  0  0
   57.6450   31.3800   53.2860 C   0  0  0  0  0  0  0  0  0  0  0  0
   57.1390   30.7240   52.1530 C   0  0  0  0  0  0  0  0  0  0  0  0
   56.2800   29.5830   52.3310 N   0  0  0  0  0  0  0  0  0  0  0  0
   55.0630   29.6060   53.0940 C   0  0  0  0  0  0  0  0  0  0  0  0
   54.9430   28.8070   54.2380 C   0  0  0  0  0  0  0  0  0  0  0  0
   53.7420   28.8110   54.9510 C   0  0  0  0  0  0  0  0  0  0  0  0
   53.6230   28.0990   55.9830 O   0  0  0  0  0  0  0  0  0  0  0  0
   52.7210   29.5570   54.5460 O   0  0  0  0  0  0  0  0  0  0  0  0
   52.7800   30.3290   53.4650 C   0  0  0  0  0  0  0  0  0  0  0  0
   51.6690   31.0980   53.1030 C   0  0  0  0  0  0  0  0  0  0  0  0
   51.7260   31.9300   51.9820 C   0  0  0  0  0  0  0  0  0  0  0  0
   50.6210   32.6970   51.6290 O   0  0  0  0  0  0  0  0  0  0  0  0
   52.8940   31.9970   51.2160 C   0  0  0  0  0  0  0  0  0  0  0  0
   54.0090   31.2300   51.5650 C   0  0  0  0  0  0  0  0  0  0  0  0
   53.9620   30.3830   52.6870 C   0  0  0  0  0  0  0  0  0  0  0  0
   57.5350   31.1620   50.8750 C   0  0  0  0  0  0  0  0  0  0  0  0
   58.1469   33.7278   47.5596 H   0  0  0  0  0  0  0  0  0  0  0  0
   59.1305   34.6652   46.3847 H   0  0  0  0  0  0  0  0  0  0  0  0
   57.3410   34.8217   46.3847 H   0  0  0  0  0  0  0  0  0  0  0  0
   57.9404   34.3125   43.8271 H   0  0  0  0  0  0  0  0  0  0  0  0
   57.7763   32.4479   42.1818 H   0  0  0  0  0  0  0  0  0  0  0  0
   57.8761   30.0798   42.9602 H   0  0  0  0  0  0  0  0  0  0  0  0
   58.1095   29.5715   45.3893 H   0  0  0  0  0  0  0  0  0  0  0  0
   59.6060   33.7316   51.7736 H   0  0  0  0  0  0  0  0  0  0  0  0
   58.8951   32.9803   54.0391 H   0  0  0  0  0  0  0  0  0  0  0  0
   57.3504   31.0419   54.2904 H   0  0  0  0  0  0  0  0  0  0  0  0
   56.5190   28.6960   51.8310 H   0  0  0  0  0  0  0  0  0  0  0  0
   55.7854   28.1831   54.5713 H   0  0  0  0  0  0  0  0  0  0  0  0
   50.7481   31.0476   53.7025 H   0  0  0  0  0  0  0  0  0  0  0  0
   52.9353   32.6555   50.3359 H   0  0  0  0  0  0  0  0  0  0  0  0
   54.9261   31.2889   50.9604 H   0  0  0  0  0  0  0  0  0  0  0  0
   57.1232   30.6745   49.9791 H   0  0  0  0  0  0  0  0  0  0  0  0
  1  2  1  0
  2  3  2  0
  3  4  1  0
  4  5  2  0
  5  6  1  0
  6  7  2  0
  7  8  1  0
  8  9  1  0
  9 10  2  0
  9 11  1  0
 11 12  1  0
 12 13  2  0
 13 14  1  0
 14 15  2  0
 15 16  1  0
 16 17  1  0
 17 18  1  0
 18 19  2  0
 19 20  1  0
 20 21  2  0
 20 22  1  0
 22 23  1  0
 23 24  2  0
 24 25  1  0
 25 26  1  0
 25 27  2  0
 27 28  1  0
 28 29  2  0
 16 30  2  0
  7  2  1  0
 30 12  1  0
 29 18  1  0
 29 23  1  0
  1 31  1  0
  1 32  1  0
  1 33  1  0
  3 34  1  0
  4 35  1  0
  5 36  1  0
  6 37  1  0
 13 38  1  0
 14 39  1  0
 15 40  1  0
 17 41  1  0
 19 42  1  0
 24 43  1  0
 27 44  1  0
 28 45  1  0
 30 46  1  0
M  CHG  3   8  -1  11  -1  26  -1
M  END
>  <UniqueID>  (13) 
13

>  <SMILES>  (13) 
Cc1ccccc1[N-]C(=O)[N-]c1cccc(Nc2cc(=O)oc3cc([O-])ccc23)c1

>  <Energy>  (13) 
64.75773697922445

>  <Genealogy>  (13) 
Cc1ccccc1[N-]C(=O)[N-]c1cccc(Nc2cc(=O)oc3cc([O-])ccc23)c1 (protonated)
Cc1ccccc1[N-]C(=O)[N-]c1cccc(Nc2cc(=O)oc3cc([O-])ccc23)c1 (3D coordinates assigned)
Cc1ccccc1[N-]C(=O)[N-]c1cccc(Nc2cc(=O)oc3cc([O-])ccc23)c1 (optimized conformer: 64.75773697922445 kcal/mol)

>  <smiles>  (13) 
Cc1ccccc1NC(=O)Nc1cccc(Nc2cc(=O)oc3cc(O)ccc23)c1

>  <score_type>  (13) 
oracle

>  <origin>  (13) 
adg

>  <m_score__min__energy>  (13) 
-13.07

>  <m_primary>  (13) 
energy

$$$$
13:0
     RDKit          3D

 55 57  0  0  0  0  0  0  0  0999 V2000
   64.4930   32.9570   49.0810 C   0  0  0  0  0  0  0  0  0  0  0  0
   63.3720   32.2970   48.5310 O   0  0  0  0  0  0  0  0  0  0  0  0
   63.3430   32.4470   47.1210 C   0  0  0  0  0  0  0  0  0  0  0  0
   62.3280   33.5270   46.6860 C   0  0  0  0  0  0  0  0  0  0  0  0
   61.7080   34.2220   47.8250 N   0  0  0  0  0  0  0  0  0  0  0  0
   60.0360   34.6290   47.5510 S   0  0  0  0  0  0  0  0  0  0  0  0
   59.9860   35.8550   46.6850 O   0  0  0  0  0  0  0  0  0  0  0  0
   59.3520   34.9550   48.8490 O   0  0  0  0  0  0  0  0  0  0  0  0
   59.1710   33.3210   46.7350 C   0  0  0  0  0  0  0  0  0  0  0  0
   59.1160   32.0410   47.3090 C   0  0  0  0  0  0  0  0  0  0  0  0
   58.4180   31.0100   46.6700 C   0  0  0  0  0  0  0  0  0  0  0  0
   57.7350   31.2600   45.4750 C   0  0  0  0  0  0  0  0  0  0  0  0
   56.9890   30.2070   44.8500 N   0  0  0  0  0  0  0  0  0  0  0  0
   57.0060   28.9720   45.2520 C   0  0  0  0  0  0  0  0  0  0  0  0
   55.9000   28.1990   45.2470 N   0  0  0  0  0  0  0  0  0  0  0  0
   56.3450   27.0000   45.6680 C   0  0  0  0  0  0  0  0  0  0  0  0
   55.4800   25.8070   45.7930 C   0  0  0  0  0  0  0  0  0  0  0  0
   54.2340   25.9660   45.9040 O   0  0  0  0  0  0  0  0  0  0  0  0
   56.0310   24.4270   45.8100 C   0  0  0  0  0  0  0  0  0  0  0  0
   56.1530   23.7390   47.0280 C   0  0  0  0  0  0  0  0  0  0  0  0
   56.6240   22.4260   47.0600 C   0  0  0  0  0  0  0  0  0  0  0  0
   56.9820   21.7640   45.8750 C   0  0  0  0  0  0  0  0  0  0  0  0
   57.4780   20.3420   45.9460 C   0  0  0  0  0  0  0  0  0  0  0  0
   56.8690   22.4460   44.6410 C   0  0  0  0  0  0  0  0  0  0  0  0
   57.2330   21.7730   43.3390 C   0  0  0  0  0  0  0  0  0  0  0  0
   56.3810   23.7660   44.6190 C   0  0  0  0  0  0  0  0  0  0  0  0
   57.7110   27.0790   45.9000 C   0  0  0  0  0  0  0  0  0  0  0  0
   58.6300   25.9700   46.3250 C   0  0  0  0  0  0  0  0  0  0  0  0
   59.9000   26.4720   46.5340 F   0  0  0  0  0  0  0  0  0  0  0  0
   58.6750   24.9970   45.3450 F   0  0  0  0  0  0  0  0  0  0  0  0
   58.1790   25.4000   47.5010 F   0  0  0  0  0  0  0  0  0  0  0  0
   58.1320   28.3300   45.6380 N   0  0  0  0  0  0  0  0  0  0  0  0
   57.7930   32.5380   44.8960 C   0  0  0  0  0  0  0  0  0  0  0  0
   58.5150   33.5600   45.5160 C   0  0  0  0  0  0  0  0  0  0  0  0
   64.4360   32.9234   50.1790 H   0  0  0  0  0  0  0  0  0  0  0  0
   65.4137   32.4568   48.7462 H   0  0  0  0  0  0  0  0  0  0  0  0
   64.5024   34.0048   48.7462 H   0  0  0  0  0  0  0  0  0  0  0  0
   64.3450   32.7372   46.7720 H   0  0  0  0  0  0  0  0  0  0  0  0
   63.0362   31.4877   46.6787 H   0  0  0  0  0  0  0  0  0  0  0  0
   62.8500   34.2690   46.0640 H   0  0  0  0  0  0  0  0  0  0  0  0
   61.5244   33.0205   46.1313 H   0  0  0  0  0  0  0  0  0  0  0  0
   61.7660   33.6210   48.6800 H   0  0  0  0  0  0  0  0  0  0  0  0
   59.6239   31.8476   48.2654 H   0  0  0  0  0  0  0  0  0  0  0  0
   58.4064   30.0011   47.1082 H   0  0  0  0  0  0  0  0  0  0  0  0
   55.8744   24.2404   47.9666 H   0  0  0  0  0  0  0  0  0  0  0  0
   56.7158   21.9041   48.0240 H   0  0  0  0  0  0  0  0  0  0  0  0
   57.5825   20.0423   46.9992 H   0  0  0  0  0  0  0  0  0  0  0  0
   56.7586   19.6773   45.4453 H   0  0  0  0  0  0  0  0  0  0  0  0
   58.4547   20.2689   45.4453 H   0  0  0  0  0  0  0  0  0  0  0  0
   57.7468   20.8231   43.5483 H   0  0  0  0  0  0  0  0  0  0  0  0
   56.3187   21.5755   42.7602 H   0  0  0  0  0  0  0  0  0  0  0  0
   57.8987   22.4301   42.7602 H   0  0  0  0  0  0  0  0  0  0  0  0
   56.2718   24.2879   43.6569 H   0  0  0  0  0  0  0  0  0  0  0  0
   57.2674   32.7349   43.9500 H   0  0  0  0  0  0  0  0  0  0  0  0
   58.5702   34.5543   45.0488 H   0  0  0  0  0  0  0  0  0  0  0  0
  1  2  1  0
  2  3  1  0
  3  4  1  0
  4  5  1  0
  5  6  1  0
  6  7  2  0
  6  8  2  0
  6  9  1  0
  9 10  2  0
 10 11  1  0
 11 12  2  0
 12 13  1  0
 13 14  2  3
 14 15  1  0
 15 16  1  0
 16 17  1  0
 17 18  2  0
 17 19  1  0
 19 20  2  0
 20 21  1  0
 21 22  2  0
 22 23  1  0
 22 24  1  0
 24 25  1  0
 24 26  2  0
 16 27  2  0
 27 28  1  0
 28 29  1  0
 28 30  1  0
 28 31  1  0
 27 32  1  0
 12 33  1  0
 33 34  2  0
 34  9  1  0
 32 14  1  0
 26 19  1  0
  1 35  1  0
  1 36  1  0
  1 37  1  0
  3 38  1  0
  3 39  1  0
  4 40  1  0
  4 41  1  0
  5 42  1  0
 10 43  1  0
 11 44  1  0
 20 45  1  0
 21 46  1  0
 23 47  1  0
 23 48  1  0
 23 49  1  0
 25 50  1  0
 25 51  1  0
 25 52  1  0
 26 53  1  0
 33 54  1  0
 34 55  1  0
M  CHG  2  15  -1  32  -1
M  END
>  <UniqueID>  (14) 
14

>  <SMILES>  (14) 
COCCNS(=O)(=O)c1ccc(N=c2[n-]c(C(=O)c3ccc(C)c(C)c3)c(C(F)(F)F)[n-]2)cc1

>  <Energy>  (14) 
98.34451148740834

>  <Genealogy>  (14) 
COCCNS(=O)(=O)c1ccc(N=c2[n-]c(C(=O)c3ccc(C)c(C)c3)c(C(F)(F)F)[n-]2)cc1 (protonated)
COCCNS(=O)(=O)c1ccc(N=c2[n-]c(C(=O)c3ccc(C)c(C)c3)c(C(F)(F)F)[n-]2)cc1 (3D coordinates assigned)
COCCNS(=O)(=O)c1ccc(N=c2[n-]c(C(=O)c3ccc(C)c(C)c3)c(C(F)(F)F)[n-]2)cc1 (optimized conformer: 98.34451148740834 kcal/mol)

>  <smiles>  (14) 
COCCNS(=O)(=O)c1ccc(N=c2[nH]c(C(=O)c3ccc(C)c(C)c3)c(C(F)(F)F)[nH]2)cc1

>  <score_type>  (14) 
oracle

>  <origin>  (14) 
adg

>  <m_score__min__energy>  (14) 
-12.449999999999999

>  <m_primary>  (14) 
energy

$$$$
14:0
     RDKit          3D

 37 38  0  0  0  0  0  0  0  0999 V2000
   55.1430   29.3280   44.9340 N   0  0  0  0  0  0  0  0  0  0  0  0
   56.4560   30.2360   44.2730 S   0  0  0  0  0  0  0  0  0  0  0  0
   56.3770   30.2170   42.7730 O   0  0  0  0  0  0  0  0  0  0  0  0
   56.3700   31.6600   44.7440 O   0  0  0  0  0  0  0  0  0  0  0  0
   57.9790   29.5250   44.7990 C   0  0  0  0  0  0  0  0  0  0  0  0
   58.3010   28.2090   44.4450 C   0  0  0  0  0  0  0  0  0  0  0  0
   59.5190   27.6530   44.8440 C   0  0  0  0  0  0  0  0  0  0  0  0
   60.4190   28.4060   45.6020 C   0  0  0  0  0  0  0  0  0  0  0  0
   60.1030   29.7240   45.9780 C   0  0  0  0  0  0  0  0  0  0  0  0
   61.0220   30.5310   46.7320 N   0  0  0  0  0  0  0  0  0  0  0  0
   61.0680   30.5740   48.1670 C   0  0  0  0  0  0  0  0  0  0  0  0
   60.1540   30.0460   48.8570 O   0  0  0  0  0  0  0  0  0  0  0  0
   62.2010   31.2670   48.8550 C   0  0  0  0  0  0  0  0  0  0  0  0
   63.0140   31.9560   47.8590 N   0  0  0  0  0  0  0  0  0  0  0  0
   62.5120   33.6130   47.7180 S   0  0  0  0  0  0  0  0  0  0  0  0
   63.4420   34.3550   46.7990 O   0  0  0  0  0  0  0  0  0  0  0  0
   62.5990   34.2540   49.0740 O   0  0  0  0  0  0  0  0  0  0  0  0
   60.8350   33.7080   47.1520 C   0  0  0  0  0  0  0  0  0  0  0  0
   60.6080   33.8430   45.7720 C   0  0  0  0  0  0  0  0  0  0  0  0
   59.3080   33.9310   45.2690 C   0  0  0  0  0  0  0  0  0  0  0  0
   58.2190   33.8890   46.1380 C   0  0  0  0  0  0  0  0  0  0  0  0
   58.4260   33.7660   47.5130 C   0  0  0  0  0  0  0  0  0  0  0  0
   59.7250   33.6770   48.0300 C   0  0  0  0  0  0  0  0  0  0  0  0
   59.8950   33.5530   49.7780 Cl  0  0  0  0  0  0  0  0  0  0  0  0
   58.8870   30.2830   45.5520 C   0  0  0  0  0  0  0  0  0  0  0  0
   54.3690   29.3580   44.2340 H   0  0  0  0  0  0  0  0  0  0  0  0
   57.5933   27.6116   43.8514 H   0  0  0  0  0  0  0  0  0  0  0  0
   59.7699   26.6201   44.5607 H   0  0  0  0  0  0  0  0  0  0  0  0
   61.3800   27.9658   45.9065 H   0  0  0  0  0  0  0  0  0  0  0  0
   61.6420   31.1900   46.2080 H   0  0  0  0  0  0  0  0  0  0  0  0
   61.8034   31.9973   49.5752 H   0  0  0  0  0  0  0  0  0  0  0  0
   62.8168   30.5292   49.3902 H   0  0  0  0  0  0  0  0  0  0  0  0
   61.4628   33.8798   45.0807 H   0  0  0  0  0  0  0  0  0  0  0  0
   59.1434   34.0335   44.1862 H   0  0  0  0  0  0  0  0  0  0  0  0
   57.1955   33.9528   45.7399 H   0  0  0  0  0  0  0  0  0  0  0  0
   57.5634   33.7388   48.1951 H   0  0  0  0  0  0  0  0  0  0  0  0
   58.6449   31.3242   45.8113 H   0  0  0  0  0  0  0  0  0  0  0  0
  1  2  1  0
  2  3  2  0
  2  4  2  0
  2  5  1  0
  5  6  2  0
  6  7  1  0
  7  8  2  0
  8  9  1  0
  9 10  1  0
 10 11  1  0
 11 12  2  0
 11 13  1  0
 13 14  1  0
 14 15  1  0
 15 16  2  0
 15 17  2  0
 15 18  1  0
 18 19  2  0
 19 20  1  0
 20 21  2  0
 21 22  1  0
 22 23  2  0
 23 24  1  0
  9 25  2  0
 25  5  1  0
 23 18  1  0
  1 26  1  0
  6 27  1  0
  7 28  1  0
  8 29  1  0
 10 30  1  0
 13 31  1  0
 13 32  1  0
 19 33  1  0
 20 34  1  0
 21 35  1  0
 22 36  1  0
 25 37  1  0
M  CHG  2   1  -1  14  -1
M  END
>  <UniqueID>  (15) 
15

>  <SMILES>  (15) 
[NH-]S(=O)(=O)c1cccc(NC(=O)C[N-]S(=O)(=O)c2ccccc2Cl)c1

>  <Energy>  (15) 
40.36603234966895

>  <Genealogy>  (15) 
[NH-]S(=O)(=O)c1cccc(NC(=O)C[N-]S(=O)(=O)c2ccccc2Cl)c1 (protonated)
[NH-]S(=O)(=O)c1cccc(NC(=O)C[N-]S(=O)(=O)c2ccccc2Cl)c1 (3D coordinates assigned)
[NH-]S(=O)(=O)c1cccc(NC(=O)C[N-]S(=O)(=O)c2ccccc2Cl)c1 (optimized conformer: 40.36603234966895 kcal/mol)

>  <smiles>  (15) 
NS(=O)(=O)c1cccc(NC(=O)CNS(=O)(=O)c2ccccc2Cl)c1

>  <score_type>  (15) 
oracle

>  <origin>  (15) 
adg

>  <m_score__min__energy>  (15) 
-12.48

>  <m_primary>  (15) 
energy

$$$$
15:0
     RDKit          3D

 50 53  0  0  0  0  0  0  0  0999 V2000
   59.6459   30.4416   46.8690 H   0  0  0  0  0  0  0  0  0  0  0  0
   58.8450   29.8300   46.4280 C   0  0  0  0  0  0  0  0  0  0  0  0
   58.7080   28.5310   46.7940 N   0  0  0  0  0  0  0  0  0  0  0  0
   57.7280   27.7490   46.2660 C   0  0  0  0  0  0  0  0  0  0  0  0
   57.5810   26.5100   46.6330 N   0  0  0  0  0  0  0  0  0  0  0  0
   57.4990   25.3590   45.7740 C   0  0  0  0  0  0  0  0  0  0  0  0
   57.9260   24.0880   46.2020 C   0  0  0  0  0  0  0  0  0  0  0  0
   58.3043   23.9462   47.2251 H   0  0  0  0  0  0  0  0  0  0  0  0
   57.8660   23.0090   45.3190 C   0  0  0  0  0  0  0  0  0  0  0  0
   58.1848   22.0089   45.6479 H   0  0  0  0  0  0  0  0  0  0  0  0
   57.4010   23.2020   44.0190 C   0  0  0  0  0  0  0  0  0  0  0  0
   57.3406   22.3556   43.3190 H   0  0  0  0  0  0  0  0  0  0  0  0
   57.0130   24.4800   43.6150 C   0  0  0  0  0  0  0  0  0  0  0  0
   56.6536   24.6451   42.5886 H   0  0  0  0  0  0  0  0  0  0  0  0
   57.0780   25.5240   44.4880 N   0  0  0  0  0  0  0  0  0  0  0  0
   56.7870   26.4730   44.1610 H   0  0  0  0  0  0  0  0  0  0  0  0
   56.8570   28.2830   45.3730 N   0  0  0  0  0  0  0  0  0  0  0  0
   56.9500   29.5770   44.9590 C   0  0  0  0  0  0  0  0  0  0  0  0
   55.8900   30.0970   44.0220 C   0  0  0  0  0  0  0  0  0  0  0  0
   55.7568   31.1754   44.1930 H   0  0  0  0  0  0  0  0  0  0  0  0
   54.9527   29.5561   44.2194 H   0  0  0  0  0  0  0  0  0  0  0  0
   56.2850   29.8680   42.5660 C   0  0  0  0  0  0  0  0  0  0  0  0
   57.2360   29.3166   42.5265 H   0  0  0  0  0  0  0  0  0  0  0  0
   55.5014   29.2841   42.0610 H   0  0  0  0  0  0  0  0  0  0  0  0
   56.4023   30.8381   42.0610 H   0  0  0  0  0  0  0  0  0  0  0  0
   57.9710   30.3960   45.4910 C   0  0  0  0  0  0  0  0  0  0  0  0
   58.1510   31.8150   45.1120 C   0  0  0  0  0  0  0  0  0  0  0  0
   57.9910   32.1570   43.9090 O   0  0  0  0  0  0  0  0  0  0  0  0
   58.5770   32.7930   46.0790 N   0  0  0  0  0  0  0  0  0  0  0  0
   59.3410   33.9630   45.6260 C   0  0  0  0  0  0  0  0  0  0  0  0
   60.1600   33.6245   44.9743 H   0  0  0  0  0  0  0  0  0  0  0  0
   58.6577   34.6314   45.0816 H   0  0  0  0  0  0  0  0  0  0  0  0
   59.9350   34.7420   46.8110 C   0  0  0  0  0  0  0  0  0  0  0  0
   60.7624   35.3709   46.4506 H   0  0  0  0  0  0  0  0  0  0  0  0
   59.1447   35.3656   47.2544 H   0  0  0  0  0  0  0  0  0  0  0  0
   60.4660   33.7780   47.8890 C   0  0  0  0  0  0  0  0  0  0  0  0
   61.4580   32.9540   47.3120 O   0  0  0  0  0  0  0  0  0  0  0  0
   62.5680   33.0490   48.1450 C   0  0  0  0  0  0  0  0  0  0  0  0
   62.6334   32.1649   48.7962 H   0  0  0  0  0  0  0  0  0  0  0  0
   63.5019   33.0988   47.5659 H   0  0  0  0  0  0  0  0  0  0  0  0
   62.3670   34.2840   48.9650 C   0  0  0  0  0  0  0  0  0  0  0  0
   62.7124   34.1171   49.9959 H   0  0  0  0  0  0  0  0  0  0  0  0
   62.9392   35.1311   48.5588 H   0  0  0  0  0  0  0  0  0  0  0  0
   61.0000   34.5440   48.9510 O   0  0  0  0  0  0  0  0  0  0  0  0
   59.3230   32.8840   48.4430 C   0  0  0  0  0  0  0  0  0  0  0  0
   59.7354   31.8865   48.6548 H   0  0  0  0  0  0  0  0  0  0  0  0
   58.9371   33.3820   49.3447 H   0  0  0  0  0  0  0  0  0  0  0  0
   58.1340   32.7220   47.4790 C   0  0  0  0  0  0  0  0  0  0  0  0
   57.6574   31.7466   47.6564 H   0  0  0  0  0  0  0  0  0  0  0  0
   57.4204   33.5388   47.6625 H   0  0  0  0  0  0  0  0  0  0  0  0
  1  2  1  0
  2  3  1  0
  3  4  1  0
  4  5  2  0
  5  6  1  0
  6  7  2  0
  7  8  1  0
  7  9  1  0
  9 10  1  0
  9 11  2  0
 11 12  1  0
 11 13  1  0
 13 14  1  0
 13 15  2  0
 15 16  1  0
  4 17  1  0
 17 18  2  0
 18 19  1  0
 19 20  1  0
 19 21  1  0
 19 22  1  0
 22 23  1  0
 22 24  1  0
 22 25  1  0
 18 26  1  0
 26 27  1  0
 27 28  2  0
 27 29  1  0
 29 30  1  0
 30 31  1  0
 30 32  1  0
 30 33  1  0
 33 34  1  0
 33 35  1  0
 33 36  1  0
 36 37  1  0
 37 38  1  0
 38 39  1  0
 38 40  1  0
 38 41  1  0
 41 42  1  0
 41 43  1  0
 41 44  1  0
 36 45  1  0
 45 46  1  0
 45 47  1  0
 45 48  1  0
 48 49  1  0
 48 50  1  0
 26  2  2  0
 48 29  1  0
 15  6  1  0
 44 36  1  0
M  CHG  2   3  -1  15   1
M  END
>  <UniqueID>  (16) 
16

>  <SMILES>  (16) 
CCc1n/c(=N/c2cccc[nH+]2)[n-]cc1C(=O)N1CCC2(CC1)OCCO2

>  <Energy>  (16) 
62.2485005129802

>  <Genealogy>  (16) 
CCc1nc(=Nc2cccc[nH+]2)[n-]cc1C(=O)N1CCC2(CC1)OCCO2 (protonated)
CCc1n/c(=N/c2cccc[nH+]2)[n-]cc1C(=O)N1CCC2(CC1)OCCO2 (cis-trans isomerization)
CCc1n/c(=N/c2cccc[nH+]2)[n-]cc1C(=O)N1CCC2(CC1)OCCO2 (3D coordinates assigned)
CCc1n/c(=N/c2cccc[nH+]2)[n-]cc1C(=O)N1CCC2(CC1)OCCO2 (nonaromatic ring conformer: 62.2485005129802 kcal/mol)

>  <smiles>  (16) 
CCc1nc(=Nc2ccccn2)[nH]cc1C(=O)N1CCC2(CC1)OCCO2

>  <score_type>  (16) 
oracle

>  <origin>  (16) 
adg

>  <m_score__min__energy>  (16) 
-7.7000000000000002

>  <m_primary>  (16) 
energy

$$$$
16:0
     RDKit          3D

 46 48  0  0  0  0  0  0  0  0999 V2000
   56.0720   24.3310   44.5050 C   0  0  0  0  0  0  0  0  0  0  0  0
   55.1470   25.0190   45.8600 S   0  0  0  0  0  0  0  0  0  0  0  0
   55.5460   24.3270   47.1320 O   0  0  0  0  0  0  0  0  0  0  0  0
   53.6770   24.7980   45.6270 O   0  0  0  0  0  0  0  0  0  0  0  0
   55.4920   26.7160   46.0010 N   0  0  0  0  0  0  0  0  0  0  0  0
   56.9040   26.9570   45.7110 C   0  0  0  0  0  0  0  0  0  0  0  0
   57.4870   27.9590   46.7060 C   0  0  0  0  0  0  0  0  0  0  0  0
   58.0570   29.1630   46.0060 C   0  0  0  0  0  0  0  0  0  0  0  0
   59.1250   29.9790   46.4040 C   0  0  0  0  0  0  0  0  0  0  0  0
   59.9170   29.8460   47.6820 C   0  0  0  0  0  0  0  0  0  0  0  0
   59.6750   30.9960   48.6700 C   0  0  0  0  0  0  0  0  0  0  0  0
   59.6680   32.3380   47.9840 C   0  0  0  0  0  0  0  0  0  0  0  0
   60.8730   32.9560   47.6090 C   0  0  0  0  0  0  0  0  0  0  0  0
   60.8580   34.2030   46.9760 C   0  0  0  0  0  0  0  0  0  0  0  0
   59.6440   34.8400   46.7120 C   0  0  0  0  0  0  0  0  0  0  0  0
   58.4410   34.2340   47.0860 C   0  0  0  0  0  0  0  0  0  0  0  0
   58.4520   32.9940   47.7290 C   0  0  0  0  0  0  0  0  0  0  0  0
   59.2830   31.0020   45.5280 N   0  0  0  0  0  0  0  0  0  0  0  0
   58.3660   30.8180   44.5660 C   0  0  0  0  0  0  0  0  0  0  0  0
   58.1500   31.6160   43.4430 C   0  0  0  0  0  0  0  0  0  0  0  0
   57.1160   31.2510   42.5600 C   0  0  0  0  0  0  0  0  0  0  0  0
   56.8790   32.0270   41.4280 O   0  0  0  0  0  0  0  0  0  0  0  0
   56.3260   30.1060   42.8250 C   0  0  0  0  0  0  0  0  0  0  0  0
   56.5650   29.3250   43.9700 C   0  0  0  0  0  0  0  0  0  0  0  0
   57.6020   29.7090   44.8200 C   0  0  0  0  0  0  0  0  0  0  0  0
   56.8964   23.7178   44.8978 H   0  0  0  0  0  0  0  0  0  0  0  0
   55.4097   23.7042   43.8897 H   0  0  0  0  0  0  0  0  0  0  0  0
   56.4818   25.1456   43.8897 H   0  0  0  0  0  0  0  0  0  0  0  0
   57.4565   26.0087   45.7853 H   0  0  0  0  0  0  0  0  0  0  0  0
   56.9951   27.3681   44.6948 H   0  0  0  0  0  0  0  0  0  0  0  0
   56.6911   28.2871   47.3908 H   0  0  0  0  0  0  0  0  0  0  0  0
   58.2994   27.4641   47.2584 H   0  0  0  0  0  0  0  0  0  0  0  0
   59.6355   28.9014   48.1703 H   0  0  0  0  0  0  0  0  0  0  0  0
   60.9822   29.8705   47.4087 H   0  0  0  0  0  0  0  0  0  0  0  0
   58.7028   30.8433   49.1614 H   0  0  0  0  0  0  0  0  0  0  0  0
   60.4959   30.9931   49.4022 H   0  0  0  0  0  0  0  0  0  0  0  0
   61.8317   32.4571   47.8141 H   0  0  0  0  0  0  0  0  0  0  0  0
   61.8043   34.6828   46.6856 H   0  0  0  0  0  0  0  0  0  0  0  0
   59.6341   35.8186   46.2098 H   0  0  0  0  0  0  0  0  0  0  0  0
   57.4846   34.7342   46.8737 H   0  0  0  0  0  0  0  0  0  0  0  0
   57.5040   32.5288   48.0372 H   0  0  0  0  0  0  0  0  0  0  0  0
   59.9630   31.7930   45.5880 H   0  0  0  0  0  0  0  0  0  0  0  0
   58.7695   32.5048   43.2526 H   0  0  0  0  0  0  0  0  0  0  0  0
   56.7460   33.0290   41.4930 H   0  0  0  0  0  0  0  0  0  0  0  0
   55.5201   29.8256   42.1308 H   0  0  0  0  0  0  0  0  0  0  0  0
   55.9524   28.4379   44.1886 H   0  0  0  0  0  0  0  0  0  0  0  0
  1  2  1  0
  2  3  2  0
  2  4  2  0
  2  5  1  0
  5  6  1  0
  6  7  1  0
  7  8  1  0
  8  9  2  0
  9 10  1  0
 10 11  1  0
 11 12  1  0
 12 13  2  0
 13 14  1  0
 14 15  2  0
 15 16  1  0
 16 17  2  0
  9 18  1  0
 18 19  1  0
 19 20  2  0
 20 21  1  0
 21 22  1  0
 21 23  2  0
 23 24  1  0
 24 25  2  0
 25  8  1  0
 17 12  1  0
 25 19  1  0
  1 26  1  0
  1 27  1  0
  1 28  1  0
  6 29  1  0
  6 30  1  0
  7 31  1  0
  7 32  1  0
 10 33  1  0
 10 34  1  0
 11 35  1  0
 11 36  1  0
 13 37  1  0
 14 38  1  0
 15 39  1  0
 16 40  1  0
 17 41  1  0
 18 42  1  0
 20 43  1  0
 22 44  1  0
 23 45  1  0
 24 46  1  0
M  CHG  1   5  -1
M  END
>  <UniqueID>  (17) 
17

>  <SMILES>  (17) 
CS(=O)(=O)[N-]CCc1c(CCc2ccccc2)[nH]c2cc(O)ccc12

>  <Energy>  (17) 
65.41413359966342

>  <Genealogy>  (17) 
CS(=O)(=O)[N-]CCc1c(CCc2ccccc2)[nH]c2cc(O)ccc12 (protonated)
CS(=O)(=O)[N-]CCc1c(CCc2ccccc2)[nH]c2cc(O)ccc12 (3D coordinates assigned)
CS(=O)(=O)[N-]CCc1c(CCc2ccccc2)[nH]c2cc(O)ccc12 (optimized conformer: 65.41413359966342 kcal/mol)

>  <smiles>  (17) 
CS(=O)(=O)NCCc1c(CCc2ccccc2)[nH]c2cc(O)ccc12

>  <score_type>  (17) 
oracle

>  <origin>  (17) 
adg

>  <m_score__min__energy>  (17) 
-9.5800000000000001

>  <m_primary>  (17) 
energy

$$$$
17:0
     RDKit          3D

 78 80  0  0  0  0  0  0  0  0999 V2000
   59.3240   33.7000   51.1260 C   0  0  0  0  0  0  0  0  0  0  0  0
   58.6480   32.3400   50.9370 C   0  0  0  0  0  0  0  0  0  0  0  0
   58.5720   31.9170   49.4600 C   0  0  0  0  0  0  0  0  0  0  0  0
   58.9130   30.4280   49.2250 C   0  0  0  0  0  0  0  0  0  0  0  0
   60.3820   30.1770   48.8300 C   0  0  0  0  0  0  0  0  0  0  0  0
   60.5830   29.4280   47.4930 C   0  0  0  0  0  0  0  0  0  0  0  0
   59.5650   28.2990   47.2510 C   0  0  0  0  0  0  0  0  0  0  0  0
   59.8640   27.5070   45.9650 C   0  0  0  0  0  0  0  0  0  0  0  0
   59.7060   28.3670   44.7020 C   0  0  0  0  0  0  0  0  0  0  0  0
   58.3830   28.0700   43.9760 C   0  0  0  0  0  0  0  0  0  0  0  0
   57.1850   28.6410   44.7420 C   0  0  0  0  0  0  0  0  0  0  0  0
   56.5630   29.8090   44.0350 C   0  0  0  0  0  0  0  0  0  0  0  0
   56.1670   29.6960   42.8400 O   0  0  0  0  0  0  0  0  0  0  0  0
   56.3290   31.0200   44.7670 N   0  0  0  0  0  0  0  0  0  0  0  0
   57.3400   31.9230   45.2370 C   0  0  0  0  0  0  0  0  0  0  0  0
   57.0950   33.2990   45.1770 C   0  0  0  0  0  0  0  0  0  0  0  0
   58.0410   34.2100   45.6580 C   0  0  0  0  0  0  0  0  0  0  0  0
   59.2410   33.7510   46.2240 C   0  0  0  0  0  0  0  0  0  0  0  0
   60.2300   34.7280   46.8010 C   0  0  0  0  0  0  0  0  0  0  0  0
   61.4760   34.0060   47.2460 C   0  0  0  0  0  0  0  0  0  0  0  0
   62.5600   33.8530   46.3650 C   0  0  0  0  0  0  0  0  0  0  0  0
   63.6850   33.1210   46.7550 C   0  0  0  0  0  0  0  0  0  0  0  0
   63.7430   32.5410   48.0240 C   0  0  0  0  0  0  0  0  0  0  0  0
   62.6750   32.6990   48.9250 C   0  0  0  0  0  0  0  0  0  0  0  0
   62.6880   32.0830   50.2230 N   0  0  0  0  0  0  0  0  0  0  0  0
   63.8610   31.5170   50.8330 C   0  0  0  0  0  0  0  0  0  0  0  0
   65.0060   31.7320   50.3520 O   0  0  0  0  0  0  0  0  0  0  0  0
   63.7380   30.7410   52.1110 C   0  0  0  0  0  0  0  0  0  0  0  0
   62.4610   30.0150   52.1430 N   0  0  0  0  0  0  0  0  0  0  0  0
   61.4090   30.5280   52.8530 C   0  0  0  0  0  0  0  0  0  0  0  0
   60.1770   29.8660   52.8770 C   0  0  0  0  0  0  0  0  0  0  0  0
   60.0270   28.6770   52.1660 C   0  0  0  0  0  0  0  0  0  0  0  0
   61.1010   28.1650   51.4380 C   0  0  0  0  0  0  0  0  0  0  0  0
   62.3160   28.8540   51.4330 C   0  0  0  0  0  0  0  0  0  0  0  0
   61.5370   33.4160   48.5190 C   0  0  0  0  0  0  0  0  0  0  0  0
   59.4760   32.3720   46.3120 C   0  0  0  0  0  0  0  0  0  0  0  0
   58.5340   31.4610   45.8220 C   0  0  0  0  0  0  0  0  0  0  0  0
   59.4290   33.9111   52.2004 H   0  0  0  0  0  0  0  0  0  0  0  0
   60.3187   33.6834   50.6567 H   0  0  0  0  0  0  0  0  0  0  0  0
   58.7102   34.4829   50.6567 H   0  0  0  0  0  0  0  0  0  0  0  0
   59.2206   31.5819   51.4915 H   0  0  0  0  0  0  0  0  0  0  0  0
   57.6176   32.4252   51.3124 H   0  0  0  0  0  0  0  0  0  0  0  0
   57.5499   32.1012   49.0976 H   0  0  0  0  0  0  0  0  0  0  0  0
   59.3218   32.5097   48.9155 H   0  0  0  0  0  0  0  0  0  0  0  0
   58.7046   29.8747   50.1526 H   0  0  0  0  0  0  0  0  0  0  0  0
   58.2937   30.0885   48.3817 H   0  0  0  0  0  0  0  0  0  0  0  0
   60.8856   31.1520   48.7534 H   0  0  0  0  0  0  0  0  0  0  0  0
   60.8024   29.5268   49.6114 H   0  0  0  0  0  0  0  0  0  0  0  0
   60.4954   30.1551   46.6722 H   0  0  0  0  0  0  0  0  0  0  0  0
   61.5765   28.9579   47.5368 H   0  0  0  0  0  0  0  0  0  0  0  0
   59.5934   27.6080   48.1064 H   0  0  0  0  0  0  0  0  0  0  0  0
   58.5725   28.7598   47.1388 H   0  0  0  0  0  0  0  0  0  0  0  0
   60.8975   27.1333   46.0117 H   0  0  0  0  0  0  0  0  0  0  0  0
   59.1409   26.6804   45.9025 H   0  0  0  0  0  0  0  0  0  0  0  0
   59.7253   29.4288   44.9886 H   0  0  0  0  0  0  0  0  0  0  0  0
   60.5343   28.1292   44.0183 H   0  0  0  0  0  0  0  0  0  0  0  0
   58.4154   28.5220   42.9737 H   0  0  0  0  0  0  0  0  0  0  0  0
   58.2625   26.9787   43.9082 H   0  0  0  0  0  0  0  0  0  0  0  0
   56.4277   27.8511   44.8545 H   0  0  0  0  0  0  0  0  0  0  0  0
   57.5465   28.9923   45.7197 H   0  0  0  0  0  0  0  0  0  0  0  0
   56.1513   33.6672   44.7483 H   0  0  0  0  0  0  0  0  0  0  0  0
   57.8440   35.2902   45.5926 H   0  0  0  0  0  0  0  0  0  0  0  0
   60.4950   35.4718   46.0351 H   0  0  0  0  0  0  0  0  0  0  0  0
   59.7757   35.2281   47.6690 H   0  0  0  0  0  0  0  0  0  0  0  0
   62.5231   34.3107   45.3654 H   0  0  0  0  0  0  0  0  0  0  0  0
   64.5285   33.0012   46.0592 H   0  0  0  0  0  0  0  0  0  0  0  0
   64.6277   31.9582   48.3200 H   0  0  0  0  0  0  0  0  0  0  0  0
   61.8070   32.1060   50.7870 H   0  0  0  0  0  0  0  0  0  0  0  0
   64.5670   30.0213   52.1803 H   0  0  0  0  0  0  0  0  0  0  0  0
   63.7751   31.4395   52.9600 H   0  0  0  0  0  0  0  0  0  0  0  0
   61.5335   31.4687   53.4093 H   0  0  0  0  0  0  0  0  0  0  0  0
   59.3351   30.2798   53.4513 H   0  0  0  0  0  0  0  0  0  0  0  0
   59.0649   28.1440   52.1788 H   0  0  0  0  0  0  0  0  0  0  0  0
   60.9921   27.2274   50.8731 H   0  0  0  0  0  0  0  0  0  0  0  0
   63.1638   28.4600   50.8533 H   0  0  0  0  0  0  0  0  0  0  0  0
   60.6839   33.5164   49.2062 H   0  0  0  0  0  0  0  0  0  0  0  0
   60.4064   32.0039   46.7690 H   0  0  0  0  0  0  0  0  0  0  0  0
   58.7270   30.3805   45.8941 H   0  0  0  0  0  0  0  0  0  0  0  0
  1  2  1  0
  2  3  1  0
  3  4  1  0
  4  5  1  0
  5  6  1  0
  6  7  1  0
  7  8  1  0
  8  9  1  0
  9 10  1  0
 10 11  1  0
 11 12  1  0
 12 13  2  0
 12 14  1  0
 14 15  1  0
 15 16  2  0
 16 17  1  0
 17 18  2  0
 18 19  1  0
 19 20  1  0
 20 21  2  0
 21 22  1  0
 22 23  2  0
 23 24  1  0
 24 25  1  0
 25 26  1  0
 26 27  2  0
 26 28  1  0
 28 29  1  0
 29 30  2  0
 30 31  1  0
 31 32  2  0
 32 33  1  0
 33 34  2  0
 24 35  2  0
 18 36  1  0
 36 37  2  0
 37 15  1  0
 35 20  1  0
 34 29  1  0
  1 38  1  0
  1 39  1  0
  1 40  1  0
  2 41  1  0
  2 42  1  0
  3 43  1  0
  3 44  1  0
  4 45  1  0
  4 46  1  0
  5 47  1  0
  5 48  1  0
  6 49  1  0
  6 50  1  0
  7 51  1  0
  7 52  1  0
  8 53  1  0
  8 54  1  0
  9 55  1  0
  9 56  1  0
 10 57  1  0
 10 58  1  0
 11 59  1  0
 11 60  1  0
 16 61  1  0
 17 62  1  0
 19 63  1  0
 19 64  1  0
 21 65  1  0
 22 66  1  0
 23 67  1  0
 25 68  1  0
 28 69  1  0
 28 70  1  0
 30 71  1  0
 31 72  1  0
 32 73  1  0
 33 74  1  0
 34 75  1  0
 35 76  1  0
 36 77  1  0
 37 78  1  0
M  CHG  2  14  -1  29   1
M  END
>  <UniqueID>  (18) 
18

>  <SMILES>  (18) 
CCCCCCCCCCCC(=O)[N-]c1ccc(Cc2cccc(NC(=O)C[n+]3ccccc3)c2)cc1

>  <Energy>  (18) 
71.14982780906692

>  <Genealogy>  (18) 
CCCCCCCCCCCC(=O)[N-]c1ccc(Cc2cccc(NC(=O)C[n+]3ccccc3)c2)cc1 (protonated)
CCCCCCCCCCCC(=O)[N-]c1ccc(Cc2cccc(NC(=O)C[n+]3ccccc3)c2)cc1 (3D coordinates assigned)
CCCCCCCCCCCC(=O)[N-]c1ccc(Cc2cccc(NC(=O)C[n+]3ccccc3)c2)cc1 (optimized conformer: 71.14982780906692 kcal/mol)

>  <smiles>  (18) 
CCCCCCCCCCCC(=O)Nc1ccc(Cc2cccc(NC(=O)C[n+]3ccccc3)c2)cc1

>  <score_type>  (18) 
oracle

>  <origin>  (18) 
adg

>  <m_score__min__energy>  (18) 
-9.9900000000000002

>  <m_primary>  (18) 
energy

$$$$
18:0
     RDKit          3D

 73 76  0  0  0  0  0  0  0  0999 V2000
   65.7120   33.0660   50.2090 C   0  0  0  0  0  0  0  0  0  0  0  0
   64.7390   32.3290   49.4770 O   0  0  0  0  0  0  0  0  0  0  0  0
   63.8070   32.8920   48.5910 C   0  0  0  0  0  0  0  0  0  0  0  0
   64.1090   33.0950   47.2290 C   0  0  0  0  0  0  0  0  0  0  0  0
   63.1610   33.6550   46.3710 C   0  0  0  0  0  0  0  0  0  0  0  0
   61.9060   34.0220   46.8560 C   0  0  0  0  0  0  0  0  0  0  0  0
   61.5930   33.8280   48.2020 C   0  0  0  0  0  0  0  0  0  0  0  0
   62.5340   33.2640   49.0800 C   0  0  0  0  0  0  0  0  0  0  0  0
   62.1450   33.0020   50.5200 C   0  0  0  0  0  0  0  0  0  0  0  0
   61.8110   31.5230   50.7880 C   0  0  1  0  0  0  0  0  0  0  0  0
   61.8920   30.7610   49.5450 N   0  0  0  0  0  0  0  0  0  0  0  0
   61.2010   29.5300   49.3180 C   0  0  0  0  0  0  0  0  0  0  0  0
   61.0470   28.6960   50.2530 O   0  0  0  0  0  0  0  0  0  0  0  0
   60.5810   29.2740   47.9850 C   0  0  0  0  0  0  0  0  0  0  0  0
   58.7760   29.5400   48.0550 S   0  0  0  0  0  0  0  0  0  0  0  0
   58.3460   28.0590   47.1240 C   0  0  0  0  0  0  0  0  0  0  0  0
   58.8880   26.8260   47.5140 C   0  0  0  0  0  0  0  0  0  0  0  0
   58.5420   25.6570   46.8290 C   0  0  0  0  0  0  0  0  0  0  0  0
   57.6690   25.7130   45.7390 C   0  0  0  0  0  0  0  0  0  0  0  0
   57.1400   26.9410   45.3330 C   0  0  0  0  0  0  0  0  0  0  0  0
   57.4780   28.1170   46.0170 C   0  0  0  0  0  0  0  0  0  0  0  0
   56.8920   29.3540   45.6140 N   0  0  0  0  0  0  0  0  0  0  0  0
   56.5510   29.6840   43.9490 S   0  0  0  0  0  0  0  0  0  0  0  0
   57.1550   28.5970   43.1070 O   0  0  0  0  0  0  0  0  0  0  0  0
   55.0650   29.7060   43.7360 O   0  0  0  0  0  0  0  0  0  0  0  0
   57.2650   31.2530   43.4810 C   0  0  0  0  0  0  0  0  0  0  0  0
   57.6930   32.0140   44.7020 C   0  0  0  0  0  0  0  0  0  0  0  0
   58.7930   31.5810   45.4600 C   0  0  0  0  0  0  0  0  0  0  0  0
   59.2190   32.3220   46.5680 C   0  0  0  0  0  0  0  0  0  0  0  0
   58.5590   33.5030   46.9180 C   0  0  0  0  0  0  0  0  0  0  0  0
   57.4690   33.9450   46.1650 C   0  0  0  0  0  0  0  0  0  0  0  0
   57.0380   33.2060   45.0580 C   0  0  0  0  0  0  0  0  0  0  0  0
   62.7180   30.9310   51.8380 C   0  0  0  0  0  0  0  0  0  0  0  0
   62.9000   31.5390   52.9290 O   0  0  0  0  0  0  0  0  0  0  0  0
   63.3420   29.6600   51.6110 N   0  0  0  0  0  0  0  0  0  0  0  0
   64.3530   29.1130   52.5220 C   0  0  2  0  0  0  0  0  0  0  0  0
   65.5270   30.1030   52.6680 C   0  0  0  0  0  0  0  0  0  0  0  0
   66.4510   30.0720   51.4450 C   0  0  0  0  0  0  0  0  0  0  0  0
   67.0720   28.6830   51.2970 C   0  0  0  0  0  0  0  0  0  0  0  0
   66.0420   27.6490   51.2820 N   0  0  0  0  0  0  0  0  0  0  0  0
   64.8190   27.7710   52.0160 C   0  0  0  0  0  0  0  0  0  0  0  0
   64.0840   26.7600   52.1630 O   0  0  0  0  0  0  0  0  0  0  0  0
   65.5375   32.9338   51.2870 H   0  0  0  0  0  0  0  0  0  0  0  0
   66.7176   32.7010   49.9529 H   0  0  0  0  0  0  0  0  0  0  0  0
   65.6330   34.1328   49.9529 H   0  0  0  0  0  0  0  0  0  0  0  0
   65.0978   32.8104   46.8400 H   0  0  0  0  0  0  0  0  0  0  0  0
   63.4045   33.8073   45.3092 H   0  0  0  0  0  0  0  0  0  0  0  0
   61.1623   34.4647   46.1771 H   0  0  0  0  0  0  0  0  0  0  0  0
   60.6014   34.1190   48.5788 H   0  0  0  0  0  0  0  0  0  0  0  0
   62.9825   33.2965   51.1695 H   0  0  0  0  0  0  0  0  0  0  0  0
   61.2393   33.5896   50.7306 H   0  0  0  0  0  0  0  0  0  0  0  0
   60.7829   31.4686   51.1754 H   0  0  0  0  0  0  0  0  0  0  0  0
   61.0191   29.9596   47.2447 H   0  0  0  0  0  0  0  0  0  0  0  0
   60.7750   28.2300   47.6979 H   0  0  0  0  0  0  0  0  0  0  0  0
   59.5876   26.7781   48.3615 H   0  0  0  0  0  0  0  0  0  0  0  0
   58.9582   24.6904   47.1490 H   0  0  0  0  0  0  0  0  0  0  0  0
   57.3988   24.7920   45.2016 H   0  0  0  0  0  0  0  0  0  0  0  0
   56.4555   26.9850   44.4731 H   0  0  0  0  0  0  0  0  0  0  0  0
   58.1398   31.0765   42.8380 H   0  0  0  0  0  0  0  0  0  0  0  0
   56.5114   31.8419   42.9376 H   0  0  0  0  0  0  0  0  0  0  0  0
   59.3211   30.6570   45.1821 H   0  0  0  0  0  0  0  0  0  0  0  0
   60.0751   31.9741   47.1647 H   0  0  0  0  0  0  0  0  0  0  0  0
   58.8983   34.0851   47.7875 H   0  0  0  0  0  0  0  0  0  0  0  0
   56.9494   34.8741   46.4423 H   0  0  0  0  0  0  0  0  0  0  0  0
   56.1826   33.5592   44.4634 H   0  0  0  0  0  0  0  0  0  0  0  0
   63.1280   29.1530   50.7210 H   0  0  0  0  0  0  0  0  0  0  0  0
   63.9124   28.9686   53.5195 H   0  0  0  0  0  0  0  0  0  0  0  0
   65.1235   31.1197   52.7841 H   0  0  0  0  0  0  0  0  0  0  0  0
   66.1155   29.8091   53.5496 H   0  0  0  0  0  0  0  0  0  0  0  0
   65.8691   30.3094   50.5422 H   0  0  0  0  0  0  0  0  0  0  0  0
   67.2518   30.8144   51.5773 H   0  0  0  0  0  0  0  0  0  0  0  0
   67.6382   28.6405   50.3549 H   0  0  0  0  0  0  0  0  0  0  0  0
   67.7371   28.5030   52.1545 H   0  0  0  0  0  0  0  0  0  0  0  0
  1  2  1  0
  2  3  1  0
  3  4  2  0
  4  5  1  0
  5  6  2  0
  6  7  1  0
  7  8  2  0
  8  9  1  0
  9 10  1  0
 10 11  1  0
 11 12  1  0
 12 13  2  0
 12 14  1  0
 14 15  1  0
 15 16  1  0
 16 17  2  0
 17 18  1  0
 18 19  2  0
 19 20  1  0
 20 21  2  0
 21 22  1  0
 22 23  1  0
 23 24  2  0
 23 25  2  0
 23 26  1  0
 26 27  1  0
 27 28  2  0
 28 29  1  0
 29 30  2  0
 30 31  1  0
 31 32  2  0
 10 33  1  0
 33 34  2  0
 33 35  1  0
 35 36  1  0
 36 37  1  0
 37 38  1  0
 38 39  1  0
 39 40  1  0
 40 41  1  0
 41 42  2  0
  8  3  1  0
 21 16  1  0
 32 27  1  0
 41 36  1  0
  1 43  1  0
  1 44  1  0
  1 45  1  0
  4 46  1  0
  5 47  1  0
  6 48  1  0
  7 49  1  0
  9 50  1  0
  9 51  1  0
 10 52  1  1
 14 53  1  0
 14 54  1  0
 17 55  1  0
 18 56  1  0
 19 57  1  0
 20 58  1  0
 26 59  1  0
 26 60  1  0
 28 61  1  0
 29 62  1  0
 30 63  1  0
 31 64  1  0
 32 65  1  0
 35 66  1  0
 36 67  1  1
 37 68  1  0
 37 69  1  0
 38 70  1  0
 38 71  1  0
 39 72  1  0
 39 73  1  0
M  CHG  3  11  -1  22  -1  40  -1
M  END
>  <UniqueID>  (19) 
19

>  <SMILES>  (19) 
COc1ccccc1C[C@@H]([N-]C(=O)CSc1ccccc1[N-]S(=O)(=O)Cc1ccccc1)C(=O)N[C@@H]1CCC[N-]C1=O

>  <Energy>  (19) 
64.73097458674967

>  <Genealogy>  (19) 
COc1ccccc1CC([N-]C(=O)CSc1ccccc1[N-]S(=O)(=O)Cc1ccccc1)C(=O)NC1CCC[N-]C1=O (protonated)
COc1ccccc1C[C@@H]([N-]C(=O)CSc1ccccc1[N-]S(=O)(=O)Cc1ccccc1)C(=O)N[C@@H]1CCC[N-]C1=O (chirality)
COc1ccccc1C[C@@H]([N-]C(=O)CSc1ccccc1[N-]S(=O)(=O)Cc1ccccc1)C(=O)N[C@@H]1CCC[N-]C1=O (3D coordinates assigned)
COc1ccccc1C[C@@H]([N-]C(=O)CSc1ccccc1[N-]S(=O)(=O)Cc1ccccc1)C(=O)N[C@@H]1CCC[N-]C1=O (nonaromatic ring conformer: 64.73097458674967 kcal/mol)

>  <smiles>  (19) 
COc1ccccc1CC(NC(=O)CSc1ccccc1NS(=O)(=O)Cc1ccccc1)C(=O)NC1CCCNC1=O

>  <score_type>  (19) 
oracle

>  <origin>  (19) 
adg

>  <m_score__min__energy>  (19) 
-13.720000000000001

>  <m_primary>  (19) 
energy

$$$$
19:0
     RDKit          3D

 48 50  0  0  0  0  0  0  0  0999 V2000
   58.1566   32.9351   42.5868 H   0  0  0  0  0  0  0  0  0  0  0  0
   58.1020   32.7240   43.6650 C   0  0  0  0  0  0  0  0  0  0  0  0
   58.3890   33.7240   44.5120 C   0  0  0  0  0  0  0  0  0  0  0  0
   59.3403   34.2587   44.3735 H   0  0  0  0  0  0  0  0  0  0  0  0
   57.4920   34.1620   45.6410 C   0  0  0  0  0  0  0  0  0  0  0  0
   56.4438   33.9855   45.3580 H   0  0  0  0  0  0  0  0  0  0  0  0
   57.6621   35.2319   45.8318 H   0  0  0  0  0  0  0  0  0  0  0  0
   57.8670   33.2260   47.1700 S   0  0  0  0  0  0  0  0  0  0  0  0
   59.2410   34.2970   47.7490 C   0  0  0  0  0  0  0  0  0  0  0  0
   58.8737   34.9438   48.5594 H   0  0  0  0  0  0  0  0  0  0  0  0
   59.5929   34.8993   46.8985 H   0  0  0  0  0  0  0  0  0  0  0  0
   60.3970   33.4780   48.2610 C   0  0  0  0  0  0  0  0  0  0  0  0
   61.5440   33.9910   48.2400 O   0  0  0  0  0  0  0  0  0  0  0  0
   60.2490   32.1620   48.8250 N   0  0  0  0  0  0  0  0  0  0  0  0
   59.3730   31.7380   49.6890 C   0  0  0  0  0  0  0  0  0  0  0  0
   58.9620   30.4560   49.8010 N   0  0  0  0  0  0  0  0  0  0  0  0
   58.0570   30.3050   50.8040 C   0  0  0  0  0  0  0  0  0  0  0  0
   57.6017   29.3352   51.0536 H   0  0  0  0  0  0  0  0  0  0  0  0
   57.7550   31.4720   51.4860 C   0  0  0  0  0  0  0  0  0  0  0  0
   56.5990   31.6190   52.8450 S   0  0  0  0  0  0  0  0  0  0  0  0
   55.6880   30.1120   52.3780 C   0  0  0  0  0  0  0  0  0  0  0  0
   55.8495   29.3352   53.1399 H   0  0  0  0  0  0  0  0  0  0  0  0
   56.0506   29.7518   51.4039 H   0  0  0  0  0  0  0  0  0  0  0  0
   54.2310   30.4200   52.2830 C   0  0  0  0  0  0  0  0  0  0  0  0
   53.2910   29.7090   52.8630 O   0  0  0  0  0  0  0  0  0  0  0  0
   52.1290   30.2620   52.6000 C   0  0  0  0  0  0  0  0  0  0  0  0
   50.8310   29.7160   53.0950 C   0  0  0  0  0  0  0  0  0  0  0  0
   50.8292   29.7152   54.1950 H   0  0  0  0  0  0  0  0  0  0  0  0
   50.0054   30.3431   52.7274 H   0  0  0  0  0  0  0  0  0  0  0  0
   50.7019   28.6873   52.7274 H   0  0  0  0  0  0  0  0  0  0  0  0
   52.3170   31.3930   51.8140 C   0  0  0  0  0  0  0  0  0  0  0  0
   51.3020   32.3180   51.2820 C   0  0  0  0  0  0  0  0  0  0  0  0
   51.0220   32.3300   50.0560 O   0  0  0  0  0  0  0  0  0  0  0  0
   50.6460   33.1930   52.1380 O   0  0  0  0  0  0  0  0  0  0  0  0
   53.6790   31.4960   51.6130 C   0  0  0  0  0  0  0  0  0  0  0  0
   54.2119   32.2699   51.0411 H   0  0  0  0  0  0  0  0  0  0  0  0
   58.6440   32.7360   50.8270 S   0  0  0  0  0  0  0  0  0  0  0  0
   57.7180   31.3600   44.0790 C   0  0  0  0  0  0  0  0  0  0  0  0
   58.4370   30.7290   45.1080 C   0  0  0  0  0  0  0  0  0  0  0  0
   59.2716   31.2535   45.5962 H   0  0  0  0  0  0  0  0  0  0  0  0
   58.0930   29.4340   45.5130 C   0  0  0  0  0  0  0  0  0  0  0  0
   58.6745   28.9330   46.3009 H   0  0  0  0  0  0  0  0  0  0  0  0
   57.0110   28.7750   44.9180 C   0  0  0  0  0  0  0  0  0  0  0  0
   56.7468   27.7549   45.2337 H   0  0  0  0  0  0  0  0  0  0  0  0
   56.2660   29.4140   43.9220 C   0  0  0  0  0  0  0  0  0  0  0  0
   55.4059   28.9017   43.4662 H   0  0  0  0  0  0  0  0  0  0  0  0
   56.6120   30.7030   43.5040 C   0  0  0  0  0  0  0  0  0  0  0  0
   56.0196   31.2049   42.7248 H   0  0  0  0  0  0  0  0  0  0  0  0
  1  2  1  0
  2  3  2  0
  3  4  1  0
  3  5  1  0
  5  6  1  0
  5  7  1  0
  5  8  1  0
  8  9  1  0
  9 10  1  0
  9 11  1  0
  9 12  1  0
 12 13  2  0
 12 14  1  0
 14 15  2  0
 15 16  1  0
 16 17  1  0
 17 18  1  0
 17 19  2  0
 19 20  1  0
 20 21  1  0
 21 22  1  0
 21 23  1  0
 21 24  1  0
 24 25  1  0
 25 26  1  0
 26 27  1  0
 27 28  1  0
 27 29  1  0
 27 30  1  0
 26 31  2  0
 31 32  1  0
 32 33  2  0
 32 34  1  0
 31 35  1  0
 35 36  1  0
 19 37  1  0
  2 38  1  0
 38 39  2  0
 39 40  1  0
 39 41  1  0
 41 42  1  0
 41 43  2  0
 43 44  1  0
 43 45  1  0
 45 46  1  0
 45 47  2  0
 47 48  1  0
 37 15  1  0
 47 38  1  0
 35 24  2  0
M  CHG  2  16  -1  34  -1
M  END
>  <UniqueID>  (20) 
20

>  <SMILES>  (20) 
Cc1oc(CSc2c[n-]/c(=N\C(=O)CSC/C=C\c3ccccc3)s2)cc1C(=O)[O-]

>  <Energy>  (20) 
106.08727221475041

>  <Genealogy>  (20) 
Cc1oc(CSc2c[n-]c(=NC(=O)CSCC=Cc3ccccc3)s2)cc1C(=O)[O-] (protonated)
Cc1oc(CSc2c[n-]/c(=N\C(=O)CSC/C=C\c3ccccc3)s2)cc1C(=O)[O-] (cis-trans isomerization)
Cc1oc(CSc2c[n-]/c(=N\C(=O)CSC/C=C\c3ccccc3)s2)cc1C(=O)[O-] (3D coordinates assigned)
Cc1oc(CSc2c[n-]/c(=N\C(=O)CSC/C=C\c3ccccc3)s2)cc1C(=O)[O-] (optimized conformer: 106.08727221475041 kcal/mol)

>  <smiles>  (20) 
Cc1oc(CSc2c[nH]c(=NC(=O)CSCC=Cc3ccccc3)s2)cc1C(=O)O

>  <score_type>  (20) 
oracle

>  <origin>  (20) 
adg

>  <m_score__min__energy>  (20) 
-13.029999999999999

>  <m_primary>  (20) 
energy

$$$$
20:0
     RDKit          3D

 42 44  0  0  0  0  0  0  0  0999 V2000
   55.1860   26.6550   45.9970 N   0  0  0  0  0  0  0  0  0  0  0  0
   56.8850   26.3480   46.0320 S   0  0  0  0  0  0  0  0  0  0  0  0
   57.3620   26.0340   44.6420 O   0  0  0  0  0  0  0  0  0  0  0  0
   57.1670   25.1640   46.9150 O   0  0  0  0  0  0  0  0  0  0  0  0
   57.7290   27.7640   46.6510 C   0  0  0  0  0  0  0  0  0  0  0  0
   58.4190   27.7020   47.8680 C   0  0  0  0  0  0  0  0  0  0  0  0
   59.0830   28.8300   48.3570 C   0  0  0  0  0  0  0  0  0  0  0  0
   59.0760   30.0210   47.6260 C   0  0  0  0  0  0  0  0  0  0  0  0
   58.4160   30.0870   46.3860 C   0  0  0  0  0  0  0  0  0  0  0  0
   58.3810   31.3000   45.6160 N   0  0  0  0  0  0  0  0  0  0  0  0
   57.3600   31.6220   44.6570 C   0  0  0  0  0  0  0  0  0  0  0  0
   56.3770   30.8530   44.4770 O   0  0  0  0  0  0  0  0  0  0  0  0
   57.4100   32.9260   43.9190 C   0  0  0  0  0  0  0  0  0  0  0  0
   57.0550   34.3230   45.0410 S   0  0  0  0  0  0  0  0  0  0  0  0
   58.5220   34.0950   46.0430 C   0  0  0  0  0  0  0  0  0  0  0  0
   58.4010   33.8240   47.3670 N   0  0  0  0  0  0  0  0  0  0  0  0
   59.4920   33.6260   48.1490 C   0  0  0  0  0  0  0  0  0  0  0  0
   59.3340   33.3980   49.3780 O   0  0  0  0  0  0  0  0  0  0  0  0
   60.7810   33.6960   47.5850 C   0  0  0  0  0  0  0  0  0  0  0  0
   62.0100   33.4740   48.3900 C   0  0  0  0  0  0  0  0  0  0  0  0
   62.9680   32.5300   47.9790 C   0  0  0  0  0  0  0  0  0  0  0  0
   64.1200   32.3140   48.7410 C   0  0  0  0  0  0  0  0  0  0  0  0
   64.3260   33.0340   49.9200 C   0  0  0  0  0  0  0  0  0  0  0  0
   63.3770   33.9690   50.3410 C   0  0  0  0  0  0  0  0  0  0  0  0
   62.2240   34.1880   49.5830 C   0  0  0  0  0  0  0  0  0  0  0  0
   60.8760   33.9930   46.2180 C   0  0  0  0  0  0  0  0  0  0  0  0
   59.7530   34.1840   45.4780 N   0  0  0  0  0  0  0  0  0  0  0  0
   57.7290   28.9570   45.9160 C   0  0  0  0  0  0  0  0  0  0  0  0
   54.9330   27.0900   46.9120 H   0  0  0  0  0  0  0  0  0  0  0  0
   58.4383   26.7629   48.4405 H   0  0  0  0  0  0  0  0  0  0  0  0
   59.6126   28.7804   49.3198 H   0  0  0  0  0  0  0  0  0  0  0  0
   59.5886   30.9101   48.0220 H   0  0  0  0  0  0  0  0  0  0  0  0
   59.0610   32.0540   45.8690 H   0  0  0  0  0  0  0  0  0  0  0  0
   58.4129   33.0570   43.4866 H   0  0  0  0  0  0  0  0  0  0  0  0
   56.6488   32.9103   43.1251 H   0  0  0  0  0  0  0  0  0  0  0  0
   62.8100   31.9583   47.0526 H   0  0  0  0  0  0  0  0  0  0  0  0
   64.8657   31.5755   48.4114 H   0  0  0  0  0  0  0  0  0  0  0  0
   65.2346   32.8650   50.5166 H   0  0  0  0  0  0  0  0  0  0  0  0
   63.5380   34.5338   51.2711 H   0  0  0  0  0  0  0  0  0  0  0  0
   61.4790   34.9233   49.9212 H   0  0  0  0  0  0  0  0  0  0  0  0
   61.8648   34.0717   45.7425 H   0  0  0  0  0  0  0  0  0  0  0  0
   57.1852   29.0084   44.9612 H   0  0  0  0  0  0  0  0  0  0  0  0
  1  2  1  0
  2  3  2  0
  2  4  2  0
  2  5  1  0
  5  6  2  0
  6  7  1  0
  7  8  2  0
  8  9  1  0
  9 10  1  0
 10 11  1  0
 11 12  2  0
 11 13  1  0
 13 14  1  0
 14 15  1  0
 15 16  2  0
 16 17  1  0
 17 18  2  0
 17 19  1  0
 19 20  1  0
 20 21  2  0
 21 22  1  0
 22 23  2  0
 23 24  1  0
 24 25  2  0
 19 26  2  0
 26 27  1  0
  9 28  2  0
 28  5  1  0
 27 15  1  0
 25 20  1  0
  1 29  1  0
  6 30  1  0
  7 31  1  0
  8 32  1  0
 10 33  1  0
 13 34  1  0
 13 35  1  0
 21 36  1  0
 22 37  1  0
 23 38  1  0
 24 39  1  0
 25 40  1  0
 26 41  1  0
 28 42  1  0
M  CHG  2   1  -1  27  -1
M  END
>  <UniqueID>  (21) 
21

>  <SMILES>  (21) 
[NH-]S(=O)(=O)c1cccc(NC(=O)CSc2nc(=O)c(-c3ccccc3)c[n-]2)c1

>  <Energy>  (21) 
47.37325913829082

>  <Genealogy>  (21) 
[NH-]S(=O)(=O)c1cccc(NC(=O)CSc2nc(=O)c(-c3ccccc3)c[n-]2)c1 (protonated)
[NH-]S(=O)(=O)c1cccc(NC(=O)CSc2nc(=O)c(-c3ccccc3)c[n-]2)c1 (3D coordinates assigned)
[NH-]S(=O)(=O)c1cccc(NC(=O)CSc2nc(=O)c(-c3ccccc3)c[n-]2)c1 (optimized conformer: 47.37325913829082 kcal/mol)

>  <smiles>  (21) 
NS(=O)(=O)c1cccc(NC(=O)CSc2nc(=O)c(-c3ccccc3)c[nH]2)c1

>  <score_type>  (21) 
oracle

>  <origin>  (21) 
adg

>  <m_score__min__energy>  (21) 
-13.4

>  <m_primary>  (21) 
energy

$$$$
21:0
     RDKit          3D

 65 68  0  0  0  0  0  0  0  0999 V2000
   61.1020   30.4510   49.4710 C   0  0  0  0  0  0  0  0  0  0  0  0
   61.2440   31.8630   49.3240 O   0  0  0  0  0  0  0  0  0  0  0  0
   60.6820   32.6230   48.2850 C   0  0  0  0  0  0  0  0  0  0  0  0
   59.2820   32.6790   48.1100 C   0  0  0  0  0  0  0  0  0  0  0  0
   58.7160   33.4220   47.0660 C   0  0  0  0  0  0  0  0  0  0  0  0
   59.5500   34.1300   46.1930 C   0  0  0  0  0  0  0  0  0  0  0  0
   60.9410   34.0890   46.3610 C   0  0  0  0  0  0  0  0  0  0  0  0
   61.5200   33.3470   47.3980 C   0  0  0  0  0  0  0  0  0  0  0  0
   62.9240   33.3900   47.4990 O   0  0  0  0  0  0  0  0  0  0  0  0
   63.7790   32.3230   47.8960 C   0  0  0  0  0  0  0  0  0  0  0  0
   58.9180   34.8970   45.0700 C   0  0  0  0  0  0  0  0  0  0  0  0
   57.8000   34.1320   44.4810 N   0  0  0  0  0  0  0  0  0  0  0  0
   58.2350   32.8820   43.8080 C   0  0  0  0  0  0  0  0  0  0  0  0
   57.3400   31.6800   44.1920 C   0  0  0  0  0  0  0  0  0  0  0  0
   58.0670   30.6990   45.0730 C   0  0  0  0  0  0  0  0  0  0  0  0
   57.3740   29.6500   45.7020 C   0  0  0  0  0  0  0  0  0  0  0  0
   58.0530   28.7350   46.5080 C   0  0  0  0  0  0  0  0  0  0  0  0
   59.4380   28.8730   46.7210 C   0  0  0  0  0  0  0  0  0  0  0  0
   60.1740   27.9510   47.5380 N   0  0  0  0  0  0  0  0  0  0  0  0
   59.7050   26.6690   47.9870 C   0  0  0  0  0  0  0  0  0  0  0  0
   60.0050   26.2880   49.1520 O   0  0  0  0  0  0  0  0  0  0  0  0
   58.8260   25.8240   47.1440 C   0  0  0  0  0  0  0  0  0  0  0  0
   57.4790   25.6310   47.4920 C   0  0  0  0  0  0  0  0  0  0  0  0
   56.6540   24.8170   46.7090 C   0  0  0  0  0  0  0  0  0  0  0  0
   57.1510   24.2010   45.5540 C   0  0  0  0  0  0  0  0  0  0  0  0
   56.2730   23.3690   44.7840 N   0  0  0  0  0  0  0  0  0  0  0  0
   56.7280   21.9080   43.9700 S   0  0  0  0  0  0  0  0  0  0  0  0
   56.2850   20.4980   44.9640 C   0  0  0  0  0  0  0  0  0  0  0  0
   58.2050   21.9130   43.6940 O   0  0  0  0  0  0  0  0  0  0  0  0
   55.9900   21.8300   42.6650 O   0  0  0  0  0  0  0  0  0  0  0  0
   58.4900   24.4210   45.1830 C   0  0  0  0  0  0  0  0  0  0  0  0
   59.3190   25.2260   45.9710 C   0  0  0  0  0  0  0  0  0  0  0  0
   60.1330   29.9090   46.0810 C   0  0  0  0  0  0  0  0  0  0  0  0
   59.4560   30.8150   45.2620 C   0  0  0  0  0  0  0  0  0  0  0  0
   56.7270   33.8890   45.4810 C   0  0  0  0  0  0  0  0  0  0  0  0
   57.2200   33.4810   46.9020 C   0  0  0  0  0  0  0  0  0  0  0  0
   61.0762   30.1944   50.5404 H   0  0  0  0  0  0  0  0  0  0  0  0
   60.1665   30.1248   48.9930 H   0  0  0  0  0  0  0  0  0  0  0  0
   61.9538   29.9451   48.9930 H   0  0  0  0  0  0  0  0  0  0  0  0
   58.6266   32.1315   48.8032 H   0  0  0  0  0  0  0  0  0  0  0  0
   61.5873   34.6478   45.6682 H   0  0  0  0  0  0  0  0  0  0  0  0
   63.8184   32.2739   48.9942 H   0  0  0  0  0  0  0  0  0  0  0  0
   63.3887   31.3738   47.5003 H   0  0  0  0  0  0  0  0  0  0  0  0
   64.7905   32.4970   47.5003 H   0  0  0  0  0  0  0  0  0  0  0  0
   58.5372   35.8542   45.4556 H   0  0  0  0  0  0  0  0  0  0  0  0
   59.6750   35.0737   44.2917 H   0  0  0  0  0  0  0  0  0  0  0  0
   58.1859   33.0286   42.7189 H   0  0  0  0  0  0  0  0  0  0  0  0
   59.2625   32.6597   44.1317 H   0  0  0  0  0  0  0  0  0  0  0  0
   56.4551   32.0524   44.7288 H   0  0  0  0  0  0  0  0  0  0  0  0
   57.0519   31.1595   43.2667 H   0  0  0  0  0  0  0  0  0  0  0  0
   56.2881   29.5496   45.5578 H   0  0  0  0  0  0  0  0  0  0  0  0
   57.5053   27.9047   46.9776 H   0  0  0  0  0  0  0  0  0  0  0  0
   57.0700   26.1235   48.3866 H   0  0  0  0  0  0  0  0  0  0  0  0
   55.6058   24.6594   47.0031 H   0  0  0  0  0  0  0  0  0  0  0  0
   56.3673   20.7599   46.0292 H   0  0  0  0  0  0  0  0  0  0  0  0
   55.2502   20.2009   44.7383 H   0  0  0  0  0  0  0  0  0  0  0  0
   56.9639   19.6624   44.7383 H   0  0  0  0  0  0  0  0  0  0  0  0
   58.8873   23.9573   44.2680 H   0  0  0  0  0  0  0  0  0  0  0  0
   60.3641   25.3924   45.6709 H   0  0  0  0  0  0  0  0  0  0  0  0
   61.2190   30.0088   46.2250 H   0  0  0  0  0  0  0  0  0  0  0  0
   60.0112   31.6227   44.7626 H   0  0  0  0  0  0  0  0  0  0  0  0
   56.1376   34.8127   45.5781 H   0  0  0  0  0  0  0  0  0  0  0  0
   56.1476   33.0337   45.1032 H   0  0  0  0  0  0  0  0  0  0  0  0
   56.8267   34.2132   47.6226 H   0  0  0  0  0  0  0  0  0  0  0  0
   56.8523   32.4583   47.0722 H   0  0  0  0  0  0  0  0  0  0  0  0
  1  2  1  0
  2  3  1  0
  3  4  2  0
  4  5  1  0
  5  6  2  0
  6  7  1  0
  7  8  2  0
  8  9  1  0
  9 10  1  0
  6 11  1  0
 11 12  1  0
 12 13  1  0
 13 14  1  0
 14 15  1  0
 15 16  2  0
 16 17  1  0
 17 18  2  0
 18 19  1  0
 19 20  1  0
 20 21  2  0
 20 22  1  0
 22 23  2  0
 23 24  1  0
 24 25  2  0
 25 26  1  0
 26 27  1  0
 27 28  1  0
 27 29  2  0
 27 30  2  0
 25 31  1  0
 31 32  2  0
 18 33  1  0
 33 34  2  0
 12 35  1  0
 35 36  1  0
  8  3  1  0
 34 15  1  0
 36  5  1  0
 32 22  1  0
  1 37  1  0
  1 38  1  0
  1 39  1  0
  4 40  1  0
  7 41  1  0
 10 42  1  0
 10 43  1  0
 10 44  1  0
 11 45  1  0
 11 46  1  0
 13 47  1  0
 13 48  1  0
 14 49  1  0
 14 50  1  0
 16 51  1  0
 17 52  1  0
 23 53  1  0
 24 54  1  0
 28 55  1  0
 28 56  1  0
 28 57  1  0
 31 58  1  0
 32 59  1  0
 33 60  1  0
 34 61  1  0
 35 62  1  0
 35 63  1  0
 36 64  1  0
 36 65  1  0
M  CHG  2  19  -1  26  -1
M  END
>  <UniqueID>  (22) 
22

>  <SMILES>  (22) 
COc1cc2c(cc1OC)CN(CCc1ccc([N-]C(=O)c3ccc([N-]S(C)(=O)=O)cc3)cc1)CC2

>  <Energy>  (22) 
87.57248265646317

>  <Genealogy>  (22) 
COc1cc2c(cc1OC)CN(CCc1ccc([N-]C(=O)c3ccc([N-]S(C)(=O)=O)cc3)cc1)CC2 (protonated)
COc1cc2c(cc1OC)CN(CCc1ccc([N-]C(=O)c3ccc([N-]S(C)(=O)=O)cc3)cc1)CC2 (3D coordinates assigned)
COc1cc2c(cc1OC)CN(CCc1ccc([N-]C(=O)c3ccc([N-]S(C)(=O)=O)cc3)cc1)CC2 (nonaromatic ring conformer: 87.57248265646317 kcal/mol)

>  <smiles>  (22) 
COc1cc2c(cc1OC)CN(CCc1ccc(NC(=O)c3ccc(NS(C)(=O)=O)cc3)cc1)CC2

>  <score_type>  (22) 
oracle

>  <origin>  (22) 
adg

>  <m_score__min__energy>  (22) 
-12.51

>  <m_primary>  (22) 
energy

$$$$
22:0
     RDKit          3D

 42 44  0  0  0  0  0  0  0  0999 V2000
   55.3340   26.7160   45.9760 N   0  0  0  0  0  0  0  0  0  0  0  0
   56.9660   27.2810   45.9830 S   0  0  0  0  0  0  0  0  0  0  0  0
   57.8340   26.3230   45.2170 O   0  0  0  0  0  0  0  0  0  0  0  0
   57.4640   27.3570   47.4000 O   0  0  0  0  0  0  0  0  0  0  0  0
   57.0360   28.8730   45.2360 C   0  0  0  0  0  0  0  0  0  0  0  0
   56.2020   29.1830   44.1530 C   0  0  0  0  0  0  0  0  0  0  0  0
   56.2570   30.4510   43.5670 C   0  0  0  0  0  0  0  0  0  0  0  0
   57.1510   31.4080   44.0490 C   0  0  0  0  0  0  0  0  0  0  0  0
   58.0170   31.0990   45.1080 C   0  0  0  0  0  0  0  0  0  0  0  0
   58.9080   32.1070   45.6090 N   0  0  0  0  0  0  0  0  0  0  0  0
   58.6140   33.5180   45.6450 C   0  0  0  0  0  0  0  0  0  0  0  0
   57.1150   34.0880   45.2920 S   0  0  0  0  0  0  0  0  0  0  0  0
   59.6340   34.4620   46.0030 N   0  0  0  0  0  0  0  0  0  0  0  0
   60.6730   34.1990   46.9600 C   0  0  0  0  0  0  0  0  0  0  0  0
   60.3830   34.2670   48.3300 C   0  0  0  0  0  0  0  0  0  0  0  0
   61.3720   33.9850   49.2780 C   0  0  0  0  0  0  0  0  0  0  0  0
   62.6610   33.6220   48.8660 C   0  0  0  0  0  0  0  0  0  0  0  0
   63.8990   33.2570   50.0620 S   0  0  0  0  0  0  0  0  0  0  0  0
   65.2510   33.3730   49.4180 O   0  0  0  0  0  0  0  0  0  0  0  0
   63.7920   34.2250   51.2080 O   0  0  0  0  0  0  0  0  0  0  0  0
   63.6610   31.6450   50.6580 N   0  0  0  0  0  0  0  0  0  0  0  0
   62.5490   30.9830   50.5540 C   0  0  0  0  0  0  0  0  0  0  0  0
   61.8900   30.5120   51.6310 N   0  0  0  0  0  0  0  0  0  0  0  0
   60.7540   29.8540   51.2740 C   0  0  0  0  0  0  0  0  0  0  0  0
   60.5050   29.8000   49.9070 C   0  0  0  0  0  0  0  0  0  0  0  0
   61.7530   30.6050   49.1160 S   0  0  0  0  0  0  0  0  0  0  0  0
   62.9470   33.5210   47.4990 C   0  0  0  0  0  0  0  0  0  0  0  0
   61.9590   33.8010   46.5500 C   0  0  0  0  0  0  0  0  0  0  0  0
   57.9370   29.8340   45.7140 C   0  0  0  0  0  0  0  0  0  0  0  0
   54.8780   27.0880   46.8380 H   0  0  0  0  0  0  0  0  0  0  0  0
   55.5034   28.4277   43.7637 H   0  0  0  0  0  0  0  0  0  0  0  0
   55.5940   30.6950   42.7239 H   0  0  0  0  0  0  0  0  0  0  0  0
   57.1766   32.4100   43.5959 H   0  0  0  0  0  0  0  0  0  0  0  0
   59.8170   31.7750   46.0010 H   0  0  0  0  0  0  0  0  0  0  0  0
   59.6120   35.4030   45.5480 H   0  0  0  0  0  0  0  0  0  0  0  0
   59.3713   34.5439   48.6614 H   0  0  0  0  0  0  0  0  0  0  0  0
   61.1370   34.0484   50.3507 H   0  0  0  0  0  0  0  0  0  0  0  0
   60.0804   29.3972   52.0140 H   0  0  0  0  0  0  0  0  0  0  0  0
   59.6423   29.3154   49.4264 H   0  0  0  0  0  0  0  0  0  0  0  0
   63.9528   33.2202   47.1704 H   0  0  0  0  0  0  0  0  0  0  0  0
   62.1880   33.7097   45.4780 H   0  0  0  0  0  0  0  0  0  0  0  0
   58.5861   29.5962   46.5696 H   0  0  0  0  0  0  0  0  0  0  0  0
  1  2  1  0
  2  3  2  0
  2  4  2  0
  2  5  1  0
  5  6  2  0
  6  7  1  0
  7  8  2  0
  8  9  1  0
  9 10  1  0
 10 11  1  0
 11 12  2  0
 11 13  1  0
 13 14  1  0
 14 15  2  0
 15 16  1  0
 16 17  2  0
 17 18  1  0
 18 19  2  0
 18 20  2  0
 18 21  1  0
 21 22  2  3
 22 23  1  0
 23 24  1  0
 24 25  2  0
 25 26  1  0
 17 27  1  0
 27 28  2  0
  9 29  2  0
 29  5  1  0
 28 14  1  0
 26 22  1  0
  1 30  1  0
  6 31  1  0
  7 32  1  0
  8 33  1  0
 10 34  1  0
 13 35  1  0
 15 36  1  0
 16 37  1  0
 24 38  1  0
 25 39  1  0
 27 40  1  0
 28 41  1  0
 29 42  1  0
M  CHG  2   1  -1  23  -1
M  END
>  <UniqueID>  (23) 
23

>  <SMILES>  (23) 
[NH-]S(=O)(=O)c1cccc(NC(=S)Nc2ccc(S(=O)(=O)N=c3[n-]ccs3)cc2)c1

>  <Energy>  (23) 
88.94030192552584

>  <Genealogy>  (23) 
[NH-]S(=O)(=O)c1cccc(NC(=S)Nc2ccc(S(=O)(=O)N=c3[n-]ccs3)cc2)c1 (protonated)
[NH-]S(=O)(=O)c1cccc(NC(=S)Nc2ccc(S(=O)(=O)N=c3[n-]ccs3)cc2)c1 (3D coordinates assigned)
[NH-]S(=O)(=O)c1cccc(NC(=S)Nc2ccc(S(=O)(=O)N=c3[n-]ccs3)cc2)c1 (optimized conformer: 88.94030192552584 kcal/mol)

>  <smiles>  (23) 
NS(=O)(=O)c1cccc(NC(=S)Nc2ccc(S(=O)(=O)N=c3[nH]ccs3)cc2)c1

>  <score_type>  (23) 
oracle

>  <origin>  (23) 
adg

>  <m_score__min__energy>  (23) 
-13.65

>  <m_primary>  (23) 
energy

$$$$
23:0
     RDKit          3D

 61 64  0  0  0  0  0  0  0  0999 V2000
   52.8440   23.7840   45.0940 C   0  0  0  0  0  0  0  0  0  0  0  0
   54.0000   24.6210   45.5320 C   0  0  0  0  0  0  0  0  0  0  0  0
   53.9660   25.9680   45.6190 N   0  0  0  0  0  0  0  0  0  0  0  0
   55.1490   26.3580   45.9990 O   0  0  0  0  0  0  0  0  0  0  0  0
   55.9480   25.3270   46.1500 C   0  0  0  0  0  0  0  0  0  0  0  0
   57.1870   25.3980   46.5340 N   0  0  0  0  0  0  0  0  0  0  0  0
   58.4610   25.8800   45.4640 S   0  0  0  0  0  0  0  0  0  0  0  0
   59.7570   25.2630   45.9100 O   0  0  0  0  0  0  0  0  0  0  0  0
   58.1530   25.4260   44.0640 O   0  0  0  0  0  0  0  0  0  0  0  0
   58.5980   27.6350   45.4860 C   0  0  0  0  0  0  0  0  0  0  0  0
   59.7800   28.2540   45.9190 C   0  0  0  0  0  0  0  0  0  0  0  0
   59.8830   29.6480   45.9230 C   0  0  0  0  0  0  0  0  0  0  0  0
   58.8120   30.4420   45.4870 C   0  0  0  0  0  0  0  0  0  0  0  0
   58.9470   31.8750   45.5050 N   0  0  0  0  0  0  0  0  0  0  0  0
   58.2560   32.7610   44.6080 C   0  0  0  0  0  0  0  0  0  0  0  0
   57.5700   32.3020   43.6540 O   0  0  0  0  0  0  0  0  0  0  0  0
   58.3410   34.2480   44.8070 C   0  0  0  0  0  0  0  0  0  0  0  0
   58.4460   34.6070   46.2950 C   0  0  0  0  0  0  0  0  0  0  0  0
   59.7950   34.3550   46.7910 N   0  0  0  0  0  0  0  0  0  0  0  0
   60.0980   33.4320   47.8460 C   0  0  0  0  0  0  0  0  0  0  0  0
   59.2220   32.6080   48.2290 O   0  0  0  0  0  0  0  0  0  0  0  0
   61.4300   33.4480   48.4940 C   0  0  0  0  0  0  0  0  0  0  0  0
   61.6450   34.1740   49.6780 C   0  0  0  0  0  0  0  0  0  0  0  0
   62.8980   34.1680   50.2980 C   0  0  0  0  0  0  0  0  0  0  0  0
   63.9660   33.4360   49.7470 C   0  0  0  0  0  0  0  0  0  0  0  0
   65.2950   33.4160   50.4130 C   0  0  0  0  0  0  0  0  0  0  0  0
   65.5540   34.2560   51.5140 C   0  0  0  0  0  0  0  0  0  0  0  0
   66.8020   34.2360   52.1410 C   0  0  0  0  0  0  0  0  0  0  0  0
   67.8060   33.3820   51.6770 C   0  0  0  0  0  0  0  0  0  0  0  0
   67.5630   32.5450   50.5860 C   0  0  0  0  0  0  0  0  0  0  0  0
   66.3170   32.5610   49.9550 C   0  0  0  0  0  0  0  0  0  0  0  0
   63.7530   32.7160   48.5580 C   0  0  0  0  0  0  0  0  0  0  0  0
   62.5000   32.7190   47.9410 C   0  0  0  0  0  0  0  0  0  0  0  0
   57.6140   29.8190   45.0940 C   0  0  0  0  0  0  0  0  0  0  0  0
   57.5120   28.4240   45.0880 C   0  0  0  0  0  0  0  0  0  0  0  0
   55.2690   24.1710   45.8390 C   0  0  0  0  0  0  0  0  0  0  0  0
   55.7530   22.7570   45.9330 C   0  0  0  0  0  0  0  0  0  0  0  0
   52.3136   23.4000   45.9779 H   0  0  0  0  0  0  0  0  0  0  0  0
   52.1566   24.3951   44.4907 H   0  0  0  0  0  0  0  0  0  0  0  0
   53.2100   22.9402   44.4907 H   0  0  0  0  0  0  0  0  0  0  0  0
   60.6284   27.6405   46.2564 H   0  0  0  0  0  0  0  0  0  0  0  0
   60.8108   30.1259   46.2706 H   0  0  0  0  0  0  0  0  0  0  0  0
   59.6680   32.2870   46.1390 H   0  0  0  0  0  0  0  0  0  0  0  0
   59.2298   34.6293   44.2830 H   0  0  0  0  0  0  0  0  0  0  0  0
   57.4252   34.7048   44.4038 H   0  0  0  0  0  0  0  0  0  0  0  0
   58.2053   35.6721   46.4276 H   0  0  0  0  0  0  0  0  0  0  0  0
   57.7383   33.9832   46.8607 H   0  0  0  0  0  0  0  0  0  0  0  0
   60.8203   34.7519   50.1207 H   0  0  0  0  0  0  0  0  0  0  0  0
   63.0504   34.7406   51.2248 H   0  0  0  0  0  0  0  0  0  0  0  0
   64.7683   34.9320   51.8823 H   0  0  0  0  0  0  0  0  0  0  0  0
   66.9948   34.8936   53.0015 H   0  0  0  0  0  0  0  0  0  0  0  0
   68.7885   33.3691   52.1715 H   0  0  0  0  0  0  0  0  0  0  0  0
   68.3539   31.8722   50.2230 H   0  0  0  0  0  0  0  0  0  0  0  0
   66.1323   31.9014   49.0943 H   0  0  0  0  0  0  0  0  0  0  0  0
   64.5801   32.1457   48.1101 H   0  0  0  0  0  0  0  0  0  0  0  0
   62.3477   32.1464   47.0142 H   0  0  0  0  0  0  0  0  0  0  0  0
   56.7527   30.4319   44.7898 H   0  0  0  0  0  0  0  0  0  0  0  0
   56.5746   27.9448   44.7692 H   0  0  0  0  0  0  0  0  0  0  0  0
   55.8504   22.4724   46.9911 H   0  0  0  0  0  0  0  0  0  0  0  0
   55.0323   22.0891   45.4385 H   0  0  0  0  0  0  0  0  0  0  0  0
   56.7318   22.6708   45.4385 H   0  0  0  0  0  0  0  0  0  0  0  0
  1  2  1  0
  2  3  1  0
  3  4  1  0
  4  5  1  0
  5  6  2  3
  6  7  1  0
  7  8  2  0
  7  9  2  0
  7 10  1  0
 10 11  2  0
 11 12  1  0
 12 13  2  0
 13 14  1  0
 14 15  1  0
 15 16  2  0
 15 17  1  0
 17 18  1  0
 18 19  1  0
 19 20  1  0
 20 21  2  0
 20 22  1  0
 22 23  2  0
 23 24  1  0
 24 25  2  0
 25 26  1  0
 26 27  2  0
 27 28  1  0
 28 29  2  0
 29 30  1  0
 30 31  2  0
 25 32  1  0
 32 33  2  0
 13 34  1  0
 34 35  2  0
  5 36  1  0
 36 37  1  0
 36  2  2  0
 35 10  1  0
 33 22  1  0
 31 26  1  0
  1 38  1  0
  1 39  1  0
  1 40  1  0
 11 41  1  0
 12 42  1  0
 14 43  1  0
 17 44  1  0
 17 45  1  0
 18 46  1  0
 18 47  1  0
 23 48  1  0
 24 49  1  0
 27 50  1  0
 28 51  1  0
 29 52  1  0
 30 53  1  0
 31 54  1  0
 32 55  1  0
 33 56  1  0
 34 57  1  0
 35 58  1  0
 37 59  1  0
 37 60  1  0
 37 61  1  0
M  CHG  2   3  -1  19  -1
M  END
>  <UniqueID>  (24) 
24

>  <SMILES>  (24) 
Cc1[n-]oc(=NS(=O)(=O)c2ccc(NC(=O)CC[N-]C(=O)c3ccc(-c4ccccc4)cc3)cc2)c1C

>  <Energy>  (24) 
103.98655383371997

>  <Genealogy>  (24) 
Cc1[n-]oc(=NS(=O)(=O)c2ccc(NC(=O)CC[N-]C(=O)c3ccc(-c4ccccc4)cc3)cc2)c1C (protonated)
Cc1[n-]oc(=NS(=O)(=O)c2ccc(NC(=O)CC[N-]C(=O)c3ccc(-c4ccccc4)cc3)cc2)c1C (3D coordinates assigned)
Cc1[n-]oc(=NS(=O)(=O)c2ccc(NC(=O)CC[N-]C(=O)c3ccc(-c4ccccc4)cc3)cc2)c1C (optimized conformer: 103.98655383371997 kcal/mol)

>  <smiles>  (24) 
Cc1[nH]oc(=NS(=O)(=O)c2ccc(NC(=O)CCNC(=O)c3ccc(-c4ccccc4)cc3)cc2)c1C

>  <score_type>  (24) 
oracle

>  <origin>  (24) 
adg

>  <m_score__min__energy>  (24) 
-14.539999999999999

>  <m_primary>  (24) 
energy

$$$$
24:0
     RDKit          3D

 23 24  0  0  0  0  0  0  0  0999 V2000
   59.7836   33.1003   50.4304 H   0  0  0  0  0  0  0  0  0  0  0  0
   59.6540   33.3370   49.3640 C   0  0  0  0  0  0  0  0  0  0  0  0
   58.4760   32.6920   48.3490 S   0  0  0  0  0  0  0  0  0  0  0  0
   58.9570   33.5300   46.9750 C   0  0  0  0  0  0  0  0  0  0  0  0
   58.1810   33.4160   45.4060 S   0  0  0  0  0  0  0  0  0  0  0  0
   56.7070   33.6900   45.5290 O   0  0  0  0  0  0  0  0  0  0  0  0
   58.7930   34.4330   44.4860 O   0  0  0  0  0  0  0  0  0  0  0  0
   58.4190   31.8290   44.7390 N   0  0  0  0  0  0  0  0  0  0  0  0
   57.5710   30.8390   44.7600 C   0  0  0  0  0  0  0  0  0  0  0  0
   56.3550   30.8700   44.0490 C   0  0  0  0  0  0  0  0  0  0  0  0
   56.0910   31.7495   43.4434 H   0  0  0  0  0  0  0  0  0  0  0  0
   55.4870   29.7790   44.1170 C   0  0  0  0  0  0  0  0  0  0  0  0
   54.5371   29.7998   43.5627 H   0  0  0  0  0  0  0  0  0  0  0  0
   55.8100   28.6910   44.8650 N   0  0  0  0  0  0  0  0  0  0  0  0
   55.1490   27.8830   44.9060 H   0  0  0  0  0  0  0  0  0  0  0  0
   56.9760   28.6310   45.5610 C   0  0  0  0  0  0  0  0  0  0  0  0
   57.2118   27.7369   46.1568 H   0  0  0  0  0  0  0  0  0  0  0  0
   57.8780   29.7000   45.5240 C   0  0  0  0  0  0  0  0  0  0  0  0
   59.5090   29.5730   46.5240 Br  0  0  0  0  0  0  0  0  0  0  0  0
   60.0450   34.3290   47.2880 C   0  0  0  0  0  0  0  0  0  0  0  0
   60.5492   34.9814   46.5599 H   0  0  0  0  0  0  0  0  0  0  0  0
   60.4350   34.2190   48.6270 C   0  0  0  0  0  0  0  0  0  0  0  0
   61.2799   34.7778   49.0558 H   0  0  0  0  0  0  0  0  0  0  0  0
  1  2  1  0
  2  3  1  0
  3  4  1  0
  4  5  1  0
  5  6  2  0
  5  7  2  0
  5  8  1  0
  8  9  2  0
  9 10  1  0
 10 11  1  0
 10 12  2  0
 12 13  1  0
 12 14  1  0
 14 15  1  0
 14 16  1  0
 16 17  1  0
 16 18  2  0
 18 19  1  0
  4 20  2  0
 20 21  1  0
 20 22  1  0
 22 23  1  0
 22  2  2  0
 18  9  1  0
M  END
>  <UniqueID>  (25) 
25

>  <SMILES>  (25) 
O=S(=O)(/N=c1\cc[nH]cc1Br)c1cccs1

>  <Energy>  (25) 
55.49266165831078

>  <Genealogy>  (25) 
O=S(=O)(/N=c1\cc[nH]cc1Br)c1cccs1 (cis-trans isomerization)
O=S(=O)(/N=c1\cc[nH]cc1Br)c1cccs1 (3D coordinates assigned)
O=S(=O)(/N=c1\cc[nH]cc1Br)c1cccs1 (optimized conformer: 55.49266165831078 kcal/mol)

>  <smiles>  (25) 
O=S(=O)(N=c1cc[nH]cc1Br)c1cccs1

>  <score_type>  (25) 
oracle

>  <origin>  (25) 
adg

>  <m_score__min__energy>  (25) 
-6.8499999999999996

>  <m_primary>  (25) 
energy

$$$$
25:0
     RDKit          3D

 77 81  0  0  0  0  0  0  0  0999 V2000
   59.1008   35.3569   48.4931 H   0  0  0  0  0  0  0  0  0  0  0  0
   59.6590   34.4110   48.5540 C   0  0  0  0  0  0  0  0  0  0  0  0
   59.8650   33.8400   49.9050 C   0  0  0  0  0  0  0  0  0  0  0  0
   59.2940   34.3950   50.8820 O   0  0  0  0  0  0  0  0  0  0  0  0
   60.6520   32.6600   50.1150 N   0  0  0  0  0  0  0  0  0  0  0  0
   60.2960   31.3180   49.7450 C   0  0  0  0  0  0  0  0  0  0  0  0
   58.9660   30.8630   49.8250 C   0  0  0  0  0  0  0  0  0  0  0  0
   58.1732   31.5446   50.1669 H   0  0  0  0  0  0  0  0  0  0  0  0
   58.6500   29.5500   49.4720 C   0  0  0  0  0  0  0  0  0  0  0  0
   57.6079   29.2021   49.5273 H   0  0  0  0  0  0  0  0  0  0  0  0
   59.6540   28.6780   49.0490 C   0  0  0  0  0  0  0  0  0  0  0  0
   59.3996   27.6475   48.7604 H   0  0  0  0  0  0  0  0  0  0  0  0
   60.9810   29.1100   48.9910 C   0  0  0  0  0  0  0  0  0  0  0  0
   61.7689   28.4163   48.6624 H   0  0  0  0  0  0  0  0  0  0  0  0
   61.3150   30.4320   49.3520 C   0  0  0  0  0  0  0  0  0  0  0  0
   62.6400   30.8970   49.3270 O   0  0  0  0  0  0  0  0  0  0  0  0
   63.3710   31.3090   50.4790 C   0  0  0  0  0  0  0  0  0  0  0  0
   62.8288   31.0034   51.3860 H   0  0  0  0  0  0  0  0  0  0  0  0
   64.3652   30.8384   50.4701 H   0  0  0  0  0  0  0  0  0  0  0  0
   63.4832   32.4032   50.4701 H   0  0  0  0  0  0  0  0  0  0  0  0
   60.0910   33.8810   47.3910 C   0  0  0  0  0  0  0  0  0  0  0  0
   59.2370   33.0440   46.5270 C   0  0  0  0  0  0  0  0  0  0  0  0
   58.1790   33.6320   45.7860 C   0  0  0  0  0  0  0  0  0  0  0  0
   57.9901   34.7126   45.8675 H   0  0  0  0  0  0  0  0  0  0  0  0
   57.3700   32.8430   44.9480 C   0  0  0  0  0  0  0  0  0  0  0  0
   56.5478   33.2880   44.3684 H   0  0  0  0  0  0  0  0  0  0  0  0
   57.6450   31.4800   44.8770 C   0  0  0  0  0  0  0  0  0  0  0  0
   57.0230   30.5580   44.1200 N   0  0  0  0  0  0  0  0  0  0  0  0
   57.7210   29.4230   44.3960 C   0  0  0  0  0  0  0  0  0  0  0  0
   57.4420   28.1830   43.8110 O   0  0  0  0  0  0  0  0  0  0  0  0
   58.4160   27.4140   43.1100 C   0  0  0  0  0  0  0  0  0  0  0  0
   59.2085   27.1096   43.8095 H   0  0  0  0  0  0  0  0  0  0  0  0
   58.8387   28.0282   42.3012 H   0  0  0  0  0  0  0  0  0  0  0  0
   57.7790   26.1700   42.5020 C   0  0  0  0  0  0  0  0  0  0  0  0
   57.4372   25.5025   43.3067 H   0  0  0  0  0  0  0  0  0  0  0  0
   56.9206   26.4642   41.8802 H   0  0  0  0  0  0  0  0  0  0  0  0
   58.5195   25.6455   41.8802 H   0  0  0  0  0  0  0  0  0  0  0  0
   58.7250   29.6030   45.2900 N   0  0  0  0  0  0  0  0  0  0  0  0
   59.7350   28.6270   45.7060 C   0  0  0  0  0  0  0  0  0  0  0  0
   60.4122   28.4218   44.8638 H   0  0  0  0  0  0  0  0  0  0  0  0
   60.3063   29.0363   46.5522 H   0  0  0  0  0  0  0  0  0  0  0  0
   59.0670   27.3460   46.1330 C   0  0  0  0  0  0  0  0  0  0  0  0
   59.7720   26.1320   46.1140 C   0  0  0  0  0  0  0  0  0  0  0  0
   60.8394   26.1229   45.8484 H   0  0  0  0  0  0  0  0  0  0  0  0
   59.1240   24.9350   46.4310 C   0  0  0  0  0  0  0  0  0  0  0  0
   59.6806   23.9866   46.4025 H   0  0  0  0  0  0  0  0  0  0  0  0
   57.7680   24.9380   46.7850 C   0  0  0  0  0  0  0  0  0  0  0  0
   57.0730   23.6640   47.0620 C   0  0  0  0  0  0  0  0  0  0  0  0
   56.1950   23.6110   48.1580 C   0  0  0  0  0  0  0  0  0  0  0  0
   56.0204   24.5144   48.7609 H   0  0  0  0  0  0  0  0  0  0  0  0
   55.5430   22.4230   48.4880 C   0  0  0  0  0  0  0  0  0  0  0  0
   54.8608   22.3913   49.3504 H   0  0  0  0  0  0  0  0  0  0  0  0
   55.7560   21.2740   47.7240 C   0  0  0  0  0  0  0  0  0  0  0  0
   55.2483   20.3352   47.9904 H   0  0  0  0  0  0  0  0  0  0  0  0
   56.6120   21.3150   46.6230 C   0  0  0  0  0  0  0  0  0  0  0  0
   56.7726   20.4063   46.0243 H   0  0  0  0  0  0  0  0  0  0  0  0
   57.2710   22.5050   46.2710 C   0  0  0  0  0  0  0  0  0  0  0  0
   58.2930   22.5180   44.8260 S   0  0  0  0  0  0  0  0  0  0  0  0
   57.8080   21.4790   43.8570 O   0  0  0  0  0  0  0  0  0  0  0  0
   58.2330   23.8670   44.1670 O   0  0  0  0  0  0  0  0  0  0  0  0
   59.9380   22.1930   45.2540 N   0  0  0  0  0  0  0  0  0  0  0  0
   60.0330   21.1560   45.3350 H   0  0  0  0  0  0  0  0  0  0  0  0
   60.5300   22.4880   44.4450 H   0  0  0  0  0  0  0  0  0  0  0  0
   57.0640   26.1510   46.8110 C   0  0  0  0  0  0  0  0  0  0  0  0
   55.9984   26.1598   47.0838 H   0  0  0  0  0  0  0  0  0  0  0  0
   57.7100   27.3480   46.4920 C   0  0  0  0  0  0  0  0  0  0  0  0
   57.1529   28.2960   46.5223 H   0  0  0  0  0  0  0  0  0  0  0  0
   58.6680   30.9130   45.5830 C   0  0  0  0  0  0  0  0  0  0  0  0
   59.4940   31.6630   46.4190 C   0  0  0  0  0  0  0  0  0  0  0  0
   60.3182   31.1926   46.9753 H   0  0  0  0  0  0  0  0  0  0  0  0
   61.4870   34.1900   46.9050 C   0  0  0  0  0  0  0  0  0  0  0  0
   61.4611   34.3648   45.8193 H   0  0  0  0  0  0  0  0  0  0  0  0
   61.8532   35.0864   47.4269 H   0  0  0  0  0  0  0  0  0  0  0  0
   62.4300   33.0290   47.2030 C   0  0  0  0  0  0  0  0  0  0  0  0
   62.5290   32.9072   48.2917 H   0  0  0  0  0  0  0  0  0  0  0  0
   62.0234   32.1050   46.7661 H   0  0  0  0  0  0  0  0  0  0  0  0
   63.4178   33.2375   46.7661 H   0  0  0  0  0  0  0  0  0  0  0  0
  1  2  1  0
  2  3  1  0
  3  4  2  0
  3  5  1  0
  5  6  1  0
  6  7  2  0
  7  8  1  0
  7  9  1  0
  9 10  1  0
  9 11  2  0
 11 12  1  0
 11 13  1  0
 13 14  1  0
 13 15  2  0
 15 16  1  0
 16 17  1  0
 17 18  1  0
 17 19  1  0
 17 20  1  0
  2 21  2  0
 21 22  1  0
 22 23  2  0
 23 24  1  0
 23 25  1  0
 25 26  1  0
 25 27  2  0
 27 28  1  0
 28 29  2  0
 29 30  1  0
 30 31  1  0
 31 32  1  0
 31 33  1  0
 31 34  1  0
 34 35  1  0
 34 36  1  0
 34 37  1  0
 29 38  1  0
 38 39  1  0
 39 40  1  0
 39 41  1  0
 39 42  1  0
 42 43  2  0
 43 44  1  0
 43 45  1  0
 45 46  1  0
 45 47  2  0
 47 48  1  0
 48 49  2  0
 49 50  1  0
 49 51  1  0
 51 52  1  0
 51 53  2  0
 53 54  1  0
 53 55  1  0
 55 56  1  0
 55 57  2  0
 57 58  1  0
 58 59  2  0
 58 60  2  0
 58 61  1  0
 61 62  1  0
 61 63  1  0
 47 64  1  0
 64 65  1  0
 64 66  2  0
 66 67  1  0
 38 68  1  0
 68 69  2  0
 69 70  1  0
 21 71  1  0
 71 72  1  0
 71 73  1  0
 71 74  1  0
 74 75  1  0
 74 76  1  0
 74 77  1  0
 15  6  1  0
 69 22  1  0
 68 27  1  0
 66 42  1  0
 57 48  1  0
M  CHG  1   5  -1
M  END
>  <UniqueID>  (26) 
26

>  <SMILES>  (26) 
CCOc1nc2ccc(/C(=C\C(=O)[N-]c3ccccc3OC)CC)cc2n1Cc1ccc(-c2ccccc2S(N)(=O)=O)cc1

>  <Energy>  (26) 
126.19864650777589

>  <Genealogy>  (26) 
CCOc1nc2ccc(C(=CC(=O)[N-]c3ccccc3OC)CC)cc2n1Cc1ccc(-c2ccccc2S(N)(=O)=O)cc1 (protonated)
CCOc1nc2ccc(/C(=C\C(=O)[N-]c3ccccc3OC)CC)cc2n1Cc1ccc(-c2ccccc2S(N)(=O)=O)cc1 (cis-trans isomerization)
CCOc1nc2ccc(/C(=C\C(=O)[N-]c3ccccc3OC)CC)cc2n1Cc1ccc(-c2ccccc2S(N)(=O)=O)cc1 (3D coordinates assigned)
CCOc1nc2ccc(/C(=C\C(=O)[N-]c3ccccc3OC)CC)cc2n1Cc1ccc(-c2ccccc2S(N)(=O)=O)cc1 (optimized conformer: 126.19864650777589 kcal/mol)

>  <smiles>  (26) 
CCOc1nc2ccc(C(=CC(=O)Nc3ccccc3OC)CC)cc2n1Cc1ccc(-c2ccccc2S(N)(=O)=O)cc1

>  <score_type>  (26) 
oracle

>  <origin>  (26) 
adg

>  <m_score__min__energy>  (26) 
-12.52

>  <m_primary>  (26) 
energy

$$$$
26:0
     RDKit          3D

 62 65  0  0  0  0  0  0  0  0999 V2000
   56.5470   29.8030   52.4660 C   0  0  0  0  0  0  0  0  0  0  0  0
   57.6130   30.4230   51.6180 C   0  0  0  0  0  0  0  0  0  0  0  0
   57.4620   31.5920   50.9640 N   0  0  0  0  0  0  0  0  0  0  0  0
   58.6210   31.8390   50.3250 C   0  0  0  0  0  0  0  0  0  0  0  0
   58.8810   33.0880   49.5450 C   0  0  0  0  0  0  0  0  0  0  0  0
   59.5310   30.8200   50.5710 C   0  0  0  0  0  0  0  0  0  0  0  0
   60.9750   30.7620   50.1420 C   0  0  0  0  0  0  0  0  0  0  0  0
   61.1240   29.8800   48.8880 C   0  0  0  0  0  0  0  0  0  0  0  0
   60.1510   30.2680   47.7370 C   0  0  1  0  0  0  0  0  0  0  0  0
   60.2240   31.7000   47.1740 C   0  0  0  0  0  0  0  0  0  0  0  0
   61.1840   32.7180   47.4480 C   0  0  0  0  0  0  0  0  0  0  0  0
   62.7430   32.4640   48.2180 Cl  0  0  0  0  0  0  0  0  0  0  0  0
   60.9760   34.0160   46.9570 C   0  0  0  0  0  0  0  0  0  0  0  0
   59.8790   34.3080   46.1470 C   0  0  0  0  0  0  0  0  0  0  0  0
   59.6470   35.9360   45.5360 Cl  0  0  0  0  0  0  0  0  0  0  0  0
   59.0100   33.2900   45.7640 C   0  0  0  0  0  0  0  0  0  0  0  0
   59.2020   31.9900   46.2430 C   0  0  0  0  0  0  0  0  0  0  0  0
   58.3920   30.8470   45.6990 C   0  0  0  0  0  0  0  0  0  0  0  0
   59.3430   29.6650   45.4290 C   0  0  0  0  0  0  0  0  0  0  0  0
   60.1730   29.2720   46.6160 N   0  0  2  0  0  0  0  0  0  0  0  0
   59.7500   27.9540   47.0680 C   0  0  0  0  0  0  0  0  0  0  0  0
   59.5690   27.7470   48.2610 O   0  0  0  0  0  0  0  0  0  0  0  0
   59.4900   26.8310   46.0890 C   0  0  0  0  0  0  0  0  0  0  0  0
   58.1790   26.1320   46.4030 C   0  0  0  0  0  0  0  0  0  0  0  0
   58.2490   24.8980   47.0660 C   0  0  0  0  0  0  0  0  0  0  0  0
   57.0770   24.1980   47.3180 C   0  0  0  0  0  0  0  0  0  0  0  0
   57.1160   23.0870   47.9080 O   0  0  0  0  0  0  0  0  0  0  0  0
   55.8910   24.7130   46.9250 N   0  0  0  0  0  0  0  0  0  0  0  0
   55.8120   25.9060   46.2840 C   0  0  0  0  0  0  0  0  0  0  0  0
   54.6740   26.3330   45.9470 O   0  0  0  0  0  0  0  0  0  0  0  0
   56.9500   26.6310   46.0140 N   0  0  0  0  0  0  0  0  0  0  0  0
   56.8430   27.9480   45.3610 C   0  0  0  0  0  0  0  0  0  0  0  0
   58.8920   29.9280   51.4190 C   0  0  0  0  0  0  0  0  0  0  0  0
   59.4670   28.6610   51.9800 C   0  0  0  0  0  0  0  0  0  0  0  0
   56.7938   29.9465   53.5283 H   0  0  0  0  0  0  0  0  0  0  0  0
   55.5803   30.2798   52.2465 H   0  0  0  0  0  0  0  0  0  0  0  0
   56.4834   28.7270   52.2465 H   0  0  0  0  0  0  0  0  0  0  0  0
   56.6120   32.1990   50.9670 H   0  0  0  0  0  0  0  0  0  0  0  0
   59.0550   33.9239   50.2386 H   0  0  0  0  0  0  0  0  0  0  0  0
   59.7689   32.9464   48.9113 H   0  0  0  0  0  0  0  0  0  0  0  0
   58.0103   33.3125   48.9113 H   0  0  0  0  0  0  0  0  0  0  0  0
   61.3273   31.7789   49.9146 H   0  0  0  0  0  0  0  0  0  0  0  0
   61.5738   30.3298   50.9572 H   0  0  0  0  0  0  0  0  0  0  0  0
   62.1557   29.9725   48.5178 H   0  0  0  0  0  0  0  0  0  0  0  0
   60.8785   28.8500   49.1859 H   0  0  0  0  0  0  0  0  0  0  0  0
   59.1846   30.2453   48.2620 H   0  0  0  0  0  0  0  0  0  0  0  0
   61.6879   34.8140   47.2145 H   0  0  0  0  0  0  0  0  0  0  0  0
   58.1726   33.5080   45.0849 H   0  0  0  0  0  0  0  0  0  0  0  0
   57.6284   30.5498   46.4329 H   0  0  0  0  0  0  0  0  0  0  0  0
   57.8886   31.1484   44.7685 H   0  0  0  0  0  0  0  0  0  0  0  0
   58.7397   28.7969   45.1250 H   0  0  0  0  0  0  0  0  0  0  0  0
   60.0411   29.9886   44.6429 H   0  0  0  0  0  0  0  0  0  0  0  0
   61.1650   29.2100   46.2880 H   0  0  0  0  0  0  0  0  0  0  0  0
   59.4430   27.2444   45.0707 H   0  0  0  0  0  0  0  0  0  0  0  0
   60.3070   26.0987   46.1687 H   0  0  0  0  0  0  0  0  0  0  0  0
   59.2203   24.4900   47.3823 H   0  0  0  0  0  0  0  0  0  0  0  0
   56.7792   28.7336   46.1283 H   0  0  0  0  0  0  0  0  0  0  0  0
   57.7302   28.1194   44.7337 H   0  0  0  0  0  0  0  0  0  0  0  0
   55.9398   27.9739   44.7337 H   0  0  0  0  0  0  0  0  0  0  0  0
   59.4473   28.7045   53.0790 H   0  0  0  0  0  0  0  0  0  0  0  0
   58.8698   27.8036   51.6362 H   0  0  0  0  0  0  0  0  0  0  0  0
   60.5055   28.5459   51.6362 H   0  0  0  0  0  0  0  0  0  0  0  0
  1  2  1  0
  2  3  1  0
  3  4  1  0
  4  5  1  0
  4  6  2  0
  6  7  1  0
  7  8  1  0
  8  9  1  0
  9 10  1  0
 10 11  2  0
 11 12  1  0
 11 13  1  0
 13 14  2  0
 14 15  1  0
 14 16  1  0
 16 17  2  0
 17 18  1  0
 18 19  1  0
 19 20  1  0
 20 21  1  0
 21 22  2  0
 21 23  1  0
 23 24  1  0
 24 25  2  0
 25 26  1  0
 26 27  2  0
 26 28  1  0
 28 29  1  0
 29 30  2  0
 29 31  1  0
 31 32  1  0
  6 33  1  0
 33 34  1  0
 33  2  2  0
 20  9  1  0
 31 24  1  0
 17 10  1  0
  1 35  1  0
  1 36  1  0
  1 37  1  0
  3 38  1  0
  5 39  1  0
  5 40  1  0
  5 41  1  0
  7 42  1  0
  7 43  1  0
  8 44  1  0
  8 45  1  0
  9 46  1  1
 13 47  1  0
 16 48  1  0
 18 49  1  0
 18 50  1  0
 19 51  1  0
 19 52  1  0
 20 53  1  6
 23 54  1  0
 23 55  1  0
 25 56  1  0
 32 57  1  0
 32 58  1  0
 32 59  1  0
 34 60  1  0
 34 61  1  0
 34 62  1  0
M  CHG  2  20   1  28  -1
M  END
>  <UniqueID>  (27) 
27

>  <SMILES>  (27) 
Cc1[nH]c(C)c(CC[C@H]2c3c(Cl)cc(Cl)cc3CC[N@@H+]2C(=O)Cc2cc(=O)[n-]c(=O)n2C)c1C

>  <Energy>  (27) 
113.87725460481495

>  <Genealogy>  (27) 
Cc1[nH]c(C)c(CCC2c3c(Cl)cc(Cl)cc3CC[NH+]2C(=O)Cc2cc(=O)[n-]c(=O)n2C)c1C (protonated)
Cc1[nH]c(C)c(CC[C@H]2c3c(Cl)cc(Cl)cc3CC[N@@H+]2C(=O)Cc2cc(=O)[n-]c(=O)n2C)c1C (chirality)
Cc1[nH]c(C)c(CC[C@H]2c3c(Cl)cc(Cl)cc3CC[N@@H+]2C(=O)Cc2cc(=O)[n-]c(=O)n2C)c1C (3D coordinates assigned)
Cc1[nH]c(C)c(CC[C@H]2c3c(Cl)cc(Cl)cc3CC[N@@H+]2C(=O)Cc2cc(=O)[n-]c(=O)n2C)c1C (nonaromatic ring conformer: 113.87725460481495 kcal/mol)

>  <smiles>  (27) 
Cc1[nH]c(C)c(CCC2c3c(Cl)cc(Cl)cc3CCN2C(=O)Cc2cc(=O)[nH]c(=O)n2C)c1C

>  <score_type>  (27) 
oracle

>  <origin>  (27) 
adg

>  <m_score__min__energy>  (27) 
-9.8900000000000006

>  <m_primary>  (27) 
energy

$$$$
27:0
     RDKit          3D

 58 60  0  0  0  0  0  0  0  0999 V2000
   58.7530   29.0930   48.1330 C   0  0  0  0  0  0  0  0  0  0  0  0
   60.1370   28.9530   48.6110 N   0  0  0  0  0  0  0  0  0  0  0  0
   60.7140   27.6610   48.2100 C   0  0  0  0  0  0  0  0  0  0  0  0
   60.2830   29.2240   50.0580 C   0  0  0  0  0  0  0  0  0  0  0  0
   60.8580   30.6160   50.3930 C   0  0  0  0  0  0  0  0  0  0  0  0
   60.4440   31.5980   49.3690 N   0  0  0  0  0  0  0  0  0  0  0  0
   61.3240   32.0570   48.4050 C   0  0  0  0  0  0  0  0  0  0  0  0
   60.8830   32.9580   47.4170 C   0  0  0  0  0  0  0  0  0  0  0  0
   59.5310   33.3310   47.4050 C   0  0  0  0  0  0  0  0  0  0  0  0
   58.8260   34.3280   46.0810 S   0  0  0  0  0  0  0  0  0  0  0  0
   57.2800   33.3570   45.9110 C   0  0  0  0  0  0  0  0  0  0  0  0
   57.3000   32.4430   44.7250 C   0  0  0  0  0  0  0  0  0  0  0  0
   57.7430   32.8580   43.6200 O   0  0  0  0  0  0  0  0  0  0  0  0
   56.7860   31.1120   44.8650 N   0  0  0  0  0  0  0  0  0  0  0  0
   57.5300   29.8860   44.9250 C   0  0  0  0  0  0  0  0  0  0  0  0
   58.9240   29.8450   44.7420 C   0  0  0  0  0  0  0  0  0  0  0  0
   59.6110   28.6330   44.8560 C   0  0  0  0  0  0  0  0  0  0  0  0
   58.9190   27.4570   45.1480 C   0  0  0  0  0  0  0  0  0  0  0  0
   57.5310   27.4850   45.3310 C   0  0  0  0  0  0  0  0  0  0  0  0
   56.6540   25.9960   45.6760 S   0  0  0  0  0  0  0  0  0  0  0  0
   55.2200   26.3170   45.9950 O   0  0  0  0  0  0  0  0  0  0  0  0
   56.6880   25.1020   44.4680 O   0  0  0  0  0  0  0  0  0  0  0  0
   57.3930   25.1550   47.0580 C   0  0  0  0  0  0  0  0  0  0  0  0
   58.2430   24.1680   46.5970 F   0  0  0  0  0  0  0  0  0  0  0  0
   56.4050   24.5800   47.8330 F   0  0  0  0  0  0  0  0  0  0  0  0
   58.1110   26.0570   47.8190 F   0  0  0  0  0  0  0  0  0  0  0  0
   56.8460   28.7050   45.2390 C   0  0  0  0  0  0  0  0  0  0  0  0
   58.7060   32.8690   48.3720 N   0  0  0  0  0  0  0  0  0  0  0  0
   59.1350   32.0210   49.3380 C   0  0  0  0  0  0  0  0  0  0  0  0
   58.3020   31.6160   50.1920 O   0  0  0  0  0  0  0  0  0  0  0  0
   61.8750   33.4490   46.3860 C   0  0  0  0  0  0  0  0  0  0  0  0
   63.2100   33.8110   47.0530 C   0  0  0  0  0  0  0  0  0  0  0  0
   63.7220   32.7500   48.0580 C   0  0  0  0  0  0  0  0  0  0  0  0
   62.7600   31.5730   48.2760 C   0  0  0  0  0  0  0  0  0  0  0  0
   58.0727   29.1618   48.9946 H   0  0  0  0  0  0  0  0  0  0  0  0
   58.6660   30.0045   47.5234 H   0  0  0  0  0  0  0  0  0  0  0  0
   58.4853   28.2174   47.5234 H   0  0  0  0  0  0  0  0  0  0  0  0
   60.9732   27.0807   49.1078 H   0  0  0  0  0  0  0  0  0  0  0  0
   59.9801   27.1017   47.6111 H   0  0  0  0  0  0  0  0  0  0  0  0
   61.6203   27.8342   47.6111 H   0  0  0  0  0  0  0  0  0  0  0  0
   59.2906   29.1406   50.5251 H   0  0  0  0  0  0  0  0  0  0  0  0
   61.0028   28.4869   50.4434 H   0  0  0  0  0  0  0  0  0  0  0  0
   60.4840   30.9367   51.3765 H   0  0  0  0  0  0  0  0  0  0  0  0
   61.9562   30.5565   50.4106 H   0  0  0  0  0  0  0  0  0  0  0  0
   57.1425   32.7521   46.8194 H   0  0  0  0  0  0  0  0  0  0  0  0
   56.4539   34.0692   45.7681 H   0  0  0  0  0  0  0  0  0  0  0  0
   59.4745   30.7683   44.5088 H   0  0  0  0  0  0  0  0  0  0  0  0
   60.7016   28.6062   44.7149 H   0  0  0  0  0  0  0  0  0  0  0  0
   59.4650   26.5060   45.2346 H   0  0  0  0  0  0  0  0  0  0  0  0
   55.7606   28.7347   45.4152 H   0  0  0  0  0  0  0  0  0  0  0  0
   62.0453   32.6571   45.6418 H   0  0  0  0  0  0  0  0  0  0  0  0
   61.4663   34.3464   45.8985 H   0  0  0  0  0  0  0  0  0  0  0  0
   63.9676   33.9347   46.2651 H   0  0  0  0  0  0  0  0  0  0  0  0
   63.0387   34.7343   47.6258 H   0  0  0  0  0  0  0  0  0  0  0  0
   64.6757   32.3509   47.6822 H   0  0  0  0  0  0  0  0  0  0  0  0
   63.8250   33.2577   49.0284 H   0  0  0  0  0  0  0  0  0  0  0  0
   62.8323   30.8864   47.4196 H   0  0  0  0  0  0  0  0  0  0  0  0
   63.0410   31.0597   49.2074 H   0  0  0  0  0  0  0  0  0  0  0  0
  1  2  1  0
  2  3  1  0
  2  4  1  0
  4  5  1  0
  5  6  1  0
  6  7  1  0
  7  8  2  0
  8  9  1  0
  9 10  1  0
 10 11  1  0
 11 12  1  0
 12 13  2  0
 12 14  1  0
 14 15  1  0
 15 16  2  0
 16 17  1  0
 17 18  2  0
 18 19  1  0
 19 20  1  0
 20 21  2  0
 20 22  2  0
 20 23  1  0
 23 24  1  0
 23 25  1  0
 23 26  1  0
 19 27  2  0
  9 28  2  0
 28 29  1  0
 29 30  2  0
  8 31  1  0
 31 32  1  0
 32 33  1  0
 33 34  1  0
 29  6  1  0
 34  7  1  0
 27 15  1  0
  1 35  1  0
  1 36  1  0
  1 37  1  0
  3 38  1  0
  3 39  1  0
  3 40  1  0
  4 41  1  0
  4 42  1  0
  5 43  1  0
  5 44  1  0
 11 45  1  0
 11 46  1  0
 16 47  1  0
 17 48  1  0
 18 49  1  0
 27 50  1  0
 31 51  1  0
 31 52  1  0
 32 53  1  0
 32 54  1  0
 33 55  1  0
 33 56  1  0
 34 57  1  0
 34 58  1  0
M  CHG  1  14  -1
M  END
>  <UniqueID>  (28) 
28

>  <SMILES>  (28) 
CN(C)CCn1c2c(c(SCC(=O)[N-]c3cccc(S(=O)(=O)C(F)(F)F)c3)nc1=O)CCCC2

>  <Energy>  (28) 
62.99310024568765

>  <Genealogy>  (28) 
CN(C)CCn1c2c(c(SCC(=O)[N-]c3cccc(S(=O)(=O)C(F)(F)F)c3)nc1=O)CCCC2 (protonated)
CN(C)CCn1c2c(c(SCC(=O)[N-]c3cccc(S(=O)(=O)C(F)(F)F)c3)nc1=O)CCCC2 (3D coordinates assigned)
CN(C)CCn1c2c(c(SCC(=O)[N-]c3cccc(S(=O)(=O)C(F)(F)F)c3)nc1=O)CCCC2 (nonaromatic ring conformer: 62.99310024568765 kcal/mol)

>  <smiles>  (28) 
CN(C)CCn1c2c(c(SCC(=O)Nc3cccc(S(=O)(=O)C(F)(F)F)c3)nc1=O)CCCC2

>  <score_type>  (28) 
oracle

>  <origin>  (28) 
adg

>  <m_score__min__energy>  (28) 
-10.16

>  <m_primary>  (28) 
energy

$$$$
28:0
     RDKit          3D

 42 44  0  0  0  0  0  0  0  0999 V2000
   58.1240   33.3210   43.7320 O   0  0  0  0  0  0  0  0  0  0  0  0
   58.0670   32.9400   44.9310 C   0  0  0  0  0  0  0  0  0  0  0  0
   58.1330   33.9230   45.9730 N   0  0  0  0  0  0  0  0  0  0  0  0
   59.2210   34.8800   46.1690 C   0  0  0  0  0  0  0  0  0  0  0  0
   60.3200   34.2750   47.0030 C   0  0  0  0  0  0  0  0  0  0  0  0
   60.1580   34.1100   48.3870 C   0  0  0  0  0  0  0  0  0  0  0  0
   61.1930   33.5750   49.1580 C   0  0  0  0  0  0  0  0  0  0  0  0
   62.3960   33.1970   48.5560 C   0  0  0  0  0  0  0  0  0  0  0  0
   63.4170   32.6670   49.3380 O   0  0  0  0  0  0  0  0  0  0  0  0
   62.5660   33.3520   47.1700 C   0  0  0  0  0  0  0  0  0  0  0  0
   63.7540   32.9810   46.5430 O   0  0  0  0  0  0  0  0  0  0  0  0
   61.5280   33.8890   46.4000 C   0  0  0  0  0  0  0  0  0  0  0  0
   57.8970   31.5050   45.2180 C   0  0  0  0  0  0  0  0  0  0  0  0
   58.4690   30.9500   46.3730 C   0  0  0  0  0  0  0  0  0  0  0  0
   58.3250   29.5860   46.6440 C   0  0  0  0  0  0  0  0  0  0  0  0
   57.6100   28.7610   45.7690 C   0  0  0  0  0  0  0  0  0  0  0  0
   57.4700   27.3680   46.0870 N   0  0  0  0  0  0  0  0  0  0  0  0
   57.4970   26.2820   45.1500 C   0  0  0  0  0  0  0  0  0  0  0  0
   58.3710   26.2910   44.2430 O   0  0  0  0  0  0  0  0  0  0  0  0
   56.4880   25.1960   45.1800 C   0  0  0  0  0  0  0  0  0  0  0  0
   56.8450   23.8960   44.7840 C   0  0  0  0  0  0  0  0  0  0  0  0
   55.9050   22.8610   44.8140 C   0  0  0  0  0  0  0  0  0  0  0  0
   54.6010   23.1130   45.2440 C   0  0  0  0  0  0  0  0  0  0  0  0
   53.6670   22.0830   45.2720 O   0  0  0  0  0  0  0  0  0  0  0  0
   54.2360   24.3980   45.6500 C   0  0  0  0  0  0  0  0  0  0  0  0
   55.1700   25.4400   45.6220 C   0  0  0  0  0  0  0  0  0  0  0  0
   54.7750   26.7130   46.0180 O   0  0  0  0  0  0  0  0  0  0  0  0
   56.9980   29.3250   44.6370 C   0  0  0  0  0  0  0  0  0  0  0  0
   57.1430   30.6880   44.3630 C   0  0  0  0  0  0  0  0  0  0  0  0
   59.6288   35.1685   45.1890 H   0  0  0  0  0  0  0  0  0  0  0  0
   58.8251   35.7624   46.6930 H   0  0  0  0  0  0  0  0  0  0  0  0
   59.2125   34.4030   48.8668 H   0  0  0  0  0  0  0  0  0  0  0  0
   61.0604   33.4509   50.2429 H   0  0  0  0  0  0  0  0  0  0  0  0
   64.5190   32.5520   47.0500 H   0  0  0  0  0  0  0  0  0  0  0  0
   61.6594   34.0096   45.3146 H   0  0  0  0  0  0  0  0  0  0  0  0
   59.0326   31.5903   47.0675 H   0  0  0  0  0  0  0  0  0  0  0  0
   58.7769   29.1586   47.5513 H   0  0  0  0  0  0  0  0  0  0  0  0
   57.8720   23.6907   44.4477 H   0  0  0  0  0  0  0  0  0  0  0  0
   56.1934   21.8474   44.4985 H   0  0  0  0  0  0  0  0  0  0  0  0
   53.2093   24.5924   45.9936 H   0  0  0  0  0  0  0  0  0  0  0  0
   56.4023   28.6913   43.9636 H   0  0  0  0  0  0  0  0  0  0  0  0
   56.6637   31.1217   43.4730 H   0  0  0  0  0  0  0  0  0  0  0  0
  1  2  2  0
  2  3  1  0
  3  4  1  0
  4  5  1  0
  5  6  2  0
  6  7  1  0
  7  8  2  0
  8  9  1  0
  8 10  1  0
 10 11  1  0
 10 12  2  0
  2 13  1  0
 13 14  2  0
 14 15  1  0
 15 16  2  0
 16 17  1  0
 17 18  1  0
 18 19  2  0
 18 20  1  0
 20 21  2  0
 21 22  1  0
 22 23  2  0
 23 24  1  0
 23 25  1  0
 25 26  2  0
 26 27  1  0
 16 28  1  0
 28 29  2  0
 12  5  1  0
 29 13  1  0
 26 20  1  0
  4 30  1  0
  4 31  1  0
  6 32  1  0
  7 33  1  0
 11 34  1  0
 12 35  1  0
 14 36  1  0
 15 37  1  0
 21 38  1  0
 22 39  1  0
 25 40  1  0
 28 41  1  0
 29 42  1  0
M  CHG  5   3  -1   9  -1  17  -1  24  -1  27  -1
M  END
>  <UniqueID>  (29) 
29

>  <SMILES>  (29) 
O=C([N-]Cc1ccc([O-])c(O)c1)c1ccc([N-]C(=O)c2ccc([O-])cc2[O-])cc1

>  <Energy>  (29) 
53.5416303256715

>  <Genealogy>  (29) 
O=C([N-]Cc1ccc([O-])c(O)c1)c1ccc([N-]C(=O)c2ccc([O-])cc2[O-])cc1 (protonated)
O=C([N-]Cc1ccc([O-])c(O)c1)c1ccc([N-]C(=O)c2ccc([O-])cc2[O-])cc1 (3D coordinates assigned)
O=C([N-]Cc1ccc([O-])c(O)c1)c1ccc([N-]C(=O)c2ccc([O-])cc2[O-])cc1 (optimized conformer: 53.5416303256715 kcal/mol)

>  <smiles>  (29) 
O=C(NCc1ccc(O)c(O)c1)c1ccc(NC(=O)c2ccc(O)cc2O)cc1

>  <score_type>  (29) 
oracle

>  <origin>  (29) 
adg

>  <m_score__min__energy>  (29) 
-17.899999999999999

>  <m_primary>  (29) 
energy

$$$$
29:0
     RDKit          3D

 44 47  0  0  0  0  0  0  0  0999 V2000
   57.1580   31.1850   42.8270 O   0  0  0  0  0  0  0  0  0  0  0  0
   57.2580   31.0980   44.0790 C   0  0  0  0  0  0  0  0  0  0  0  0
   56.7890   29.9060   44.7260 N   0  0  0  0  0  0  0  0  0  0  0  0
   57.4930   28.9100   45.1970 C   0  0  0  0  0  0  0  0  0  0  0  0
   58.8450   29.0740   45.3050 N   0  0  0  0  0  0  0  0  0  0  0  0
   59.6670   28.0680   45.7100 C   0  0  0  0  0  0  0  0  0  0  0  0
   59.1380   26.8280   46.0600 C   0  0  0  0  0  0  0  0  0  0  0  0
   57.7590   26.6370   46.0070 C   0  0  0  0  0  0  0  0  0  0  0  0
   56.9220   27.6700   45.5830 C   0  0  0  0  0  0  0  0  0  0  0  0
   55.5490   27.4530   45.5850 O   0  0  0  0  0  0  0  0  0  0  0  0
   57.7550   32.2600   44.8670 C   0  0  0  0  0  0  0  0  0  0  0  0
   57.7550   33.5540   44.3180 C   0  0  0  0  0  0  0  0  0  0  0  0
   58.2170   34.6410   45.0660 C   0  0  0  0  0  0  0  0  0  0  0  0
   58.6930   34.4490   46.3670 C   0  0  0  0  0  0  0  0  0  0  0  0
   58.7040   33.1660   46.9270 C   0  0  0  0  0  0  0  0  0  0  0  0
   59.3580   32.8880   48.5400 S   0  0  0  0  0  0  0  0  0  0  0  0
   58.5590   31.8230   49.2390 O   0  0  0  0  0  0  0  0  0  0  0  0
   59.2710   34.1500   49.3520 O   0  0  0  0  0  0  0  0  0  0  0  0
   61.0360   32.4260   48.4100 N   0  0  0  0  0  0  0  0  0  0  0  0
   61.4080   31.4640   47.4000 C   0  0  0  0  0  0  0  0  0  0  0  0
   60.5210   30.8000   46.7990 O   0  0  0  0  0  0  0  0  0  0  0  0
   62.8510   31.2090   47.0760 C   0  0  0  0  0  0  0  0  0  0  0  0
   63.7470   32.7880   47.0810 S   0  0  0  0  0  0  0  0  0  0  0  0
   63.3800   33.0870   48.8110 C   0  0  0  0  0  0  0  0  0  0  0  0
   64.4180   33.4230   49.6870 C   0  0  0  0  0  0  0  0  0  0  0  0
   64.1430   33.6900   51.0300 C   0  0  0  0  0  0  0  0  0  0  0  0
   62.8310   33.6180   51.4990 C   0  0  0  0  0  0  0  0  0  0  0  0
   61.7930   33.2580   50.6360 C   0  0  0  0  0  0  0  0  0  0  0  0
   62.0560   32.9740   49.2810 C   0  0  0  0  0  0  0  0  0  0  0  0
   58.2250   32.0840   46.1810 C   0  0  0  0  0  0  0  0  0  0  0  0
   59.2780   29.9870   45.0370 H   0  0  0  0  0  0  0  0  0  0  0  0
   60.7531   28.2347   45.7611 H   0  0  0  0  0  0  0  0  0  0  0  0
   59.8014   26.0089   46.3747 H   0  0  0  0  0  0  0  0  0  0  0  0
   57.3283   25.6683   46.3005 H   0  0  0  0  0  0  0  0  0  0  0  0
   57.3890   33.7124   43.2928 H   0  0  0  0  0  0  0  0  0  0  0  0
   58.2061   35.6508   44.6298 H   0  0  0  0  0  0  0  0  0  0  0  0
   59.0590   35.3066   46.9506 H   0  0  0  0  0  0  0  0  0  0  0  0
   63.2850   30.5365   47.8306 H   0  0  0  0  0  0  0  0  0  0  0  0
   62.9315   30.7396   46.0845 H   0  0  0  0  0  0  0  0  0  0  0  0
   65.4526   33.4770   49.3172 H   0  0  0  0  0  0  0  0  0  0  0  0
   64.9597   33.9567   51.7170 H   0  0  0  0  0  0  0  0  0  0  0  0
   62.6129   33.8457   52.5529 H   0  0  0  0  0  0  0  0  0  0  0  0
   60.7630   33.1958   51.0170 H   0  0  0  0  0  0  0  0  0  0  0  0
   58.2157   31.0795   46.6291 H   0  0  0  0  0  0  0  0  0  0  0  0
  1  2  2  0
  2  3  1  0
  3  4  2  3
  4  5  1  0
  5  6  1  0
  6  7  2  0
  7  8  1  0
  8  9  2  0
  9 10  1  0
  2 11  1  0
 11 12  2  0
 12 13  1  0
 13 14  2  0
 14 15  1  0
 15 16  1  0
 16 17  2  0
 16 18  2  0
 16 19  1  0
 19 20  1  0
 20 21  2  0
 20 22  1  0
 22 23  1  0
 23 24  1  0
 24 25  2  0
 25 26  1  0
 26 27  2  0
 27 28  1  0
 28 29  2  0
 15 30  2  0
  9  4  1  0
 30 11  1  0
 29 19  1  0
 29 24  1  0
  5 31  1  0
  6 32  1  0
  7 33  1  0
  8 34  1  0
 12 35  1  0
 13 36  1  0
 14 37  1  0
 22 38  1  0
 22 39  1  0
 25 40  1  0
 26 41  1  0
 27 42  1  0
 28 43  1  0
 30 44  1  0
M  CHG  1  10  -1
M  END
>  <UniqueID>  (30) 
30

>  <SMILES>  (30) 
O=C(N=c1[nH]cccc1[O-])c1cccc(S(=O)(=O)N2C(=O)CSc3ccccc32)c1

>  <Energy>  (30) 
68.30058641796667

>  <Genealogy>  (30) 
O=C(N=c1[nH]cccc1[O-])c1cccc(S(=O)(=O)N2C(=O)CSc3ccccc32)c1 (protonated)
O=C(N=c1[nH]cccc1[O-])c1cccc(S(=O)(=O)N2C(=O)CSc3ccccc32)c1 (3D coordinates assigned)
O=C(N=c1[nH]cccc1[O-])c1cccc(S(=O)(=O)N2C(=O)CSc3ccccc32)c1 (nonaromatic ring conformer: 68.30058641796667 kcal/mol)

>  <smiles>  (30) 
O=C(N=c1[nH]cccc1O)c1cccc(S(=O)(=O)N2C(=O)CSc3ccccc32)c1

>  <score_type>  (30) 
oracle

>  <origin>  (30) 
adg

>  <m_score__min__energy>  (30) 
-14.449999999999999

>  <m_primary>  (30) 
energy

$$$$
30:0
     RDKit          3D

 43 45  0  0  0  0  0  0  0  0999 V2000
   57.3130   31.1070   51.7260 C   0  0  0  0  0  0  0  0  0  0  0  0
   57.7570   30.0560   50.8740 O   0  0  0  0  0  0  0  0  0  0  0  0
   58.9090   30.1160   50.0750 C   0  0  0  0  0  0  0  0  0  0  0  0
   58.8250   29.6640   48.7540 C   0  0  0  0  0  0  0  0  0  0  0  0
   59.9440   29.7040   47.9200 C   0  0  0  0  0  0  0  0  0  0  0  0
   61.1610   30.1950   48.3990 C   0  0  0  0  0  0  0  0  0  0  0  0
   61.2660   30.6520   49.7280 C   0  0  0  0  0  0  0  0  0  0  0  0
   62.4640   31.1550   50.2620 O   0  0  0  0  0  0  0  0  0  0  0  0
   63.4230   31.9290   49.5430 C   0  0  0  0  0  0  0  0  0  0  0  0
   62.8880   33.3060   49.2660 C   0  0  0  0  0  0  0  0  0  0  0  0
   63.6890   34.2180   48.9300 O   0  0  0  0  0  0  0  0  0  0  0  0
   61.4860   33.6020   49.3200 N   0  0  0  0  0  0  0  0  0  0  0  0
   60.5700   33.5910   48.2170 C   0  0  0  0  0  0  0  0  0  0  0  0
   59.2430   33.2080   48.4420 C   0  0  0  0  0  0  0  0  0  0  0  0
   58.3310   33.1620   47.3830 C   0  0  0  0  0  0  0  0  0  0  0  0
   58.7430   33.4850   46.0830 C   0  0  0  0  0  0  0  0  0  0  0  0
   57.6000   33.4100   44.7470 S   0  0  0  0  0  0  0  0  0  0  0  0
   56.7140   34.6250   44.7780 O   0  0  0  0  0  0  0  0  0  0  0  0
   58.3520   33.3790   43.4460 O   0  0  0  0  0  0  0  0  0  0  0  0
   56.6420   31.9740   44.9110 N   0  0  0  0  0  0  0  0  0  0  0  0
   57.1160   30.7690   44.8400 C   0  0  0  0  0  0  0  0  0  0  0  0
   56.3340   29.6790   44.9870 N   0  0  0  0  0  0  0  0  0  0  0  0
   57.0510   28.5290   44.8730 C   0  0  0  0  0  0  0  0  0  0  0  0
   58.4100   28.7000   44.6350 C   0  0  0  0  0  0  0  0  0  0  0  0
   58.7250   30.3520   44.5640 S   0  0  0  0  0  0  0  0  0  0  0  0
   60.0800   33.8320   45.8490 C   0  0  0  0  0  0  0  0  0  0  0  0
   60.9920   33.8800   46.9080 C   0  0  0  0  0  0  0  0  0  0  0  0
   60.1370   30.6110   50.5570 C   0  0  0  0  0  0  0  0  0  0  0  0
   57.4402   30.8060   52.7764 H   0  0  0  0  0  0  0  0  0  0  0  0
   57.9053   32.0130   51.5299 H   0  0  0  0  0  0  0  0  0  0  0  0
   56.2506   31.3139   51.5299 H   0  0  0  0  0  0  0  0  0  0  0  0
   57.8708   29.2744   48.3696 H   0  0  0  0  0  0  0  0  0  0  0  0
   59.8671   29.3477   46.8822 H   0  0  0  0  0  0  0  0  0  0  0  0
   62.0393   30.2250   47.7374 H   0  0  0  0  0  0  0  0  0  0  0  0
   64.3428   32.0116   50.1406 H   0  0  0  0  0  0  0  0  0  0  0  0
   63.6359   31.4311   48.5855 H   0  0  0  0  0  0  0  0  0  0  0  0
   58.9154   32.9416   49.4577 H   0  0  0  0  0  0  0  0  0  0  0  0
   57.2869   32.8714   47.5709 H   0  0  0  0  0  0  0  0  0  0  0  0
   56.5888   27.5349   44.9627 H   0  0  0  0  0  0  0  0  0  0  0  0
   59.1506   27.8957   44.5141 H   0  0  0  0  0  0  0  0  0  0  0  0
   60.4139   34.0677   44.8277 H   0  0  0  0  0  0  0  0  0  0  0  0
   62.0423   34.1446   46.7160 H   0  0  0  0  0  0  0  0  0  0  0  0
   60.2102   30.9689   51.5946 H   0  0  0  0  0  0  0  0  0  0  0  0
  1  2  1  0
  2  3  1  0
  3  4  2  0
  4  5  1  0
  5  6  2  0
  6  7  1  0
  7  8  1  0
  8  9  1  0
  9 10  1  0
 10 11  2  0
 10 12  1  0
 12 13  1  0
 13 14  2  0
 14 15  1  0
 15 16  2  0
 16 17  1  0
 17 18  2  0
 17 19  2  0
 17 20  1  0
 20 21  2  3
 21 22  1  0
 22 23  1  0
 23 24  2  0
 24 25  1  0
 16 26  1  0
 26 27  2  0
  7 28  2  0
 28  3  1  0
 27 13  1  0
 25 21  1  0
  1 29  1  0
  1 30  1  0
  1 31  1  0
  4 32  1  0
  5 33  1  0
  6 34  1  0
  9 35  1  0
  9 36  1  0
 14 37  1  0
 15 38  1  0
 23 39  1  0
 24 40  1  0
 26 41  1  0
 27 42  1  0
 28 43  1  0
M  CHG  2  12  -1  22  -1
M  END
>  <UniqueID>  (31) 
31

>  <SMILES>  (31) 
COc1cccc(OCC(=O)[N-]c2ccc(S(=O)(=O)N=c3[n-]ccs3)cc2)c1

>  <Energy>  (31) 
83.20748705523525

>  <Genealogy>  (31) 
COc1cccc(OCC(=O)[N-]c2ccc(S(=O)(=O)N=c3[n-]ccs3)cc2)c1 (protonated)
COc1cccc(OCC(=O)[N-]c2ccc(S(=O)(=O)N=c3[n-]ccs3)cc2)c1 (3D coordinates assigned)
COc1cccc(OCC(=O)[N-]c2ccc(S(=O)(=O)N=c3[n-]ccs3)cc2)c1 (optimized conformer: 83.20748705523525 kcal/mol)

>  <smiles>  (31) 
COc1cccc(OCC(=O)Nc2ccc(S(=O)(=O)N=c3[nH]ccs3)cc2)c1

>  <score_type>  (31) 
oracle

>  <origin>  (31) 
adg

>  <m_score__min__energy>  (31) 
-10.68

>  <m_primary>  (31) 
energy

$$$$
31:0
     RDKit          3D

 35 37  0  0  0  0  0  0  0  0999 V2000
   52.2581   30.8127   53.1352 H   0  0  0  0  0  0  0  0  0  0  0  0
   52.6230   30.4990   52.1460 C   0  0  0  0  0  0  0  0  0  0  0  0
   53.7070   29.7890   52.0540 N   0  0  0  0  0  0  0  0  0  0  0  0
   55.0540   30.2510   52.2500 C   0  0  0  0  0  0  0  0  0  0  0  0
   56.0020   29.3390   52.7280 C   0  0  0  0  0  0  0  0  0  0  0  0
   55.7025   28.3009   52.9343 H   0  0  0  0  0  0  0  0  0  0  0  0
   57.3250   29.7330   52.9460 C   0  0  0  0  0  0  0  0  0  0  0  0
   58.0588   29.0028   53.3179 H   0  0  0  0  0  0  0  0  0  0  0  0
   57.7230   31.0560   52.6930 C   0  0  0  0  0  0  0  0  0  0  0  0
   59.0840   31.4710   52.9200 N   0  0  0  0  0  0  0  0  0  0  0  0
   59.9620   30.6670   53.7760 C   0  0  0  0  0  0  0  0  0  0  0  0
   59.8457   30.9867   54.8221 H   0  0  0  0  0  0  0  0  0  0  0  0
   59.6901   29.6053   53.6822 H   0  0  0  0  0  0  0  0  0  0  0  0
   61.4190   30.8580   53.3440 C   0  0  0  0  0  0  0  0  0  0  0  0
   62.0782   30.3550   54.0667 H   0  0  0  0  0  0  0  0  0  0  0  0
   61.5488   30.4251   52.3411 H   0  0  0  0  0  0  0  0  0  0  0  0
   61.7520   32.2330   53.2910 O   0  0  0  0  0  0  0  0  0  0  0  0
   60.9920   32.8710   52.2810 C   0  0  0  0  0  0  0  0  0  0  0  0
   61.3227   33.9159   52.1869 H   0  0  0  0  0  0  0  0  0  0  0  0
   61.1444   32.3337   51.3333 H   0  0  0  0  0  0  0  0  0  0  0  0
   59.5000   32.8460   52.6240 C   0  0  0  0  0  0  0  0  0  0  0  0
   59.3162   33.4810   53.5032 H   0  0  0  0  0  0  0  0  0  0  0  0
   58.9229   33.2250   51.7677 H   0  0  0  0  0  0  0  0  0  0  0  0
   56.7710   31.9790   52.2330 C   0  0  0  0  0  0  0  0  0  0  0  0
   57.0687   33.0205   52.0417 H   0  0  0  0  0  0  0  0  0  0  0  0
   55.4470   31.5850   52.0160 C   0  0  0  0  0  0  0  0  0  0  0  0
   54.7086   32.3190   51.6611 H   0  0  0  0  0  0  0  0  0  0  0  0
   51.8810   30.8860   50.9390 C   0  0  0  0  0  0  0  0  0  0  0  0
   51.7970   30.1110   49.8380 N   0  0  0  0  0  0  0  0  0  0  0  0
   51.0360   30.8430   48.9930 C   0  0  0  0  0  0  0  0  0  0  0  0
   50.7280   30.4500   47.8370 O   0  0  0  0  0  0  0  0  0  0  0  0
   50.6400   32.0270   49.4970 N   0  0  0  0  0  0  0  0  0  0  0  0
   50.0530   32.7580   49.0390 H   0  0  0  0  0  0  0  0  0  0  0  0
   51.1750   32.0520   50.7250 C   0  0  0  0  0  0  0  0  0  0  0  0
   51.0230   33.1040   51.6200 O   0  0  0  0  0  0  0  0  0  0  0  0
  1  2  1  0
  2  3  2  0
  3  4  1  0
  4  5  2  0
  5  6  1  0
  5  7  1  0
  7  8  1  0
  7  9  2  0
  9 10  1  0
 10 11  1  0
 11 12  1  0
 11 13  1  0
 11 14  1  0
 14 15  1  0
 14 16  1  0
 14 17  1  0
 17 18  1  0
 18 19  1  0
 18 20  1  0
 18 21  1  0
 21 22  1  0
 21 23  1  0
  9 24  1  0
 24 25  1  0
 24 26  2  0
 26 27  1  0
  2 28  1  0
 28 29  1  0
 29 30  1  0
 30 31  2  0
 30 32  1  0
 32 33  1  0
 32 34  1  0
 34 35  1  0
 26  4  1  0
 34 28  2  0
 21 10  1  0
M  CHG  2  29  -1  35  -1
M  END
>  <UniqueID>  (32) 
32

>  <SMILES>  (32) 
O=c1[n-]c(/C=N/c2ccc(N3CCOCC3)cc2)c([O-])[nH]1

>  <Energy>  (32) 
74.84297854569814

>  <Genealogy>  (32) 
O=c1[n-]c(C=Nc2ccc(N3CCOCC3)cc2)c([O-])[nH]1 (protonated)
O=c1[n-]c(/C=N/c2ccc(N3CCOCC3)cc2)c([O-])[nH]1 (cis-trans isomerization)
O=c1[n-]c(/C=N/c2ccc(N3CCOCC3)cc2)c([O-])[nH]1 (3D coordinates assigned)
O=c1[n-]c(/C=N/c2ccc(N3CCOCC3)cc2)c([O-])[nH]1 (nonaromatic ring conformer: 74.84297854569814 kcal/mol)

>  <smiles>  (32) 
O=c1[nH]c(O)c(C=Nc2ccc(N3CCOCC3)cc2)[nH]1

>  <score_type>  (32) 
oracle

>  <origin>  (32) 
adg

>  <m_score__min__energy>  (32) 
-12.49

>  <m_primary>  (32) 
energy

$$$$
32:0
     RDKit          3D

 40 42  0  0  0  0  0  0  0  0999 V2000
   59.9500   28.7780   44.7820 C   0  0  0  0  0  0  0  0  0  0  0  0
   58.6990   29.5980   44.6980 C   0  0  0  0  0  0  0  0  0  0  0  0
   58.7930   30.9380   44.4850 N   0  0  0  0  0  0  0  0  0  0  0  0
   57.6830   31.7150   44.4050 C   0  0  0  0  0  0  0  0  0  0  0  0
   57.8410   33.4720   44.1000 S   0  0  0  0  0  0  0  0  0  0  0  0
   57.6530   33.9500   45.8540 C   0  0  0  0  0  0  0  0  0  0  0  0
   58.9670   33.8570   46.5810 C   0  0  0  0  0  0  0  0  0  0  0  0
   58.9950   33.8240   47.9860 C   0  0  0  0  0  0  0  0  0  0  0  0
   60.2160   33.7710   48.6640 C   0  0  0  0  0  0  0  0  0  0  0  0
   61.4170   33.7540   47.9480 C   0  0  0  0  0  0  0  0  0  0  0  0
   61.3970   33.7920   46.5510 C   0  0  0  0  0  0  0  0  0  0  0  0
   60.1780   33.8420   45.8680 C   0  0  0  0  0  0  0  0  0  0  0  0
   56.4520   31.1580   44.5300 N   0  0  0  0  0  0  0  0  0  0  0  0
   56.3020   29.8250   44.7410 C   0  0  0  0  0  0  0  0  0  0  0  0
   55.1420   29.3390   44.8020 O   0  0  0  0  0  0  0  0  0  0  0  0
   57.4380   29.0030   44.8540 C   0  0  0  0  0  0  0  0  0  0  0  0
   57.3480   27.6190   45.0710 O   0  0  0  0  0  0  0  0  0  0  0  0
   57.3880   27.0060   46.3300 C   0  0  0  0  0  0  0  0  0  0  0  0
   56.4820   26.1970   46.6720 O   0  0  0  0  0  0  0  0  0  0  0  0
   58.4700   27.3510   47.2790 C   0  0  0  0  0  0  0  0  0  0  0  0
   59.5030   26.4360   47.5550 C   0  0  0  0  0  0  0  0  0  0  0  0
   60.5220   26.7690   48.4520 C   0  0  0  0  0  0  0  0  0  0  0  0
   60.5240   28.0170   49.0800 C   0  0  0  0  0  0  0  0  0  0  0  0
   59.5030   28.9350   48.8140 C   0  0  0  0  0  0  0  0  0  0  0  0
   59.5050   30.5010   49.6030 Cl  0  0  0  0  0  0  0  0  0  0  0  0
   58.4810   28.6050   47.9170 C   0  0  0  0  0  0  0  0  0  0  0  0
   60.2075   28.6092   45.8380 H   0  0  0  0  0  0  0  0  0  0  0  0
   59.7881   27.8102   44.2848 H   0  0  0  0  0  0  0  0  0  0  0  0
   60.7729   29.3125   44.2848 H   0  0  0  0  0  0  0  0  0  0  0  0
   57.2846   34.9851   45.9074 H   0  0  0  0  0  0  0  0  0  0  0  0
   56.9389   33.2622   46.3305 H   0  0  0  0  0  0  0  0  0  0  0  0
   58.0529   33.8399   48.5537 H   0  0  0  0  0  0  0  0  0  0  0  0
   60.2323   33.7426   49.7635 H   0  0  0  0  0  0  0  0  0  0  0  0
   62.3767   33.7108   48.4838 H   0  0  0  0  0  0  0  0  0  0  0  0
   62.3419   33.7826   45.9879 H   0  0  0  0  0  0  0  0  0  0  0  0
   60.1668   33.8697   44.7684 H   0  0  0  0  0  0  0  0  0  0  0  0
   59.5086   25.4528   47.0618 H   0  0  0  0  0  0  0  0  0  0  0  0
   61.3242   26.0468   48.6639 H   0  0  0  0  0  0  0  0  0  0  0  0
   61.3285   28.2775   49.7835 H   0  0  0  0  0  0  0  0  0  0  0  0
   57.6809   29.3307   47.7093 H   0  0  0  0  0  0  0  0  0  0  0  0
  1  2  1  0
  2  3  1  0
  3  4  1  0
  4  5  1  0
  5  6  1  0
  6  7  1  0
  7  8  2  0
  8  9  1  0
  9 10  2  0
 10 11  1  0
 11 12  2  0
  4 13  2  0
 13 14  1  0
 14 15  2  0
 14 16  1  0
 16 17  1  0
 17 18  1  0
 18 19  2  0
 18 20  1  0
 20 21  2  0
 21 22  1  0
 22 23  2  0
 23 24  1  0
 24 25  1  0
 24 26  2  0
 16  2  2  0
 26 20  1  0
 12  7  1  0
  1 27  1  0
  1 28  1  0
  1 29  1  0
  6 30  1  0
  6 31  1  0
  8 32  1  0
  9 33  1  0
 10 34  1  0
 11 35  1  0
 12 36  1  0
 21 37  1  0
 22 38  1  0
 23 39  1  0
 26 40  1  0
M  CHG  1   3  -1
M  END
>  <UniqueID>  (33) 
33

>  <SMILES>  (33) 
Cc1[n-]c(SCc2ccccc2)nc(=O)c1OC(=O)c1cccc(Cl)c1

>  <Energy>  (33) 
44.49877184905768

>  <Genealogy>  (33) 
Cc1[n-]c(SCc2ccccc2)nc(=O)c1OC(=O)c1cccc(Cl)c1 (protonated)
Cc1[n-]c(SCc2ccccc2)nc(=O)c1OC(=O)c1cccc(Cl)c1 (3D coordinates assigned)
Cc1[n-]c(SCc2ccccc2)nc(=O)c1OC(=O)c1cccc(Cl)c1 (optimized conformer: 44.49877184905768 kcal/mol)

>  <smiles>  (33) 
Cc1[nH]c(SCc2ccccc2)nc(=O)c1OC(=O)c1cccc(Cl)c1

>  <score_type>  (33) 
oracle

>  <origin>  (33) 
adg

>  <m_score__min__energy>  (33) 
-10.73

>  <m_primary>  (33) 
energy

$$$$
33:0
     RDKit          3D

 56 59  0  0  0  0  0  0  0  0999 V2000
   56.9350   24.6400   43.4960 C   0  0  0  0  0  0  0  0  0  0  0  0
   57.5430   25.7740   44.1920 N   0  0  0  0  0  0  0  0  0  0  0  0
   57.9900   26.9560   43.5330 C   0  0  0  0  0  0  0  0  0  0  0  0
   58.0840   27.0630   42.2790 O   0  0  0  0  0  0  0  0  0  0  0  0
   58.2990   28.0050   44.4310 N   0  0  0  0  0  0  0  0  0  0  0  0
   58.5360   29.4070   44.0990 C   0  0  0  0  0  0  0  0  0  0  0  0
   57.7240   30.2990   44.9930 C   0  0  0  0  0  0  0  0  0  0  0  0
   56.5090   30.0300   45.1950 O   0  0  0  0  0  0  0  0  0  0  0  0
   58.3250   31.4890   45.6380 C   0  0  0  0  0  0  0  0  0  0  0  0
   58.8450   31.4220   46.9440 C   0  0  0  0  0  0  0  0  0  0  0  0
   58.8810   30.1530   47.6230 N   0  0  0  0  0  0  0  0  0  0  0  0
   59.3470   32.5570   47.5430 N   0  0  0  0  0  0  0  0  0  0  0  0
   59.9290   32.4910   48.9040 C   0  0  0  0  0  0  0  0  0  0  0  0
   61.4170   32.7400   48.8790 C   0  0  0  0  0  0  0  0  0  0  0  0
   62.2170   32.1930   47.8600 C   0  0  0  0  0  0  0  0  0  0  0  0
   63.5920   32.4470   47.8280 C   0  0  0  0  0  0  0  0  0  0  0  0
   64.1750   33.2630   48.8020 C   0  0  0  0  0  0  0  0  0  0  0  0
   63.3850   33.8300   49.8030 C   0  0  0  0  0  0  0  0  0  0  0  0
   62.0090   33.5780   49.8390 C   0  0  0  0  0  0  0  0  0  0  0  0
   59.3570   33.7490   46.8540 C   0  0  0  0  0  0  0  0  0  0  0  0
   59.8150   34.7900   47.4060 O   0  0  0  0  0  0  0  0  0  0  0  0
   58.8780   33.8250   45.5710 N   0  0  0  0  0  0  0  0  0  0  0  0
   58.8670   35.1200   44.8660 C   0  0  0  0  0  0  0  0  0  0  0  0
   58.3360   32.7210   44.9730 C   0  0  0  0  0  0  0  0  0  0  0  0
   57.8230   32.8110   43.8210 O   0  0  0  0  0  0  0  0  0  0  0  0
   57.9780   27.4740   45.7130 C   0  0  0  0  0  0  0  0  0  0  0  0
   58.0470   28.1510   46.7750 O   0  0  0  0  0  0  0  0  0  0  0  0
   57.5440   26.0290   45.6440 C   0  0  2  0  0  0  0  0  0  0  0  0
   58.5930   25.1510   46.3710 C   0  0  0  0  0  0  0  0  0  0  0  0
   58.1400   23.7010   46.5700 C   0  0  0  0  0  0  0  0  0  0  0  0
   56.7850   23.6430   47.2100 C   0  0  0  0  0  0  0  0  0  0  0  0
   56.4580   22.6420   47.8990 O   0  0  0  0  0  0  0  0  0  0  0  0
   55.8370   24.6890   46.9920 N   0  0  0  0  0  0  0  0  0  0  0  0
   56.1580   25.8520   46.2260 C   0  0  0  0  0  0  0  0  0  0  0  0
   55.2560   26.7010   45.9930 O   0  0  0  0  0  0  0  0  0  0  0  0
   56.5495   23.9209   44.2337 H   0  0  0  0  0  0  0  0  0  0  0  0
   56.1076   24.9976   42.8655 H   0  0  0  0  0  0  0  0  0  0  0  0
   57.6907   24.1488   42.8655 H   0  0  0  0  0  0  0  0  0  0  0  0
   59.6038   29.6357   44.2313 H   0  0  0  0  0  0  0  0  0  0  0  0
   58.2396   29.5822   43.0543 H   0  0  0  0  0  0  0  0  0  0  0  0
   58.1230   29.8370   48.2630 H   0  0  0  0  0  0  0  0  0  0  0  0
   59.6860   29.4970   47.5040 H   0  0  0  0  0  0  0  0  0  0  0  0
   59.4492   33.2530   49.5358 H   0  0  0  0  0  0  0  0  0  0  0  0
   59.7534   31.4827   49.3071 H   0  0  0  0  0  0  0  0  0  0  0  0
   61.7590   31.5621   47.0840 H   0  0  0  0  0  0  0  0  0  0  0  0
   64.2147   32.0047   47.0364 H   0  0  0  0  0  0  0  0  0  0  0  0
   65.2573   33.4583   48.7794 H   0  0  0  0  0  0  0  0  0  0  0  0
   63.8448   34.4763   50.5652 H   0  0  0  0  0  0  0  0  0  0  0  0
   61.3882   34.0378   50.6221 H   0  0  0  0  0  0  0  0  0  0  0  0
   58.8601   35.9379   45.6016 H   0  0  0  0  0  0  0  0  0  0  0  0
   59.7645   35.2017   44.2353 H   0  0  0  0  0  0  0  0  0  0  0  0
   57.9683   35.1865   44.2353 H   0  0  0  0  0  0  0  0  0  0  0  0
   59.5183   25.1487   45.7761 H   0  0  0  0  0  0  0  0  0  0  0  0
   58.7426   25.5846   47.3708 H   0  0  0  0  0  0  0  0  0  0  0  0
   58.0971   23.2003   45.5915 H   0  0  0  0  0  0  0  0  0  0  0  0
   58.8608   23.1967   47.2304 H   0  0  0  0  0  0  0  0  0  0  0  0
  1  2  1  0
  2  3  1  0
  3  4  2  0
  3  5  1  0
  5  6  1  0
  6  7  1  0
  7  8  2  0
  7  9  1  0
  9 10  2  0
 10 11  1  0
 10 12  1  0
 12 13  1  0
 13 14  1  0
 14 15  2  0
 15 16  1  0
 16 17  2  0
 17 18  1  0
 18 19  2  0
 12 20  1  0
 20 21  2  0
 20 22  1  0
 22 23  1  0
 22 24  1  0
 24 25  2  0
  5 26  1  0
 26 27  2  0
 26 28  1  0
 28 29  1  0
 29 30  1  0
 30 31  1  0
 31 32  2  0
 31 33  1  0
 33 34  1  0
 34 35  2  0
 28  2  1  6
 24  9  1  0
 34 28  1  0
 19 14  1  0
  1 36  1  0
  1 37  1  0
  1 38  1  0
  6 39  1  0
  6 40  1  0
 11 41  1  0
 11 42  1  0
 13 43  1  0
 13 44  1  0
 15 45  1  0
 16 46  1  0
 17 47  1  0
 18 48  1  0
 19 49  1  0
 23 50  1  0
 23 51  1  0
 23 52  1  0
 29 53  1  0
 29 54  1  0
 30 55  1  0
 30 56  1  0
M  CHG  1  33  -1
M  END
>  <UniqueID>  (34) 
34

>  <SMILES>  (34) 
CN1C(=O)N(CC(=O)c2c(N)n(Cc3ccccc3)c(=O)n(C)c2=O)C(=O)[C@]12CCC(=O)[N-]C2=O

>  <Energy>  (34) 
91.64732165127603

>  <Genealogy>  (34) 
CN1C(=O)N(CC(=O)c2c(N)n(Cc3ccccc3)c(=O)n(C)c2=O)C(=O)C12CCC(=O)[N-]C2=O (protonated)
CN1C(=O)N(CC(=O)c2c(N)n(Cc3ccccc3)c(=O)n(C)c2=O)C(=O)[C@]12CCC(=O)[N-]C2=O (chirality)
CN1C(=O)N(CC(=O)c2c(N)n(Cc3ccccc3)c(=O)n(C)c2=O)C(=O)[C@]12CCC(=O)[N-]C2=O (3D coordinates assigned)
CN1C(=O)N(CC(=O)c2c(N)n(Cc3ccccc3)c(=O)n(C)c2=O)C(=O)[C@]12CCC(=O)[N-]C2=O (nonaromatic ring conformer: 91.64732165127603 kcal/mol)

>  <smiles>  (34) 
CN1C(=O)N(CC(=O)c2c(N)n(Cc3ccccc3)c(=O)n(C)c2=O)C(=O)C12CCC(=O)NC2=O

>  <score_type>  (34) 
oracle

>  <origin>  (34) 
adg

>  <m_score__min__energy>  (34) 
-11.880000000000001

>  <m_primary>  (34) 
energy

$$$$
34:0
     RDKit          3D

 28 28  0  0  0  0  0  0  0  0999 V2000
   56.8070   29.7070   42.9830 C   0  0  0  0  0  0  0  0  0  0  0  0
   55.5140   29.7140   43.7900 C   0  0  0  0  0  0  0  0  0  0  0  0
   55.5900   28.7840   44.8680 O   0  0  0  0  0  0  0  0  0  0  0  0
   56.7660   28.5170   45.5770 C   0  0  0  0  0  0  0  0  0  0  0  0
   57.5030   29.4650   45.9680 O   0  0  0  0  0  0  0  0  0  0  0  0
   57.1370   27.1200   45.8930 C   0  0  0  0  0  0  0  0  0  0  0  0
   58.4920   26.7110   45.9710 C   0  0  0  0  0  0  0  0  0  0  0  0
   59.8410   27.8520   45.8150 S   0  0  0  0  0  0  0  0  0  0  0  0
   59.8950   28.9060   47.1850 N   0  0  0  0  0  0  0  0  0  0  0  0
   61.1350   27.0930   45.7280 O   0  0  0  0  0  0  0  0  0  0  0  0
   59.6630   28.6940   44.5820 O   0  0  0  0  0  0  0  0  0  0  0  0
   58.7900   25.3650   46.2200 C   0  0  0  0  0  0  0  0  0  0  0  0
   57.7760   24.4250   46.4210 C   0  0  0  0  0  0  0  0  0  0  0  0
   58.1200   23.0950   46.6730 O   0  0  0  0  0  0  0  0  0  0  0  0
   56.4240   24.8220   46.3740 C   0  0  0  0  0  0  0  0  0  0  0  0
   55.3210   23.8510   46.5880 C   0  0  0  0  0  0  0  0  0  0  0  0
   55.5030   22.7660   47.2010 O   0  0  0  0  0  0  0  0  0  0  0  0
   56.1150   26.1710   46.1030 C   0  0  0  0  0  0  0  0  0  0  0  0
   54.7810   26.5670   46.0230 O   0  0  0  0  0  0  0  0  0  0  0  0
   57.6671   29.7023   43.6687 H   0  0  0  0  0  0  0  0  0  0  0  0
   56.8386   28.8087   42.3490 H   0  0  0  0  0  0  0  0  0  0  0  0
   56.8484   30.6049   42.3490 H   0  0  0  0  0  0  0  0  0  0  0  0
   55.3457   30.7231   44.1943 H   0  0  0  0  0  0  0  0  0  0  0  0
   54.6827   29.4248   43.1302 H   0  0  0  0  0  0  0  0  0  0  0  0
   59.1570   29.6310   47.0430 H   0  0  0  0  0  0  0  0  0  0  0  0
   59.8410   25.0424   46.2579 H   0  0  0  0  0  0  0  0  0  0  0  0
   57.7650   22.5950   47.4800 H   0  0  0  0  0  0  0  0  0  0  0  0
   54.3185   24.0856   46.2009 H   0  0  0  0  0  0  0  0  0  0  0  0
  1  2  1  0
  2  3  1  0
  3  4  1  0
  4  5  2  0
  4  6  1  0
  6  7  2  0
  7  8  1  0
  8  9  1  0
  8 10  2  0
  8 11  2  0
  7 12  1  0
 12 13  2  0
 13 14  1  0
 13 15  1  0
 15 16  1  0
 16 17  2  0
 15 18  2  0
 18 19  1  0
 18  6  1  0
  1 20  1  0
  1 21  1  0
  1 22  1  0
  2 23  1  0
  2 24  1  0
  9 25  1  0
 12 26  1  0
 14 27  1  0
 16 28  1  0
M  CHG  2   9  -1  19  -1
M  END
>  <UniqueID>  (35) 
35

>  <SMILES>  (35) 
CCOC(=O)c1c(S([NH-])(=O)=O)cc(O)c(C=O)c1[O-]

>  <Energy>  (35) 
32.10750160771377

>  <Genealogy>  (35) 
CCOC(=O)c1c(S([NH-])(=O)=O)cc(O)c(C=O)c1[O-] (protonated)
CCOC(=O)c1c(S([NH-])(=O)=O)cc(O)c(C=O)c1[O-] (3D coordinates assigned)
CCOC(=O)c1c(S([NH-])(=O)=O)cc(O)c(C=O)c1[O-] (optimized conformer: 32.10750160771377 kcal/mol)

>  <smiles>  (35) 
CCOC(=O)c1c(S(N)(=O)=O)cc(O)c(C=O)c1O

>  <score_type>  (35) 
oracle

>  <origin>  (35) 
adg

>  <m_score__min__energy>  (35) 
-9.8100000000000005

>  <m_primary>  (35) 
energy

$$$$
35:0
     RDKit          3D

 28 29  0  0  0  0  0  0  0  0999 V2000
   58.1430   26.7660   42.6350 C   0  0  0  0  0  0  0  0  0  0  0  0
   57.8280   27.7760   43.6940 C   0  0  0  0  0  0  0  0  0  0  0  0
   57.4400   29.0470   43.3930 N   0  0  0  0  0  0  0  0  0  0  0  0
   57.1870   29.7830   44.5020 C   0  0  0  0  0  0  0  0  0  0  0  0
   56.7430   31.1120   44.5050 O   0  0  0  0  0  0  0  0  0  0  0  0
   57.5200   32.2200   44.1430 C   0  0  0  0  0  0  0  0  0  0  0  0
   57.7400   32.4770   42.9280 O   0  0  0  0  0  0  0  0  0  0  0  0
   58.1300   33.0600   45.1980 C   0  0  0  0  0  0  0  0  0  0  0  0
   57.9770   32.7290   46.5570 C   0  0  0  0  0  0  0  0  0  0  0  0
   58.5570   33.5270   47.5490 C   0  0  0  0  0  0  0  0  0  0  0  0
   59.2960   34.6580   47.1960 C   0  0  0  0  0  0  0  0  0  0  0  0
   59.4560   34.9950   45.8500 C   0  0  0  0  0  0  0  0  0  0  0  0
   58.8770   34.2010   44.8540 C   0  0  0  0  0  0  0  0  0  0  0  0
   57.4160   28.8850   45.9030 S   0  0  0  0  0  0  0  0  0  0  0  0
   57.8900   27.5040   45.0630 C   0  0  0  0  0  0  0  0  0  0  0  0
   58.2270   26.1910   45.6950 C   0  0  0  0  0  0  0  0  0  0  0  0
   58.4386   25.8182   43.1086 H   0  0  0  0  0  0  0  0  0  0  0  0
   57.2535   26.6014   42.0091 H   0  0  0  0  0  0  0  0  0  0  0  0
   58.9683   27.1362   42.0091 H   0  0  0  0  0  0  0  0  0  0  0  0
   57.3110   29.3870   42.4160 H   0  0  0  0  0  0  0  0  0  0  0  0
   57.3981   31.8378   46.8410 H   0  0  0  0  0  0  0  0  0  0  0  0
   58.4306   33.2629   48.6093 H   0  0  0  0  0  0  0  0  0  0  0  0
   59.7520   35.2833   47.9777 H   0  0  0  0  0  0  0  0  0  0  0  0
   60.0382   35.8861   45.5725 H   0  0  0  0  0  0  0  0  0  0  0  0
   59.0068   34.4708   43.7955 H   0  0  0  0  0  0  0  0  0  0  0  0
   58.2007   26.2936   46.7899 H   0  0  0  0  0  0  0  0  0  0  0  0
   57.4941   25.4336   45.3800 H   0  0  0  0  0  0  0  0  0  0  0  0
   59.2340   25.8802   45.3800 H   0  0  0  0  0  0  0  0  0  0  0  0
  1  2  1  0
  2  3  1  0
  3  4  2  0
  4  5  1  0
  5  6  1  0
  6  7  2  0
  6  8  1  0
  8  9  2  0
  9 10  1  0
 10 11  2  0
 11 12  1  0
 12 13  2  0
  4 14  1  0
 14 15  1  0
 15 16  1  0
 15  2  2  0
 13  8  1  0
  1 17  1  0
  1 18  1  0
  1 19  1  0
  3 20  1  0
  9 21  1  0
 10 22  1  0
 11 23  1  0
 12 24  1  0
 13 25  1  0
 16 26  1  0
 16 27  1  0
 16 28  1  0
M  CHG  1   3   1
M  END
>  <UniqueID>  (36) 
36

>  <SMILES>  (36) 
Cc1[nH+]c(OC(=O)c2ccccc2)sc1C

>  <Energy>  (36) 
59.19155667596835

>  <Genealogy>  (36) 
Cc1[nH+]c(OC(=O)c2ccccc2)sc1C (protonated)
Cc1[nH+]c(OC(=O)c2ccccc2)sc1C (3D coordinates assigned)
Cc1[nH+]c(OC(=O)c2ccccc2)sc1C (optimized conformer: 59.19155667596835 kcal/mol)

>  <smiles>  (36) 
Cc1nc(OC(=O)c2ccccc2)sc1C

>  <score_type>  (36) 
oracle

>  <origin>  (36) 
adg

>  <m_score__min__energy>  (36) 
-5.3099999999999996

>  <m_primary>  (36) 
energy

$$$$
36:0
     RDKit          3D

 40 42  0  0  0  0  0  0  0  0999 V2000
   62.0320   30.7210   50.2830 C   0  0  0  0  0  0  0  0  0  0  0  0
   61.8370   31.7140   49.2320 N   0  0  0  0  0  0  0  0  0  0  0  0
   60.7770   31.7090   48.4400 N   0  0  0  0  0  0  0  0  0  0  0  0
   60.8560   32.7840   47.6270 C   0  0  0  0  0  0  0  0  0  0  0  0
   59.8270   33.1230   46.6120 C   0  0  0  0  0  0  0  0  0  0  0  0
   59.9600   34.2940   45.8460 C   0  0  0  0  0  0  0  0  0  0  0  0
   59.0080   34.6210   44.8770 C   0  0  0  0  0  0  0  0  0  0  0  0
   57.9110   33.7850   44.6590 C   0  0  0  0  0  0  0  0  0  0  0  0
   57.7600   32.6070   45.4120 C   0  0  0  0  0  0  0  0  0  0  0  0
   56.6560   31.7130   45.2130 N   0  0  0  0  0  0  0  0  0  0  0  0
   56.6790   30.3060   44.2030 S   0  0  0  0  0  0  0  0  0  0  0  0
   57.1100   30.7000   42.8190 O   0  0  0  0  0  0  0  0  0  0  0  0
   55.2910   29.7330   44.1270 O   0  0  0  0  0  0  0  0  0  0  0  0
   57.8370   29.1410   44.8460 C   0  0  0  0  0  0  0  0  0  0  0  0
   59.2070   29.4130   44.7160 C   0  0  0  0  0  0  0  0  0  0  0  0
   60.1560   28.5230   45.2270 C   0  0  0  0  0  0  0  0  0  0  0  0
   59.7430   27.3530   45.8720 C   0  0  0  0  0  0  0  0  0  0  0  0
   60.6640   26.4930   46.3720 F   0  0  0  0  0  0  0  0  0  0  0  0
   58.3780   27.0710   46.0000 C   0  0  0  0  0  0  0  0  0  0  0  0
   57.4240   27.9580   45.4890 C   0  0  0  0  0  0  0  0  0  0  0  0
   56.1080   27.6540   45.6220 F   0  0  0  0  0  0  0  0  0  0  0  0
   58.7180   32.2830   46.3840 C   0  0  0  0  0  0  0  0  0  0  0  0
   62.0100   33.4970   47.9200 C   0  0  0  0  0  0  0  0  0  0  0  0
   62.6160   32.7820   48.9370 C   0  0  0  0  0  0  0  0  0  0  0  0
   63.8620   33.1880   49.6190 C   0  0  0  0  0  0  0  0  0  0  0  0
   65.1370   33.0640   48.9890 N   0  0  0  0  0  0  0  0  0  0  0  0
   63.7950   33.6930   50.7720 O   0  0  0  0  0  0  0  0  0  0  0  0
   61.9370   31.2045   51.2665 H   0  0  0  0  0  0  0  0  0  0  0  0
   61.2717   29.9318   50.1875 H   0  0  0  0  0  0  0  0  0  0  0  0
   63.0343   30.2780   50.1875 H   0  0  0  0  0  0  0  0  0  0  0  0
   60.8209   34.9586   46.0108 H   0  0  0  0  0  0  0  0  0  0  0  0
   59.1231   35.5402   44.2838 H   0  0  0  0  0  0  0  0  0  0  0  0
   57.1632   34.0485   43.8965 H   0  0  0  0  0  0  0  0  0  0  0  0
   59.5364   30.3320   44.2090 H   0  0  0  0  0  0  0  0  0  0  0  0
   61.2286   28.7431   45.1217 H   0  0  0  0  0  0  0  0  0  0  0  0
   58.0540   26.1486   46.5042 H   0  0  0  0  0  0  0  0  0  0  0  0
   58.6026   31.3627   46.9753 H   0  0  0  0  0  0  0  0  0  0  0  0
   62.3642   34.4252   47.4479 H   0  0  0  0  0  0  0  0  0  0  0  0
   66.0070   33.2700   49.5320 H   0  0  0  0  0  0  0  0  0  0  0  0
   65.2240   32.8860   47.9660 H   0  0  0  0  0  0  0  0  0  0  0  0
  1  2  1  0
  2  3  1  0
  3  4  2  0
  4  5  1  0
  5  6  2  0
  6  7  1  0
  7  8  2  0
  8  9  1  0
  9 10  1  0
 10 11  1  0
 11 12  2  0
 11 13  2  0
 11 14  1  0
 14 15  2  0
 15 16  1  0
 16 17  2  0
 17 18  1  0
 17 19  1  0
 19 20  2  0
 20 21  1  0
  9 22  2  0
  4 23  1  0
 23 24  2  0
 24 25  1  0
 25 26  1  0
 25 27  2  0
 24  2  1  0
 22  5  1  0
 20 14  1  0
  1 28  1  0
  1 29  1  0
  1 30  1  0
  6 31  1  0
  7 32  1  0
  8 33  1  0
 15 34  1  0
 16 35  1  0
 19 36  1  0
 22 37  1  0
 23 38  1  0
 26 39  1  0
 26 40  1  0
M  CHG  1  10  -1
M  END
>  <UniqueID>  (37) 
37

>  <SMILES>  (37) 
Cn1nc(-c2cccc([N-]S(=O)(=O)c3ccc(F)cc3F)c2)cc1C(N)=O

>  <Energy>  (37) 
79.81790340032289

>  <Genealogy>  (37) 
Cn1nc(-c2cccc([N-]S(=O)(=O)c3ccc(F)cc3F)c2)cc1C(N)=O (protonated)
Cn1nc(-c2cccc([N-]S(=O)(=O)c3ccc(F)cc3F)c2)cc1C(N)=O (3D coordinates assigned)
Cn1nc(-c2cccc([N-]S(=O)(=O)c3ccc(F)cc3F)c2)cc1C(N)=O (optimized conformer: 79.81790340032289 kcal/mol)

>  <smiles>  (37) 
Cn1nc(-c2cccc(NS(=O)(=O)c3ccc(F)cc3F)c2)cc1C(N)=O

>  <score_type>  (37) 
oracle

>  <origin>  (37) 
adg

>  <m_score__min__energy>  (37) 
-10.19

>  <m_primary>  (37) 
energy

$$$$
37:0
     RDKit          3D

 39 41  0  0  0  0  0  0  0  0999 V2000
   55.1590   29.7190   44.1100 C   0  0  0  0  0  0  0  0  0  0  0  0
   56.4650   29.5090   43.4940 N   0  0  0  0  0  0  0  0  0  0  0  0
   57.4090   30.9670   43.5880 S   0  0  0  0  0  0  0  0  0  0  0  0
   57.2980   31.7310   42.2990 O   0  0  0  0  0  0  0  0  0  0  0  0
   58.8500   30.5980   43.8070 O   0  0  0  0  0  0  0  0  0  0  0  0
   56.8730   31.9740   44.8990 N   0  0  0  0  0  0  0  0  0  0  0  0
   57.4280   33.3190   44.7460 C   0  0  0  0  0  0  0  0  0  0  0  0
   57.7020   33.9280   46.1180 C   0  0  0  0  0  0  0  0  0  0  0  0
   59.4080   34.5660   46.1860 S   0  0  0  0  0  0  0  0  0  0  0  0
   60.1100   32.9800   46.6480 C   0  0  0  0  0  0  0  0  0  0  0  0
   61.4370   32.9030   47.0820 C   0  0  0  0  0  0  0  0  0  0  0  0
   61.9820   31.6700   47.4440 C   0  0  0  0  0  0  0  0  0  0  0  0
   61.2050   30.5100   47.3730 C   0  0  0  0  0  0  0  0  0  0  0  0
   59.8680   30.5710   46.9360 C   0  0  0  0  0  0  0  0  0  0  0  0
   59.0430   29.3410   46.8600 C   0  0  0  0  0  0  0  0  0  0  0  0
   59.2720   28.1600   47.6000 C   0  0  0  0  0  0  0  0  0  0  0  0
   58.2640   27.3280   47.1880 C   0  0  0  0  0  0  0  0  0  0  0  0
   57.9140   26.0610   47.4970 N   0  0  0  0  0  0  0  0  0  0  0  0
   56.8130   25.7500   46.7530 C   0  0  0  0  0  0  0  0  0  0  0  0
   56.2310   24.5990   46.8210 N   0  0  0  0  0  0  0  0  0  0  0  0
   56.2690   27.0140   45.7220 S   0  0  0  0  0  0  0  0  0  0  0  0
   57.5200   27.9650   46.2930 C   0  0  0  0  0  0  0  0  0  0  0  0
   57.9500   29.2070   46.0500 N   0  0  0  0  0  0  0  0  0  0  0  0
   59.3300   31.8200   46.5710 C   0  0  0  0  0  0  0  0  0  0  0  0
   55.2631   29.7023   45.2049 H   0  0  0  0  0  0  0  0  0  0  0  0
   54.7573   30.6933   43.7947 H   0  0  0  0  0  0  0  0  0  0  0  0
   54.4721   28.9198   43.7947 H   0  0  0  0  0  0  0  0  0  0  0  0
   57.2450   31.5590   45.7840 H   0  0  0  0  0  0  0  0  0  0  0  0
   58.3681   33.2630   44.1777 H   0  0  0  0  0  0  0  0  0  0  0  0
   56.7048   33.9497   44.2082 H   0  0  0  0  0  0  0  0  0  0  0  0
   56.9969   34.7529   46.2980 H   0  0  0  0  0  0  0  0  0  0  0  0
   57.5745   33.1540   46.8891 H   0  0  0  0  0  0  0  0  0  0  0  0
   62.0512   33.8138   47.1381 H   0  0  0  0  0  0  0  0  0  0  0  0
   63.0258   31.6109   47.7861 H   0  0  0  0  0  0  0  0  0  0  0  0
   61.6415   29.5422   47.6608 H   0  0  0  0  0  0  0  0  0  0  0  0
   60.0682   27.9568   48.3313 H   0  0  0  0  0  0  0  0  0  0  0  0
   56.2970   24.0090   47.6810 H   0  0  0  0  0  0  0  0  0  0  0  0
   57.5450   29.8910   45.3740 H   0  0  0  0  0  0  0  0  0  0  0  0
   58.2886   31.8848   46.2226 H   0  0  0  0  0  0  0  0  0  0  0  0
  1  2  1  0
  2  3  1  0
  3  4  2  0
  3  5  2  0
  3  6  1  0
  6  7  1  0
  7  8  1  0
  8  9  1  0
  9 10  1  0
 10 11  2  0
 11 12  1  0
 12 13  2  0
 13 14  1  0
 14 15  1  0
 15 16  2  0
 16 17  1  0
 17 18  1  0
 18 19  1  0
 19 20  2  3
 19 21  1  0
 21 22  1  0
 22 23  1  0
 14 24  2  0
 24 10  1  0
 23 15  1  0
 22 17  2  0
  1 25  1  0
  1 26  1  0
  1 27  1  0
  6 28  1  0
  7 29  1  0
  7 30  1  0
  8 31  1  0
  8 32  1  0
 11 33  1  0
 12 34  1  0
 13 35  1  0
 16 36  1  0
 20 37  1  0
 23 38  1  0
 24 39  1  0
M  CHG  2   2  -1  18  -1
M  END
>  <UniqueID>  (38) 
38

>  <SMILES>  (38) 
C[N-]S(=O)(=O)NCCSc1cccc(-c2cc3[n-]c(=N)sc3[nH]2)c1

>  <Energy>  (38) 
109.95461034570292

>  <Genealogy>  (38) 
C[N-]S(=O)(=O)NCCSc1cccc(-c2cc3[n-]c(=N)sc3[nH]2)c1 (protonated)
C[N-]S(=O)(=O)NCCSc1cccc(-c2cc3[n-]c(=N)sc3[nH]2)c1 (3D coordinates assigned)
C[N-]S(=O)(=O)NCCSc1cccc(-c2cc3[n-]c(=N)sc3[nH]2)c1 (optimized conformer: 109.95461034570292 kcal/mol)

>  <smiles>  (38) 
CNS(=O)(=O)NCCSc1cccc(-c2cc3[nH]c(=N)sc3[nH]2)c1

>  <score_type>  (38) 
oracle

>  <origin>  (38) 
adg

>  <m_score__min__energy>  (38) 
-10.789999999999999

>  <m_primary>  (38) 
energy

$$$$
38:0
     RDKit          3D

 62 65  0  0  0  0  0  0  0  0999 V2000
   58.0380   27.7060   47.8440 O   0  0  0  0  0  0  0  0  0  0  0  0
   58.8660   26.7630   47.7070 C   0  0  0  0  0  0  0  0  0  0  0  0
   58.6320   25.7380   46.7420 N   0  0  0  0  0  0  0  0  0  0  0  0
   57.3070   25.7930   45.6220 S   0  0  0  0  0  0  0  0  0  0  0  0
   56.1840   24.9410   46.1420 O   0  0  0  0  0  0  0  0  0  0  0  0
   57.7620   25.2530   44.2960 O   0  0  0  0  0  0  0  0  0  0  0  0
   56.7160   27.4220   45.4090 N   0  0  0  0  0  0  0  0  0  0  0  0
   57.7490   28.3550   44.9080 C   0  0  1  0  0  0  0  0  0  0  0  0
   57.6300   28.5980   43.3900 C   0  0  0  0  0  0  0  0  0  0  0  0
   56.3870   29.4180   43.0130 C   0  0  0  0  0  0  0  0  0  0  0  0
   55.9250   30.3750   44.1290 C   0  0  0  0  0  0  0  0  0  0  0  0
   57.0290   30.8260   45.0010 N   0  0  0  0  0  0  0  0  0  0  0  0
   57.9470   31.7780   44.3350 C   0  0  0  0  0  0  0  0  0  0  0  0
   58.4310   32.8200   45.3100 C   0  0  0  0  0  0  0  0  0  0  0  0
   58.1600   32.6820   46.6810 C   0  0  0  0  0  0  0  0  0  0  0  0
   58.6080   33.6460   47.5890 C   0  0  0  0  0  0  0  0  0  0  0  0
   59.3330   34.7520   47.1350 C   0  0  0  0  0  0  0  0  0  0  0  0
   59.6020   34.9010   45.7720 C   0  0  0  0  0  0  0  0  0  0  0  0
   59.1510   33.9410   44.8600 C   0  0  0  0  0  0  0  0  0  0  0  0
   57.7260   29.7080   45.6890 C   0  0  0  0  0  0  0  0  0  0  0  0
   60.0160   26.6790   48.5590 N   0  0  0  0  0  0  0  0  0  0  0  0
   60.4710   27.7650   49.3830 C   0  0  0  0  0  0  0  0  0  0  0  0
   61.1150   27.4870   50.5970 C   0  0  0  0  0  0  0  0  0  0  0  0
   61.5650   28.5300   51.4110 C   0  0  0  0  0  0  0  0  0  0  0  0
   61.3960   29.8580   51.0070 C   0  0  0  0  0  0  0  0  0  0  0  0
   60.8000   30.1500   49.7760 C   0  0  0  0  0  0  0  0  0  0  0  0
   60.6640   31.4920   49.3930 O   0  0  0  0  0  0  0  0  0  0  0  0
   61.6550   32.2560   48.7540 C   0  0  0  0  0  0  0  0  0  0  0  0
   62.0890   33.4390   49.3640 C   0  0  0  0  0  0  0  0  0  0  0  0
   63.0840   34.2190   48.7670 C   0  0  0  0  0  0  0  0  0  0  0  0
   63.6620   33.8140   47.5620 C   0  0  0  0  0  0  0  0  0  0  0  0
   63.2450   32.6270   46.9510 C   0  0  0  0  0  0  0  0  0  0  0  0
   62.2540   31.8440   47.5470 C   0  0  0  0  0  0  0  0  0  0  0  0
   60.3220   29.1000   48.9710 C   0  0  0  0  0  0  0  0  0  0  0  0
   56.3680   27.7430   46.3440 H   0  0  0  0  0  0  0  0  0  0  0  0
   55.8980   27.3830   44.7600 H   0  0  0  0  0  0  0  0  0  0  0  0
   58.7208   27.8718   45.0875 H   0  0  0  0  0  0  0  0  0  0  0  0
   58.5248   29.1399   43.0498 H   0  0  0  0  0  0  0  0  0  0  0  0
   57.5380   27.6155   42.9040 H   0  0  0  0  0  0  0  0  0  0  0  0
   56.6199   30.0129   42.1175 H   0  0  0  0  0  0  0  0  0  0  0  0
   55.5682   28.7050   42.8364 H   0  0  0  0  0  0  0  0  0  0  0  0
   55.4636   31.2584   43.6635 H   0  0  0  0  0  0  0  0  0  0  0  0
   55.2136   29.8226   44.7605 H   0  0  0  0  0  0  0  0  0  0  0  0
   58.8116   31.2272   43.9361 H   0  0  0  0  0  0  0  0  0  0  0  0
   57.4058   32.2802   43.5196 H   0  0  0  0  0  0  0  0  0  0  0  0
   57.5927   31.8115   47.0421 H   0  0  0  0  0  0  0  0  0  0  0  0
   58.3900   33.5343   48.6614 H   0  0  0  0  0  0  0  0  0  0  0  0
   59.6919   35.5055   47.8515 H   0  0  0  0  0  0  0  0  0  0  0  0
   60.1688   35.7739   45.4159 H   0  0  0  0  0  0  0  0  0  0  0  0
   59.3603   34.0634   43.7871 H   0  0  0  0  0  0  0  0  0  0  0  0
   58.7670   30.0151   45.8678 H   0  0  0  0  0  0  0  0  0  0  0  0
   57.1585   29.5173   46.6118 H   0  0  0  0  0  0  0  0  0  0  0  0
   60.4870   25.7510   48.6530 H   0  0  0  0  0  0  0  0  0  0  0  0
   61.2667   26.4435   50.9101 H   0  0  0  0  0  0  0  0  0  0  0  0
   62.0529   28.3060   52.3711 H   0  0  0  0  0  0  0  0  0  0  0  0
   61.7332   30.6764   51.6601 H   0  0  0  0  0  0  0  0  0  0  0  0
   61.6445   33.7568   50.3187 H   0  0  0  0  0  0  0  0  0  0  0  0
   63.4119   35.1528   49.2471 H   0  0  0  0  0  0  0  0  0  0  0  0
   64.4450   34.4283   47.0935 H   0  0  0  0  0  0  0  0  0  0  0  0
   63.6980   32.3099   46.0001 H   0  0  0  0  0  0  0  0  0  0  0  0
   61.9400   30.9025   47.0726 H   0  0  0  0  0  0  0  0  0  0  0  0
   59.8289   29.3253   48.0139 H   0  0  0  0  0  0  0  0  0  0  0  0
  1  2  2  0
  2  3  1  0
  3  4  1  0
  4  5  2  0
  4  6  2  0
  4  7  1  0
  7  8  1  0
  8  9  1  0
  9 10  1  0
 10 11  1  0
 11 12  1  0
 12 13  1  0
 13 14  1  0
 14 15  2  0
 15 16  1  0
 16 17  2  0
 17 18  1  0
 18 19  2  0
 12 20  1  0
  2 21  1  0
 21 22  1  0
 22 23  2  0
 23 24  1  0
 24 25  2  0
 25 26  1  0
 26 27  1  0
 27 28  1  0
 28 29  2  0
 29 30  1  0
 30 31  2  0
 31 32  1  0
 32 33  2  0
 26 34  2  0
 20  8  1  0
 34 22  1  0
 19 14  1  0
 33 28  1  0
  7 35  1  0
  7 36  1  0
  8 37  1  6
  9 38  1  0
  9 39  1  0
 10 40  1  0
 10 41  1  0
 11 42  1  0
 11 43  1  0
 13 44  1  0
 13 45  1  0
 15 46  1  0
 16 47  1  0
 17 48  1  0
 18 49  1  0
 19 50  1  0
 20 51  1  0
 20 52  1  0
 21 53  1  0
 23 54  1  0
 24 55  1  0
 25 56  1  0
 29 57  1  0
 30 58  1  0
 31 59  1  0
 32 60  1  0
 33 61  1  0
 34 62  1  0
M  CHG  2   3  -1   7   1
M  END
>  <UniqueID>  (39) 
39

>  <SMILES>  (39) 
O=C([N-]S(=O)(=O)[NH2+][C@H]1CCCN(Cc2ccccc2)C1)Nc1cccc(Oc2ccccc2)c1

>  <Energy>  (39) 
88.77802890177881

>  <Genealogy>  (39) 
O=C([N-]S(=O)(=O)[NH2+]C1CCCN(Cc2ccccc2)C1)Nc1cccc(Oc2ccccc2)c1 (protonated)
O=C([N-]S(=O)(=O)[NH2+][C@H]1CCCN(Cc2ccccc2)C1)Nc1cccc(Oc2ccccc2)c1 (chirality)
O=C([N-]S(=O)(=O)[NH2+][C@H]1CCCN(Cc2ccccc2)C1)Nc1cccc(Oc2ccccc2)c1 (3D coordinates assigned)
O=C([N-]S(=O)(=O)[NH2+][C@H]1CCCN(Cc2ccccc2)C1)Nc1cccc(Oc2ccccc2)c1 (nonaromatic ring conformer: 88.77802890177881 kcal/mol)

>  <smiles>  (39) 
O=C(Nc1cccc(Oc2ccccc2)c1)NS(=O)(=O)NC1CCCN(Cc2ccccc2)C1

>  <score_type>  (39) 
oracle

>  <origin>  (39) 
adg

>  <m_score__min__energy>  (39) 
-9.4399999999999995

>  <m_primary>  (39) 
energy

$$$$
39:0
     RDKit          3D

 28 30  0  0  0  0  0  0  0  0999 V2000
   55.2180   26.4710   46.1440 N   0  0  0  0  0  0  0  0  0  0  0  0
   56.9110   26.7900   45.9930 S   0  0  0  0  0  0  0  0  0  0  0  0
   57.5330   26.7470   47.3610 O   0  0  0  0  0  0  0  0  0  0  0  0
   57.5430   25.7390   45.1250 O   0  0  0  0  0  0  0  0  0  0  0  0
   57.1590   28.3750   45.2680 C   0  0  0  0  0  0  0  0  0  0  0  0
   58.4560   28.8780   45.0920 C   0  0  0  0  0  0  0  0  0  0  0  0
   58.6490   30.1350   44.5110 C   0  0  0  0  0  0  0  0  0  0  0  0
   57.5480   30.8950   44.1000 C   0  0  0  0  0  0  0  0  0  0  0  0
   57.7960   32.5100   43.3630 S   0  0  0  0  0  0  0  0  0  0  0  0
   58.4190   33.2080   44.8890 C   0  0  0  0  0  0  0  0  0  0  0  0
   59.1250   34.4310   44.8810 C   0  0  0  0  0  0  0  0  0  0  0  0
   59.6010   34.9730   46.0870 C   0  0  0  0  0  0  0  0  0  0  0  0
   59.3420   34.2500   47.2440 C   0  0  0  0  0  0  0  0  0  0  0  0
   59.6900   34.5560   48.5070 N   0  0  0  0  0  0  0  0  0  0  0  0
   59.2200   33.5650   49.2660 N   0  0  0  0  0  0  0  0  0  0  0  0
   58.6000   32.6750   48.4540 C   0  0  0  0  0  0  0  0  0  0  0  0
   58.6730   33.1000   47.1890 N   0  0  0  0  0  0  0  0  0  0  0  0
   58.2060   32.5560   46.0690 N   0  0  0  0  0  0  0  0  0  0  0  0
   56.2530   30.3910   44.2650 C   0  0  0  0  0  0  0  0  0  0  0  0
   56.0590   29.1340   44.8460 C   0  0  0  0  0  0  0  0  0  0  0  0
   54.7770   26.7210   45.2310 H   0  0  0  0  0  0  0  0  0  0  0  0
   59.3237   28.2823   45.4118 H   0  0  0  0  0  0  0  0  0  0  0  0
   59.6679   30.5273   44.3767 H   0  0  0  0  0  0  0  0  0  0  0  0
   59.3021   34.9586   43.9322 H   0  0  0  0  0  0  0  0  0  0  0  0
   60.1524   35.9245   46.1133 H   0  0  0  0  0  0  0  0  0  0  0  0
   58.1120   31.7463   48.7848 H   0  0  0  0  0  0  0  0  0  0  0  0
   55.3867   30.9843   43.9373 H   0  0  0  0  0  0  0  0  0  0  0  0
   55.0399   28.7397   44.9722 H   0  0  0  0  0  0  0  0  0  0  0  0
  1  2  1  0
  2  3  2  0
  2  4  2  0
  2  5  1  0
  5  6  2  0
  6  7  1  0
  7  8  2  0
  8  9  1  0
  9 10  1  0
 10 11  1  0
 11 12  2  0
 12 13  1  0
 13 14  2  0
 14 15  1  0
 15 16  2  0
 16 17  1  0
 17 18  1  0
  8 19  1  0
 19 20  2  0
 20  5  1  0
 18 10  2  0
 17 13  1  0
  1 21  1  0
  6 22  1  0
  7 23  1  0
 11 24  1  0
 12 25  1  0
 16 26  1  0
 19 27  1  0
 20 28  1  0
M  CHG  1   1  -1
M  END
>  <UniqueID>  (40) 
40

>  <SMILES>  (40) 
[NH-]S(=O)(=O)c1ccc(Sc2ccc3nncn3n2)cc1

>  <Energy>  (40) 
69.05815483691703

>  <Genealogy>  (40) 
[NH-]S(=O)(=O)c1ccc(Sc2ccc3nncn3n2)cc1 (protonated)
[NH-]S(=O)(=O)c1ccc(Sc2ccc3nncn3n2)cc1 (3D coordinates assigned)
[NH-]S(=O)(=O)c1ccc(Sc2ccc3nncn3n2)cc1 (optimized conformer: 69.05815483691703 kcal/mol)

>  <smiles>  (40) 
NS(=O)(=O)c1ccc(Sc2ccc3nncn3n2)cc1

>  <score_type>  (40) 
oracle

>  <origin>  (40) 
adg

>  <m_score__min__energy>  (40) 
-11.039999999999999

>  <m_primary>  (40) 
energy

$$$$
40:0
     RDKit          3D

 40 42  0  0  0  0  0  0  0  0999 V2000
   57.4740   32.3210   40.7250 C   0  0  0  0  0  0  0  0  0  0  0  0
   57.4210   32.0250   42.1680 C   0  0  0  0  0  0  0  0  0  0  0  0
   56.9320   30.9400   42.7180 N   0  0  0  0  0  0  0  0  0  0  0  0
   57.3560   30.8170   43.9920 C   0  0  0  0  0  0  0  0  0  0  0  0
   56.9400   29.8220   44.9660 C   0  0  0  0  0  0  0  0  0  0  0  0
   57.9850   28.8090   44.8410 N   0  0  0  0  0  0  0  0  0  0  0  0
   57.8090   27.9500   43.7220 C   0  0  0  0  0  0  0  0  0  0  0  0
   57.9260   26.5120   44.0580 C   0  0  0  0  0  0  0  0  0  0  0  0
   57.1770   26.2030   45.2690 N   0  0  0  0  0  0  0  0  0  0  0  0
   56.5950   24.9840   45.3510 C   0  0  0  0  0  0  0  0  0  0  0  0
   55.8240   24.7010   46.3730 O   0  0  0  0  0  0  0  0  0  0  0  0
   56.7690   23.7790   44.3160 C   0  0  0  0  0  0  0  0  0  0  0  0
   57.4440   22.8670   44.8710 C   0  0  0  0  0  0  0  0  0  0  0  0
   57.2830   21.5570   44.2940 C   0  0  0  0  0  0  0  0  0  0  0  0
   56.5200   21.5250   43.1600 N   0  0  0  0  0  0  0  0  0  0  0  0
   55.8900   22.6080   42.6350 C   0  0  0  0  0  0  0  0  0  0  0  0
   55.9890   23.8950   43.3570 C   0  0  0  0  0  0  0  0  0  0  0  0
   57.1890   27.1360   46.3700 C   0  0  0  0  0  0  0  0  0  0  0  0
   58.2910   28.1410   46.0690 C   0  0  0  0  0  0  0  0  0  0  0  0
   58.1630   31.9090   44.2550 C   0  0  0  0  0  0  0  0  0  0  0  0
   58.1740   32.6720   43.1020 N   0  0  0  0  0  0  0  0  0  0  0  0
   57.6661   33.3940   40.5776 H   0  0  0  0  0  0  0  0  0  0  0  0
   58.2818   31.7366   40.2603 H   0  0  0  0  0  0  0  0  0  0  0  0
   56.5136   32.0532   40.2603 H   0  0  0  0  0  0  0  0  0  0  0  0
   56.9141   30.2447   45.9812 H   0  0  0  0  0  0  0  0  0  0  0  0
   55.9259   29.4327   44.7927 H   0  0  0  0  0  0  0  0  0  0  0  0
   56.8093   28.1288   43.2994 H   0  0  0  0  0  0  0  0  0  0  0  0
   58.6115   28.1818   43.0062 H   0  0  0  0  0  0  0  0  0  0  0  0
   57.5287   25.9132   43.2252 H   0  0  0  0  0  0  0  0  0  0  0  0
   58.9864   26.2739   44.2278 H   0  0  0  0  0  0  0  0  0  0  0  0
   58.1045   23.0585   45.7295 H   0  0  0  0  0  0  0  0  0  0  0  0
   57.7372   20.6553   44.7305 H   0  0  0  0  0  0  0  0  0  0  0  0
   55.3208   22.5298   41.6970 H   0  0  0  0  0  0  0  0  0  0  0  0
   55.4525   24.8161   43.0853 H   0  0  0  0  0  0  0  0  0  0  0  0
   56.2181   27.6474   46.4460 H   0  0  0  0  0  0  0  0  0  0  0  0
   57.3678   26.6224   47.3262 H   0  0  0  0  0  0  0  0  0  0  0  0
   58.3528   28.8768   46.8844 H   0  0  0  0  0  0  0  0  0  0  0  0
   59.2563   27.6210   45.9804 H   0  0  0  0  0  0  0  0  0  0  0  0
   58.6912   32.1272   45.1949 H   0  0  0  0  0  0  0  0  0  0  0  0
   58.5750   33.6250   43.0240 H   0  0  0  0  0  0  0  0  0  0  0  0
  1  2  1  0
  2  3  2  0
  3  4  1  0
  4  5  1  0
  5  6  1  0
  6  7  1  0
  7  8  1  0
  8  9  1  0
  9 10  1  0
 10 11  2  0
 10 12  1  0
 12 13  2  0
 13 14  1  0
 14 15  2  0
 15 16  1  0
 16 17  2  0
  9 18  1  0
 18 19  1  0
  4 20  2  0
 20 21  1  0
 21  2  1  0
 19  6  1  0
 17 12  1  0
  1 22  1  0
  1 23  1  0
  1 24  1  0
  5 25  1  0
  5 26  1  0
  7 27  1  0
  7 28  1  0
  8 29  1  0
  8 30  1  0
 13 31  1  0
 14 32  1  0
 16 33  1  0
 17 34  1  0
 18 35  1  0
 18 36  1  0
 19 37  1  0
 19 38  1  0
 20 39  1  0
 21 40  1  0
M  END
>  <smiles>  (41) 
Cc1nc(CN2CCN(C(=O)c3ccncc3)CC2)c[nH]1

>  <score_type>  (41) 
oracle

>  <origin>  (41) 
adg

>  <m_score__min__energy>  (41) 
-7.0099999999999998

>  <m_primary>  (41) 
energy

$$$$
41:0
     RDKit          3D

 65 68  0  0  0  0  0  0  0  0999 V2000
   57.8940   32.3760   47.9090 C   0  0  0  0  0  0  0  0  0  0  0  0
   58.5000   33.4030   46.9940 C   0  0  0  0  0  0  0  0  0  0  0  0
   57.8360   33.7490   45.8030 C   0  0  0  0  0  0  0  0  0  0  0  0
   58.3940   34.6850   44.9290 C   0  0  0  0  0  0  0  0  0  0  0  0
   59.6260   35.2720   45.2230 C   0  0  0  0  0  0  0  0  0  0  0  0
   60.3010   34.9340   46.3990 C   0  0  0  0  0  0  0  0  0  0  0  0
   59.7400   34.0100   47.3000 C   0  0  0  0  0  0  0  0  0  0  0  0
   60.4560   33.6360   48.4890 N   0  0  0  0  0  0  0  0  0  0  0  0
   61.7560   33.0250   48.4830 C   0  0  0  0  0  0  0  0  0  0  0  0
   62.8190   33.3060   47.2590 S   0  0  0  0  0  0  0  0  0  0  0  0
   62.1820   32.2610   49.6240 N   0  0  0  0  0  0  0  0  0  0  0  0
   62.8470   32.9610   50.7310 C   0  0  0  0  0  0  0  0  0  0  0  0
   61.8650   33.8380   51.5230 C   0  0  0  0  0  0  0  0  0  0  0  0
   61.1310   33.0350   52.5260 N   0  0  0  0  0  0  0  0  0  0  0  0
   60.5000   31.8290   51.9350 C   0  0  0  0  0  0  0  0  0  0  0  0
   59.0490   32.0830   51.4800 C   0  0  0  0  0  0  0  0  0  0  0  0
   58.8550   33.4490   51.1830 O   0  0  0  0  0  0  0  0  0  0  0  0
   58.9270   34.2160   52.3710 C   0  0  0  0  0  0  0  0  0  0  0  0
   60.1350   33.8380   53.2630 C   0  0  0  0  0  0  0  0  0  0  0  0
   62.3310   30.8040   49.4950 C   0  0  0  0  0  0  0  0  0  0  0  0
   61.1630   30.2080   48.7500 C   0  0  0  0  0  0  0  0  0  0  0  0
   60.0390   29.7490   49.4560 C   0  0  0  0  0  0  0  0  0  0  0  0
   58.9140   29.2880   48.7680 C   0  0  0  0  0  0  0  0  0  0  0  0
   58.9030   29.2760   47.3710 C   0  0  0  0  0  0  0  0  0  0  0  0
   60.0200   29.7270   46.6570 C   0  0  0  0  0  0  0  0  0  0  0  0
   61.1480   30.1960   47.3440 C   0  0  0  0  0  0  0  0  0  0  0  0
   59.9550   29.7620   45.1890 C   0  0  0  0  0  0  0  0  0  0  0  0
   58.8920   29.2750   44.5420 C   0  0  0  0  0  0  0  0  0  0  0  0
   57.7680   28.5550   45.2700 C   0  0  0  0  0  0  0  0  0  0  0  0
   57.9440   27.0420   45.0800 C   0  0  0  0  0  0  0  0  0  0  0  0
   56.4210   29.0020   44.6900 C   0  0  0  0  0  0  0  0  0  0  0  0
   57.7700   28.8420   46.6770 O   0  0  0  0  0  0  0  0  0  0  0  0
   58.0670   32.6692   48.9550 H   0  0  0  0  0  0  0  0  0  0  0  0
   56.8122   32.3100   47.7208 H   0  0  0  0  0  0  0  0  0  0  0  0
   58.3593   31.3972   47.7208 H   0  0  0  0  0  0  0  0  0  0  0  0
   56.8716   33.2797   45.5585 H   0  0  0  0  0  0  0  0  0  0  0  0
   57.8613   34.9602   44.0068 H   0  0  0  0  0  0  0  0  0  0  0  0
   60.0662   36.0019   44.5277 H   0  0  0  0  0  0  0  0  0  0  0  0
   61.2758   35.3925   46.6215 H   0  0  0  0  0  0  0  0  0  0  0  0
   59.9660   33.7380   49.4020 H   0  0  0  0  0  0  0  0  0  0  0  0
   63.2868   32.2160   51.4104 H   0  0  0  0  0  0  0  0  0  0  0  0
   63.6228   33.6146   50.3056 H   0  0  0  0  0  0  0  0  0  0  0  0
   62.4258   34.6321   52.0377 H   0  0  0  0  0  0  0  0  0  0  0  0
   61.1384   34.2738   50.8215 H   0  0  0  0  0  0  0  0  0  0  0  0
   61.0923   31.5123   51.0638 H   0  0  0  0  0  0  0  0  0  0  0  0
   60.4746   31.0510   52.7122 H   0  0  0  0  0  0  0  0  0  0  0  0
   58.8417   31.4843   50.5808 H   0  0  0  0  0  0  0  0  0  0  0  0
   58.3662   31.7958   52.2932 H   0  0  0  0  0  0  0  0  0  0  0  0
   59.0117   35.2782   52.0979 H   0  0  0  0  0  0  0  0  0  0  0  0
   58.0141   34.0124   52.9499 H   0  0  0  0  0  0  0  0  0  0  0  0
   60.6157   34.7604   53.6209 H   0  0  0  0  0  0  0  0  0  0  0  0
   59.7633   33.2339   54.1038 H   0  0  0  0  0  0  0  0  0  0  0  0
   63.2585   30.5839   48.9461 H   0  0  0  0  0  0  0  0  0  0  0  0
   62.3673   30.3636   50.5024 H   0  0  0  0  0  0  0  0  0  0  0  0
   60.0445   29.7525   50.5560 H   0  0  0  0  0  0  0  0  0  0  0  0
   58.0354   28.9339   49.3271 H   0  0  0  0  0  0  0  0  0  0  0  0
   62.0230   30.5553   46.7824 H   0  0  0  0  0  0  0  0  0  0  0  0
   60.7898   30.1934   44.6172 H   0  0  0  0  0  0  0  0  0  0  0  0
   58.8283   29.3986   43.4508 H   0  0  0  0  0  0  0  0  0  0  0  0
   58.0009   26.5531   46.0637 H   0  0  0  0  0  0  0  0  0  0  0  0
   57.0865   26.6406   44.5201 H   0  0  0  0  0  0  0  0  0  0  0  0
   58.8708   26.8481   44.5201 H   0  0  0  0  0  0  0  0  0  0  0  0
   55.7265   29.2325   45.5113 H   0  0  0  0  0  0  0  0  0  0  0  0
   56.5679   29.8996   44.0713 H   0  0  0  0  0  0  0  0  0  0  0  0
   56.0022   28.1947   44.0713 H   0  0  0  0  0  0  0  0  0  0  0  0
  1  2  1  0
  2  3  2  0
  3  4  1  0
  4  5  2  0
  5  6  1  0
  6  7  2  0
  7  8  1  0
  8  9  1  0
  9 10  2  0
  9 11  1  0
 11 12  1  0
 12 13  1  0
 13 14  1  0
 14 15  1  0
 15 16  1  0
 16 17  1  0
 17 18  1  0
 18 19  1  0
 11 20  1  0
 20 21  1  0
 21 22  2  0
 22 23  1  0
 23 24  2  0
 24 25  1  0
 25 26  2  0
 25 27  1  0
 27 28  2  0
 28 29  1  0
 29 30  1  0
 29 31  1  0
 29 32  1  0
  7  2  1  0
 19 14  1  0
 26 21  1  0
 32 24  1  0
  1 33  1  0
  1 34  1  0
  1 35  1  0
  3 36  1  0
  4 37  1  0
  5 38  1  0
  6 39  1  0
  8 40  1  0
 12 41  1  0
 12 42  1  0
 13 43  1  0
 13 44  1  0
 15 45  1  0
 15 46  1  0
 16 47  1  0
 16 48  1  0
 18 49  1  0
 18 50  1  0
 19 51  1  0
 19 52  1  0
 20 53  1  0
 20 54  1  0
 22 55  1  0
 23 56  1  0
 26 57  1  0
 27 58  1  0
 28 59  1  0
 30 60  1  0
 30 61  1  0
 30 62  1  0
 31 63  1  0
 31 64  1  0
 31 65  1  0
M  END
>  <UniqueID>  (42) 
41

>  <SMILES>  (42) 
Cc1ccccc1NC(=S)N(CCN1CCOCC1)Cc1ccc2c(c1)C=CC(C)(C)O2

>  <Energy>  (42) 
82.43362396001221

>  <Genealogy>  (42) 
Cc1ccccc1NC(=S)N(CCN1CCOCC1)Cc1ccc2c(c1)C=CC(C)(C)O2 (3D coordinates assigned)
Cc1ccccc1NC(=S)N(CCN1CCOCC1)Cc1ccc2c(c1)C=CC(C)(C)O2 (nonaromatic ring conformer: 82.43362396001221 kcal/mol)

>  <smiles>  (42) 
Cc1ccccc1NC(=S)N(CCN1CCOCC1)Cc1ccc2c(c1)C=CC(C)(C)O2

>  <score_type>  (42) 
oracle

>  <origin>  (42) 
adg

>  <m_score__min__energy>  (42) 
-9.2899999999999991

>  <m_primary>  (42) 
energy

$$$$
42:0
     RDKit          3D

 43 46  0  0  1  0  0  0  0  0999 V2000
   55.4450   29.1610   45.1730 O   0  0  0  0  0  0  0  0  0  0  0  0
   56.6480   28.4320   45.2130 C   0  0  0  0  0  0  0  0  0  0  0  0
   56.6680   27.1840   45.8340 C   0  0  0  0  0  0  0  0  0  0  0  0
   57.8660   26.4910   45.8560 C   0  0  0  0  0  0  0  0  0  0  0  0
   58.9970   27.0330   45.2760 C   0  0  0  0  0  0  0  0  0  0  0  0
   58.9940   28.2640   44.6580 C   0  0  0  0  0  0  0  0  0  0  0  0
   57.8010   28.9560   44.6350 C   0  0  0  0  0  0  0  0  0  0  0  0
   57.6600   30.3010   43.9980 C   0  0  0  0  0  0  0  0  0  0  0  0
   56.9010   31.2060   44.8150 N   0  0  0  0  0  0  0  0  0  0  0  0
   57.4230   32.3100   45.2150 C   0  0  0  0  0  0  0  0  0  0  0  0
   57.4080   33.4450   44.5060 N   0  0  0  0  0  0  0  0  0  0  0  0
   57.9480   34.6000   44.9160 C   0  0  0  0  0  0  0  0  0  0  0  0
   58.5620   34.6240   46.1520 C   0  0  0  0  0  0  0  0  0  0  0  0
   58.5800   33.4440   46.8920 C   0  0  0  0  0  0  0  0  0  0  0  0
   59.1450   33.4520   48.0380 N   0  0  0  0  0  0  0  0  0  0  0  0
   60.1930   32.5840   48.4480 C   0  0  0  0  0  0  0  0  0  0  0  0
   59.9380   31.2820   48.8700 C   0  0  0  0  0  0  0  0  0  0  0  0
   58.6760   30.6630   48.9510 O   0  0  0  0  0  0  0  0  0  0  0  0
   61.1390   30.7240   49.1890 N   0  0  0  0  0  0  0  0  0  0  0  0
   62.0930   31.6290   48.9770 C   0  0  0  0  0  0  0  0  0  0  0  0
   63.4500   31.5590   49.1440 C   0  0  0  0  0  0  0  0  0  0  0  0
   64.2580   32.6500   48.8530 C   0  0  0  0  0  0  0  0  0  0  0  0
   63.6920   33.8280   48.3870 C   0  0  0  0  0  0  0  0  0  0  0  0
   62.3070   33.9180   48.2110 C   0  0  0  0  0  0  0  0  0  0  0  0
   61.5520   32.8090   48.5140 C   0  0  0  0  0  0  0  0  0  0  0  0
   58.0190   32.3040   46.4290 N   0  0  0  0  0  0  0  0  0  0  0  0
   55.4070   30.0840   45.6290 H   0  0  0  0  0  0  0  0  0  0  0  0
   55.7606   26.7634   46.2919 H   0  0  0  0  0  0  0  0  0  0  0  0
   57.9180   25.5035   46.3378 H   0  0  0  0  0  0  0  0  0  0  0  0
   59.9352   26.4597   45.3091 H   0  0  0  0  0  0  0  0  0  0  0  0
   59.9052   28.6781   44.2017 H   0  0  0  0  0  0  0  0  0  0  0  0
   58.6624   30.7242   43.8361 H   0  0  0  0  0  0  0  0  0  0  0  0
   57.1243   30.1717   43.0460 H   0  0  0  0  0  0  0  0  0  0  0  0
   56.9460   33.4340   43.5730 H   0  0  0  0  0  0  0  0  0  0  0  0
   57.9036   35.5015   44.2873 H   0  0  0  0  0  0  0  0  0  0  0  0
   59.0220   35.5448   46.5399 H   0  0  0  0  0  0  0  0  0  0  0  0
   57.8850   31.2920   48.9450 H   0  0  0  0  0  0  0  0  0  0  0  0
   61.1870   29.7360   49.5340 H   0  0  0  0  0  0  0  0  0  0  0  0
   63.9053   30.6280   49.5128 H   0  0  0  0  0  0  0  0  0  0  0  0
   65.3470   32.5804   48.9919 H   0  0  0  0  0  0  0  0  0  0  0  0
   64.3327   34.6917   48.1558 H   0  0  0  0  0  0  0  0  0  0  0  0
   61.8385   34.8428   47.8433 H   0  0  0  0  0  0  0  0  0  0  0  0
   58.0640   31.4560   47.0250 H   0  0  0  0  0  0  0  0  0  0  0  0
  1  2  1  0
  2  3  2  0
  3  4  1  0
  4  5  2  0
  5  6  1  0
  6  7  2  0
  7  8  1  0
  8  9  1  0
  9 10  2  0
 10 11  1  0
 11 12  1  0
 12 13  2  0
 13 14  1  0
 14 15  2  0
 15 16  1  0
 16 17  2  0
 17 18  1  0
 17 19  1  0
 19 20  1  0
 20 21  2  0
 21 22  1  0
 22 23  2  0
 23 24  1  0
 24 25  2  0
 14 26  1  0
  7  2  1  0
 26 10  1  0
 25 16  1  0
 25 20  1  0
  1 27  1  0
  3 28  1  0
  4 29  1  0
  5 30  1  0
  6 31  1  0
  8 32  1  0
  8 33  1  0
 11 34  1  0
 12 35  1  0
 13 36  1  0
 18 37  1  0
 19 38  1  0
 21 39  1  0
 22 40  1  0
 23 41  1  0
 24 42  1  0
 26 43  1  0
M  END
>  <smiles>  (43) 
Oc1ccccc1CN=c1[nH]ccc(=Nc2c(O)[nH]c3ccccc23)[nH]1

>  <score_type>  (43) 
oracle

>  <origin>  (43) 
adg

>  <m_score__min__energy>  (43) 
-8.6099999999999994

>  <m_primary>  (43) 
energy

$$$$
43:0
     RDKit          3D

 44 47  0  0  0  0  0  0  0  0999 V2000
   56.9490   25.8580   45.5550 C   0  0  0  0  0  0  0  0  0  0  0  0
   56.4210   27.0580   46.1110 O   0  0  0  0  0  0  0  0  0  0  0  0
   57.0310   28.3180   46.0040 C   0  0  0  0  0  0  0  0  0  0  0  0
   58.2060   28.6460   46.7060 C   0  0  0  0  0  0  0  0  0  0  0  0
   58.7920   29.9140   46.5670 C   0  0  0  0  0  0  0  0  0  0  0  0
   58.1750   30.8800   45.7480 C   0  0  0  0  0  0  0  0  0  0  0  0
   57.0140   30.5450   45.0370 C   0  0  0  0  0  0  0  0  0  0  0  0
   56.4450   29.2750   45.1680 C   0  0  0  0  0  0  0  0  0  0  0  0
   55.2880   28.9670   44.4610 O   0  0  0  0  0  0  0  0  0  0  0  0
   58.7980   32.2390   45.5510 C   0  0  0  0  0  0  0  0  0  0  0  0
   59.7210   32.5800   46.6530 N   0  0  0  0  0  0  0  0  0  0  0  0
   60.2390   33.9710   46.5040 C   0  0  0  0  0  0  0  0  0  0  0  0
   61.7660   34.0700   46.3940 C   0  0  0  0  0  0  0  0  0  0  0  0
   62.3970   33.2570   47.4810 C   0  0  0  0  0  0  0  0  0  0  0  0
   63.4970   33.7370   48.2050 C   0  0  0  0  0  0  0  0  0  0  0  0
   64.0940   32.9410   49.1990 C   0  0  0  0  0  0  0  0  0  0  0  0
   65.1900   33.3850   49.9560 O   0  0  0  0  0  0  0  0  0  0  0  0
   66.4340   32.6990   50.0520 C   0  0  0  0  0  0  0  0  0  0  0  0
   63.5890   31.6580   49.4450 C   0  0  0  0  0  0  0  0  0  0  0  0
   64.1830   30.8630   50.4230 O   0  0  0  0  0  0  0  0  0  0  0  0
   62.4970   31.1740   48.7100 C   0  0  0  0  0  0  0  0  0  0  0  0
   61.8790   31.9800   47.7310 C   0  0  0  0  0  0  0  0  0  0  0  0
   60.7370   31.5090   46.8360 C   0  0  1  0  0  0  0  0  0  0  0  0
   60.0270   30.2470   47.3650 C   0  0  0  0  0  0  0  0  0  0  0  0
   57.2480   25.1784   46.3666 H   0  0  0  0  0  0  0  0  0  0  0  0
   56.1813   25.3726   44.9345 H   0  0  0  0  0  0  0  0  0  0  0  0
   57.8255   26.0961   44.9345 H   0  0  0  0  0  0  0  0  0  0  0  0
   58.6696   27.9015   47.3700 H   0  0  0  0  0  0  0  0  0  0  0  0
   56.5478   31.2866   44.3716 H   0  0  0  0  0  0  0  0  0  0  0  0
   59.3571   32.2413   44.6037 H   0  0  0  0  0  0  0  0  0  0  0  0
   57.9920   32.9873   45.5338 H   0  0  0  0  0  0  0  0  0  0  0  0
   59.7996   34.4062   45.5943 H   0  0  0  0  0  0  0  0  0  0  0  0
   59.9543   34.5118   47.4186 H   0  0  0  0  0  0  0  0  0  0  0  0
   62.0889   33.6869   45.4147 H   0  0  0  0  0  0  0  0  0  0  0  0
   62.0741   35.1211   46.4956 H   0  0  0  0  0  0  0  0  0  0  0  0
   63.8951   34.7407   47.9948 H   0  0  0  0  0  0  0  0  0  0  0  0
   66.6931   32.5561   51.1115 H   0  0  0  0  0  0  0  0  0  0  0  0
   66.3513   31.7190   49.5594 H   0  0  0  0  0  0  0  0  0  0  0  0
   67.2187   33.2919   49.5594 H   0  0  0  0  0  0  0  0  0  0  0  0
   64.8710   31.2370   51.0670 H   0  0  0  0  0  0  0  0  0  0  0  0
   62.1195   30.1581   48.8984 H   0  0  0  0  0  0  0  0  0  0  0  0
   61.2079   31.2585   45.8740 H   0  0  0  0  0  0  0  0  0  0  0  0
   60.7245   29.3982   47.3097 H   0  0  0  0  0  0  0  0  0  0  0  0
   59.7173   30.4425   48.4023 H   0  0  0  0  0  0  0  0  0  0  0  0
  1  2  1  0
  2  3  1  0
  3  4  2  0
  4  5  1  0
  5  6  2  0
  6  7  1  0
  7  8  2  0
  8  9  1  0
  6 10  1  0
 10 11  1  0
 11 12  1  0
 12 13  1  0
 13 14  1  0
 14 15  2  0
 15 16  1  0
 16 17  1  0
 17 18  1  0
 16 19  2  0
 19 20  1  0
 19 21  1  0
 21 22  2  0
 22 23  1  0
 23 24  1  0
  8  3  1  0
 23 11  1  0
 24  5  1  0
 22 14  1  0
  1 25  1  0
  1 26  1  0
  1 27  1  0
  4 28  1  0
  7 29  1  0
 10 30  1  0
 10 31  1  0
 12 32  1  0
 12 33  1  0
 13 34  1  0
 13 35  1  0
 15 36  1  0
 18 37  1  0
 18 38  1  0
 18 39  1  0
 20 40  1  0
 21 41  1  0
 23 42  1  6
 24 43  1  0
 24 44  1  0
M  CHG  1   9  -1
M  END
>  <UniqueID>  (44) 
42

>  <SMILES>  (44) 
COc1cc2c(cc1[O-])CN1CCc3cc(OC)c(O)cc3[C@H]1C2

>  <Energy>  (44) 
62.62780620840454

>  <Genealogy>  (44) 
COc1cc2c(cc1[O-])CN1CCc3cc(OC)c(O)cc3C1C2 (protonated)
COc1cc2c(cc1[O-])CN1CCc3cc(OC)c(O)cc3[C@H]1C2 (chirality)
COc1cc2c(cc1[O-])CN1CCc3cc(OC)c(O)cc3[C@H]1C2 (3D coordinates assigned)
COc1cc2c(cc1[O-])CN1CCc3cc(OC)c(O)cc3[C@H]1C2 (nonaromatic ring conformer: 62.62780620840454 kcal/mol)

>  <smiles>  (44) 
COc1cc2c(cc1O)CN1CCc3cc(OC)c(O)cc3C1C2

>  <score_type>  (44) 
oracle

>  <origin>  (44) 
adg

>  <m_score__min__energy>  (44) 
-9.3800000000000008

>  <m_primary>  (44) 
energy

$$$$
44:0
     RDKit          3D

 43 47  0  0  0  0  0  0  0  0999 V2000
   55.1380   27.8480   45.9760 H   0  0  0  0  0  0  0  0  0  0  0  0
   55.1630   26.8480   45.8190 O   0  0  0  0  0  0  0  0  0  0  0  0
   56.1530   26.0640   46.4030 C   0  0  0  0  0  0  0  0  0  0  0  0
   55.9040   24.9920   47.1740 N   0  0  0  0  0  0  0  0  0  0  0  0
   57.1450   24.5580   47.4860 C   0  0  0  0  0  0  0  0  0  0  0  0
   57.3490   23.5460   48.2040 O   0  0  0  0  0  0  0  0  0  0  0  0
   58.1490   25.2890   46.9560 N   0  0  0  0  0  0  0  0  0  0  0  0
   57.5070   26.2600   46.2820 C   0  0  0  0  0  0  0  0  0  0  0  0
   58.1590   27.2790   45.4420 C   0  0  0  0  0  0  0  0  0  0  0  0
   59.0409   26.9811   44.8560 H   0  0  0  0  0  0  0  0  0  0  0  0
   57.7400   28.5460   45.3510 C   0  0  0  0  0  0  0  0  0  0  0  0
   56.5800   29.0360   44.5970 C   0  0  0  0  0  0  0  0  0  0  0  0
   55.8313   28.4050   44.0957 H   0  0  0  0  0  0  0  0  0  0  0  0
   56.5800   30.3360   44.6170 N   0  0  0  0  0  0  0  0  0  0  0  0
   57.7060   30.7380   45.3510 N   0  0  0  0  0  0  0  0  0  0  0  0
   57.7700   31.7260   46.2670 C   0  0  0  0  0  0  0  0  0  0  0  0
   57.1630   32.8720   46.1760 N   0  0  0  0  0  0  0  0  0  0  0  0
   57.8050   34.1080   45.7440 C   0  0  0  0  0  0  0  0  0  0  0  0
   56.9179   34.5907   45.3080 H   0  0  0  0  0  0  0  0  0  0  0  0
   58.9310   34.5350   46.6670 C   0  0  0  0  0  0  0  0  0  0  0  0
   59.1151   35.6035   46.8526 H   0  0  0  0  0  0  0  0  0  0  0  0
   59.2160   34.3060   47.7045 H   0  0  0  0  0  0  0  0  0  0  0  0
   59.2480   33.9330   45.3050 C   0  0  0  0  0  0  0  0  0  0  0  0
   59.6609   34.5663   44.5059 H   0  0  0  0  0  0  0  0  0  0  0  0
   59.8568   33.0886   44.9496 H   0  0  0  0  0  0  0  0  0  0  0  0
   58.4800   31.3580   47.3570 N   0  0  0  0  0  0  0  0  0  0  0  0
   58.8060   30.0760   47.0520 C   0  0  0  0  0  0  0  0  0  0  0  0
   59.3150   29.2380   47.9070 N   0  0  0  0  0  0  0  0  0  0  0  0
   60.5980   29.4220   48.5800 C   0  0  0  0  0  0  0  0  0  0  0  0
   60.5475   28.9791   49.5856 H   0  0  0  0  0  0  0  0  0  0  0  0
   61.3858   28.9291   47.9914 H   0  0  0  0  0  0  0  0  0  0  0  0
   60.9180   30.8880   48.6980 C   0  0  0  0  0  0  0  0  0  0  0  0
   60.3600   31.6440   49.7400 C   0  0  0  0  0  0  0  0  0  0  0  0
   59.6648   31.1705   50.4489 H   0  0  0  0  0  0  0  0  0  0  0  0
   60.6840   32.9970   49.8810 C   0  0  0  0  0  0  0  0  0  0  0  0
   60.2412   33.5863   50.6975 H   0  0  0  0  0  0  0  0  0  0  0  0
   61.5710   33.6010   48.9840 C   0  0  0  0  0  0  0  0  0  0  0  0
   61.8243   34.6657   49.0943 H   0  0  0  0  0  0  0  0  0  0  0  0
   62.1360   32.8520   47.9470 C   0  0  0  0  0  0  0  0  0  0  0  0
   63.3560   33.6760   46.7300 Br  0  0  0  0  0  0  0  0  0  0  0  0
   61.8130   31.4980   47.8050 C   0  0  0  0  0  0  0  0  0  0  0  0
   62.2618   30.9097   46.9911 H   0  0  0  0  0  0  0  0  0  0  0  0
   58.3860   29.7240   45.8190 N   0  0  0  0  0  0  0  0  0  0  0  0
  1  2  1  0
  2  3  1  0
  3  4  1  0
  4  5  1  0
  5  6  2  0
  5  7  1  0
  7  8  1  0
  8  9  1  0
  9 10  1  0
  9 11  2  3
 11 12  1  0
 12 13  1  0
 12 14  2  0
 14 15  1  0
 15 16  1  0
 16 17  2  0
 17 18  1  0
 18 19  1  0
 18 20  1  0
 20 21  1  0
 20 22  1  0
 20 23  1  0
 23 24  1  0
 23 25  1  0
 16 26  1  0
 26 27  1  0
 27 28  2  3
 28 29  1  0
 29 30  1  0
 29 31  1  0
 29 32  1  0
 32 33  2  0
 33 34  1  0
 33 35  1  0
 35 36  1  0
 35 37  2  0
 37 38  1  0
 37 39  1  0
 39 40  1  0
 39 41  2  0
 41 42  1  0
 27 43  1  0
  8  3  2  0
 43 11  1  0
 43 15  1  0
 23 18  1  0
 41 32  1  0
M  CHG  3   4  -1   7  -1  26  -1
M  END
>  <UniqueID>  (45) 
43

>  <SMILES>  (45) 
O=c1[n-]c(O)c(C=C2C=Nn3/c(=N\C4CC4)[n-]c(=NCc4cccc(Br)c4)n32)[n-]1

>  <Energy>  (45) 
437.11659706310417

>  <Genealogy>  (45) 
O=c1[n-]c(O)c(C=C2C=Nn3c(=NC4CC4)[n-]c(=NCc4cccc(Br)c4)n32)[n-]1 (protonated)
O=c1[n-]c(O)c(C=C2C=Nn3/c(=N\C4CC4)[n-]c(=NCc4cccc(Br)c4)n32)[n-]1 (cis-trans isomerization)
O=c1[n-]c(O)c(C=C2C=Nn3/c(=N\C4CC4)[n-]c(=NCc4cccc(Br)c4)n32)[n-]1 (3D coordinates assigned)
O=c1[n-]c(O)c(C=C2C=Nn3/c(=N\C4CC4)[n-]c(=NCc4cccc(Br)c4)n32)[n-]1 (nonaromatic ring conformer: 437.11659706310417 kcal/mol)

>  <smiles>  (45) 
O=c1[nH]c(O)c(C=C2C=Nn3c(=NC4CC4)[nH]c(=NCc4cccc(Br)c4)n32)[nH]1

>  <score_type>  (45) 
oracle

>  <origin>  (45) 
adg

>  <m_score__min__energy>  (45) 
-14.67

>  <m_primary>  (45) 
energy

$$$$
45:0
     RDKit          3D

 44 46  0  0  0  0  0  0  0  0999 V2000
   61.0950   30.3540   46.7610 C   0  0  0  0  0  0  0  0  0  0  0  0
   59.9070   29.8350   46.0160 C   0  0  0  0  0  0  0  0  0  0  0  0
   59.9820   28.8160   45.1380 N   0  0  0  0  0  0  0  0  0  0  0  0
   58.7310   28.6390   44.6670 C   0  0  0  0  0  0  0  0  0  0  0  0
   58.3980   27.5860   43.6580 C   0  0  0  0  0  0  0  0  0  0  0  0
   57.8460   29.5470   45.2390 C   0  0  0  0  0  0  0  0  0  0  0  0
   56.3950   29.6620   44.9700 C   0  0  0  0  0  0  0  0  0  0  0  0
   55.9090   30.7290   44.5140 O   0  0  0  0  0  0  0  0  0  0  0  0
   55.5440   28.5900   45.2120 O   0  0  0  0  0  0  0  0  0  0  0  0
   58.6090   30.3200   46.1070 C   0  0  0  0  0  0  0  0  0  0  0  0
   58.1340   31.4290   47.0150 C   0  0  0  0  0  0  0  0  0  0  0  0
   58.6590   32.7880   46.5820 C   0  0  0  0  0  0  0  0  0  0  0  0
   58.4060   33.2360   45.2710 C   0  0  0  0  0  0  0  0  0  0  0  0
   58.8980   34.4630   44.8250 C   0  0  0  0  0  0  0  0  0  0  0  0
   59.6360   35.2740   45.6850 C   0  0  0  0  0  0  0  0  0  0  0  0
   59.8670   34.8690   47.0000 C   0  0  0  0  0  0  0  0  0  0  0  0
   59.3720   33.6410   47.4700 C   0  0  0  0  0  0  0  0  0  0  0  0
   59.5880   33.2950   48.8900 C   0  0  0  0  0  0  0  0  0  0  0  0
   60.7380   33.4300   49.3920 O   0  0  0  0  0  0  0  0  0  0  0  0
   58.5120   32.7570   49.6760 N   0  0  0  0  0  0  0  0  0  0  0  0
   58.5450   32.6450   51.1090 C   0  0  0  0  0  0  0  0  0  0  0  0
   58.8900   33.7400   51.9230 C   0  0  0  0  0  0  0  0  0  0  0  0
   58.8880   33.6120   53.3170 C   0  0  0  0  0  0  0  0  0  0  0  0
   58.5270   32.3970   53.9070 C   0  0  0  0  0  0  0  0  0  0  0  0
   58.1610   31.3130   53.1070 C   0  0  0  0  0  0  0  0  0  0  0  0
   58.1610   31.4380   51.7140 C   0  0  0  0  0  0  0  0  0  0  0  0
   60.9128   30.2744   47.8429 H   0  0  0  0  0  0  0  0  0  0  0  0
   61.9826   29.7617   46.4941 H   0  0  0  0  0  0  0  0  0  0  0  0
   61.2635   31.4077   46.4941 H   0  0  0  0  0  0  0  0  0  0  0  0
   58.1055   26.6609   44.1763 H   0  0  0  0  0  0  0  0  0  0  0  0
   57.5655   27.9322   43.0279 H   0  0  0  0  0  0  0  0  0  0  0  0
   59.2782   27.3906   43.0279 H   0  0  0  0  0  0  0  0  0  0  0  0
   57.0344   31.4527   47.0004 H   0  0  0  0  0  0  0  0  0  0  0  0
   58.5159   31.2253   48.0263 H   0  0  0  0  0  0  0  0  0  0  0  0
   57.8121   32.6097   44.5891 H   0  0  0  0  0  0  0  0  0  0  0  0
   58.7031   34.7907   43.7932 H   0  0  0  0  0  0  0  0  0  0  0  0
   60.0366   36.2339   45.3269 H   0  0  0  0  0  0  0  0  0  0  0  0
   60.4429   35.5181   47.6760 H   0  0  0  0  0  0  0  0  0  0  0  0
   57.6640   32.3980   49.1800 H   0  0  0  0  0  0  0  0  0  0  0  0
   59.1624   34.7008   51.4618 H   0  0  0  0  0  0  0  0  0  0  0  0
   59.1705   34.4674   53.9482 H   0  0  0  0  0  0  0  0  0  0  0  0
   58.5314   32.2951   55.0023 H   0  0  0  0  0  0  0  0  0  0  0  0
   57.8722   30.3593   53.5729 H   0  0  0  0  0  0  0  0  0  0  0  0
   57.8582   30.5852   51.0887 H   0  0  0  0  0  0  0  0  0  0  0  0
  1  2  1  0
  2  3  1  0
  3  4  1  0
  4  5  1  0
  4  6  2  0
  6  7  1  0
  7  8  2  0
  7  9  1  0
  6 10  1  0
 10 11  1  0
 11 12  1  0
 12 13  2  0
 13 14  1  0
 14 15  2  0
 15 16  1  0
 16 17  2  0
 17 18  1  0
 18 19  2  0
 18 20  1  0
 20 21  1  0
 21 22  2  0
 22 23  1  0
 23 24  2  0
 24 25  1  0
 25 26  2  0
 10  2  2  0
 17 12  1  0
 26 21  1  0
  1 27  1  0
  1 28  1  0
  1 29  1  0
  5 30  1  0
  5 31  1  0
  5 32  1  0
 11 33  1  0
 11 34  1  0
 13 35  1  0
 14 36  1  0
 15 37  1  0
 16 38  1  0
 20 39  1  0
 22 40  1  0
 23 41  1  0
 24 42  1  0
 25 43  1  0
 26 44  1  0
M  CHG  2   3  -1   9  -1
M  END
>  <UniqueID>  (46) 
44

>  <SMILES>  (46) 
Cc1[n-]c(C)c(C(=O)[O-])c1Cc1ccccc1C(=O)Nc1ccccc1

>  <Energy>  (46) 
80.29193684596433

>  <Genealogy>  (46) 
Cc1[n-]c(C)c(C(=O)[O-])c1Cc1ccccc1C(=O)Nc1ccccc1 (protonated)
Cc1[n-]c(C)c(C(=O)[O-])c1Cc1ccccc1C(=O)Nc1ccccc1 (3D coordinates assigned)
Cc1[n-]c(C)c(C(=O)[O-])c1Cc1ccccc1C(=O)Nc1ccccc1 (optimized conformer: 80.29193684596433 kcal/mol)

>  <smiles>  (46) 
Cc1[nH]c(C)c(C(=O)O)c1Cc1ccccc1C(=O)Nc1ccccc1

>  <score_type>  (46) 
oracle

>  <origin>  (46) 
adg

>  <m_score__min__energy>  (46) 
-12.039999999999999

>  <m_primary>  (46) 
energy

$$$$
46:0
     RDKit          3D

 24 25  0  0  0  0  0  0  0  0999 V2000
   62.5400   33.5580   46.7140 C   0  0  0  0  0  0  0  0  0  0  0  0
   61.4710   33.8580   47.7200 C   0  0  0  0  0  0  0  0  0  0  0  0
   61.6280   33.8260   49.0890 C   0  0  0  0  0  0  0  0  0  0  0  0
   60.4750   34.2040   49.6790 N   0  0  0  0  0  0  0  0  0  0  0  0
   59.6340   34.4510   48.6510 C   0  0  0  0  0  0  0  0  0  0  0  0
   60.2030   34.2300   47.4490 N   0  0  0  0  0  0  0  0  0  0  0  0
   59.5780   34.4410   46.1740 C   0  0  0  0  0  0  0  0  0  0  0  0
   59.6460   35.5800   45.6380 O   0  0  0  0  0  0  0  0  0  0  0  0
   58.8280   33.3610   45.4930 C   0  0  0  0  0  0  0  0  0  0  0  0
   58.4900   32.1870   46.1860 C   0  0  0  0  0  0  0  0  0  0  0  0
   57.7900   31.1620   45.5420 C   0  0  0  0  0  0  0  0  0  0  0  0
   57.4300   31.2950   44.1980 C   0  0  0  0  0  0  0  0  0  0  0  0
   56.5520   30.0090   43.3910 Cl  0  0  0  0  0  0  0  0  0  0  0  0
   57.7750   32.4540   43.4950 C   0  0  0  0  0  0  0  0  0  0  0  0
   58.4750   33.4810   44.1360 C   0  0  0  0  0  0  0  0  0  0  0  0
   63.4721   33.2964   47.2364 H   0  0  0  0  0  0  0  0  0  0  0  0
   62.2237   32.7139   46.0835 H   0  0  0  0  0  0  0  0  0  0  0  0
   62.7091   34.4434   46.0835 H   0  0  0  0  0  0  0  0  0  0  0  0
   62.5486   33.5376   49.6175 H   0  0  0  0  0  0  0  0  0  0  0  0
   58.5973   34.7951   48.7807 H   0  0  0  0  0  0  0  0  0  0  0  0
   58.7777   32.0732   47.2416 H   0  0  0  0  0  0  0  0  0  0  0  0
   57.5221   30.2492   46.0942 H   0  0  0  0  0  0  0  0  0  0  0  0
   57.4953   32.5578   42.4362 H   0  0  0  0  0  0  0  0  0  0  0  0
   58.7511   34.3871   43.5768 H   0  0  0  0  0  0  0  0  0  0  0  0
  1  2  1  0
  2  3  2  0
  3  4  1  0
  4  5  2  0
  5  6  1  0
  6  7  1  0
  7  8  2  0
  7  9  1  0
  9 10  2  0
 10 11  1  0
 11 12  2  0
 12 13  1  0
 12 14  1  0
 14 15  2  0
  6  2  1  0
 15  9  1  0
  1 16  1  0
  1 17  1  0
  1 18  1  0
  3 19  1  0
  5 20  1  0
 10 21  1  0
 11 22  1  0
 14 23  1  0
 15 24  1  0
M  END
>  <UniqueID>  (47) 
45

>  <SMILES>  (47) 
Cc1cncn1C(=O)c1ccc(Cl)cc1

>  <Energy>  (47) 
59.34243914216475

>  <Genealogy>  (47) 
Cc1cncn1C(=O)c1ccc(Cl)cc1 (3D coordinates assigned)
Cc1cncn1C(=O)c1ccc(Cl)cc1 (optimized conformer: 59.34243914216475 kcal/mol)

>  <smiles>  (47) 
Cc1cncn1C(=O)c1ccc(Cl)cc1

>  <score_type>  (47) 
oracle

>  <origin>  (47) 
adg

>  <m_score__min__energy>  (47) 
-5.9199999999999999

>  <m_primary>  (47) 
energy

$$$$
47:0
     RDKit          3D

 41 42  0  0  0  0  0  0  0  0999 V2000
   61.5180   30.8290   47.1090 C   0  0  0  0  0  0  0  0  0  0  0  0
   60.3210   29.9680   47.1510 N   0  0  0  0  0  0  0  0  0  0  0  0
   59.9640   29.4920   45.7910 C   0  0  0  0  0  0  0  0  0  0  0  0
   58.7000   28.6800   45.8230 C   0  0  0  0  0  0  0  0  0  0  0  0
   58.7300   27.3600   46.2990 C   0  0  0  0  0  0  0  0  0  0  0  0
   57.5680   26.5840   46.2990 C   0  0  0  0  0  0  0  0  0  0  0  0
   56.3630   27.1180   45.8230 C   0  0  0  0  0  0  0  0  0  0  0  0
   55.1990   26.3530   45.8280 O   0  0  0  0  0  0  0  0  0  0  0  0
   56.3300   28.4330   45.3390 C   0  0  0  0  0  0  0  0  0  0  0  0
   55.1400   28.9710   44.8630 O   0  0  0  0  0  0  0  0  0  0  0  0
   57.4940   29.2080   45.3340 C   0  0  0  0  0  0  0  0  0  0  0  0
   59.2240   30.5940   47.9530 C   0  0  1  0  0  0  0  0  0  0  0  0
   58.8630   29.8460   49.2630 C   0  0  0  0  0  0  0  0  0  0  0  0
   59.6370   28.6880   49.4300 O   0  0  0  0  0  0  0  0  0  0  0  0
   59.4720   32.1020   48.1950 C   0  0  0  0  0  0  0  0  0  0  0  0
   58.9980   32.9790   47.0570 C   0  0  0  0  0  0  0  0  0  0  0  0
   57.8740   32.6020   46.3030 C   0  0  0  0  0  0  0  0  0  0  0  0
   57.4310   33.3980   45.2430 C   0  0  0  0  0  0  0  0  0  0  0  0
   58.1210   34.5640   44.9090 C   0  0  0  0  0  0  0  0  0  0  0  0
   59.2630   34.9290   45.6250 C   0  0  0  0  0  0  0  0  0  0  0  0
   59.7070   34.1370   46.6880 C   0  0  0  0  0  0  0  0  0  0  0  0
   61.8395   31.0603   48.1352 H   0  0  0  0  0  0  0  0  0  0  0  0
   62.3280   30.3053   46.5802 H   0  0  0  0  0  0  0  0  0  0  0  0
   61.2791   31.7635   46.5802 H   0  0  0  0  0  0  0  0  0  0  0  0
   59.8178   30.3606   45.1320 H   0  0  0  0  0  0  0  0  0  0  0  0
   60.7802   28.8579   45.4145 H   0  0  0  0  0  0  0  0  0  0  0  0
   59.6726   26.9344   46.6738 H   0  0  0  0  0  0  0  0  0  0  0  0
   57.5992   25.5503   46.6739 H   0  0  0  0  0  0  0  0  0  0  0  0
   54.3290   26.7100   45.4490 H   0  0  0  0  0  0  0  0  0  0  0  0
   57.4649   30.2365   44.9450 H   0  0  0  0  0  0  0  0  0  0  0  0
   58.3281   30.4937   47.3226 H   0  0  0  0  0  0  0  0  0  0  0  0
   59.0376   30.5175   50.1165 H   0  0  0  0  0  0  0  0  0  0  0  0
   57.8061   29.5465   49.2065 H   0  0  0  0  0  0  0  0  0  0  0  0
   60.0630   28.5100   48.5510 H   0  0  0  0  0  0  0  0  0  0  0  0
   58.9398   32.4004   49.1102 H   0  0  0  0  0  0  0  0  0  0  0  0
   60.5595   32.2424   48.2820 H   0  0  0  0  0  0  0  0  0  0  0  0
   57.3385   31.6731   46.5488 H   0  0  0  0  0  0  0  0  0  0  0  0
   56.5378   33.1051   44.6716 H   0  0  0  0  0  0  0  0  0  0  0  0
   57.7653   35.1957   44.0817 H   0  0  0  0  0  0  0  0  0  0  0  0
   59.8141   35.8411   45.3522 H   0  0  0  0  0  0  0  0  0  0  0  0
   60.6158   34.4207   47.2391 H   0  0  0  0  0  0  0  0  0  0  0  0
  1  2  1  0
  2  3  1  0
  3  4  1  0
  4  5  2  0
  5  6  1  0
  6  7  2  0
  7  8  1  0
  7  9  1  0
  9 10  1  0
  9 11  2  0
  2 12  1  0
 12 13  1  0
 13 14  1  0
 12 15  1  0
 15 16  1  0
 16 17  2  0
 17 18  1  0
 18 19  2  0
 19 20  1  0
 20 21  2  0
 11  4  1  0
 21 16  1  0
  1 22  1  0
  1 23  1  0
  1 24  1  0
  3 25  1  0
  3 26  1  0
  5 27  1  0
  6 28  1  0
  8 29  1  0
 11 30  1  0
 12 31  1  6
 13 32  1  0
 13 33  1  0
 14 34  1  0
 15 35  1  0
 15 36  1  0
 17 37  1  0
 18 38  1  0
 19 39  1  0
 20 40  1  0
 21 41  1  0
M  CHG  1  10  -1
M  END
>  <UniqueID>  (48) 
46

>  <SMILES>  (48) 
CN(Cc1ccc(O)c([O-])c1)[C@@H](CO)Cc1ccccc1

>  <Energy>  (48) 
46.359593434397596

>  <Genealogy>  (48) 
CN(Cc1ccc(O)c([O-])c1)C(CO)Cc1ccccc1 (protonated)
CN(Cc1ccc(O)c([O-])c1)[C@@H](CO)Cc1ccccc1 (chirality)
CN(Cc1ccc(O)c([O-])c1)[C@@H](CO)Cc1ccccc1 (3D coordinates assigned)
CN(Cc1ccc(O)c([O-])c1)[C@@H](CO)Cc1ccccc1 (optimized conformer: 46.359593434397596 kcal/mol)

>  <smiles>  (48) 
CN(Cc1ccc(O)c(O)c1)C(CO)Cc1ccccc1

>  <score_type>  (48) 
oracle

>  <origin>  (48) 
adg

>  <m_score__min__energy>  (48) 
-11.51

>  <m_primary>  (48) 
energy

$$$$
48:0
     RDKit          3D

 51 53  0  0  0  0  0  0  0  0999 V2000
   55.9320   29.4410   43.2090 O   0  0  0  0  0  0  0  0  0  0  0  0
   56.9020   29.3360   44.0070 C   0  0  0  0  0  0  0  0  0  0  0  0
   57.9840   28.3120   43.7400 C   0  0  0  0  0  0  0  0  0  0  0  0
   57.9520   27.1260   44.7130 C   0  0  0  0  0  0  0  0  0  0  0  0
   56.9770   27.3640   45.7810 N   0  0  0  0  0  0  0  0  0  0  0  0
   56.0160   25.9370   46.0170 S   0  0  0  0  0  0  0  0  0  0  0  0
   56.3560   25.2990   47.3350 O   0  0  0  0  0  0  0  0  0  0  0  0
   56.2990   24.9620   44.9100 O   0  0  0  0  0  0  0  0  0  0  0  0
   54.3850   26.3370   45.9940 O   0  0  0  0  0  0  0  0  0  0  0  0
   56.9280   30.2010   45.1570 N   0  0  0  0  0  0  0  0  0  0  0  0
   57.3910   31.4150   45.2290 C   0  0  0  0  0  0  0  0  0  0  0  0
   58.0680   31.9080   46.2880 N   0  0  0  0  0  0  0  0  0  0  0  0
   58.3280   33.1840   45.9330 C   0  0  0  0  0  0  0  0  0  0  0  0
   59.0480   34.1720   46.8110 C   0  0  0  0  0  0  0  0  0  0  0  0
   60.3560   34.6600   46.1420 C   0  0  0  0  0  0  0  0  0  0  0  0
   61.5690   33.8760   46.6570 C   0  0  0  0  0  0  0  0  0  0  0  0
   61.7670   34.0630   48.1160 N   0  0  0  0  0  0  0  0  0  0  0  0
   62.6230   32.9890   48.6610 C   0  0  0  0  0  0  0  0  0  0  0  0
   61.8600   31.6910   48.7280 C   0  0  0  0  0  0  0  0  0  0  0  0
   61.4780   31.1650   49.9730 C   0  0  0  0  0  0  0  0  0  0  0  0
   60.7650   29.9640   50.0410 C   0  0  0  0  0  0  0  0  0  0  0  0
   60.4270   29.2810   48.8670 C   0  0  0  0  0  0  0  0  0  0  0  0
   59.7350   28.1180   48.9350 F   0  0  0  0  0  0  0  0  0  0  0  0
   60.8040   29.8000   47.6250 C   0  0  0  0  0  0  0  0  0  0  0  0
   61.5190   31.0000   47.5530 C   0  0  0  0  0  0  0  0  0  0  0  0
   60.5040   34.2190   48.8880 C   0  0  0  0  0  0  0  0  0  0  0  0
   59.3030   33.5520   48.2040 C   0  0  0  0  0  0  0  0  0  0  0  0
   57.7920   33.4420   44.6890 C   0  0  0  0  0  0  0  0  0  0  0  0
   57.2020   32.3180   44.2490 N   0  0  0  0  0  0  0  0  0  0  0  0
   57.8561   27.9278   42.7172 H   0  0  0  0  0  0  0  0  0  0  0  0
   58.9513   28.8179   43.8754 H   0  0  0  0  0  0  0  0  0  0  0  0
   57.6722   26.2148   44.1639 H   0  0  0  0  0  0  0  0  0  0  0  0
   58.9492   27.0073   45.1619 H   0  0  0  0  0  0  0  0  0  0  0  0
   56.3240   28.1180   45.4650 H   0  0  0  0  0  0  0  0  0  0  0  0
   58.4126   35.0594   46.9478 H   0  0  0  0  0  0  0  0  0  0  0  0
   60.2754   34.5219   45.0537 H   0  0  0  0  0  0  0  0  0  0  0  0
   60.4979   35.7225   46.3890 H   0  0  0  0  0  0  0  0  0  0  0  0
   61.4144   32.8062   46.4529 H   0  0  0  0  0  0  0  0  0  0  0  0
   62.4639   34.2519   46.1395 H   0  0  0  0  0  0  0  0  0  0  0  0
   63.5008   32.8601   48.0107 H   0  0  0  0  0  0  0  0  0  0  0  0
   62.9419   33.2679   49.6762 H   0  0  0  0  0  0  0  0  0  0  0  0
   61.7406   31.6996   50.8978 H   0  0  0  0  0  0  0  0  0  0  0  0
   60.4693   29.5554   51.0186 H   0  0  0  0  0  0  0  0  0  0  0  0
   60.5378   29.2635   46.7023 H   0  0  0  0  0  0  0  0  0  0  0  0
   61.8152   31.4040   46.5737 H   0  0  0  0  0  0  0  0  0  0  0  0
   60.6403   33.7646   49.8805 H   0  0  0  0  0  0  0  0  0  0  0  0
   60.2895   35.2956   48.9582 H   0  0  0  0  0  0  0  0  0  0  0  0
   59.5056   32.4770   48.0883 H   0  0  0  0  0  0  0  0  0  0  0  0
   58.4108   33.7095   48.8278 H   0  0  0  0  0  0  0  0  0  0  0  0
   57.8392   34.4003   44.1510 H   0  0  0  0  0  0  0  0  0  0  0  0
   56.7000   32.1820   43.3430 H   0  0  0  0  0  0  0  0  0  0  0  0
  1  2  2  0
  2  3  1  0
  3  4  1  0
  4  5  1  0
  5  6  1  0
  6  7  2  0
  6  8  2  0
  6  9  1  0
  2 10  1  0
 10 11  2  3
 11 12  1  0
 12 13  1  0
 13 14  1  0
 14 15  1  0
 15 16  1  0
 16 17  1  0
 17 18  1  0
 18 19  1  0
 19 20  2  0
 20 21  1  0
 21 22  2  0
 22 23  1  0
 22 24  1  0
 24 25  2  0
 17 26  1  0
 26 27  1  0
 13 28  2  0
 28 29  1  0
 29 11  1  0
 27 14  1  0
 25 19  1  0
  3 30  1  0
  3 31  1  0
  4 32  1  0
  4 33  1  0
  5 34  1  0
 14 35  1  0
 15 36  1  0
 15 37  1  0
 16 38  1  0
 16 39  1  0
 18 40  1  0
 18 41  1  0
 20 42  1  0
 21 43  1  0
 24 44  1  0
 25 45  1  0
 26 46  1  0
 26 47  1  0
 27 48  1  0
 27 49  1  0
 28 50  1  0
 29 51  1  0
M  CHG  2   9  -1  12  -1
M  END
>  <UniqueID>  (49) 
47

>  <SMILES>  (49) 
O=C(CCNS(=O)(=O)[O-])N=c1[n-]c(C2CCN(Cc3ccc(F)cc3)CC2)c[nH]1

>  <Energy>  (49) 
86.1719693372794

>  <Genealogy>  (49) 
O=C(CCNS(=O)(=O)[O-])N=c1[n-]c(C2CCN(Cc3ccc(F)cc3)CC2)c[nH]1 (protonated)
O=C(CCNS(=O)(=O)[O-])N=c1[n-]c(C2CCN(Cc3ccc(F)cc3)CC2)c[nH]1 (3D coordinates assigned)
O=C(CCNS(=O)(=O)[O-])N=c1[n-]c(C2CCN(Cc3ccc(F)cc3)CC2)c[nH]1 (nonaromatic ring conformer: 86.1719693372794 kcal/mol)

>  <smiles>  (49) 
O=C(CCNS(=O)(=O)[O-])N=c1[nH]cc(C2CCN(Cc3ccc(F)cc3)CC2)[nH]1

>  <score_type>  (49) 
oracle

>  <origin>  (49) 
adg

>  <m_score__min__energy>  (49) 
-14.1

>  <m_primary>  (49) 
energy

$$$$
49:0
     RDKit          3D

 60 64  0  0  0  0  0  0  0  0999 V2000
   55.5460   27.0910   45.6400 N   0  0  0  0  0  0  0  0  0  0  0  0
   57.1550   27.7220   45.6130 S   0  0  0  0  0  0  0  0  0  0  0  0
   57.6170   27.9790   47.0220 O   0  0  0  0  0  0  0  0  0  0  0  0
   58.0710   26.7080   44.9940 O   0  0  0  0  0  0  0  0  0  0  0  0
   57.1900   29.2130   44.6590 C   0  0  0  0  0  0  0  0  0  0  0  0
   56.3290   29.3200   43.5530 C   0  0  0  0  0  0  0  0  0  0  0  0
   56.3340   30.4650   42.7560 C   0  0  0  0  0  0  0  0  0  0  0  0
   57.1980   31.5180   43.0550 C   0  0  0  0  0  0  0  0  0  0  0  0
   58.0550   31.4330   44.1540 C   0  0  0  0  0  0  0  0  0  0  0  0
   58.0560   30.2920   44.9680 C   0  0  0  0  0  0  0  0  0  0  0  0
   58.9660   30.2650   46.1310 C   0  0  0  0  0  0  0  0  0  0  0  0
   58.5520   30.8070   47.3560 C   0  0  0  0  0  0  0  0  0  0  0  0
   59.4080   30.7780   48.4610 C   0  0  0  0  0  0  0  0  0  0  0  0
   60.6830   30.2040   48.3580 C   0  0  0  0  0  0  0  0  0  0  0  0
   61.5410   30.1860   49.5080 N   0  0  0  0  0  0  0  0  0  0  0  0
   61.2940   29.3640   50.6590 C   0  0  0  0  0  0  0  0  0  0  0  0
   60.1920   28.7670   50.7990 O   0  0  0  0  0  0  0  0  0  0  0  0
   62.3570   29.1640   51.6610 C   0  0  0  0  0  0  0  0  0  0  0  0
   62.1180   28.4270   52.6560 O   0  0  0  0  0  0  0  0  0  0  0  0
   63.6690   29.8540   51.5530 C   0  0  0  0  0  0  0  0  0  0  0  0
   64.8610   29.1620   51.8240 C   0  0  0  0  0  0  0  0  0  0  0  0
   66.0890   29.8310   51.7890 C   0  0  0  0  0  0  0  0  0  0  0  0
   66.1400   31.1980   51.5090 C   0  0  0  0  0  0  0  0  0  0  0  0
   64.9590   31.9140   51.2550 C   0  0  0  0  0  0  0  0  0  0  0  0
   65.0070   33.3950   50.9660 C   0  0  0  0  0  0  0  0  0  0  0  0
   64.7030   33.6510   49.5600 N   0  0  0  0  0  0  0  0  0  0  0  0
   63.8840   32.7910   48.7570 C   0  0  0  0  0  0  0  0  0  0  0  0
   64.2400   31.6040   48.5260 O   0  0  0  0  0  0  0  0  0  0  0  0
   62.5970   33.2710   48.2460 C   0  0  0  0  0  0  0  0  0  0  0  0
   62.3000   33.3320   46.9220 N   0  0  0  0  0  0  0  0  0  0  0  0
   61.0210   33.7410   46.7270 C   0  0  0  0  0  0  0  0  0  0  0  0
   60.4200   33.8940   45.4750 C   0  0  0  0  0  0  0  0  0  0  0  0
   59.0780   34.3110   45.4150 C   0  0  0  0  0  0  0  0  0  0  0  0
   58.3580   34.5720   46.5980 C   0  0  0  0  0  0  0  0  0  0  0  0
   58.9740   34.4200   47.8520 C   0  0  0  0  0  0  0  0  0  0  0  0
   60.3030   34.0040   47.8850 C   0  0  0  0  0  0  0  0  0  0  0  0
   61.2800   33.7160   49.2170 S   0  0  0  0  0  0  0  0  0  0  0  0
   63.7340   31.2280   51.2560 C   0  0  0  0  0  0  0  0  0  0  0  0
   61.0780   29.6240   47.1410 C   0  0  0  0  0  0  0  0  0  0  0  0
   60.2250   29.6590   46.0340 C   0  0  0  0  0  0  0  0  0  0  0  0
   55.2400   27.0750   46.6380 H   0  0  0  0  0  0  0  0  0  0  0  0
   55.6446   28.4928   43.3136 H   0  0  0  0  0  0  0  0  0  0  0  0
   55.6568   30.5372   41.8922 H   0  0  0  0  0  0  0  0  0  0  0  0
   57.2044   32.4183   42.4231 H   0  0  0  0  0  0  0  0  0  0  0  0
   58.7342   32.2675   44.3826 H   0  0  0  0  0  0  0  0  0  0  0  0
   57.5519   31.2558   47.4478 H   0  0  0  0  0  0  0  0  0  0  0  0
   59.0788   31.2087   49.4182 H   0  0  0  0  0  0  0  0  0  0  0  0
   62.4940   30.6070   49.4060 H   0  0  0  0  0  0  0  0  0  0  0  0
   64.8286   28.0892   52.0648 H   0  0  0  0  0  0  0  0  0  0  0  0
   67.0194   29.2772   51.9831 H   0  0  0  0  0  0  0  0  0  0  0  0
   67.1099   31.7165   51.4873 H   0  0  0  0  0  0  0  0  0  0  0  0
   64.2678   33.9112   51.5962 H   0  0  0  0  0  0  0  0  0  0  0  0
   66.0182   33.7682   51.1855 H   0  0  0  0  0  0  0  0  0  0  0  0
   60.9857   33.6921   44.5535 H   0  0  0  0  0  0  0  0  0  0  0  0
   58.5873   34.4342   44.4383 H   0  0  0  0  0  0  0  0  0  0  0  0
   57.3085   34.8963   46.5396 H   0  0  0  0  0  0  0  0  0  0  0  0
   58.4221   34.6238   48.7815 H   0  0  0  0  0  0  0  0  0  0  0  0
   62.8087   31.7742   51.0205 H   0  0  0  0  0  0  0  0  0  0  0  0
   62.0625   29.1403   47.0588 H   0  0  0  0  0  0  0  0  0  0  0  0
   60.5440   29.2086   45.0825 H   0  0  0  0  0  0  0  0  0  0  0  0
  1  2  1  0
  2  3  2  0
  2  4  2  0
  2  5  1  0
  5  6  2  0
  6  7  1  0
  7  8  2  0
  8  9  1  0
  9 10  2  0
 10 11  1  0
 11 12  2  0
 12 13  1  0
 13 14  2  0
 14 15  1  0
 15 16  1  0
 16 17  2  0
 16 18  1  0
 18 19  2  0
 18 20  1  0
 20 21  2  0
 21 22  1  0
 22 23  2  0
 23 24  1  0
 24 25  1  0
 25 26  1  0
 26 27  1  0
 27 28  2  0
 27 29  1  0
 29 30  2  0
 30 31  1  0
 31 32  2  0
 32 33  1  0
 33 34  2  0
 34 35  1  0
 35 36  2  0
 36 37  1  0
 24 38  2  0
 14 39  1  0
 39 40  2  0
 10  5  1  0
 40 11  1  0
 38 20  1  0
 37 29  1  0
 36 31  1  0
  1 41  1  0
  6 42  1  0
  7 43  1  0
  8 44  1  0
  9 45  1  0
 12 46  1  0
 13 47  1  0
 15 48  1  0
 21 49  1  0
 22 50  1  0
 23 51  1  0
 25 52  1  0
 25 53  1  0
 32 54  1  0
 33 55  1  0
 34 56  1  0
 35 57  1  0
 38 58  1  0
 39 59  1  0
 40 60  1  0
M  CHG  2   1  -1  26  -1
M  END
>  <UniqueID>  (50) 
48

>  <SMILES>  (50) 
[NH-]S(=O)(=O)c1ccccc1-c1ccc(NC(=O)C(=O)c2cccc(C[N-]C(=O)c3nc4ccccc4s3)c2)cc1

>  <Energy>  (50) 
114.50741767164543

>  <Genealogy>  (50) 
[NH-]S(=O)(=O)c1ccccc1-c1ccc(NC(=O)C(=O)c2cccc(C[N-]C(=O)c3nc4ccccc4s3)c2)cc1 (protonated)
[NH-]S(=O)(=O)c1ccccc1-c1ccc(NC(=O)C(=O)c2cccc(C[N-]C(=O)c3nc4ccccc4s3)c2)cc1 (3D coordinates assigned)
[NH-]S(=O)(=O)c1ccccc1-c1ccc(NC(=O)C(=O)c2cccc(C[N-]C(=O)c3nc4ccccc4s3)c2)cc1 (optimized conformer: 114.50741767164543 kcal/mol)

>  <smiles>  (50) 
NS(=O)(=O)c1ccccc1-c1ccc(NC(=O)C(=O)c2cccc(CNC(=O)c3nc4ccccc4s3)c2)cc1

>  <score_type>  (50) 
oracle

>  <origin>  (50) 
adg

>  <m_score__min__energy>  (50) 
-15.1

>  <m_primary>  (50) 
energy

$$$$
50:0
     RDKit          3D

 38 39  0  0  0  0  0  0  0  0999 V2000
   57.4210   32.3600   40.8660 C   0  0  0  0  0  0  0  0  0  0  0  0
   57.0840   31.4730   42.0650 C   0  0  0  0  0  0  0  0  0  0  0  0
   58.1480   31.5300   43.1680 C   0  0  0  0  0  0  0  0  0  0  0  0
   57.4390   31.6140   44.8180 S   0  0  0  0  0  0  0  0  0  0  0  0
   56.1880   30.7830   44.8530 O   0  0  0  0  0  0  0  0  0  0  0  0
   58.4190   31.0400   45.8040 O   0  0  0  0  0  0  0  0  0  0  0  0
   57.0250   33.2490   45.3010 N   0  0  0  0  0  0  0  0  0  0  0  0
   57.1190   33.4670   46.7560 C   0  0  0  0  0  0  0  0  0  0  0  0
   58.5720   33.6380   47.2510 C   0  0  0  0  0  0  0  0  0  0  0  0
   59.5000   34.0040   46.1630 N   0  0  0  0  0  0  0  0  0  0  0  0
   60.7710   34.5210   46.7050 C   0  0  0  0  0  0  0  0  0  0  0  0
   61.6500   33.3810   47.1270 C   0  0  0  0  0  0  0  0  0  0  0  0
   62.9440   33.5520   47.6090 C   0  0  0  0  0  0  0  0  0  0  0  0
   63.5810   32.0220   47.9040 S   0  0  0  0  0  0  0  0  0  0  0  0
   62.1980   31.2070   47.4090 C   0  0  0  0  0  0  0  0  0  0  0  0
   61.2500   32.0840   47.0180 N   0  0  0  0  0  0  0  0  0  0  0  0
   58.8700   34.9650   45.2440 C   0  0  0  0  0  0  0  0  0  0  0  0
   57.7110   34.2830   44.4960 C   0  0  0  0  0  0  0  0  0  0  0  0
   57.7906   33.3329   41.2221 H   0  0  0  0  0  0  0  0  0  0  0  0
   58.1970   31.8736   40.2567 H   0  0  0  0  0  0  0  0  0  0  0  0
   56.5178   32.5116   40.2567 H   0  0  0  0  0  0  0  0  0  0  0  0
   56.1233   31.8033   42.4868 H   0  0  0  0  0  0  0  0  0  0  0  0
   57.0378   30.4347   41.7046 H   0  0  0  0  0  0  0  0  0  0  0  0
   58.7732   30.6275   43.0999 H   0  0  0  0  0  0  0  0  0  0  0  0
   58.7357   32.4469   43.0135 H   0  0  0  0  0  0  0  0  0  0  0  0
   56.5532   34.3752   47.0111 H   0  0  0  0  0  0  0  0  0  0  0  0
   56.7080   32.5734   47.2485 H   0  0  0  0  0  0  0  0  0  0  0  0
   58.5938   34.4295   48.0146 H   0  0  0  0  0  0  0  0  0  0  0  0
   58.9016   32.6719   47.6608 H   0  0  0  0  0  0  0  0  0  0  0  0
   61.2846   35.1098   45.9307 H   0  0  0  0  0  0  0  0  0  0  0  0
   60.5596   35.1564   47.5777 H   0  0  0  0  0  0  0  0  0  0  0  0
   63.4571   34.5119   47.7682 H   0  0  0  0  0  0  0  0  0  0  0  0
   62.0817   30.1132   47.4043 H   0  0  0  0  0  0  0  0  0  0  0  0
   60.3110   31.7910   46.6670 H   0  0  0  0  0  0  0  0  0  0  0  0
   58.4824   35.8197   45.8178 H   0  0  0  0  0  0  0  0  0  0  0  0
   59.6164   35.3169   44.5166 H   0  0  0  0  0  0  0  0  0  0  0  0
   56.9760   35.0517   44.2151 H   0  0  0  0  0  0  0  0  0  0  0  0
   58.1407   33.7805   43.6169 H   0  0  0  0  0  0  0  0  0  0  0  0
  1  2  1  0
  2  3  1  0
  3  4  1  0
  4  5  2  0
  4  6  2  0
  4  7  1  0
  7  8  1  0
  8  9  1  0
  9 10  1  0
 10 11  1  0
 11 12  1  0
 12 13  2  0
 13 14  1  0
 14 15  1  0
 15 16  2  0
 10 17  1  0
 17 18  1  0
 18  7  1  0
 16 12  1  0
  1 19  1  0
  1 20  1  0
  1 21  1  0
  2 22  1  0
  2 23  1  0
  3 24  1  0
  3 25  1  0
  8 26  1  0
  8 27  1  0
  9 28  1  0
  9 29  1  0
 11 30  1  0
 11 31  1  0
 13 32  1  0
 15 33  1  0
 16 34  1  0
 17 35  1  0
 17 36  1  0
 18 37  1  0
 18 38  1  0
M  CHG  1  16   1
M  END
>  <UniqueID>  (51) 
49

>  <SMILES>  (51) 
CCCS(=O)(=O)N1CCN(Cc2csc[nH+]2)CC1

>  <Energy>  (51) 
66.7386127118485

>  <Genealogy>  (51) 
CCCS(=O)(=O)N1CCN(Cc2csc[nH+]2)CC1 (protonated)
CCCS(=O)(=O)N1CCN(Cc2csc[nH+]2)CC1 (3D coordinates assigned)
CCCS(=O)(=O)N1CCN(Cc2csc[nH+]2)CC1 (nonaromatic ring conformer: 66.7386127118485 kcal/mol)

>  <smiles>  (51) 
CCCS(=O)(=O)N1CCN(Cc2cscn2)CC1

>  <score_type>  (51) 
oracle

>  <origin>  (51) 
adg

>  <m_score__min__energy>  (51) 
-5.4299999999999997

>  <m_primary>  (51) 
energy

$$$$
51:0
     RDKit          3D

 36 38  0  0  0  0  0  0  0  0999 V2000
   54.2630   25.9510   45.6450 O   0  0  0  0  0  0  0  0  0  0  0  0
   55.4420   25.5460   45.8410 C   0  0  0  0  0  0  0  0  0  0  0  0
   56.2990   26.2630   46.7390 N   0  0  0  0  0  0  0  0  0  0  0  0
   57.3910   27.0920   46.3200 C   0  0  0  0  0  0  0  0  0  0  0  0
   58.6880   26.7280   46.6970 C   0  0  0  0  0  0  0  0  0  0  0  0
   59.7750   27.5310   46.3540 C   0  0  0  0  0  0  0  0  0  0  0  0
   59.5740   28.7130   45.6390 C   0  0  0  0  0  0  0  0  0  0  0  0
   58.2860   29.0940   45.2470 C   0  0  0  0  0  0  0  0  0  0  0  0
   58.1300   30.3160   44.5110 N   0  0  0  0  0  0  0  0  0  0  0  0
   57.3340   31.4430   44.9030 C   0  0  0  0  0  0  0  0  0  0  0  0
   56.0860   31.3870   44.7460 O   0  0  0  0  0  0  0  0  0  0  0  0
   57.9330   32.6800   45.4420 C   0  0  0  0  0  0  0  0  0  0  0  0
   58.0290   33.0460   46.7820 C   0  0  0  0  0  0  0  0  0  0  0  0
   58.6660   34.2790   46.9750 C   0  0  0  0  0  0  0  0  0  0  0  0
   59.0830   34.8810   45.7960 C   0  0  0  0  0  0  0  0  0  0  0  0
   58.6610   33.8790   44.5140 S   0  0  0  0  0  0  0  0  0  0  0  0
   57.1910   28.2470   45.5300 C   0  0  0  0  0  0  0  0  0  0  0  0
   55.9420   28.5390   44.9760 O   0  0  0  0  0  0  0  0  0  0  0  0
   55.9280   24.3230   45.1620 C   0  0  0  0  0  0  0  0  0  0  0  0
   56.7080   23.3790   45.8570 C   0  0  0  0  0  0  0  0  0  0  0  0
   57.1670   22.2260   45.2110 C   0  0  0  0  0  0  0  0  0  0  0  0
   56.8520   22.0020   43.8690 C   0  0  0  0  0  0  0  0  0  0  0  0
   56.0780   22.9310   43.1690 C   0  0  0  0  0  0  0  0  0  0  0  0
   55.6180   24.0860   43.8100 C   0  0  0  0  0  0  0  0  0  0  0  0
   58.8514   25.8020   47.2679 H   0  0  0  0  0  0  0  0  0  0  0  0
   60.7924   27.2327   46.6472 H   0  0  0  0  0  0  0  0  0  0  0  0
   60.4339   29.3491   45.3821 H   0  0  0  0  0  0  0  0  0  0  0  0
   57.6433   32.4288   47.6068 H   0  0  0  0  0  0  0  0  0  0  0  0
   58.8210   34.7276   47.9674 H   0  0  0  0  0  0  0  0  0  0  0  0
   59.6009   35.8480   45.7145 H   0  0  0  0  0  0  0  0  0  0  0  0
   55.1420   27.9280   45.0720 H   0  0  0  0  0  0  0  0  0  0  0  0
   56.9581   23.5491   46.9146 H   0  0  0  0  0  0  0  0  0  0  0  0
   57.7771   21.4945   45.7612 H   0  0  0  0  0  0  0  0  0  0  0  0
   57.2132   21.0944   43.3632 H   0  0  0  0  0  0  0  0  0  0  0  0
   55.8300   22.7538   42.1121 H   0  0  0  0  0  0  0  0  0  0  0  0
   55.0097   24.8141   43.2534 H   0  0  0  0  0  0  0  0  0  0  0  0
  1  2  2  0
  2  3  1  0
  3  4  1  0
  4  5  2  0
  5  6  1  0
  6  7  2  0
  7  8  1  0
  8  9  1  0
  9 10  1  0
 10 11  2  0
 10 12  1  0
 12 13  2  0
 13 14  1  0
 14 15  2  0
 15 16  1  0
  8 17  2  0
 17 18  1  0
  2 19  1  0
 19 20  2  0
 20 21  1  0
 21 22  2  0
 22 23  1  0
 23 24  2  0
 17  4  1  0
 24 19  1  0
 16 12  1  0
  5 25  1  0
  6 26  1  0
  7 27  1  0
 13 28  1  0
 14 29  1  0
 15 30  1  0
 18 31  1  0
 20 32  1  0
 21 33  1  0
 22 34  1  0
 23 35  1  0
 24 36  1  0
M  CHG  2   3  -1   9  -1
M  END
>  <UniqueID>  (52) 
50

>  <SMILES>  (52) 
O=C([N-]c1cccc([N-]C(=O)c2cccs2)c1O)c1ccccc1

>  <Energy>  (52) 
78.25254092630006

>  <Genealogy>  (52) 
O=C([N-]c1cccc([N-]C(=O)c2cccs2)c1O)c1ccccc1 (protonated)
O=C([N-]c1cccc([N-]C(=O)c2cccs2)c1O)c1ccccc1 (3D coordinates assigned)
O=C([N-]c1cccc([N-]C(=O)c2cccs2)c1O)c1ccccc1 (optimized conformer: 78.25254092630006 kcal/mol)

>  <smiles>  (52) 
O=C(Nc1cccc(NC(=O)c2cccs2)c1O)c1ccccc1

>  <score_type>  (52) 
oracle

>  <origin>  (52) 
adg

>  <m_score__min__energy>  (52) 
-13.09

>  <m_primary>  (52) 
energy

$$$$
52:0
     RDKit          3D

 43 47  0  0  0  0  0  0  0  0999 V2000
   59.0720   30.6240   48.6320 H   0  0  0  0  0  0  0  0  0  0  0  0
   59.1210   31.6100   48.8620 O   0  0  0  0  0  0  0  0  0  0  0  0
   58.7460   32.0850   50.1170 C   0  0  0  0  0  0  0  0  0  0  0  0
   59.2880   33.2820   50.5920 C   0  0  0  0  0  0  0  0  0  0  0  0
   60.0092   33.8401   49.9768 H   0  0  0  0  0  0  0  0  0  0  0  0
   58.9160   33.7720   51.8470 C   0  0  0  0  0  0  0  0  0  0  0  0
   59.3429   34.7163   52.2160 H   0  0  0  0  0  0  0  0  0  0  0  0
   58.0030   33.0650   52.6340 C   0  0  0  0  0  0  0  0  0  0  0  0
   57.7117   33.4552   53.6203 H   0  0  0  0  0  0  0  0  0  0  0  0
   57.4560   31.8570   52.1690 C   0  0  0  0  0  0  0  0  0  0  0  0
   56.4500   31.1030   52.9960 C   0  0  0  0  0  0  0  0  0  0  0  0
   55.5767   31.7460   53.1800 H   0  0  0  0  0  0  0  0  0  0  0  0
   56.9149   30.8162   53.9508 H   0  0  0  0  0  0  0  0  0  0  0  0
   56.0200   29.8950   52.2950 N   0  0  0  0  0  0  0  0  0  0  0  0
   55.3920   28.9080   52.8600 C   0  0  0  0  0  0  0  0  0  0  0  0
   55.9640   28.0310   53.7190 N   0  0  0  0  0  0  0  0  0  0  0  0
   54.8980   27.3180   54.1590 C   0  0  0  0  0  0  0  0  0  0  0  0
   55.0470   26.3300   55.0030 N   0  0  0  0  0  0  0  0  0  0  0  0
   54.5150   24.9640   55.1640 C   0  0  0  0  0  0  0  0  0  0  0  0
   54.4037   25.0689   56.2533 H   0  0  0  0  0  0  0  0  0  0  0  0
   55.0490   23.8590   54.2750 C   0  0  0  0  0  0  0  0  0  0  0  0
   55.8717   24.0645   53.5744 H   0  0  0  0  0  0  0  0  0  0  0  0
   55.4458   22.8467   54.4417 H   0  0  0  0  0  0  0  0  0  0  0  0
   53.6590   24.4540   54.0230 C   0  0  0  0  0  0  0  0  0  0  0  0
   53.4823   25.0872   53.1410 H   0  0  0  0  0  0  0  0  0  0  0  0
   52.6410   24.0471   53.9331 H   0  0  0  0  0  0  0  0  0  0  0  0
   53.7500   27.7350   53.5690 N   0  0  0  0  0  0  0  0  0  0  0  0
   54.0680   28.7020   52.7450 N   0  0  0  0  0  0  0  0  0  0  0  0
   52.9870   29.6220   52.7100 C   0  0  0  0  0  0  0  0  0  0  0  0
   52.9540   30.7550   51.9950 C   0  0  0  0  0  0  0  0  0  0  0  0
   53.6368   31.5650   52.2911 H   0  0  0  0  0  0  0  0  0  0  0  0
   52.0680   30.9950   50.8390 C   0  0  0  0  0  0  0  0  0  0  0  0
   51.9590   30.2070   49.7540 N   0  0  0  0  0  0  0  0  0  0  0  0
   51.0380   30.8390   48.9960 C   0  0  0  0  0  0  0  0  0  0  0  0
   50.6610   30.3990   47.8790 O   0  0  0  0  0  0  0  0  0  0  0  0
   50.5520   31.9800   49.5300 N   0  0  0  0  0  0  0  0  0  0  0  0
   51.2140   32.0630   50.6950 C   0  0  0  0  0  0  0  0  0  0  0  0
   51.0410   33.0950   51.6090 O   0  0  0  0  0  0  0  0  0  0  0  0
   52.0020   29.0470   53.6400 C   0  0  0  0  0  0  0  0  0  0  0  0
   51.0116   29.4695   53.8651 H   0  0  0  0  0  0  0  0  0  0  0  0
   52.4940   27.9580   54.1520 N   0  0  0  0  0  0  0  0  0  0  0  0
   57.8300   31.3730   50.9050 C   0  0  0  0  0  0  0  0  0  0  0  0
   57.4025   30.4309   50.5311 H   0  0  0  0  0  0  0  0  0  0  0  0
  1  2  1  0
  2  3  1  0
  3  4  2  0
  4  5  1  0
  4  6  1  0
  6  7  1  0
  6  8  2  0
  8  9  1  0
  8 10  1  0
 10 11  1  0
 11 12  1  0
 11 13  1  0
 11 14  1  0
 14 15  2  3
 15 16  1  0
 16 17  1  0
 17 18  2  3
 18 19  1  0
 19 20  1  0
 19 21  1  0
 21 22  1  0
 21 23  1  0
 21 24  1  0
 24 25  1  0
 24 26  1  0
 17 27  1  0
 27 28  1  0
 28 29  1  0
 29 30  2  0
 30 31  1  0
 30 32  1  0
 32 33  1  0
 33 34  1  0
 34 35  2  0
 34 36  1  0
 36 37  1  0
 37 38  1  0
 29 39  1  0
 39 40  1  0
 39 41  2  0
 10 42  2  0
 42 43  1  0
 42  3  1  0
 28 15  1  0
 37 32  2  0
 24 19  1  0
 41 27  1  0
M  CHG  4  16  -1  33  -1  36  -1  38  -1
M  END
>  <UniqueID>  (53) 
51

>  <SMILES>  (53) 
O=c1[n-]c([O-])c(/C=C2\C=Nn3c(=NC4CC4)[n-]c(=NCc4cccc(O)c4)n32)[n-]1

>  <Energy>  (53) 
453.5839107393803

>  <Genealogy>  (53) 
O=c1[n-]c([O-])c(C=C2C=Nn3c(=NC4CC4)[n-]c(=NCc4cccc(O)c4)n32)[n-]1 (protonated)
O=c1[n-]c([O-])c(/C=C2\C=Nn3c(=NC4CC4)[n-]c(=NCc4cccc(O)c4)n32)[n-]1 (cis-trans isomerization)
O=c1[n-]c([O-])c(/C=C2\C=Nn3c(=NC4CC4)[n-]c(=NCc4cccc(O)c4)n32)[n-]1 (3D coordinates assigned)
O=c1[n-]c([O-])c(/C=C2\C=Nn3c(=NC4CC4)[n-]c(=NCc4cccc(O)c4)n32)[n-]1 (nonaromatic ring conformer: 453.5839107393803 kcal/mol)

>  <smiles>  (53) 
O=c1[nH]c(O)c(C=C2C=Nn3c(=NC4CC4)[nH]c(=NCc4cccc(O)c4)n32)[nH]1

>  <score_type>  (53) 
oracle

>  <origin>  (53) 
adg

>  <m_score__min__energy>  (53) 
-16.670000000000002

>  <m_primary>  (53) 
energy

$$$$
53:0
     RDKit          3D

 69 71  0  0  0  0  0  0  0  0999 V2000
   59.6860   34.5860   48.1100 C   0  0  0  0  0  0  0  0  0  0  0  0
   59.2540   34.1400   46.7050 C   0  0  0  0  0  0  0  0  0  0  0  0
   59.6410   35.2200   45.6850 C   0  0  0  0  0  0  0  0  0  0  0  0
   57.7380   33.8350   46.7070 C   0  0  0  0  0  0  0  0  0  0  0  0
   57.0670   33.7830   45.3220 C   0  0  0  0  0  0  0  0  0  0  0  0
   57.5790   32.6460   44.4180 C   0  0  0  0  0  0  0  0  0  0  0  0
   57.5870   31.3210   45.1250 C   0  0  0  0  0  0  0  0  0  0  0  0
   56.6710   30.4880   44.8830 O   0  0  0  0  0  0  0  0  0  0  0  0
   58.6100   31.0090   46.0820 N   0  0  0  0  0  0  0  0  0  0  0  0
   58.5920   29.7640   46.8590 C   0  0  1  0  0  0  0  0  0  0  0  0
   59.5220   28.7100   46.2320 C   0  0  0  0  0  0  0  0  0  0  0  0
   58.7480   27.7350   45.3900 C   0  0  0  0  0  0  0  0  0  0  0  0
   58.4340   27.8830   44.0410 C   0  0  0  0  0  0  0  0  0  0  0  0
   57.7630   26.7970   43.5910 N   0  0  0  0  0  0  0  0  0  0  0  0
   57.6490   25.9690   44.6420 C   0  0  0  0  0  0  0  0  0  0  0  0
   57.0400   24.7140   44.6650 C   0  0  0  0  0  0  0  0  0  0  0  0
   57.0730   23.9880   45.8690 C   0  0  0  0  0  0  0  0  0  0  0  0
   57.6950   24.5330   47.0150 C   0  0  0  0  0  0  0  0  0  0  0  0
   58.2900   25.8080   46.9680 C   0  0  0  0  0  0  0  0  0  0  0  0
   58.2480   26.5020   45.7570 C   0  0  0  0  0  0  0  0  0  0  0  0
   59.0130   30.0410   48.2760 C   0  0  0  0  0  0  0  0  0  0  0  0
   59.1650   29.0850   49.0850 O   0  0  0  0  0  0  0  0  0  0  0  0
   59.2410   31.3890   48.6960 N   0  0  0  0  0  0  0  0  0  0  0  0
   58.5210   32.0260   49.7910 C   0  0  0  0  0  0  0  0  0  0  0  0
   59.4230   32.0440   51.0220 C   0  0  0  0  0  0  0  0  0  0  0  0
   60.3350   33.2800   51.0450 C   0  0  0  0  0  0  0  0  0  0  0  0
   61.8240   32.9060   50.9560 C   0  0  0  0  0  0  0  0  0  0  0  0
   62.3070   32.8620   49.5250 C   0  0  0  0  0  0  0  0  0  0  0  0
   62.2410   31.6670   48.7930 C   0  0  0  0  0  0  0  0  0  0  0  0
   62.7700   31.6000   47.4970 C   0  0  0  0  0  0  0  0  0  0  0  0
   63.3700   32.7250   46.9270 C   0  0  0  0  0  0  0  0  0  0  0  0
   63.4320   33.9220   47.6470 C   0  0  0  0  0  0  0  0  0  0  0  0
   62.9020   33.9930   48.9410 C   0  0  0  0  0  0  0  0  0  0  0  0
   59.1291   34.0111   48.8646 H   0  0  0  0  0  0  0  0  0  0  0  0
   60.7642   34.4083   48.2358 H   0  0  0  0  0  0  0  0  0  0  0  0
   59.4740   35.6580   48.2358 H   0  0  0  0  0  0  0  0  0  0  0  0
   59.7730   33.2151   46.4130 H   0  0  0  0  0  0  0  0  0  0  0  0
   59.9659   36.1267   46.2164 H   0  0  0  0  0  0  0  0  0  0  0  0
   60.4627   34.8506   45.0538 H   0  0  0  0  0  0  0  0  0  0  0  0
   58.7717   35.4566   45.0538 H   0  0  0  0  0  0  0  0  0  0  0  0
   57.5901   32.8585   47.1914 H   0  0  0  0  0  0  0  0  0  0  0  0
   57.2637   34.6726   47.2394 H   0  0  0  0  0  0  0  0  0  0  0  0
   55.9850   33.6484   45.4671 H   0  0  0  0  0  0  0  0  0  0  0  0
   57.3131   34.7273   44.8144 H   0  0  0  0  0  0  0  0  0  0  0  0
   56.9260   32.5732   43.5358 H   0  0  0  0  0  0  0  0  0  0  0  0
   58.6141   32.8824   44.1305 H   0  0  0  0  0  0  0  0  0  0  0  0
   59.3340   31.7360   46.2920 H   0  0  0  0  0  0  0  0  0  0  0  0
   57.5664   29.3663   46.8528 H   0  0  0  0  0  0  0  0  0  0  0  0
   60.2659   29.2179   45.6006 H   0  0  0  0  0  0  0  0  0  0  0  0
   60.0161   28.1547   47.0428 H   0  0  0  0  0  0  0  0  0  0  0  0
   58.6945   28.7585   43.4281 H   0  0  0  0  0  0  0  0  0  0  0  0
   57.4160   26.6360   42.6190 H   0  0  0  0  0  0  0  0  0  0  0  0
   56.5494   24.3051   43.7694 H   0  0  0  0  0  0  0  0  0  0  0  0
   56.6121   22.9905   45.9190 H   0  0  0  0  0  0  0  0  0  0  0  0
   57.7144   23.9562   47.9514 H   0  0  0  0  0  0  0  0  0  0  0  0
   58.7720   26.2432   47.8558 H   0  0  0  0  0  0  0  0  0  0  0  0
   58.2562   33.0562   49.5106 H   0  0  0  0  0  0  0  0  0  0  0  0
   57.5987   31.4677   50.0092 H   0  0  0  0  0  0  0  0  0  0  0  0
   58.7936   32.0494   51.9241 H   0  0  0  0  0  0  0  0  0  0  0  0
   60.0619   31.1491   50.9900 H   0  0  0  0  0  0  0  0  0  0  0  0
   60.0800   33.9241   50.1906 H   0  0  0  0  0  0  0  0  0  0  0  0
   60.1744   33.8000   52.0009 H   0  0  0  0  0  0  0  0  0  0  0  0
   62.4125   33.6539   51.5076 H   0  0  0  0  0  0  0  0  0  0  0  0
   61.9513   31.9036   51.3908 H   0  0  0  0  0  0  0  0  0  0  0  0
   61.7714   30.7777   49.2388 H   0  0  0  0  0  0  0  0  0  0  0  0
   62.7126   30.6603   46.9281 H   0  0  0  0  0  0  0  0  0  0  0  0
   63.7932   32.6695   45.9132 H   0  0  0  0  0  0  0  0  0  0  0  0
   63.8983   34.8102   47.1957 H   0  0  0  0  0  0  0  0  0  0  0  0
   62.9516   34.9376   49.5024 H   0  0  0  0  0  0  0  0  0  0  0  0
  1  2  1  0
  2  3  1  0
  2  4  1  0
  4  5  1  0
  5  6  1  0
  6  7  1  0
  7  8  2  0
  7  9  1  0
  9 10  1  0
 10 11  1  0
 11 12  1  0
 12 13  2  0
 13 14  1  0
 14 15  1  0
 15 16  2  0
 16 17  1  0
 17 18  2  0
 18 19  1  0
 19 20  2  0
 10 21  1  0
 21 22  2  0
 21 23  1  0
 23 24  1  0
 24 25  1  0
 25 26  1  0
 26 27  1  0
 27 28  1  0
 28 29  2  0
 29 30  1  0
 30 31  2  0
 31 32  1  0
 32 33  2  0
 20 12  1  0
 33 28  1  0
 20 15  1  0
  1 34  1  0
  1 35  1  0
  1 36  1  0
  2 37  1  0
  3 38  1  0
  3 39  1  0
  3 40  1  0
  4 41  1  0
  4 42  1  0
  5 43  1  0
  5 44  1  0
  6 45  1  0
  6 46  1  0
  9 47  1  0
 10 48  1  1
 11 49  1  0
 11 50  1  0
 13 51  1  0
 14 52  1  0
 16 53  1  0
 17 54  1  0
 18 55  1  0
 19 56  1  0
 24 57  1  0
 24 58  1  0
 25 59  1  0
 25 60  1  0
 26 61  1  0
 26 62  1  0
 27 63  1  0
 27 64  1  0
 29 65  1  0
 30 66  1  0
 31 67  1  0
 32 68  1  0
 33 69  1  0
M  CHG  1  23  -1
M  END
>  <UniqueID>  (54) 
52

>  <SMILES>  (54) 
CC(C)CCCC(=O)N[C@@H](Cc1c[nH]c2ccccc12)C(=O)[N-]CCCCc1ccccc1

>  <Energy>  (54) 
78.15438739405619

>  <Genealogy>  (54) 
CC(C)CCCC(=O)NC(Cc1c[nH]c2ccccc12)C(=O)[N-]CCCCc1ccccc1 (protonated)
CC(C)CCCC(=O)N[C@@H](Cc1c[nH]c2ccccc12)C(=O)[N-]CCCCc1ccccc1 (chirality)
CC(C)CCCC(=O)N[C@@H](Cc1c[nH]c2ccccc12)C(=O)[N-]CCCCc1ccccc1 (3D coordinates assigned)
CC(C)CCCC(=O)N[C@@H](Cc1c[nH]c2ccccc12)C(=O)[N-]CCCCc1ccccc1 (optimized conformer: 78.15438739405619 kcal/mol)

>  <smiles>  (54) 
CC(C)CCCC(=O)NC(Cc1c[nH]c2ccccc12)C(=O)NCCCCc1ccccc1

>  <score_type>  (54) 
oracle

>  <origin>  (54) 
adg

>  <m_score__min__energy>  (54) 
-11.77

>  <m_primary>  (54) 
energy

$$$$
54:0
     RDKit          3D

 43 45  0  0  1  0  0  0  0  0999 V2000
   56.1280   25.6420   45.6380 C   0  0  0  0  0  0  0  0  0  0  0  0
   57.0340   26.8090   45.8200 C   0  0  0  0  0  0  0  0  0  0  0  0
   58.2840   26.6240   46.3700 C   0  0  0  0  0  0  0  0  0  0  0  0
   59.1680   27.6860   46.5590 C   0  0  0  0  0  0  0  0  0  0  0  0
   58.7580   28.9470   46.1790 C   0  0  0  0  0  0  0  0  0  0  0  0
   59.5550   30.0720   46.3210 C   0  0  0  0  0  0  0  0  0  0  0  0
   60.7280   29.9120   46.8350 N   0  0  0  0  0  0  0  0  0  0  0  0
   61.1800   30.7180   47.9360 C   0  0  0  0  0  0  0  0  0  0  0  0
   61.9770   31.9110   47.4770 C   0  0  0  0  0  0  0  0  0  0  0  0
   63.3400   32.1130   47.7280 C   0  0  0  0  0  0  0  0  0  0  0  0
   63.7060   33.3180   47.1470 C   0  0  0  0  0  0  0  0  0  0  0  0
   62.5390   33.7920   46.5680 C   0  0  0  0  0  0  0  0  0  0  0  0
   61.5680   32.9440   46.7870 O   0  0  0  0  0  0  0  0  0  0  0  0
   59.1080   31.2810   45.9340 N   0  0  0  0  0  0  0  0  0  0  0  0
   57.8900   31.4330   45.4010 C   0  0  0  0  0  0  0  0  0  0  0  0
   57.3580   32.7650   44.9580 C   0  0  0  0  0  0  0  0  0  0  0  0
   58.3380   33.5150   44.1270 C   0  0  0  0  0  0  0  0  0  0  0  0
   59.2820   34.2560   45.0750 C   0  0  0  0  0  0  0  0  0  0  0  0
   58.5310   34.5430   46.3810 C   0  0  0  0  0  0  0  0  0  0  0  0
   59.1340   33.7380   47.3410 O   0  0  0  0  0  0  0  0  0  0  0  0
   57.1070   30.3560   45.2570 N   0  0  0  0  0  0  0  0  0  0  0  0
   57.4950   29.1170   45.6250 C   0  0  0  0  0  0  0  0  0  0  0  0
   56.6550   28.0580   45.4520 N   0  0  0  0  0  0  0  0  0  0  0  0
   55.8271   25.2544   46.6225 H   0  0  0  0  0  0  0  0  0  0  0  0
   55.2343   25.9554   45.0785 H   0  0  0  0  0  0  0  0  0  0  0  0
   56.6532   24.8538   45.0785 H   0  0  0  0  0  0  0  0  0  0  0  0
   58.5929   25.6112   46.6680 H   0  0  0  0  0  0  0  0  0  0  0  0
   60.1632   27.5228   46.9983 H   0  0  0  0  0  0  0  0  0  0  0  0
   60.3039   31.0723   48.4990 H   0  0  0  0  0  0  0  0  0  0  0  0
   61.8342   30.0958   48.5644 H   0  0  0  0  0  0  0  0  0  0  0  0
   64.0027   31.4359   48.2869 H   0  0  0  0  0  0  0  0  0  0  0  0
   64.6990   33.7912   47.1459 H   0  0  0  0  0  0  0  0  0  0  0  0
   62.4444   34.7356   46.0105 H   0  0  0  0  0  0  0  0  0  0  0  0
   59.7220   32.1150   46.0490 H   0  0  0  0  0  0  0  0  0  0  0  0
   56.4442   32.6026   44.3675 H   0  0  0  0  0  0  0  0  0  0  0  0
   57.1527   33.3624   45.8586 H   0  0  0  0  0  0  0  0  0  0  0  0
   58.9102   32.8154   43.4999 H   0  0  0  0  0  0  0  0  0  0  0  0
   57.8189   34.2259   43.4673 H   0  0  0  0  0  0  0  0  0  0  0  0
   60.1640   33.6325   45.2832 H   0  0  0  0  0  0  0  0  0  0  0  0
   59.6148   35.1986   44.6159 H   0  0  0  0  0  0  0  0  0  0  0  0
   58.6265   35.6043   46.6541 H   0  0  0  0  0  0  0  0  0  0  0  0
   57.4555   34.3315   46.2882 H   0  0  0  0  0  0  0  0  0  0  0  0
   60.0630   33.5010   47.1290 H   0  0  0  0  0  0  0  0  0  0  0  0
  1  2  1  0
  2  3  2  0
  3  4  1  0
  4  5  2  0
  5  6  1  0
  6  7  2  0
  7  8  1  0
  8  9  1  0
  9 10  2  0
 10 11  1  0
 11 12  2  0
 12 13  1  0
  6 14  1  0
 14 15  1  0
 15 16  1  0
 16 17  1  0
 17 18  1  0
 18 19  1  0
 19 20  1  0
 15 21  2  0
 21 22  1  0
 22 23  2  0
 23  2  1  0
 22  5  1  0
 13  9  1  0
  1 24  1  0
  1 25  1  0
  1 26  1  0
  3 27  1  0
  4 28  1  0
  8 29  1  0
  8 30  1  0
 10 31  1  0
 11 32  1  0
 12 33  1  0
 14 34  1  0
 16 35  1  0
 16 36  1  0
 17 37  1  0
 17 38  1  0
 18 39  1  0
 18 40  1  0
 19 41  1  0
 19 42  1  0
 20 43  1  0
M  END
>  <smiles>  (55) 
Cc1ccc2c(=NCc3ccco3)[nH]c(CCCCO)nc2n1

>  <score_type>  (55) 
oracle

>  <origin>  (55) 
adg

>  <m_score__min__energy>  (55) 
-8.0999999999999996

>  <m_primary>  (55) 
energy

$$$$
55:0
     RDKit          3D

 48 51  0  0  0  0  0  0  0  0999 V2000
   58.2550   32.0990   49.2640 O   0  0  0  0  0  0  0  0  0  0  0  0
   58.6990   31.8340   48.1140 C   0  0  0  0  0  0  0  0  0  0  0  0
   58.6240   32.8660   47.0590 C   0  0  0  0  0  0  0  0  0  0  0  0
   57.4000   33.1530   46.4360 C   0  0  0  0  0  0  0  0  0  0  0  0
   57.3480   34.1210   45.4310 C   0  0  0  0  0  0  0  0  0  0  0  0
   58.4740   34.7890   45.0690 N   0  0  0  0  0  0  0  0  0  0  0  0
   59.6720   34.5450   45.6660 C   0  0  0  0  0  0  0  0  0  0  0  0
   59.7670   33.5860   46.6760 C   0  0  0  0  0  0  0  0  0  0  0  0
   59.2800   30.4980   47.8630 C   0  0  0  0  0  0  0  0  0  0  0  0
   60.0660   29.7770   48.7390 C   0  0  0  0  0  0  0  0  0  0  0  0
   60.5080   30.1960   49.9880 O   0  0  0  0  0  0  0  0  0  0  0  0
   60.3250   28.5600   48.1520 C   0  0  0  0  0  0  0  0  0  0  0  0
   61.0700   27.5310   48.7210 O   0  0  0  0  0  0  0  0  0  0  0  0
   59.7300   28.4870   46.9430 N   0  0  0  0  0  0  0  0  0  0  0  0
   59.7180   27.3090   46.0660 C   0  0  0  0  0  0  0  0  0  0  0  0
   59.2650   26.0460   46.8120 C   0  0  0  0  0  0  0  0  0  0  0  0
   58.0150   25.4530   46.2160 C   0  0  0  0  0  0  0  0  0  0  0  0
   56.7520   25.9610   46.5660 C   0  0  0  0  0  0  0  0  0  0  0  0
   55.5960   25.4400   45.9750 C   0  0  0  0  0  0  0  0  0  0  0  0
   55.6930   24.4160   45.0310 C   0  0  0  0  0  0  0  0  0  0  0  0
   56.9450   23.9090   44.6740 C   0  0  0  0  0  0  0  0  0  0  0  0
   58.1040   24.4270   45.2610 C   0  0  0  0  0  0  0  0  0  0  0  0
   59.0860   29.6680   46.7560 C   0  0  0  0  0  0  0  0  0  0  0  0
   58.1580   29.9400   45.6420 C   0  0  0  0  0  0  0  0  0  0  0  0
   58.5660   30.7580   44.5770 C   0  0  0  0  0  0  0  0  0  0  0  0
   57.7060   30.9890   43.4990 C   0  0  0  0  0  0  0  0  0  0  0  0
   56.4380   30.4000   43.4750 C   0  0  0  0  0  0  0  0  0  0  0  0
   56.0300   29.5750   44.5290 C   0  0  0  0  0  0  0  0  0  0  0  0
   54.7770   28.9770   44.4970 O   0  0  0  0  0  0  0  0  0  0  0  0
   56.8880   29.3460   45.6100 C   0  0  0  0  0  0  0  0  0  0  0  0
   56.4870   32.6187   46.7375 H   0  0  0  0  0  0  0  0  0  0  0  0
   56.3934   34.3430   44.9315 H   0  0  0  0  0  0  0  0  0  0  0  0
   60.5662   35.1037   45.3526 H   0  0  0  0  0  0  0  0  0  0  0  0
   60.7317   33.3955   47.1690 H   0  0  0  0  0  0  0  0  0  0  0  0
   61.4610   27.6200   49.6510 H   0  0  0  0  0  0  0  0  0  0  0  0
   59.0281   27.4950   45.2297 H   0  0  0  0  0  0  0  0  0  0  0  0
   60.7433   27.1424   45.7040 H   0  0  0  0  0  0  0  0  0  0  0  0
   60.0701   25.2979   46.7642 H   0  0  0  0  0  0  0  0  0  0  0  0
   59.0434   26.3282   47.8518 H   0  0  0  0  0  0  0  0  0  0  0  0
   56.6724   26.7704   47.3066 H   0  0  0  0  0  0  0  0  0  0  0  0
   54.6092   25.8377   46.2545 H   0  0  0  0  0  0  0  0  0  0  0  0
   54.7826   24.0079   44.5677 H   0  0  0  0  0  0  0  0  0  0  0  0
   57.0193   23.1017   43.9306 H   0  0  0  0  0  0  0  0  0  0  0  0
   59.0886   24.0295   44.9737 H   0  0  0  0  0  0  0  0  0  0  0  0
   59.5649   31.2185   44.5904 H   0  0  0  0  0  0  0  0  0  0  0  0
   58.0274   31.6350   42.6687 H   0  0  0  0  0  0  0  0  0  0  0  0
   55.7614   30.5852   42.6277 H   0  0  0  0  0  0  0  0  0  0  0  0
   56.5653   28.6976   46.4379 H   0  0  0  0  0  0  0  0  0  0  0  0
  1  2  2  0
  2  3  1  0
  3  4  2  0
  4  5  1  0
  5  6  2  0
  6  7  1  0
  7  8  2  0
  2  9  1  0
  9 10  1  0
 10 11  1  0
 10 12  2  0
 12 13  1  0
 12 14  1  0
 14 15  1  0
 15 16  1  0
 16 17  1  0
 17 18  2  0
 18 19  1  0
 19 20  2  0
 20 21  1  0
 21 22  2  0
 14 23  1  0
 23 24  1  0
 24 25  2  0
 25 26  1  0
 26 27  2  0
 27 28  1  0
 28 29  1  0
 28 30  2  0
  8  3  1  0
 23  9  2  0
 30 24  1  0
 22 17  1  0
  4 31  1  0
  5 32  1  0
  7 33  1  0
  8 34  1  0
 13 35  1  0
 15 36  1  0
 15 37  1  0
 16 38  1  0
 16 39  1  0
 18 40  1  0
 19 41  1  0
 20 42  1  0
 21 43  1  0
 22 44  1  0
 25 45  1  0
 26 46  1  0
 27 47  1  0
 30 48  1  0
M  CHG  2  11  -1  29  -1
M  END
>  <UniqueID>  (56) 
53

>  <SMILES>  (56) 
O=C(c1ccncc1)c1c([O-])c(O)n(CCc2ccccc2)c1-c1cccc([O-])c1

>  <Energy>  (56) 
88.80703457861642

>  <Genealogy>  (56) 
O=C(c1ccncc1)c1c([O-])c(O)n(CCc2ccccc2)c1-c1cccc([O-])c1 (protonated)
O=C(c1ccncc1)c1c([O-])c(O)n(CCc2ccccc2)c1-c1cccc([O-])c1 (3D coordinates assigned)
O=C(c1ccncc1)c1c([O-])c(O)n(CCc2ccccc2)c1-c1cccc([O-])c1 (optimized conformer: 88.80703457861642 kcal/mol)

>  <smiles>  (56) 
O=C(c1ccncc1)c1c(O)c(O)n(CCc2ccccc2)c1-c1cccc(O)c1

>  <score_type>  (56) 
oracle

>  <origin>  (56) 
adg

>  <m_score__min__energy>  (56) 
-12.34

>  <m_primary>  (56) 
energy

$$$$
56:0
     RDKit          3D

 53 56  0  0  0  0  0  0  0  0999 V2000
   54.6260   23.3200   44.9790 C   0  0  0  0  0  0  0  0  0  0  0  0
   55.1460   24.6650   45.3710 C   0  0  0  0  0  0  0  0  0  0  0  0
   54.3580   25.7330   45.6220 N   0  0  0  0  0  0  0  0  0  0  0  0
   55.1420   26.7090   45.9830 O   0  0  0  0  0  0  0  0  0  0  0  0
   56.3960   26.3210   45.9830 C   0  0  0  0  0  0  0  0  0  0  0  0
   57.4030   27.0630   46.3260 N   0  0  0  0  0  0  0  0  0  0  0  0
   58.3610   27.9430   45.1800 S   0  0  0  0  0  0  0  0  0  0  0  0
   57.7730   27.7940   43.8030 O   0  0  0  0  0  0  0  0  0  0  0  0
   59.7460   27.3610   45.1810 O   0  0  0  0  0  0  0  0  0  0  0  0
   58.4520   29.6510   45.6040 C   0  0  0  0  0  0  0  0  0  0  0  0
   59.1520   30.0760   46.7420 C   0  0  0  0  0  0  0  0  0  0  0  0
   59.1920   31.4350   47.0750 C   0  0  0  0  0  0  0  0  0  0  0  0
   58.5490   32.3840   46.2710 C   0  0  0  0  0  0  0  0  0  0  0  0
   58.5920   33.7640   46.6670 N   0  0  0  0  0  0  0  0  0  0  0  0
   59.7320   34.6330   46.6160 C   0  0  0  0  0  0  0  0  0  0  0  0
   59.6390   35.7640   46.0680 O   0  0  0  0  0  0  0  0  0  0  0  0
   61.0190   34.1910   47.2120 C   0  0  0  0  0  0  0  0  0  0  0  0
   62.0820   33.8650   46.3490 C   0  0  0  0  0  0  0  0  0  0  0  0
   63.2820   33.3610   46.8550 C   0  0  0  0  0  0  0  0  0  0  0  0
   63.4400   33.1770   48.2260 C   0  0  0  0  0  0  0  0  0  0  0  0
   62.4070   33.5100   49.1000 C   0  0  0  0  0  0  0  0  0  0  0  0
   61.1930   34.0280   48.6130 C   0  0  0  0  0  0  0  0  0  0  0  0
   60.1810   34.4520   49.5410 N   0  0  0  0  0  0  0  0  0  0  0  0
   59.8180   33.5620   50.9840 S   0  0  0  0  0  0  0  0  0  0  0  0
   60.9460   33.7180   51.9640 O   0  0  0  0  0  0  0  0  0  0  0  0
   58.5620   34.1130   51.6010 O   0  0  0  0  0  0  0  0  0  0  0  0
   59.6000   31.8630   50.6090 C   0  0  0  0  0  0  0  0  0  0  0  0
   58.3830   31.2060   50.5120 C   0  0  0  0  0  0  0  0  0  0  0  0
   58.5190   29.8550   50.1730 C   0  0  0  0  0  0  0  0  0  0  0  0
   59.8390   29.4540   50.0020 C   0  0  0  0  0  0  0  0  0  0  0  0
   60.8380   30.7820   50.2720 S   0  0  0  0  0  0  0  0  0  0  0  0
   57.8260   31.9520   45.1450 C   0  0  0  0  0  0  0  0  0  0  0  0
   57.7850   30.5950   44.8120 C   0  0  0  0  0  0  0  0  0  0  0  0
   56.4700   25.0070   45.5810 C   0  0  0  0  0  0  0  0  0  0  0  0
   57.6730   24.1170   45.5590 C   0  0  0  0  0  0  0  0  0  0  0  0
   54.4003   22.7362   45.8836 H   0  0  0  0  0  0  0  0  0  0  0  0
   53.7097   23.4407   44.3824 H   0  0  0  0  0  0  0  0  0  0  0  0
   55.3852   22.7930   44.3824 H   0  0  0  0  0  0  0  0  0  0  0  0
   59.6706   29.3403   47.3742 H   0  0  0  0  0  0  0  0  0  0  0  0
   59.7331   31.7601   47.9758 H   0  0  0  0  0  0  0  0  0  0  0  0
   61.9663   34.0087   45.2646 H   0  0  0  0  0  0  0  0  0  0  0  0
   64.1041   33.1089   46.1690 H   0  0  0  0  0  0  0  0  0  0  0  0
   64.3820   32.7680   48.6200 H   0  0  0  0  0  0  0  0  0  0  0  0
   62.5422   33.3663   50.1822 H   0  0  0  0  0  0  0  0  0  0  0  0
   59.5880   35.2810   49.3220 H   0  0  0  0  0  0  0  0  0  0  0  0
   57.4127   31.6951   50.6834 H   0  0  0  0  0  0  0  0  0  0  0  0
   57.6627   29.1750   50.0532 H   0  0  0  0  0  0  0  0  0  0  0  0
   60.1740   28.4407   49.7354 H   0  0  0  0  0  0  0  0  0  0  0  0
   57.2905   32.6849   44.5236 H   0  0  0  0  0  0  0  0  0  0  0  0
   57.2261   30.2665   43.9234 H   0  0  0  0  0  0  0  0  0  0  0  0
   57.9800   23.8899   46.5906 H   0  0  0  0  0  0  0  0  0  0  0  0
   57.4274   23.1815   45.0351 H   0  0  0  0  0  0  0  0  0  0  0  0
   58.4958   24.6255   45.0351 H   0  0  0  0  0  0  0  0  0  0  0  0
  1  2  1  0
  2  3  1  0
  3  4  1  0
  4  5  1  0
  5  6  2  3
  6  7  1  0
  7  8  2  0
  7  9  2  0
  7 10  1  0
 10 11  2  0
 11 12  1  0
 12 13  2  0
 13 14  1  0
 14 15  1  0
 15 16  2  0
 15 17  1  0
 17 18  2  0
 18 19  1  0
 19 20  2  0
 20 21  1  0
 21 22  2  0
 22 23  1  0
 23 24  1  0
 24 25  2  0
 24 26  2  0
 24 27  1  0
 27 28  2  0
 28 29  1  0
 29 30  2  0
 30 31  1  0
 13 32  1  0
 32 33  2  0
  5 34  1  0
 34 35  1  0
 34  2  2  0
 33 10  1  0
 22 17  1  0
 31 27  1  0
  1 36  1  0
  1 37  1  0
  1 38  1  0
 11 39  1  0
 12 40  1  0
 18 41  1  0
 19 42  1  0
 20 43  1  0
 21 44  1  0
 23 45  1  0
 28 46  1  0
 29 47  1  0
 30 48  1  0
 32 49  1  0
 33 50  1  0
 35 51  1  0
 35 52  1  0
 35 53  1  0
M  CHG  2   3  -1  14  -1
M  END
>  <UniqueID>  (57) 
54

>  <SMILES>  (57) 
Cc1[n-]oc(=NS(=O)(=O)c2ccc([N-]C(=O)c3ccccc3NS(=O)(=O)c3cccs3)cc2)c1C

>  <Energy>  (57) 
128.99685785937635

>  <Genealogy>  (57) 
Cc1[n-]oc(=NS(=O)(=O)c2ccc([N-]C(=O)c3ccccc3NS(=O)(=O)c3cccs3)cc2)c1C (protonated)
Cc1[n-]oc(=NS(=O)(=O)c2ccc([N-]C(=O)c3ccccc3NS(=O)(=O)c3cccs3)cc2)c1C (3D coordinates assigned)
Cc1[n-]oc(=NS(=O)(=O)c2ccc([N-]C(=O)c3ccccc3NS(=O)(=O)c3cccs3)cc2)c1C (optimized conformer: 128.99685785937635 kcal/mol)

>  <smiles>  (57) 
Cc1[nH]oc(=NS(=O)(=O)c2ccc(NC(=O)c3ccccc3NS(=O)(=O)c3cccs3)cc2)c1C

>  <score_type>  (57) 
oracle

>  <origin>  (57) 
adg

>  <m_score__min__energy>  (57) 
-13.960000000000001

>  <m_primary>  (57) 
energy

$$$$
57:0
     RDKit          3D

 23 24  0  0  0  0  0  0  0  0999 V2000
   59.0630   22.3630   44.1120 O   0  0  0  0  0  0  0  0  0  0  0  0
   58.3380   22.6490   45.1010 C   0  0  0  0  0  0  0  0  0  0  0  0
   58.7260   23.7370   45.9490 N   0  0  0  0  0  0  0  0  0  0  0  0
   58.1380   25.0460   45.9660 C   0  0  0  0  0  0  0  0  0  0  0  0
   58.9760   26.1660   45.9090 C   0  0  0  0  0  0  0  0  0  0  0  0
   58.4350   27.4540   45.9090 C   0  0  0  0  0  0  0  0  0  0  0  0
   57.0490   27.6330   45.9510 C   0  0  0  0  0  0  0  0  0  0  0  0
   56.2030   26.5190   45.9850 C   0  0  0  0  0  0  0  0  0  0  0  0
   54.8250   26.6960   46.0120 O   0  0  0  0  0  0  0  0  0  0  0  0
   56.7420   25.2290   45.9850 C   0  0  0  0  0  0  0  0  0  0  0  0
   57.1440   21.8250   45.3810 C   0  0  0  0  0  0  0  0  0  0  0  0
   56.6680   21.4460   46.6180 C   0  0  0  0  0  0  0  0  0  0  0  0
   57.2480   21.7370   47.8490 O   0  0  0  0  0  0  0  0  0  0  0  0
   55.5150   20.7170   46.4110 C   0  0  0  0  0  0  0  0  0  0  0  0
   55.2750   20.6550   45.1190 O   0  0  0  0  0  0  0  0  0  0  0  0
   56.2230   21.3100   44.4860 C   0  0  0  0  0  0  0  0  0  0  0  0
   56.2490   21.4760   43.1070 O   0  0  0  0  0  0  0  0  0  0  0  0
   60.0668   26.0311   45.8640 H   0  0  0  0  0  0  0  0  0  0  0  0
   59.1008   28.3290   45.8759 H   0  0  0  0  0  0  0  0  0  0  0  0
   56.6244   28.6477   45.9573 H   0  0  0  0  0  0  0  0  0  0  0  0
   56.0741   24.3551   45.9999 H   0  0  0  0  0  0  0  0  0  0  0  0
   57.7790   22.5900   47.9830 H   0  0  0  0  0  0  0  0  0  0  0  0
   54.8967   20.2615   47.1986 H   0  0  0  0  0  0  0  0  0  0  0  0
  1  2  2  0
  2  3  1  0
  3  4  1  0
  4  5  2  0
  5  6  1  0
  6  7  2  0
  7  8  1  0
  8  9  1  0
  8 10  2  0
  2 11  1  0
 11 12  1  0
 12 13  1  0
 12 14  2  0
 14 15  1  0
 15 16  1  0
 16 17  1  0
 10  4  1  0
 16 11  2  0
  5 18  1  0
  6 19  1  0
  7 20  1  0
 10 21  1  0
 13 22  1  0
 14 23  1  0
M  CHG  3   3  -1   9  -1  17  -1
M  END
>  <UniqueID>  (58) 
55

>  <SMILES>  (58) 
O=C([N-]c1cccc([O-])c1)c1c(O)coc1[O-]

>  <Energy>  (58) 
58.92783601489267

>  <Genealogy>  (58) 
O=C([N-]c1cccc([O-])c1)c1c(O)coc1[O-] (protonated)
O=C([N-]c1cccc([O-])c1)c1c(O)coc1[O-] (3D coordinates assigned)
O=C([N-]c1cccc([O-])c1)c1c(O)coc1[O-] (optimized conformer: 58.92783601489267 kcal/mol)

>  <smiles>  (58) 
O=C(Nc1cccc(O)c1)c1c(O)coc1O

>  <score_type>  (58) 
oracle

>  <origin>  (58) 
adg

>  <m_score__min__energy>  (58) 
-12.16

>  <m_primary>  (58) 
energy

$$$$
58:0
     RDKit          3D

 45 46  0  0  0  0  0  0  0  0999 V2000
   58.9170   32.5900   45.3320 C   0  0  0  0  0  0  0  0  0  0  0  0
   58.4990   34.0150   45.7360 C   0  0  0  0  0  0  0  0  0  0  0  0
   56.9940   34.2070   45.4570 C   0  0  0  0  0  0  0  0  0  0  0  0
   59.2790   35.0350   44.8780 C   0  0  0  0  0  0  0  0  0  0  0  0
   58.8320   34.2260   47.2100 C   0  0  0  0  0  0  0  0  0  0  0  0
   58.9200   35.3640   47.6480 O   0  0  0  0  0  0  0  0  0  0  0  0
   59.1350   32.8630   48.3550 S   0  0  0  0  0  0  0  0  0  0  0  0
   60.8880   32.7700   47.9600 C   0  0  0  0  0  0  0  0  0  0  0  0
   61.4550   33.7610   47.1480 C   0  0  0  0  0  0  0  0  0  0  0  0
   62.8000   33.6890   46.7820 C   0  0  0  0  0  0  0  0  0  0  0  0
   63.5910   32.6330   47.2380 C   0  0  0  0  0  0  0  0  0  0  0  0
   63.0420   31.6560   48.0720 C   0  0  0  0  0  0  0  0  0  0  0  0
   61.6870   31.7180   48.4470 C   0  0  0  0  0  0  0  0  0  0  0  0
   61.1110   30.7620   49.3500 N   0  0  0  0  0  0  0  0  0  0  0  0
   59.8260   29.6530   48.9900 S   0  0  0  0  0  0  0  0  0  0  0  0
   58.5490   30.1910   49.5720 O   0  0  0  0  0  0  0  0  0  0  0  0
   60.0910   28.3120   49.6160 O   0  0  0  0  0  0  0  0  0  0  0  0
   59.6460   29.5100   47.2440 C   0  0  0  0  0  0  0  0  0  0  0  0
   60.7210   29.0650   46.4630 C   0  0  0  0  0  0  0  0  0  0  0  0
   60.5700   28.9080   45.0840 C   0  0  0  0  0  0  0  0  0  0  0  0
   59.3420   29.1840   44.4770 C   0  0  0  0  0  0  0  0  0  0  0  0
   58.2590   29.6200   45.2500 C   0  0  0  0  0  0  0  0  0  0  0  0
   56.7100   29.9680   44.4890 S   0  0  0  0  0  0  0  0  0  0  0  0
   55.5220   28.8530   45.0620 N   0  0  0  0  0  0  0  0  0  0  0  0
   56.8370   29.8410   42.9960 O   0  0  0  0  0  0  0  0  0  0  0  0
   56.2830   31.3720   44.8190 O   0  0  0  0  0  0  0  0  0  0  0  0
   58.4170   29.7940   46.6320 C   0  0  0  0  0  0  0  0  0  0  0  0
   59.0932   31.9893   46.2365 H   0  0  0  0  0  0  0  0  0  0  0  0
   58.1164   32.1283   44.7354 H   0  0  0  0  0  0  0  0  0  0  0  0
   59.8401   32.6339   44.7354 H   0  0  0  0  0  0  0  0  0  0  0  0
   56.4502   34.2764   46.4107 H   0  0  0  0  0  0  0  0  0  0  0  0
   56.8430   35.1317   44.8807 H   0  0  0  0  0  0  0  0  0  0  0  0
   56.6156   33.3498   44.8807 H   0  0  0  0  0  0  0  0  0  0  0  0
   59.8142   35.7349   45.5366 H   0  0  0  0  0  0  0  0  0  0  0  0
   60.0026   34.5027   44.2431 H   0  0  0  0  0  0  0  0  0  0  0  0
   58.5757   35.5939   44.2431 H   0  0  0  0  0  0  0  0  0  0  0  0
   60.8368   34.6004   46.7970 H   0  0  0  0  0  0  0  0  0  0  0  0
   63.2364   34.4639   46.1346 H   0  0  0  0  0  0  0  0  0  0  0  0
   64.6481   32.5701   46.9402 H   0  0  0  0  0  0  0  0  0  0  0  0
   63.6730   30.8327   48.4380 H   0  0  0  0  0  0  0  0  0  0  0  0
   61.6870   28.8386   46.9380 H   0  0  0  0  0  0  0  0  0  0  0  0
   61.4193   28.5664   44.4741 H   0  0  0  0  0  0  0  0  0  0  0  0
   59.2260   29.0586   43.3904 H   0  0  0  0  0  0  0  0  0  0  0  0
   54.6080   29.3570   45.0680 H   0  0  0  0  0  0  0  0  0  0  0  0
   57.5733   30.1548   47.2387 H   0  0  0  0  0  0  0  0  0  0  0  0
  1  2  1  0
  2  3  1  0
  2  4  1  0
  2  5  1  0
  5  6  2  0
  5  7  1  0
  7  8  1  0
  8  9  2  0
  9 10  1  0
 10 11  2  0
 11 12  1  0
 12 13  2  0
 13 14  1  0
 14 15  1  0
 15 16  2  0
 15 17  2  0
 15 18  1  0
 18 19  2  0
 19 20  1  0
 20 21  2  0
 21 22  1  0
 22 23  1  0
 23 24  1  0
 23 25  2  0
 23 26  2  0
 22 27  2  0
 13  8  1  0
 27 18  1  0
  1 28  1  0
  1 29  1  0
  1 30  1  0
  3 31  1  0
  3 32  1  0
  3 33  1  0
  4 34  1  0
  4 35  1  0
  4 36  1  0
  9 37  1  0
 10 38  1  0
 11 39  1  0
 12 40  1  0
 19 41  1  0
 20 42  1  0
 21 43  1  0
 24 44  1  0
 27 45  1  0
M  CHG  2  14  -1  24  -1
M  END
>  <UniqueID>  (59) 
56

>  <SMILES>  (59) 
CC(C)(C)C(=O)Sc1ccccc1[N-]S(=O)(=O)c1cccc(S([NH-])(=O)=O)c1

>  <Energy>  (59) 
38.50611422005493

>  <Genealogy>  (59) 
CC(C)(C)C(=O)Sc1ccccc1[N-]S(=O)(=O)c1cccc(S([NH-])(=O)=O)c1 (protonated)
CC(C)(C)C(=O)Sc1ccccc1[N-]S(=O)(=O)c1cccc(S([NH-])(=O)=O)c1 (3D coordinates assigned)
CC(C)(C)C(=O)Sc1ccccc1[N-]S(=O)(=O)c1cccc(S([NH-])(=O)=O)c1 (optimized conformer: 38.50611422005493 kcal/mol)

>  <smiles>  (59) 
CC(C)(C)C(=O)Sc1ccccc1NS(=O)(=O)c1cccc(S(N)(=O)=O)c1

>  <score_type>  (59) 
oracle

>  <origin>  (59) 
adg

>  <m_score__min__energy>  (59) 
-14

>  <m_primary>  (59) 
energy

$$$$
59:0
     RDKit          3D

 47 49  0  0  0  0  0  0  0  0999 V2000
   59.4710   28.5910   44.6480 C   0  0  0  0  0  0  0  0  0  0  0  0
   59.7790   28.9140   46.0800 C   0  0  0  0  0  0  0  0  0  0  0  0
   60.8050   29.8180   46.3960 C   0  0  0  0  0  0  0  0  0  0  0  0
   61.1150   30.0930   47.7310 C   0  0  0  0  0  0  0  0  0  0  0  0
   60.4210   29.4490   48.7670 C   0  0  0  0  0  0  0  0  0  0  0  0
   60.7200   29.7810   50.2010 C   0  0  0  0  0  0  0  0  0  0  0  0
   60.6930   31.2350   50.3770 N   0  0  0  0  0  0  0  0  0  0  0  0
   59.1180   31.8600   49.9830 S   0  0  0  0  0  0  0  0  0  0  0  0
   58.7450   32.9110   50.9900 O   0  0  0  0  0  0  0  0  0  0  0  0
   58.1170   30.7390   50.0380 O   0  0  0  0  0  0  0  0  0  0  0  0
   59.1370   32.5910   48.3670 C   0  0  0  0  0  0  0  0  0  0  0  0
   58.4850   31.9190   47.3200 C   0  0  0  0  0  0  0  0  0  0  0  0
   58.4300   32.4660   46.0260 C   0  0  0  0  0  0  0  0  0  0  0  0
   57.7010   31.7630   44.9410 C   0  0  0  0  0  0  0  0  0  0  0  0
   57.8610   32.1430   43.6440 N   0  0  0  0  0  0  0  0  0  0  0  0
   57.1980   31.5180   42.6350 C   0  0  0  0  0  0  0  0  0  0  0  0
   57.3940   31.9690   41.2220 C   0  0  0  0  0  0  0  0  0  0  0  0
   56.3250   30.4670   42.9280 C   0  0  0  0  0  0  0  0  0  0  0  0
   56.1680   30.0860   44.2610 C   0  0  0  0  0  0  0  0  0  0  0  0
   55.3900   29.1440   44.5640 O   0  0  0  0  0  0  0  0  0  0  0  0
   56.8550   30.7360   45.2350 N   0  0  0  0  0  0  0  0  0  0  0  0
   59.0650   33.6940   45.7840 C   0  0  0  0  0  0  0  0  0  0  0  0
   59.7420   34.3570   46.8090 C   0  0  0  0  0  0  0  0  0  0  0  0
   59.8000   33.8130   48.1010 C   0  0  0  0  0  0  0  0  0  0  0  0
   60.5350   34.5690   49.1760 C   0  0  0  0  0  0  0  0  0  0  0  0
   59.3990   28.5390   48.4480 C   0  0  0  0  0  0  0  0  0  0  0  0
   59.0890   28.2660   47.1140 C   0  0  0  0  0  0  0  0  0  0  0  0
   58.7124   27.7955   44.6065 H   0  0  0  0  0  0  0  0  0  0  0  0
   59.0874   29.4901   44.1436 H   0  0  0  0  0  0  0  0  0  0  0  0
   60.3873   28.2505   44.1436 H   0  0  0  0  0  0  0  0  0  0  0  0
   61.3674   30.3120   45.5900 H   0  0  0  0  0  0  0  0  0  0  0  0
   61.9069   30.8178   47.9708 H   0  0  0  0  0  0  0  0  0  0  0  0
   59.9629   29.3181   50.8509 H   0  0  0  0  0  0  0  0  0  0  0  0
   61.7150   29.3958   50.4687 H   0  0  0  0  0  0  0  0  0  0  0  0
   60.8670   31.4460   51.3870 H   0  0  0  0  0  0  0  0  0  0  0  0
   58.0087   30.9470   47.5160 H   0  0  0  0  0  0  0  0  0  0  0  0
   57.8324   32.9778   41.2166 H   0  0  0  0  0  0  0  0  0  0  0  0
   58.0706   31.2724   40.7053 H   0  0  0  0  0  0  0  0  0  0  0  0
   56.4231   31.9884   40.7053 H   0  0  0  0  0  0  0  0  0  0  0  0
   55.7746   29.9522   42.1267 H   0  0  0  0  0  0  0  0  0  0  0  0
   59.0289   34.1377   44.7781 H   0  0  0  0  0  0  0  0  0  0  0  0
   60.2360   35.3176   46.6013 H   0  0  0  0  0  0  0  0  0  0  0  0
   60.1979   34.2222   50.1640 H   0  0  0  0  0  0  0  0  0  0  0  0
   61.6160   34.3924   49.0747 H   0  0  0  0  0  0  0  0  0  0  0  0
   60.3281   35.6446   49.0747 H   0  0  0  0  0  0  0  0  0  0  0  0
   58.8403   28.0392   49.2530 H   0  0  0  0  0  0  0  0  0  0  0  0
   58.2995   27.5389   46.8734 H   0  0  0  0  0  0  0  0  0  0  0  0
  1  2  1  0
  2  3  2  0
  3  4  1  0
  4  5  2  0
  5  6  1  0
  6  7  1  0
  7  8  1  0
  8  9  2  0
  8 10  2  0
  8 11  1  0
 11 12  2  0
 12 13  1  0
 13 14  1  0
 14 15  2  0
 15 16  1  0
 16 17  1  0
 16 18  2  0
 18 19  1  0
 19 20  2  0
 19 21  1  0
 13 22  2  0
 22 23  1  0
 23 24  2  0
 24 25  1  0
  5 26  1  0
 26 27  2  0
 27  2  1  0
 24 11  1  0
 21 14  1  0
  1 28  1  0
  1 29  1  0
  1 30  1  0
  3 31  1  0
  4 32  1  0
  6 33  1  0
  6 34  1  0
  7 35  1  0
 12 36  1  0
 17 37  1  0
 17 38  1  0
 17 39  1  0
 18 40  1  0
 22 41  1  0
 23 42  1  0
 25 43  1  0
 25 44  1  0
 25 45  1  0
 26 46  1  0
 27 47  1  0
M  CHG  1  21  -1
M  END
>  <UniqueID>  (60) 
57

>  <SMILES>  (60) 
Cc1ccc(CNS(=O)(=O)c2cc(-c3nc(C)cc(=O)[n-]3)ccc2C)cc1

>  <Energy>  (60) 
47.29151860103188

>  <Genealogy>  (60) 
Cc1ccc(CNS(=O)(=O)c2cc(-c3nc(C)cc(=O)[n-]3)ccc2C)cc1 (protonated)
Cc1ccc(CNS(=O)(=O)c2cc(-c3nc(C)cc(=O)[n-]3)ccc2C)cc1 (3D coordinates assigned)
Cc1ccc(CNS(=O)(=O)c2cc(-c3nc(C)cc(=O)[n-]3)ccc2C)cc1 (optimized conformer: 47.29151860103188 kcal/mol)

>  <smiles>  (60) 
Cc1ccc(CNS(=O)(=O)c2cc(-c3nc(C)cc(=O)[nH]3)ccc2C)cc1

>  <score_type>  (60) 
oracle

>  <origin>  (60) 
adg

>  <m_score__min__energy>  (60) 
-11.99

>  <m_primary>  (60) 
energy

$$$$
60:0
     RDKit          3D

 51 53  0  0  0  0  0  0  0  0999 V2000
   57.3110   21.3760   47.8480 N   0  0  0  0  0  0  0  0  0  0  0  0
   56.4740   22.8240   48.2830 S   0  0  0  0  0  0  0  0  0  0  0  0
   55.3640   22.4750   49.2320 O   0  0  0  0  0  0  0  0  0  0  0  0
   57.4090   23.7870   48.9590 O   0  0  0  0  0  0  0  0  0  0  0  0
   55.7910   23.5590   46.8690 N   0  0  0  0  0  0  0  0  0  0  0  0
   56.4230   24.4930   45.9790 C   0  0  0  0  0  0  0  0  0  0  0  0
   56.7260   25.7650   46.4810 C   0  0  0  0  0  0  0  0  0  0  0  0
   57.3330   26.7280   45.6720 C   0  0  0  0  0  0  0  0  0  0  0  0
   57.6410   26.4350   44.3360 C   0  0  0  0  0  0  0  0  0  0  0  0
   58.3140   27.4590   43.4670 C   0  0  0  0  0  0  0  0  0  0  0  0
   57.3980   28.5620   43.2180 N   0  0  0  0  0  0  0  0  0  0  0  0
   57.3080   29.7000   44.0790 C   0  0  0  0  0  0  0  0  0  0  0  0
   56.3320   29.8160   44.8700 O   0  0  0  0  0  0  0  0  0  0  0  0
   58.3590   30.6760   44.0650 N   0  0  0  0  0  0  0  0  0  0  0  0
   58.3190   31.9220   44.7810 C   0  0  0  0  0  0  0  0  0  0  0  0
   57.8100   33.0620   44.1420 C   0  0  0  0  0  0  0  0  0  0  0  0
   57.7410   34.2810   44.8200 C   0  0  0  0  0  0  0  0  0  0  0  0
   58.1680   34.3720   46.1460 C   0  0  0  0  0  0  0  0  0  0  0  0
   58.6580   33.2370   46.8170 C   0  0  0  0  0  0  0  0  0  0  0  0
   59.0900   33.3310   48.2320 C   0  0  0  0  0  0  0  0  0  0  0  0
   59.3840   34.4520   48.7300 O   0  0  0  0  0  0  0  0  0  0  0  0
   59.1690   32.1500   49.0410 N   0  0  0  0  0  0  0  0  0  0  0  0
   60.3610   31.3190   49.1490 C   0  0  0  0  0  0  0  0  0  0  0  0
   61.5770   32.1060   48.7450 C   0  0  0  0  0  0  0  0  0  0  0  0
   62.1340   31.9270   47.4680 C   0  0  0  0  0  0  0  0  0  0  0  0
   63.2410   32.6850   47.0710 C   0  0  0  0  0  0  0  0  0  0  0  0
   63.7930   33.6290   47.9410 C   0  0  0  0  0  0  0  0  0  0  0  0
   63.2410   33.8180   49.2110 C   0  0  0  0  0  0  0  0  0  0  0  0
   62.1340   33.0610   49.6130 C   0  0  0  0  0  0  0  0  0  0  0  0
   58.7240   32.0120   46.1250 C   0  0  0  0  0  0  0  0  0  0  0  0
   57.3590   25.1580   43.8310 C   0  0  0  0  0  0  0  0  0  0  0  0
   56.7520   24.1900   44.6380 C   0  0  0  0  0  0  0  0  0  0  0  0
   56.5060   22.9740   44.0970 F   0  0  0  0  0  0  0  0  0  0  0  0
   57.7730   21.5560   46.9270 H   0  0  0  0  0  0  0  0  0  0  0  0
   56.4828   26.0085   47.5258 H   0  0  0  0  0  0  0  0  0  0  0  0
   57.5703   27.7198   46.0844 H   0  0  0  0  0  0  0  0  0  0  0  0
   59.2134   27.8370   43.9752 H   0  0  0  0  0  0  0  0  0  0  0  0
   58.5999   26.9970   42.5105 H   0  0  0  0  0  0  0  0  0  0  0  0
   59.2460   30.4170   43.5750 H   0  0  0  0  0  0  0  0  0  0  0  0
   57.4630   32.9956   43.1003 H   0  0  0  0  0  0  0  0  0  0  0  0
   57.3491   35.1720   44.3077 H   0  0  0  0  0  0  0  0  0  0  0  0
   58.1209   35.3381   46.6698 H   0  0  0  0  0  0  0  0  0  0  0  0
   60.4756   30.9805   50.1893 H   0  0  0  0  0  0  0  0  0  0  0  0
   60.2562   30.4502   48.4825 H   0  0  0  0  0  0  0  0  0  0  0  0
   61.6987   31.1889   46.7782 H   0  0  0  0  0  0  0  0  0  0  0  0
   63.6776   32.5376   46.0722 H   0  0  0  0  0  0  0  0  0  0  0  0
   64.6629   34.2240   47.6259 H   0  0  0  0  0  0  0  0  0  0  0  0
   63.6763   34.5616   49.8948 H   0  0  0  0  0  0  0  0  0  0  0  0
   61.6987   33.2141   50.6115 H   0  0  0  0  0  0  0  0  0  0  0  0
   59.0966   31.1152   46.6417 H   0  0  0  0  0  0  0  0  0  0  0  0
   57.6176   24.9148   42.7899 H   0  0  0  0  0  0  0  0  0  0  0  0
  1  2  1  0
  2  3  2  0
  2  4  2  0
  2  5  1  0
  5  6  1  0
  6  7  2  0
  7  8  1  0
  8  9  2  0
  9 10  1  0
 10 11  1  0
 11 12  1  0
 12 13  2  0
 12 14  1  0
 14 15  1  0
 15 16  2  0
 16 17  1  0
 17 18  2  0
 18 19  1  0
 19 20  1  0
 20 21  2  0
 20 22  1  0
 22 23  1  0
 23 24  1  0
 24 25  2  0
 25 26  1  0
 26 27  2  0
 27 28  1  0
 28 29  2  0
 19 30  2  0
  9 31  1  0
 31 32  2  0
 32 33  1  0
 32  6  1  0
 30 15  1  0
 29 24  1  0
  1 34  1  0
  7 35  1  0
  8 36  1  0
 10 37  1  0
 10 38  1  0
 14 39  1  0
 16 40  1  0
 17 41  1  0
 18 42  1  0
 23 43  1  0
 23 44  1  0
 25 45  1  0
 26 46  1  0
 27 47  1  0
 28 48  1  0
 29 49  1  0
 30 50  1  0
 31 51  1  0
M  CHG  4   1  -1   5  -1  11  -1  22  -1
M  END
>  <UniqueID>  (61) 
58

>  <SMILES>  (61) 
[NH-]S(=O)(=O)[N-]c1ccc(C[N-]C(=O)Nc2cccc(C(=O)[N-]Cc3ccccc3)c2)cc1F

>  <Energy>  (61) 
56.09257718700558

>  <Genealogy>  (61) 
[NH-]S(=O)(=O)[N-]c1ccc(C[N-]C(=O)Nc2cccc(C(=O)[N-]Cc3ccccc3)c2)cc1F (protonated)
[NH-]S(=O)(=O)[N-]c1ccc(C[N-]C(=O)Nc2cccc(C(=O)[N-]Cc3ccccc3)c2)cc1F (3D coordinates assigned)
[NH-]S(=O)(=O)[N-]c1ccc(C[N-]C(=O)Nc2cccc(C(=O)[N-]Cc3ccccc3)c2)cc1F (optimized conformer: 56.09257718700558 kcal/mol)

>  <smiles>  (61) 
NS(=O)(=O)Nc1ccc(CNC(=O)Nc2cccc(C(=O)NCc3ccccc3)c2)cc1F

>  <score_type>  (61) 
oracle

>  <origin>  (61) 
adg

>  <m_score__min__energy>  (61) 
-16.18

>  <m_primary>  (61) 
energy

$$$$
61:0
     RDKit          3D

 61 64  0  0  0  0  0  0  0  0999 V2000
   56.6320   29.9060   42.6150 C   0  0  0  0  0  0  0  0  0  0  0  0
   56.5540   29.5150   44.3510 S   0  0  0  0  0  0  0  0  0  0  0  0
   55.1320   29.6660   44.8090 O   0  0  0  0  0  0  0  0  0  0  0  0
   57.4250   30.4570   45.1360 O   0  0  0  0  0  0  0  0  0  0  0  0
   57.0620   27.8790   44.6180 N   0  0  0  0  0  0  0  0  0  0  0  0
   57.8510   27.4790   45.7520 C   0  0  0  0  0  0  0  0  0  0  0  0
   58.6300   28.4200   46.4470 C   0  0  0  0  0  0  0  0  0  0  0  0
   59.3550   28.0460   47.5860 C   0  0  0  0  0  0  0  0  0  0  0  0
   60.3170   29.2360   48.4590 S   0  0  0  0  0  0  0  0  0  0  0  0
   60.9890   28.5650   49.6250 O   0  0  0  0  0  0  0  0  0  0  0  0
   59.4080   30.3120   48.9870 O   0  0  0  0  0  0  0  0  0  0  0  0
   61.5330   29.9620   47.4570 N   0  0  0  0  0  0  0  0  0  0  0  0
   62.0210   31.2960   47.6270 C   0  0  0  0  0  0  0  0  0  0  0  0
   63.3710   31.6110   47.4090 C   0  0  0  0  0  0  0  0  0  0  0  0
   63.8240   32.9190   47.5930 C   0  0  0  0  0  0  0  0  0  0  0  0
   62.9410   33.9150   48.0190 C   0  0  0  0  0  0  0  0  0  0  0  0
   61.5990   33.6080   48.2770 C   0  0  0  0  0  0  0  0  0  0  0  0
   60.7520   34.6340   48.7200 O   0  0  0  0  0  0  0  0  0  0  0  0
   59.3280   34.5850   48.6620 C   0  0  0  0  0  0  0  0  0  0  0  0
   58.8970   34.3010   47.2540 C   0  0  0  0  0  0  0  0  0  0  0  0
   57.7860   33.4770   47.0080 C   0  0  0  0  0  0  0  0  0  0  0  0
   57.3660   33.2330   45.6960 C   0  0  0  0  0  0  0  0  0  0  0  0
   58.0470   33.8180   44.6220 C   0  0  0  0  0  0  0  0  0  0  0  0
   59.1450   34.6500   44.8600 C   0  0  0  0  0  0  0  0  0  0  0  0
   59.5670   34.8980   46.1710 C   0  0  0  0  0  0  0  0  0  0  0  0
   61.1460   32.2870   48.0880 C   0  0  0  0  0  0  0  0  0  0  0  0
   59.2880   26.7260   48.0470 C   0  0  0  0  0  0  0  0  0  0  0  0
   58.5180   25.7840   47.3660 C   0  0  0  0  0  0  0  0  0  0  0  0
   57.8060   26.1460   46.2160 C   0  0  0  0  0  0  0  0  0  0  0  0
   57.0840   25.1340   45.4990 N   0  0  0  0  0  0  0  0  0  0  0  0
   55.8540   24.5740   46.0610 C   0  0  0  0  0  0  0  0  0  0  0  0
   54.9230   24.1490   44.9210 C   0  0  0  0  0  0  0  0  0  0  0  0
   55.6010   23.3070   44.0060 O   0  0  0  0  0  0  0  0  0  0  0  0
   56.6320   24.0330   43.3600 C   0  0  0  0  0  0  0  0  0  0  0  0
   57.7100   24.4600   44.3630 C   0  0  0  0  0  0  0  0  0  0  0  0
   56.8458   30.9777   42.4898 H   0  0  0  0  0  0  0  0  0  0  0  0
   57.4300   29.3152   42.1416 H   0  0  0  0  0  0  0  0  0  0  0  0
   55.6684   29.6666   42.1416 H   0  0  0  0  0  0  0  0  0  0  0  0
   56.8550   27.1870   43.8650 H   0  0  0  0  0  0  0  0  0  0  0  0
   58.6709   29.4607   46.0931 H   0  0  0  0  0  0  0  0  0  0  0  0
   64.0737   30.8261   47.0926 H   0  0  0  0  0  0  0  0  0  0  0  0
   64.8788   33.1661   47.4021 H   0  0  0  0  0  0  0  0  0  0  0  0
   63.3019   34.9455   48.1524 H   0  0  0  0  0  0  0  0  0  0  0  0
   58.9607   33.7887   49.3261 H   0  0  0  0  0  0  0  0  0  0  0  0
   58.9133   35.5510   48.9857 H   0  0  0  0  0  0  0  0  0  0  0  0
   57.2442   33.0219   47.8503 H   0  0  0  0  0  0  0  0  0  0  0  0
   56.5001   32.5811   45.5083 H   0  0  0  0  0  0  0  0  0  0  0  0
   57.7182   33.6230   43.5906 H   0  0  0  0  0  0  0  0  0  0  0  0
   59.6782   35.1105   44.0152 H   0  0  0  0  0  0  0  0  0  0  0  0
   60.4249   35.5615   46.3550 H   0  0  0  0  0  0  0  0  0  0  0  0
   60.0978   32.0328   48.3041 H   0  0  0  0  0  0  0  0  0  0  0  0
   59.8443   26.4311   48.9490 H   0  0  0  0  0  0  0  0  0  0  0  0
   58.4695   24.7488   47.7349 H   0  0  0  0  0  0  0  0  0  0  0  0
   56.0986   23.6989   46.6810 H   0  0  0  0  0  0  0  0  0  0  0  0
   55.3540   25.3325   46.6812 H   0  0  0  0  0  0  0  0  0  0  0  0
   54.0628   23.6069   45.3408 H   0  0  0  0  0  0  0  0  0  0  0  0
   54.5845   25.0495   44.3876 H   0  0  0  0  0  0  0  0  0  0  0  0
   57.0900   23.3982   42.5872 H   0  0  0  0  0  0  0  0  0  0  0  0
   56.1960   24.9354   42.9065 H   0  0  0  0  0  0  0  0  0  0  0  0
   58.2522   23.5712   44.7181 H   0  0  0  0  0  0  0  0  0  0  0  0
   58.4132   25.1488   43.8720 H   0  0  0  0  0  0  0  0  0  0  0  0
  1  2  1  0
  2  3  2  0
  2  4  2  0
  2  5  1  0
  5  6  1  0
  6  7  2  0
  7  8  1  0
  8  9  1  0
  9 10  2  0
  9 11  2  0
  9 12  1  0
 12 13  1  0
 13 14  2  0
 14 15  1  0
 15 16  2  0
 16 17  1  0
 17 18  1  0
 18 19  1  0
 19 20  1  0
 20 21  2  0
 21 22  1  0
 22 23  2  0
 23 24  1  0
 24 25  2  0
 17 26  2  0
  8 27  2  0
 27 28  1  0
 28 29  2  0
 29 30  1  0
 30 31  1  0
 31 32  1  0
 32 33  1  0
 33 34  1  0
 34 35  1  0
 29  6  1  0
 35 30  1  0
 26 13  1  0
 25 20  1  0
  1 36  1  0
  1 37  1  0
  1 38  1  0
  5 39  1  0
  7 40  1  0
 14 41  1  0
 15 42  1  0
 16 43  1  0
 19 44  1  0
 19 45  1  0
 21 46  1  0
 22 47  1  0
 23 48  1  0
 24 49  1  0
 25 50  1  0
 26 51  1  0
 27 52  1  0
 28 53  1  0
 31 54  1  0
 31 55  1  0
 32 56  1  0
 32 57  1  0
 34 58  1  0
 34 59  1  0
 35 60  1  0
 35 61  1  0
M  CHG  1  12  -1
M  END
>  <UniqueID>  (62) 
59

>  <SMILES>  (62) 
CS(=O)(=O)Nc1cc(S(=O)(=O)[N-]c2cccc(OCc3ccccc3)c2)ccc1N1CCOCC1

>  <Energy>  (62) 
77.55125775499292

>  <Genealogy>  (62) 
CS(=O)(=O)Nc1cc(S(=O)(=O)[N-]c2cccc(OCc3ccccc3)c2)ccc1N1CCOCC1 (protonated)
CS(=O)(=O)Nc1cc(S(=O)(=O)[N-]c2cccc(OCc3ccccc3)c2)ccc1N1CCOCC1 (3D coordinates assigned)
CS(=O)(=O)Nc1cc(S(=O)(=O)[N-]c2cccc(OCc3ccccc3)c2)ccc1N1CCOCC1 (nonaromatic ring conformer: 77.55125775499292 kcal/mol)

>  <smiles>  (62) 
CS(=O)(=O)Nc1cc(S(=O)(=O)Nc2cccc(OCc3ccccc3)c2)ccc1N1CCOCC1

>  <score_type>  (62) 
oracle

>  <origin>  (62) 
adg

>  <m_score__min__energy>  (62) 
-11.1

>  <m_primary>  (62) 
energy

$$$$
62:0
     RDKit          3D

 48 50  0  0  0  0  0  0  0  0999 V2000
   56.9110   29.1650   42.9190 N   0  0  0  0  0  0  0  0  0  0  0  0
   56.6890   29.7470   44.5320 S   0  0  0  0  0  0  0  0  0  0  0  0
   56.4550   31.2320   44.4980 O   0  0  0  0  0  0  0  0  0  0  0  0
   55.4910   29.0820   45.1520 O   0  0  0  0  0  0  0  0  0  0  0  0
   58.1230   29.3810   45.4860 C   0  0  0  0  0  0  0  0  0  0  0  0
   58.4900   28.0490   45.7110 C   0  0  0  0  0  0  0  0  0  0  0  0
   59.6210   27.7520   46.4740 C   0  0  0  0  0  0  0  0  0  0  0  0
   60.3910   28.7830   47.0170 C   0  0  0  0  0  0  0  0  0  0  0  0
   60.0350   30.1210   46.7940 C   0  0  0  0  0  0  0  0  0  0  0  0
   60.9650   31.4310   47.5170 S   0  0  0  0  0  0  0  0  0  0  0  0
   61.3410   32.4070   46.4370 O   0  0  0  0  0  0  0  0  0  0  0  0
   62.2270   30.8980   48.1350 O   0  0  0  0  0  0  0  0  0  0  0  0
   60.0280   32.2230   48.7520 N   0  0  0  0  0  0  0  0  0  0  0  0
   59.7410   33.6570   48.6310 C   0  0  0  0  0  0  0  0  0  0  0  0
   59.0320   33.9460   47.3340 C   0  0  0  0  0  0  0  0  0  0  0  0
   59.6610   34.7200   46.3450 C   0  0  0  0  0  0  0  0  0  0  0  0
   59.0180   34.9640   45.1270 C   0  0  0  0  0  0  0  0  0  0  0  0
   57.7430   34.4440   44.8910 C   0  0  0  0  0  0  0  0  0  0  0  0
   57.1050   33.6820   45.8750 C   0  0  0  0  0  0  0  0  0  0  0  0
   57.7450   33.4360   47.0940 C   0  0  0  0  0  0  0  0  0  0  0  0
   59.4910   31.4590   49.8460 C   0  0  0  0  0  0  0  0  0  0  0  0
   60.1200   30.2780   50.2610 C   0  0  0  0  0  0  0  0  0  0  0  0
   59.6040   29.5440   51.3310 C   0  0  0  0  0  0  0  0  0  0  0  0
   58.4510   29.9800   51.9900 C   0  0  0  0  0  0  0  0  0  0  0  0
   57.7910   31.1470   51.5720 C   0  0  0  0  0  0  0  0  0  0  0  0
   56.5720   31.6340   52.3150 C   0  0  0  0  0  0  0  0  0  0  0  0
   56.5940   31.1290   53.6020 F   0  0  0  0  0  0  0  0  0  0  0  0
   55.4180   31.2060   51.6820 F   0  0  0  0  0  0  0  0  0  0  0  0
   56.5470   33.0170   52.3730 F   0  0  0  0  0  0  0  0  0  0  0  0
   58.3320   31.8940   50.5090 C   0  0  0  0  0  0  0  0  0  0  0  0
   58.9050   30.4150   46.0190 C   0  0  0  0  0  0  0  0  0  0  0  0
   56.7680   28.1310   42.9430 H   0  0  0  0  0  0  0  0  0  0  0  0
   57.9130   29.3280   42.6710 H   0  0  0  0  0  0  0  0  0  0  0  0
   57.8858   27.2342   45.2856 H   0  0  0  0  0  0  0  0  0  0  0  0
   59.9062   26.7039   46.6478 H   0  0  0  0  0  0  0  0  0  0  0  0
   61.2789   28.5449   47.6211 H   0  0  0  0  0  0  0  0  0  0  0  0
   59.1025   33.9703   49.4701 H   0  0  0  0  0  0  0  0  0  0  0  0
   60.6904   34.2123   48.6486 H   0  0  0  0  0  0  0  0  0  0  0  0
   60.6627   35.1357   46.5289 H   0  0  0  0  0  0  0  0  0  0  0  0
   59.5171   35.5664   44.3536 H   0  0  0  0  0  0  0  0  0  0  0  0
   57.2408   34.6340   43.9310 H   0  0  0  0  0  0  0  0  0  0  0  0
   56.0995   33.2760   45.6901 H   0  0  0  0  0  0  0  0  0  0  0  0
   57.2386   32.8407   47.8681 H   0  0  0  0  0  0  0  0  0  0  0  0
   61.0242   29.9274   49.7418 H   0  0  0  0  0  0  0  0  0  0  0  0
   60.1060   28.6207   51.6560 H   0  0  0  0  0  0  0  0  0  0  0  0
   58.0580   29.4053   52.8416 H   0  0  0  0  0  0  0  0  0  0  0  0
   57.8424   32.8275   50.1945 H   0  0  0  0  0  0  0  0  0  0  0  0
   58.6302   31.4629   45.8279 H   0  0  0  0  0  0  0  0  0  0  0  0
  1  2  1  0
  2  3  2  0
  2  4  2  0
  2  5  1  0
  5  6  2  0
  6  7  1  0
  7  8  2  0
  8  9  1  0
  9 10  1  0
 10 11  2  0
 10 12  2  0
 10 13  1  0
 13 14  1  0
 14 15  1  0
 15 16  2  0
 16 17  1  0
 17 18  2  0
 18 19  1  0
 19 20  2  0
 13 21  1  0
 21 22  2  0
 22 23  1  0
 23 24  2  0
 24 25  1  0
 25 26  1  0
 26 27  1  0
 26 28  1  0
 26 29  1  0
 25 30  2  0
  9 31  2  0
 31  5  1  0
 20 15  1  0
 30 21  1  0
  1 32  1  0
  1 33  1  0
  6 34  1  0
  7 35  1  0
  8 36  1  0
 14 37  1  0
 14 38  1  0
 16 39  1  0
 17 40  1  0
 18 41  1  0
 19 42  1  0
 20 43  1  0
 22 44  1  0
 23 45  1  0
 24 46  1  0
 30 47  1  0
 31 48  1  0
M  END
>  <UniqueID>  (63) 
60

>  <SMILES>  (63) 
NS(=O)(=O)c1cccc(S(=O)(=O)N(Cc2ccccc2)c2cccc(C(F)(F)F)c2)c1

>  <Energy>  (63) 
50.130894345537016

>  <Genealogy>  (63) 
NS(=O)(=O)c1cccc(S(=O)(=O)N(Cc2ccccc2)c2cccc(C(F)(F)F)c2)c1 (3D coordinates assigned)
NS(=O)(=O)c1cccc(S(=O)(=O)N(Cc2ccccc2)c2cccc(C(F)(F)F)c2)c1 (optimized conformer: 50.130894345537016 kcal/mol)

>  <smiles>  (63) 
NS(=O)(=O)c1cccc(S(=O)(=O)N(Cc2ccccc2)c2cccc(C(F)(F)F)c2)c1

>  <score_type>  (63) 
oracle

>  <origin>  (63) 
adg

>  <m_score__min__energy>  (63) 
-10.4

>  <m_primary>  (63) 
energy

$$$$
63:0
     RDKit          3D

 38 40  0  0  0  0  0  0  0  0999 V2000
   55.1440   28.0130   44.9930 H   0  0  0  0  0  0  0  0  0  0  0  0
   55.1510   29.0200   44.8770 O   0  0  0  0  0  0  0  0  0  0  0  0
   56.3210   29.7110   44.5620 C   0  0  0  0  0  0  0  0  0  0  0  0
   56.2770   30.7870   43.6630 C   0  0  0  0  0  0  0  0  0  0  0  0
   55.3289   31.0531   43.1728 H   0  0  0  0  0  0  0  0  0  0  0  0
   57.4330   31.5220   43.3880 C   0  0  0  0  0  0  0  0  0  0  0  0
   57.3949   32.3605   42.6771 H   0  0  0  0  0  0  0  0  0  0  0  0
   58.6370   31.1930   44.0150 C   0  0  0  0  0  0  0  0  0  0  0  0
   59.5434   31.7806   43.8072 H   0  0  0  0  0  0  0  0  0  0  0  0
   58.6910   30.1180   44.9060 C   0  0  0  0  0  0  0  0  0  0  0  0
   59.6379   29.8715   45.4087 H   0  0  0  0  0  0  0  0  0  0  0  0
   57.5460   29.3520   45.1630 C   0  0  0  0  0  0  0  0  0  0  0  0
   57.6410   28.2610   46.0950 N   0  0  0  0  0  0  0  0  0  0  0  0
   57.1970   27.0560   45.8960 C   0  0  0  0  0  0  0  0  0  0  0  0
   58.0510   26.0090   45.7360 N   0  0  0  0  0  0  0  0  0  0  0  0
   57.5700   24.7560   45.5470 C   0  0  0  0  0  0  0  0  0  0  0  0
   58.4690   23.6650   45.3730 N   0  0  0  0  0  0  0  0  0  0  0  0
   59.8950   23.3840   45.6030 C   0  0  0  0  0  0  0  0  0  0  0  0
   60.5567   24.0308   45.0082 H   0  0  0  0  0  0  0  0  0  0  0  0
   60.2798   23.5446   46.6209 H   0  0  0  0  0  0  0  0  0  0  0  0
   59.8610   21.9770   45.1020 C   0  0  0  0  0  0  0  0  0  0  0  0
   60.4531   21.7811   44.1959 H   0  0  0  0  0  0  0  0  0  0  0  0
   60.2248   21.1116   45.6753 H   0  0  0  0  0  0  0  0  0  0  0  0
   58.4160   22.2800   44.8750 C   0  0  0  0  0  0  0  0  0  0  0  0
   58.1309   22.2204   43.8143 H   0  0  0  0  0  0  0  0  0  0  0  0
   57.6826   21.6064   45.3424 H   0  0  0  0  0  0  0  0  0  0  0  0
   56.2320   24.5420   45.5280 N   0  0  0  0  0  0  0  0  0  0  0  0
   55.3700   25.5800   45.7020 C   0  0  0  0  0  0  0  0  0  0  0  0
   54.0840   25.3890   45.6930 N   0  0  0  0  0  0  0  0  0  0  0  0
   53.4150   24.2560   45.0580 C   0  0  0  0  0  0  0  0  0  0  0  0
   53.7695   24.1607   44.0210 H   0  0  0  0  0  0  0  0  0  0  0  0
   52.3289   24.4297   45.0722 H   0  0  0  0  0  0  0  0  0  0  0  0
   53.7150   22.9840   45.8030 C   0  0  0  0  0  0  0  0  0  0  0  0
   53.7620   22.0372   45.2450 H   0  0  0  0  0  0  0  0  0  0  0  0
   53.9260   22.9700   47.1220 C   0  0  0  0  0  0  0  0  0  0  0  0
   54.1429   22.0210   47.6343 H   0  0  0  0  0  0  0  0  0  0  0  0
   53.8828   23.9074   47.6959 H   0  0  0  0  0  0  0  0  0  0  0  0
   55.8580   26.8330   45.8880 N   0  0  0  0  0  0  0  0  0  0  0  0
  1  2  1  0
  2  3  1  0
  3  4  2  0
  4  5  1  0
  4  6  1  0
  6  7  1  0
  6  8  2  0
  8  9  1  0
  8 10  1  0
 10 11  1  0
 10 12  2  0
 12 13  1  0
 13 14  2  0
 14 15  1  0
 15 16  2  0
 16 17  1  0
 17 18  1  0
 18 19  1  0
 18 20  1  0
 18 21  1  0
 21 22  1  0
 21 23  1  0
 21 24  1  0
 24 25  1  0
 24 26  1  0
 16 27  1  0
 27 28  1  0
 28 29  2  0
 29 30  1  0
 30 31  1  0
 30 32  1  0
 30 33  1  0
 33 34  1  0
 33 35  2  0
 35 36  1  0
 35 37  1  0
 28 38  1  0
 12  3  1  0
 38 14  1  0
 24 17  1  0
M  CHG  2  27  -1  38  -1
M  END
>  <UniqueID>  (64) 
61

>  <SMILES>  (64) 
C=CC/N=c1\[n-]c(N2CCC2)n/c(=N\c2ccccc2O)[n-]1

>  <Energy>  (64) 
86.5417036262167

>  <Genealogy>  (64) 
C=CCN=c1[n-]c(N2CCC2)nc(=Nc2ccccc2O)[n-]1 (protonated)
C=CC/N=c1\[n-]c(N2CCC2)n/c(=N\c2ccccc2O)[n-]1 (cis-trans isomerization)
C=CC/N=c1\[n-]c(N2CCC2)n/c(=N\c2ccccc2O)[n-]1 (3D coordinates assigned)
C=CC/N=c1\[n-]c(N2CCC2)n/c(=N\c2ccccc2O)[n-]1 (nonaromatic ring conformer: 86.5417036262167 kcal/mol)

>  <smiles>  (64) 
C=CCN=c1[nH]c(N2CCC2)nc(=Nc2ccccc2O)[nH]1

>  <score_type>  (64) 
oracle

>  <origin>  (64) 
adg

>  <m_score__min__energy>  (64) 
-10.390000000000001

>  <m_primary>  (64) 
energy

$$$$
64:0
     RDKit          3D

 36 38  0  0  0  0  0  0  0  0999 V2000
   57.5470   32.3390   41.4570 C   0  0  0  0  0  0  0  0  0  0  0  0
   57.6290   32.0530   42.9350 C   0  0  0  0  0  0  0  0  0  0  0  0
   58.2340   33.0030   43.7730 C   0  0  0  0  0  0  0  0  0  0  0  0
   58.3180   32.7880   45.1460 C   0  0  0  0  0  0  0  0  0  0  0  0
   57.7950   31.6270   45.7060 C   0  0  0  0  0  0  0  0  0  0  0  0
   57.2020   30.6450   44.8930 C   0  0  0  0  0  0  0  0  0  0  0  0
   56.6130   29.4790   45.5000 N   0  0  0  0  0  0  0  0  0  0  0  0
   57.2570   28.1940   45.5540 C   0  0  0  0  0  0  0  0  0  0  0  0
   58.6500   28.1280   45.4260 C   0  0  0  0  0  0  0  0  0  0  0  0
   59.3130   26.9010   45.4730 C   0  0  0  0  0  0  0  0  0  0  0  0
   58.5910   25.7160   45.6650 C   0  0  0  0  0  0  0  0  0  0  0  0
   59.2540   24.4800   45.7080 C   0  0  0  0  0  0  0  0  0  0  0  0
   58.5320   23.3010   45.9070 C   0  0  0  0  0  0  0  0  0  0  0  0
   57.1450   23.3460   46.0660 C   0  0  0  0  0  0  0  0  0  0  0  0
   56.4710   24.5700   46.0250 C   0  0  0  0  0  0  0  0  0  0  0  0
   57.1830   25.7670   45.8220 C   0  0  0  0  0  0  0  0  0  0  0  0
   56.5220   27.0110   45.7790 C   0  0  0  0  0  0  0  0  0  0  0  0
   55.1460   27.0760   45.9840 O   0  0  0  0  0  0  0  0  0  0  0  0
   57.1390   30.8410   43.4910 C   0  0  0  0  0  0  0  0  0  0  0  0
   56.5180   29.7800   42.6100 C   0  0  0  0  0  0  0  0  0  0  0  0
   57.2468   33.3859   41.3022 H   0  0  0  0  0  0  0  0  0  0  0  0
   58.5305   32.1674   40.9952 H   0  0  0  0  0  0  0  0  0  0  0  0
   56.8038   31.6724   40.9952 H   0  0  0  0  0  0  0  0  0  0  0  0
   58.6459   33.9267   43.3404 H   0  0  0  0  0  0  0  0  0  0  0  0
   58.7995   33.5386   45.7900 H   0  0  0  0  0  0  0  0  0  0  0  0
   57.8458   31.4759   46.7944 H   0  0  0  0  0  0  0  0  0  0  0  0
   55.7290   29.6040   46.0440 H   0  0  0  0  0  0  0  0  0  0  0  0
   59.2279   29.0536   45.2869 H   0  0  0  0  0  0  0  0  0  0  0  0
   60.4064   26.8642   45.3589 H   0  0  0  0  0  0  0  0  0  0  0  0
   60.3463   24.4395   45.5845 H   0  0  0  0  0  0  0  0  0  0  0  0
   59.0569   22.3348   45.9386 H   0  0  0  0  0  0  0  0  0  0  0  0
   56.5810   22.4149   46.2241 H   0  0  0  0  0  0  0  0  0  0  0  0
   55.3787   24.5978   46.1520 H   0  0  0  0  0  0  0  0  0  0  0  0
   56.0623   29.0014   43.2394 H   0  0  0  0  0  0  0  0  0  0  0  0
   55.7449   30.2371   41.9749 H   0  0  0  0  0  0  0  0  0  0  0  0
   57.2952   29.3298   41.9749 H   0  0  0  0  0  0  0  0  0  0  0  0
  1  2  1  0
  2  3  2  0
  3  4  1  0
  4  5  2  0
  5  6  1  0
  6  7  1  0
  7  8  1  0
  8  9  2  0
  9 10  1  0
 10 11  2  0
 11 12  1  0
 12 13  2  0
 13 14  1  0
 14 15  2  0
 15 16  1  0
 16 17  2  0
 17 18  1  0
  6 19  2  0
 19 20  1  0
 19  2  1  0
 17  8  1  0
 16 11  1  0
  1 21  1  0
  1 22  1  0
  1 23  1  0
  3 24  1  0
  4 25  1  0
  5 26  1  0
  7 27  1  0
  9 28  1  0
 10 29  1  0
 12 30  1  0
 13 31  1  0
 14 32  1  0
 15 33  1  0
 20 34  1  0
 20 35  1  0
 20 36  1  0
M  CHG  1  18  -1
M  END
>  <UniqueID>  (65) 
62

>  <SMILES>  (65) 
Cc1cccc(Nc2ccc3ccccc3c2[O-])c1C

>  <Energy>  (65) 
51.828085535301774

>  <Genealogy>  (65) 
Cc1cccc(Nc2ccc3ccccc3c2[O-])c1C (protonated)
Cc1cccc(Nc2ccc3ccccc3c2[O-])c1C (3D coordinates assigned)
Cc1cccc(Nc2ccc3ccccc3c2[O-])c1C (optimized conformer: 51.828085535301774 kcal/mol)

>  <smiles>  (65) 
Cc1cccc(Nc2ccc3ccccc3c2O)c1C

>  <score_type>  (65) 
oracle

>  <origin>  (65) 
adg

>  <m_score__min__energy>  (65) 
-11.56

>  <m_primary>  (65) 
energy

$$$$
65:0
     RDKit          3D

 38 40  0  0  0  0  0  0  0  0999 V2000
   58.9229   35.8143   44.1741 H   0  0  0  0  0  0  0  0  0  0  0  0
   58.7820   34.9800   44.8770 C   0  0  0  0  0  0  0  0  0  0  0  0
   59.6050   34.8690   46.0000 C   0  0  0  0  0  0  0  0  0  0  0  0
   60.4022   35.6074   46.1710 H   0  0  0  0  0  0  0  0  0  0  0  0
   59.4180   33.8210   46.9080 C   0  0  0  0  0  0  0  0  0  0  0  0
   60.3110   33.6960   48.0260 N   0  0  0  0  0  0  0  0  0  0  0  0
   61.6100   33.5500   47.9990 C   0  0  0  0  0  0  0  0  0  0  0  0
   62.3080   33.3190   46.7970 C   0  0  0  0  0  0  0  0  0  0  0  0
   61.7586   33.2593   45.8459 H   0  0  0  0  0  0  0  0  0  0  0  0
   63.6930   33.1660   46.8110 C   0  0  0  0  0  0  0  0  0  0  0  0
   64.2333   32.9986   45.8675 H   0  0  0  0  0  0  0  0  0  0  0  0
   64.3810   33.2220   47.9810 N   0  0  0  0  0  0  0  0  0  0  0  0
   65.4190   33.1020   47.9490 H   0  0  0  0  0  0  0  0  0  0  0  0
   63.7490   33.4190   49.1720 C   0  0  0  0  0  0  0  0  0  0  0  0
   64.4890   33.4590   50.3630 C   0  0  0  0  0  0  0  0  0  0  0  0
   65.5812   33.3322   50.3309 H   0  0  0  0  0  0  0  0  0  0  0  0
   63.8490   33.6590   51.5930 C   0  0  0  0  0  0  0  0  0  0  0  0
   64.6110   33.6980   52.8020 N   0  0  0  0  0  0  0  0  0  0  0  0
   64.4890   34.4780   53.4870 H   0  0  0  0  0  0  0  0  0  0  0  0
   65.3030   32.9480   53.0230 H   0  0  0  0  0  0  0  0  0  0  0  0
   62.4590   33.8220   51.6320 C   0  0  0  0  0  0  0  0  0  0  0  0
   61.9542   33.9802   52.5964 H   0  0  0  0  0  0  0  0  0  0  0  0
   61.7090   33.7850   50.4540 C   0  0  0  0  0  0  0  0  0  0  0  0
   60.6175   33.9145   50.4977 H   0  0  0  0  0  0  0  0  0  0  0  0
   62.3400   33.5830   49.2100 C   0  0  0  0  0  0  0  0  0  0  0  0
   58.4360   32.8480   46.6500 C   0  0  0  0  0  0  0  0  0  0  0  0
   58.3217   31.9929   47.3324 H   0  0  0  0  0  0  0  0  0  0  0  0
   57.5980   32.9610   45.5240 C   0  0  0  0  0  0  0  0  0  0  0  0
   56.5870   32.0340   45.2320 O   0  0  0  0  0  0  0  0  0  0  0  0
   56.8060   30.5640   44.3830 S   0  0  0  0  0  0  0  0  0  0  0  0
   55.7910   29.5690   44.8710 O   0  0  0  0  0  0  0  0  0  0  0  0
   56.6010   30.7830   42.9100 O   0  0  0  0  0  0  0  0  0  0  0  0
   58.4350   29.9120   44.6830 C   0  0  0  0  0  0  0  0  0  0  0  0
   58.6083   29.8426   45.7670 H   0  0  0  0  0  0  0  0  0  0  0  0
   58.5179   28.9114   44.2337 H   0  0  0  0  0  0  0  0  0  0  0  0
   59.1854   30.5791   44.2337 H   0  0  0  0  0  0  0  0  0  0  0  0
   57.7810   34.0350   44.6440 C   0  0  0  0  0  0  0  0  0  0  0  0
   57.1309   34.1348   43.7623 H   0  0  0  0  0  0  0  0  0  0  0  0
  1  2  1  0
  2  3  2  0
  3  4  1  0
  3  5  1  0
  5  6  1  0
  6  7  2  0
  7  8  1  0
  8  9  1  0
  8 10  2  0
 10 11  1  0
 10 12  1  0
 12 13  1  0
 12 14  1  0
 14 15  2  0
 15 16  1  0
 15 17  1  0
 17 18  1  0
 18 19  1  0
 18 20  1  0
 17 21  2  0
 21 22  1  0
 21 23  1  0
 23 24  1  0
 23 25  2  0
  5 26  2  0
 26 27  1  0
 26 28  1  0
 28 29  1  0
 29 30  1  0
 30 31  2  0
 30 32  2  0
 30 33  1  0
 33 34  1  0
 33 35  1  0
 33 36  1  0
 28 37  2  0
 37 38  1  0
 37  2  1  0
 25  7  1  0
 25 14  1  0
M  END
>  <UniqueID>  (66) 
63

>  <SMILES>  (66) 
CS(=O)(=O)Oc1cccc(/N=c2\cc[nH]c3cc(N)ccc23)c1

>  <Energy>  (66) 
49.2817656864339

>  <Genealogy>  (66) 
CS(=O)(=O)Oc1cccc(/N=c2\cc[nH]c3cc(N)ccc23)c1 (cis-trans isomerization)
CS(=O)(=O)Oc1cccc(/N=c2\cc[nH]c3cc(N)ccc23)c1 (3D coordinates assigned)
CS(=O)(=O)Oc1cccc(/N=c2\cc[nH]c3cc(N)ccc23)c1 (optimized conformer: 49.2817656864339 kcal/mol)

>  <smiles>  (66) 
CS(=O)(=O)Oc1cccc(N=c2cc[nH]c3cc(N)ccc23)c1

>  <score_type>  (66) 
oracle

>  <origin>  (66) 
adg

>  <m_score__min__energy>  (66) 
-8.2599999999999998

>  <m_primary>  (66) 
energy

$$$$
66:0
     RDKit          3D

 59 62  0  0  0  0  0  0  0  0999 V2000
   57.3900   28.4470   43.3580 C   0  0  0  0  0  0  0  0  0  0  0  0
   57.1220   29.7990   43.0040 O   0  0  0  0  0  0  0  0  0  0  0  0
   57.4380   30.9060   43.8070 C   0  0  0  0  0  0  0  0  0  0  0  0
   57.7250   32.1730   43.2670 C   0  0  0  0  0  0  0  0  0  0  0  0
   58.0260   33.2470   44.1110 C   0  0  0  0  0  0  0  0  0  0  0  0
   58.0510   33.0730   45.5030 C   0  0  0  0  0  0  0  0  0  0  0  0
   58.3650   34.2280   46.4160 C   0  0  0  0  0  0  0  0  0  0  0  0
   59.8330   34.2840   46.7490 C   0  0  0  0  0  0  0  0  0  0  0  0
   60.5930   34.9960   46.0370 O   0  0  0  0  0  0  0  0  0  0  0  0
   60.3980   33.4830   47.8010 N   0  0  0  0  0  0  0  0  0  0  0  0
   59.6670   33.2130   49.0480 C   0  0  0  0  0  0  0  0  0  0  0  0
   59.3420   31.7160   49.1390 C   0  0  0  0  0  0  0  0  0  0  0  0
   60.4060   30.9110   48.5180 N   0  0  0  0  0  0  0  0  0  0  0  0
   60.0390   29.8670   47.6090 C   0  0  0  0  0  0  0  0  0  0  0  0
   59.1640   28.8900   47.9200 N   0  0  0  0  0  0  0  0  0  0  0  0
   58.9760   28.0170   46.8930 C   0  0  0  0  0  0  0  0  0  0  0  0
   58.0670   26.8530   46.9900 C   0  0  0  0  0  0  0  0  0  0  0  0
   58.2770   25.9810   47.8730 O   0  0  0  0  0  0  0  0  0  0  0  0
   56.9890   26.6490   46.0650 N   0  0  0  0  0  0  0  0  0  0  0  0
   56.7340   25.4600   45.3000 C   0  0  0  0  0  0  0  0  0  0  0  0
   55.7980   24.5350   45.7770 C   0  0  0  0  0  0  0  0  0  0  0  0
   55.5170   23.3710   45.0530 C   0  0  0  0  0  0  0  0  0  0  0  0
   56.1670   23.1240   43.8290 C   0  0  0  0  0  0  0  0  0  0  0  0
   55.9120   21.9800   43.0590 O   0  0  0  0  0  0  0  0  0  0  0  0
   56.7590   20.8350   43.0140 C   0  0  0  0  0  0  0  0  0  0  0  0
   57.1000   24.0520   43.3530 C   0  0  0  0  0  0  0  0  0  0  0  0
   57.3710   25.2200   44.0710 C   0  0  0  0  0  0  0  0  0  0  0  0
   59.6830   28.3360   45.7320 C   0  0  0  0  0  0  0  0  0  0  0  0
   60.5850   29.7310   46.0270 S   0  0  0  0  0  0  0  0  0  0  0  0
   61.7480   31.4940   48.4040 C   0  0  0  0  0  0  0  0  0  0  0  0
   61.6650   32.7720   47.5540 C   0  0  0  0  0  0  0  0  0  0  0  0
   57.7650   31.8070   46.0390 C   0  0  0  0  0  0  0  0  0  0  0  0
   57.4630   30.7340   45.1970 C   0  0  0  0  0  0  0  0  0  0  0  0
   57.4089   28.3517   44.4537 H   0  0  0  0  0  0  0  0  0  0  0  0
   56.6031   27.7975   42.9470 H   0  0  0  0  0  0  0  0  0  0  0  0
   58.3651   28.1467   42.9470 H   0  0  0  0  0  0  0  0  0  0  0  0
   57.7126   32.3196   42.1769 H   0  0  0  0  0  0  0  0  0  0  0  0
   58.2447   34.2353   43.6803 H   0  0  0  0  0  0  0  0  0  0  0  0
   58.0750   35.1656   45.9192 H   0  0  0  0  0  0  0  0  0  0  0  0
   57.8034   34.0912   47.3519 H   0  0  0  0  0  0  0  0  0  0  0  0
   60.2880   33.5059   49.9074 H   0  0  0  0  0  0  0  0  0  0  0  0
   58.7315   33.7916   49.0562 H   0  0  0  0  0  0  0  0  0  0  0  0
   59.2458   31.4316   50.1972 H   0  0  0  0  0  0  0  0  0  0  0  0
   58.3995   31.5269   48.6043 H   0  0  0  0  0  0  0  0  0  0  0  0
   58.6580   28.8470   48.8320 H   0  0  0  0  0  0  0  0  0  0  0  0
   55.2793   24.7246   46.7283 H   0  0  0  0  0  0  0  0  0  0  0  0
   54.7859   22.6467   45.4415 H   0  0  0  0  0  0  0  0  0  0  0  0
   56.9964   20.5140   44.0390 H   0  0  0  0  0  0  0  0  0  0  0  0
   56.2452   20.0194   42.4841 H   0  0  0  0  0  0  0  0  0  0  0  0
   57.6893   21.0877   42.4841 H   0  0  0  0  0  0  0  0  0  0  0  0
   57.6247   23.8605   42.4054 H   0  0  0  0  0  0  0  0  0  0  0  0
   58.0861   25.9545   43.6722 H   0  0  0  0  0  0  0  0  0  0  0  0
   59.6565   27.7740   44.7868 H   0  0  0  0  0  0  0  0  0  0  0  0
   62.1297   31.7409   49.4057 H   0  0  0  0  0  0  0  0  0  0  0  0
   62.4284   30.7729   47.9274 H   0  0  0  0  0  0  0  0  0  0  0  0
   62.5057   33.4325   47.8128 H   0  0  0  0  0  0  0  0  0  0  0  0
   61.7111   32.4923   46.4911 H   0  0  0  0  0  0  0  0  0  0  0  0
   57.7789   31.6592   47.1289 H   0  0  0  0  0  0  0  0  0  0  0  0
   57.2431   29.7465   45.6288 H   0  0  0  0  0  0  0  0  0  0  0  0
  1  2  1  0
  2  3  1  0
  3  4  2  0
  4  5  1  0
  5  6  2  0
  6  7  1  0
  7  8  1  0
  8  9  2  0
  8 10  1  0
 10 11  1  0
 11 12  1  0
 12 13  1  0
 13 14  1  0
 14 15  2  0
 15 16  1  0
 16 17  1  0
 17 18  2  0
 17 19  1  0
 19 20  1  0
 20 21  2  0
 21 22  1  0
 22 23  2  0
 23 24  1  0
 24 25  1  0
 23 26  1  0
 26 27  2  0
 16 28  2  0
 28 29  1  0
 13 30  1  0
 30 31  1  0
  6 32  1  0
 32 33  2  0
 33  3  1  0
 31 10  1  0
 29 14  1  0
 27 20  1  0
  1 34  1  0
  1 35  1  0
  1 36  1  0
  4 37  1  0
  5 38  1  0
  7 39  1  0
  7 40  1  0
 11 41  1  0
 11 42  1  0
 12 43  1  0
 12 44  1  0
 15 45  1  0
 21 46  1  0
 22 47  1  0
 25 48  1  0
 25 49  1  0
 25 50  1  0
 26 51  1  0
 27 52  1  0
 28 53  1  0
 30 54  1  0
 30 55  1  0
 31 56  1  0
 31 57  1  0
 32 58  1  0
 33 59  1  0
M  CHG  2  15   1  19  -1
M  END
>  <UniqueID>  (67) 
64

>  <SMILES>  (67) 
COc1ccc(CC(=O)N2CCN(c3[nH+]c(C(=O)[N-]c4ccc(OC)cc4)cs3)CC2)cc1

>  <Energy>  (67) 
100.00390573477544

>  <Genealogy>  (67) 
COc1ccc(CC(=O)N2CCN(c3[nH+]c(C(=O)[N-]c4ccc(OC)cc4)cs3)CC2)cc1 (protonated)
COc1ccc(CC(=O)N2CCN(c3[nH+]c(C(=O)[N-]c4ccc(OC)cc4)cs3)CC2)cc1 (3D coordinates assigned)
COc1ccc(CC(=O)N2CCN(c3[nH+]c(C(=O)[N-]c4ccc(OC)cc4)cs3)CC2)cc1 (nonaromatic ring conformer: 100.00390573477544 kcal/mol)

>  <smiles>  (67) 
COc1ccc(CC(=O)N2CCN(c3nc(C(=O)Nc4ccc(OC)cc4)cs3)CC2)cc1

>  <score_type>  (67) 
oracle

>  <origin>  (67) 
adg

>  <m_score__min__energy>  (67) 
-8.9499999999999993

>  <m_primary>  (67) 
energy

$$$$
67:0
     RDKit          3D

 59 62  0  0  0  0  0  0  0  0999 V2000
   59.7490   26.7000   48.2630 H   0  0  0  0  0  0  0  0  0  0  0  0
   60.4970   27.2750   48.7150 N   0  0  0  0  0  0  0  0  0  0  0  0
   60.4560   28.6980   48.6590 C   0  0  0  0  0  0  0  0  0  0  0  0
   61.0380   29.3820   49.5440 O   0  0  0  0  0  0  0  0  0  0  0  0
   59.6590   29.3680   47.6200 C   0  0  0  0  0  0  0  0  0  0  0  0
   60.0720   30.6540   47.2580 C   0  0  0  0  0  0  0  0  0  0  0  0
   60.9106   31.1251   47.7916 H   0  0  0  0  0  0  0  0  0  0  0  0
   59.4530   31.3270   46.2590 N   0  0  0  0  0  0  0  0  0  0  0  0
   58.4050   30.8070   45.5770 C   0  0  0  0  0  0  0  0  0  0  0  0
   57.8080   31.5600   44.5490 C   0  0  0  0  0  0  0  0  0  0  0  0
   58.3610   32.8090   44.2180 O   0  0  0  0  0  0  0  0  0  0  0  0
   58.1250   34.0080   44.9010 C   0  0  0  0  0  0  0  0  0  0  0  0
   56.9720   34.3020   45.3160 O   0  0  0  0  0  0  0  0  0  0  0  0
   59.2770   34.9140   45.1990 C   0  0  0  0  0  0  0  0  0  0  0  0
   59.9841   34.8913   44.3567 H   0  0  0  0  0  0  0  0  0  0  0  0
   58.8997   35.9367   45.3462 H   0  0  0  0  0  0  0  0  0  0  0  0
   59.9810   34.4670   46.4500 C   0  0  0  0  0  0  0  0  0  0  0  0
   59.3390   34.5560   47.6980 C   0  0  0  0  0  0  0  0  0  0  0  0
   58.3202   34.9658   47.7627 H   0  0  0  0  0  0  0  0  0  0  0  0
   59.9920   34.1250   48.8570 C   0  0  0  0  0  0  0  0  0  0  0  0
   59.4888   34.2035   49.8320 H   0  0  0  0  0  0  0  0  0  0  0  0
   61.2820   33.5950   48.7790 C   0  0  0  0  0  0  0  0  0  0  0  0
   61.7957   33.2611   49.6926 H   0  0  0  0  0  0  0  0  0  0  0  0
   61.9200   33.4890   47.5400 C   0  0  0  0  0  0  0  0  0  0  0  0
   62.9342   33.0675   47.4788 H   0  0  0  0  0  0  0  0  0  0  0  0
   61.2710   33.9180   46.3780 C   0  0  0  0  0  0  0  0  0  0  0  0
   61.7732   33.8249   45.4038 H   0  0  0  0  0  0  0  0  0  0  0  0
   56.7120   31.0240   43.8510 C   0  0  0  0  0  0  0  0  0  0  0  0
   56.2452   31.6013   43.0393 H   0  0  0  0  0  0  0  0  0  0  0  0
   56.2140   29.7670   44.1810 C   0  0  0  0  0  0  0  0  0  0  0  0
   55.3484   29.3614   43.6367 H   0  0  0  0  0  0  0  0  0  0  0  0
   56.8070   29.0180   45.1990 C   0  0  0  0  0  0  0  0  0  0  0  0
   56.4043   28.0257   45.4504 H   0  0  0  0  0  0  0  0  0  0  0  0
   57.9170   29.5210   45.9080 C   0  0  0  0  0  0  0  0  0  0  0  0
   58.5460   28.7790   46.9420 C   0  0  0  0  0  0  0  0  0  0  0  0
   58.0730   27.5860   47.2140 N   0  0  0  0  0  0  0  0  0  0  0  0
   57.5290   26.6000   46.3290 C   0  0  0  0  0  0  0  0  0  0  0  0
   58.2830   26.1520   45.2440 C   0  0  0  0  0  0  0  0  0  0  0  0
   59.2965   26.5470   45.0804 H   0  0  0  0  0  0  0  0  0  0  0  0
   57.7560   25.2050   44.3660 C   0  0  0  0  0  0  0  0  0  0  0  0
   58.3675   24.8387   43.5282 H   0  0  0  0  0  0  0  0  0  0  0  0
   56.4520   24.7150   44.5420 C   0  0  0  0  0  0  0  0  0  0  0  0
   55.9530   23.7330   43.6200 N   0  0  0  0  0  0  0  0  0  0  0  0
   55.0410   23.9160   43.1430 H   0  0  0  0  0  0  0  0  0  0  0  0
   56.4840   22.0760   43.6320 S   0  0  0  0  0  0  0  0  0  0  0  0
   55.6730   21.3150   44.6450 O   0  0  0  0  0  0  0  0  0  0  0  0
   56.2790   21.4580   42.2750 O   0  0  0  0  0  0  0  0  0  0  0  0
   58.2000   21.9820   44.1020 C   0  0  0  0  0  0  0  0  0  0  0  0
   58.2800   21.9776   45.1991 H   0  0  0  0  0  0  0  0  0  0  0  0
   58.6406   21.0584   43.6985 H   0  0  0  0  0  0  0  0  0  0  0  0
   58.7389   22.8520   43.6985 H   0  0  0  0  0  0  0  0  0  0  0  0
   55.6790   25.1690   45.6330 C   0  0  0  0  0  0  0  0  0  0  0  0
   54.4010   24.6290   45.8390 O   0  0  0  0  0  0  0  0  0  0  0  0
   54.1480   23.3350   46.3860 C   0  0  0  0  0  0  0  0  0  0  0  0
   54.1593   23.3926   47.4844 H   0  0  0  0  0  0  0  0  0  0  0  0
   53.1634   22.9799   46.0475 H   0  0  0  0  0  0  0  0  0  0  0  0
   54.9263   22.6353   46.0475 H   0  0  0  0  0  0  0  0  0  0  0  0
   56.2220   26.1320   46.5100 C   0  0  0  0  0  0  0  0  0  0  0  0
   55.6141   26.5177   47.3417 H   0  0  0  0  0  0  0  0  0  0  0  0
  1  2  1  0
  2  3  1  0
  3  4  2  0
  3  5  1  0
  5  6  2  0
  6  7  1  0
  6  8  1  0
  8  9  1  0
  9 10  2  0
 10 11  1  0
 11 12  1  0
 12 13  2  0
 12 14  1  0
 14 15  1  0
 14 16  1  0
 14 17  1  0
 17 18  2  0
 18 19  1  0
 18 20  1  0
 20 21  1  0
 20 22  2  0
 22 23  1  0
 22 24  1  0
 24 25  1  0
 24 26  2  0
 26 27  1  0
 10 28  1  0
 28 29  1  0
 28 30  2  0
 30 31  1  0
 30 32  1  0
 32 33  1  0
 32 34  2  0
 34 35  1  0
 35 36  2  0
 36 37  1  0
 37 38  2  0
 38 39  1  0
 38 40  1  0
 40 41  1  0
 40 42  2  0
 42 43  1  0
 43 44  1  0
 43 45  1  0
 45 46  2  0
 45 47  2  0
 45 48  1  0
 48 49  1  0
 48 50  1  0
 48 51  1  0
 42 52  1  0
 52 53  1  0
 53 54  1  0
 54 55  1  0
 54 56  1  0
 54 57  1  0
 52 58  2  0
 58 59  1  0
 35  5  1  0
 58 37  1  0
 34  9  1  0
 26 17  1  0
M  CHG  2   2  -1   8  -1
M  END
>  <UniqueID>  (68) 
65

>  <SMILES>  (68) 
COc1cc(/N=c2\c(C([NH-])=O)c[n-]c3c(OC(=O)Cc4ccccc4)cccc23)ccc1NS(C)(=O)=O

>  <Energy>  (68) 
94.38606030768445

>  <Genealogy>  (68) 
COc1cc(N=c2c(C([NH-])=O)c[n-]c3c(OC(=O)Cc4ccccc4)cccc23)ccc1NS(C)(=O)=O (protonated)
COc1cc(/N=c2\c(C([NH-])=O)c[n-]c3c(OC(=O)Cc4ccccc4)cccc23)ccc1NS(C)(=O)=O (cis-trans isomerization)
COc1cc(/N=c2\c(C([NH-])=O)c[n-]c3c(OC(=O)Cc4ccccc4)cccc23)ccc1NS(C)(=O)=O (3D coordinates assigned)
COc1cc(/N=c2\c(C([NH-])=O)c[n-]c3c(OC(=O)Cc4ccccc4)cccc23)ccc1NS(C)(=O)=O (optimized conformer: 94.38606030768445 kcal/mol)

>  <smiles>  (68) 
COc1cc(N=c2c(C(N)=O)c[nH]c3c(OC(=O)Cc4ccccc4)cccc23)ccc1NS(C)(=O)=O

>  <score_type>  (68) 
oracle

>  <origin>  (68) 
adg

>  <m_score__min__energy>  (68) 
-14.02

>  <m_primary>  (68) 
energy

$$$$
68:0
     RDKit          3D

 58 61  0  0  0  0  0  0  0  0999 V2000
   59.5090   26.0090   46.2270 C   0  0  0  0  0  0  0  0  0  0  0  0
   58.0370   26.4400   46.2110 C   0  0  1  0  0  0  0  0  0  0  0  0
   57.8290   27.8240   46.8480 C   0  0  0  0  0  0  0  0  0  0  0  0
   58.2470   28.8920   45.9450 N   0  0  0  0  0  0  0  0  0  0  0  0
   58.1770   28.7530   44.5190 C   0  0  0  0  0  0  0  0  0  0  0  0
   58.3110   29.8180   43.7700 N   0  0  0  0  0  0  0  0  0  0  0  0
   57.2940   31.2300   43.8430 S   0  0  0  0  0  0  0  0  0  0  0  0
   55.9070   30.8320   44.2700 O   0  0  0  0  0  0  0  0  0  0  0  0
   57.2210   31.8400   42.4710 O   0  0  0  0  0  0  0  0  0  0  0  0
   57.9520   32.4280   44.9540 C   0  0  0  0  0  0  0  0  0  0  0  0
   58.4670   33.6440   44.4800 C   0  0  0  0  0  0  0  0  0  0  0  0
   58.9660   34.5920   45.3760 C   0  0  0  0  0  0  0  0  0  0  0  0
   58.9510   34.3360   46.7480 C   0  0  0  0  0  0  0  0  0  0  0  0
   58.4540   33.1130   47.2350 C   0  0  0  0  0  0  0  0  0  0  0  0
   58.3960   32.8260   48.6410 N   0  0  0  0  0  0  0  0  0  0  0  0
   58.7450   31.5850   49.2720 C   0  0  0  0  0  0  0  0  0  0  0  0
   58.7210   30.5280   48.5880 O   0  0  0  0  0  0  0  0  0  0  0  0
   59.2840   31.5440   50.6470 C   0  0  0  0  0  0  0  0  0  0  0  0
   58.5120   32.0990   51.6800 C   0  0  0  0  0  0  0  0  0  0  0  0
   58.9760   32.0870   52.9970 C   0  0  0  0  0  0  0  0  0  0  0  0
   60.2120   31.5150   53.2970 C   0  0  0  0  0  0  0  0  0  0  0  0
   60.9850   30.9480   52.2810 C   0  0  0  0  0  0  0  0  0  0  0  0
   60.5400   30.9650   50.9500 C   0  0  0  0  0  0  0  0  0  0  0  0
   61.5280   30.0820   49.7210 S   0  0  0  0  0  0  0  0  0  0  0  0
   62.2460   31.5540   48.9490 C   0  0  0  0  0  0  0  0  0  0  0  0
   63.1490   32.3510   49.6720 C   0  0  0  0  0  0  0  0  0  0  0  0
   63.7220   33.4870   49.0840 C   0  0  0  0  0  0  0  0  0  0  0  0
   63.4160   33.8240   47.7630 C   0  0  0  0  0  0  0  0  0  0  0  0
   62.5500   33.0140   47.0190 C   0  0  0  0  0  0  0  0  0  0  0  0
   61.9770   31.8670   47.5980 C   0  0  0  0  0  0  0  0  0  0  0  0
   61.1690   30.9960   46.7720 C   0  0  0  0  0  0  0  0  0  0  0  0
   60.5200   30.3000   46.1140 N   0  0  0  0  0  0  0  0  0  0  0  0
   57.9390   32.1740   46.3320 C   0  0  0  0  0  0  0  0  0  0  0  0
   58.0830   27.3590   43.9270 C   0  0  0  0  0  0  0  0  0  0  0  0
   57.4710   26.3940   44.8510 N   0  0  0  0  0  0  0  0  0  0  0  0
   59.8505   25.9090   47.2679 H   0  0  0  0  0  0  0  0  0  0  0  0
   59.6137   25.0425   45.7123 H   0  0  0  0  0  0  0  0  0  0  0  0
   60.1184   26.7664   45.7123 H   0  0  0  0  0  0  0  0  0  0  0  0
   57.4912   25.7114   46.8284 H   0  0  0  0  0  0  0  0  0  0  0  0
   56.7627   27.9525   47.0855 H   0  0  0  0  0  0  0  0  0  0  0  0
   58.4407   27.8816   47.7604 H   0  0  0  0  0  0  0  0  0  0  0  0
   58.4130   29.8360   46.3610 H   0  0  0  0  0  0  0  0  0  0  0  0
   59.0890   29.8530   43.0720 H   0  0  0  0  0  0  0  0  0  0  0  0
   58.4778   33.8512   43.3998 H   0  0  0  0  0  0  0  0  0  0  0  0
   59.3718   35.5426   44.9996 H   0  0  0  0  0  0  0  0  0  0  0  0
   59.3290   35.0929   47.4510 H   0  0  0  0  0  0  0  0  0  0  0  0
   57.5339   32.5468   51.4501 H   0  0  0  0  0  0  0  0  0  0  0  0
   58.3661   32.5291   53.7986 H   0  0  0  0  0  0  0  0  0  0  0  0
   60.5784   31.5103   54.3342 H   0  0  0  0  0  0  0  0  0  0  0  0
   61.9516   30.4838   52.5264 H   0  0  0  0  0  0  0  0  0  0  0  0
   63.4081   32.0818   50.7066 H   0  0  0  0  0  0  0  0  0  0  0  0
   64.4144   34.1148   49.6640 H   0  0  0  0  0  0  0  0  0  0  0  0
   63.8549   34.7244   47.3084 H   0  0  0  0  0  0  0  0  0  0  0  0
   62.3164   33.2757   45.9764 H   0  0  0  0  0  0  0  0  0  0  0  0
   57.5206   31.2287   46.7081 H   0  0  0  0  0  0  0  0  0  0  0  0
   57.4748   27.4050   43.0116 H   0  0  0  0  0  0  0  0  0  0  0  0
   59.1068   27.0162   43.7163 H   0  0  0  0  0  0  0  0  0  0  0  0
   56.4470   26.6020   44.9120 H   0  0  0  0  0  0  0  0  0  0  0  0
  1  2  1  0
  2  3  1  0
  3  4  1  0
  4  5  1  0
  5  6  2  3
  6  7  1  0
  7  8  2  0
  7  9  2  0
  7 10  1  0
 10 11  2  0
 11 12  1  0
 12 13  2  0
 13 14  1  0
 14 15  1  0
 15 16  1  0
 16 17  2  0
 16 18  1  0
 18 19  2  0
 19 20  1  0
 20 21  2  0
 21 22  1  0
 22 23  2  0
 23 24  1  0
 24 25  1  0
 25 26  2  0
 26 27  1  0
 27 28  2  0
 28 29  1  0
 29 30  2  0
 30 31  1  0
 31 32  3  0
 14 33  2  0
  5 34  1  0
 34 35  1  0
 35  2  1  0
 33 10  1  0
 23 18  1  0
 30 25  1  0
  1 36  1  0
  1 37  1  0
  1 38  1  0
  2 39  1  1
  3 40  1  0
  3 41  1  0
  4 42  1  0
  6 43  1  0
 11 44  1  0
 12 45  1  0
 13 46  1  0
 19 47  1  0
 20 48  1  0
 21 49  1  0
 22 50  1  0
 26 51  1  0
 27 52  1  0
 28 53  1  0
 29 54  1  0
 33 55  1  0
 34 56  1  0
 34 57  1  0
 35 58  1  0
M  CHG  2   6   1  15  -1
M  END
>  <UniqueID>  (69) 
66

>  <SMILES>  (69) 
C[C@H]1CNC(=[NH+]S(=O)(=O)c2cccc([N-]C(=O)c3ccccc3Sc3ccccc3C#N)c2)CN1

>  <Energy>  (69) 
75.07391442561992

>  <Genealogy>  (69) 
CC1CNC(=[NH+]S(=O)(=O)c2cccc([N-]C(=O)c3ccccc3Sc3ccccc3C#N)c2)CN1 (protonated)
C[C@H]1CNC(=[NH+]S(=O)(=O)c2cccc([N-]C(=O)c3ccccc3Sc3ccccc3C#N)c2)CN1 (chirality)
C[C@H]1CNC(=[NH+]S(=O)(=O)c2cccc([N-]C(=O)c3ccccc3Sc3ccccc3C#N)c2)CN1 (3D coordinates assigned)
C[C@H]1CNC(=[NH+]S(=O)(=O)c2cccc([N-]C(=O)c3ccccc3Sc3ccccc3C#N)c2)CN1 (nonaromatic ring conformer: 75.07391442561992 kcal/mol)

>  <smiles>  (69) 
CC1CNC(=NS(=O)(=O)c2cccc(NC(=O)c3ccccc3Sc3ccccc3C#N)c2)CN1

>  <score_type>  (69) 
oracle

>  <origin>  (69) 
adg

>  <m_score__min__energy>  (69) 
-11.130000000000001

>  <m_primary>  (69) 
energy

$$$$
69:0
     RDKit          3D

 27 28  0  0  0  0  0  0  0  0999 V2000
   57.8260   32.1920   50.1450 N   0  0  0  0  0  0  0  0  0  0  0  0
   58.8540   31.1480   49.2270 S   0  0  0  0  0  0  0  0  0  0  0  0
   58.4630   29.7220   49.4960 O   0  0  0  0  0  0  0  0  0  0  0  0
   60.2820   31.3460   49.6500 O   0  0  0  0  0  0  0  0  0  0  0  0
   58.6910   31.5190   47.5060 C   0  0  0  0  0  0  0  0  0  0  0  0
   58.3710   30.4920   46.6040 C   0  0  0  0  0  0  0  0  0  0  0  0
   58.2330   30.7590   45.2320 C   0  0  0  0  0  0  0  0  0  0  0  0
   57.9280   29.6440   44.2670 C   0  0  0  0  0  0  0  0  0  0  0  0
   57.4770   28.4070   45.0110 C   0  0  0  0  0  0  0  0  0  0  0  0
   56.1160   28.1830   45.2900 C   0  0  0  0  0  0  0  0  0  0  0  0
   55.1430   29.0750   44.8570 O   0  0  0  0  0  0  0  0  0  0  0  0
   55.7390   27.0820   45.9890 N   0  0  0  0  0  0  0  0  0  0  0  0
   56.6530   26.1840   46.4320 C   0  0  0  0  0  0  0  0  0  0  0  0
   56.2780   25.1710   47.0780 O   0  0  0  0  0  0  0  0  0  0  0  0
   57.9720   26.3780   46.1820 N   0  0  0  0  0  0  0  0  0  0  0  0
   58.4040   27.4620   45.4880 C   0  0  0  0  0  0  0  0  0  0  0  0
   59.6380   27.6070   45.2790 O   0  0  0  0  0  0  0  0  0  0  0  0
   58.4250   32.0680   44.7650 C   0  0  0  0  0  0  0  0  0  0  0  0
   58.7400   33.0950   45.6560 C   0  0  0  0  0  0  0  0  0  0  0  0
   58.8740   32.8320   47.0240 C   0  0  0  0  0  0  0  0  0  0  0  0
   59.2730   34.1710   48.0940 Cl  0  0  0  0  0  0  0  0  0  0  0  0
   56.9820   32.3800   49.5590 H   0  0  0  0  0  0  0  0  0  0  0  0
   58.2267   29.4669   46.9758 H   0  0  0  0  0  0  0  0  0  0  0  0
   57.1292   29.9660   43.5827 H   0  0  0  0  0  0  0  0  0  0  0  0
   58.8400   29.4051   43.7002 H   0  0  0  0  0  0  0  0  0  0  0  0
   58.3268   32.2859   43.6913 H   0  0  0  0  0  0  0  0  0  0  0  0
   58.8840   34.1187   45.2802 H   0  0  0  0  0  0  0  0  0  0  0  0
  1  2  1  0
  2  3  2  0
  2  4  2  0
  2  5  1  0
  5  6  2  0
  6  7  1  0
  7  8  1  0
  8  9  1  0
  9 10  2  0
 10 11  1  0
 10 12  1  0
 12 13  1  0
 13 14  2  0
 13 15  1  0
 15 16  1  0
 16 17  2  0
  7 18  2  0
 18 19  1  0
 19 20  2  0
 20 21  1  0
 20  5  1  0
 16  9  1  0
  1 22  1  0
  6 23  1  0
  8 24  1  0
  8 25  1  0
 18 26  1  0
 19 27  1  0
M  CHG  4   1  -1  11  -1  12  -1  15  -1
M  END
>  <UniqueID>  (70) 
67

>  <SMILES>  (70) 
[NH-]S(=O)(=O)c1cc(Cc2c([O-])[n-]c(=O)[n-]c2=O)ccc1Cl

>  <Energy>  (70) 
30.766059781550577

>  <Genealogy>  (70) 
[NH-]S(=O)(=O)c1cc(Cc2c([O-])[n-]c(=O)[n-]c2=O)ccc1Cl (protonated)
[NH-]S(=O)(=O)c1cc(Cc2c([O-])[n-]c(=O)[n-]c2=O)ccc1Cl (3D coordinates assigned)
[NH-]S(=O)(=O)c1cc(Cc2c([O-])[n-]c(=O)[n-]c2=O)ccc1Cl (optimized conformer: 30.766059781550577 kcal/mol)

>  <smiles>  (70) 
NS(=O)(=O)c1cc(Cc2c(O)[nH]c(=O)[nH]c2=O)ccc1Cl

>  <score_type>  (70) 
oracle

>  <origin>  (70) 
adg

>  <m_score__min__energy>  (70) 
-15.98

>  <m_primary>  (70) 
energy

$$$$
70:0
     RDKit          3D

 42 44  0  0  0  0  0  0  0  0999 V2000
   52.9330   23.8560   44.7470 C   0  0  0  0  0  0  0  0  0  0  0  0
   54.0050   23.1430   44.1390 O   0  0  0  0  0  0  0  0  0  0  0  0
   55.3600   23.3200   44.4630 C   0  0  0  0  0  0  0  0  0  0  0  0
   55.7920   24.2980   45.3800 C   0  0  0  0  0  0  0  0  0  0  0  0
   57.1570   24.4450   45.6770 C   0  0  0  0  0  0  0  0  0  0  0  0
   57.6180   25.5180   46.6280 C   0  0  0  0  0  0  0  0  0  0  0  0
   57.7080   26.8520   45.9190 C   0  0  0  0  0  0  0  0  0  0  0  0
   56.5440   27.5740   45.5890 C   0  0  0  0  0  0  0  0  0  0  0  0
   55.2960   27.0850   45.9670 O   0  0  0  0  0  0  0  0  0  0  0  0
   56.6350   28.7890   44.8830 C   0  0  0  0  0  0  0  0  0  0  0  0
   55.3800   29.5560   44.5520 C   0  0  0  0  0  0  0  0  0  0  0  0
   57.9140   29.2860   44.5590 C   0  0  0  0  0  0  0  0  0  0  0  0
   58.1540   30.8590   43.7220 S   0  0  0  0  0  0  0  0  0  0  0  0
   58.5690   31.7170   45.2410 C   0  0  0  0  0  0  0  0  0  0  0  0
   59.0920   31.0070   46.3290 C   0  0  0  0  0  0  0  0  0  0  0  0
   59.4200   31.6780   47.5120 C   0  0  0  0  0  0  0  0  0  0  0  0
   59.2210   33.0590   47.6120 C   0  0  0  0  0  0  0  0  0  0  0  0
   59.6690   33.9760   49.2260 Br  0  0  0  0  0  0  0  0  0  0  0  0
   58.6890   33.7690   46.5290 C   0  0  0  0  0  0  0  0  0  0  0  0
   58.3610   33.0980   45.3460 C   0  0  0  0  0  0  0  0  0  0  0  0
   59.0200   28.5660   44.8800 N   0  0  0  0  0  0  0  0  0  0  0  0
   58.9550   27.3790   45.5340 C   0  0  0  0  0  0  0  0  0  0  0  0
   60.0230   26.7630   45.7950 O   0  0  0  0  0  0  0  0  0  0  0  0
   58.0920   23.6080   45.0460 C   0  0  0  0  0  0  0  0  0  0  0  0
   57.6670   22.6360   44.1400 C   0  0  0  0  0  0  0  0  0  0  0  0
   56.3080   22.4900   43.8480 C   0  0  0  0  0  0  0  0  0  0  0  0
   55.9000   21.5180   42.9420 O   0  0  0  0  0  0  0  0  0  0  0  0
   53.0257   23.7944   45.8414 H   0  0  0  0  0  0  0  0  0  0  0  0
   52.9700   24.9101   44.4347 H   0  0  0  0  0  0  0  0  0  0  0  0
   51.9752   23.4144   44.4347 H   0  0  0  0  0  0  0  0  0  0  0  0
   55.0542   24.9521   45.8676 H   0  0  0  0  0  0  0  0  0  0  0  0
   56.9016   25.5973   47.4590 H   0  0  0  0  0  0  0  0  0  0  0  0
   58.6142   25.2505   47.0102 H   0  0  0  0  0  0  0  0  0  0  0  0
   54.8805   29.8613   45.4833 H   0  0  0  0  0  0  0  0  0  0  0  0
   55.6403   30.4495   43.9656 H   0  0  0  0  0  0  0  0  0  0  0  0
   54.7035   28.9168   43.9656 H   0  0  0  0  0  0  0  0  0  0  0  0
   59.2451   29.9203   46.2533 H   0  0  0  0  0  0  0  0  0  0  0  0
   59.8346   31.1193   48.3640 H   0  0  0  0  0  0  0  0  0  0  0  0
   58.5289   34.8544   46.6082 H   0  0  0  0  0  0  0  0  0  0  0  0
   57.9391   33.6559   44.4971 H   0  0  0  0  0  0  0  0  0  0  0  0
   59.1638   23.7194   45.2671 H   0  0  0  0  0  0  0  0  0  0  0  0
   58.4049   21.9814   43.6532 H   0  0  0  0  0  0  0  0  0  0  0  0
  1  2  1  0
  2  3  1  0
  3  4  2  0
  4  5  1  0
  5  6  1  0
  6  7  1  0
  7  8  2  0
  8  9  1  0
  8 10  1  0
 10 11  1  0
 10 12  2  0
 12 13  1  0
 13 14  1  0
 14 15  2  0
 15 16  1  0
 16 17  2  0
 17 18  1  0
 17 19  1  0
 19 20  2  0
 12 21  1  0
 21 22  1  0
 22 23  2  0
  5 24  2  0
 24 25  1  0
 25 26  2  0
 26 27  1  0
 26  3  1  0
 22  7  1  0
 20 14  1  0
  1 28  1  0
  1 29  1  0
  1 30  1  0
  4 31  1  0
  6 32  1  0
  6 33  1  0
 11 34  1  0
 11 35  1  0
 11 36  1  0
 15 37  1  0
 16 38  1  0
 19 39  1  0
 20 40  1  0
 24 41  1  0
 25 42  1  0
M  CHG  3   9  -1  21  -1  27  -1
M  END
>  <UniqueID>  (71) 
68

>  <SMILES>  (71) 
COc1cc(Cc2c([O-])c(C)c(Sc3ccc(Br)cc3)[n-]c2=O)ccc1[O-]

>  <Energy>  (71) 
42.47571435651132

>  <Genealogy>  (71) 
COc1cc(Cc2c([O-])c(C)c(Sc3ccc(Br)cc3)[n-]c2=O)ccc1[O-] (protonated)
COc1cc(Cc2c([O-])c(C)c(Sc3ccc(Br)cc3)[n-]c2=O)ccc1[O-] (3D coordinates assigned)
COc1cc(Cc2c([O-])c(C)c(Sc3ccc(Br)cc3)[n-]c2=O)ccc1[O-] (optimized conformer: 42.47571435651132 kcal/mol)

>  <smiles>  (71) 
COc1cc(Cc2c(O)c(C)c(Sc3ccc(Br)cc3)[nH]c2=O)ccc1O

>  <score_type>  (71) 
oracle

>  <origin>  (71) 
adg

>  <m_score__min__energy>  (71) 
-14.4

>  <m_primary>  (71) 
energy

$$$$
71:0
     RDKit          3D

 42 44  0  0  0  0  0  0  0  0999 V2000
   63.6670   33.0440   47.0250 C   0  0  0  0  0  0  0  0  0  0  0  0
   62.6620   33.7730   46.3320 O   0  0  0  0  0  0  0  0  0  0  0  0
   61.3350   33.8380   46.7720 C   0  0  0  0  0  0  0  0  0  0  0  0
   60.4550   34.3630   46.0360 O   0  0  0  0  0  0  0  0  0  0  0  0
   60.9650   33.3070   48.1120 C   0  0  0  0  0  0  0  0  0  0  0  0
   60.1010   32.1900   48.2560 C   0  0  0  0  0  0  0  0  0  0  0  0
   59.4500   31.5790   47.0770 C   0  0  0  0  0  0  0  0  0  0  0  0
   59.8420   30.4180   46.5240 N   0  0  0  0  0  0  0  0  0  0  0  0
   58.9510   30.2250   45.5260 C   0  0  0  0  0  0  0  0  0  0  0  0
   58.9560   29.0060   44.6610 C   0  0  0  0  0  0  0  0  0  0  0  0
   58.2500   27.8780   45.3620 C   0  0  0  0  0  0  0  0  0  0  0  0
   58.9810   26.9270   46.0890 C   0  0  0  0  0  0  0  0  0  0  0  0
   58.3230   25.9000   46.7700 C   0  0  0  0  0  0  0  0  0  0  0  0
   56.9160   25.8170   46.7460 C   0  0  0  0  0  0  0  0  0  0  0  0
   56.2140   24.8090   47.4230 O   0  0  0  0  0  0  0  0  0  0  0  0
   55.5520   23.7220   46.7860 C   0  0  0  0  0  0  0  0  0  0  0  0
   56.1880   26.7760   46.0280 C   0  0  0  0  0  0  0  0  0  0  0  0
   54.8000   26.7160   45.9970 O   0  0  0  0  0  0  0  0  0  0  0  0
   56.8490   27.8010   45.3430 C   0  0  0  0  0  0  0  0  0  0  0  0
   58.0070   31.1870   45.4370 N   0  0  0  0  0  0  0  0  0  0  0  0
   58.3350   32.0440   46.4170 C   0  0  0  0  0  0  0  0  0  0  0  0
   57.3970   33.4710   46.8190 Cl  0  0  0  0  0  0  0  0  0  0  0  0
   59.8100   31.7000   49.5500 C   0  0  0  0  0  0  0  0  0  0  0  0
   58.8990   30.5940   49.7500 C   0  0  0  0  0  0  0  0  0  0  0  0
   58.1690   29.7100   49.9100 N   0  0  0  0  0  0  0  0  0  0  0  0
   60.3810   32.3240   50.6650 C   0  0  0  0  0  0  0  0  0  0  0  0
   60.1070   31.8600   51.9500 O   0  0  0  0  0  0  0  0  0  0  0  0
   61.2010   33.3920   50.5000 N   0  0  0  0  0  0  0  0  0  0  0  0
   61.5040   33.8940   49.2770 C   0  0  0  0  0  0  0  0  0  0  0  0
   62.2870   34.8780   49.2020 O   0  0  0  0  0  0  0  0  0  0  0  0
   63.5170   33.1528   48.1093 H   0  0  0  0  0  0  0  0  0  0  0  0
   63.6034   31.9806   46.7509 H   0  0  0  0  0  0  0  0  0  0  0  0
   64.6581   33.4346   46.7509 H   0  0  0  0  0  0  0  0  0  0  0  0
   58.4398   29.2277   43.7153 H   0  0  0  0  0  0  0  0  0  0  0  0
   59.9959   28.7111   44.4567 H   0  0  0  0  0  0  0  0  0  0  0  0
   60.0787   26.9902   46.1231 H   0  0  0  0  0  0  0  0  0  0  0  0
   58.9058   25.1522   47.3278 H   0  0  0  0  0  0  0  0  0  0  0  0
   55.1400   23.0455   47.5493 H   0  0  0  0  0  0  0  0  0  0  0  0
   54.7351   24.1073   46.1582 H   0  0  0  0  0  0  0  0  0  0  0  0
   56.2692   23.1730   46.1582 H   0  0  0  0  0  0  0  0  0  0  0  0
   56.2674   28.5507   44.7865 H   0  0  0  0  0  0  0  0  0  0  0  0
   59.5020   31.0600   52.0980 H   0  0  0  0  0  0  0  0  0  0  0  0
  1  2  1  0
  2  3  1  0
  3  4  2  0
  3  5  1  0
  5  6  2  0
  6  7  1  0
  7  8  1  0
  8  9  1  0
  9 10  1  0
 10 11  1  0
 11 12  2  0
 12 13  1  0
 13 14  2  0
 14 15  1  0
 15 16  1  0
 14 17  1  0
 17 18  1  0
 17 19  2  0
  9 20  2  0
 20 21  1  0
 21 22  1  0
  6 23  1  0
 23 24  1  0
 24 25  3  0
 23 26  2  0
 26 27  1  0
 26 28  1  0
 28 29  1  0
 29 30  2  0
 29  5  1  0
 21  7  2  0
 19 11  1  0
  1 31  1  0
  1 32  1  0
  1 33  1  0
 10 34  1  0
 10 35  1  0
 12 36  1  0
 13 37  1  0
 16 38  1  0
 16 39  1  0
 16 40  1  0
 19 41  1  0
 27 42  1  0
M  CHG  3   8  -1  18  -1  28  -1
M  END
>  <UniqueID>  (72) 
69

>  <SMILES>  (72) 
COC(=O)c1c(-c2[n-]c(Cc3ccc(OC)c([O-])c3)nc2Cl)c(C#N)c(O)[n-]c1=O

>  <Energy>  (72) 
78.86453552435601

>  <Genealogy>  (72) 
COC(=O)c1c(-c2[n-]c(Cc3ccc(OC)c([O-])c3)nc2Cl)c(C#N)c(O)[n-]c1=O (protonated)
COC(=O)c1c(-c2[n-]c(Cc3ccc(OC)c([O-])c3)nc2Cl)c(C#N)c(O)[n-]c1=O (3D coordinates assigned)
COC(=O)c1c(-c2[n-]c(Cc3ccc(OC)c([O-])c3)nc2Cl)c(C#N)c(O)[n-]c1=O (optimized conformer: 78.86453552435601 kcal/mol)

>  <smiles>  (72) 
COC(=O)c1c(-c2[nH]c(Cc3ccc(OC)c(O)c3)nc2Cl)c(C#N)c(O)[nH]c1=O

>  <score_type>  (72) 
oracle

>  <origin>  (72) 
adg

>  <m_score__min__energy>  (72) 
-13.51

>  <m_primary>  (72) 
energy

$$$$
72:0
     RDKit          3D

 30 31  0  0  0  0  0  0  0  0999 V2000
   57.4790   31.4653   46.7124 H   0  0  0  0  0  0  0  0  0  0  0  0
   58.4630   31.1030   46.3800 C   0  0  0  0  0  0  0  0  0  0  0  0
   59.5240   31.8070   46.6350 N   0  0  0  0  0  0  0  0  0  0  0  0
   59.5100   33.1130   47.1600 N   0  0  0  0  0  0  0  0  0  0  0  0
   59.1890   34.2360   46.4850 C   0  0  0  0  0  0  0  0  0  0  0  0
   58.8890   34.2910   45.0180 C   0  0  0  0  0  0  0  0  0  0  0  0
   59.4269   33.4780   44.5085 H   0  0  0  0  0  0  0  0  0  0  0  0
   59.2133   35.2665   44.6265 H   0  0  0  0  0  0  0  0  0  0  0  0
   57.3940   34.1350   44.7690 C   0  0  0  0  0  0  0  0  0  0  0  0
   56.8656   34.0799   45.7322 H   0  0  0  0  0  0  0  0  0  0  0  0
   57.0253   34.9995   44.1975 H   0  0  0  0  0  0  0  0  0  0  0  0
   57.2117   33.2130   44.1975 H   0  0  0  0  0  0  0  0  0  0  0  0
   59.2270   35.3230   47.2880 N   0  0  0  0  0  0  0  0  0  0  0  0
   59.5500   34.8830   48.4960 N   0  0  0  0  0  0  0  0  0  0  0  0
   59.6440   35.4830   49.3460 H   0  0  0  0  0  0  0  0  0  0  0  0
   59.7100   33.5530   48.4190 C   0  0  0  0  0  0  0  0  0  0  0  0
   59.9740   32.8200   49.4080 O   0  0  0  0  0  0  0  0  0  0  0  0
   58.5590   29.8210   45.6490 C   0  0  0  0  0  0  0  0  0  0  0  0
   59.7350   29.0670   45.8040 C   0  0  0  0  0  0  0  0  0  0  0  0
   60.5071   29.4028   46.5119 H   0  0  0  0  0  0  0  0  0  0  0  0
   59.9340   27.8960   45.0690 C   0  0  0  0  0  0  0  0  0  0  0  0
   60.8597   27.3164   45.1999 H   0  0  0  0  0  0  0  0  0  0  0  0
   58.9630   27.4610   44.1710 C   0  0  0  0  0  0  0  0  0  0  0  0
   59.1302   26.5480   43.5807 H   0  0  0  0  0  0  0  0  0  0  0  0
   57.7780   28.1820   44.0190 C   0  0  0  0  0  0  0  0  0  0  0  0
   57.0147   27.8317   43.3086 H   0  0  0  0  0  0  0  0  0  0  0  0
   57.5500   29.3520   44.7650 C   0  0  0  0  0  0  0  0  0  0  0  0
   56.2760   30.0070   44.6580 N   0  0  0  0  0  0  0  0  0  0  0  0
   55.2240   29.3680   44.8650 O   0  0  0  0  0  0  0  0  0  0  0  0
   56.2140   31.3790   44.5740 O   0  0  0  0  0  0  0  0  0  0  0  0
  1  2  1  0
  2  3  2  0
  3  4  1  0
  4  5  1  0
  5  6  1  0
  6  7  1  0
  6  8  1  0
  6  9  1  0
  9 10  1  0
  9 11  1  0
  9 12  1  0
  5 13  2  0
 13 14  1  0
 14 15  1  0
 14 16  1  0
 16 17  2  0
  2 18  1  0
 18 19  2  0
 19 20  1  0
 19 21  1  0
 21 22  1  0
 21 23  2  0
 23 24  1  0
 23 25  1  0
 25 26  1  0
 25 27  2  0
 27 28  1  0
 28 29  2  0
 28 30  1  0
 16  4  1  0
 27 18  1  0
M  CHG  2  28   1  30  -1
M  END
>  <UniqueID>  (73) 
70

>  <SMILES>  (73) 
CCc1n[nH]c(=O)n1/N=C/c1ccccc1[N+](=O)[O-]

>  <Energy>  (73) 
75.5474795214883

>  <Genealogy>  (73) 
CCc1n[nH]c(=O)n1/N=C/c1ccccc1[N+](=O)[O-] (cis-trans isomerization)
CCc1n[nH]c(=O)n1/N=C/c1ccccc1[N+](=O)[O-] (3D coordinates assigned)
CCc1n[nH]c(=O)n1/N=C/c1ccccc1[N+](=O)[O-] (optimized conformer: 75.5474795214883 kcal/mol)

>  <smiles>  (73) 
CCc1n[nH]c(=O)n1N=Cc1ccccc1[N+](=O)[O-]

>  <score_type>  (73) 
oracle

>  <origin>  (73) 
adg

>  <m_score__min__energy>  (73) 
-7.5999999999999996

>  <m_primary>  (73) 
energy

$$$$
73:0
     RDKit          3D

 41 43  0  0  0  0  0  0  0  0999 V2000
   60.5940   27.1820   46.8830 N   0  0  0  0  0  0  0  0  0  0  0  0
   59.5380   28.1410   46.7570 C   0  0  0  0  0  0  0  0  0  0  0  0
   58.3630   27.8520   46.0460 C   0  0  0  0  0  0  0  0  0  0  0  0
   57.4940   28.9280   45.9810 C   0  0  0  0  0  0  0  0  0  0  0  0
   56.2040   28.8870   45.3600 N   0  0  0  0  0  0  0  0  0  0  0  0
   55.8010   29.6740   44.2320 C   0  0  0  0  0  0  0  0  0  0  0  0
   54.7480   29.3560   43.6200 O   0  0  0  0  0  0  0  0  0  0  0  0
   56.6090   30.8150   43.7410 C   0  0  0  0  0  0  0  0  0  0  0  0
   56.9500   30.9040   42.3800 C   0  0  0  0  0  0  0  0  0  0  0  0
   57.7130   31.9780   41.9110 C   0  0  0  0  0  0  0  0  0  0  0  0
   58.1520   32.9660   42.7970 C   0  0  0  0  0  0  0  0  0  0  0  0
   57.8340   32.8770   44.1560 C   0  0  0  0  0  0  0  0  0  0  0  0
   58.3910   34.1130   45.2690 Cl  0  0  0  0  0  0  0  0  0  0  0  0
   57.0740   31.8020   44.6290 C   0  0  0  0  0  0  0  0  0  0  0  0
   58.1490   30.2230   46.8320 S   0  0  0  0  0  0  0  0  0  0  0  0
   59.5800   29.4470   47.2730 C   0  0  0  0  0  0  0  0  0  0  0  0
   60.6370   30.0620   48.1050 C   0  0  0  0  0  0  0  0  0  0  0  0
   61.3010   29.3500   48.9040 O   0  0  0  0  0  0  0  0  0  0  0  0
   60.8690   31.4810   48.0490 N   0  0  0  0  0  0  0  0  0  0  0  0
   61.9480   32.1290   48.7450 C   0  0  0  0  0  0  0  0  0  0  0  0
   63.2750   31.9070   48.3350 C   0  0  0  0  0  0  0  0  0  0  0  0
   64.3340   32.5650   48.9630 C   0  0  0  0  0  0  0  0  0  0  0  0
   64.0810   33.4660   49.9950 C   0  0  0  0  0  0  0  0  0  0  0  0
   62.7690   33.7090   50.4090 C   0  0  0  0  0  0  0  0  0  0  0  0
   61.6870   33.0400   49.8030 C   0  0  0  0  0  0  0  0  0  0  0  0
   60.2710   33.3200   50.2620 C   0  0  0  0  0  0  0  0  0  0  0  0
   59.5070   32.1650   50.2860 F   0  0  0  0  0  0  0  0  0  0  0  0
   59.6600   34.2160   49.4030 F   0  0  0  0  0  0  0  0  0  0  0  0
   60.2990   33.8540   51.5360 F   0  0  0  0  0  0  0  0  0  0  0  0
   60.6620   26.3900   46.2050 H   0  0  0  0  0  0  0  0  0  0  0  0
   61.3570   27.2860   47.5830 H   0  0  0  0  0  0  0  0  0  0  0  0
   58.1544   26.8736   45.5885 H   0  0  0  0  0  0  0  0  0  0  0  0
   56.6147   30.1244   41.6801 H   0  0  0  0  0  0  0  0  0  0  0  0
   57.9681   32.0454   40.8431 H   0  0  0  0  0  0  0  0  0  0  0  0
   58.7473   33.8131   42.4255 H   0  0  0  0  0  0  0  0  0  0  0  0
   56.8387   31.7281   45.7010 H   0  0  0  0  0  0  0  0  0  0  0  0
   60.2060   32.0770   47.5070 H   0  0  0  0  0  0  0  0  0  0  0  0
   63.4805   31.2077   47.5111 H   0  0  0  0  0  0  0  0  0  0  0  0
   65.3685   32.3720   48.6429 H   0  0  0  0  0  0  0  0  0  0  0  0
   64.9164   33.9874   50.4851 H   0  0  0  0  0  0  0  0  0  0  0  0
   62.5785   34.4306   51.2171 H   0  0  0  0  0  0  0  0  0  0  0  0
  1  2  1  0
  2  3  1  0
  3  4  2  0
  4  5  1  0
  5  6  1  0
  6  7  2  0
  6  8  1  0
  8  9  2  0
  9 10  1  0
 10 11  2  0
 11 12  1  0
 12 13  1  0
 12 14  2  0
  4 15  1  0
 15 16  1  0
 16 17  1  0
 17 18  2  0
 17 19  1  0
 19 20  1  0
 20 21  2  0
 21 22  1  0
 22 23  2  0
 23 24  1  0
 24 25  2  0
 25 26  1  0
 26 27  1  0
 26 28  1  0
 26 29  1  0
 16  2  2  0
 25 20  1  0
 14  8  1  0
  1 30  1  0
  1 31  1  0
  3 32  1  0
  9 33  1  0
 10 34  1  0
 11 35  1  0
 14 36  1  0
 19 37  1  0
 21 38  1  0
 22 39  1  0
 23 40  1  0
 24 41  1  0
M  CHG  1   5  -1
M  END
>  <UniqueID>  (74) 
71

>  <SMILES>  (74) 
Nc1cc([N-]C(=O)c2cccc(Cl)c2)sc1C(=O)Nc1ccccc1C(F)(F)F

>  <Energy>  (74) 
83.76557465026552

>  <Genealogy>  (74) 
Nc1cc([N-]C(=O)c2cccc(Cl)c2)sc1C(=O)Nc1ccccc1C(F)(F)F (protonated)
Nc1cc([N-]C(=O)c2cccc(Cl)c2)sc1C(=O)Nc1ccccc1C(F)(F)F (3D coordinates assigned)
Nc1cc([N-]C(=O)c2cccc(Cl)c2)sc1C(=O)Nc1ccccc1C(F)(F)F (optimized conformer: 83.76557465026552 kcal/mol)

>  <smiles>  (74) 
Nc1cc(NC(=O)c2cccc(Cl)c2)sc1C(=O)Nc1ccccc1C(F)(F)F

>  <score_type>  (74) 
oracle

>  <origin>  (74) 
adg

>  <m_score__min__energy>  (74) 
-9.3399999999999999

>  <m_primary>  (74) 
energy

$$$$
74:0
     RDKit          3D

 59 63  0  0  0  0  0  0  0  0999 V2000
   59.8020   29.9500   51.1090 O   0  0  0  0  0  0  0  0  0  0  0  0
   60.3490   30.0130   49.9730 C   0  0  0  0  0  0  0  0  0  0  0  0
   59.7240   29.3140   48.8220 C   0  0  0  0  0  0  0  0  0  0  0  0
   58.7580   29.9690   48.0380 C   0  0  0  0  0  0  0  0  0  0  0  0
   58.1660   29.3200   46.9510 C   0  0  0  0  0  0  0  0  0  0  0  0
   58.5400   28.0090   46.6190 C   0  0  0  0  0  0  0  0  0  0  0  0
   57.8720   27.2950   45.4770 C   0  0  0  0  0  0  0  0  0  0  0  0
   57.2760   26.0070   45.9530 C   0  0  0  0  0  0  0  0  0  0  0  0
   58.1520   24.6340   46.3880 S   0  0  0  0  0  0  0  0  0  0  0  0
   56.7690   23.8000   46.8530 C   0  0  0  0  0  0  0  0  0  0  0  0
   56.7690   22.6230   47.2970 O   0  0  0  0  0  0  0  0  0  0  0  0
   55.6440   24.5300   46.7030 N   0  0  0  0  0  0  0  0  0  0  0  0
   55.9280   25.7640   46.2090 C   0  0  0  0  0  0  0  0  0  0  0  0
   54.9310   26.7050   45.9820 O   0  0  0  0  0  0  0  0  0  0  0  0
   59.5020   27.3520   47.3980 C   0  0  0  0  0  0  0  0  0  0  0  0
   60.0960   27.9990   48.4840 C   0  0  0  0  0  0  0  0  0  0  0  0
   61.6070   30.7890   49.8340 C   0  0  0  0  0  0  0  0  0  0  0  0
   62.4630   30.9220   50.9300 C   0  0  0  0  0  0  0  0  0  0  0  0
   62.0680   30.3300   52.1370 O   0  0  0  0  0  0  0  0  0  0  0  0
   63.6720   31.6400   50.7860 C   0  0  0  0  0  0  0  0  0  0  0  0
   64.5560   31.8190   51.8750 C   0  0  0  0  0  0  0  0  0  0  0  0
   65.7660   32.4850   51.7120 C   0  0  0  0  0  0  0  0  0  0  0  0
   66.1260   32.9800   50.4690 C   0  0  0  0  0  0  0  0  0  0  0  0
   65.2720   32.8310   49.3790 C   0  0  0  0  0  0  0  0  0  0  0  0
   64.0140   32.1830   49.5090 C   0  0  0  0  0  0  0  0  0  0  0  0
   63.1440   32.0340   48.4370 N   0  0  0  0  0  0  0  0  0  0  0  0
   63.4300   32.5840   47.0870 C   0  0  0  0  0  0  0  0  0  0  0  0
   62.7050   33.9190   46.8170 C   0  0  0  0  0  0  0  0  0  0  0  0
   61.4880   34.2080   47.7190 C   0  0  0  0  0  0  0  0  0  0  0  0
   60.1490   34.0420   47.0300 C   0  0  0  0  0  0  0  0  0  0  0  0
   59.0560   33.4540   47.6940 C   0  0  0  0  0  0  0  0  0  0  0  0
   57.8360   33.2820   47.0320 C   0  0  0  0  0  0  0  0  0  0  0  0
   57.6830   33.7280   45.7180 C   0  0  0  0  0  0  0  0  0  0  0  0
   58.7430   34.3650   45.0700 C   0  0  0  0  0  0  0  0  0  0  0  0
   59.9650   34.5380   45.7270 C   0  0  0  0  0  0  0  0  0  0  0  0
   61.9610   31.3510   48.5990 C   0  0  0  0  0  0  0  0  0  0  0  0
   61.1760   31.2020   47.6190 O   0  0  0  0  0  0  0  0  0  0  0  0
   58.4657   31.0010   48.2822 H   0  0  0  0  0  0  0  0  0  0  0  0
   57.4030   29.8396   46.3527 H   0  0  0  0  0  0  0  0  0  0  0  0
   57.0768   27.9332   45.0643 H   0  0  0  0  0  0  0  0  0  0  0  0
   58.6204   27.0797   44.7002 H   0  0  0  0  0  0  0  0  0  0  0  0
   59.7913   26.3195   47.1525 H   0  0  0  0  0  0  0  0  0  0  0  0
   60.8598   27.4774   49.0794 H   0  0  0  0  0  0  0  0  0  0  0  0
   61.1230   30.0760   52.3840 H   0  0  0  0  0  0  0  0  0  0  0  0
   64.2827   31.4258   52.8653 H   0  0  0  0  0  0  0  0  0  0  0  0
   66.4388   32.6191   52.5719 H   0  0  0  0  0  0  0  0  0  0  0  0
   67.0908   33.4930   50.3425 H   0  0  0  0  0  0  0  0  0  0  0  0
   65.5775   33.2228   48.3976 H   0  0  0  0  0  0  0  0  0  0  0  0
   64.5139   32.7488   46.9975 H   0  0  0  0  0  0  0  0  0  0  0  0
   63.0647   31.8546   46.3490 H   0  0  0  0  0  0  0  0  0  0  0  0
   63.4312   34.7333   46.9566 H   0  0  0  0  0  0  0  0  0  0  0  0
   62.3111   33.8468   45.7925 H   0  0  0  0  0  0  0  0  0  0  0  0
   61.5226   33.5189   48.5757 H   0  0  0  0  0  0  0  0  0  0  0  0
   61.5603   35.2643   48.0174 H   0  0  0  0  0  0  0  0  0  0  0  0
   59.1619   33.1280   48.7392 H   0  0  0  0  0  0  0  0  0  0  0  0
   56.9955   32.7944   47.5477 H   0  0  0  0  0  0  0  0  0  0  0  0
   56.7279   33.5776   45.1935 H   0  0  0  0  0  0  0  0  0  0  0  0
   58.6165   34.7315   44.0406 H   0  0  0  0  0  0  0  0  0  0  0  0
   60.7875   35.0653   45.2216 H   0  0  0  0  0  0  0  0  0  0  0  0
  1  2  2  0
  2  3  1  0
  3  4  2  0
  4  5  1  0
  5  6  2  0
  6  7  1  0
  7  8  1  0
  8  9  1  0
  9 10  1  0
 10 11  2  0
 10 12  1  0
 12 13  1  0
 13 14  1  0
  6 15  1  0
 15 16  2  0
  2 17  1  0
 17 18  2  0
 18 19  1  0
 18 20  1  0
 20 21  2  0
 21 22  1  0
 22 23  2  0
 23 24  1  0
 24 25  2  0
 25 26  1  0
 26 27  1  0
 27 28  1  0
 28 29  1  0
 29 30  1  0
 30 31  2  0
 31 32  1  0
 32 33  2  0
 33 34  1  0
 34 35  2  0
 26 36  1  0
 36 37  2  0
 16  3  1  0
 36 17  1  0
 13  8  2  0
 25 20  1  0
 35 30  1  0
  4 38  1  0
  5 39  1  0
  7 40  1  0
  7 41  1  0
 15 42  1  0
 16 43  1  0
 19 44  1  0
 21 45  1  0
 22 46  1  0
 23 47  1  0
 24 48  1  0
 27 49  1  0
 27 50  1  0
 28 51  1  0
 28 52  1  0
 29 53  1  0
 29 54  1  0
 31 55  1  0
 32 56  1  0
 33 57  1  0
 34 58  1  0
 35 59  1  0
M  CHG  2  12  -1  14  -1
M  END
>  <UniqueID>  (75) 
72

>  <SMILES>  (75) 
O=C(c1ccc(Cc2sc(=O)[n-]c2[O-])cc1)c1c(O)c2ccccc2n(CCCc2ccccc2)c1=O

>  <Energy>  (75) 
114.53871696211301

>  <Genealogy>  (75) 
O=C(c1ccc(Cc2sc(=O)[n-]c2[O-])cc1)c1c(O)c2ccccc2n(CCCc2ccccc2)c1=O (protonated)
O=C(c1ccc(Cc2sc(=O)[n-]c2[O-])cc1)c1c(O)c2ccccc2n(CCCc2ccccc2)c1=O (3D coordinates assigned)
O=C(c1ccc(Cc2sc(=O)[n-]c2[O-])cc1)c1c(O)c2ccccc2n(CCCc2ccccc2)c1=O (optimized conformer: 114.53871696211301 kcal/mol)

>  <smiles>  (75) 
O=C(c1ccc(Cc2sc(=O)[nH]c2O)cc1)c1c(O)c2ccccc2n(CCCc2ccccc2)c1=O

>  <score_type>  (75) 
oracle

>  <origin>  (75) 
adg

>  <m_score__min__energy>  (75) 
-16.73

>  <m_primary>  (75) 
energy

$$$$
75:0
     RDKit          3D

 58 61  0  0  0  0  0  0  0  0999 V2000
   60.1290   30.0010   51.2770 H   0  0  0  0  0  0  0  0  0  0  0  0
   59.2470   29.8020   50.7530 N   0  0  0  0  0  0  0  0  0  0  0  0
   59.2170   29.7910   49.4590 C   0  0  0  0  0  0  0  0  0  0  0  0
   59.4880   30.9280   48.7700 N   0  0  0  0  0  0  0  0  0  0  0  0
   59.4760   30.9450   47.4110 C   0  0  0  0  0  0  0  0  0  0  0  0
   59.7410   32.2270   46.6790 C   0  0  0  0  0  0  0  0  0  0  0  0
   60.4364   32.0352   45.8486 H   0  0  0  0  0  0  0  0  0  0  0  0
   60.1826   32.9554   47.3750 H   0  0  0  0  0  0  0  0  0  0  0  0
   58.4830   32.7710   46.1450 N   0  0  0  0  0  0  0  0  0  0  0  0
   57.8370   32.1210   45.0210 C   0  0  0  0  0  0  0  0  0  0  0  0
   56.9810   31.0830   45.2470 N   0  0  0  0  0  0  0  0  0  0  0  0
   56.3550   30.4370   44.2280 C   0  0  0  0  0  0  0  0  0  0  0  0
   55.5480   29.4580   44.4780 N   0  0  0  0  0  0  0  0  0  0  0  0
   55.7920   28.4730   44.2330 H   0  0  0  0  0  0  0  0  0  0  0  0
   56.5770   30.8230   42.9450 N   0  0  0  0  0  0  0  0  0  0  0  0
   57.4080   31.8580   42.6570 C   0  0  0  0  0  0  0  0  0  0  0  0
   57.6480   32.2430   41.2320 C   0  0  0  0  0  0  0  0  0  0  0  0
   58.2296   33.1760   41.1972 H   0  0  0  0  0  0  0  0  0  0  0  0
   58.2076   31.4430   40.7253 H   0  0  0  0  0  0  0  0  0  0  0  0
   56.6833   32.3932   40.7253 H   0  0  0  0  0  0  0  0  0  0  0  0
   58.0620   32.5320   43.6930 C   0  0  0  0  0  0  0  0  0  0  0  0
   58.7410   33.3694   43.4743 H   0  0  0  0  0  0  0  0  0  0  0  0
   57.9230   33.9920   46.7400 C   0  0  0  0  0  0  0  0  0  0  0  0
   57.9583   33.9150   47.8367 H   0  0  0  0  0  0  0  0  0  0  0  0
   58.5121   34.8620   46.4144 H   0  0  0  0  0  0  0  0  0  0  0  0
   56.8793   34.1132   46.4144 H   0  0  0  0  0  0  0  0  0  0  0  0
   59.1670   29.7760   46.7080 C   0  0  0  0  0  0  0  0  0  0  0  0
   59.1550   29.7723   45.6081 H   0  0  0  0  0  0  0  0  0  0  0  0
   58.8720   28.6060   47.4290 C   0  0  0  0  0  0  0  0  0  0  0  0
   58.5340   27.3260   46.7490 C   0  0  0  0  0  0  0  0  0  0  0  0
   59.4860   26.2990   46.5960 C   0  0  0  0  0  0  0  0  0  0  0  0
   60.5064   26.4387   46.9824 H   0  0  0  0  0  0  0  0  0  0  0  0
   59.1440   25.1040   45.9570 C   0  0  0  0  0  0  0  0  0  0  0  0
   59.8932   24.3044   45.8602 H   0  0  0  0  0  0  0  0  0  0  0  0
   57.8600   24.9150   45.4400 C   0  0  0  0  0  0  0  0  0  0  0  0
   57.5790   23.7020   44.7920 O   0  0  0  0  0  0  0  0  0  0  0  0
   56.9510   23.5720   43.5160 C   0  0  0  0  0  0  0  0  0  0  0  0
   56.2113   24.3777   43.3993 H   0  0  0  0  0  0  0  0  0  0  0  0
   57.7306   23.6366   42.7426 H   0  0  0  0  0  0  0  0  0  0  0  0
   56.2530   22.2430   43.3690 C   0  0  0  0  0  0  0  0  0  0  0  0
   56.2860   21.6670   42.2510 O   0  0  0  0  0  0  0  0  0  0  0  0
   55.5880   21.5900   44.4610 N   0  0  0  0  0  0  0  0  0  0  0  0
   55.6970   21.9100   45.8550 C   0  0  0  0  0  0  0  0  0  0  0  0
   56.5350   21.1800   46.7160 C   0  0  0  0  0  0  0  0  0  0  0  0
   57.1280   20.3407   46.3237 H   0  0  0  0  0  0  0  0  0  0  0  0
   56.6160   21.5190   48.0700 C   0  0  0  0  0  0  0  0  0  0  0  0
   57.2608   20.9363   48.7444 H   0  0  0  0  0  0  0  0  0  0  0  0
   55.8790   22.5970   48.5680 C   0  0  0  0  0  0  0  0  0  0  0  0
   55.9390   22.8587   49.6347 H   0  0  0  0  0  0  0  0  0  0  0  0
   55.0660   23.3420   47.7100 C   0  0  0  0  0  0  0  0  0  0  0  0
   54.4890   24.1930   48.1010 H   0  0  0  0  0  0  0  0  0  0  0  0
   54.9850   23.0070   46.3550 C   0  0  0  0  0  0  0  0  0  0  0  0
   54.3592   23.6079   45.6788 H   0  0  0  0  0  0  0  0  0  0  0  0
   56.9080   25.9410   45.5750 C   0  0  0  0  0  0  0  0  0  0  0  0
   55.8948   25.8050   45.1690 H   0  0  0  0  0  0  0  0  0  0  0  0
   57.2440   27.1330   46.2230 C   0  0  0  0  0  0  0  0  0  0  0  0
   56.4912   27.9289   46.3227 H   0  0  0  0  0  0  0  0  0  0  0  0
   58.9140   28.6480   48.7890 N   0  0  0  0  0  0  0  0  0  0  0  0
  1  2  1  0
  2  3  2  3
  3  4  1  0
  4  5  2  0
  5  6  1  0
  6  7  1  0
  6  8  1  0
  6  9  1  0
  9 10  1  0
 10 11  2  0
 11 12  1  0
 12 13  2  0
 13 14  1  0
 12 15  1  0
 15 16  1  0
 16 17  1  0
 17 18  1  0
 17 19  1  0
 17 20  1  0
 16 21  2  0
 21 22  1  0
  9 23  1  0
 23 24  1  0
 23 25  1  0
 23 26  1  0
  5 27  1  0
 27 28  1  0
 27 29  2  0
 29 30  1  0
 30 31  2  0
 31 32  1  0
 31 33  1  0
 33 34  1  0
 33 35  2  0
 35 36  1  0
 36 37  1  0
 37 38  1  0
 37 39  1  0
 37 40  1  0
 40 41  2  0
 40 42  1  0
 42 43  1  0
 43 44  2  0
 44 45  1  0
 44 46  1  0
 46 47  1  0
 46 48  2  0
 48 49  1  0
 48 50  1  0
 50 51  1  0
 50 52  2  0
 52 53  1  0
 35 54  1  0
 54 55  1  0
 54 56  2  0
 56 57  1  0
 29 58  1  0
 58  3  1  0
 21 10  1  0
 56 30  1  0
 52 43  1  0
M  CHG  3  15  -1  42  -1  58  -1
M  END
>  <UniqueID>  (76) 
73

>  <SMILES>  (76) 
[H]/N=c1\nc(N(C)Cc2cc(-c3ccc(OCC(=O)[N-]c4ccccc4)cc3)[n-]c(=N)n2)cc(C)[n-]1

>  <Energy>  (76) 
68.03076543345716

>  <Genealogy>  (76) 
Cc1cc(N(C)Cc2cc(-c3ccc(OCC(=O)[N-]c4ccccc4)cc3)[n-]c(=N)n2)nc(=N)[n-]1 (protonated)
[H]/N=c1\nc(N(C)Cc2cc(-c3ccc(OCC(=O)[N-]c4ccccc4)cc3)[n-]c(=N)n2)cc(C)[n-]1 (cis-trans isomerization)
[H]/N=c1\nc(N(C)Cc2cc(-c3ccc(OCC(=O)[N-]c4ccccc4)cc3)[n-]c(=N)n2)cc(C)[n-]1 (3D coordinates assigned)
[H]/N=c1\nc(N(C)Cc2cc(-c3ccc(OCC(=O)[N-]c4ccccc4)cc3)[n-]c(=N)n2)cc(C)[n-]1 (optimized conformer: 68.03076543345716 kcal/mol)

>  <smiles>  (76) 
Cc1cc(N(C)Cc2cc(-c3ccc(OCC(=O)Nc4ccccc4)cc3)[nH]c(=N)n2)nc(=N)[nH]1

>  <score_type>  (76) 
oracle

>  <origin>  (76) 
adg

>  <m_score__min__energy>  (76) 
-12.67

>  <m_primary>  (76) 
energy

$$$$
76:0
     RDKit          3D

 55 58  0  0  0  0  0  0  0  0999 V2000
   63.8530   32.8010   47.5250 O   0  0  0  0  0  0  0  0  0  0  0  0
   62.7600   32.4770   48.0630 C   0  0  0  0  0  0  0  0  0  0  0  0
   62.6960   31.3000   48.9880 C   0  0  0  0  0  0  0  0  0  0  0  0
   61.3110   31.0680   49.4640 N   0  0  0  0  0  0  0  0  0  0  0  0
   60.4920   30.1650   48.8080 C   0  0  0  0  0  0  0  0  0  0  0  0
   60.9790   29.3480   47.6200 C   0  0  0  0  0  0  0  0  0  0  0  0
   60.5980   29.9190   46.2390 C   0  0  0  0  0  0  0  0  0  0  0  0
   59.1540   29.6570   45.8800 C   0  0  0  0  0  0  0  0  0  0  0  0
   58.4490   30.5670   45.0730 C   0  0  0  0  0  0  0  0  0  0  0  0
   57.1130   30.3280   44.7390 C   0  0  0  0  0  0  0  0  0  0  0  0
   56.4720   29.1740   45.2000 C   0  0  0  0  0  0  0  0  0  0  0  0
   55.1430   28.9370   44.8680 O   0  0  0  0  0  0  0  0  0  0  0  0
   57.1680   28.2570   45.9930 C   0  0  0  0  0  0  0  0  0  0  0  0
   58.5040   28.4930   46.3280 C   0  0  0  0  0  0  0  0  0  0  0  0
   59.2060   30.0030   49.2110 N   0  0  0  0  0  0  0  0  0  0  0  0
   58.6810   30.6700   50.2600 C   0  0  0  0  0  0  0  0  0  0  0  0
   57.4740   30.4740   50.5690 O   0  0  0  0  0  0  0  0  0  0  0  0
   59.4810   31.5510   50.9870 C   0  0  0  0  0  0  0  0  0  0  0  0
   58.9740   32.2410   52.1050 C   0  0  0  0  0  0  0  0  0  0  0  0
   59.7930   33.0980   52.8350 C   0  0  0  0  0  0  0  0  0  0  0  0
   61.1230   33.2720   52.4660 C   0  0  0  0  0  0  0  0  0  0  0  0
   61.6420   32.5990   51.3580 C   0  0  0  0  0  0  0  0  0  0  0  0
   60.8290   31.7340   50.5800 C   0  0  0  0  0  0  0  0  0  0  0  0
   61.5610   33.1950   47.7550 N   0  0  0  0  0  0  0  0  0  0  0  0
   61.0980   34.3590   48.5030 C   0  0  0  0  0  0  0  0  0  0  0  0
   59.5700   34.3660   48.6330 C   0  0  0  0  0  0  0  0  0  0  0  0
   58.9000   34.2160   47.2920 C   0  0  0  0  0  0  0  0  0  0  0  0
   59.4870   34.7650   46.1390 C   0  0  0  0  0  0  0  0  0  0  0  0
   58.8820   34.5920   44.8910 C   0  0  0  0  0  0  0  0  0  0  0  0
   57.6920   33.8670   44.7830 C   0  0  0  0  0  0  0  0  0  0  0  0
   57.1070   33.3110   45.9240 C   0  0  0  0  0  0  0  0  0  0  0  0
   57.7100   33.4790   47.1750 C   0  0  0  0  0  0  0  0  0  0  0  0
   63.0469   30.4045   48.4543 H   0  0  0  0  0  0  0  0  0  0  0  0
   63.3344   31.5064   49.8597 H   0  0  0  0  0  0  0  0  0  0  0  0
   62.0760   29.2873   47.6738 H   0  0  0  0  0  0  0  0  0  0  0  0
   60.4843   28.3684   47.6958 H   0  0  0  0  0  0  0  0  0  0  0  0
   60.7670   31.0059   46.2484 H   0  0  0  0  0  0  0  0  0  0  0  0
   61.2245   29.4173   45.4868 H   0  0  0  0  0  0  0  0  0  0  0  0
   58.9518   31.4724   44.7023 H   0  0  0  0  0  0  0  0  0  0  0  0
   56.5655   31.0481   44.1131 H   0  0  0  0  0  0  0  0  0  0  0  0
   56.6634   27.3486   46.3537 H   0  0  0  0  0  0  0  0  0  0  0  0
   59.0501   27.7646   46.9453 H   0  0  0  0  0  0  0  0  0  0  0  0
   57.9244   32.1020   52.4033 H   0  0  0  0  0  0  0  0  0  0  0  0
   59.3883   33.6377   53.7039 H   0  0  0  0  0  0  0  0  0  0  0  0
   61.7694   33.9434   53.0503 H   0  0  0  0  0  0  0  0  0  0  0  0
   62.6977   32.7415   51.0838 H   0  0  0  0  0  0  0  0  0  0  0  0
   61.5431   34.3389   49.5087 H   0  0  0  0  0  0  0  0  0  0  0  0
   61.4044   35.2651   47.9599 H   0  0  0  0  0  0  0  0  0  0  0  0
   59.2628   33.5320   49.2811 H   0  0  0  0  0  0  0  0  0  0  0  0
   59.2652   35.3308   49.0645 H   0  0  0  0  0  0  0  0  0  0  0  0
   60.4257   35.3328   46.2191 H   0  0  0  0  0  0  0  0  0  0  0  0
   59.3432   35.0272   43.9922 H   0  0  0  0  0  0  0  0  0  0  0  0
   57.2160   33.7340   43.8003 H   0  0  0  0  0  0  0  0  0  0  0  0
   56.1706   32.7402   45.8382 H   0  0  0  0  0  0  0  0  0  0  0  0
   57.2510   33.0327   48.0695 H   0  0  0  0  0  0  0  0  0  0  0  0
  1  2  2  0
  2  3  1  0
  3  4  1  0
  4  5  1  0
  5  6  1  0
  6  7  1  0
  7  8  1  0
  8  9  2  0
  9 10  1  0
 10 11  2  0
 11 12  1  0
 11 13  1  0
 13 14  2  0
  5 15  2  0
 15 16  1  0
 16 17  2  0
 16 18  1  0
 18 19  2  0
 19 20  1  0
 20 21  2  0
 21 22  1  0
 22 23  2  0
  2 24  1  0
 24 25  1  0
 25 26  1  0
 26 27  1  0
 27 28  2  0
 28 29  1  0
 29 30  2  0
 30 31  1  0
 31 32  2  0
 23  4  1  0
 32 27  1  0
 14  8  1  0
 23 18  1  0
  3 33  1  0
  3 34  1  0
  6 35  1  0
  6 36  1  0
  7 37  1  0
  7 38  1  0
  9 39  1  0
 10 40  1  0
 13 41  1  0
 14 42  1  0
 19 43  1  0
 20 44  1  0
 21 45  1  0
 22 46  1  0
 25 47  1  0
 25 48  1  0
 26 49  1  0
 26 50  1  0
 28 51  1  0
 29 52  1  0
 30 53  1  0
 31 54  1  0
 32 55  1  0
M  CHG  2  12  -1  24  -1
M  END
>  <UniqueID>  (77) 
74

>  <SMILES>  (77) 
O=C(Cn1c(CCc2ccc([O-])cc2)nc(=O)c2ccccc21)[N-]CCc1ccccc1

>  <Energy>  (77) 
66.78426919671978

>  <Genealogy>  (77) 
O=C(Cn1c(CCc2ccc([O-])cc2)nc(=O)c2ccccc21)[N-]CCc1ccccc1 (protonated)
O=C(Cn1c(CCc2ccc([O-])cc2)nc(=O)c2ccccc21)[N-]CCc1ccccc1 (3D coordinates assigned)
O=C(Cn1c(CCc2ccc([O-])cc2)nc(=O)c2ccccc21)[N-]CCc1ccccc1 (optimized conformer: 66.78426919671978 kcal/mol)

>  <smiles>  (77) 
O=C(Cn1c(CCc2ccc(O)cc2)nc(=O)c2ccccc21)NCCc1ccccc1

>  <score_type>  (77) 
oracle

>  <origin>  (77) 
adg

>  <m_score__min__energy>  (77) 
-13.15

>  <m_primary>  (77) 
energy

$$$$
77:0
     RDKit          3D

 36 37  0  0  0  0  0  0  0  0999 V2000
   53.8410   22.9940   44.6020 N   0  0  0  0  0  0  0  0  0  0  0  0
   55.1980   23.0830   44.1700 C   0  0  0  0  0  0  0  0  0  0  0  0
   55.5640   22.4290   43.1560 O   0  0  0  0  0  0  0  0  0  0  0  0
   56.1680   23.9300   44.9030 C   0  0  0  0  0  0  0  0  0  0  0  0
   57.5450   23.6410   44.8610 C   0  0  0  0  0  0  0  0  0  0  0  0
   58.4570   24.4440   45.5520 C   0  0  0  0  0  0  0  0  0  0  0  0
   58.0120   25.5300   46.3110 C   0  0  0  0  0  0  0  0  0  0  0  0
   58.9730   26.3480   46.9880 N   0  0  0  0  0  0  0  0  0  0  0  0
   60.0080   27.1240   46.3700 C   0  0  0  0  0  0  0  0  0  0  0  0
   61.1450   26.6050   46.2180 O   0  0  0  0  0  0  0  0  0  0  0  0
   59.8080   28.5610   45.9790 C   0  0  0  0  0  0  0  0  0  0  0  0
   58.5130   29.3490   47.0000 S   0  0  0  0  0  0  0  0  0  0  0  0
   58.3570   30.8280   45.9810 C   0  0  0  0  0  0  0  0  0  0  0  0
   59.0800   31.9650   46.3720 C   0  0  0  0  0  0  0  0  0  0  0  0
   58.9870   33.1530   45.6440 C   0  0  0  0  0  0  0  0  0  0  0  0
   58.1790   33.2130   44.5110 C   0  0  0  0  0  0  0  0  0  0  0  0
   57.4740   32.0820   44.0920 C   0  0  0  0  0  0  0  0  0  0  0  0
   57.5670   30.8740   44.8050 C   0  0  0  0  0  0  0  0  0  0  0  0
   56.7010   29.4680   44.1610 S   0  0  0  0  0  0  0  0  0  0  0  0
   55.1480   29.3420   44.9060 N   0  0  0  0  0  0  0  0  0  0  0  0
   57.4750   28.2000   44.3900 O   0  0  0  0  0  0  0  0  0  0  0  0
   56.5170   29.6370   42.6790 O   0  0  0  0  0  0  0  0  0  0  0  0
   56.6460   25.8450   46.3280 C   0  0  0  0  0  0  0  0  0  0  0  0
   55.7300   25.0450   45.6390 C   0  0  0  0  0  0  0  0  0  0  0  0
   53.5850   22.4640   45.4660 H   0  0  0  0  0  0  0  0  0  0  0  0
   57.9054   22.7785   44.2812 H   0  0  0  0  0  0  0  0  0  0  0  0
   59.5325   24.2196   45.4980 H   0  0  0  0  0  0  0  0  0  0  0  0
   60.7540   29.1053   46.1163 H   0  0  0  0  0  0  0  0  0  0  0  0
   59.4906   28.5949   44.9263 H   0  0  0  0  0  0  0  0  0  0  0  0
   59.7265   31.9202   47.2608 H   0  0  0  0  0  0  0  0  0  0  0  0
   59.5515   34.0409   45.9651 H   0  0  0  0  0  0  0  0  0  0  0  0
   58.0959   34.1526   43.9451 H   0  0  0  0  0  0  0  0  0  0  0  0
   56.8397   32.1373   43.1950 H   0  0  0  0  0  0  0  0  0  0  0  0
   55.2140   28.5860   45.6240 H   0  0  0  0  0  0  0  0  0  0  0  0
   56.2937   26.7252   46.8858 H   0  0  0  0  0  0  0  0  0  0  0  0
   54.6581   25.2897   45.6729 H   0  0  0  0  0  0  0  0  0  0  0  0
  1  2  1  0
  2  3  2  0
  2  4  1  0
  4  5  2  0
  5  6  1  0
  6  7  2  0
  7  8  1  0
  8  9  1  0
  9 10  2  0
  9 11  1  0
 11 12  1  0
 12 13  1  0
 13 14  2  0
 14 15  1  0
 15 16  2  0
 16 17  1  0
 17 18  2  0
 18 19  1  0
 19 20  1  0
 19 21  2  0
 19 22  2  0
  7 23  1  0
 23 24  2  0
 24  4  1  0
 18 13  1  0
  1 25  1  0
  5 26  1  0
  6 27  1  0
 11 28  1  0
 11 29  1  0
 14 30  1  0
 15 31  1  0
 16 32  1  0
 17 33  1  0
 20 34  1  0
 23 35  1  0
 24 36  1  0
M  CHG  3   1  -1   8  -1  20  -1
M  END
>  <UniqueID>  (78) 
75

>  <SMILES>  (78) 
[NH-]C(=O)c1ccc([N-]C(=O)CSc2ccccc2S([NH-])(=O)=O)cc1

>  <Energy>  (78) 
39.947815217081335

>  <Genealogy>  (78) 
[NH-]C(=O)c1ccc([N-]C(=O)CSc2ccccc2S([NH-])(=O)=O)cc1 (protonated)
[NH-]C(=O)c1ccc([N-]C(=O)CSc2ccccc2S([NH-])(=O)=O)cc1 (3D coordinates assigned)
[NH-]C(=O)c1ccc([N-]C(=O)CSc2ccccc2S([NH-])(=O)=O)cc1 (optimized conformer: 39.947815217081335 kcal/mol)

>  <smiles>  (78) 
NC(=O)c1ccc(NC(=O)CSc2ccccc2S(N)(=O)=O)cc1

>  <score_type>  (78) 
oracle

>  <origin>  (78) 
adg

>  <m_score__min__energy>  (78) 
-13.210000000000001

>  <m_primary>  (78) 
energy

$$$$
78:0
     RDKit          3D

 49 51  0  0  0  0  0  0  0  0999 V2000
   63.6830   31.5930   51.4280 C   0  0  0  0  0  0  0  0  0  0  0  0
   63.0840   30.5770   50.5570 N   0  0  0  0  0  0  0  0  0  0  0  0
   61.8820   29.9740   51.1640 C   0  0  0  0  0  0  0  0  0  0  0  0
   60.6840   30.0210   50.1970 C   0  0  2  0  0  0  0  0  0  0  0  0
   61.0290   29.3530   48.9920 O   0  0  0  0  0  0  0  0  0  0  0  0
   60.1020   29.1560   47.9790 C   0  0  0  0  0  0  0  0  0  0  0  0
   59.6090   27.8690   47.7250 C   0  0  0  0  0  0  0  0  0  0  0  0
   58.7300   27.6530   46.6610 C   0  0  0  0  0  0  0  0  0  0  0  0
   58.3680   28.7190   45.8220 C   0  0  0  0  0  0  0  0  0  0  0  0
   57.5070   28.5350   44.6910 N   0  0  0  0  0  0  0  0  0  0  0  0
   56.4230   29.7510   44.0820 S   0  0  0  0  0  0  0  0  0  0  0  0
   55.2060   29.7820   44.9550 O   0  0  0  0  0  0  0  0  0  0  0  0
   55.9970   29.3810   42.6790 O   0  0  0  0  0  0  0  0  0  0  0  0
   57.1670   31.3470   44.0880 C   0  0  0  0  0  0  0  0  0  0  0  0
   58.0230   31.8520   43.1070 C   0  0  0  0  0  0  0  0  0  0  0  0
   58.5200   33.1190   43.4270 C   0  0  0  0  0  0  0  0  0  0  0  0
   58.0580   33.6180   44.6450 C   0  0  0  0  0  0  0  0  0  0  0  0
   57.0480   32.4660   45.3460 S   0  0  0  0  0  0  0  0  0  0  0  0
   58.8770   30.0030   46.0760 C   0  0  0  0  0  0  0  0  0  0  0  0
   59.7140   30.2350   47.1830 C   0  0  0  0  0  0  0  0  0  0  0  0
   60.2770   31.5780   47.4280 C   0  0  0  0  0  0  0  0  0  0  0  0
   60.6940   32.2300   46.4320 O   0  0  0  0  0  0  0  0  0  0  0  0
   60.3210   32.1830   48.7450 N   0  0  0  0  0  0  0  0  0  0  0  0
   60.3460   33.6580   48.8050 C   0  0  0  0  0  0  0  0  0  0  0  0
   61.7400   34.1650   49.1800 C   0  0  0  0  0  0  0  0  0  0  0  0
   62.6880   33.1300   48.9990 O   0  0  0  0  0  0  0  0  0  0  0  0
   63.3490   33.2610   47.7590 C   0  0  0  0  0  0  0  0  0  0  0  0
   60.2060   31.4460   49.9860 C   0  0  0  0  0  0  0  0  0  0  0  0
   59.7710   32.0370   51.0040 O   0  0  0  0  0  0  0  0  0  0  0  0
   63.5199   31.3164   52.4801 H   0  0  0  0  0  0  0  0  0  0  0  0
   64.7629   31.6563   51.2287 H   0  0  0  0  0  0  0  0  0  0  0  0
   63.2156   32.5686   51.2287 H   0  0  0  0  0  0  0  0  0  0  0  0
   62.7990   31.0640   49.6660 H   0  0  0  0  0  0  0  0  0  0  0  0
   62.0964   28.9255   51.4183 H   0  0  0  0  0  0  0  0  0  0  0  0
   61.6232   30.5478   52.0661 H   0  0  0  0  0  0  0  0  0  0  0  0
   59.8263   29.4887   50.6340 H   0  0  0  0  0  0  0  0  0  0  0  0
   59.9146   27.0277   48.3644 H   0  0  0  0  0  0  0  0  0  0  0  0
   58.3215   26.6478   46.4805 H   0  0  0  0  0  0  0  0  0  0  0  0
   58.2784   31.3119   42.1834 H   0  0  0  0  0  0  0  0  0  0  0  0
   59.2132   33.6727   42.7767 H   0  0  0  0  0  0  0  0  0  0  0  0
   58.3105   34.5984   45.0752 H   0  0  0  0  0  0  0  0  0  0  0  0
   58.6191   30.8346   45.4037 H   0  0  0  0  0  0  0  0  0  0  0  0
   60.0679   34.0634   47.8210 H   0  0  0  0  0  0  0  0  0  0  0  0
   59.6323   33.9909   49.5730 H   0  0  0  0  0  0  0  0  0  0  0  0
   62.0036   35.0187   48.5384 H   0  0  0  0  0  0  0  0  0  0  0  0
   61.7418   34.4808   50.2337 H   0  0  0  0  0  0  0  0  0  0  0  0
   64.4146   33.4722   47.9320 H   0  0  0  0  0  0  0  0  0  0  0  0
   63.2484   32.3255   47.1892 H   0  0  0  0  0  0  0  0  0  0  0  0
   62.8992   34.0875   47.1892 H   0  0  0  0  0  0  0  0  0  0  0  0
  1  2  1  0
  2  3  1  0
  3  4  1  0
  4  5  1  0
  5  6  1  0
  6  7  2  0
  7  8  1  0
  8  9  2  0
  9 10  1  0
 10 11  1  0
 11 12  2  0
 11 13  2  0
 11 14  1  0
 14 15  2  0
 15 16  1  0
 16 17  2  0
 17 18  1  0
  9 19  1  0
 19 20  2  0
 20 21  1  0
 21 22  2  0
 21 23  1  0
 23 24  1  0
 24 25  1  0
 25 26  1  0
 26 27  1  0
 23 28  1  0
 28 29  2  0
 28  4  1  0
 20  6  1  0
 18 14  1  0
  1 30  1  0
  1 31  1  0
  1 32  1  0
  2 33  1  0
  3 34  1  0
  3 35  1  0
  4 36  1  1
  7 37  1  0
  8 38  1  0
 15 39  1  0
 16 40  1  0
 17 41  1  0
 19 42  1  0
 24 43  1  0
 24 44  1  0
 25 45  1  0
 25 46  1  0
 27 47  1  0
 27 48  1  0
 27 49  1  0
M  CHG  1  10  -1
M  END
>  <UniqueID>  (79) 
76

>  <SMILES>  (79) 
CNC[C@@H]1Oc2ccc([N-]S(=O)(=O)c3cccs3)cc2C(=O)N(CCOC)C1=O

>  <Energy>  (79) 
101.58838724056588

>  <Genealogy>  (79) 
CNCC1Oc2ccc([N-]S(=O)(=O)c3cccs3)cc2C(=O)N(CCOC)C1=O (protonated)
CNC[C@@H]1Oc2ccc([N-]S(=O)(=O)c3cccs3)cc2C(=O)N(CCOC)C1=O (chirality)
CNC[C@@H]1Oc2ccc([N-]S(=O)(=O)c3cccs3)cc2C(=O)N(CCOC)C1=O (3D coordinates assigned)
CNC[C@@H]1Oc2ccc([N-]S(=O)(=O)c3cccs3)cc2C(=O)N(CCOC)C1=O (nonaromatic ring conformer: 101.58838724056588 kcal/mol)

>  <smiles>  (79) 
CNCC1Oc2ccc(NS(=O)(=O)c3cccs3)cc2C(=O)N(CCOC)C1=O

>  <score_type>  (79) 
oracle

>  <origin>  (79) 
adg

>  <m_score__min__energy>  (79) 
-7.9400000000000004

>  <m_primary>  (79) 
energy

$$$$
79:0
     RDKit          3D

 52 55  0  0  0  0  0  0  0  0999 V2000
   55.9220   29.6350   44.6030 C   0  0  0  0  0  0  0  0  0  0  0  0
   56.6750   30.6940   43.8450 C   0  0  0  0  0  0  0  0  0  0  0  0
   56.6830   30.6820   42.4380 C   0  0  0  0  0  0  0  0  0  0  0  0
   57.3930   31.6540   41.7270 C   0  0  0  0  0  0  0  0  0  0  0  0
   58.0990   32.6470   42.4110 C   0  0  0  0  0  0  0  0  0  0  0  0
   58.0990   32.6690   43.8090 C   0  0  0  0  0  0  0  0  0  0  0  0
   57.4060   31.6850   44.5350 C   0  0  0  0  0  0  0  0  0  0  0  0
   57.3840   31.7230   45.9710 N   0  0  0  0  0  0  0  0  0  0  0  0
   58.5310   31.9220   46.8090 C   0  0  0  0  0  0  0  0  0  0  0  0
   58.5210   32.8650   47.6460 O   0  0  0  0  0  0  0  0  0  0  0  0
   59.6830   30.9540   46.8110 C   0  0  0  0  0  0  0  0  0  0  0  0
   59.2180   29.6040   46.3360 C   0  0  0  0  0  0  0  0  0  0  0  0
   58.4810   28.7710   47.1910 C   0  0  0  0  0  0  0  0  0  0  0  0
   58.0050   27.5370   46.7370 C   0  0  0  0  0  0  0  0  0  0  0  0
   58.2360   27.1290   45.4100 C   0  0  0  0  0  0  0  0  0  0  0  0
   57.7740   25.8570   44.9230 N   0  0  0  0  0  0  0  0  0  0  0  0
   56.5940   25.1880   45.4000 C   0  0  0  0  0  0  0  0  0  0  0  0
   55.6950   25.8380   46.0000 O   0  0  0  0  0  0  0  0  0  0  0  0
   56.3890   23.7930   45.1090 N   0  0  0  0  0  0  0  0  0  0  0  0
   56.2410   23.4170   43.6970 C   0  0  0  0  0  0  0  0  0  0  0  0
   57.0660   22.1760   43.3830 C   0  0  0  0  0  0  0  0  0  0  0  0
   56.2900   20.7570   44.1960 S   0  0  0  0  0  0  0  0  0  0  0  0
   56.4770   21.4070   45.8660 C   0  0  0  0  0  0  0  0  0  0  0  0
   56.6350   20.4750   46.9010 C   0  0  0  0  0  0  0  0  0  0  0  0
   56.6410   20.8870   48.2320 C   0  0  0  0  0  0  0  0  0  0  0  0
   56.4680   22.2350   48.5440 C   0  0  0  0  0  0  0  0  0  0  0  0
   56.3320   23.1790   47.5240 C   0  0  0  0  0  0  0  0  0  0  0  0
   56.3800   22.7930   46.1650 C   0  0  0  0  0  0  0  0  0  0  0  0
   58.9850   27.9590   44.5630 C   0  0  0  0  0  0  0  0  0  0  0  0
   59.4670   29.1900   45.0170 C   0  0  0  0  0  0  0  0  0  0  0  0
   56.0413   29.8028   45.6836 H   0  0  0  0  0  0  0  0  0  0  0  0
   54.8551   29.6844   44.3398 H   0  0  0  0  0  0  0  0  0  0  0  0
   56.3190   28.6435   44.3398 H   0  0  0  0  0  0  0  0  0  0  0  0
   56.1275   29.9035   41.8945 H   0  0  0  0  0  0  0  0  0  0  0  0
   57.3959   31.6370   40.6271 H   0  0  0  0  0  0  0  0  0  0  0  0
   58.6552   33.4119   41.8493 H   0  0  0  0  0  0  0  0  0  0  0  0
   58.6443   33.4607   44.3436 H   0  0  0  0  0  0  0  0  0  0  0  0
   60.4722   31.3248   46.1404 H   0  0  0  0  0  0  0  0  0  0  0  0
   60.0772   30.8621   47.8338 H   0  0  0  0  0  0  0  0  0  0  0  0
   58.2765   29.0901   48.2236 H   0  0  0  0  0  0  0  0  0  0  0  0
   57.4466   26.8812   47.4212 H   0  0  0  0  0  0  0  0  0  0  0  0
   58.2840   25.4170   44.1250 H   0  0  0  0  0  0  0  0  0  0  0  0
   55.1813   23.2091   43.4875 H   0  0  0  0  0  0  0  0  0  0  0  0
   56.5973   24.2475   43.0698 H   0  0  0  0  0  0  0  0  0  0  0  0
   57.0930   22.0127   42.2955 H   0  0  0  0  0  0  0  0  0  0  0  0
   58.0964   22.3040   43.7461 H   0  0  0  0  0  0  0  0  0  0  0  0
   56.7554   19.4085   46.6602 H   0  0  0  0  0  0  0  0  0  0  0  0
   56.7821   20.1496   49.0359 H   0  0  0  0  0  0  0  0  0  0  0  0
   56.4386   22.5555   49.5959 H   0  0  0  0  0  0  0  0  0  0  0  0
   56.1854   24.2383   47.7818 H   0  0  0  0  0  0  0  0  0  0  0  0
   59.1950   27.6382   43.5320 H   0  0  0  0  0  0  0  0  0  0  0  0
   60.0433   29.8368   44.3391 H   0  0  0  0  0  0  0  0  0  0  0  0
  1  2  1  0
  2  3  2  0
  3  4  1  0
  4  5  2  0
  5  6  1  0
  6  7  2  0
  7  8  1  0
  8  9  1  0
  9 10  2  0
  9 11  1  0
 11 12  1  0
 12 13  2  0
 13 14  1  0
 14 15  2  0
 15 16  1  0
 16 17  1  0
 17 18  2  0
 17 19  1  0
 19 20  1  0
 20 21  1  0
 21 22  1  0
 22 23  1  0
 23 24  2  0
 24 25  1  0
 25 26  2  0
 26 27  1  0
 27 28  2  0
 15 29  1  0
 29 30  2  0
  7  2  1  0
 30 12  1  0
 28 19  1  0
 28 23  1  0
  1 31  1  0
  1 32  1  0
  1 33  1  0
  3 34  1  0
  4 35  1  0
  5 36  1  0
  6 37  1  0
 11 38  1  0
 11 39  1  0
 13 40  1  0
 14 41  1  0
 16 42  1  0
 20 43  1  0
 20 44  1  0
 21 45  1  0
 21 46  1  0
 24 47  1  0
 25 48  1  0
 26 49  1  0
 27 50  1  0
 29 51  1  0
 30 52  1  0
M  CHG  1   8  -1
M  END
>  <UniqueID>  (80) 
77

>  <SMILES>  (80) 
Cc1ccccc1[N-]C(=O)Cc1ccc(NC(=O)N2CCSc3ccccc32)cc1

>  <Energy>  (80) 
74.68646482176564

>  <Genealogy>  (80) 
Cc1ccccc1[N-]C(=O)Cc1ccc(NC(=O)N2CCSc3ccccc32)cc1 (protonated)
Cc1ccccc1[N-]C(=O)Cc1ccc(NC(=O)N2CCSc3ccccc32)cc1 (3D coordinates assigned)
Cc1ccccc1[N-]C(=O)Cc1ccc(NC(=O)N2CCSc3ccccc32)cc1 (nonaromatic ring conformer: 74.68646482176564 kcal/mol)

>  <smiles>  (80) 
Cc1ccccc1NC(=O)Cc1ccc(NC(=O)N2CCSc3ccccc32)cc1

>  <score_type>  (80) 
oracle

>  <origin>  (80) 
adg

>  <m_score__min__energy>  (80) 
-10.35

>  <m_primary>  (80) 
energy

$$$$
80:0
     RDKit          3D

 56 59  0  0  0  0  0  0  0  0999 V2000
   57.3050   31.5380   42.1920 C   0  0  0  0  0  0  0  0  0  0  0  0
   57.7650   32.0380   43.5360 C   0  0  0  0  0  0  0  0  0  0  0  0
   58.4630   33.2560   43.6050 C   0  0  0  0  0  0  0  0  0  0  0  0
   58.9330   33.7410   44.8270 C   0  0  0  0  0  0  0  0  0  0  0  0
   58.7010   33.0230   46.0040 C   0  0  0  0  0  0  0  0  0  0  0  0
   59.2990   33.6210   47.5540 S   0  0  0  0  0  0  0  0  0  0  0  0
   58.8070   32.7030   48.6380 O   0  0  0  0  0  0  0  0  0  0  0  0
   58.7020   34.9790   47.8030 O   0  0  0  0  0  0  0  0  0  0  0  0
   61.0470   33.7840   47.6030 N   0  0  0  0  0  0  0  0  0  0  0  0
   61.7850   32.8420   46.7440 C   0  0  0  0  0  0  0  0  0  0  0  0
   62.0360   31.4640   47.3890 C   0  0  0  0  0  0  0  0  0  0  0  0
   61.4820   31.3500   48.7440 N   0  0  0  0  0  0  0  0  0  0  0  0
   61.1900   30.0410   49.2720 C   0  0  0  0  0  0  0  0  0  0  0  0
   61.6520   29.6730   50.5470 C   0  0  0  0  0  0  0  0  0  0  0  0
   61.3640   28.4060   51.0660 C   0  0  0  0  0  0  0  0  0  0  0  0
   60.6260   27.4910   50.3110 C   0  0  0  0  0  0  0  0  0  0  0  0
   60.1640   27.8450   49.0410 C   0  0  0  0  0  0  0  0  0  0  0  0
   60.4380   29.1160   48.5250 C   0  0  0  0  0  0  0  0  0  0  0  0
   61.5620   32.4770   49.6820 C   0  0  0  0  0  0  0  0  0  0  0  0
   61.5950   33.8380   48.9660 C   0  0  0  0  0  0  0  0  0  0  0  0
   57.9920   31.8210   45.9500 C   0  0  0  0  0  0  0  0  0  0  0  0
   57.5290   31.3060   44.7290 C   0  0  0  0  0  0  0  0  0  0  0  0
   56.8270   30.0040   44.7460 C   0  0  0  0  0  0  0  0  0  0  0  0
   55.6400   29.9200   45.1560 O   0  0  0  0  0  0  0  0  0  0  0  0
   57.5200   28.8280   44.3070 N   0  0  0  0  0  0  0  0  0  0  0  0
   57.8640   27.7260   45.1530 C   0  0  0  0  0  0  0  0  0  0  0  0
   59.2190   27.4760   45.4060 C   0  0  0  0  0  0  0  0  0  0  0  0
   59.6020   26.3910   46.1990 C   0  0  0  0  0  0  0  0  0  0  0  0
   58.6320   25.5540   46.7560 C   0  0  0  0  0  0  0  0  0  0  0  0
   57.2760   25.8170   46.5420 C   0  0  0  0  0  0  0  0  0  0  0  0
   56.8810   26.9130   45.7650 C   0  0  0  0  0  0  0  0  0  0  0  0
   55.5190   27.1960   45.6650 O   0  0  0  0  0  0  0  0  0  0  0  0
   56.5664   30.7351   42.3327 H   0  0  0  0  0  0  0  0  0  0  0  0
   56.8454   32.3649   41.6308 H   0  0  0  0  0  0  0  0  0  0  0  0
   58.1673   31.1487   41.6308 H   0  0  0  0  0  0  0  0  0  0  0  0
   58.6410   33.8336   42.6859 H   0  0  0  0  0  0  0  0  0  0  0  0
   59.4872   34.6905   44.8638 H   0  0  0  0  0  0  0  0  0  0  0  0
   61.2064   32.6908   45.8208 H   0  0  0  0  0  0  0  0  0  0  0  0
   62.7726   33.2895   46.5587 H   0  0  0  0  0  0  0  0  0  0  0  0
   61.5734   30.6923   46.7561 H   0  0  0  0  0  0  0  0  0  0  0  0
   63.1254   31.3342   47.4693 H   0  0  0  0  0  0  0  0  0  0  0  0
   62.2437   30.3854   51.1407 H   0  0  0  0  0  0  0  0  0  0  0  0
   61.7191   28.1299   52.0698 H   0  0  0  0  0  0  0  0  0  0  0  0
   60.4087   26.4918   50.7165 H   0  0  0  0  0  0  0  0  0  0  0  0
   59.5843   27.1237   48.4463 H   0  0  0  0  0  0  0  0  0  0  0  0
   60.0631   29.3939   47.5289 H   0  0  0  0  0  0  0  0  0  0  0  0
   60.6841   32.4479   50.3441 H   0  0  0  0  0  0  0  0  0  0  0  0
   62.4993   32.3745   50.2485 H   0  0  0  0  0  0  0  0  0  0  0  0
   61.0046   34.5571   49.5528 H   0  0  0  0  0  0  0  0  0  0  0  0
   62.6492   34.1413   48.8847 H   0  0  0  0  0  0  0  0  0  0  0  0
   57.7930   31.2684   46.8801 H   0  0  0  0  0  0  0  0  0  0  0  0
   59.9862   28.1379   44.9778 H   0  0  0  0  0  0  0  0  0  0  0  0
   60.6685   26.1957   46.3849 H   0  0  0  0  0  0  0  0  0  0  0  0
   58.9353   24.6881   47.3629 H   0  0  0  0  0  0  0  0  0  0  0  0
   56.5147   25.1592   46.9865 H   0  0  0  0  0  0  0  0  0  0  0  0
   55.1460   27.8780   45.0170 H   0  0  0  0  0  0  0  0  0  0  0  0
  1  2  1  0
  2  3  2  0
  3  4  1  0
  4  5  2  0
  5  6  1  0
  6  7  2  0
  6  8  2  0
  6  9  1  0
  9 10  1  0
 10 11  1  0
 11 12  1  0
 12 13  1  0
 13 14  2  0
 14 15  1  0
 15 16  2  0
 16 17  1  0
 17 18  2  0
 12 19  1  0
 19 20  1  0
  5 21  1  0
 21 22  2  0
 22 23  1  0
 23 24  2  0
 23 25  1  0
 25 26  1  0
 26 27  2  0
 27 28  1  0
 28 29  2  0
 29 30  1  0
 30 31  2  0
 31 32  1  0
 22  2  1  0
 31 26  1  0
 20  9  1  0
 18 13  1  0
  1 33  1  0
  1 34  1  0
  1 35  1  0
  3 36  1  0
  4 37  1  0
 10 38  1  0
 10 39  1  0
 11 40  1  0
 11 41  1  0
 14 42  1  0
 15 43  1  0
 16 44  1  0
 17 45  1  0
 18 46  1  0
 19 47  1  0
 19 48  1  0
 20 49  1  0
 20 50  1  0
 21 51  1  0
 27 52  1  0
 28 53  1  0
 29 54  1  0
 30 55  1  0
 32 56  1  0
M  CHG  1  25  -1
M  END
>  <UniqueID>  (81) 
78

>  <SMILES>  (81) 
Cc1ccc(S(=O)(=O)N2CCN(c3ccccc3)CC2)cc1C(=O)[N-]c1ccccc1O

>  <Energy>  (81) 
79.8623202399278

>  <Genealogy>  (81) 
Cc1ccc(S(=O)(=O)N2CCN(c3ccccc3)CC2)cc1C(=O)[N-]c1ccccc1O (protonated)
Cc1ccc(S(=O)(=O)N2CCN(c3ccccc3)CC2)cc1C(=O)[N-]c1ccccc1O (3D coordinates assigned)
Cc1ccc(S(=O)(=O)N2CCN(c3ccccc3)CC2)cc1C(=O)[N-]c1ccccc1O (nonaromatic ring conformer: 79.8623202399278 kcal/mol)

>  <smiles>  (81) 
Cc1ccc(S(=O)(=O)N2CCN(c3ccccc3)CC2)cc1C(=O)Nc1ccccc1O

>  <score_type>  (81) 
oracle

>  <origin>  (81) 
adg

>  <m_score__min__energy>  (81) 
-13.4

>  <m_primary>  (81) 
energy

$$$$
81:0
     RDKit          3D

 53 56  0  0  0  0  0  0  0  0999 V2000
   60.7130   26.5340   49.1390 O   0  0  0  0  0  0  0  0  0  0  0  0
   61.0950   27.7040   48.9420 N   0  0  0  0  0  0  0  0  0  0  0  0
   60.2770   28.6660   48.2710 C   0  0  0  0  0  0  0  0  0  0  0  0
   59.6540   28.5510   47.0370 C   0  0  0  0  0  0  0  0  0  0  0  0
   59.5650   27.3490   46.1800 C   0  0  0  0  0  0  0  0  0  0  0  0
   60.5080   27.0940   45.3830 O   0  0  0  0  0  0  0  0  0  0  0  0
   58.4210   26.4150   46.2770 C   0  0  0  0  0  0  0  0  0  0  0  0
   58.1730   25.7240   47.4770 C   0  0  0  0  0  0  0  0  0  0  0  0
   57.0800   24.8590   47.5800 C   0  0  0  0  0  0  0  0  0  0  0  0
   56.2300   24.6680   46.4880 C   0  0  0  0  0  0  0  0  0  0  0  0
   56.4780   25.3360   45.2860 C   0  0  0  0  0  0  0  0  0  0  0  0
   57.5710   26.2010   45.1770 C   0  0  0  0  0  0  0  0  0  0  0  0
   59.0200   29.7710   46.8180 C   0  0  0  0  0  0  0  0  0  0  0  0
   58.1050   30.0510   45.6930 C   0  0  0  0  0  0  0  0  0  0  0  0
   58.4970   30.9080   44.6540 C   0  0  0  0  0  0  0  0  0  0  0  0
   57.6500   31.1210   43.5630 C   0  0  0  0  0  0  0  0  0  0  0  0
   56.4120   30.4760   43.5000 C   0  0  0  0  0  0  0  0  0  0  0  0
   56.0200   29.6130   44.5290 C   0  0  0  0  0  0  0  0  0  0  0  0
   54.7930   28.9670   44.4620 O   0  0  0  0  0  0  0  0  0  0  0  0
   56.8660   29.3980   45.6230 C   0  0  0  0  0  0  0  0  0  0  0  0
   59.2370   30.6130   47.8610 N   0  0  0  0  0  0  0  0  0  0  0  0
   58.6320   31.9400   48.0420 C   0  0  0  0  0  0  0  0  0  0  0  0
   58.5700   32.2930   49.4570 N   0  0  0  0  0  0  0  0  0  0  0  0
   59.4500   33.2000   50.1340 C   0  0  0  0  0  0  0  0  0  0  0  0
   59.6080   33.0670   51.3770 O   0  0  0  0  0  0  0  0  0  0  0  0
   60.1280   34.3300   49.4040 C   0  0  0  0  0  0  0  0  0  0  0  0
   61.3600   33.8750   48.6640 C   0  0  0  0  0  0  0  0  0  0  0  0
   61.3820   33.8700   47.2600 C   0  0  0  0  0  0  0  0  0  0  0  0
   62.5360   33.4750   46.5750 C   0  0  0  0  0  0  0  0  0  0  0  0
   63.6770   33.0930   47.2870 C   0  0  0  0  0  0  0  0  0  0  0  0
   63.6660   33.1090   48.6850 C   0  0  0  0  0  0  0  0  0  0  0  0
   62.5140   33.5020   49.3730 C   0  0  0  0  0  0  0  0  0  0  0  0
   59.9980   29.9260   48.7480 C   0  0  0  0  0  0  0  0  0  0  0  0
   60.4430   30.4020   49.9820 O   0  0  0  0  0  0  0  0  0  0  0  0
   58.8425   25.8651   48.3383 H   0  0  0  0  0  0  0  0  0  0  0  0
   56.8886   24.3271   48.5236 H   0  0  0  0  0  0  0  0  0  0  0  0
   55.3662   23.9924   46.5743 H   0  0  0  0  0  0  0  0  0  0  0  0
   55.8122   25.1811   44.4242 H   0  0  0  0  0  0  0  0  0  0  0  0
   57.7673   26.7171   44.2256 H   0  0  0  0  0  0  0  0  0  0  0  0
   59.4730   31.4134   44.6981 H   0  0  0  0  0  0  0  0  0  0  0  0
   57.9584   31.7976   42.7524 H   0  0  0  0  0  0  0  0  0  0  0  0
   55.7458   30.6468   42.6415 H   0  0  0  0  0  0  0  0  0  0  0  0
   56.5585   28.7157   46.4292 H   0  0  0  0  0  0  0  0  0  0  0  0
   59.2379   32.6882   47.5099 H   0  0  0  0  0  0  0  0  0  0  0  0
   57.6088   31.9189   47.6388 H   0  0  0  0  0  0  0  0  0  0  0  0
   59.4193   34.7596   48.6807 H   0  0  0  0  0  0  0  0  0  0  0  0
   60.4399   35.0745   50.1513 H   0  0  0  0  0  0  0  0  0  0  0  0
   60.4887   34.1778   46.6968 H   0  0  0  0  0  0  0  0  0  0  0  0
   62.5457   33.4649   45.4751 H   0  0  0  0  0  0  0  0  0  0  0  0
   64.5830   32.7800   46.7475 H   0  0  0  0  0  0  0  0  0  0  0  0
   64.5652   32.8119   49.2446 H   0  0  0  0  0  0  0  0  0  0  0  0
   62.5113   33.5192   50.4729 H   0  0  0  0  0  0  0  0  0  0  0  0
   59.9570   31.1130   50.5090 H   0  0  0  0  0  0  0  0  0  0  0  0
  1  2  2  0
  2  3  1  0
  3  4  1  0
  4  5  1  0
  5  6  2  0
  5  7  1  0
  7  8  2  0
  8  9  1  0
  9 10  2  0
 10 11  1  0
 11 12  2  0
  4 13  2  0
 13 14  1  0
 14 15  2  0
 15 16  1  0
 16 17  2  0
 17 18  1  0
 18 19  1  0
 18 20  2  0
 13 21  1  0
 21 22  1  0
 22 23  1  0
 23 24  1  0
 24 25  2  0
 24 26  1  0
 26 27  1  0
 27 28  2  0
 28 29  1  0
 29 30  2  0
 30 31  1  0
 31 32  2  0
 21 33  1  0
 33 34  1  0
 33  3  2  0
 12  7  1  0
 20 14  1  0
 32 27  1  0
  8 35  1  0
  9 36  1  0
 10 37  1  0
 11 38  1  0
 12 39  1  0
 15 40  1  0
 16 41  1  0
 17 42  1  0
 20 43  1  0
 22 44  1  0
 22 45  1  0
 26 46  1  0
 26 47  1  0
 28 48  1  0
 29 49  1  0
 30 50  1  0
 31 51  1  0
 32 52  1  0
 34 53  1  0
M  CHG  2  19  -1  23  -1
M  END
>  <UniqueID>  (82) 
79

>  <SMILES>  (82) 
O=Nc1c(C(=O)c2ccccc2)c(-c2cccc([O-])c2)n(C[N-]C(=O)Cc2ccccc2)c1O

>  <Energy>  (82) 
97.4451272759938

>  <Genealogy>  (82) 
O=Nc1c(C(=O)c2ccccc2)c(-c2cccc([O-])c2)n(C[N-]C(=O)Cc2ccccc2)c1O (protonated)
O=Nc1c(C(=O)c2ccccc2)c(-c2cccc([O-])c2)n(C[N-]C(=O)Cc2ccccc2)c1O (3D coordinates assigned)
O=Nc1c(C(=O)c2ccccc2)c(-c2cccc([O-])c2)n(C[N-]C(=O)Cc2ccccc2)c1O (optimized conformer: 97.4451272759938 kcal/mol)

>  <smiles>  (82) 
O=Nc1c(C(=O)c2ccccc2)c(-c2cccc(O)c2)n(CNC(=O)Cc2ccccc2)c1O

>  <score_type>  (82) 
oracle

>  <origin>  (82) 
adg

>  <m_score__min__energy>  (82) 
-13.73

>  <m_primary>  (82) 
energy

$$$$
82:0
     RDKit          3D

 52 55  0  0  0  0  0  0  0  0999 V2000
   55.1650   26.6680   45.9960 O   0  0  0  0  0  0  0  0  0  0  0  0
   56.3060   26.2730   46.3540 C   0  0  0  0  0  0  0  0  0  0  0  0
   56.4690   24.8980   46.7300 N   0  0  0  0  0  0  0  0  0  0  0  0
   56.9750   23.8530   45.8870 C   0  0  0  0  0  0  0  0  0  0  0  0
   58.3520   23.7260   45.6350 C   0  0  0  0  0  0  0  0  0  0  0  0
   58.8270   22.7060   44.8070 C   0  0  0  0  0  0  0  0  0  0  0  0
   57.9340   21.8030   44.2250 C   0  0  0  0  0  0  0  0  0  0  0  0
   56.5660   21.9100   44.4830 C   0  0  0  0  0  0  0  0  0  0  0  0
   56.0790   22.9230   45.3240 C   0  0  0  0  0  0  0  0  0  0  0  0
   54.6690   23.0360   45.5690 N   0  0  0  0  0  0  0  0  0  0  0  0
   54.0600   22.2100   46.6150 C   0  0  0  0  0  0  0  0  0  0  0  0
   52.5340   22.3090   46.5610 C   0  0  0  0  0  0  0  0  0  0  0  0
   52.1110   22.4220   45.2200 O   0  0  0  0  0  0  0  0  0  0  0  0
   52.4170   23.7150   44.7320 C   0  0  0  0  0  0  0  0  0  0  0  0
   53.9040   24.0980   44.9040 C   0  0  0  0  0  0  0  0  0  0  0  0
   57.4500   27.2160   46.3220 C   0  0  0  0  0  0  0  0  0  0  0  0
   57.4850   28.2480   45.3700 C   0  0  0  0  0  0  0  0  0  0  0  0
   58.5640   29.1350   45.3260 C   0  0  0  0  0  0  0  0  0  0  0  0
   59.6300   29.0010   46.2320 C   0  0  0  0  0  0  0  0  0  0  0  0
   60.7530   29.8920   46.2270 N   0  0  0  0  0  0  0  0  0  0  0  0
   60.8550   31.3760   47.1170 S   0  0  0  0  0  0  0  0  0  0  0  0
   62.2810   31.8510   47.1190 O   0  0  0  0  0  0  0  0  0  0  0  0
   60.4210   31.1330   48.5350 O   0  0  0  0  0  0  0  0  0  0  0  0
   59.7960   32.5830   46.3950 C   0  0  0  0  0  0  0  0  0  0  0  0
   60.2790   33.8610   46.0780 C   0  0  0  0  0  0  0  0  0  0  0  0
   59.4290   34.8100   45.4980 C   0  0  0  0  0  0  0  0  0  0  0  0
   58.0940   34.4860   45.2350 C   0  0  0  0  0  0  0  0  0  0  0  0
   57.6080   33.2150   45.5530 C   0  0  0  0  0  0  0  0  0  0  0  0
   58.4560   32.2650   46.1320 C   0  0  0  0  0  0  0  0  0  0  0  0
   59.6020   27.9630   47.1700 C   0  0  0  0  0  0  0  0  0  0  0  0
   58.5270   27.0730   47.2140 C   0  0  0  0  0  0  0  0  0  0  0  0
   59.0594   24.4335   46.0922 H   0  0  0  0  0  0  0  0  0  0  0  0
   59.9058   22.6137   44.6130 H   0  0  0  0  0  0  0  0  0  0  0  0
   58.3085   21.0078   43.5636 H   0  0  0  0  0  0  0  0  0  0  0  0
   55.8657   21.1963   44.0245 H   0  0  0  0  0  0  0  0  0  0  0  0
   54.3595   21.1618   46.4678 H   0  0  0  0  0  0  0  0  0  0  0  0
   54.4037   22.5704   47.5958 H   0  0  0  0  0  0  0  0  0  0  0  0
   52.0931   21.4060   47.0084 H   0  0  0  0  0  0  0  0  0  0  0  0
   52.2070   23.1971   47.1217 H   0  0  0  0  0  0  0  0  0  0  0  0
   52.1688   23.7516   43.6610 H   0  0  0  0  0  0  0  0  0  0  0  0
   51.8260   24.4329   45.3196 H   0  0  0  0  0  0  0  0  0  0  0  0
   54.3408   24.2829   43.9115 H   0  0  0  0  0  0  0  0  0  0  0  0
   53.9536   24.9991   45.5329 H   0  0  0  0  0  0  0  0  0  0  0  0
   56.6573   28.3589   44.6540 H   0  0  0  0  0  0  0  0  0  0  0  0
   58.5790   29.9420   44.5786 H   0  0  0  0  0  0  0  0  0  0  0  0
   61.3282   34.1182   46.2856 H   0  0  0  0  0  0  0  0  0  0  0  0
   59.8111   35.8110   45.2490 H   0  0  0  0  0  0  0  0  0  0  0  0
   57.4268   35.2316   44.7779 H   0  0  0  0  0  0  0  0  0  0  0  0
   56.5575   32.9613   45.3478 H   0  0  0  0  0  0  0  0  0  0  0  0
   58.0704   31.2655   46.3817 H   0  0  0  0  0  0  0  0  0  0  0  0
   60.4347   27.8471   47.8794 H   0  0  0  0  0  0  0  0  0  0  0  0
   58.5229   26.2559   47.9504 H   0  0  0  0  0  0  0  0  0  0  0  0
  1  2  2  0
  2  3  1  0
  3  4  1  0
  4  5  2  0
  5  6  1  0
  6  7  2  0
  7  8  1  0
  8  9  2  0
  9 10  1  0
 10 11  1  0
 11 12  1  0
 12 13  1  0
 13 14  1  0
 14 15  1  0
  2 16  1  0
 16 17  2  0
 17 18  1  0
 18 19  2  0
 19 20  1  0
 20 21  1  0
 21 22  2  0
 21 23  2  0
 21 24  1  0
 24 25  2  0
 25 26  1  0
 26 27  2  0
 27 28  1  0
 28 29  2  0
 19 30  1  0
 30 31  2  0
  9  4  1  0
 15 10  1  0
 31 16  1  0
 29 24  1  0
  5 32  1  0
  6 33  1  0
  7 34  1  0
  8 35  1  0
 11 36  1  0
 11 37  1  0
 12 38  1  0
 12 39  1  0
 14 40  1  0
 14 41  1  0
 15 42  1  0
 15 43  1  0
 17 44  1  0
 18 45  1  0
 25 46  1  0
 26 47  1  0
 27 48  1  0
 28 49  1  0
 29 50  1  0
 30 51  1  0
 31 52  1  0
M  CHG  2   3  -1  20  -1
M  END
>  <UniqueID>  (83) 
80

>  <SMILES>  (83) 
O=C([N-]c1ccccc1N1CCOCC1)c1ccc([N-]S(=O)(=O)c2ccccc2)cc1

>  <Energy>  (83) 
76.64239945071347

>  <Genealogy>  (83) 
O=C([N-]c1ccccc1N1CCOCC1)c1ccc([N-]S(=O)(=O)c2ccccc2)cc1 (protonated)
O=C([N-]c1ccccc1N1CCOCC1)c1ccc([N-]S(=O)(=O)c2ccccc2)cc1 (3D coordinates assigned)
O=C([N-]c1ccccc1N1CCOCC1)c1ccc([N-]S(=O)(=O)c2ccccc2)cc1 (nonaromatic ring conformer: 76.64239945071347 kcal/mol)

>  <smiles>  (83) 
O=C(Nc1ccccc1N1CCOCC1)c1ccc(NS(=O)(=O)c2ccccc2)cc1

>  <score_type>  (83) 
oracle

>  <origin>  (83) 
adg

>  <m_score__min__energy>  (83) 
-11.9

>  <m_primary>  (83) 
energy

$$$$
83:0
     RDKit          3D

 54 57  0  0  0  0  0  0  0  0999 V2000
   55.9360   29.7320   43.2090 C   0  0  0  0  0  0  0  0  0  0  0  0
   56.9710   30.1750   44.1940 C   0  0  0  0  0  0  0  0  0  0  0  0
   58.0990   29.3630   44.4500 C   0  0  0  0  0  0  0  0  0  0  0  0
   59.0690   29.7800   45.3880 C   0  0  0  0  0  0  0  0  0  0  0  0
   60.2910   28.9490   45.6540 C   0  0  0  0  0  0  0  0  0  0  0  0
   58.8770   31.0130   46.0250 C   0  0  0  0  0  0  0  0  0  0  0  0
   59.7130   31.5620   46.9440 N   0  0  0  0  0  0  0  0  0  0  0  0
   59.2400   32.7570   47.3820 C   0  0  0  0  0  0  0  0  0  0  0  0
   59.9120   33.5450   48.3880 N   0  0  0  0  0  0  0  0  0  0  0  0
   61.1160   34.3150   48.0440 C   0  0  0  0  0  0  0  0  0  0  0  0
   62.3360   33.6790   48.6570 C   0  0  0  0  0  0  0  0  0  0  0  0
   62.9100   34.2110   49.8240 C   0  0  0  0  0  0  0  0  0  0  0  0
   64.0680   33.6400   50.3630 C   0  0  0  0  0  0  0  0  0  0  0  0
   64.6610   32.5380   49.7420 C   0  0  0  0  0  0  0  0  0  0  0  0
   64.0970   32.0000   48.5820 C   0  0  0  0  0  0  0  0  0  0  0  0
   62.9370   32.5680   48.0400 C   0  0  0  0  0  0  0  0  0  0  0  0
   59.3470   33.6780   49.7400 C   0  0  0  0  0  0  0  0  0  0  0  0
   59.3020   32.3440   50.4400 C   0  0  0  0  0  0  0  0  0  0  0  0
   60.4890   31.7210   50.8550 C   0  0  0  0  0  0  0  0  0  0  0  0
   60.4440   30.4860   51.5040 C   0  0  0  0  0  0  0  0  0  0  0  0
   59.2180   29.8690   51.7550 C   0  0  0  0  0  0  0  0  0  0  0  0
   58.0210   30.4790   51.3590 C   0  0  0  0  0  0  0  0  0  0  0  0
   56.8140   29.8170   51.6450 O   0  0  0  0  0  0  0  0  0  0  0  0
   55.8240   30.2700   52.5710 C   0  0  0  0  0  0  0  0  0  0  0  0
   56.2640   30.0750   53.8710 F   0  0  0  0  0  0  0  0  0  0  0  0
   55.5640   31.6170   52.3650 F   0  0  0  0  0  0  0  0  0  0  0  0
   54.5390   29.4770   52.3610 C   0  0  0  0  0  0  0  0  0  0  0  0
   53.8440   29.9860   51.2790 F   0  0  0  0  0  0  0  0  0  0  0  0
   53.7430   29.5470   53.4900 F   0  0  0  0  0  0  0  0  0  0  0  0
   58.0700   31.7210   50.6980 C   0  0  0  0  0  0  0  0  0  0  0  0
   57.7670   33.1790   46.6410 S   0  0  0  0  0  0  0  0  0  0  0  0
   57.7580   31.7660   45.7390 C   0  0  0  0  0  0  0  0  0  0  0  0
   56.8200   31.3670   44.8480 N   0  0  0  0  0  0  0  0  0  0  0  0
   55.0545   29.3547   43.7481 H   0  0  0  0  0  0  0  0  0  0  0  0
   55.6428   30.5835   42.5773 H   0  0  0  0  0  0  0  0  0  0  0  0
   56.3496   28.9321   42.5773 H   0  0  0  0  0  0  0  0  0  0  0  0
   58.2213   28.4073   43.9193 H   0  0  0  0  0  0  0  0  0  0  0  0
   60.4375   28.8494   46.7396 H   0  0  0  0  0  0  0  0  0  0  0  0
   60.1603   27.9517   45.2086 H   0  0  0  0  0  0  0  0  0  0  0  0
   61.1704   29.4371   45.2086 H   0  0  0  0  0  0  0  0  0  0  0  0
   61.2306   34.3400   46.9503 H   0  0  0  0  0  0  0  0  0  0  0  0
   61.0107   35.3376   48.4353 H   0  0  0  0  0  0  0  0  0  0  0  0
   62.4473   35.0795   50.3156 H   0  0  0  0  0  0  0  0  0  0  0  0
   64.5124   34.0596   51.2776 H   0  0  0  0  0  0  0  0  0  0  0  0
   65.5730   32.0932   50.1666 H   0  0  0  0  0  0  0  0  0  0  0  0
   64.5637   31.1311   48.0950 H   0  0  0  0  0  0  0  0  0  0  0  0
   62.4942   32.1427   47.1273 H   0  0  0  0  0  0  0  0  0  0  0  0
   59.9713   34.3700   50.3243 H   0  0  0  0  0  0  0  0  0  0  0  0
   58.3204   34.0638   49.6545 H   0  0  0  0  0  0  0  0  0  0  0  0
   61.4578   32.2074   50.6683 H   0  0  0  0  0  0  0  0  0  0  0  0
   61.3781   29.9976   51.8186 H   0  0  0  0  0  0  0  0  0  0  0  0
   59.1913   28.8962   52.2677 H   0  0  0  0  0  0  0  0  0  0  0  0
   54.8021   28.4264   52.1689 H   0  0  0  0  0  0  0  0  0  0  0  0
   57.1357   32.2075   50.3810 H   0  0  0  0  0  0  0  0  0  0  0  0
  1  2  1  0
  2  3  2  0
  3  4  1  0
  4  5  1  0
  4  6  2  0
  6  7  1  0
  7  8  2  0
  8  9  1  0
  9 10  1  0
 10 11  1  0
 11 12  2  0
 12 13  1  0
 13 14  2  0
 14 15  1  0
 15 16  2  0
  9 17  1  0
 17 18  1  0
 18 19  2  0
 19 20  1  0
 20 21  2  0
 21 22  1  0
 22 23  1  0
 23 24  1  0
 24 25  1  0
 24 26  1  0
 24 27  1  0
 27 28  1  0
 27 29  1  0
 22 30  2  0
  8 31  1  0
 31 32  1  0
 32 33  2  0
 33  2  1  0
 32  6  1  0
 16 11  1  0
 30 18  1  0
  1 34  1  0
  1 35  1  0
  1 36  1  0
  3 37  1  0
  5 38  1  0
  5 39  1  0
  5 40  1  0
 10 41  1  0
 10 42  1  0
 12 43  1  0
 13 44  1  0
 14 45  1  0
 15 46  1  0
 16 47  1  0
 17 48  1  0
 17 49  1  0
 19 50  1  0
 20 51  1  0
 21 52  1  0
 27 53  1  0
 30 54  1  0
M  END
>  <UniqueID>  (84) 
81

>  <SMILES>  (84) 
Cc1cc(C)c2nc(N(Cc3ccccc3)Cc3cccc(OC(F)(F)C(F)F)c3)sc2n1

>  <Energy>  (84) 
88.18746795259376

>  <Genealogy>  (84) 
Cc1cc(C)c2nc(N(Cc3ccccc3)Cc3cccc(OC(F)(F)C(F)F)c3)sc2n1 (3D coordinates assigned)
Cc1cc(C)c2nc(N(Cc3ccccc3)Cc3cccc(OC(F)(F)C(F)F)c3)sc2n1 (optimized conformer: 88.18746795259376 kcal/mol)

>  <smiles>  (84) 
Cc1cc(C)c2nc(N(Cc3ccccc3)Cc3cccc(OC(F)(F)C(F)F)c3)sc2n1

>  <score_type>  (84) 
oracle

>  <origin>  (84) 
adg

>  <m_score__min__energy>  (84) 
-8.5800000000000001

>  <m_primary>  (84) 
energy

$$$$
84:0
     RDKit          3D

 42 44  0  0  0  0  0  0  0  0999 V2000
   56.7597   33.4278   46.7918 H   0  0  0  0  0  0  0  0  0  0  0  0
   57.7410   33.2020   46.3490 C   0  0  0  0  0  0  0  0  0  0  0  0
   58.5610   34.3140   45.8390 C   0  0  0  0  0  0  0  0  0  0  0  0
   58.3890   34.6970   44.6510 O   0  0  0  0  0  0  0  0  0  0  0  0
   59.5330   34.9500   46.6890 N   0  0  0  0  0  0  0  0  0  0  0  0
   60.5770   34.3960   47.2370 C   0  0  0  0  0  0  0  0  0  0  0  0
   60.7510   34.3900   48.5900 N   0  0  0  0  0  0  0  0  0  0  0  0
   61.8370   33.8130   49.1740 C   0  0  0  0  0  0  0  0  0  0  0  0
   61.9446   33.8251   50.2687 H   0  0  0  0  0  0  0  0  0  0  0  0
   62.8140   33.2060   48.3830 C   0  0  0  0  0  0  0  0  0  0  0  0
   63.6942   32.7382   48.8481 H   0  0  0  0  0  0  0  0  0  0  0  0
   62.6620   33.1990   46.9960 C   0  0  0  0  0  0  0  0  0  0  0  0
   63.4240   32.7240   46.3606 H   0  0  0  0  0  0  0  0  0  0  0  0
   61.5410   33.7960   46.4160 C   0  0  0  0  0  0  0  0  0  0  0  0
   61.4156   33.7953   45.3232 H   0  0  0  0  0  0  0  0  0  0  0  0
   58.1450   31.9260   46.2940 C   0  0  0  0  0  0  0  0  0  0  0  0
   57.8142   31.3046   45.4488 H   0  0  0  0  0  0  0  0  0  0  0  0
   59.0180   31.3170   47.3230 C   0  0  0  0  0  0  0  0  0  0  0  0
   58.8150   31.6860   48.6630 C   0  0  0  0  0  0  0  0  0  0  0  0
   58.0276   32.4114   48.9156 H   0  0  0  0  0  0  0  0  0  0  0  0
   59.6040   31.1400   49.6770 C   0  0  0  0  0  0  0  0  0  0  0  0
   59.4421   31.4422   50.7222 H   0  0  0  0  0  0  0  0  0  0  0  0
   60.5970   30.2120   49.3660 C   0  0  0  0  0  0  0  0  0  0  0  0
   61.2266   29.7934   50.1650 H   0  0  0  0  0  0  0  0  0  0  0  0
   60.7940   29.8130   48.0430 C   0  0  0  0  0  0  0  0  0  0  0  0
   61.5770   29.0778   47.8057 H   0  0  0  0  0  0  0  0  0  0  0  0
   59.9970   30.3450   47.0080 C   0  0  0  0  0  0  0  0  0  0  0  0
   60.1360   29.9170   45.6750 O   0  0  0  0  0  0  0  0  0  0  0  0
   60.0570   28.5650   45.2230 C   0  0  0  0  0  0  0  0  0  0  0  0
   60.2962   28.5287   44.1499 H   0  0  0  0  0  0  0  0  0  0  0  0
   60.7746   27.9588   45.7953 H   0  0  0  0  0  0  0  0  0  0  0  0
   58.6740   28.0100   45.4400 C   0  0  0  0  0  0  0  0  0  0  0  0
   58.4960   26.7340   45.9980 C   0  0  0  0  0  0  0  0  0  0  0  0
   59.3721   26.1346   46.2865 H   0  0  0  0  0  0  0  0  0  0  0  0
   57.2090   26.2230   46.1880 C   0  0  0  0  0  0  0  0  0  0  0  0
   57.0752   25.2261   46.6332 H   0  0  0  0  0  0  0  0  0  0  0  0
   56.0910   26.9750   45.8140 C   0  0  0  0  0  0  0  0  0  0  0  0
   54.8140   26.4610   46.0070 O   0  0  0  0  0  0  0  0  0  0  0  0
   56.2610   28.2440   45.2470 C   0  0  0  0  0  0  0  0  0  0  0  0
   55.1540   28.9940   44.8680 O   0  0  0  0  0  0  0  0  0  0  0  0
   57.5490   28.7570   45.0550 C   0  0  0  0  0  0  0  0  0  0  0  0
   57.6806   29.7500   44.6004 H   0  0  0  0  0  0  0  0  0  0  0  0
  1  2  1  0
  2  3  1  0
  3  4  2  0
  3  5  1  0
  5  6  2  0
  6  7  1  0
  7  8  1  0
  8  9  1  0
  8 10  2  0
 10 11  1  0
 10 12  1  0
 12 13  1  0
 12 14  2  0
 14 15  1  0
  2 16  2  3
 16 17  1  0
 16 18  1  0
 18 19  2  0
 19 20  1  0
 19 21  1  0
 21 22  1  0
 21 23  2  0
 23 24  1  0
 23 25  1  0
 25 26  1  0
 25 27  2  0
 27 28  1  0
 28 29  1  0
 29 30  1  0
 29 31  1  0
 29 32  1  0
 32 33  2  0
 33 34  1  0
 33 35  1  0
 35 36  1  0
 35 37  2  0
 37 38  1  0
 37 39  1  0
 39 40  1  0
 39 41  2  0
 41 42  1  0
 14  6  1  0
 27 18  1  0
 41 32  1  0
M  CHG  3   7  -1  38  -1  40  -1
M  END
>  <UniqueID>  (85) 
82

>  <SMILES>  (85) 
O=C(C=Cc1ccccc1OCc1ccc([O-])c([O-])c1)/N=c1/cccc[n-]1

>  <Energy>  (85) 
51.653496497630606

>  <Genealogy>  (85) 
O=C(C=Cc1ccccc1OCc1ccc([O-])c([O-])c1)N=c1cccc[n-]1 (protonated)
O=C(C=Cc1ccccc1OCc1ccc([O-])c([O-])c1)/N=c1/cccc[n-]1 (cis-trans isomerization)
O=C(C=Cc1ccccc1OCc1ccc([O-])c([O-])c1)/N=c1/cccc[n-]1 (3D coordinates assigned)
O=C(C=Cc1ccccc1OCc1ccc([O-])c([O-])c1)/N=c1/cccc[n-]1 (optimized conformer: 51.653496497630606 kcal/mol)

>  <smiles>  (85) 
O=C(C=Cc1ccccc1OCc1ccc(O)c(O)c1)N=c1cccc[nH]1

>  <score_type>  (85) 
oracle

>  <origin>  (85) 
adg

>  <m_score__min__energy>  (85) 
-17.489999999999998

>  <m_primary>  (85) 
energy

$$$$
85:0
     RDKit          3D

 50 52  0  0  0  0  0  0  0  0999 V2000
   56.7940   26.8850   46.9760 O   0  0  0  0  0  0  0  0  0  0  0  0
   56.7780   27.1680   45.7470 C   0  0  0  0  0  0  0  0  0  0  0  0
   57.6900   26.4470   44.8050 C   0  0  0  0  0  0  0  0  0  0  0  0
   58.1600   25.1220   45.4130 C   0  0  0  0  0  0  0  0  0  0  0  0
   57.6340   23.9590   44.6150 C   0  0  0  0  0  0  0  0  0  0  0  0
   58.3180   22.7310   44.6110 C   0  0  0  0  0  0  0  0  0  0  0  0
   57.8400   21.6630   43.8430 C   0  0  0  0  0  0  0  0  0  0  0  0
   56.6890   21.8180   43.0640 C   0  0  0  0  0  0  0  0  0  0  0  0
   56.0160   23.0410   43.0500 C   0  0  0  0  0  0  0  0  0  0  0  0
   56.4850   24.1100   43.8200 C   0  0  0  0  0  0  0  0  0  0  0  0
   55.9000   28.1820   45.2480 N   0  0  0  0  0  0  0  0  0  0  0  0
   56.3500   29.5230   44.8830 C   0  0  1  0  0  0  0  0  0  0  0  0
   57.6210   29.9010   45.6760 C   0  0  0  0  0  0  0  0  0  0  0  0
   58.6320   30.7130   44.8390 C   0  0  0  0  0  0  0  0  0  0  0  0
   57.9750   31.6700   43.9160 N   0  0  2  0  0  0  0  0  0  0  0  0
   57.3160   32.7690   44.6710 C   0  0  0  0  0  0  0  0  0  0  0  0
   58.2460   33.4060   45.6800 C   0  0  0  0  0  0  0  0  0  0  0  0
   58.1920   33.0210   47.0300 C   0  0  0  0  0  0  0  0  0  0  0  0
   59.0390   33.6200   47.9680 C   0  0  0  0  0  0  0  0  0  0  0  0
   59.9460   34.6040   47.5650 C   0  0  0  0  0  0  0  0  0  0  0  0
   60.0080   34.9920   46.2230 C   0  0  0  0  0  0  0  0  0  0  0  0
   59.1620   34.3970   45.2830 C   0  0  0  0  0  0  0  0  0  0  0  0
   57.0510   30.9960   42.9510 C   0  0  0  0  0  0  0  0  0  0  0  0
   56.6050   29.5820   43.3770 C   0  0  0  0  0  0  0  0  0  0  0  0
   57.1525   26.2433   43.8672 H   0  0  0  0  0  0  0  0  0  0  0  0
   58.5695   27.0787   44.6117 H   0  0  0  0  0  0  0  0  0  0  0  0
   59.2596   25.0935   45.4124 H   0  0  0  0  0  0  0  0  0  0  0  0
   57.7790   25.0482   46.4423 H   0  0  0  0  0  0  0  0  0  0  0  0
   59.2308   22.6092   45.2127 H   0  0  0  0  0  0  0  0  0  0  0  0
   58.3708   20.6996   43.8522 H   0  0  0  0  0  0  0  0  0  0  0  0
   56.3141   20.9767   42.4626 H   0  0  0  0  0  0  0  0  0  0  0  0
   55.1145   23.1641   42.4318 H   0  0  0  0  0  0  0  0  0  0  0  0
   55.9527   25.0725   43.8034 H   0  0  0  0  0  0  0  0  0  0  0  0
   55.5671   30.2523   45.1382 H   0  0  0  0  0  0  0  0  0  0  0  0
   58.1099   28.9765   46.0168 H   0  0  0  0  0  0  0  0  0  0  0  0
   57.3077   30.5335   46.5197 H   0  0  0  0  0  0  0  0  0  0  0  0
   59.2398   30.0136   44.2462 H   0  0  0  0  0  0  0  0  0  0  0  0
   59.2484   31.2968   45.5384 H   0  0  0  0  0  0  0  0  0  0  0  0
   58.7530   32.0980   43.3580 H   0  0  0  0  0  0  0  0  0  0  0  0
   56.9847   33.5391   43.9589 H   0  0  0  0  0  0  0  0  0  0  0  0
   56.4651   32.3391   45.2199 H   0  0  0  0  0  0  0  0  0  0  0  0
   57.4808   32.2455   47.3505 H   0  0  0  0  0  0  0  0  0  0  0  0
   58.9913   33.3163   49.0242 H   0  0  0  0  0  0  0  0  0  0  0  0
   60.6117   35.0737   48.3041 H   0  0  0  0  0  0  0  0  0  0  0  0
   60.7230   35.7659   45.9070 H   0  0  0  0  0  0  0  0  0  0  0  0
   59.2127   34.7050   44.2282 H   0  0  0  0  0  0  0  0  0  0  0  0
   57.5642   30.9173   41.9812 H   0  0  0  0  0  0  0  0  0  0  0  0
   56.1407   31.6119   42.9059 H   0  0  0  0  0  0  0  0  0  0  0  0
   57.3942   28.8613   43.1165 H   0  0  0  0  0  0  0  0  0  0  0  0
   55.6709   29.3341   42.8516 H   0  0  0  0  0  0  0  0  0  0  0  0
  1  2  2  0
  2  3  1  0
  3  4  1  0
  4  5  1  0
  5  6  2  0
  6  7  1  0
  7  8  2  0
  8  9  1  0
  9 10  2  0
  2 11  1  0
 11 12  1  0
 12 13  1  0
 13 14  1  0
 14 15  1  0
 15 16  1  0
 16 17  1  0
 17 18  2  0
 18 19  1  0
 19 20  2  0
 20 21  1  0
 21 22  2  0
 15 23  1  0
 23 24  1  0
 10  5  1  0
 24 12  1  0
 22 17  1  0
  3 25  1  0
  3 26  1  0
  4 27  1  0
  4 28  1  0
  6 29  1  0
  7 30  1  0
  8 31  1  0
  9 32  1  0
 10 33  1  0
 12 34  1  6
 13 35  1  0
 13 36  1  0
 14 37  1  0
 14 38  1  0
 15 39  1  6
 16 40  1  0
 16 41  1  0
 18 42  1  0
 19 43  1  0
 20 44  1  0
 21 45  1  0
 22 46  1  0
 23 47  1  0
 23 48  1  0
 24 49  1  0
 24 50  1  0
M  CHG  2  11  -1  15   1
M  END
>  <UniqueID>  (86) 
83

>  <SMILES>  (86) 
O=C(CCc1ccccc1)[N-]C1CC[NH+](Cc2ccccc2)CC1

>  <Energy>  (86) 
55.24331801712537

>  <Genealogy>  (86) 
O=C(CCc1ccccc1)[N-]C1CC[NH+](Cc2ccccc2)CC1 (protonated)
O=C(CCc1ccccc1)[N-]C1CC[NH+](Cc2ccccc2)CC1 (3D coordinates assigned)
O=C(CCc1ccccc1)[N-]C1CC[NH+](Cc2ccccc2)CC1 (nonaromatic ring conformer: 55.24331801712537 kcal/mol)

>  <smiles>  (86) 
O=C(CCc1ccccc1)NC1CCN(Cc2ccccc2)CC1

>  <score_type>  (86) 
oracle

>  <origin>  (86) 
adg

>  <m_score__min__energy>  (86) 
-8.9700000000000006

>  <m_primary>  (86) 
energy

$$$$
86:0
     RDKit          3D

 41 43  0  0  0  0  0  0  0  0999 V2000
   58.9589   20.9662   43.0136 H   0  0  0  0  0  0  0  0  0  0  0  0
   58.1270   21.5330   43.4570 C   0  0  0  0  0  0  0  0  0  0  0  0
   56.9960   21.8170   42.6960 C   0  0  0  0  0  0  0  0  0  0  0  0
   56.9290   21.4614   41.6572 H   0  0  0  0  0  0  0  0  0  0  0  0
   55.9480   22.5520   43.2500 C   0  0  0  0  0  0  0  0  0  0  0  0
   55.0561   22.7691   42.6439 H   0  0  0  0  0  0  0  0  0  0  0  0
   56.0190   23.0190   44.5760 C   0  0  0  0  0  0  0  0  0  0  0  0
   54.8770   23.8530   45.0990 C   0  0  0  0  0  0  0  0  0  0  0  0
   54.8898   23.8437   46.1989 H   0  0  0  0  0  0  0  0  0  0  0  0
   54.9837   24.8872   44.7398 H   0  0  0  0  0  0  0  0  0  0  0  0
   53.9243   23.4366   44.7398 H   0  0  0  0  0  0  0  0  0  0  0  0
   57.1560   22.6970   45.3670 C   0  0  0  0  0  0  0  0  0  0  0  0
   57.2870   23.0920   46.7950 C   0  0  0  0  0  0  0  0  0  0  0  0
   57.0210   22.2470   47.6950 O   0  0  0  0  0  0  0  0  0  0  0  0
   57.6700   24.4320   47.1460 N   0  0  0  0  0  0  0  0  0  0  0  0
   57.2320   25.5260   46.5980 C   0  0  0  0  0  0  0  0  0  0  0  0
   55.9430   25.9370   46.6290 N   0  0  0  0  0  0  0  0  0  0  0  0
   55.7480   27.0820   45.9780 N   0  0  0  0  0  0  0  0  0  0  0  0
   56.8800   27.5790   45.4310 C   0  0  0  0  0  0  0  0  0  0  0  0
   56.9290   29.0630   44.4990 S   0  0  0  0  0  0  0  0  0  0  0  0
   57.0210   28.7080   43.0420 O   0  0  0  0  0  0  0  0  0  0  0  0
   55.6740   29.8600   44.7160 O   0  0  0  0  0  0  0  0  0  0  0  0
   58.3190   30.0030   44.9470 N   0  0  0  0  0  0  0  0  0  0  0  0
   59.2150   29.4830   45.0710 H   0  0  0  0  0  0  0  0  0  0  0  0
   58.2380   31.3970   45.3010 C   0  0  0  0  0  0  0  0  0  0  0  0
   58.4180   31.8060   46.6350 C   0  0  0  0  0  0  0  0  0  0  0  0
   58.6210   31.0538   47.4115 H   0  0  0  0  0  0  0  0  0  0  0  0
   58.3420   33.1560   46.9850 C   0  0  0  0  0  0  0  0  0  0  0  0
   58.5017   33.4620   48.0294 H   0  0  0  0  0  0  0  0  0  0  0  0
   58.0640   34.1170   46.0130 C   0  0  0  0  0  0  0  0  0  0  0  0
   58.0001   35.1792   46.2916 H   0  0  0  0  0  0  0  0  0  0  0  0
   57.8670   33.7300   44.6870 C   0  0  0  0  0  0  0  0  0  0  0  0
   57.6359   34.4904   43.9265 H   0  0  0  0  0  0  0  0  0  0  0  0
   57.9610   32.3770   44.3130 C   0  0  0  0  0  0  0  0  0  0  0  0
   57.7490   31.9960   42.8730 C   0  0  0  0  0  0  0  0  0  0  0  0
   57.2147   31.0358   42.8226 H   0  0  0  0  0  0  0  0  0  0  0  0
   57.1538   32.7735   42.3718 H   0  0  0  0  0  0  0  0  0  0  0  0
   58.7235   31.9001   42.3718 H   0  0  0  0  0  0  0  0  0  0  0  0
   58.2100   26.5900   45.7390 S   0  0  0  0  0  0  0  0  0  0  0  0
   58.2070   21.9660   44.7810 C   0  0  0  0  0  0  0  0  0  0  0  0
   59.1031   21.7331   45.3749 H   0  0  0  0  0  0  0  0  0  0  0  0
  1  2  1  0
  2  3  2  0
  3  4  1  0
  3  5  1  0
  5  6  1  0
  5  7  2  0
  7  8  1  0
  8  9  1  0
  8 10  1  0
  8 11  1  0
  7 12  1  0
 12 13  1  0
 13 14  2  0
 13 15  1  0
 15 16  2  0
 16 17  1  0
 17 18  1  0
 18 19  2  0
 19 20  1  0
 20 21  2  0
 20 22  2  0
 20 23  1  0
 23 24  1  0
 23 25  1  0
 25 26  2  0
 26 27  1  0
 26 28  1  0
 28 29  1  0
 28 30  2  0
 30 31  1  0
 30 32  1  0
 32 33  1  0
 32 34  2  0
 34 35  1  0
 35 36  1  0
 35 37  1  0
 35 38  1  0
 19 39  1  0
 12 40  2  0
 40 41  1  0
 40  2  1  0
 39 16  1  0
 34 25  1  0
M  CHG  1  17  -1
M  END
>  <UniqueID>  (87) 
84

>  <SMILES>  (87) 
Cc1ccccc1NS(=O)(=O)c1n[n-]/c(=N\C(=O)c2ccccc2C)s1

>  <Energy>  (87) 
89.12702346629683

>  <Genealogy>  (87) 
Cc1ccccc1NS(=O)(=O)c1n[n-]c(=NC(=O)c2ccccc2C)s1 (protonated)
Cc1ccccc1NS(=O)(=O)c1n[n-]/c(=N\C(=O)c2ccccc2C)s1 (cis-trans isomerization)
Cc1ccccc1NS(=O)(=O)c1n[n-]/c(=N\C(=O)c2ccccc2C)s1 (3D coordinates assigned)
Cc1ccccc1NS(=O)(=O)c1n[n-]/c(=N\C(=O)c2ccccc2C)s1 (optimized conformer: 89.12702346629683 kcal/mol)

>  <smiles>  (87) 
Cc1ccccc1NS(=O)(=O)c1n[nH]c(=NC(=O)c2ccccc2C)s1

>  <score_type>  (87) 
oracle

>  <origin>  (87) 
adg

>  <m_score__min__energy>  (87) 
-10.630000000000001

>  <m_primary>  (87) 
energy

$$$$
87:0
     RDKit          3D

 60 63  0  0  0  0  0  0  0  0999 V2000
   57.7790   32.8737   49.8065 H   0  0  0  0  0  0  0  0  0  0  0  0
   58.8430   32.6670   49.9940 C   0  0  0  0  0  0  0  0  0  0  0  0
   59.4670   31.5990   49.3480 C   0  0  0  0  0  0  0  0  0  0  0  0
   58.8959   30.9795   48.6408 H   0  0  0  0  0  0  0  0  0  0  0  0
   60.8170   31.3100   49.5940 C   0  0  0  0  0  0  0  0  0  0  0  0
   61.5490   32.1110   50.4960 C   0  0  0  0  0  0  0  0  0  0  0  0
   60.9120   33.1900   51.1360 C   0  0  0  0  0  0  0  0  0  0  0  0
   61.4784   33.8131   51.8438 H   0  0  0  0  0  0  0  0  0  0  0  0
   59.5670   33.4800   50.8830 C   0  0  0  0  0  0  0  0  0  0  0  0
   58.9930   34.5880   51.5260 O   0  0  0  0  0  0  0  0  0  0  0  0
   58.3200   34.5290   52.7790 C   0  0  0  0  0  0  0  0  0  0  0  0
   59.0560   34.5935   53.5939 H   0  0  0  0  0  0  0  0  0  0  0  0
   57.6135   35.3687   52.8557 H   0  0  0  0  0  0  0  0  0  0  0  0
   57.7704   33.5792   52.8557 H   0  0  0  0  0  0  0  0  0  0  0  0
   63.0140   31.8260   50.7670 C   0  0  0  0  0  0  0  0  0  0  0  0
   63.3680   32.5173   51.5460 H   0  0  0  0  0  0  0  0  0  0  0  0
   63.0930   30.7761   51.0854 H   0  0  0  0  0  0  0  0  0  0  0  0
   63.8600   31.9910   49.5720 N   0  0  0  0  0  0  0  0  0  0  0  0
   65.3160   32.0300   49.7480 C   0  0  0  0  0  0  0  0  0  0  0  0
   65.5555   32.0364   50.8216 H   0  0  0  0  0  0  0  0  0  0  0  0
   65.7661   31.1436   49.2772 H   0  0  0  0  0  0  0  0  0  0  0  0
   65.7180   32.9392   49.2772 H   0  0  0  0  0  0  0  0  0  0  0  0
   63.3330   31.9630   48.2280 C   0  0  0  0  0  0  0  0  0  0  0  0
   63.6440   32.9290   47.4020 N   0  0  0  0  0  0  0  0  0  0  0  0
   64.6420   33.2310   47.3330 H   0  0  0  0  0  0  0  0  0  0  0  0
   62.6760   33.7300   46.6450 C   0  0  0  0  0  0  0  0  0  0  0  0
   63.0852   34.7409   46.5013 H   0  0  0  0  0  0  0  0  0  0  0  0
   62.5018   33.2333   45.6791 H   0  0  0  0  0  0  0  0  0  0  0  0
   61.3270   33.8380   47.3780 C   0  0  0  0  0  0  0  0  0  0  0  0
   60.9722   32.8250   47.6186 H   0  0  0  0  0  0  0  0  0  0  0  0
   61.4840   34.4334   48.2895 H   0  0  0  0  0  0  0  0  0  0  0  0
   60.2600   34.5480   46.5270 C   0  0  0  0  0  0  0  0  0  0  0  0
   60.1676   35.5885   46.8718 H   0  0  0  0  0  0  0  0  0  0  0  0
   60.5814   34.4994   45.4761 H   0  0  0  0  0  0  0  0  0  0  0  0
   58.8870   33.8710   46.6290 C   0  0  0  0  0  0  0  0  0  0  0  0
   58.8562   33.2677   47.5483 H   0  0  0  0  0  0  0  0  0  0  0  0
   58.1202   34.6596   46.6439 H   0  0  0  0  0  0  0  0  0  0  0  0
   58.6100   32.9780   45.4540 C   0  0  0  0  0  0  0  0  0  0  0  0
   58.4020   33.3840   44.1390 C   0  0  0  0  0  0  0  0  0  0  0  0
   58.4643   34.4230   43.7832 H   0  0  0  0  0  0  0  0  0  0  0  0
   58.1120   32.3150   43.3620 N   0  0  0  0  0  0  0  0  0  0  0  0
   57.7680   32.3500   41.9440 C   0  0  0  0  0  0  0  0  0  0  0  0
   56.6792   32.4608   41.8335 H   0  0  0  0  0  0  0  0  0  0  0  0
   58.2737   33.2013   41.4649 H   0  0  0  0  0  0  0  0  0  0  0  0
   58.0919   31.4143   41.4649 H   0  0  0  0  0  0  0  0  0  0  0  0
   58.1090   31.2400   44.1760 C   0  0  0  0  0  0  0  0  0  0  0  0
   57.8250   29.9120   43.8470 C   0  0  0  0  0  0  0  0  0  0  0  0
   57.5771   29.6240   42.8147 H   0  0  0  0  0  0  0  0  0  0  0  0
   57.8660   28.9550   44.8770 C   0  0  0  0  0  0  0  0  0  0  0  0
   57.6519   27.9000   44.6510 H   0  0  0  0  0  0  0  0  0  0  0  0
   58.1800   29.3390   46.1990 C   0  0  0  0  0  0  0  0  0  0  0  0
   58.2088   28.5811   46.9957 H   0  0  0  0  0  0  0  0  0  0  0  0
   58.4560   30.6830   46.5040 C   0  0  0  0  0  0  0  0  0  0  0  0
   58.6982   30.9937   47.5310 H   0  0  0  0  0  0  0  0  0  0  0  0
   58.4130   31.6100   45.4630 C   0  0  0  0  0  0  0  0  0  0  0  0
   62.4230   30.9150   47.8330 N   0  0  0  0  0  0  0  0  0  0  0  0
   62.3350   30.6470   46.8270 H   0  0  0  0  0  0  0  0  0  0  0  0
   61.5260   30.2610   48.7800 C   0  0  0  0  0  0  0  0  0  0  0  0
   60.7868   29.6590   48.2312 H   0  0  0  0  0  0  0  0  0  0  0  0
   62.1057   29.6050   49.4461 H   0  0  0  0  0  0  0  0  0  0  0  0
  1  2  1  0
  2  3  2  0
  3  4  1  0
  3  5  1  0
  5  6  2  0
  6  7  1  0
  7  8  1  0
  7  9  2  0
  9 10  1  0
 10 11  1  0
 11 12  1  0
 11 13  1  0
 11 14  1  0
  6 15  1  0
 15 16  1  0
 15 17  1  0
 15 18  1  0
 18 19  1  0
 19 20  1  0
 19 21  1  0
 19 22  1  0
 18 23  1  0
 23 24  2  0
 24 25  1  0
 24 26  1  0
 26 27  1  0
 26 28  1  0
 26 29  1  0
 29 30  1  0
 29 31  1  0
 29 32  1  0
 32 33  1  0
 32 34  1  0
 32 35  1  0
 35 36  1  0
 35 37  1  0
 35 38  1  0
 38 39  2  0
 39 40  1  0
 39 41  1  0
 41 42  1  0
 42 43  1  0
 42 44  1  0
 42 45  1  0
 41 46  1  0
 46 47  2  0
 47 48  1  0
 47 49  1  0
 49 50  1  0
 49 51  2  0
 51 52  1  0
 51 53  1  0
 53 54  1  0
 53 55  2  0
 23 56  1  0
 56 57  1  0
 56 58  1  0
 58 59  1  0
 58 60  1  0
  9  2  1  0
 55 38  1  0
 58  5  1  0
 55 46  1  0
M  CHG  1  24   1
M  END
>  <UniqueID>  (88) 
85

>  <SMILES>  (88) 
COc1ccc2c(c1)CN(C)/C(=[NH+]/CCCCc1cn(C)c3ccccc13)NC2

>  <Energy>  (88) 
95.50776279208914

>  <Genealogy>  (88) 
COc1ccc2c(c1)CN(C)C(=[NH+]CCCCc1cn(C)c3ccccc13)NC2 (protonated)
COc1ccc2c(c1)CN(C)/C(=[NH+]/CCCCc1cn(C)c3ccccc13)NC2 (cis-trans isomerization)
COc1ccc2c(c1)CN(C)/C(=[NH+]/CCCCc1cn(C)c3ccccc13)NC2 (3D coordinates assigned)
COc1ccc2c(c1)CN(C)/C(=[NH+]/CCCCc1cn(C)c3ccccc13)NC2 (nonaromatic ring conformer: 95.50776279208914 kcal/mol)

>  <smiles>  (88) 
COc1ccc2c(c1)CN(C)C(=NCCCCc1cn(C)c3ccccc13)NC2

>  <score_type>  (88) 
oracle

>  <origin>  (88) 
adg

>  <m_score__min__energy>  (88) 
-7.8499999999999996

>  <m_primary>  (88) 
energy

$$$$
88:0
     RDKit          3D

 29 30  0  0  0  0  0  0  0  0999 V2000
   60.9020   25.9240   46.0490 H   0  0  0  0  0  0  0  0  0  0  0  0
   60.1680   25.2780   46.3130 O   0  0  0  0  0  0  0  0  0  0  0  0
   58.8230   25.6330   46.2340 C   0  0  0  0  0  0  0  0  0  0  0  0
   57.8250   24.7450   46.6570 C   0  0  0  0  0  0  0  0  0  0  0  0
   58.1004   23.7542   47.0476 H   0  0  0  0  0  0  0  0  0  0  0  0
   56.4810   25.1170   46.5830 C   0  0  0  0  0  0  0  0  0  0  0  0
   55.7010   24.4228   46.9290 H   0  0  0  0  0  0  0  0  0  0  0  0
   56.1220   26.3680   46.0710 C   0  0  0  0  0  0  0  0  0  0  0  0
   54.7770   26.7160   46.0010 O   0  0  0  0  0  0  0  0  0  0  0  0
   57.1150   27.2550   45.6180 C   0  0  0  0  0  0  0  0  0  0  0  0
   56.7290   28.5780   45.0740 C   0  0  0  0  0  0  0  0  0  0  0  0
   55.7458   28.6594   44.5875 H   0  0  0  0  0  0  0  0  0  0  0  0
   57.4870   29.6860   45.1290 C   0  0  0  0  0  0  0  0  0  0  0  0
   58.5497   29.5598   45.3833 H   0  0  0  0  0  0  0  0  0  0  0  0
   57.0070   31.0620   44.8750 C   0  0  0  0  0  0  0  0  0  0  0  0
   55.9290   31.2060   44.2360 O   0  0  0  0  0  0  0  0  0  0  0  0
   57.7610   32.2670   45.2970 C   0  0  0  0  0  0  0  0  0  0  0  0
   57.8540   33.3940   44.4610 C   0  0  0  0  0  0  0  0  0  0  0  0
   57.3424   33.3955   43.4872 H   0  0  0  0  0  0  0  0  0  0  0  0
   58.5920   34.5120   44.8590 C   0  0  0  0  0  0  0  0  0  0  0  0
   58.6689   35.3846   44.1937 H   0  0  0  0  0  0  0  0  0  0  0  0
   59.2330   34.5230   46.1020 C   0  0  0  0  0  0  0  0  0  0  0  0
   59.9680   35.6340   46.4950 O   0  0  0  0  0  0  0  0  0  0  0  0
   59.1290   33.4160   46.9490 C   0  0  0  0  0  0  0  0  0  0  0  0
   59.6280   33.4266   47.9293 H   0  0  0  0  0  0  0  0  0  0  0  0
   58.3930   32.2960   46.5540 C   0  0  0  0  0  0  0  0  0  0  0  0
   58.3071   31.4320   47.2294 H   0  0  0  0  0  0  0  0  0  0  0  0
   58.4690   26.8870   45.7290 C   0  0  0  0  0  0  0  0  0  0  0  0
   59.2539   27.5913   45.4161 H   0  0  0  0  0  0  0  0  0  0  0  0
  1  2  1  0
  2  3  1  0
  3  4  2  0
  4  5  1  0
  4  6  1  0
  6  7  1  0
  6  8  2  0
  8  9  1  0
  8 10  1  0
 10 11  1  0
 11 12  1  0
 11 13  2  0
 13 14  1  0
 13 15  1  0
 15 16  2  0
 15 17  1  0
 17 18  2  0
 18 19  1  0
 18 20  1  0
 20 21  1  0
 20 22  2  0
 22 23  1  0
 22 24  1  0
 24 25  1  0
 24 26  2  0
 26 27  1  0
 10 28  2  0
 28 29  1  0
 28  3  1  0
 26 17  1  0
M  CHG  2   9  -1  23  -1
M  END
>  <UniqueID>  (89) 
86

>  <SMILES>  (89) 
O=C(/C=C\c1cc(O)ccc1[O-])c1ccc([O-])cc1

>  <Energy>  (89) 
40.19323966004726

>  <Genealogy>  (89) 
O=C(C=Cc1cc(O)ccc1[O-])c1ccc([O-])cc1 (protonated)
O=C(/C=C\c1cc(O)ccc1[O-])c1ccc([O-])cc1 (cis-trans isomerization)
O=C(/C=C\c1cc(O)ccc1[O-])c1ccc([O-])cc1 (3D coordinates assigned)
O=C(/C=C\c1cc(O)ccc1[O-])c1ccc([O-])cc1 (optimized conformer: 40.19323966004726 kcal/mol)

>  <smiles>  (89) 
O=C(C=Cc1cc(O)ccc1O)c1ccc(O)cc1

>  <score_type>  (89) 
oracle

>  <origin>  (89) 
adg

>  <m_score__min__energy>  (89) 
-11.210000000000001

>  <m_primary>  (89) 
energy

$$$$
89:0
     RDKit          3D

 41 45  0  0  0  0  0  0  0  0999 V2000
   55.1450   27.4690   45.3200 H   0  0  0  0  0  0  0  0  0  0  0  0
   55.0170   26.7100   45.9780 O   0  0  0  0  0  0  0  0  0  0  0  0
   56.0400   25.8080   46.2590 C   0  0  0  0  0  0  0  0  0  0  0  0
   55.8460   24.6650   46.9360 N   0  0  0  0  0  0  0  0  0  0  0  0
   57.0660   24.0890   46.9080 C   0  0  0  0  0  0  0  0  0  0  0  0
   57.3020   22.9740   47.4410 O   0  0  0  0  0  0  0  0  0  0  0  0
   58.0130   24.7970   46.2550 N   0  0  0  0  0  0  0  0  0  0  0  0
   57.3600   25.9050   45.8640 C   0  0  0  0  0  0  0  0  0  0  0  0
   57.9710   26.9470   45.0220 C   0  0  0  0  0  0  0  0  0  0  0  0
   58.7107   26.6333   44.2707 H   0  0  0  0  0  0  0  0  0  0  0  0
   57.6840   28.2530   45.1120 C   0  0  0  0  0  0  0  0  0  0  0  0
   56.6050   28.8940   44.5200 C   0  0  0  0  0  0  0  0  0  0  0  0
   55.8380   28.4035   43.9026 H   0  0  0  0  0  0  0  0  0  0  0  0
   56.6390   30.2130   44.8170 N   0  0  0  0  0  0  0  0  0  0  0  0
   57.7050   30.4370   45.5670 N   0  0  0  0  0  0  0  0  0  0  0  0
   58.1850   31.6070   46.0990 C   0  0  0  0  0  0  0  0  0  0  0  0
   57.6170   32.7860   46.0060 N   0  0  0  0  0  0  0  0  0  0  0  0
   57.9260   34.2220   45.8580 C   0  0  0  0  0  0  0  0  0  0  0  0
   56.8693   34.4897   45.7109 H   0  0  0  0  0  0  0  0  0  0  0  0
   59.2180   34.5960   45.1700 C   0  0  0  0  0  0  0  0  0  0  0  0
   59.8819   33.8110   44.7787 H   0  0  0  0  0  0  0  0  0  0  0  0
   59.4944   35.2466   44.3272 H   0  0  0  0  0  0  0  0  0  0  0  0
   59.0570   34.7840   46.6880 C   0  0  0  0  0  0  0  0  0  0  0  0
   59.6053   34.1338   47.3856 H   0  0  0  0  0  0  0  0  0  0  0  0
   59.1697   35.6255   47.3874 H   0  0  0  0  0  0  0  0  0  0  0  0
   59.3550   31.5390   46.7940 N   0  0  0  0  0  0  0  0  0  0  0  0
   60.0350   30.3670   46.9470 C   0  0  0  0  0  0  0  0  0  0  0  0
   61.1420   30.3620   47.6300 N   0  0  0  0  0  0  0  0  0  0  0  0
   61.7140   31.4780   48.3330 C   0  0  0  0  0  0  0  0  0  0  0  0
   62.9370   32.0010   47.8930 C   0  0  0  0  0  0  0  0  0  0  0  0
   63.4257   31.5757   47.0040 H   0  0  0  0  0  0  0  0  0  0  0  0
   63.5400   33.0610   48.5780 C   0  0  0  0  0  0  0  0  0  0  0  0
   64.4893   33.4812   48.2143 H   0  0  0  0  0  0  0  0  0  0  0  0
   62.9370   33.5870   49.7250 C   0  0  0  0  0  0  0  0  0  0  0  0
   63.5370   34.6390   50.4050 O   0  0  0  0  0  0  0  0  0  0  0  0
   61.7340   33.0490   50.1910 C   0  0  0  0  0  0  0  0  0  0  0  0
   61.2667   33.4538   51.1008 H   0  0  0  0  0  0  0  0  0  0  0  0
   61.1240   31.9960   49.5010 C   0  0  0  0  0  0  0  0  0  0  0  0
   60.1798   31.5714   49.8727 H   0  0  0  0  0  0  0  0  0  0  0  0
   59.5280   29.2180   46.4220 N   0  0  0  0  0  0  0  0  0  0  0  0
   58.3570   29.2780   45.7500 C   0  0  0  0  0  0  0  0  0  0  0  0
  1  2  1  0
  2  3  1  0
  3  4  1  0
  4  5  1  0
  5  6  2  0
  5  7  1  0
  7  8  1  0
  8  9  1  0
  9 10  1  0
  9 11  2  3
 11 12  1  0
 12 13  1  0
 12 14  2  0
 14 15  1  0
 15 16  1  0
 16 17  2  3
 17 18  1  0
 18 19  1  0
 18 20  1  0
 20 21  1  0
 20 22  1  0
 20 23  1  0
 23 24  1  0
 23 25  1  0
 16 26  1  0
 26 27  1  0
 27 28  2  0
 28 29  1  0
 29 30  2  0
 30 31  1  0
 30 32  1  0
 32 33  1  0
 32 34  2  0
 34 35  1  0
 34 36  1  0
 36 37  1  0
 36 38  2  0
 38 39  1  0
 27 40  1  0
 40 41  2  0
  8  3  2  0
 41 11  1  0
 41 15  1  0
 23 18  1  0
 38 29  1  0
M  CHG  4   4  -1   7  -1  26  -1  35  -1
M  END
>  <UniqueID>  (90) 
87

>  <SMILES>  (90) 
O=c1[n-]c(O)c(C=c2cnn3c(=NC4CC4)[n-]/c(=N/c4ccc([O-])cc4)nc23)[n-]1

>  <Energy>  (90) 
415.5482642660639

>  <Genealogy>  (90) 
O=c1[n-]c(O)c(C=c2cnn3c(=NC4CC4)[n-]c(=Nc4ccc([O-])cc4)nc23)[n-]1 (protonated)
O=c1[n-]c(O)c(C=c2cnn3c(=NC4CC4)[n-]/c(=N/c4ccc([O-])cc4)nc23)[n-]1 (cis-trans isomerization)
O=c1[n-]c(O)c(C=c2cnn3c(=NC4CC4)[n-]/c(=N/c4ccc([O-])cc4)nc23)[n-]1 (3D coordinates assigned)
O=c1[n-]c(O)c(C=c2cnn3c(=NC4CC4)[n-]/c(=N/c4ccc([O-])cc4)nc23)[n-]1 (nonaromatic ring conformer: 415.5482642660639 kcal/mol)

>  <smiles>  (90) 
O=c1[nH]c(O)c(C=c2cnn3c(=NC4CC4)[nH]c(=Nc4ccc(O)cc4)nc23)[nH]1

>  <score_type>  (90) 
oracle

>  <origin>  (90) 
adg

>  <m_score__min__energy>  (90) 
-15.18

>  <m_primary>  (90) 
energy

$$$$
90:0
     RDKit          3D

 44 47  0  0  0  0  0  0  0  0999 V2000
   55.1450   28.9790   44.5690 N   0  0  0  0  0  0  0  0  0  0  0  0
   56.1820   29.7190   43.9260 C   0  0  0  0  0  0  0  0  0  0  0  0
   56.3320   29.6070   42.6790 O   0  0  0  0  0  0  0  0  0  0  0  0
   57.0710   30.6090   44.7090 C   0  0  0  0  0  0  0  0  0  0  0  0
   57.2110   31.9640   44.3600 C   0  0  0  0  0  0  0  0  0  0  0  0
   58.0500   32.8040   45.0970 C   0  0  0  0  0  0  0  0  0  0  0  0
   58.7660   32.3090   46.1980 C   0  0  0  0  0  0  0  0  0  0  0  0
   59.6540   33.1990   46.9780 C   0  0  0  0  0  0  0  0  0  0  0  0
   59.3610   34.4840   47.2690 N   0  0  0  0  0  0  0  0  0  0  0  0
   60.3750   34.9110   47.9570 O   0  0  0  0  0  0  0  0  0  0  0  0
   61.2550   33.9480   48.0880 C   0  0  0  0  0  0  0  0  0  0  0  0
   62.5500   34.0790   48.8380 C   0  0  0  0  0  0  0  0  0  0  0  0
   62.3150   33.9140   50.3480 C   0  0  0  0  0  0  0  0  0  0  0  0
   63.6300   34.1330   51.1100 C   0  0  0  0  0  0  0  0  0  0  0  0
   64.7660   33.4580   50.4550 N   0  0  0  0  0  0  0  0  0  0  0  0
   66.1280   33.7440   50.8590 C   0  0  0  0  0  0  0  0  0  0  0  0
   67.1990   32.9100   50.4800 C   0  0  0  0  0  0  0  0  0  0  0  0
   68.4950   33.2190   50.8970 C   0  0  0  0  0  0  0  0  0  0  0  0
   68.7240   34.3460   51.6850 C   0  0  0  0  0  0  0  0  0  0  0  0
   67.6450   35.1540   52.0460 C   0  0  0  0  0  0  0  0  0  0  0  0
   66.3910   34.8390   51.6300 N   0  0  0  0  0  0  0  0  0  0  0  0
   64.4880   32.4700   49.4000 C   0  0  0  0  0  0  0  0  0  0  0  0
   63.6020   33.0760   48.2990 C   0  0  0  0  0  0  0  0  0  0  0  0
   60.8470   32.8180   47.4820 N   0  0  0  0  0  0  0  0  0  0  0  0
   58.6280   30.9560   46.5490 C   0  0  0  0  0  0  0  0  0  0  0  0
   57.7890   30.1150   45.8120 C   0  0  0  0  0  0  0  0  0  0  0  0
   54.6180   29.3820   45.3740 H   0  0  0  0  0  0  0  0  0  0  0  0
   56.6555   32.3660   43.4998 H   0  0  0  0  0  0  0  0  0  0  0  0
   58.1501   33.8617   44.8120 H   0  0  0  0  0  0  0  0  0  0  0  0
   62.9538   35.0892   48.6754 H   0  0  0  0  0  0  0  0  0  0  0  0
   61.5718   34.6521   50.6840 H   0  0  0  0  0  0  0  0  0  0  0  0
   61.9465   32.8969   50.5476 H   0  0  0  0  0  0  0  0  0  0  0  0
   63.8375   35.2122   51.1578 H   0  0  0  0  0  0  0  0  0  0  0  0
   63.5149   33.7055   52.1170 H   0  0  0  0  0  0  0  0  0  0  0  0
   67.0148   32.0208   49.8592 H   0  0  0  0  0  0  0  0  0  0  0  0
   69.3357   32.5731   50.6037 H   0  0  0  0  0  0  0  0  0  0  0  0
   69.7423   34.5952   52.0180 H   0  0  0  0  0  0  0  0  0  0  0  0
   67.8101   36.0463   52.6677 H   0  0  0  0  0  0  0  0  0  0  0  0
   65.4389   32.1403   48.9560 H   0  0  0  0  0  0  0  0  0  0  0  0
   63.9568   31.6176   49.8485 H   0  0  0  0  0  0  0  0  0  0  0  0
   64.2487   33.6013   47.5807 H   0  0  0  0  0  0  0  0  0  0  0  0
   63.0506   32.2464   47.8325 H   0  0  0  0  0  0  0  0  0  0  0  0
   59.1838   30.5554   47.4096 H   0  0  0  0  0  0  0  0  0  0  0  0
   57.6898   29.0574   46.0977 H   0  0  0  0  0  0  0  0  0  0  0  0
  1  2  1  0
  2  3  2  0
  2  4  1  0
  4  5  2  0
  5  6  1  0
  6  7  2  0
  7  8  1  0
  8  9  2  0
  9 10  1  0
 10 11  1  0
 11 12  1  0
 12 13  1  0
 13 14  1  0
 14 15  1  0
 15 16  1  0
 16 17  2  0
 17 18  1  0
 18 19  2  0
 19 20  1  0
 20 21  2  0
 15 22  1  0
 22 23  1  0
 11 24  2  0
  7 25  1  0
 25 26  2  0
 26  4  1  0
 24  8  1  0
 23 12  1  0
 21 16  1  0
  1 27  1  0
  5 28  1  0
  6 29  1  0
 12 30  1  0
 13 31  1  0
 13 32  1  0
 14 33  1  0
 14 34  1  0
 17 35  1  0
 18 36  1  0
 19 37  1  0
 20 38  1  0
 22 39  1  0
 22 40  1  0
 23 41  1  0
 23 42  1  0
 25 43  1  0
 26 44  1  0
M  CHG  1   1  -1
M  END
>  <UniqueID>  (91) 
88

>  <SMILES>  (91) 
[NH-]C(=O)c1ccc(-c2noc(C3CCN(c4ccccn4)CC3)n2)cc1

>  <Energy>  (91) 
86.05762438649377

>  <Genealogy>  (91) 
[NH-]C(=O)c1ccc(-c2noc(C3CCN(c4ccccn4)CC3)n2)cc1 (protonated)
[NH-]C(=O)c1ccc(-c2noc(C3CCN(c4ccccn4)CC3)n2)cc1 (3D coordinates assigned)
[NH-]C(=O)c1ccc(-c2noc(C3CCN(c4ccccn4)CC3)n2)cc1 (nonaromatic ring conformer: 86.05762438649377 kcal/mol)

>  <smiles>  (91) 
NC(=O)c1ccc(-c2noc(C3CCN(c4ccccn4)CC3)n2)cc1

>  <score_type>  (91) 
oracle

>  <origin>  (91) 
adg

>  <m_score__min__energy>  (91) 
-11.02

>  <m_primary>  (91) 
energy

$$$$
91:0
     RDKit          3D

 59 63  0  0  0  0  0  0  0  0999 V2000
   63.2370   31.9500   51.9860 C   0  0  0  0  0  0  0  0  0  0  0  0
   63.9740   32.2990   50.4060 S   0  0  0  0  0  0  0  0  0  0  0  0
   65.3390   31.6720   50.3480 O   0  0  0  0  0  0  0  0  0  0  0  0
   64.1150   33.7850   50.2270 O   0  0  0  0  0  0  0  0  0  0  0  0
   62.9860   31.6560   49.1390 N   0  0  0  0  0  0  0  0  0  0  0  0
   63.1320   31.8930   47.8230 C   0  0  0  0  0  0  0  0  0  0  0  0
   62.1740   31.1920   47.1150 C   0  0  0  0  0  0  0  0  0  0  0  0
   61.4260   30.5020   48.0540 C   0  0  0  0  0  0  0  0  0  0  0  0
   60.2920   29.5980   47.7930 C   0  0  0  0  0  0  0  0  0  0  0  0
   59.5040   29.5700   46.6470 C   0  0  0  0  0  0  0  0  0  0  0  0
   58.4800   28.6070   46.7100 C   0  0  0  0  0  0  0  0  0  0  0  0
   57.5210   28.3700   45.6710 N   0  0  0  0  0  0  0  0  0  0  0  0
   56.6900   29.3440   45.0240 C   0  0  0  0  0  0  0  0  0  0  0  0
   55.4820   29.0540   44.8170 O   0  0  0  0  0  0  0  0  0  0  0  0
   57.1840   30.6910   44.6450 C   0  0  0  0  0  0  0  0  0  0  0  0
   57.3040   31.0380   43.2880 C   0  0  0  0  0  0  0  0  0  0  0  0
   57.7890   32.2950   42.9200 C   0  0  0  0  0  0  0  0  0  0  0  0
   58.1650   33.2170   43.8980 C   0  0  0  0  0  0  0  0  0  0  0  0
   58.0290   32.8990   45.2610 C   0  0  0  0  0  0  0  0  0  0  0  0
   58.4960   33.7860   46.2910 N   0  0  0  0  0  0  0  0  0  0  0  0
   59.8610   33.8710   46.7180 C   0  0  0  0  0  0  0  0  0  0  0  0
   60.7960   33.8360   45.8740 O   0  0  0  0  0  0  0  0  0  0  0  0
   60.1620   34.0030   48.1470 C   0  0  0  0  0  0  0  0  0  0  0  0
   61.3850   34.2670   48.7250 C   0  0  0  0  0  0  0  0  0  0  0  0
   61.2410   34.2550   50.0650 N   0  0  0  0  0  0  0  0  0  0  0  0
   59.9280   33.9880   50.2350 C   0  0  0  0  0  0  0  0  0  0  0  0
   59.2860   33.7950   51.5720 C   0  0  0  0  0  0  0  0  0  0  0  0
   58.7670   32.3870   51.6850 C   0  0  0  0  0  0  0  0  0  0  0  0
   59.6580   31.3020   51.7500 C   0  0  0  0  0  0  0  0  0  0  0  0
   59.1690   29.9950   51.8240 C   0  0  0  0  0  0  0  0  0  0  0  0
   57.7910   29.7590   51.8210 C   0  0  0  0  0  0  0  0  0  0  0  0
   56.8980   30.8320   51.7440 C   0  0  0  0  0  0  0  0  0  0  0  0
   57.3830   32.1430   51.6780 C   0  0  0  0  0  0  0  0  0  0  0  0
   59.2830   33.8400   49.1020 O   0  0  0  0  0  0  0  0  0  0  0  0
   57.5160   31.6450   45.6230 C   0  0  0  0  0  0  0  0  0  0  0  0
   58.4880   27.8530   47.8760 C   0  0  0  0  0  0  0  0  0  0  0  0
   59.7380   28.4110   48.8500 S   0  0  0  0  0  0  0  0  0  0  0  0
   61.9500   30.8130   49.2950 C   0  0  0  0  0  0  0  0  0  0  0  0
   63.9179   32.2725   52.7875 H   0  0  0  0  0  0  0  0  0  0  0  0
   62.2842   32.4926   52.0740 H   0  0  0  0  0  0  0  0  0  0  0  0
   63.0529   30.8691   52.0740 H   0  0  0  0  0  0  0  0  0  0  0  0
   63.8975   32.5456   47.3779 H   0  0  0  0  0  0  0  0  0  0  0  0
   62.0339   31.1839   46.0240 H   0  0  0  0  0  0  0  0  0  0  0  0
   59.6645   30.2311   45.7826 H   0  0  0  0  0  0  0  0  0  0  0  0
   57.0141   30.3151   42.5112 H   0  0  0  0  0  0  0  0  0  0  0  0
   57.8749   32.5592   41.8557 H   0  0  0  0  0  0  0  0  0  0  0  0
   58.5693   34.1961   43.6015 H   0  0  0  0  0  0  0  0  0  0  0  0
   57.7860   34.3340   46.8300 H   0  0  0  0  0  0  0  0  0  0  0  0
   62.3231   34.4561   48.1826 H   0  0  0  0  0  0  0  0  0  0  0  0
   60.0278   33.9762   52.3638 H   0  0  0  0  0  0  0  0  0  0  0  0
   58.4503   34.5019   51.6811 H   0  0  0  0  0  0  0  0  0  0  0  0
   60.7431   31.4821   51.7426 H   0  0  0  0  0  0  0  0  0  0  0  0
   59.8702   29.1496   51.8848 H   0  0  0  0  0  0  0  0  0  0  0  0
   57.4093   28.7290   51.8792 H   0  0  0  0  0  0  0  0  0  0  0  0
   55.8139   30.6457   51.7353 H   0  0  0  0  0  0  0  0  0  0  0  0
   56.6783   32.9857   51.6204 H   0  0  0  0  0  0  0  0  0  0  0  0
   57.3714   31.4045   46.6866 H   0  0  0  0  0  0  0  0  0  0  0  0
   57.7963   27.0331   48.1196 H   0  0  0  0  0  0  0  0  0  0  0  0
   61.5784   30.4314   50.2574 H   0  0  0  0  0  0  0  0  0  0  0  0
  1  2  1  0
  2  3  2  0
  2  4  2  0
  2  5  1  0
  5  6  1  0
  6  7  2  0
  7  8  1  0
  8  9  1  0
  9 10  2  0
 10 11  1  0
 11 12  1  0
 12 13  1  0
 13 14  2  0
 13 15  1  0
 15 16  2  0
 16 17  1  0
 17 18  2  0
 18 19  1  0
 19 20  1  0
 20 21  1  0
 21 22  2  0
 21 23  1  0
 23 24  2  0
 24 25  1  0
 25 26  2  0
 26 27  1  0
 27 28  1  0
 28 29  2  0
 29 30  1  0
 30 31  2  0
 31 32  1  0
 32 33  2  0
 26 34  1  0
 19 35  2  0
 11 36  2  0
 36 37  1  0
  8 38  2  0
 38  5  1  0
 37  9  1  0
 35 15  1  0
 34 23  1  0
 33 28  1  0
  1 39  1  0
  1 40  1  0
  1 41  1  0
  6 42  1  0
  7 43  1  0
 10 44  1  0
 16 45  1  0
 17 46  1  0
 18 47  1  0
 20 48  1  0
 24 49  1  0
 27 50  1  0
 27 51  1  0
 29 52  1  0
 30 53  1  0
 31 54  1  0
 32 55  1  0
 33 56  1  0
 35 57  1  0
 36 58  1  0
 38 59  1  0
M  CHG  1  12  -1
M  END
>  <UniqueID>  (92) 
89

>  <SMILES>  (92) 
CS(=O)(=O)n1ccc(-c2cc([N-]C(=O)c3cccc(NC(=O)c4cnc(Cc5ccccc5)o4)c3)cs2)c1

>  <Energy>  (92) 
147.58521266492204

>  <Genealogy>  (92) 
CS(=O)(=O)n1ccc(-c2cc([N-]C(=O)c3cccc(NC(=O)c4cnc(Cc5ccccc5)o4)c3)cs2)c1 (protonated)
CS(=O)(=O)n1ccc(-c2cc([N-]C(=O)c3cccc(NC(=O)c4cnc(Cc5ccccc5)o4)c3)cs2)c1 (3D coordinates assigned)
CS(=O)(=O)n1ccc(-c2cc([N-]C(=O)c3cccc(NC(=O)c4cnc(Cc5ccccc5)o4)c3)cs2)c1 (optimized conformer: 147.58521266492204 kcal/mol)

>  <smiles>  (92) 
CS(=O)(=O)n1ccc(-c2cc(NC(=O)c3cccc(NC(=O)c4cnc(Cc5ccccc5)o4)c3)cs2)c1

>  <score_type>  (92) 
oracle

>  <origin>  (92) 
adg

>  <m_score__min__energy>  (92) 
-12.33

>  <m_primary>  (92) 
energy

$$$$
92:0
     RDKit          3D

 42 44  0  0  0  0  0  0  0  0999 V2000
   62.0970   34.6330   49.7690 O   0  0  0  0  0  0  0  0  0  0  0  0
   61.6020   34.1810   48.7020 C   0  0  0  0  0  0  0  0  0  0  0  0
   62.5090   33.7100   47.6420 C   0  0  0  0  0  0  0  0  0  0  0  0
   62.8120   32.4130   47.4800 C   0  0  0  0  0  0  0  0  0  0  0  0
   61.9430   31.3010   47.9390 C   0  0  0  0  0  0  0  0  0  0  0  0
   61.8860   31.0160   49.3150 C   0  0  0  0  0  0  0  0  0  0  0  0
   61.0740   29.9830   49.7940 C   0  0  0  0  0  0  0  0  0  0  0  0
   60.3010   29.2320   48.9070 C   0  0  0  0  0  0  0  0  0  0  0  0
   60.3350   29.5150   47.5400 C   0  0  0  0  0  0  0  0  0  0  0  0
   61.1460   30.5450   47.0550 C   0  0  0  0  0  0  0  0  0  0  0  0
   60.1810   34.1790   48.5040 N   0  0  0  0  0  0  0  0  0  0  0  0
   59.4910   33.8910   47.2790 C   0  0  0  0  0  0  0  0  0  0  0  0
   59.5840   34.8090   46.2270 C   0  0  0  0  0  0  0  0  0  0  0  0
   58.9590   34.5490   45.0050 C   0  0  0  0  0  0  0  0  0  0  0  0
   58.2370   33.3660   44.8220 C   0  0  0  0  0  0  0  0  0  0  0  0
   57.6230   33.1210   43.5990 O   0  0  0  0  0  0  0  0  0  0  0  0
   58.1320   32.4350   45.8650 C   0  0  0  0  0  0  0  0  0  0  0  0
   57.4170   31.2110   45.6320 N   0  0  0  0  0  0  0  0  0  0  0  0
   57.8560   30.1040   44.8330 C   0  0  0  0  0  0  0  0  0  0  0  0
   58.5250   30.3180   43.7860 O   0  0  0  0  0  0  0  0  0  0  0  0
   57.5830   28.7040   45.2590 C   0  0  0  0  0  0  0  0  0  0  0  0
   58.6650   27.8530   45.5660 C   0  0  0  0  0  0  0  0  0  0  0  0
   58.4450   26.5350   45.9700 C   0  0  0  0  0  0  0  0  0  0  0  0
   57.1450   26.0420   46.0730 C   0  0  0  0  0  0  0  0  0  0  0  0
   56.0590   26.8650   45.7710 C   0  0  0  0  0  0  0  0  0  0  0  0
   54.7660   26.3630   45.8740 O   0  0  0  0  0  0  0  0  0  0  0  0
   56.2680   28.1910   45.3630 C   0  0  0  0  0  0  0  0  0  0  0  0
   55.1600   28.9770   45.0610 O   0  0  0  0  0  0  0  0  0  0  0  0
   58.7870   32.6890   47.0840 C   0  0  0  0  0  0  0  0  0  0  0  0
   62.9541   34.4479   46.9584 H   0  0  0  0  0  0  0  0  0  0  0  0
   63.7578   32.1596   46.9787 H   0  0  0  0  0  0  0  0  0  0  0  0
   62.4851   31.6106   50.0204 H   0  0  0  0  0  0  0  0  0  0  0  0
   61.0445   29.7621   50.8712 H   0  0  0  0  0  0  0  0  0  0  0  0
   59.6653   28.4176   49.2847 H   0  0  0  0  0  0  0  0  0  0  0  0
   59.7216   28.9255   46.8426 H   0  0  0  0  0  0  0  0  0  0  0  0
   61.1626   30.7670   45.9778 H   0  0  0  0  0  0  0  0  0  0  0  0
   60.1526   35.7408   46.3630 H   0  0  0  0  0  0  0  0  0  0  0  0
   59.0352   35.2774   44.1842 H   0  0  0  0  0  0  0  0  0  0  0  0
   59.6944   28.2323   45.4862 H   0  0  0  0  0  0  0  0  0  0  0  0
   59.2992   25.8840   46.2076 H   0  0  0  0  0  0  0  0  0  0  0  0
   56.9750   25.0033   46.3926 H   0  0  0  0  0  0  0  0  0  0  0  0
   58.7483   31.9420   47.8905 H   0  0  0  0  0  0  0  0  0  0  0  0
  1  2  2  0
  2  3  1  0
  3  4  2  3
  4  5  1  0
  5  6  2  0
  6  7  1  0
  7  8  2  0
  8  9  1  0
  9 10  2  0
  2 11  1  0
 11 12  1  0
 12 13  2  0
 13 14  1  0
 14 15  2  0
 15 16  1  0
 15 17  1  0
 17 18  1  0
 18 19  1  0
 19 20  2  0
 19 21  1  0
 21 22  2  0
 22 23  1  0
 23 24  2  0
 24 25  1  0
 25 26  1  0
 25 27  2  0
 27 28  1  0
 17 29  2  0
 10  5  1  0
 29 12  1  0
 27 21  1  0
  3 30  1  0
  4 31  1  0
  6 32  1  0
  7 33  1  0
  8 34  1  0
  9 35  1  0
 10 36  1  0
 13 37  1  0
 14 38  1  0
 22 39  1  0
 23 40  1  0
 24 41  1  0
 29 42  1  0
M  CHG  5  11  -1  16  -1  18  -1  26  -1  28  -1
M  END
>  <UniqueID>  (93) 
90

>  <SMILES>  (93) 
O=C(C=Cc1ccccc1)[N-]c1ccc([O-])c([N-]C(=O)c2cccc([O-])c2[O-])c1

>  <Energy>  (93) 
56.94546777023196

>  <Genealogy>  (93) 
O=C(C=Cc1ccccc1)[N-]c1ccc([O-])c([N-]C(=O)c2cccc([O-])c2[O-])c1 (protonated)
O=C(C=Cc1ccccc1)[N-]c1ccc([O-])c([N-]C(=O)c2cccc([O-])c2[O-])c1 (3D coordinates assigned)
O=C(C=Cc1ccccc1)[N-]c1ccc([O-])c([N-]C(=O)c2cccc([O-])c2[O-])c1 (optimized conformer: 56.94546777023196 kcal/mol)

>  <smiles>  (93) 
O=C(C=Cc1ccccc1)Nc1ccc(O)c(NC(=O)c2cccc(O)c2O)c1

>  <score_type>  (93) 
oracle

>  <origin>  (93) 
adg

>  <m_score__min__energy>  (93) 
-19.93

>  <m_primary>  (93) 
energy

$$$$
93:0
     RDKit          3D

 49 50  0  0  0  0  0  0  0  0999 V2000
   60.1580   33.1110   46.1690 C   0  0  0  0  0  0  0  0  0  0  0  0
   58.9960   34.1210   46.1240 C   0  0  0  0  0  0  0  0  0  0  0  0
   58.9160   34.9020   47.4500 C   0  0  0  0  0  0  0  0  0  0  0  0
   59.2600   35.1250   44.9830 C   0  0  0  0  0  0  0  0  0  0  0  0
   57.7220   33.4240   45.8660 N   0  0  0  0  0  0  0  0  0  0  0  0
   57.4710   32.5670   44.7380 C   0  0  0  0  0  0  0  0  0  0  0  0
   58.1380   32.6940   43.6780 O   0  0  0  0  0  0  0  0  0  0  0  0
   56.4580   31.5580   44.7930 N   0  0  0  0  0  0  0  0  0  0  0  0
   56.7710   29.8680   44.5750 S   0  0  0  0  0  0  0  0  0  0  0  0
   55.5240   29.0900   44.8900 O   0  0  0  0  0  0  0  0  0  0  0  0
   57.1550   29.6150   43.1440 O   0  0  0  0  0  0  0  0  0  0  0  0
   58.1110   29.3720   45.6200 C   0  0  0  0  0  0  0  0  0  0  0  0
   59.2640   30.1660   45.6950 C   0  0  0  0  0  0  0  0  0  0  0  0
   60.3170   29.7830   46.4650 N   0  0  0  0  0  0  0  0  0  0  0  0
   60.2840   28.6350   47.1890 C   0  0  0  0  0  0  0  0  0  0  0  0
   59.1590   27.8100   47.1520 C   0  0  0  0  0  0  0  0  0  0  0  0
   58.0590   28.1640   46.3440 C   0  0  0  0  0  0  0  0  0  0  0  0
   56.9830   27.4280   46.2740 N   0  0  0  0  0  0  0  0  0  0  0  0
   56.8200   26.1620   45.6160 C   0  0  0  0  0  0  0  0  0  0  0  0
   57.6390   25.8510   44.5250 C   0  0  0  0  0  0  0  0  0  0  0  0
   57.5440   24.6020   43.9030 C   0  0  0  0  0  0  0  0  0  0  0  0
   56.6480   23.6390   44.3890 C   0  0  0  0  0  0  0  0  0  0  0  0
   56.5180   22.0730   43.5970 S   0  0  0  0  0  0  0  0  0  0  0  0
   58.1440   21.3910   43.3670 C   0  0  0  0  0  0  0  0  0  0  0  0
   55.8470   22.2320   42.2610 O   0  0  0  0  0  0  0  0  0  0  0  0
   55.6960   21.1390   44.4410 O   0  0  0  0  0  0  0  0  0  0  0  0
   55.8490   23.9370   45.4990 C   0  0  0  0  0  0  0  0  0  0  0  0
   55.9440   25.1860   46.1200 C   0  0  0  0  0  0  0  0  0  0  0  0
   60.4118   32.8904   47.2164 H   0  0  0  0  0  0  0  0  0  0  0  0
   59.8569   32.1828   45.6614 H   0  0  0  0  0  0  0  0  0  0  0  0
   61.0353   33.5385   45.6614 H   0  0  0  0  0  0  0  0  0  0  0  0
   58.9879   34.2001   48.2939 H   0  0  0  0  0  0  0  0  0  0  0  0
   59.7450   35.6232   47.5013 H   0  0  0  0  0  0  0  0  0  0  0  0
   57.9580   35.4402   47.5013 H   0  0  0  0  0  0  0  0  0  0  0  0
   59.5178   36.1055   45.4097 H   0  0  0  0  0  0  0  0  0  0  0  0
   60.0938   34.7643   44.3628 H   0  0  0  0  0  0  0  0  0  0  0  0
   58.3566   35.2211   44.3628 H   0  0  0  0  0  0  0  0  0  0  0  0
   56.9570   33.5200   46.5700 H   0  0  0  0  0  0  0  0  0  0  0  0
   59.3171   31.1062   45.1264 H   0  0  0  0  0  0  0  0  0  0  0  0
   61.1680   30.3870   46.5050 H   0  0  0  0  0  0  0  0  0  0  0  0
   61.1486   28.3536   47.8081 H   0  0  0  0  0  0  0  0  0  0  0  0
   59.1305   26.8876   47.7506 H   0  0  0  0  0  0  0  0  0  0  0  0
   58.3616   26.5930   44.1545 H   0  0  0  0  0  0  0  0  0  0  0  0
   58.1738   24.3744   43.0303 H   0  0  0  0  0  0  0  0  0  0  0  0
   58.6030   21.1985   44.3480 H   0  0  0  0  0  0  0  0  0  0  0  0
   58.0700   20.4481   42.8054 H   0  0  0  0  0  0  0  0  0  0  0  0
   58.7648   22.1046   42.8054 H   0  0  0  0  0  0  0  0  0  0  0  0
   55.1438   23.1858   45.8841 H   0  0  0  0  0  0  0  0  0  0  0  0
   55.3307   25.4054   47.0064 H   0  0  0  0  0  0  0  0  0  0  0  0
  1  2  1  0
  2  3  1  0
  2  4  1  0
  2  5  1  0
  5  6  1  0
  6  7  2  0
  6  8  1  0
  8  9  1  0
  9 10  2  0
  9 11  2  0
  9 12  1  0
 12 13  2  0
 13 14  1  0
 14 15  1  0
 15 16  2  0
 16 17  1  0
 17 18  2  3
 18 19  1  0
 19 20  2  0
 20 21  1  0
 21 22  2  0
 22 23  1  0
 23 24  1  0
 23 25  2  0
 23 26  2  0
 22 27  1  0
 27 28  2  0
 17 12  1  0
 28 19  1  0
  1 29  1  0
  1 30  1  0
  1 31  1  0
  3 32  1  0
  3 33  1  0
  3 34  1  0
  4 35  1  0
  4 36  1  0
  4 37  1  0
  5 38  1  0
 13 39  1  0
 14 40  1  0
 15 41  1  0
 16 42  1  0
 20 43  1  0
 21 44  1  0
 24 45  1  0
 24 46  1  0
 24 47  1  0
 27 48  1  0
 28 49  1  0
M  CHG  1   8  -1
M  END
>  <UniqueID>  (94) 
91

>  <SMILES>  (94) 
CC(C)(C)NC(=O)[N-]S(=O)(=O)c1c[nH]ccc1=Nc1ccc(S(C)(=O)=O)cc1

>  <Energy>  (94) 
51.935562012799785

>  <Genealogy>  (94) 
CC(C)(C)NC(=O)[N-]S(=O)(=O)c1c[nH]ccc1=Nc1ccc(S(C)(=O)=O)cc1 (protonated)
CC(C)(C)NC(=O)[N-]S(=O)(=O)c1c[nH]ccc1=Nc1ccc(S(C)(=O)=O)cc1 (3D coordinates assigned)
CC(C)(C)NC(=O)[N-]S(=O)(=O)c1c[nH]ccc1=Nc1ccc(S(C)(=O)=O)cc1 (optimized conformer: 51.935562012799785 kcal/mol)

>  <smiles>  (94) 
CC(C)(C)NC(=O)NS(=O)(=O)c1c[nH]ccc1=Nc1ccc(S(C)(=O)=O)cc1

>  <score_type>  (94) 
oracle

>  <origin>  (94) 
adg

>  <m_score__min__energy>  (94) 
-10.57

>  <m_primary>  (94) 
energy

$$$$
94:0
     RDKit          3D

 44 45  0  0  0  0  0  0  0  0999 V2000
   63.9310   34.2100   51.7280 C   0  0  0  0  0  0  0  0  0  0  0  0
   63.0500   33.4260   52.5270 O   0  0  0  0  0  0  0  0  0  0  0  0
   61.6480   33.4770   52.4710 C   0  0  0  0  0  0  0  0  0  0  0  0
   60.9020   33.8350   53.6070 C   0  0  0  0  0  0  0  0  0  0  0  0
   59.5150   33.8880   53.5600 C   0  0  0  0  0  0  0  0  0  0  0  0
   58.8320   33.5870   52.3790 C   0  0  0  0  0  0  0  0  0  0  0  0
   57.3220   33.6320   52.3660 C   0  0  0  0  0  0  0  0  0  0  0  0
   56.7790   32.3410   51.9470 N   0  0  0  0  0  0  0  0  0  0  0  0
   56.6950   31.2180   52.8380 C   0  0  0  0  0  0  0  0  0  0  0  0
   57.0390   31.3400   54.0440 O   0  0  0  0  0  0  0  0  0  0  0  0
   56.2050   29.9160   52.3580 C   0  0  0  0  0  0  0  0  0  0  0  0
   57.0110   29.0890   51.8530 O   0  0  0  0  0  0  0  0  0  0  0  0
   54.8210   29.5800   52.5210 N   0  0  0  0  0  0  0  0  0  0  0  0
   53.7050   30.4780   52.4290 C   0  0  0  0  0  0  0  0  0  0  0  0
   52.8300   30.6980   53.5100 C   0  0  0  0  0  0  0  0  0  0  0  0
   51.7400   31.5630   53.3680 C   0  0  0  0  0  0  0  0  0  0  0  0
   51.5070   32.2020   52.1470 C   0  0  0  0  0  0  0  0  0  0  0  0
   50.4240   33.0630   52.0100 O   0  0  0  0  0  0  0  0  0  0  0  0
   52.3570   31.9700   51.0640 C   0  0  0  0  0  0  0  0  0  0  0  0
   53.4480   31.1040   51.2020 C   0  0  0  0  0  0  0  0  0  0  0  0
   59.5480   33.2190   51.2230 C   0  0  0  0  0  0  0  0  0  0  0  0
   58.7870   32.9190   50.0740 O   0  0  0  0  0  0  0  0  0  0  0  0
   58.8540   31.7410   49.2790 C   0  0  0  0  0  0  0  0  0  0  0  0
   60.9710   33.1660   51.2590 C   0  0  0  0  0  0  0  0  0  0  0  0
   61.6560   32.8040   50.0830 O   0  0  0  0  0  0  0  0  0  0  0  0
   62.4030   31.6150   49.8500 C   0  0  0  0  0  0  0  0  0  0  0  0
   64.5923   34.7985   52.3809 H   0  0  0  0  0  0  0  0  0  0  0  0
   64.5376   33.5475   51.0930 H   0  0  0  0  0  0  0  0  0  0  0  0
   63.3434   34.8894   51.0930 H   0  0  0  0  0  0  0  0  0  0  0  0
   61.4232   34.0763   54.5451 H   0  0  0  0  0  0  0  0  0  0  0  0
   58.9493   34.1694   54.4604 H   0  0  0  0  0  0  0  0  0  0  0  0
   56.9574   33.8682   53.3766 H   0  0  0  0  0  0  0  0  0  0  0  0
   56.9934   34.4055   51.6562 H   0  0  0  0  0  0  0  0  0  0  0  0
   56.4370   32.2480   50.9640 H   0  0  0  0  0  0  0  0  0  0  0  0
   53.0041   30.1881   54.4690 H   0  0  0  0  0  0  0  0  0  0  0  0
   51.0653   31.7406   54.2184 H   0  0  0  0  0  0  0  0  0  0  0  0
   52.1692   32.4682   50.1014 H   0  0  0  0  0  0  0  0  0  0  0  0
   54.1074   30.9138   50.3423 H   0  0  0  0  0  0  0  0  0  0  0  0
   58.9042   30.8588   49.9342 H   0  0  0  0  0  0  0  0  0  0  0  0
   57.9581   31.6757   48.6441 H   0  0  0  0  0  0  0  0  0  0  0  0
   59.7515   31.7777   48.6441 H   0  0  0  0  0  0  0  0  0  0  0  0
   62.6857   31.1650   50.8131 H   0  0  0  0  0  0  0  0  0  0  0  0
   61.7898   30.9028   49.2784 H   0  0  0  0  0  0  0  0  0  0  0  0
   63.3108   31.8584   49.2784 H   0  0  0  0  0  0  0  0  0  0  0  0
  1  2  1  0
  2  3  1  0
  3  4  2  0
  4  5  1  0
  5  6  2  0
  6  7  1  0
  7  8  1  0
  8  9  1  0
  9 10  2  0
  9 11  1  0
 11 12  2  0
 11 13  1  0
 13 14  1  0
 14 15  2  0
 15 16  1  0
 16 17  2  0
 17 18  1  0
 17 19  1  0
 19 20  2  0
  6 21  1  0
 21 22  1  0
 22 23  1  0
 21 24  2  0
 24 25  1  0
 25 26  1  0
 24  3  1  0
 20 14  1  0
  1 27  1  0
  1 28  1  0
  1 29  1  0
  4 30  1  0
  5 31  1  0
  7 32  1  0
  7 33  1  0
  8 34  1  0
 15 35  1  0
 16 36  1  0
 19 37  1  0
 20 38  1  0
 23 39  1  0
 23 40  1  0
 23 41  1  0
 26 42  1  0
 26 43  1  0
 26 44  1  0
M  CHG  2  13  -1  18  -1
M  END
>  <UniqueID>  (95) 
92

>  <SMILES>  (95) 
COc1ccc(CNC(=O)C(=O)[N-]c2ccc([O-])cc2)c(OC)c1OC

>  <Energy>  (95) 
49.76345131564118

>  <Genealogy>  (95) 
COc1ccc(CNC(=O)C(=O)[N-]c2ccc([O-])cc2)c(OC)c1OC (protonated)
COc1ccc(CNC(=O)C(=O)[N-]c2ccc([O-])cc2)c(OC)c1OC (3D coordinates assigned)
COc1ccc(CNC(=O)C(=O)[N-]c2ccc([O-])cc2)c(OC)c1OC (optimized conformer: 49.76345131564118 kcal/mol)

>  <smiles>  (95) 
COc1ccc(CNC(=O)C(=O)Nc2ccc(O)cc2)c(OC)c1OC

>  <score_type>  (95) 
oracle

>  <origin>  (95) 
adg

>  <m_score__min__energy>  (95) 
-10.619999999999999

>  <m_primary>  (95) 
energy

$$$$
