0:0
     RDKit          3D

 43 45  0  0  0  0  0  0  0  0999 V2000
   63.5560   31.2980   47.0170 N   0  0  0  0  0  0  0  0  0  0  0  0
   62.7510   32.6890   47.6560 S   0  0  0  0  0  0  0  0  0  0  0  0
   62.9200   33.8340   46.6970 O   0  0  0  0  0  0  0  0  0  0  0  0
   61.2840   32.3920   47.8010 O   0  0  0  0  0  0  0  0  0  0  0  0
   63.4330   33.1380   49.2040 N   0  0  0  0  0  0  0  0  0  0  0  0
   62.7400   34.3020   49.7940 C   0  0  0  0  0  0  0  0  0  0  0  0
   61.3280   33.9470   50.2870 C   0  0  0  0  0  0  0  0  0  0  0  0
   61.3120   32.6250   50.9230 N   0  0  0  0  0  0  0  0  0  0  0  0
   60.0630   31.9340   51.1260 C   0  0  0  0  0  0  0  0  0  0  0  0
   59.9520   30.9320   52.1050 C   0  0  0  0  0  0  0  0  0  0  0  0
   58.7470   30.2480   52.2860 C   0  0  0  0  0  0  0  0  0  0  0  0
   57.6380   30.5410   51.4740 C   0  0  0  0  0  0  0  0  0  0  0  0
   56.3790   29.8770   51.6550 N   0  0  0  0  0  0  0  0  0  0  0  0
   55.1010   30.5070   51.8060 C   0  0  0  0  0  0  0  0  0  0  0  0
   55.0530   31.6790   52.2660 O   0  0  0  0  0  0  0  0  0  0  0  0
   53.8260   29.8280   51.3860 C   0  0  0  0  0  0  0  0  0  0  0  0
   52.7340   30.8350   51.1850 C   0  0  0  0  0  0  0  0  0  0  0  0
   52.4090   31.8700   52.0350 C   0  0  0  0  0  0  0  0  0  0  0  0
   51.3050   32.4760   51.4660 C   0  0  0  0  0  0  0  0  0  0  0  0
   50.6500   33.5760   52.0020 O   0  0  0  0  0  0  0  0  0  0  0  0
   50.9230   31.8730   50.3220 N   0  0  0  0  0  0  0  0  0  0  0  0
   51.8040   30.8660   50.1650 C   0  0  0  0  0  0  0  0  0  0  0  0
   51.7560   29.9740   49.1020 O   0  0  0  0  0  0  0  0  0  0  0  0
   57.7400   31.5530   50.5140 C   0  0  0  0  0  0  0  0  0  0  0  0
   58.9440   32.2360   50.3300 C   0  0  0  0  0  0  0  0  0  0  0  0
   62.5890   32.0230   51.3190 C   0  0  0  0  0  0  0  0  0  0  0  0
   63.5420   31.9690   50.1130 C   0  0  0  0  0  0  0  0  0  0  0  0
   64.5060   31.6080   46.7080 H   0  0  0  0  0  0  0  0  0  0  0  0
   63.3302   34.6718   50.6454 H   0  0  0  0  0  0  0  0  0  0  0  0
   62.6422   35.0695   49.0120 H   0  0  0  0  0  0  0  0  0  0  0  0
   61.0012   34.7019   51.0173 H   0  0  0  0  0  0  0  0  0  0  0  0
   60.6482   33.9291   49.4224 H   0  0  0  0  0  0  0  0  0  0  0  0
   60.8201   30.6843   52.7335 H   0  0  0  0  0  0  0  0  0  0  0  0
   58.6662   29.4775   53.0668 H   0  0  0  0  0  0  0  0  0  0  0  0
   53.9976   29.2877   50.4433 H   0  0  0  0  0  0  0  0  0  0  0  0
   53.5206   29.1264   52.1763 H   0  0  0  0  0  0  0  0  0  0  0  0
   52.9194   32.1533   52.9673 H   0  0  0  0  0  0  0  0  0  0  0  0
   56.8654   31.8128   49.8995 H   0  0  0  0  0  0  0  0  0  0  0  0
   59.0175   33.0154   49.5573 H   0  0  0  0  0  0  0  0  0  0  0  0
   63.0449   32.6278   52.1167 H   0  0  0  0  0  0  0  0  0  0  0  0
   62.4087   31.0006   51.6826 H   0  0  0  0  0  0  0  0  0  0  0  0
   64.5742   31.9190   50.4899 H   0  0  0  0  0  0  0  0  0  0  0  0
   63.2619   31.0821   49.5257 H   0  0  0  0  0  0  0  0  0  0  0  0
  1  2  1  0
  2  3  2  0
  2  4  2  0
  2  5  1  0
  5  6  1  0
  6  7  1  0
  7  8  1  0
  8  9  1  0
  9 10  2  0
 10 11  1  0
 11 12  2  0
 12 13  1  0
 13 14  1  0
 14 15  2  0
 14 16  1  0
 16 17  1  0
 17 18  1  0
 18 19  2  0
 19 20  1  0
 19 21  1  0
 21 22  1  0
 22 23  1  0
 12 24  1  0
 24 25  2  0
  8 26  1  0
 26 27  1  0
 27  5  1  0
 25  9  1  0
 22 17  2  0
  1 28  1  0
  6 29  1  0
  6 30  1  0
  7 31  1  0
  7 32  1  0
 10 33  1  0
 11 34  1  0
 16 35  1  0
 16 36  1  0
 18 37  1  0
 24 38  1  0
 25 39  1  0
 26 40  1  0
 26 41  1  0
 27 42  1  0
 27 43  1  0
M  CHG  5   1  -1  13  -1  20  -1  21  -1  23  -1
M  END
>  <UniqueID>  (1) 
1

>  <SMILES>  (1) 
[NH-]S(=O)(=O)N1CCN(c2ccc([N-]C(=O)Cc3cc([O-])[n-]c3[O-])cc2)CC1

>  <Energy>  (1) 
82.48806142857279

>  <Genealogy>  (1) 
[NH-]S(=O)(=O)N1CCN(c2ccc([N-]C(=O)Cc3cc([O-])[n-]c3[O-])cc2)CC1 (protonated)
[NH-]S(=O)(=O)N1CCN(c2ccc([N-]C(=O)Cc3cc([O-])[n-]c3[O-])cc2)CC1 (3D coordinates assigned)
[NH-]S(=O)(=O)N1CCN(c2ccc([N-]C(=O)Cc3cc([O-])[n-]c3[O-])cc2)CC1 (nonaromatic ring conformer: 82.48806142857279 kcal/mol)

>  <smiles>  (1) 
NS(=O)(=O)N1CCN(c2ccc(NC(=O)Cc3cc(O)[nH]c3O)cc2)CC1

>  <score_type>  (1) 
oracle

>  <origin>  (1) 
adg

>  <m_score__min__energy>  (1) 
-18.030000000000001

>  <m_primary>  (1) 
energy

$$$$
1:0
     RDKit          3D

 49 51  0  0  0  0  0  0  0  0999 V2000
   54.8180   26.3220   45.9830 O   0  0  0  0  0  0  0  0  0  0  0  0
   56.0580   26.1170   45.9000 C   0  0  0  0  0  0  0  0  0  0  0  0
   57.0310   27.1760   46.3550 C   0  0  0  0  0  0  0  0  0  0  0  0
   57.3680   28.0930   45.2680 N   0  0  0  0  0  0  0  0  0  0  0  0
   56.5490   29.1890   44.8380 C   0  0  0  0  0  0  0  0  0  0  0  0
   55.2980   29.0500   44.8320 O   0  0  0  0  0  0  0  0  0  0  0  0
   57.1280   30.4820   44.4340 C   0  0  0  0  0  0  0  0  0  0  0  0
   57.0810   30.8800   43.0900 C   0  0  0  0  0  0  0  0  0  0  0  0
   57.6590   32.0900   42.6950 C   0  0  0  0  0  0  0  0  0  0  0  0
   58.3060   32.8970   43.6340 C   0  0  0  0  0  0  0  0  0  0  0  0
   58.3740   32.5020   44.9760 C   0  0  0  0  0  0  0  0  0  0  0  0
   59.2770   33.4750   46.1310 S   0  0  0  0  0  0  0  0  0  0  0  0
   59.3900   34.8800   45.6110 O   0  0  0  0  0  0  0  0  0  0  0  0
   58.5520   33.5060   47.4490 O   0  0  0  0  0  0  0  0  0  0  0  0
   60.8730   32.7950   46.3280 N   0  0  0  0  0  0  0  0  0  0  0  0
   60.9720   32.0180   47.5640 C   0  0  0  0  0  0  0  0  0  0  0  0
   62.4280   32.0790   48.0010 C   0  0  0  0  0  0  0  0  0  0  0  0
   63.0250   33.2640   47.2600 C   0  0  0  0  0  0  0  0  0  0  0  0
   61.8830   33.8460   46.4420 C   0  0  0  0  0  0  0  0  0  0  0  0
   57.7820   31.2940   45.3740 C   0  0  0  0  0  0  0  0  0  0  0  0
   56.5090   24.8780   45.3380 N   0  0  0  0  0  0  0  0  0  0  0  0
   55.6410   23.8120   44.8470 C   0  0  0  0  0  0  0  0  0  0  0  0
   54.8450   23.2020   45.9740 C   0  0  0  0  0  0  0  0  0  0  0  0
   55.4430   23.0350   47.2370 C   0  0  0  0  0  0  0  0  0  0  0  0
   54.7060   22.5210   48.3080 C   0  0  0  0  0  0  0  0  0  0  0  0
   53.3640   22.1780   48.1310 C   0  0  0  0  0  0  0  0  0  0  0  0
   52.7580   22.3370   46.8820 C   0  0  0  0  0  0  0  0  0  0  0  0
   53.4890   22.8490   45.8040 C   0  0  0  0  0  0  0  0  0  0  0  0
   52.8580   23.0030   44.5740 O   0  0  0  0  0  0  0  0  0  0  0  0
   56.5783   27.7480   47.1783 H   0  0  0  0  0  0  0  0  0  0  0  0
   57.9542   26.6783   46.6868 H   0  0  0  0  0  0  0  0  0  0  0  0
   56.5881   30.2384   42.3448 H   0  0  0  0  0  0  0  0  0  0  0  0
   57.6043   32.4072   41.6431 H   0  0  0  0  0  0  0  0  0  0  0  0
   58.7637   33.8461   43.3182 H   0  0  0  0  0  0  0  0  0  0  0  0
   60.3246   32.4540   48.3391 H   0  0  0  0  0  0  0  0  0  0  0  0
   60.6488   30.9785   47.4058 H   0  0  0  0  0  0  0  0  0  0  0  0
   62.4970   32.2311   49.0883 H   0  0  0  0  0  0  0  0  0  0  0  0
   62.9618   31.1445   47.7736 H   0  0  0  0  0  0  0  0  0  0  0  0
   63.4075   34.0101   47.9721 H   0  0  0  0  0  0  0  0  0  0  0  0
   63.8719   32.9648   46.6250 H   0  0  0  0  0  0  0  0  0  0  0  0
   61.4606   34.7247   46.9514 H   0  0  0  0  0  0  0  0  0  0  0  0
   62.2308   34.1713   45.4504 H   0  0  0  0  0  0  0  0  0  0  0  0
   57.8305   30.9816   46.4276 H   0  0  0  0  0  0  0  0  0  0  0  0
   54.9479   24.2273   44.1005 H   0  0  0  0  0  0  0  0  0  0  0  0
   56.2680   23.0286   44.3962 H   0  0  0  0  0  0  0  0  0  0  0  0
   56.4979   23.3109   47.3825 H   0  0  0  0  0  0  0  0  0  0  0  0
   55.1832   22.3868   49.2900 H   0  0  0  0  0  0  0  0  0  0  0  0
   52.7827   21.7818   48.9766 H   0  0  0  0  0  0  0  0  0  0  0  0
   51.7026   22.0587   46.7456 H   0  0  0  0  0  0  0  0  0  0  0  0
  1  2  2  0
  2  3  1  0
  3  4  1  0
  4  5  1  0
  5  6  2  0
  5  7  1  0
  7  8  2  0
  8  9  1  0
  9 10  2  0
 10 11  1  0
 11 12  1  0
 12 13  2  0
 12 14  2  0
 12 15  1  0
 15 16  1  0
 16 17  1  0
 17 18  1  0
 18 19  1  0
 11 20  2  0
  2 21  1  0
 21 22  1  0
 22 23  1  0
 23 24  2  0
 24 25  1  0
 25 26  2  0
 26 27  1  0
 27 28  2  0
 28 29  1  0
 20  7  1  0
 28 23  1  0
 19 15  1  0
  3 30  1  0
  3 31  1  0
  8 32  1  0
  9 33  1  0
 10 34  1  0
 16 35  1  0
 16 36  1  0
 17 37  1  0
 17 38  1  0
 18 39  1  0
 18 40  1  0
 19 41  1  0
 19 42  1  0
 20 43  1  0
 22 44  1  0
 22 45  1  0
 24 46  1  0
 25 47  1  0
 26 48  1  0
 27 49  1  0
M  CHG  3   4  -1  21  -1  29  -1
M  END
>  <UniqueID>  (2) 
2

>  <SMILES>  (2) 
O=C(C[N-]C(=O)c1cccc(S(=O)(=O)N2CCCC2)c1)[N-]Cc1ccccc1[O-]

>  <Energy>  (2) 
50.53830512038097

>  <Genealogy>  (2) 
O=C(C[N-]C(=O)c1cccc(S(=O)(=O)N2CCCC2)c1)[N-]Cc1ccccc1[O-] (protonated)
O=C(C[N-]C(=O)c1cccc(S(=O)(=O)N2CCCC2)c1)[N-]Cc1ccccc1[O-] (3D coordinates assigned)
O=C(C[N-]C(=O)c1cccc(S(=O)(=O)N2CCCC2)c1)[N-]Cc1ccccc1[O-] (nonaromatic ring conformer: 50.53830512038097 kcal/mol)

>  <smiles>  (2) 
O=C(CNC(=O)c1cccc(S(=O)(=O)N2CCCC2)c1)NCc1ccccc1O

>  <score_type>  (2) 
oracle

>  <origin>  (2) 
adg

>  <m_score__min__energy>  (2) 
-15.199999999999999

>  <m_primary>  (2) 
energy

$$$$
2:0
     RDKit          3D

 58 62  0  0  0  0  0  0  0  0999 V2000
   63.4300   34.5730   50.4470 O   0  0  0  0  0  0  0  0  0  0  0  0
   63.4180   33.8070   49.4420 C   0  0  0  0  0  0  0  0  0  0  0  0
   64.5560   32.9770   49.1760 N   0  0  0  0  0  0  0  0  0  0  0  0
   65.5500   32.7170   50.1760 C   0  0  0  0  0  0  0  0  0  0  0  0
   66.8830   33.0850   49.9280 C   0  0  0  0  0  0  0  0  0  0  0  0
   67.8610   32.9040   50.9090 C   0  0  0  0  0  0  0  0  0  0  0  0
   67.5180   32.3440   52.1410 C   0  0  0  0  0  0  0  0  0  0  0  0
   66.1990   31.9450   52.3890 C   0  0  0  0  0  0  0  0  0  0  0  0
   65.2060   32.1170   51.4110 C   0  0  0  0  0  0  0  0  0  0  0  0
   63.8870   31.5930   51.6470 N   0  0  0  0  0  0  0  0  0  0  0  0
   62.9930   32.3130   52.5610 C   0  0  0  0  0  0  0  0  0  0  0  0
   61.5770   31.7570   52.4800 C   0  0  0  0  0  0  0  0  0  0  0  0
   61.2420   31.5550   51.1270 O   0  0  0  0  0  0  0  0  0  0  0  0
   61.9070   30.4050   50.6390 C   0  0  0  0  0  0  0  0  0  0  0  0
   63.4360   30.4000   50.9100 C   0  0  0  0  0  0  0  0  0  0  0  0
   62.2430   33.8020   48.5400 C   0  0  0  0  0  0  0  0  0  0  0  0
   60.9680   34.1700   49.0090 C   0  0  0  0  0  0  0  0  0  0  0  0
   59.8760   34.2010   48.1380 C   0  0  0  0  0  0  0  0  0  0  0  0
   60.0340   33.8500   46.7910 C   0  0  0  0  0  0  0  0  0  0  0  0
   58.6680   33.9300   45.6870 S   0  0  0  0  0  0  0  0  0  0  0  0
   59.0350   34.7540   44.4810 O   0  0  0  0  0  0  0  0  0  0  0  0
   57.4920   34.5890   46.3590 O   0  0  0  0  0  0  0  0  0  0  0  0
   58.2500   32.3250   45.1830 N   0  0  0  0  0  0  0  0  0  0  0  0
   57.7800   32.0020   43.8360 C   0  0  0  0  0  0  0  0  0  0  0  0
   57.7630   30.4550   43.7510 C   0  0  0  0  0  0  0  0  0  0  0  0
   58.2900   30.0290   45.0790 C   0  0  0  0  0  0  0  0  0  0  0  0
   58.4960   28.7280   45.5450 C   0  0  0  0  0  0  0  0  0  0  0  0
   58.9810   28.5550   46.8520 C   0  0  0  0  0  0  0  0  0  0  0  0
   59.2530   29.6740   47.6620 C   0  0  0  0  0  0  0  0  0  0  0  0
   59.0470   30.9740   47.1670 C   0  0  0  0  0  0  0  0  0  0  0  0
   58.5620   31.1190   45.8610 C   0  0  0  0  0  0  0  0  0  0  0  0
   61.2980   33.4800   46.3190 C   0  0  0  0  0  0  0  0  0  0  0  0
   62.3950   33.4610   47.1840 C   0  0  0  0  0  0  0  0  0  0  0  0
   64.7750   32.7300   48.1850 H   0  0  0  0  0  0  0  0  0  0  0  0
   67.1584   33.5184   48.9552 H   0  0  0  0  0  0  0  0  0  0  0  0
   68.9010   33.2026   50.7108 H   0  0  0  0  0  0  0  0  0  0  0  0
   68.2856   32.2160   52.9185 H   0  0  0  0  0  0  0  0  0  0  0  0
   65.9385   31.4932   53.3575 H   0  0  0  0  0  0  0  0  0  0  0  0
   63.3652   32.2040   53.5904 H   0  0  0  0  0  0  0  0  0  0  0  0
   62.9728   33.3743   52.2723 H   0  0  0  0  0  0  0  0  0  0  0  0
   61.5248   30.8001   53.0200 H   0  0  0  0  0  0  0  0  0  0  0  0
   60.8715   32.4671   52.9362 H   0  0  0  0  0  0  0  0  0  0  0  0
   61.4669   29.5197   51.1211 H   0  0  0  0  0  0  0  0  0  0  0  0
   61.7762   30.3999   49.5468 H   0  0  0  0  0  0  0  0  0  0  0  0
   63.6857   29.5063   51.5007 H   0  0  0  0  0  0  0  0  0  0  0  0
   63.9460   30.3993   49.9354 H   0  0  0  0  0  0  0  0  0  0  0  0
   60.8304   34.4348   50.0677 H   0  0  0  0  0  0  0  0  0  0  0  0
   58.8865   34.5027   48.5121 H   0  0  0  0  0  0  0  0  0  0  0  0
   56.7689   32.4050   43.6768 H   0  0  0  0  0  0  0  0  0  0  0  0
   58.4305   32.4414   43.0654 H   0  0  0  0  0  0  0  0  0  0  0  0
   56.7404   30.0808   43.5951 H   0  0  0  0  0  0  0  0  0  0  0  0
   58.3546   30.0651   42.9096 H   0  0  0  0  0  0  0  0  0  0  0  0
   58.2835   27.8599   44.9037 H   0  0  0  0  0  0  0  0  0  0  0  0
   59.1490   27.5411   47.2442 H   0  0  0  0  0  0  0  0  0  0  0  0
   59.6281   29.5308   48.6861 H   0  0  0  0  0  0  0  0  0  0  0  0
   59.2614   31.8550   47.7898 H   0  0  0  0  0  0  0  0  0  0  0  0
   61.4286   33.2029   45.2625 H   0  0  0  0  0  0  0  0  0  0  0  0
   63.3863   33.1768   46.8011 H   0  0  0  0  0  0  0  0  0  0  0  0
  1  2  2  0
  2  3  1  0
  3  4  1  0
  4  5  2  0
  5  6  1  0
  6  7  2  0
  7  8  1  0
  8  9  2  0
  9 10  1  0
 10 11  1  0
 11 12  1  0
 12 13  1  0
 13 14  1  0
 14 15  1  0
  2 16  1  0
 16 17  2  0
 17 18  1  0
 18 19  2  0
 19 20  1  0
 20 21  2  0
 20 22  2  0
 20 23  1  0
 23 24  1  0
 24 25  1  0
 25 26  1  0
 26 27  2  0
 27 28  1  0
 28 29  2  0
 29 30  1  0
 30 31  2  0
 19 32  1  0
 32 33  2  0
  9  4  1  0
 15 10  1  0
 33 16  1  0
 31 23  1  0
 31 26  1  0
  3 34  1  0
  5 35  1  0
  6 36  1  0
  7 37  1  0
  8 38  1  0
 11 39  1  0
 11 40  1  0
 12 41  1  0
 12 42  1  0
 14 43  1  0
 14 44  1  0
 15 45  1  0
 15 46  1  0
 17 47  1  0
 18 48  1  0
 24 49  1  0
 24 50  1  0
 25 51  1  0
 25 52  1  0
 27 53  1  0
 28 54  1  0
 29 55  1  0
 30 56  1  0
 32 57  1  0
 33 58  1  0
M  END
>  <UniqueID>  (3) 
3

>  <SMILES>  (3) 
O=C(Nc1ccccc1N1CCOCC1)c1ccc(S(=O)(=O)N2CCc3ccccc32)cc1

>  <Energy>  (3) 
97.07112750578648

>  <Genealogy>  (3) 
O=C(Nc1ccccc1N1CCOCC1)c1ccc(S(=O)(=O)N2CCc3ccccc32)cc1 (3D coordinates assigned)
O=C(Nc1ccccc1N1CCOCC1)c1ccc(S(=O)(=O)N2CCc3ccccc32)cc1 (nonaromatic ring conformer: 97.07112750578648 kcal/mol)

>  <smiles>  (3) 
O=C(Nc1ccccc1N1CCOCC1)c1ccc(S(=O)(=O)N2CCc3ccccc32)cc1

>  <score_type>  (3) 
oracle

>  <origin>  (3) 
adg

>  <m_score__min__energy>  (3) 
-9.0700000000000003

>  <m_primary>  (3) 
energy

$$$$
3:0
     RDKit          3D

 71 75  0  0  0  0  0  0  0  0999 V2000
   65.7070   31.9480   50.1000 C   0  0  0  0  0  0  0  0  0  0  0  0
   65.2140   33.0770   49.3870 O   0  0  0  0  0  0  0  0  0  0  0  0
   63.8530   33.3530   49.1770 C   0  0  0  0  0  0  0  0  0  0  0  0
   63.3290   33.5950   47.8930 C   0  0  0  0  0  0  0  0  0  0  0  0
   61.9650   33.8650   47.7150 C   0  0  0  0  0  0  0  0  0  0  0  0
   61.1060   33.8700   48.8300 C   0  0  0  0  0  0  0  0  0  0  0  0
   61.6300   33.6520   50.1110 C   0  0  0  0  0  0  0  0  0  0  0  0
   63.0010   33.3870   50.2910 C   0  0  0  0  0  0  0  0  0  0  0  0
   63.5550   33.1500   51.5600 O   0  0  0  0  0  0  0  0  0  0  0  0
   64.1730   34.1460   52.3690 C   0  0  0  0  0  0  0  0  0  0  0  0
   59.6440   34.2030   48.6670 C   0  0  0  0  0  0  0  0  0  0  0  0
   59.1360   33.8570   47.3260 N   0  0  0  0  0  0  0  0  0  0  0  0
   58.9870   32.3940   47.1430 C   0  0  0  0  0  0  0  0  0  0  0  0
   58.7920   32.0430   45.6620 C   0  0  0  0  0  0  0  0  0  0  0  0
   58.5380   30.5680   45.5050 C   0  0  0  0  0  0  0  0  0  0  0  0
   57.4290   30.1200   44.7720 C   0  0  0  0  0  0  0  0  0  0  0  0
   57.2240   28.7530   44.5680 C   0  0  0  0  0  0  0  0  0  0  0  0
   58.1380   27.8150   45.0690 C   0  0  0  0  0  0  0  0  0  0  0  0
   57.9120   26.4170   44.8300 N   0  0  0  0  0  0  0  0  0  0  0  0
   57.7700   25.8470   43.5180 C   0  0  0  0  0  0  0  0  0  0  0  0
   57.9070   26.5580   42.4860 O   0  0  0  0  0  0  0  0  0  0  0  0
   57.3580   24.4140   43.3720 C   0  0  0  0  0  0  0  0  0  0  0  0
   56.3880   24.0700   44.4170 N   0  0  0  0  0  0  0  0  0  0  0  0
   55.0930   24.0630   44.0920 N   0  0  0  0  0  0  0  0  0  0  0  0
   54.1190   23.7100   44.9700 C   0  0  0  0  0  0  0  0  0  0  0  0
   52.6880   23.7220   44.5250 C   0  0  0  0  0  0  0  0  0  0  0  0
   54.4770   23.3250   46.2660 C   0  0  0  0  0  0  0  0  0  0  0  0
   53.5290   22.9540   47.1670 N   0  0  0  0  0  0  0  0  0  0  0  0
   53.8640   22.5650   48.4230 C   0  0  0  0  0  0  0  0  0  0  0  0
   52.7980   22.1980   49.4010 C   0  0  0  0  0  0  0  0  0  0  0  0
   55.1660   22.5640   48.8070 N   0  0  0  0  0  0  0  0  0  0  0  0
   56.1560   22.9240   47.9520 C   0  0  0  0  0  0  0  0  0  0  0  0
   57.3490   22.8990   48.3570 O   0  0  0  0  0  0  0  0  0  0  0  0
   55.8360   23.3180   46.6330 C   0  0  0  0  0  0  0  0  0  0  0  0
   56.7970   23.6990   45.6730 C   0  0  0  0  0  0  0  0  0  0  0  0
   58.0270   23.6960   45.9600 O   0  0  0  0  0  0  0  0  0  0  0  0
   59.2400   28.2620   45.8190 C   0  0  0  0  0  0  0  0  0  0  0  0
   59.4430   29.6300   46.0260 C   0  0  0  0  0  0  0  0  0  0  0  0
   59.9600   34.5080   46.2830 C   0  0  0  0  0  0  0  0  0  0  0  0
   61.4370   34.0670   46.3160 C   0  0  0  0  0  0  0  0  0  0  0  0
   65.6261   32.1333   51.1813 H   0  0  0  0  0  0  0  0  0  0  0  0
   65.1149   31.0597   49.8349 H   0  0  0  0  0  0  0  0  0  0  0  0
   66.7610   31.7785   49.8349 H   0  0  0  0  0  0  0  0  0  0  0  0
   63.9973   33.5720   47.0196 H   0  0  0  0  0  0  0  0  0  0  0  0
   60.9633   33.6883   50.9852 H   0  0  0  0  0  0  0  0  0  0  0  0
   64.0215   33.9018   53.4308 H   0  0  0  0  0  0  0  0  0  0  0  0
   65.2506   34.1792   52.1505 H   0  0  0  0  0  0  0  0  0  0  0  0
   63.7242   35.1262   52.1505 H   0  0  0  0  0  0  0  0  0  0  0  0
   59.0680   33.6432   49.4185 H   0  0  0  0  0  0  0  0  0  0  0  0
   59.5299   35.2890   48.7996 H   0  0  0  0  0  0  0  0  0  0  0  0
   59.8912   31.8907   47.5161 H   0  0  0  0  0  0  0  0  0  0  0  0
   58.1012   32.0589   47.7026 H   0  0  0  0  0  0  0  0  0  0  0  0
   57.9323   32.6036   45.2661 H   0  0  0  0  0  0  0  0  0  0  0  0
   59.7034   32.3106   45.1073 H   0  0  0  0  0  0  0  0  0  0  0  0
   56.7174   30.8483   44.3559 H   0  0  0  0  0  0  0  0  0  0  0  0
   56.3397   28.4104   44.0107 H   0  0  0  0  0  0  0  0  0  0  0  0
   57.6470   25.8210   45.6480 H   0  0  0  0  0  0  0  0  0  0  0  0
   56.8992   24.2643   42.3835 H   0  0  0  0  0  0  0  0  0  0  0  0
   58.2433   23.7685   43.4697 H   0  0  0  0  0  0  0  0  0  0  0  0
   52.0299   23.7275   45.4064 H   0  0  0  0  0  0  0  0  0  0  0  0
   52.4994   24.6218   43.9210 H   0  0  0  0  0  0  0  0  0  0  0  0
   52.4843   22.8255   43.9210 H   0  0  0  0  0  0  0  0  0  0  0  0
   53.1787   22.3291   50.4247 H   0  0  0  0  0  0  0  0  0  0  0  0
   51.9225   22.8465   49.2496 H   0  0  0  0  0  0  0  0  0  0  0  0
   52.5072   21.1480   49.2496 H   0  0  0  0  0  0  0  0  0  0  0  0
   59.9452   27.5329   46.2446 H   0  0  0  0  0  0  0  0  0  0  0  0
   60.3164   29.9728   46.6001 H   0  0  0  0  0  0  0  0  0  0  0  0
   59.5412   34.2554   45.2977 H   0  0  0  0  0  0  0  0  0  0  0  0
   59.9367   35.5908   46.4752 H   0  0  0  0  0  0  0  0  0  0  0  0
   61.5313   33.1189   45.7663 H   0  0  0  0  0  0  0  0  0  0  0  0
   62.0292   34.8717   45.8557 H   0  0  0  0  0  0  0  0  0  0  0  0
  1  2  1  0
  2  3  1  0
  3  4  2  0
  4  5  1  0
  5  6  2  0
  6  7  1  0
  7  8  2  0
  8  9  1  0
  9 10  1  0
  6 11  1  0
 11 12  1  0
 12 13  1  0
 13 14  1  0
 14 15  1  0
 15 16  2  0
 16 17  1  0
 17 18  2  0
 18 19  1  0
 19 20  1  0
 20 21  2  0
 20 22  1  0
 22 23  1  0
 23 24  1  0
 24 25  2  0
 25 26  1  0
 25 27  1  0
 27 28  1  0
 28 29  1  0
 29 30  1  0
 29 31  2  0
 31 32  1  0
 32 33  2  0
 32 34  1  0
 34 35  1  0
 35 36  2  0
 18 37  1  0
 37 38  2  0
 12 39  1  0
 39 40  1  0
  8  3  1  0
 38 15  1  0
 40  5  1  0
 35 23  1  0
 34 27  2  0
  1 41  1  0
  1 42  1  0
  1 43  1  0
  4 44  1  0
  7 45  1  0
 10 46  1  0
 10 47  1  0
 10 48  1  0
 11 49  1  0
 11 50  1  0
 13 51  1  0
 13 52  1  0
 14 53  1  0
 14 54  1  0
 16 55  1  0
 17 56  1  0
 19 57  1  0
 22 58  1  0
 22 59  1  0
 26 60  1  0
 26 61  1  0
 26 62  1  0
 30 63  1  0
 30 64  1  0
 30 65  1  0
 37 66  1  0
 38 67  1  0
 39 68  1  0
 39 69  1  0
 40 70  1  0
 40 71  1  0
M  CHG  1  28  -1
M  END
>  <UniqueID>  (4) 
4

>  <SMILES>  (4) 
COc1cc2c(cc1OC)CN(CCc1ccc(NC(=O)Cn3nc(C)c4[n-]c(C)nc(=O)c4c3=O)cc1)CC2

>  <Energy>  (4) 
88.23790671912536

>  <Genealogy>  (4) 
COc1cc2c(cc1OC)CN(CCc1ccc(NC(=O)Cn3nc(C)c4[n-]c(C)nc(=O)c4c3=O)cc1)CC2 (protonated)
COc1cc2c(cc1OC)CN(CCc1ccc(NC(=O)Cn3nc(C)c4[n-]c(C)nc(=O)c4c3=O)cc1)CC2 (3D coordinates assigned)
COc1cc2c(cc1OC)CN(CCc1ccc(NC(=O)Cn3nc(C)c4[n-]c(C)nc(=O)c4c3=O)cc1)CC2 (nonaromatic ring conformer: 88.23790671912536 kcal/mol)

>  <smiles>  (4) 
COc1cc2c(cc1OC)CN(CCc1ccc(NC(=O)Cn3nc(C)c4[nH]c(C)nc(=O)c4c3=O)cc1)CC2

>  <score_type>  (4) 
oracle

>  <origin>  (4) 
adg

>  <m_score__min__energy>  (4) 
-10.199999999999999

>  <m_primary>  (4) 
energy

$$$$
4:0
     RDKit          3D

 61 65  0  0  0  0  0  0  0  0999 V2000
   58.3461   28.1282   42.6630 H   0  0  0  0  0  0  0  0  0  0  0  0
   57.8700   27.2050   43.0250 C   0  0  0  0  0  0  0  0  0  0  0  0
   57.0541   26.7444   42.4486 H   0  0  0  0  0  0  0  0  0  0  0  0
   58.2850   26.6400   44.1710 C   0  0  0  0  0  0  0  0  0  0  0  0
   57.7660   25.4710   44.7390 C   0  0  0  0  0  0  0  0  0  0  0  0
   56.8060   24.6710   44.2340 C   0  0  0  0  0  0  0  0  0  0  0  0
   57.0149   24.1452   43.2907 H   0  0  0  0  0  0  0  0  0  0  0  0
   55.4920   24.4580   44.8700 C   0  0  0  0  0  0  0  0  0  0  0  0
   54.7580   25.3500   45.6270 C   0  0  0  0  0  0  0  0  0  0  0  0
   55.1440   26.6380   45.9740 O   0  0  0  0  0  0  0  0  0  0  0  0
   53.5630   24.8190   45.9530 N   0  0  0  0  0  0  0  0  0  0  0  0
   53.6000   23.6090   45.3570 C   0  0  0  0  0  0  0  0  0  0  0  0
   52.6480   22.7880   45.4180 O   0  0  0  0  0  0  0  0  0  0  0  0
   54.7390   23.3620   44.6820 N   0  0  0  0  0  0  0  0  0  0  0  0
   54.9820   22.5080   44.1320 H   0  0  0  0  0  0  0  0  0  0  0  0
   58.4710   25.2600   45.9140 C   0  0  0  0  0  0  0  0  0  0  0  0
   58.3324   24.4307   46.6232 H   0  0  0  0  0  0  0  0  0  0  0  0
   59.3800   26.2920   46.0210 C   0  0  0  0  0  0  0  0  0  0  0  0
   60.3190   26.4670   47.1770 C   0  0  0  0  0  0  0  0  0  0  0  0
   59.7626   26.3633   48.1202 H   0  0  0  0  0  0  0  0  0  0  0  0
   61.1061   25.7001   47.1294 H   0  0  0  0  0  0  0  0  0  0  0  0
   60.7770   27.4660   47.1294 H   0  0  0  0  0  0  0  0  0  0  0  0
   59.2730   27.1370   44.9670 N   0  0  0  0  0  0  0  0  0  0  0  0
   60.0510   28.3740   44.7860 C   0  0  0  0  0  0  0  0  0  0  0  0
   61.1211   28.1240   44.7373 H   0  0  0  0  0  0  0  0  0  0  0  0
   59.7306   28.8606   43.8530 H   0  0  0  0  0  0  0  0  0  0  0  0
   59.8160   29.3220   45.9330 C   0  0  0  0  0  0  0  0  0  0  0  0
   58.6570   30.1100   45.9760 C   0  0  0  0  0  0  0  0  0  0  0  0
   57.9224   30.0453   45.1598 H   0  0  0  0  0  0  0  0  0  0  0  0
   58.4280   30.9770   47.0480 C   0  0  0  0  0  0  0  0  0  0  0  0
   57.5153   31.5907   47.0681 H   0  0  0  0  0  0  0  0  0  0  0  0
   59.3550   31.0710   48.1010 C   0  0  0  0  0  0  0  0  0  0  0  0
   59.1180   31.9660   49.2080 N   0  0  0  0  0  0  0  0  0  0  0  0
   59.2990   33.4170   49.0370 C   0  0  0  0  0  0  0  0  0  0  0  0
   60.0183   33.5974   48.2245 H   0  0  0  0  0  0  0  0  0  0  0  0
   58.3254   33.8673   48.7936 H   0  0  0  0  0  0  0  0  0  0  0  0
   59.8280   34.0570   50.3290 C   0  0  0  0  0  0  0  0  0  0  0  0
   60.9007   33.8328   50.4235 H   0  0  0  0  0  0  0  0  0  0  0  0
   59.6532   35.1413   50.2685 H   0  0  0  0  0  0  0  0  0  0  0  0
   59.1300   33.5490   51.5180 N   0  0  0  0  0  0  0  0  0  0  0  0
   59.5710   33.9550   52.8280 C   0  0  0  0  0  0  0  0  0  0  0  0
   58.8650   34.9410   53.5420 C   0  0  0  0  0  0  0  0  0  0  0  0
   57.9781   35.4124   53.0934 H   0  0  0  0  0  0  0  0  0  0  0  0
   59.2860   35.3240   54.8190 C   0  0  0  0  0  0  0  0  0  0  0  0
   58.7307   36.0965   55.3712 H   0  0  0  0  0  0  0  0  0  0  0  0
   60.4100   34.7280   55.3950 C   0  0  0  0  0  0  0  0  0  0  0  0
   60.7410   35.0331   56.3987 H   0  0  0  0  0  0  0  0  0  0  0  0
   61.1140   33.7440   54.6960 C   0  0  0  0  0  0  0  0  0  0  0  0
   61.9986   33.2743   55.1508 H   0  0  0  0  0  0  0  0  0  0  0  0
   60.6960   33.3550   53.4190 C   0  0  0  0  0  0  0  0  0  0  0  0
   61.2503   32.5760   52.8750 H   0  0  0  0  0  0  0  0  0  0  0  0
   58.0500   32.5660   51.3640 C   0  0  0  0  0  0  0  0  0  0  0  0
   57.7860   32.1529   52.3487 H   0  0  0  0  0  0  0  0  0  0  0  0
   57.1675   33.0541   50.9248 H   0  0  0  0  0  0  0  0  0  0  0  0
   58.5210   31.4370   50.4460 C   0  0  0  0  0  0  0  0  0  0  0  0
   59.2725   30.8340   50.9767 H   0  0  0  0  0  0  0  0  0  0  0  0
   57.6489   30.8235   50.1756 H   0  0  0  0  0  0  0  0  0  0  0  0
   60.5190   30.2830   48.0520 C   0  0  0  0  0  0  0  0  0  0  0  0
   61.2557   30.3479   48.8663 H   0  0  0  0  0  0  0  0  0  0  0  0
   60.7480   29.4190   46.9790 C   0  0  0  0  0  0  0  0  0  0  0  0
   61.6641   28.8106   46.9530 H   0  0  0  0  0  0  0  0  0  0  0  0
  1  2  1  0
  2  3  1  0
  2  4  2  0
  4  5  1  0
  5  6  2  0
  6  7  1  0
  6  8  1  0
  8  9  2  0
  9 10  1  0
  9 11  1  0
 11 12  1  0
 12 13  2  0
 12 14  1  0
 14 15  1  0
  5 16  1  0
 16 17  1  0
 16 18  2  0
 18 19  1  0
 19 20  1  0
 19 21  1  0
 19 22  1  0
 18 23  1  0
 23 24  1  0
 24 25  1  0
 24 26  1  0
 24 27  1  0
 27 28  2  0
 28 29  1  0
 28 30  1  0
 30 31  1  0
 30 32  2  0
 32 33  1  0
 33 34  1  0
 34 35  1  0
 34 36  1  0
 34 37  1  0
 37 38  1  0
 37 39  1  0
 37 40  1  0
 40 41  1  0
 41 42  2  0
 42 43  1  0
 42 44  1  0
 44 45  1  0
 44 46  2  0
 46 47  1  0
 46 48  1  0
 48 49  1  0
 48 50  2  0
 50 51  1  0
 40 52  1  0
 52 53  1  0
 52 54  1  0
 52 55  1  0
 55 56  1  0
 55 57  1  0
 32 58  1  0
 58 59  1  0
 58 60  2  0
 60 61  1  0
 23  4  1  0
 60 27  1  0
 14  8  1  0
 55 33  1  0
 50 41  1  0
M  CHG  2  10  -1  11  -1
M  END
>  <UniqueID>  (5) 
5

>  <SMILES>  (5) 
C=c1/c(=C/c2[nH]c(=O)[n-]c2[O-])cc(C)n1Cc1ccc(N2CCN(c3ccccc3)CC2)cc1

>  <Energy>  (5) 
140.23456593763555

>  <Genealogy>  (5) 
C=c1c(=Cc2[nH]c(=O)[n-]c2[O-])cc(C)n1Cc1ccc(N2CCN(c3ccccc3)CC2)cc1 (protonated)
C=c1/c(=C/c2[nH]c(=O)[n-]c2[O-])cc(C)n1Cc1ccc(N2CCN(c3ccccc3)CC2)cc1 (cis-trans isomerization)
C=c1/c(=C/c2[nH]c(=O)[n-]c2[O-])cc(C)n1Cc1ccc(N2CCN(c3ccccc3)CC2)cc1 (3D coordinates assigned)
C=c1/c(=C/c2[nH]c(=O)[n-]c2[O-])cc(C)n1Cc1ccc(N2CCN(c3ccccc3)CC2)cc1 (nonaromatic ring conformer: 140.23456593763555 kcal/mol)

>  <smiles>  (5) 
C=c1c(=Cc2[nH]c(=O)[nH]c2O)cc(C)n1Cc1ccc(N2CCN(c3ccccc3)CC2)cc1

>  <score_type>  (5) 
oracle

>  <origin>  (5) 
adg

>  <m_score__min__energy>  (5) 
-14.279999999999999

>  <m_primary>  (5) 
energy

$$$$
5:0
     RDKit          3D

 71 75  0  0  0  0  0  0  0  0999 V2000
   64.5770   32.5250   47.3230 H   0  0  0  0  0  0  0  0  0  0  0  0
   64.0320   32.8040   46.5400 O   0  0  0  0  0  0  0  0  0  0  0  0
   63.0870   33.7380   47.0010 C   0  0  0  0  0  0  0  0  0  0  0  0
   62.2712   33.8125   46.2669 H   0  0  0  0  0  0  0  0  0  0  0  0
   63.5930   34.7067   47.1255 H   0  0  0  0  0  0  0  0  0  0  0  0
   62.4930   33.3200   48.3740 C   0  0  1  0  0  0  0  0  0  0  0  0
   61.6477   33.9722   48.6388 H   0  0  0  0  0  0  0  0  0  0  0  0
   61.9220   31.9070   48.2630 C   0  0  0  0  0  0  0  0  0  0  0  0
   61.3170   31.4460   47.0770 C   0  0  0  0  0  0  0  0  0  0  0  0
   61.3103   32.0867   46.1829 H   0  0  0  0  0  0  0  0  0  0  0  0
   60.7250   30.1800   47.0280 C   0  0  0  0  0  0  0  0  0  0  0  0
   60.2442   29.8344   46.1010 H   0  0  0  0  0  0  0  0  0  0  0  0
   60.7430   29.3540   48.1530 C   0  0  0  0  0  0  0  0  0  0  0  0
   60.1650   28.1270   48.0970 F   0  0  0  0  0  0  0  0  0  0  0  0
   61.3620   29.7850   49.3270 C   0  0  0  0  0  0  0  0  0  0  0  0
   61.3890   29.1250   50.2066 H   0  0  0  0  0  0  0  0  0  0  0  0
   61.9480   31.0530   49.3890 C   0  0  0  0  0  0  0  0  0  0  0  0
   62.4316   31.3876   50.3186 H   0  0  0  0  0  0  0  0  0  0  0  0
   63.4500   33.5550   49.5050 N   0  0  0  0  0  0  0  0  0  0  0  0
   63.0700   34.4860   50.4490 C   0  0  0  0  0  0  0  0  0  0  0  0
   62.1164   35.0189   50.3201 H   0  0  0  0  0  0  0  0  0  0  0  0
   63.8600   34.7710   51.5620 C   0  0  0  0  0  0  0  0  0  0  0  0
   63.5388   35.5316   52.2888 H   0  0  0  0  0  0  0  0  0  0  0  0
   65.0500   34.0910   51.7460 C   0  0  0  0  0  0  0  0  0  0  0  0
   65.6910   34.3291   52.6077 H   0  0  0  0  0  0  0  0  0  0  0  0
   65.4390   33.1030   50.8400 C   0  0  0  0  0  0  0  0  0  0  0  0
   66.7060   32.3750   51.0870 C   0  0  0  0  0  0  0  0  0  0  0  0
   67.7030   33.0010   51.5340 O   0  0  0  0  0  0  0  0  0  0  0  0
   66.8010   30.9700   50.8120 N   0  0  0  0  0  0  0  0  0  0  0  0
   66.1430   30.0240   51.4210 C   0  0  0  0  0  0  0  0  0  0  0  0
   66.7000   28.7850   51.4920 N   0  0  0  0  0  0  0  0  0  0  0  0
   66.0930   27.7570   52.1470 C   0  0  0  0  0  0  0  0  0  0  0  0
   66.5792   26.7711   52.1868 H   0  0  0  0  0  0  0  0  0  0  0  0
   64.8560   27.9470   52.7690 C   0  0  0  0  0  0  0  0  0  0  0  0
   64.3600   27.1101   53.2824 H   0  0  0  0  0  0  0  0  0  0  0  0
   64.2500   29.2150   52.7340 C   0  0  0  0  0  0  0  0  0  0  0  0
   63.0570   29.5120   53.4120 O   0  0  0  0  0  0  0  0  0  0  0  0
   61.9880   30.2680   52.9150 C   0  0  0  0  0  0  0  0  0  0  0  0
   60.7600   29.6850   52.5440 C   0  0  0  0  0  0  0  0  0  0  0  0
   60.6085   28.6021   52.6639 H   0  0  0  0  0  0  0  0  0  0  0  0
   59.7300   30.4820   52.0220 C   0  0  0  0  0  0  0  0  0  0  0  0
   58.7750   30.0212   51.7294 H   0  0  0  0  0  0  0  0  0  0  0  0
   59.9140   31.8650   51.8720 C   0  0  0  0  0  0  0  0  0  0  0  0
   58.8630   32.6470   51.2890 N   0  0  0  0  0  0  0  0  0  0  0  0
   58.5940   32.7580   49.8830 C   0  0  0  0  0  0  0  0  0  0  0  0
   57.7800   31.9730   49.3300 O   0  0  0  0  0  0  0  0  0  0  0  0
   59.2330   33.7640   49.0870 N   0  0  0  0  0  0  0  0  0  0  0  0
   59.1470   33.8930   47.6630 C   0  0  0  0  0  0  0  0  0  0  0  0
   59.6480   35.0530   47.0640 C   0  0  0  0  0  0  0  0  0  0  0  0
   60.1305   35.8245   47.6820 H   0  0  0  0  0  0  0  0  0  0  0  0
   59.5380   35.2350   45.6860 C   0  0  0  0  0  0  0  0  0  0  0  0
   59.9505   36.1417   45.2193 H   0  0  0  0  0  0  0  0  0  0  0  0
   58.9060   34.2710   44.8940 C   0  0  0  0  0  0  0  0  0  0  0  0
   58.8263   34.4239   43.8076 H   0  0  0  0  0  0  0  0  0  0  0  0
   58.3700   33.1040   45.4780 C   0  0  0  0  0  0  0  0  0  0  0  0
   57.6690   32.0800   44.6600 C   0  0  0  0  0  0  0  0  0  0  0  0
   56.9520   31.2080   45.2280 O   0  0  0  0  0  0  0  0  0  0  0  0
   57.7840   32.0390   43.1640 C   0  0  0  0  0  0  0  0  0  0  0  0
   58.7857   31.6819   42.8829 H   0  0  0  0  0  0  0  0  0  0  0  0
   57.0237   31.3566   42.7564 H   0  0  0  0  0  0  0  0  0  0  0  0
   57.6269   33.0485   42.7564 H   0  0  0  0  0  0  0  0  0  0  0  0
   58.4910   32.9290   46.8700 C   0  0  0  0  0  0  0  0  0  0  0  0
   58.0692   32.0304   47.3440 H   0  0  0  0  0  0  0  0  0  0  0  0
   61.1540   32.4380   52.2150 C   0  0  0  0  0  0  0  0  0  0  0  0
   61.3152   33.5176   52.0789 H   0  0  0  0  0  0  0  0  0  0  0  0
   62.1790   31.6410   52.7270 C   0  0  0  0  0  0  0  0  0  0  0  0
   63.1463   32.0968   52.9852 H   0  0  0  0  0  0  0  0  0  0  0  0
   64.9000   30.2510   52.0550 C   0  0  0  0  0  0  0  0  0  0  0  0
   64.4406   31.2496   52.0141 H   0  0  0  0  0  0  0  0  0  0  0  0
   64.6000   32.8120   49.7350 C   0  0  0  0  0  0  0  0  0  0  0  0
   64.9040   31.8300   49.0000 O   0  0  0  0  0  0  0  0  0  0  0  0
  1  2  1  0
  2  3  1  0
  3  4  1  0
  3  5  1  0
  3  6  1  0
  6  7  1  1
  6  8  1  0
  8  9  2  0
  9 10  1  0
  9 11  1  0
 11 12  1  0
 11 13  2  0
 13 14  1  0
 13 15  1  0
 15 16  1  0
 15 17  2  0
 17 18  1  0
  6 19  1  0
 19 20  1  0
 20 21  1  0
 20 22  2  0
 22 23  1  0
 22 24  1  0
 24 25  1  0
 24 26  2  0
 26 27  1  0
 27 28  2  0
 27 29  1  0
 29 30  2  0
 30 31  1  0
 31 32  1  0
 32 33  1  0
 32 34  2  0
 34 35  1  0
 34 36  1  0
 36 37  1  0
 37 38  1  0
 38 39  2  0
 39 40  1  0
 39 41  1  0
 41 42  1  0
 41 43  2  0
 43 44  1  0
 44 45  1  0
 45 46  2  0
 45 47  1  0
 47 48  1  0
 48 49  2  0
 49 50  1  0
 49 51  1  0
 51 52  1  0
 51 53  2  0
 53 54  1  0
 53 55  1  0
 55 56  1  0
 56 57  2  0
 56 58  1  0
 58 59  1  0
 58 60  1  0
 58 61  1  0
 55 62  2  0
 62 63  1  0
 43 64  1  0
 64 65  1  0
 64 66  2  0
 66 67  1  0
 36 68  2  0
 68 69  1  0
 26 70  1  0
 70 71  2  0
 17  8  1  0
 70 19  1  0
 68 30  1  0
 66 38  1  0
 62 48  1  0
M  CHG  3  31  -1  44  -1  47  -1
M  END
>  <UniqueID>  (6) 
6

>  <SMILES>  (6) 
CC(=O)c1cccc([N-]C(=O)[N-]c2ccc(Oc3cc[n-]/c(=N/C(=O)c4cccn([C@@H](CO)c5ccc(F)cc5)c4=O)c3)cc2)c1

>  <Energy>  (6) 
122.75916544794958

>  <Genealogy>  (6) 
CC(=O)c1cccc([N-]C(=O)[N-]c2ccc(Oc3cc[n-]c(=NC(=O)c4cccn(C(CO)c5ccc(F)cc5)c4=O)c3)cc2)c1 (protonated)
CC(=O)c1cccc([N-]C(=O)[N-]c2ccc(Oc3cc[n-]c(=NC(=O)c4cccn([C@@H](CO)c5ccc(F)cc5)c4=O)c3)cc2)c1 (chirality)
CC(=O)c1cccc([N-]C(=O)[N-]c2ccc(Oc3cc[n-]/c(=N/C(=O)c4cccn([C@@H](CO)c5ccc(F)cc5)c4=O)c3)cc2)c1 (cis-trans isomerization)
CC(=O)c1cccc([N-]C(=O)[N-]c2ccc(Oc3cc[n-]/c(=N/C(=O)c4cccn([C@@H](CO)c5ccc(F)cc5)c4=O)c3)cc2)c1 (3D coordinates assigned)
CC(=O)c1cccc([N-]C(=O)[N-]c2ccc(Oc3cc[n-]/c(=N/C(=O)c4cccn([C@@H](CO)c5ccc(F)cc5)c4=O)c3)cc2)c1 (optimized conformer: 122.75916544794958 kcal/mol)

>  <smiles>  (6) 
CC(=O)c1cccc(NC(=O)Nc2ccc(Oc3cc[nH]c(=NC(=O)c4cccn(C(CO)c5ccc(F)cc5)c4=O)c3)cc2)c1

>  <score_type>  (6) 
oracle

>  <origin>  (6) 
adg

>  <m_score__min__energy>  (6) 
-13.18

>  <m_primary>  (6) 
energy

$$$$
6:0
     RDKit          3D

 52 54  0  0  0  0  0  0  0  0999 V2000
   59.3330   35.2620   45.2690 C   0  0  0  0  0  0  0  0  0  0  0  0
   58.8890   33.8390   45.3810 C   0  0  0  0  0  0  0  0  0  0  0  0
   59.0650   33.1320   46.5750 C   0  0  0  0  0  0  0  0  0  0  0  0
   58.6480   31.7990   46.6310 C   0  0  0  0  0  0  0  0  0  0  0  0
   58.8430   30.9970   47.8780 C   0  0  0  0  0  0  0  0  0  0  0  0
   58.0430   31.2380   45.5510 N   0  0  0  0  0  0  0  0  0  0  0  0
   57.8530   31.9470   44.4090 C   0  0  0  0  0  0  0  0  0  0  0  0
   56.9920   31.2030   43.0280 S   0  0  0  0  0  0  0  0  0  0  0  0
   57.3070   29.4790   43.5460 C   0  0  0  0  0  0  0  0  0  0  0  0
   56.3120   29.0080   44.5740 C   0  0  0  0  0  0  0  0  0  0  0  0
   55.1230   29.4180   44.5210 O   0  0  0  0  0  0  0  0  0  0  0  0
   56.6760   28.0890   45.6150 N   0  0  0  0  0  0  0  0  0  0  0  0
   57.9500   27.4510   45.8110 C   0  0  0  0  0  0  0  0  0  0  0  0
   59.1430   28.1970   45.8260 C   0  0  0  0  0  0  0  0  0  0  0  0
   60.3660   27.5790   46.0980 C   0  0  0  0  0  0  0  0  0  0  0  0
   60.4090   26.2170   46.3940 C   0  0  0  0  0  0  0  0  0  0  0  0
   59.2300   25.4720   46.4270 C   0  0  0  0  0  0  0  0  0  0  0  0
   57.9970   26.0780   46.1360 C   0  0  0  0  0  0  0  0  0  0  0  0
   56.7690   25.2620   46.2030 C   0  0  0  0  0  0  0  0  0  0  0  0
   56.2920   24.9790   47.3350 O   0  0  0  0  0  0  0  0  0  0  0  0
   56.1430   24.7500   45.0100 N   0  0  0  0  0  0  0  0  0  0  0  0
   54.7670   24.2480   45.0450 C   0  0  0  0  0  0  0  0  0  0  0  0
   54.7620   22.7160   44.8770 C   0  0  0  0  0  0  0  0  0  0  0  0
   55.8710   22.2040   44.0280 N   0  0  0  0  0  0  0  0  0  0  0  0
   56.9460   21.5970   44.8310 C   0  0  0  0  0  0  0  0  0  0  0  0
   56.3930   23.2150   43.0840 C   0  0  0  0  0  0  0  0  0  0  0  0
   56.9450   24.4540   43.8140 C   0  0  0  0  0  0  0  0  0  0  0  0
   58.2740   33.2380   44.3300 N   0  0  0  0  0  0  0  0  0  0  0  0
   59.4650   35.6852   46.2757 H   0  0  0  0  0  0  0  0  0  0  0  0
   60.2877   35.3064   44.7244 H   0  0  0  0  0  0  0  0  0  0  0  0
   58.5730   35.8415   44.7244 H   0  0  0  0  0  0  0  0  0  0  0  0
   59.5219   33.6148   47.4514 H   0  0  0  0  0  0  0  0  0  0  0  0
   58.6865   31.6407   48.7562 H   0  0  0  0  0  0  0  0  0  0  0  0
   58.1203   30.1680   47.8976 H   0  0  0  0  0  0  0  0  0  0  0  0
   59.8657   30.5924   47.8976 H   0  0  0  0  0  0  0  0  0  0  0  0
   57.2422   28.8255   42.6635 H   0  0  0  0  0  0  0  0  0  0  0  0
   58.3086   29.4379   43.9988 H   0  0  0  0  0  0  0  0  0  0  0  0
   59.1123   29.2774   45.6215 H   0  0  0  0  0  0  0  0  0  0  0  0
   61.2954   28.1670   46.0787 H   0  0  0  0  0  0  0  0  0  0  0  0
   61.3731   25.7298   46.6016 H   0  0  0  0  0  0  0  0  0  0  0  0
   59.2664   24.4027   46.6827 H   0  0  0  0  0  0  0  0  0  0  0  0
   54.3076   24.5105   46.0094 H   0  0  0  0  0  0  0  0  0  0  0  0
   54.1947   24.7038   44.2236 H   0  0  0  0  0  0  0  0  0  0  0  0
   54.8469   22.2571   45.8731 H   0  0  0  0  0  0  0  0  0  0  0  0
   53.8216   22.4511   44.3716 H   0  0  0  0  0  0  0  0  0  0  0  0
   56.7212   21.7239   45.9003 H   0  0  0  0  0  0  0  0  0  0  0  0
   57.0182   20.5248   44.5962 H   0  0  0  0  0  0  0  0  0  0  0  0
   57.9015   22.0889   44.5962 H   0  0  0  0  0  0  0  0  0  0  0  0
   57.2012   22.7630   42.4903 H   0  0  0  0  0  0  0  0  0  0  0  0
   55.5622   23.5411   42.4410 H   0  0  0  0  0  0  0  0  0  0  0  0
   57.9856   24.2626   44.1148 H   0  0  0  0  0  0  0  0  0  0  0  0
   56.8982   25.3168   43.1332 H   0  0  0  0  0  0  0  0  0  0  0  0
  1  2  1  0
  2  3  2  0
  3  4  1  0
  4  5  1  0
  4  6  2  0
  6  7  1  0
  7  8  1  0
  8  9  1  0
  9 10  1  0
 10 11  2  0
 10 12  1  0
 12 13  1  0
 13 14  2  0
 14 15  1  0
 15 16  2  0
 16 17  1  0
 17 18  2  0
 18 19  1  0
 19 20  2  0
 19 21  1  0
 21 22  1  0
 22 23  1  0
 23 24  1  0
 24 25  1  0
 24 26  1  0
 26 27  1  0
  7 28  2  0
 28  2  1  0
 18 13  1  0
 27 21  1  0
  1 29  1  0
  1 30  1  0
  1 31  1  0
  3 32  1  0
  5 33  1  0
  5 34  1  0
  5 35  1  0
  9 36  1  0
  9 37  1  0
 14 38  1  0
 15 39  1  0
 16 40  1  0
 17 41  1  0
 22 42  1  0
 22 43  1  0
 23 44  1  0
 23 45  1  0
 25 46  1  0
 25 47  1  0
 25 48  1  0
 26 49  1  0
 26 50  1  0
 27 51  1  0
 27 52  1  0
M  CHG  1  12  -1
M  END
>  <UniqueID>  (7) 
7

>  <SMILES>  (7) 
Cc1cc(C)nc(SCC(=O)[N-]c2ccccc2C(=O)N2CCN(C)CC2)n1

>  <Energy>  (7) 
62.62851331699344

>  <Genealogy>  (7) 
Cc1cc(C)nc(SCC(=O)[N-]c2ccccc2C(=O)N2CCN(C)CC2)n1 (protonated)
Cc1cc(C)nc(SCC(=O)[N-]c2ccccc2C(=O)N2CCN(C)CC2)n1 (3D coordinates assigned)
Cc1cc(C)nc(SCC(=O)[N-]c2ccccc2C(=O)N2CCN(C)CC2)n1 (nonaromatic ring conformer: 62.62851331699344 kcal/mol)

>  <smiles>  (7) 
Cc1cc(C)nc(SCC(=O)Nc2ccccc2C(=O)N2CCN(C)CC2)n1

>  <score_type>  (7) 
oracle

>  <origin>  (7) 
adg

>  <m_score__min__energy>  (7) 
-10.74

>  <m_primary>  (7) 
energy

$$$$
7:0
     RDKit          3D

 44 47  0  0  0  0  0  0  0  0999 V2000
   58.5530   33.0030   44.7470 O   0  0  0  0  0  0  0  0  0  0  0  0
   58.8840   32.1730   45.6370 C   0  0  0  0  0  0  0  0  0  0  0  0
   59.8730   32.5390   46.6150 N   0  0  0  0  0  0  0  0  0  0  0  0
   60.4540   33.8780   46.6750 C   0  0  0  0  0  0  0  0  0  0  0  0
   61.8080   33.8330   47.3970 C   0  0  0  0  0  0  0  0  0  0  0  0
   62.6090   32.5550   47.2050 C   0  0  0  0  0  0  0  0  0  0  0  0
   63.0270   33.8310   46.4870 C   0  0  0  0  0  0  0  0  0  0  0  0
   58.2600   30.8280   45.6420 C   0  0  0  0  0  0  0  0  0  0  0  0
   57.2080   30.5410   44.7560 C   0  0  0  0  0  0  0  0  0  0  0  0
   56.6070   29.2800   44.7460 C   0  0  0  0  0  0  0  0  0  0  0  0
   57.0390   28.2760   45.6310 C   0  0  0  0  0  0  0  0  0  0  0  0
   56.4190   26.9300   45.6300 C   0  0  0  0  0  0  0  0  0  0  0  0
   57.0140   25.7380   45.2590 C   0  0  0  0  0  0  0  0  0  0  0  0
   56.0270   24.7930   45.4520 C   0  0  0  0  0  0  0  0  0  0  0  0
   56.1230   23.3470   45.1760 C   0  0  0  0  0  0  0  0  0  0  0  0
   55.7150   22.9110   44.0670 O   0  0  0  0  0  0  0  0  0  0  0  0
   56.7190   22.4270   46.1020 N   0  0  0  0  0  0  0  0  0  0  0  0
   56.3910   22.2970   47.3530 C   0  0  0  0  0  0  0  0  0  0  0  0
   57.2740   22.0710   48.3510 N   0  0  0  0  0  0  0  0  0  0  0  0
   56.6520   21.9970   49.5590 C   0  0  0  0  0  0  0  0  0  0  0  0
   57.4140   21.7780   50.8290 C   0  0  0  0  0  0  0  0  0  0  0  0
   56.5650   21.3190   51.8220 F   0  0  0  0  0  0  0  0  0  0  0  0
   57.9880   22.9640   51.2470 F   0  0  0  0  0  0  0  0  0  0  0  0
   58.4070   20.8410   50.6150 F   0  0  0  0  0  0  0  0  0  0  0  0
   55.2720   22.1990   49.5250 C   0  0  0  0  0  0  0  0  0  0  0  0
   54.8220   22.4520   47.9230 S   0  0  0  0  0  0  0  0  0  0  0  0
   54.9040   25.3950   45.8870 N   0  0  0  0  0  0  0  0  0  0  0  0
   55.1440   26.6920   46.0010 N   0  0  0  0  0  0  0  0  0  0  0  0
   58.0840   28.5660   46.5250 C   0  0  0  0  0  0  0  0  0  0  0  0
   58.6840   29.8280   46.5340 C   0  0  0  0  0  0  0  0  0  0  0  0
   60.2180   31.8330   47.3020 H   0  0  0  0  0  0  0  0  0  0  0  0
   60.5990   34.2579   45.6529 H   0  0  0  0  0  0  0  0  0  0  0  0
   59.7729   34.5418   47.2276 H   0  0  0  0  0  0  0  0  0  0  0  0
   61.4835   34.4240   48.2661 H   0  0  0  0  0  0  0  0  0  0  0  0
   63.2224   32.1613   48.0289 H   0  0  0  0  0  0  0  0  0  0  0  0
   62.3715   31.5279   46.8910 H   0  0  0  0  0  0  0  0  0  0  0  0
   63.9422   34.3594   46.7921 H   0  0  0  0  0  0  0  0  0  0  0  0
   63.2166   34.1081   45.4395 H   0  0  0  0  0  0  0  0  0  0  0  0
   56.8537   31.3179   44.0625 H   0  0  0  0  0  0  0  0  0  0  0  0
   55.7895   29.0707   44.0404 H   0  0  0  0  0  0  0  0  0  0  0  0
   58.0394   25.5794   44.8937 H   0  0  0  0  0  0  0  0  0  0  0  0
   54.5964   22.1938   50.3931 H   0  0  0  0  0  0  0  0  0  0  0  0
   58.4330   27.7920   47.2244 H   0  0  0  0  0  0  0  0  0  0  0  0
   59.4954   30.0407   47.2456 H   0  0  0  0  0  0  0  0  0  0  0  0
  1  2  2  0
  2  3  1  0
  3  4  1  0
  4  5  1  0
  5  6  1  0
  6  7  1  0
  2  8  1  0
  8  9  2  0
  9 10  1  0
 10 11  2  0
 11 12  1  0
 12 13  2  0
 13 14  1  0
 14 15  1  0
 15 16  2  0
 15 17  1  0
 17 18  2  3
 18 19  1  0
 19 20  1  0
 20 21  1  0
 21 22  1  0
 21 23  1  0
 21 24  1  0
 20 25  2  0
 25 26  1  0
 14 27  2  0
 27 28  1  0
 11 29  1  0
 29 30  2  0
  7  5  1  0
 30  8  1  0
 28 12  1  0
 26 18  1  0
  3 31  1  0
  4 32  1  0
  4 33  1  0
  5 34  1  0
  6 35  1  0
  6 36  1  0
  7 37  1  0
  7 38  1  0
  9 39  1  0
 10 40  1  0
 13 41  1  0
 25 42  1  0
 29 43  1  0
 30 44  1  0
M  CHG  2  19  -1  28  -1
M  END
>  <UniqueID>  (8) 
8

>  <SMILES>  (8) 
O=C(NCC1CC1)c1ccc(-c2cc(C(=O)N=c3[n-]c(C(F)(F)F)cs3)n[n-]2)cc1

>  <Energy>  (8) 
375.25105829283535

>  <Genealogy>  (8) 
O=C(NCC1CC1)c1ccc(-c2cc(C(=O)N=c3[n-]c(C(F)(F)F)cs3)n[n-]2)cc1 (protonated)
O=C(NCC1CC1)c1ccc(-c2cc(C(=O)N=c3[n-]c(C(F)(F)F)cs3)n[n-]2)cc1 (3D coordinates assigned)
O=C(NCC1CC1)c1ccc(-c2cc(C(=O)N=c3[n-]c(C(F)(F)F)cs3)n[n-]2)cc1 (nonaromatic ring conformer: 375.25105829283535 kcal/mol)

>  <smiles>  (8) 
O=C(NCC1CC1)c1ccc(-c2cc(C(=O)N=c3[nH]c(C(F)(F)F)cs3)n[nH]2)cc1

>  <score_type>  (8) 
oracle

>  <origin>  (8) 
adg

>  <m_score__min__energy>  (8) 
-11.85

>  <m_primary>  (8) 
energy

$$$$
8:0
     RDKit          3D

 34 36  0  0  0  0  0  0  0  0999 V2000
   54.7720   26.3420   45.9690 N   0  0  0  0  0  0  0  0  0  0  0  0
   54.5020   24.9890   45.6060 C   0  0  0  0  0  0  0  0  0  0  0  0
   53.3500   24.5190   45.8040 O   0  0  0  0  0  0  0  0  0  0  0  0
   55.5570   24.1680   44.9770 C   0  0  0  0  0  0  0  0  0  0  0  0
   55.3160   22.8600   44.5180 C   0  0  0  0  0  0  0  0  0  0  0  0
   56.4360   22.2270   43.9960 C   0  0  0  0  0  0  0  0  0  0  0  0
   57.7360   23.2860   44.0900 S   0  0  0  0  0  0  0  0  0  0  0  0
   56.8930   24.5530   44.8080 C   0  0  0  0  0  0  0  0  0  0  0  0
   57.4340   25.8590   45.0660 N   0  0  0  0  0  0  0  0  0  0  0  0
   58.7430   26.0780   45.6140 C   0  0  0  0  0  0  0  0  0  0  0  0
   59.4590   25.1080   45.9780 O   0  0  0  0  0  0  0  0  0  0  0  0
   59.2380   27.4780   45.8290 C   0  0  0  0  0  0  0  0  0  0  0  0
   58.3290   28.2560   46.7890 C   0  0  0  0  0  0  0  0  0  0  0  0
   58.0280   29.6060   46.2670 N   0  0  0  0  0  0  0  0  0  0  0  0
   57.0080   29.7790   45.3490 C   0  0  0  0  0  0  0  0  0  0  0  0
   56.3120   28.7990   44.9700 O   0  0  0  0  0  0  0  0  0  0  0  0
   56.7360   31.0140   44.8340 N   0  0  0  0  0  0  0  0  0  0  0  0
   57.4720   32.0820   45.2190 C   0  0  0  0  0  0  0  0  0  0  0  0
   57.2950   33.3900   44.7630 C   0  0  0  0  0  0  0  0  0  0  0  0
   58.2070   34.2770   45.3350 C   0  0  0  0  0  0  0  0  0  0  0  0
   59.2180   33.4270   46.3960 S   0  0  0  0  0  0  0  0  0  0  0  0
   58.4920   31.9360   46.1260 C   0  0  0  0  0  0  0  0  0  0  0  0
   58.7820   30.6890   46.6610 C   0  0  0  0  0  0  0  0  0  0  0  0
   59.7270   30.5660   47.4890 O   0  0  0  0  0  0  0  0  0  0  0  0
   55.1540   27.0190   45.2720 H   0  0  0  0  0  0  0  0  0  0  0  0
   54.3271   22.3810   44.5683 H   0  0  0  0  0  0  0  0  0  0  0  0
   56.4667   21.2052   43.5898 H   0  0  0  0  0  0  0  0  0  0  0  0
   56.8490   26.6960   44.8530 H   0  0  0  0  0  0  0  0  0  0  0  0
   60.2526   27.4371   46.2521 H   0  0  0  0  0  0  0  0  0  0  0  0
   59.2382   27.9962   44.8587 H   0  0  0  0  0  0  0  0  0  0  0  0
   57.3868   27.7031   46.9177 H   0  0  0  0  0  0  0  0  0  0  0  0
   58.8510   28.3639   47.7512 H   0  0  0  0  0  0  0  0  0  0  0  0
   56.5247   33.6868   44.0360 H   0  0  0  0  0  0  0  0  0  0  0  0
   58.2612   35.3564   45.1299 H   0  0  0  0  0  0  0  0  0  0  0  0
  1  2  1  0
  2  3  2  0
  2  4  1  0
  4  5  1  0
  5  6  2  0
  6  7  1  0
  7  8  1  0
  8  9  1  0
  9 10  1  0
 10 11  2  0
 10 12  1  0
 12 13  1  0
 13 14  1  0
 14 15  1  0
 15 16  2  0
 15 17  1  0
 17 18  1  0
 18 19  1  0
 19 20  2  0
 20 21  1  0
 21 22  1  0
 22 23  1  0
 23 24  2  0
  8  4  2  0
 23 14  1  0
 22 18  2  0
  1 25  1  0
  5 26  1  0
  6 27  1  0
  9 28  1  0
 12 29  1  0
 12 30  1  0
 13 31  1  0
 13 32  1  0
 19 33  1  0
 20 34  1  0
M  CHG  2   1  -1  17  -1
M  END
>  <UniqueID>  (9) 
9

>  <SMILES>  (9) 
[NH-]C(=O)c1ccsc1NC(=O)CCn1c(=O)[n-]c2ccsc2c1=O

>  <Energy>  (9) 
98.1073859011638

>  <Genealogy>  (9) 
[NH-]C(=O)c1ccsc1NC(=O)CCn1c(=O)[n-]c2ccsc2c1=O (protonated)
[NH-]C(=O)c1ccsc1NC(=O)CCn1c(=O)[n-]c2ccsc2c1=O (3D coordinates assigned)
[NH-]C(=O)c1ccsc1NC(=O)CCn1c(=O)[n-]c2ccsc2c1=O (optimized conformer: 98.1073859011638 kcal/mol)

>  <smiles>  (9) 
NC(=O)c1ccsc1NC(=O)CCn1c(=O)[nH]c2ccsc2c1=O

>  <score_type>  (9) 
oracle

>  <origin>  (9) 
adg

>  <m_score__min__energy>  (9) 
-12.4

>  <m_primary>  (9) 
energy

$$$$
9:0
     RDKit          3D

 53 56  0  0  0  0  0  0  0  0999 V2000
   54.4000   26.6910   46.7520 H   0  0  0  0  0  0  0  0  0  0  0  0
   55.0360   26.3260   46.0530 O   0  0  0  0  0  0  0  0  0  0  0  0
   55.9340   25.3130   46.3710 C   0  0  0  0  0  0  0  0  0  0  0  0
   55.6180   24.2440   47.1220 N   0  0  0  0  0  0  0  0  0  0  0  0
   56.7560   23.5200   47.1010 C   0  0  0  0  0  0  0  0  0  0  0  0
   56.8700   22.4170   47.6970 O   0  0  0  0  0  0  0  0  0  0  0  0
   57.7620   24.0650   46.3830 N   0  0  0  0  0  0  0  0  0  0  0  0
   57.2390   25.2210   45.9390 C   0  0  0  0  0  0  0  0  0  0  0  0
   57.9540   26.1370   45.0320 C   0  0  0  0  0  0  0  0  0  0  0  0
   58.2111   25.7715   44.0269 H   0  0  0  0  0  0  0  0  0  0  0  0
   58.3120   27.3940   45.3580 C   0  0  0  0  0  0  0  0  0  0  0  0
   59.2430   27.7620   46.3220 C   0  0  0  0  0  0  0  0  0  0  0  0
   59.8047   27.0868   46.9842 H   0  0  0  0  0  0  0  0  0  0  0  0
   59.3260   29.1400   46.2870 C   0  0  0  0  0  0  0  0  0  0  0  0
   60.2380   29.9580   47.1500 C   0  0  0  0  0  0  0  0  0  0  0  0
   60.0165   29.7594   48.2090 H   0  0  0  0  0  0  0  0  0  0  0  0
   61.2831   29.6889   46.9372 H   0  0  0  0  0  0  0  0  0  0  0  0
   60.0838   31.0261   46.9372 H   0  0  0  0  0  0  0  0  0  0  0  0
   58.5070   29.6380   45.3350 N   0  0  0  0  0  0  0  0  0  0  0  0
   58.3400   31.0310   45.0150 C   0  0  0  0  0  0  0  0  0  0  0  0
   58.1670   31.4330   43.6840 C   0  0  0  0  0  0  0  0  0  0  0  0
   58.1422   30.6806   42.8820 H   0  0  0  0  0  0  0  0  0  0  0  0
   58.0260   32.7870   43.3740 C   0  0  0  0  0  0  0  0  0  0  0  0
   57.8956   33.0990   42.3273 H   0  0  0  0  0  0  0  0  0  0  0  0
   58.0500   33.7470   44.3890 C   0  0  0  0  0  0  0  0  0  0  0  0
   57.9482   34.8131   44.1379 H   0  0  0  0  0  0  0  0  0  0  0  0
   58.2040   33.3540   45.7320 C   0  0  0  0  0  0  0  0  0  0  0  0
   58.2680   34.3060   46.8030 N   0  0  0  0  0  0  0  0  0  0  0  0
   59.4210   35.0400   47.2310 C   0  0  0  0  0  0  0  0  0  0  0  0
   59.7520   36.1140   46.6610 O   0  0  0  0  0  0  0  0  0  0  0  0
   60.2150   34.5480   48.4070 C   0  0  0  0  0  0  0  0  0  0  0  0
   60.9305   35.3313   48.6976 H   0  0  0  0  0  0  0  0  0  0  0  0
   59.4998   34.3212   49.2114 H   0  0  0  0  0  0  0  0  0  0  0  0
   60.9670   33.3060   48.1260 N   0  0  0  0  0  0  0  0  0  0  0  0
   61.9590   32.9340   49.1620 C   0  0  0  0  0  0  0  0  0  0  0  0
   61.8373   33.6056   50.0246 H   0  0  0  0  0  0  0  0  0  0  0  0
   61.7772   31.8849   49.4384 H   0  0  0  0  0  0  0  0  0  0  0  0
   63.4040   33.0400   48.6550 C   0  0  0  0  0  0  0  0  0  0  0  0
   64.0783   33.2062   49.5080 H   0  0  0  0  0  0  0  0  0  0  0  0
   63.6764   32.1062   48.1413 H   0  0  0  0  0  0  0  0  0  0  0  0
   63.5190   34.1150   47.7530 O   0  0  0  0  0  0  0  0  0  0  0  0
   62.8690   33.7900   46.5390 C   0  0  0  0  0  0  0  0  0  0  0  0
   62.7763   34.7065   45.9378 H   0  0  0  0  0  0  0  0  0  0  0  0
   63.4803   33.0232   46.0407 H   0  0  0  0  0  0  0  0  0  0  0  0
   61.4560   33.1880   46.7350 C   0  0  0  0  0  0  0  0  0  0  0  0
   60.7550   33.7148   46.0708 H   0  0  0  0  0  0  0  0  0  0  0  0
   61.5185   32.1158   46.4973 H   0  0  0  0  0  0  0  0  0  0  0  0
   58.3680   31.9960   46.0330 C   0  0  0  0  0  0  0  0  0  0  0  0
   58.5201   31.6833   47.0766 H   0  0  0  0  0  0  0  0  0  0  0  0
   57.8810   28.5820   44.7560 C   0  0  0  0  0  0  0  0  0  0  0  0
   57.0040   28.6910   43.7450 C   0  0  0  0  0  0  0  0  0  0  0  0
   56.7394   29.6834   43.3510 H   0  0  0  0  0  0  0  0  0  0  0  0
   56.5502   27.7879   43.3108 H   0  0  0  0  0  0  0  0  0  0  0  0
  1  2  1  0
  2  3  1  0
  3  4  1  0
  4  5  1  0
  5  6  2  0
  5  7  1  0
  7  8  1  0
  8  9  1  0
  9 10  1  0
  9 11  2  0
 11 12  1  0
 12 13  1  0
 12 14  2  0
 14 15  1  0
 15 16  1  0
 15 17  1  0
 15 18  1  0
 14 19  1  0
 19 20  1  0
 20 21  2  0
 21 22  1  0
 21 23  1  0
 23 24  1  0
 23 25  2  0
 25 26  1  0
 25 27  1  0
 27 28  1  0
 28 29  1  0
 29 30  2  0
 29 31  1  0
 31 32  1  0
 31 33  1  0
 31 34  1  0
 34 35  1  0
 35 36  1  0
 35 37  1  0
 35 38  1  0
 38 39  1  0
 38 40  1  0
 38 41  1  0
 41 42  1  0
 42 43  1  0
 42 44  1  0
 42 45  1  0
 45 46  1  0
 45 47  1  0
 27 48  2  0
 48 49  1  0
 19 50  1  0
 50 51  2  0
 51 52  1  0
 51 53  1  0
  8  3  2  0
 50 11  1  0
 48 20  1  0
 45 34  1  0
M  CHG  3   4  -1   7  -1  28  -1
M  END
>  <UniqueID>  (10) 
10

>  <SMILES>  (10) 
C=c1/c(=C/c2[n-]c(=O)[n-]c2O)cc(C)n1-c1cccc([N-]C(=O)CN2CCOCC2)c1

>  <Energy>  (10) 
142.65097311410807

>  <Genealogy>  (10) 
C=c1c(=Cc2[n-]c(=O)[n-]c2O)cc(C)n1-c1cccc([N-]C(=O)CN2CCOCC2)c1 (protonated)
C=c1/c(=C/c2[n-]c(=O)[n-]c2O)cc(C)n1-c1cccc([N-]C(=O)CN2CCOCC2)c1 (cis-trans isomerization)
C=c1/c(=C/c2[n-]c(=O)[n-]c2O)cc(C)n1-c1cccc([N-]C(=O)CN2CCOCC2)c1 (3D coordinates assigned)
C=c1/c(=C/c2[n-]c(=O)[n-]c2O)cc(C)n1-c1cccc([N-]C(=O)CN2CCOCC2)c1 (nonaromatic ring conformer: 142.65097311410807 kcal/mol)

>  <smiles>  (10) 
C=c1c(=Cc2[nH]c(=O)[nH]c2O)cc(C)n1-c1cccc(NC(=O)CN2CCOCC2)c1

>  <score_type>  (10) 
oracle

>  <origin>  (10) 
adg

>  <m_score__min__energy>  (10) 
-14.74

>  <m_primary>  (10) 
energy

$$$$
10:0
     RDKit          3D

 28 30  0  0  0  0  0  0  0  0999 V2000
   55.1440   29.4290   44.8230 O   0  0  0  0  0  0  0  0  0  0  0  0
   56.2630   29.8980   44.4900 C   0  0  0  0  0  0  0  0  0  0  0  0
   56.4570   31.3190   44.5110 N   0  0  0  0  0  0  0  0  0  0  0  0
   57.3920   31.9530   45.1560 C   0  0  0  0  0  0  0  0  0  0  0  0
   58.3640   31.3670   45.8960 N   0  0  0  0  0  0  0  0  0  0  0  0
   59.1900   32.2820   46.4680 C   0  0  0  0  0  0  0  0  0  0  0  0
   58.8700   33.6080   46.1960 C   0  0  0  0  0  0  0  0  0  0  0  0
   57.5050   33.6270   45.2090 S   0  0  0  0  0  0  0  0  0  0  0  0
   57.2990   28.9970   44.0760 N   0  0  0  0  0  0  0  0  0  0  0  0
   58.1500   28.2330   44.9470 C   0  0  0  0  0  0  0  0  0  0  0  0
   59.5240   28.5180   45.0380 C   0  0  0  0  0  0  0  0  0  0  0  0
   60.3510   27.7750   45.8830 C   0  0  0  0  0  0  0  0  0  0  0  0
   59.8240   26.7280   46.6390 C   0  0  0  0  0  0  0  0  0  0  0  0
   58.4620   26.4100   46.5490 C   0  0  0  0  0  0  0  0  0  0  0  0
   57.9280   25.3550   47.3010 C   0  0  0  0  0  0  0  0  0  0  0  0
   56.5670   25.0580   47.1970 C   0  0  0  0  0  0  0  0  0  0  0  0
   56.0740   24.1120   47.8660 O   0  0  0  0  0  0  0  0  0  0  0  0
   55.7700   25.7890   46.3750 N   0  0  0  0  0  0  0  0  0  0  0  0
   56.2550   26.8190   45.6320 C   0  0  0  0  0  0  0  0  0  0  0  0
   57.6170   27.1600   45.6950 C   0  0  0  0  0  0  0  0  0  0  0  0
   58.4670   30.3420   46.0550 H   0  0  0  0  0  0  0  0  0  0  0  0
   60.0456   31.9961   47.0975 H   0  0  0  0  0  0  0  0  0  0  0  0
   59.4140   34.4912   46.5620 H   0  0  0  0  0  0  0  0  0  0  0  0
   59.9517   29.3344   44.4375 H   0  0  0  0  0  0  0  0  0  0  0  0
   61.4219   28.0163   45.9527 H   0  0  0  0  0  0  0  0  0  0  0  0
   60.4791   26.1503   47.3077 H   0  0  0  0  0  0  0  0  0  0  0  0
   58.5750   24.7658   47.9675 H   0  0  0  0  0  0  0  0  0  0  0  0
   55.5780   27.3884   44.9782 H   0  0  0  0  0  0  0  0  0  0  0  0
  1  2  2  0
  2  3  1  0
  3  4  2  3
  4  5  1  0
  5  6  1  0
  6  7  2  0
  7  8  1  0
  2  9  1  0
  9 10  1  0
 10 11  2  0
 11 12  1  0
 12 13  2  0
 13 14  1  0
 14 15  2  0
 15 16  1  0
 16 17  2  0
 16 18  1  0
 18 19  1  0
 19 20  2  0
  8  4  1  0
 20 10  1  0
 20 14  1  0
  5 21  1  0
  6 22  1  0
  7 23  1  0
 11 24  1  0
 12 25  1  0
 13 26  1  0
 15 27  1  0
 19 28  1  0
M  CHG  2   9  -1  18  -1
M  END
>  <UniqueID>  (11) 
11

>  <SMILES>  (11) 
O=C(N=c1[nH]ccs1)[N-]c1cccc2cc(=O)[n-]cc12

>  <Energy>  (11) 
74.60898826100875

>  <Genealogy>  (11) 
O=C(N=c1[nH]ccs1)[N-]c1cccc2cc(=O)[n-]cc12 (protonated)
O=C(N=c1[nH]ccs1)[N-]c1cccc2cc(=O)[n-]cc12 (3D coordinates assigned)
O=C(N=c1[nH]ccs1)[N-]c1cccc2cc(=O)[n-]cc12 (optimized conformer: 74.60898826100875 kcal/mol)

>  <smiles>  (11) 
O=C(N=c1[nH]ccs1)Nc1cccc2cc(=O)[nH]cc12

>  <score_type>  (11) 
oracle

>  <origin>  (11) 
adg

>  <m_score__min__energy>  (11) 
-10.380000000000001

>  <m_primary>  (11) 
energy

$$$$
11:0
     RDKit          3D

 47 49  0  0  0  0  0  0  0  0999 V2000
   57.4810   31.9670   41.5020 C   0  0  0  0  0  0  0  0  0  0  0  0
   57.0050   31.3490   42.7790 C   0  0  0  0  0  0  0  0  0  0  0  0
   56.1120   30.3480   42.8490 N   0  0  0  0  0  0  0  0  0  0  0  0
   56.0040   30.0810   44.1630 C   0  0  0  0  0  0  0  0  0  0  0  0
   55.2510   29.1820   44.6210 O   0  0  0  0  0  0  0  0  0  0  0  0
   56.7880   30.8510   44.9460 N   0  0  0  0  0  0  0  0  0  0  0  0
   57.4160   31.6580   44.0640 C   0  0  0  0  0  0  0  0  0  0  0  0
   58.4800   32.6450   44.4570 C   0  0  0  0  0  0  0  0  0  0  0  0
   57.9270   33.7400   45.3800 C   0  0  0  0  0  0  0  0  0  0  0  0
   58.5000   33.6410   46.7710 C   0  0  0  0  0  0  0  0  0  0  0  0
   59.3230   34.6620   47.2720 C   0  0  0  0  0  0  0  0  0  0  0  0
   59.7910   34.6110   48.5860 C   0  0  0  0  0  0  0  0  0  0  0  0
   59.4240   33.5500   49.4270 C   0  0  0  0  0  0  0  0  0  0  0  0
   59.8960   33.5270   50.8230 C   0  0  0  0  0  0  0  0  0  0  0  0
   59.3220   34.2560   51.6740 O   0  0  0  0  0  0  0  0  0  0  0  0
   60.9620   32.6700   51.2550 N   0  0  0  0  0  0  0  0  0  0  0  0
   62.3620   33.0570   51.4260 C   0  0  0  0  0  0  0  0  0  0  0  0
   63.2220   32.6320   50.2280 C   0  0  0  0  0  0  0  0  0  0  0  0
   62.4060   31.9300   49.1740 C   0  0  0  0  0  0  0  0  0  0  0  0
   62.2500   32.5030   47.9000 C   0  0  0  0  0  0  0  0  0  0  0  0
   61.5130   31.8390   46.9150 C   0  0  0  0  0  0  0  0  0  0  0  0
   60.9320   30.5960   47.1900 C   0  0  0  0  0  0  0  0  0  0  0  0
   60.0150   29.7610   45.9500 Cl  0  0  0  0  0  0  0  0  0  0  0  0
   61.0860   30.0190   48.4550 C   0  0  0  0  0  0  0  0  0  0  0  0
   61.8250   30.6810   49.4430 C   0  0  0  0  0  0  0  0  0  0  0  0
   58.6210   32.5170   48.9220 C   0  0  0  0  0  0  0  0  0  0  0  0
   58.1580   32.5630   47.6030 C   0  0  0  0  0  0  0  0  0  0  0  0
   58.1377   32.8196   41.7297 H   0  0  0  0  0  0  0  0  0  0  0  0
   58.0392   31.2198   40.9188 H   0  0  0  0  0  0  0  0  0  0  0  0
   56.6161   32.3159   40.9188 H   0  0  0  0  0  0  0  0  0  0  0  0
   55.6200   29.8720   42.0580 H   0  0  0  0  0  0  0  0  0  0  0  0
   59.2858   32.1104   44.9814 H   0  0  0  0  0  0  0  0  0  0  0  0
   58.8558   33.1260   43.5419 H   0  0  0  0  0  0  0  0  0  0  0  0
   58.1825   34.7235   44.9587 H   0  0  0  0  0  0  0  0  0  0  0  0
   56.8368   33.6109   45.4490 H   0  0  0  0  0  0  0  0  0  0  0  0
   59.6007   35.5073   46.6252 H   0  0  0  0  0  0  0  0  0  0  0  0
   60.4505   35.4063   48.9637 H   0  0  0  0  0  0  0  0  0  0  0  0
   62.4184   34.1502   51.5346 H   0  0  0  0  0  0  0  0  0  0  0  0
   62.7496   32.5498   52.3218 H   0  0  0  0  0  0  0  0  0  0  0  0
   63.6818   33.5274   49.7844 H   0  0  0  0  0  0  0  0  0  0  0  0
   63.9890   31.9312   50.5894 H   0  0  0  0  0  0  0  0  0  0  0  0
   62.7095   33.4773   47.6773 H   0  0  0  0  0  0  0  0  0  0  0  0
   61.3895   32.2947   45.9215 H   0  0  0  0  0  0  0  0  0  0  0  0
   60.6260   29.0441   48.6738 H   0  0  0  0  0  0  0  0  0  0  0  0
   61.9507   30.2204   50.4340 H   0  0  0  0  0  0  0  0  0  0  0  0
   58.3540   31.6664   49.5664 H   0  0  0  0  0  0  0  0  0  0  0  0
   57.5237   31.7518   47.2162 H   0  0  0  0  0  0  0  0  0  0  0  0
  1  2  1  0
  2  3  1  0
  3  4  1  0
  4  5  2  0
  4  6  1  0
  6  7  1  0
  7  8  1  0
  8  9  1  0
  9 10  1  0
 10 11  2  0
 11 12  1  0
 12 13  2  0
 13 14  1  0
 14 15  2  0
 14 16  1  0
 16 17  1  0
 17 18  1  0
 18 19  1  0
 19 20  2  0
 20 21  1  0
 21 22  2  0
 22 23  1  0
 22 24  1  0
 24 25  2  0
 13 26  1  0
 26 27  2  0
  7  2  2  0
 27 10  1  0
 25 19  1  0
  1 28  1  0
  1 29  1  0
  1 30  1  0
  3 31  1  0
  8 32  1  0
  8 33  1  0
  9 34  1  0
  9 35  1  0
 11 36  1  0
 12 37  1  0
 17 38  1  0
 17 39  1  0
 18 40  1  0
 18 41  1  0
 20 42  1  0
 21 43  1  0
 24 44  1  0
 25 45  1  0
 26 46  1  0
 27 47  1  0
M  CHG  2   6  -1  16  -1
M  END
>  <UniqueID>  (12) 
12

>  <SMILES>  (12) 
Cc1[nH]c(=O)[n-]c1CCc1ccc(C(=O)[N-]CCc2ccc(Cl)cc2)cc1

>  <Energy>  (12) 
72.2698020210852

>  <Genealogy>  (12) 
Cc1[nH]c(=O)[n-]c1CCc1ccc(C(=O)[N-]CCc2ccc(Cl)cc2)cc1 (protonated)
Cc1[nH]c(=O)[n-]c1CCc1ccc(C(=O)[N-]CCc2ccc(Cl)cc2)cc1 (3D coordinates assigned)
Cc1[nH]c(=O)[n-]c1CCc1ccc(C(=O)[N-]CCc2ccc(Cl)cc2)cc1 (optimized conformer: 72.2698020210852 kcal/mol)

>  <smiles>  (12) 
Cc1[nH]c(=O)[nH]c1CCc1ccc(C(=O)NCCc2ccc(Cl)cc2)cc1

>  <score_type>  (12) 
oracle

>  <origin>  (12) 
adg

>  <m_score__min__energy>  (12) 
-11.550000000000001

>  <m_primary>  (12) 
energy

$$$$
12:0
     RDKit          3D

 60 63  0  0  0  0  0  0  0  0999 V2000
   57.8357   34.5481   47.7234 H   0  0  0  0  0  0  0  0  0  0  0  0
   58.1140   34.2460   46.7030 C   0  0  0  0  0  0  0  0  0  0  0  0
   57.5580   33.1350   46.1470 N   0  0  0  0  0  0  0  0  0  0  0  0
   57.8630   32.7300   44.8830 C   0  0  0  0  0  0  0  0  0  0  0  0
   57.2560   31.4880   44.3650 C   0  0  0  0  0  0  0  0  0  0  0  0
   56.8250   30.5250   45.2260 N   0  0  0  0  0  0  0  0  0  0  0  0
   56.3340   29.4490   44.5740 C   0  0  0  0  0  0  0  0  0  0  0  0
   55.8920   28.3820   45.1670 N   0  0  0  0  0  0  0  0  0  0  0  0
   56.7490   27.3310   45.7160 C   0  0  0  0  0  0  0  0  0  0  0  0
   57.1146   27.6434   46.7053 H   0  0  0  0  0  0  0  0  0  0  0  0
   56.1620   26.4046   45.8009 H   0  0  0  0  0  0  0  0  0  0  0  0
   57.9490   27.0720   44.7940 C   0  0  0  0  0  0  0  0  0  0  0  0
   57.8965   26.0358   44.4287 H   0  0  0  0  0  0  0  0  0  0  0  0
   57.8978   27.7946   43.9662 H   0  0  0  0  0  0  0  0  0  0  0  0
   59.2930   27.2750   45.5100 C   0  0  0  0  0  0  0  0  0  0  0  0
   59.2878   26.6915   46.4424 H   0  0  0  0  0  0  0  0  0  0  0  0
   60.0890   26.9405   44.8284 H   0  0  0  0  0  0  0  0  0  0  0  0
   59.5540   28.7170   45.8450 C   0  0  0  0  0  0  0  0  0  0  0  0
   59.8810   29.5170   44.9250 O   0  0  0  0  0  0  0  0  0  0  0  0
   59.4090   29.1770   47.2000 N   0  0  0  0  0  0  0  0  0  0  0  0
   58.8890   28.5610   47.8660 H   0  0  0  0  0  0  0  0  0  0  0  0
   59.7970   30.4820   47.6680 C   0  0  0  0  0  0  0  0  0  0  0  0
   58.9050   31.2160   48.4650 C   0  0  0  0  0  0  0  0  0  0  0  0
   57.9186   30.7950   48.7097 H   0  0  0  0  0  0  0  0  0  0  0  0
   59.2600   32.4770   48.9500 C   0  0  0  0  0  0  0  0  0  0  0  0
   58.5525   33.0448   49.5722 H   0  0  0  0  0  0  0  0  0  0  0  0
   60.5100   33.0180   48.6470 C   0  0  0  0  0  0  0  0  0  0  0  0
   60.7839   34.0134   49.0268 H   0  0  0  0  0  0  0  0  0  0  0  0
   61.4170   32.2960   47.8600 C   0  0  0  0  0  0  0  0  0  0  0  0
   62.9810   32.9940   47.4390 S   0  0  0  0  0  0  0  0  0  0  0  0
   62.7610   34.1500   46.5040 O   0  0  0  0  0  0  0  0  0  0  0  0
   63.8000   31.9660   46.7100 O   0  0  0  0  0  0  0  0  0  0  0  0
   63.8630   33.5570   48.8450 N   0  0  0  0  0  0  0  0  0  0  0  0
   62.9980   34.2480   49.8260 C   0  0  0  0  0  0  0  0  0  0  0  0
   63.5327   35.1317   50.2044 H   0  0  0  0  0  0  0  0  0  0  0  0
   62.0669   34.5236   49.3091 H   0  0  0  0  0  0  0  0  0  0  0  0
   62.6170   33.3560   51.0200 C   0  0  0  0  0  0  0  0  0  0  0  0
   63.3535   33.4958   51.8250 H   0  0  0  0  0  0  0  0  0  0  0  0
   61.6131   33.6404   51.3683 H   0  0  0  0  0  0  0  0  0  0  0  0
   62.5980   32.0000   50.6410 O   0  0  0  0  0  0  0  0  0  0  0  0
   63.9160   31.5590   50.3810 C   0  0  0  0  0  0  0  0  0  0  0  0
   64.4544   31.4847   51.3373 H   0  0  0  0  0  0  0  0  0  0  0  0
   63.8401   30.5869   49.8718 H   0  0  0  0  0  0  0  0  0  0  0  0
   64.7050   32.5070   49.4450 C   0  0  0  0  0  0  0  0  0  0  0  0
   65.5043   32.9889   50.0272 H   0  0  0  0  0  0  0  0  0  0  0  0
   65.1063   31.8973   48.6221 H   0  0  0  0  0  0  0  0  0  0  0  0
   61.0690   31.0200   47.3940 C   0  0  0  0  0  0  0  0  0  0  0  0
   61.7950   30.4351   46.8102 H   0  0  0  0  0  0  0  0  0  0  0  0
   56.3840   29.6370   42.9100 S   0  0  0  0  0  0  0  0  0  0  0  0
   57.0650   31.1750   43.0090 C   0  0  0  0  0  0  0  0  0  0  0  0
   57.3830   32.0220   41.8180 C   0  0  0  0  0  0  0  0  0  0  0  0
   57.7512   33.0028   42.1534 H   0  0  0  0  0  0  0  0  0  0  0  0
   58.1567   31.5274   41.2124 H   0  0  0  0  0  0  0  0  0  0  0  0
   56.4750   32.1588   41.2124 H   0  0  0  0  0  0  0  0  0  0  0  0
   58.8080   33.4560   44.1380 C   0  0  0  0  0  0  0  0  0  0  0  0
   59.0887   33.1262   43.1269 H   0  0  0  0  0  0  0  0  0  0  0  0
   59.3880   34.6000   44.6920 C   0  0  0  0  0  0  0  0  0  0  0  0
   60.1203   35.1821   44.1133 H   0  0  0  0  0  0  0  0  0  0  0  0
   59.0370   35.0020   45.9790 C   0  0  0  0  0  0  0  0  0  0  0  0
   59.4827   35.9059   46.4199 H   0  0  0  0  0  0  0  0  0  0  0  0
  1  2  1  0
  2  3  2  0
  3  4  1  0
  4  5  1  0
  5  6  1  0
  6  7  1  0
  7  8  2  0
  8  9  1  0
  9 10  1  0
  9 11  1  0
  9 12  1  0
 12 13  1  0
 12 14  1  0
 12 15  1  0
 15 16  1  0
 15 17  1  0
 15 18  1  0
 18 19  2  0
 18 20  1  0
 20 21  1  0
 20 22  1  0
 22 23  2  0
 23 24  1  0
 23 25  1  0
 25 26  1  0
 25 27  2  0
 27 28  1  0
 27 29  1  0
 29 30  1  0
 30 31  2  0
 30 32  2  0
 30 33  1  0
 33 34  1  0
 34 35  1  0
 34 36  1  0
 34 37  1  0
 37 38  1  0
 37 39  1  0
 37 40  1  0
 40 41  1  0
 41 42  1  0
 41 43  1  0
 41 44  1  0
 44 45  1  0
 44 46  1  0
 29 47  2  0
 47 48  1  0
  7 49  1  0
 49 50  1  0
 50 51  1  0
 51 52  1  0
 51 53  1  0
 51 54  1  0
  4 55  2  0
 55 56  1  0
 55 57  1  0
 57 58  1  0
 57 59  2  0
 59 60  1  0
 59  2  1  0
 50  5  2  0
 47 22  1  0
 44 33  1  0
M  CHG  1   6  -1
M  END
>  <UniqueID>  (13) 
13

>  <SMILES>  (13) 
Cc1s/c(=N/CCCC(=O)Nc2cccc(S(=O)(=O)N3CCOCC3)c2)[n-]c1-c1ccccn1

>  <Energy>  (13) 
104.38736267570016

>  <Genealogy>  (13) 
Cc1sc(=NCCCC(=O)Nc2cccc(S(=O)(=O)N3CCOCC3)c2)[n-]c1-c1ccccn1 (protonated)
Cc1s/c(=N/CCCC(=O)Nc2cccc(S(=O)(=O)N3CCOCC3)c2)[n-]c1-c1ccccn1 (cis-trans isomerization)
Cc1s/c(=N/CCCC(=O)Nc2cccc(S(=O)(=O)N3CCOCC3)c2)[n-]c1-c1ccccn1 (3D coordinates assigned)
Cc1s/c(=N/CCCC(=O)Nc2cccc(S(=O)(=O)N3CCOCC3)c2)[n-]c1-c1ccccn1 (nonaromatic ring conformer: 104.38736267570016 kcal/mol)

>  <smiles>  (13) 
Cc1sc(=NCCCC(=O)Nc2cccc(S(=O)(=O)N3CCOCC3)c2)[nH]c1-c1ccccn1

>  <score_type>  (13) 
oracle

>  <origin>  (13) 
adg

>  <m_score__min__energy>  (13) 
-11.92

>  <m_primary>  (13) 
energy

$$$$
13:0
     RDKit          3D

 50 53  0  0  0  0  0  0  0  0999 V2000
   57.6110   28.1250   44.5540 C   0  0  0  0  0  0  0  0  0  0  0  0
   57.9970   27.2970   45.5380 C   0  0  0  0  0  0  0  0  0  0  0  0
   57.8450   25.9000   45.5800 C   0  0  0  0  0  0  0  0  0  0  0  0
   57.1330   25.0640   44.7990 C   0  0  0  0  0  0  0  0  0  0  0  0
   55.7450   24.6400   45.0370 C   0  0  0  0  0  0  0  0  0  0  0  0
   55.3140   23.3790   44.8650 N   0  0  0  0  0  0  0  0  0  0  0  0
   54.0400   23.4200   45.3160 C   0  0  0  0  0  0  0  0  0  0  0  0
   53.2850   22.4140   45.3040 O   0  0  0  0  0  0  0  0  0  0  0  0
   53.6450   24.6210   45.7910 N   0  0  0  0  0  0  0  0  0  0  0  0
   54.7410   25.3780   45.6230 C   0  0  0  0  0  0  0  0  0  0  0  0
   54.8280   26.7070   46.0200 O   0  0  0  0  0  0  0  0  0  0  0  0
   58.6040   25.4590   46.6520 C   0  0  0  0  0  0  0  0  0  0  0  0
   59.1250   26.5810   47.2620 C   0  0  0  0  0  0  0  0  0  0  0  0
   59.9990   26.5580   48.4790 C   0  0  0  0  0  0  0  0  0  0  0  0
   58.7590   27.6950   46.5900 N   0  0  0  0  0  0  0  0  0  0  0  0
   59.1440   29.0420   46.9200 C   0  0  0  0  0  0  0  0  0  0  0  0
   58.8130   29.5810   48.1710 C   0  0  0  0  0  0  0  0  0  0  0  0
   59.1750   30.8920   48.4900 C   0  0  0  0  0  0  0  0  0  0  0  0
   59.8640   31.6810   47.5590 C   0  0  0  0  0  0  0  0  0  0  0  0
   60.2890   33.3490   47.9450 S   0  0  0  0  0  0  0  0  0  0  0  0
   60.4440   33.4820   49.4350 O   0  0  0  0  0  0  0  0  0  0  0  0
   61.6190   33.6610   47.3180 O   0  0  0  0  0  0  0  0  0  0  0  0
   59.1010   34.5110   47.3800 N   0  0  0  0  0  0  0  0  0  0  0  0
   59.6350   35.3850   46.3060 C   0  0  0  0  0  0  0  0  0  0  0  0
   59.1960   34.9470   44.8990 C   0  0  0  0  0  0  0  0  0  0  0  0
   58.9850   33.5560   44.8550 O   0  0  0  0  0  0  0  0  0  0  0  0
   57.8370   33.2240   45.6100 C   0  0  0  0  0  0  0  0  0  0  0  0
   57.8200   33.8670   47.0170 C   0  0  0  0  0  0  0  0  0  0  0  0
   60.2100   31.1360   46.3140 C   0  0  0  0  0  0  0  0  0  0  0  0
   59.8500   29.8240   45.9960 C   0  0  0  0  0  0  0  0  0  0  0  0
   57.7894   29.2067   44.6438 H   0  0  0  0  0  0  0  0  0  0  0  0
   57.1164   27.7216   43.6581 H   0  0  0  0  0  0  0  0  0  0  0  0
   57.6338   24.6636   43.9052 H   0  0  0  0  0  0  0  0  0  0  0  0
   58.7610   24.4141   46.9580 H   0  0  0  0  0  0  0  0  0  0  0  0
   59.3709   26.5745   49.3819 H   0  0  0  0  0  0  0  0  0  0  0  0
   60.6102   25.6435   48.4742 H   0  0  0  0  0  0  0  0  0  0  0  0
   60.6575   27.4391   48.4742 H   0  0  0  0  0  0  0  0  0  0  0  0
   58.2663   28.9695   48.9040 H   0  0  0  0  0  0  0  0  0  0  0  0
   58.9182   31.3067   49.4759 H   0  0  0  0  0  0  0  0  0  0  0  0
   58.9070   35.1200   48.2090 H   0  0  0  0  0  0  0  0  0  0  0  0
   59.2793   36.4112   46.4803 H   0  0  0  0  0  0  0  0  0  0  0  0
   60.7323   35.3180   46.3433 H   0  0  0  0  0  0  0  0  0  0  0  0
   58.2608   35.4627   44.6355 H   0  0  0  0  0  0  0  0  0  0  0  0
   59.9897   35.2075   44.1834 H   0  0  0  0  0  0  0  0  0  0  0  0
   56.9474   33.5648   45.0601 H   0  0  0  0  0  0  0  0  0  0  0  0
   57.8456   32.1332   45.7515 H   0  0  0  0  0  0  0  0  0  0  0  0
   57.0264   34.6282   47.0437 H   0  0  0  0  0  0  0  0  0  0  0  0
   57.6435   33.0595   47.7428 H   0  0  0  0  0  0  0  0  0  0  0  0
   60.7667   31.7435   45.5853 H   0  0  0  0  0  0  0  0  0  0  0  0
   60.1218   29.4033   45.0166 H   0  0  0  0  0  0  0  0  0  0  0  0
  1  2  2  0
  2  3  1  0
  3  4  2  3
  4  5  1  0
  5  6  1  0
  6  7  1  0
  7  8  2  0
  7  9  1  0
  9 10  1  0
 10 11  1  0
  3 12  1  0
 12 13  2  0
 13 14  1  0
 13 15  1  0
 15 16  1  0
 16 17  2  0
 17 18  1  0
 18 19  2  0
 19 20  1  0
 20 21  2  0
 20 22  2  0
 20 23  1  0
 23 24  1  0
 24 25  1  0
 25 26  1  0
 26 27  1  0
 27 28  1  0
 19 29  1  0
 29 30  2  0
 15  2  1  0
 30 16  1  0
 10  5  2  0
 28 23  1  0
  1 31  1  0
  1 32  1  0
  4 33  1  0
 12 34  1  0
 14 35  1  0
 14 36  1  0
 14 37  1  0
 17 38  1  0
 18 39  1  0
 23 40  1  0
 24 41  1  0
 24 42  1  0
 25 43  1  0
 25 44  1  0
 27 45  1  0
 27 46  1  0
 28 47  1  0
 28 48  1  0
 29 49  1  0
 30 50  1  0
M  CHG  4   6  -1   9  -1  11  -1  23   1
M  END
>  <UniqueID>  (14) 
14

>  <SMILES>  (14) 
C=c1c(=Cc2[n-]c(=O)[n-]c2[O-])cc(C)n1-c1ccc(S(=O)(=O)[NH+]2CCOCC2)cc1

>  <Energy>  (14) 
139.02104827761153

>  <Genealogy>  (14) 
C=c1c(=Cc2[n-]c(=O)[n-]c2[O-])cc(C)n1-c1ccc(S(=O)(=O)[NH+]2CCOCC2)cc1 (protonated)
C=c1c(=Cc2[n-]c(=O)[n-]c2[O-])cc(C)n1-c1ccc(S(=O)(=O)[NH+]2CCOCC2)cc1 (3D coordinates assigned)
C=c1c(=Cc2[n-]c(=O)[n-]c2[O-])cc(C)n1-c1ccc(S(=O)(=O)[NH+]2CCOCC2)cc1 (nonaromatic ring conformer: 139.02104827761153 kcal/mol)

>  <smiles>  (14) 
C=c1c(=Cc2[nH]c(=O)[nH]c2O)cc(C)n1-c1ccc(S(=O)(=O)N2CCOCC2)cc1

>  <score_type>  (14) 
oracle

>  <origin>  (14) 
adg

>  <m_score__min__energy>  (14) 
-14.609999999999999

>  <m_primary>  (14) 
energy

$$$$
14:0
     RDKit          3D

 52 55  0  0  0  0  0  0  0  0999 V2000
   54.0190   26.3400   46.5000 H   0  0  0  0  0  0  0  0  0  0  0  0
   54.8810   26.3240   45.9700 O   0  0  0  0  0  0  0  0  0  0  0  0
   55.8740   25.3930   46.2580 C   0  0  0  0  0  0  0  0  0  0  0  0
   55.7350   24.4110   47.1660 N   0  0  0  0  0  0  0  0  0  0  0  0
   56.9490   23.8210   47.1520 C   0  0  0  0  0  0  0  0  0  0  0  0
   57.2340   22.8390   47.8850 O   0  0  0  0  0  0  0  0  0  0  0  0
   57.8380   24.3730   46.2960 N   0  0  0  0  0  0  0  0  0  0  0  0
   57.1380   25.3600   45.7120 C   0  0  0  0  0  0  0  0  0  0  0  0
   57.7270   26.3040   44.7450 C   0  0  0  0  0  0  0  0  0  0  0  0
   57.6332   26.0713   43.6740 H   0  0  0  0  0  0  0  0  0  0  0  0
   58.3730   27.4340   45.0920 C   0  0  0  0  0  0  0  0  0  0  0  0
   59.4920   27.5230   45.9120 C   0  0  0  0  0  0  0  0  0  0  0  0
   60.0351   26.6863   46.3757 H   0  0  0  0  0  0  0  0  0  0  0  0
   59.7890   28.8660   46.0310 C   0  0  0  0  0  0  0  0  0  0  0  0
   60.9110   29.4180   46.8570 C   0  0  0  0  0  0  0  0  0  0  0  0
   60.6726   29.3007   47.9244 H   0  0  0  0  0  0  0  0  0  0  0  0
   61.8385   28.8733   46.6264 H   0  0  0  0  0  0  0  0  0  0  0  0
   61.0455   30.4851   46.6264 H   0  0  0  0  0  0  0  0  0  0  0  0
   58.8990   29.6100   45.3390 N   0  0  0  0  0  0  0  0  0  0  0  0
   58.8980   31.0450   45.2430 C   0  0  0  0  0  0  0  0  0  0  0  0
   58.3730   31.6760   44.1100 C   0  0  0  0  0  0  0  0  0  0  0  0
   57.9495   31.0720   43.2940 H   0  0  0  0  0  0  0  0  0  0  0  0
   58.3840   33.0690   44.0100 C   0  0  0  0  0  0  0  0  0  0  0  0
   57.9639   33.5549   43.1170 H   0  0  0  0  0  0  0  0  0  0  0  0
   58.9270   33.8550   45.0400 C   0  0  0  0  0  0  0  0  0  0  0  0
   58.9390   35.3530   44.8840 C   0  0  0  0  0  0  0  0  0  0  0  0
   58.9428   35.8251   45.8775 H   0  0  0  0  0  0  0  0  0  0  0  0
   59.8396   35.6568   44.3303 H   0  0  0  0  0  0  0  0  0  0  0  0
   58.0434   35.6712   44.3303 H   0  0  0  0  0  0  0  0  0  0  0  0
   59.4290   33.2200   46.2010 C   0  0  0  0  0  0  0  0  0  0  0  0
   59.9590   33.9930   47.3400 C   0  0  0  0  0  0  0  0  0  0  0  0
   59.2500   34.9110   47.8310 O   0  0  0  0  0  0  0  0  0  0  0  0
   61.2690   33.7280   47.8790 N   0  0  0  0  0  0  0  0  0  0  0  0
   62.2870   33.0390   47.0760 C   0  0  0  0  0  0  0  0  0  0  0  0
   62.2066   31.9540   47.2379 H   0  0  0  0  0  0  0  0  0  0  0  0
   62.1263   33.2687   46.0123 H   0  0  0  0  0  0  0  0  0  0  0  0
   63.6830   33.5120   47.4890 C   0  0  0  0  0  0  0  0  0  0  0  0
   64.4379   32.8918   46.9835 H   0  0  0  0  0  0  0  0  0  0  0  0
   63.7973   34.5671   47.1996 H   0  0  0  0  0  0  0  0  0  0  0  0
   63.8570   33.4050   48.8890 O   0  0  0  0  0  0  0  0  0  0  0  0
   62.9790   34.2970   49.5480 C   0  0  0  0  0  0  0  0  0  0  0  0
   63.1895   34.2784   50.6275 H   0  0  0  0  0  0  0  0  0  0  0  0
   63.1358   35.3082   49.1444 H   0  0  0  0  0  0  0  0  0  0  0  0
   61.5180   33.8960   49.3140 C   0  0  0  0  0  0  0  0  0  0  0  0
   61.3126   32.9481   49.8330 H   0  0  0  0  0  0  0  0  0  0  0  0
   60.8593   34.6853   49.7053 H   0  0  0  0  0  0  0  0  0  0  0  0
   59.4290   31.8200   46.2830 C   0  0  0  0  0  0  0  0  0  0  0  0
   59.8494   31.3259   47.1713 H   0  0  0  0  0  0  0  0  0  0  0  0
   58.0250   28.7470   44.7620 C   0  0  0  0  0  0  0  0  0  0  0  0
   56.9770   29.1290   44.0130 C   0  0  0  0  0  0  0  0  0  0  0  0
   56.8005   30.1971   43.8181 H   0  0  0  0  0  0  0  0  0  0  0  0
   56.2955   28.3736   43.5947 H   0  0  0  0  0  0  0  0  0  0  0  0
  1  2  1  0
  2  3  1  0
  3  4  1  0
  4  5  1  0
  5  6  2  0
  5  7  1  0
  7  8  1  0
  8  9  1  0
  9 10  1  0
  9 11  2  0
 11 12  1  0
 12 13  1  0
 12 14  2  0
 14 15  1  0
 15 16  1  0
 15 17  1  0
 15 18  1  0
 14 19  1  0
 19 20  1  0
 20 21  2  0
 21 22  1  0
 21 23  1  0
 23 24  1  0
 23 25  2  0
 25 26  1  0
 26 27  1  0
 26 28  1  0
 26 29  1  0
 25 30  1  0
 30 31  1  0
 31 32  2  0
 31 33  1  0
 33 34  1  0
 34 35  1  0
 34 36  1  0
 34 37  1  0
 37 38  1  0
 37 39  1  0
 37 40  1  0
 40 41  1  0
 41 42  1  0
 41 43  1  0
 41 44  1  0
 44 45  1  0
 44 46  1  0
 30 47  2  0
 47 48  1  0
 19 49  1  0
 49 50  2  0
 50 51  1  0
 50 52  1  0
  8  3  2  0
 49 11  1  0
 47 20  1  0
 44 33  1  0
M  CHG  2   4  -1   7  -1
M  END
>  <UniqueID>  (15) 
15

>  <SMILES>  (15) 
C=c1/c(=C/c2[n-]c(=O)[n-]c2O)cc(C)n1-c1ccc(C)c(C(=O)N2CCOCC2)c1

>  <Energy>  (15) 
133.72953733268102

>  <Genealogy>  (15) 
C=c1c(=Cc2[n-]c(=O)[n-]c2O)cc(C)n1-c1ccc(C)c(C(=O)N2CCOCC2)c1 (protonated)
C=c1/c(=C/c2[n-]c(=O)[n-]c2O)cc(C)n1-c1ccc(C)c(C(=O)N2CCOCC2)c1 (cis-trans isomerization)
C=c1/c(=C/c2[n-]c(=O)[n-]c2O)cc(C)n1-c1ccc(C)c(C(=O)N2CCOCC2)c1 (3D coordinates assigned)
C=c1/c(=C/c2[n-]c(=O)[n-]c2O)cc(C)n1-c1ccc(C)c(C(=O)N2CCOCC2)c1 (nonaromatic ring conformer: 133.72953733268102 kcal/mol)

>  <smiles>  (15) 
C=c1c(=Cc2[nH]c(=O)[nH]c2O)cc(C)n1-c1ccc(C)c(C(=O)N2CCOCC2)c1

>  <score_type>  (15) 
oracle

>  <origin>  (15) 
adg

>  <m_score__min__energy>  (15) 
-14.18

>  <m_primary>  (15) 
energy

$$$$
15:0
     RDKit          3D

 26 27  0  0  0  0  0  0  0  0999 V2000
   55.8810   29.7250   43.9650 C   0  0  0  0  0  0  0  0  0  0  0  0
   56.2230   28.8550   45.0380 O   0  0  0  0  0  0  0  0  0  0  0  0
   57.5100   28.7320   45.5880 C   0  0  0  0  0  0  0  0  0  0  0  0
   58.0560   29.7260   46.4250 C   0  0  0  0  0  0  0  0  0  0  0  0
   59.3340   29.5710   46.9670 C   0  0  0  0  0  0  0  0  0  0  0  0
   60.0800   28.4270   46.6860 C   0  0  0  0  0  0  0  0  0  0  0  0
   59.5520   27.4350   45.8570 C   0  0  0  0  0  0  0  0  0  0  0  0
   58.2740   27.5820   45.2930 C   0  0  0  0  0  0  0  0  0  0  0  0
   57.7130   26.4790   44.4320 C   0  0  0  0  0  0  0  0  0  0  0  0
   57.0290   25.4530   45.2860 C   0  0  0  0  0  0  0  0  0  0  0  0
   57.5440   24.2340   45.5300 N   0  0  0  0  0  0  0  0  0  0  0  0
   56.6470   23.6710   46.3670 C   0  0  0  0  0  0  0  0  0  0  0  0
   56.8240   22.1610   46.9640 S   0  0  0  0  0  0  0  0  0  0  0  0
   55.5970   24.4600   46.6760 N   0  0  0  0  0  0  0  0  0  0  0  0
   55.8490   25.5850   45.9890 C   0  0  0  0  0  0  0  0  0  0  0  0
   55.0070   26.6960   46.0150 O   0  0  0  0  0  0  0  0  0  0  0  0
   55.5068   30.6769   44.3698 H   0  0  0  0  0  0  0  0  0  0  0  0
   56.7718   29.9139   43.3479 H   0  0  0  0  0  0  0  0  0  0  0  0
   55.1000   29.2567   43.3479 H   0  0  0  0  0  0  0  0  0  0  0  0
   57.4718   30.6298   46.6529 H   0  0  0  0  0  0  0  0  0  0  0  0
   59.7529   30.3533   47.6170 H   0  0  0  0  0  0  0  0  0  0  0  0
   61.0846   28.3059   47.1174 H   0  0  0  0  0  0  0  0  0  0  0  0
   60.1417   26.5312   45.6439 H   0  0  0  0  0  0  0  0  0  0  0  0
   56.9871   26.9045   43.7235 H   0  0  0  0  0  0  0  0  0  0  0  0
   58.5360   25.9983   43.8828 H   0  0  0  0  0  0  0  0  0  0  0  0
   55.1440   27.4900   45.4050 H   0  0  0  0  0  0  0  0  0  0  0  0
  1  2  1  0
  2  3  1  0
  3  4  2  0
  4  5  1  0
  5  6  2  0
  6  7  1  0
  7  8  2  0
  8  9  1  0
  9 10  1  0
 10 11  1  0
 11 12  1  0
 12 13  2  0
 12 14  1  0
 14 15  1  0
 15 16  1  0
  8  3  1  0
 15 10  2  0
  1 17  1  0
  1 18  1  0
  1 19  1  0
  4 20  1  0
  5 21  1  0
  6 22  1  0
  7 23  1  0
  9 24  1  0
  9 25  1  0
 16 26  1  0
M  CHG  2  11  -1  14  -1
M  END
>  <UniqueID>  (16) 
16

>  <SMILES>  (16) 
COc1ccccc1Cc1[n-]c(=S)[n-]c1O

>  <Energy>  (16) 
53.2278606754964

>  <Genealogy>  (16) 
COc1ccccc1Cc1[n-]c(=S)[n-]c1O (protonated)
COc1ccccc1Cc1[n-]c(=S)[n-]c1O (3D coordinates assigned)
COc1ccccc1Cc1[n-]c(=S)[n-]c1O (optimized conformer: 53.2278606754964 kcal/mol)

>  <smiles>  (16) 
COc1ccccc1Cc1[nH]c(=S)[nH]c1O

>  <score_type>  (16) 
oracle

>  <origin>  (16) 
adg

>  <m_score__min__energy>  (16) 
-10.699999999999999

>  <m_primary>  (16) 
energy

$$$$
16:0
     RDKit          3D

 27 28  0  0  1  0  0  0  0  0999 V2000
   58.0740   32.7520   43.4240 C   0  0  0  0  0  0  0  0  0  0  0  0
   58.4520   33.2000   44.5940 C   0  0  0  0  0  0  0  0  0  0  0  0
   59.0250   34.4270   44.7900 N   0  0  0  0  0  0  0  0  0  0  0  0
   59.3010   34.6070   46.0580 N   0  0  0  0  0  0  0  0  0  0  0  0
   58.9330   33.5350   46.7630 C   0  0  0  0  0  0  0  0  0  0  0  0
   59.0790   33.3510   48.2350 C   0  0  0  0  0  0  0  0  0  0  0  0
   58.3990   32.6490   45.8440 C   0  0  0  0  0  0  0  0  0  0  0  0
   57.9280   31.4830   46.1420 C   0  0  0  0  0  0  0  0  0  0  0  0
   58.0590   30.2680   45.3540 C   0  0  0  0  0  0  0  0  0  0  0  0
   56.9590   29.7080   44.6920 C   0  0  0  0  0  0  0  0  0  0  0  0
   55.7020   30.3100   44.8290 O   0  0  0  0  0  0  0  0  0  0  0  0
   57.1570   28.6080   43.9450 N   0  0  0  0  0  0  0  0  0  0  0  0
   58.4000   28.0560   43.8400 C   0  0  0  0  0  0  0  0  0  0  0  0
   58.5310   27.0290   43.1300 O   0  0  0  0  0  0  0  0  0  0  0  0
   59.4530   28.6060   44.4840 N   0  0  0  0  0  0  0  0  0  0  0  0
   59.3250   29.7160   45.2530 C   0  0  0  0  0  0  0  0  0  0  0  0
   60.3040   30.2320   45.8560 O   0  0  0  0  0  0  0  0  0  0  0  0
   57.6192   31.7541   43.3379 H   0  0  0  0  0  0  0  0  0  0  0  0
   58.2110   33.3733   42.5267 H   0  0  0  0  0  0  0  0  0  0  0  0
   59.2300   35.1420   44.0590 H   0  0  0  0  0  0  0  0  0  0  0  0
   58.4783   34.1080   48.7605 H   0  0  0  0  0  0  0  0  0  0  0  0
   58.7296   32.3463   48.5154 H   0  0  0  0  0  0  0  0  0  0  0  0
   60.1368   33.4629   48.5154 H   0  0  0  0  0  0  0  0  0  0  0  0
   57.3717   31.4014   47.0875 H   0  0  0  0  0  0  0  0  0  0  0  0
   55.1530   30.0870   45.6570 H   0  0  0  0  0  0  0  0  0  0  0  0
   56.3260   28.2070   43.4610 H   0  0  0  0  0  0  0  0  0  0  0  0
   60.4000   28.1890   44.4050 H   0  0  0  0  0  0  0  0  0  0  0  0
  1  2  2  0
  2  3  1  0
  3  4  1  0
  4  5  2  0
  5  6  1  0
  5  7  1  0
  7  8  2  0
  8  9  1  0
  9 10  2  0
 10 11  1  0
 10 12  1  0
 12 13  1  0
 13 14  2  0
 13 15  1  0
 15 16  1  0
 16 17  2  0
  7  2  1  0
 16  9  1  0
  1 18  1  0
  1 19  1  0
  3 20  1  0
  6 21  1  0
  6 22  1  0
  6 23  1  0
  8 24  1  0
 11 25  1  0
 12 26  1  0
 15 27  1  0
M  END
>  <smiles>  (17) 
C=c1[nH]nc(C)c1=Cc1c(O)[nH]c(=O)[nH]c1=O

>  <score_type>  (17) 
oracle

>  <origin>  (17) 
adg

>  <m_score__min__energy>  (17) 
-6.54

>  <m_primary>  (17) 
energy

$$$$
17:0
     RDKit          3D

 44 46  0  0  0  0  0  0  0  0999 V2000
   56.6520   33.8670   45.6600 O   0  0  0  0  0  0  0  0  0  0  0  0
   57.4120   32.9370   45.2810 C   0  0  0  0  0  0  0  0  0  0  0  0
   56.8100   31.6990   44.8690 N   0  0  0  0  0  0  0  0  0  0  0  0
   57.4020   30.6790   44.0040 C   0  0  0  0  0  0  0  0  0  0  0  0
   57.4570   29.3400   44.6900 C   0  0  0  0  0  0  0  0  0  0  0  0
   58.6950   28.7570   45.0090 C   0  0  0  0  0  0  0  0  0  0  0  0
   58.7440   27.5180   45.6540 C   0  0  0  0  0  0  0  0  0  0  0  0
   57.5610   26.8440   45.9690 C   0  0  0  0  0  0  0  0  0  0  0  0
   56.3260   27.4030   45.6280 C   0  0  0  0  0  0  0  0  0  0  0  0
   55.1510   26.7290   45.9360 O   0  0  0  0  0  0  0  0  0  0  0  0
   56.2730   28.6410   44.9790 C   0  0  0  0  0  0  0  0  0  0  0  0
   58.9160   33.1530   45.2840 C   0  0  1  0  0  0  0  0  0  0  0  0
   59.2940   34.6520   45.3700 C   0  0  0  0  0  0  0  0  0  0  0  0
   59.5740   35.1010   46.8040 C   0  0  0  0  0  0  0  0  0  0  0  0
   60.6680   34.2460   47.4790 C   0  0  0  0  0  0  0  0  0  0  0  0
   60.9260   32.9720   46.7680 N   0  0  0  0  0  0  0  0  0  0  0  0
   61.8690   32.0920   47.5080 C   0  0  0  0  0  0  0  0  0  0  0  0
   61.2160   30.8230   48.0960 C   0  0  0  0  0  0  0  0  0  0  0  0
   59.8150   31.1210   48.6320 C   0  0  0  0  0  0  0  0  0  0  0  0
   58.8840   31.7310   47.5550 C   0  0  1  0  0  0  0  0  0  0  0  0
   58.0990   32.7330   48.1460 O   0  0  0  0  0  0  0  0  0  0  0  0
   59.6900   32.2840   46.3360 C   0  0  1  0  0  0  0  0  0  0  0  0
   56.7954   30.5884   43.0909 H   0  0  0  0  0  0  0  0  0  0  0  0
   58.4302   30.9857   43.7615 H   0  0  0  0  0  0  0  0  0  0  0  0
   59.6289   29.2775   44.7502 H   0  0  0  0  0  0  0  0  0  0  0  0
   59.7156   27.0726   45.9142 H   0  0  0  0  0  0  0  0  0  0  0  0
   57.6017   25.8736   46.4853 H   0  0  0  0  0  0  0  0  0  0  0  0
   55.3006   29.0689   44.6938 H   0  0  0  0  0  0  0  0  0  0  0  0
   59.2571   32.7852   44.3050 H   0  0  0  0  0  0  0  0  0  0  0  0
   60.1954   34.8244   44.7635 H   0  0  0  0  0  0  0  0  0  0  0  0
   58.4394   35.2353   44.9967 H   0  0  0  0  0  0  0  0  0  0  0  0
   59.9034   36.1504   46.7888 H   0  0  0  0  0  0  0  0  0  0  0  0
   58.6463   34.9813   47.3829 H   0  0  0  0  0  0  0  0  0  0  0  0
   61.6011   34.8279   47.5060 H   0  0  0  0  0  0  0  0  0  0  0  0
   60.3129   33.9938   48.4891 H   0  0  0  0  0  0  0  0  0  0  0  0
   62.6666   31.7817   46.8170 H   0  0  0  0  0  0  0  0  0  0  0  0
   62.2483   32.6772   48.3587 H   0  0  0  0  0  0  0  0  0  0  0  0
   61.1440   30.0584   47.3084 H   0  0  0  0  0  0  0  0  0  0  0  0
   61.8389   30.4639   48.9285 H   0  0  0  0  0  0  0  0  0  0  0  0
   59.3688   30.1827   48.9933 H   0  0  0  0  0  0  0  0  0  0  0  0
   59.9173   31.8588   49.4414 H   0  0  0  0  0  0  0  0  0  0  0  0
   58.2296   30.9399   47.1602 H   0  0  0  0  0  0  0  0  0  0  0  0
   57.3550   32.9240   47.5170 H   0  0  0  0  0  0  0  0  0  0  0  0
   59.9298   31.3650   45.7811 H   0  0  0  0  0  0  0  0  0  0  0  0
  1  2  2  0
  2  3  1  0
  3  4  1  0
  4  5  1  0
  5  6  2  0
  6  7  1  0
  7  8  2  0
  8  9  1  0
  9 10  1  0
  9 11  2  0
  2 12  1  0
 12 13  1  0
 13 14  1  0
 14 15  1  0
 15 16  1  0
 16 17  1  0
 17 18  1  0
 18 19  1  0
 19 20  1  0
 20 21  1  0
 20 22  1  0
 11  5  1  0
 22 12  1  0
 22 16  1  0
  4 23  1  0
  4 24  1  0
  6 25  1  0
  7 26  1  0
  8 27  1  0
 11 28  1  0
 12 29  1  6
 13 30  1  0
 13 31  1  0
 14 32  1  0
 14 33  1  0
 15 34  1  0
 15 35  1  0
 17 36  1  0
 17 37  1  0
 18 38  1  0
 18 39  1  0
 19 40  1  0
 19 41  1  0
 20 42  1  6
 21 43  1  0
 22 44  1  6
M  CHG  2   3  -1  10  -1
M  END
>  <UniqueID>  (18) 
17

>  <SMILES>  (18) 
O=C([N-]Cc1cccc([O-])c1)[C@H]1CCCN2CCC[C@@H](O)C12

>  <Energy>  (18) 
62.33694750651577

>  <Genealogy>  (18) 
O=C([N-]Cc1cccc([O-])c1)C1CCCN2CCCC(O)C12 (protonated)
O=C([N-]Cc1cccc([O-])c1)[C@H]1CCCN2CCC[C@@H](O)C12 (chirality)
O=C([N-]Cc1cccc([O-])c1)[C@H]1CCCN2CCC[C@@H](O)C12 (3D coordinates assigned)
O=C([N-]Cc1cccc([O-])c1)[C@H]1CCCN2CCC[C@@H](O)C12 (nonaromatic ring conformer: 62.33694750651577 kcal/mol)

>  <smiles>  (18) 
O=C(NCc1cccc(O)c1)C1CCCN2CCCC(O)C12

>  <score_type>  (18) 
oracle

>  <origin>  (18) 
adg

>  <m_score__min__energy>  (18) 
-12.359999999999999

>  <m_primary>  (18) 
energy

$$$$
18:0
     RDKit          3D

 51 53  0  0  0  0  0  0  0  0999 V2000
   60.8590   28.6960   44.8740 C   0  0  0  0  0  0  0  0  0  0  0  0
   59.7650   28.2160   45.8220 C   0  0  0  0  0  0  0  0  0  0  0  0
   58.4170   28.7570   45.4020 C   0  0  0  0  0  0  0  0  0  0  0  0
   58.3640   29.9840   44.7250 C   0  0  0  0  0  0  0  0  0  0  0  0
   57.1420   30.5020   44.2630 C   0  0  0  0  0  0  0  0  0  0  0  0
   57.0760   31.7460   43.5350 N   0  0  0  0  0  0  0  0  0  0  0  0
   58.1480   32.7450   43.5180 C   0  0  0  0  0  0  0  0  0  0  0  0
   58.5300   33.1400   44.9200 C   0  0  0  0  0  0  0  0  0  0  0  0
   57.6650   32.8990   45.9990 C   0  0  0  0  0  0  0  0  0  0  0  0
   58.0460   33.2530   47.2930 C   0  0  0  0  0  0  0  0  0  0  0  0
   59.2890   33.8570   47.5030 C   0  0  0  0  0  0  0  0  0  0  0  0
   59.6710   34.2080   48.8000 O   0  0  0  0  0  0  0  0  0  0  0  0
   60.4250   33.3420   49.6420 C   0  0  0  0  0  0  0  0  0  0  0  0
   61.3960   32.5670   48.8070 C   0  0  0  0  0  0  0  0  0  0  0  0
   62.6540   32.9560   48.3890 C   0  0  0  0  0  0  0  0  0  0  0  0
   63.3720   34.2140   48.7590 C   0  0  0  0  0  0  0  0  0  0  0  0
   63.1560   31.9970   47.5890 N   0  0  0  0  0  0  0  0  0  0  0  0
   62.2650   31.0560   47.4760 O   0  0  0  0  0  0  0  0  0  0  0  0
   61.1910   31.3520   48.1750 C   0  0  0  0  0  0  0  0  0  0  0  0
   59.9720   30.4950   48.2530 C   0  0  0  0  0  0  0  0  0  0  0  0
   60.1110   34.0950   46.4430 N   0  0  0  0  0  0  0  0  0  0  0  0
   59.7630   33.7580   45.1730 C   0  0  0  0  0  0  0  0  0  0  0  0
   55.9710   29.7690   44.5210 C   0  0  0  0  0  0  0  0  0  0  0  0
   54.8500   30.1980   44.1390 O   0  0  0  0  0  0  0  0  0  0  0  0
   56.0390   28.5820   45.1750 N   0  0  0  0  0  0  0  0  0  0  0  0
   57.2130   28.0480   45.6080 C   0  0  0  0  0  0  0  0  0  0  0  0
   57.1750   26.7250   46.3150 C   0  0  0  0  0  0  0  0  0  0  0  0
   61.7123   29.0704   45.4585 H   0  0  0  0  0  0  0  0  0  0  0  0
   61.1877   27.8594   44.2399 H   0  0  0  0  0  0  0  0  0  0  0  0
   60.4660   29.5044   44.2399 H   0  0  0  0  0  0  0  0  0  0  0  0
   59.7327   27.1166   45.8086 H   0  0  0  0  0  0  0  0  0  0  0  0
   59.9913   28.5794   46.8353 H   0  0  0  0  0  0  0  0  0  0  0  0
   59.2920   30.5490   44.5532 H   0  0  0  0  0  0  0  0  0  0  0  0
   56.2540   31.9280   42.9160 H   0  0  0  0  0  0  0  0  0  0  0  0
   59.0273   32.3225   43.0097 H   0  0  0  0  0  0  0  0  0  0  0  0
   57.7908   33.6379   42.9840 H   0  0  0  0  0  0  0  0  0  0  0  0
   56.6854   32.4303   45.8236 H   0  0  0  0  0  0  0  0  0  0  0  0
   57.3737   33.0585   48.1416 H   0  0  0  0  0  0  0  0  0  0  0  0
   60.9735   33.9381   50.3862 H   0  0  0  0  0  0  0  0  0  0  0  0
   59.7471   32.6481   50.1606 H   0  0  0  0  0  0  0  0  0  0  0  0
   63.4209   34.2996   49.8546 H   0  0  0  0  0  0  0  0  0  0  0  0
   64.3918   34.1888   48.3473 H   0  0  0  0  0  0  0  0  0  0  0  0
   62.8317   35.0792   48.3473 H   0  0  0  0  0  0  0  0  0  0  0  0
   64.0900   31.9930   47.1220 H   0  0  0  0  0  0  0  0  0  0  0  0
   59.7168   30.3156   49.3078 H   0  0  0  0  0  0  0  0  0  0  0  0
   59.1337   31.0036   47.7543 H   0  0  0  0  0  0  0  0  0  0  0  0
   60.1668   29.5341   47.7543 H   0  0  0  0  0  0  0  0  0  0  0  0
   60.4507   33.9707   44.3412 H   0  0  0  0  0  0  0  0  0  0  0  0
   57.1797   26.8902   47.4025 H   0  0  0  0  0  0  0  0  0  0  0  0
   56.2609   26.1833   46.0304 H   0  0  0  0  0  0  0  0  0  0  0  0
   58.0565   26.1317   46.0304 H   0  0  0  0  0  0  0  0  0  0  0  0
  1  2  1  0
  2  3  1  0
  3  4  1  0
  4  5  2  0
  5  6  1  0
  6  7  1  0
  7  8  1  0
  8  9  2  0
  9 10  1  0
 10 11  2  0
 11 12  1  0
 12 13  1  0
 13 14  1  0
 14 15  1  0
 15 16  1  0
 15 17  2  0
 17 18  1  0
 18 19  1  0
 19 20  1  0
 11 21  1  0
 21 22  2  0
  5 23  1  0
 23 24  2  0
 23 25  1  0
 25 26  1  0
 26 27  1  0
 26  3  2  0
 22  8  1  0
 19 14  2  0
  1 28  1  0
  1 29  1  0
  1 30  1  0
  2 31  1  0
  2 32  1  0
  4 33  1  0
  6 34  1  0
  7 35  1  0
  7 36  1  0
  9 37  1  0
 10 38  1  0
 13 39  1  0
 13 40  1  0
 16 41  1  0
 16 42  1  0
 16 43  1  0
 17 44  1  0
 20 45  1  0
 20 46  1  0
 20 47  1  0
 22 48  1  0
 27 49  1  0
 27 50  1  0
 27 51  1  0
M  CHG  2  17   1  25  -1
M  END
>  <UniqueID>  (19) 
18

>  <SMILES>  (19) 
CCc1cc(NCc2ccc(OCc3c(C)[nH+]oc3C)nc2)c(=O)[n-]c1C

>  <Energy>  (19) 
76.64397038015446

>  <Genealogy>  (19) 
CCc1cc(NCc2ccc(OCc3c(C)[nH+]oc3C)nc2)c(=O)[n-]c1C (protonated)
CCc1cc(NCc2ccc(OCc3c(C)[nH+]oc3C)nc2)c(=O)[n-]c1C (3D coordinates assigned)
CCc1cc(NCc2ccc(OCc3c(C)[nH+]oc3C)nc2)c(=O)[n-]c1C (optimized conformer: 76.64397038015446 kcal/mol)

>  <smiles>  (19) 
CCc1cc(NCc2ccc(OCc3c(C)noc3C)nc2)c(=O)[nH]c1C

>  <score_type>  (19) 
oracle

>  <origin>  (19) 
adg

>  <m_score__min__energy>  (19) 
-9.8300000000000001

>  <m_primary>  (19) 
energy

$$$$
19:0
     RDKit          3D

 33 34  0  0  0  0  0  0  0  0999 V2000
   59.5990   28.2300   47.7810 C   0  0  0  0  0  0  0  0  0  0  0  0
   58.8660   28.9180   46.8980 C   0  0  0  0  0  0  0  0  0  0  0  0
   58.7680   30.2610   46.9590 N   0  0  0  0  0  0  0  0  0  0  0  0
   58.0950   30.6720   45.8690 C   0  0  0  0  0  0  0  0  0  0  0  0
   57.8340   32.1250   45.5800 C   0  0  0  0  0  0  0  0  0  0  0  0
   58.7970   33.0190   46.3520 C   0  0  0  0  0  0  0  0  0  0  0  0
   57.7520   29.5800   45.0790 C   0  0  0  0  0  0  0  0  0  0  0  0
   57.0380   29.6200   43.7480 C   0  0  0  0  0  0  0  0  0  0  0  0
   55.5270   29.7380   43.9350 C   0  0  0  0  0  0  0  0  0  0  0  0
   58.2060   28.4410   45.7530 C   0  0  0  0  0  0  0  0  0  0  0  0
   57.9980   27.1730   45.3350 C   0  0  0  0  0  0  0  0  0  0  0  0
   57.3890   26.0980   46.1290 C   0  0  0  0  0  0  0  0  0  0  0  0
   58.0830   25.0590   46.6240 N   0  0  0  0  0  0  0  0  0  0  0  0
   57.1290   24.2820   47.1810 C   0  0  0  0  0  0  0  0  0  0  0  0
   57.3930   23.2010   47.7710 O   0  0  0  0  0  0  0  0  0  0  0  0
   55.8700   24.7480   47.0480 N   0  0  0  0  0  0  0  0  0  0  0  0
   56.0450   25.8920   46.3670 C   0  0  0  0  0  0  0  0  0  0  0  0
   54.9940   26.7060   45.9540 O   0  0  0  0  0  0  0  0  0  0  0  0
   59.6619   27.1342   47.7084 H   0  0  0  0  0  0  0  0  0  0  0  0
   60.1387   28.7602   48.5795 H   0  0  0  0  0  0  0  0  0  0  0  0
   59.1790   30.8810   47.6920 H   0  0  0  0  0  0  0  0  0  0  0  0
   57.9615   32.3056   44.5024 H   0  0  0  0  0  0  0  0  0  0  0  0
   56.8071   32.3648   45.8931 H   0  0  0  0  0  0  0  0  0  0  0  0
   58.6437   32.8767   47.4319 H   0  0  0  0  0  0  0  0  0  0  0  0
   59.8323   32.7546   46.0906 H   0  0  0  0  0  0  0  0  0  0  0  0
   58.6101   34.0710   46.0906 H   0  0  0  0  0  0  0  0  0  0  0  0
   57.3973   30.4869   43.1741 H   0  0  0  0  0  0  0  0  0  0  0  0
   57.2503   28.6840   43.2106 H   0  0  0  0  0  0  0  0  0  0  0  0
   55.2908   29.7564   45.0092 H   0  0  0  0  0  0  0  0  0  0  0  0
   55.1708   30.6667   43.4653 H   0  0  0  0  0  0  0  0  0  0  0  0
   55.0310   28.8759   43.4653 H   0  0  0  0  0  0  0  0  0  0  0  0
   58.3122   26.9242   44.3106 H   0  0  0  0  0  0  0  0  0  0  0  0
   55.1440   27.4870   45.3280 H   0  0  0  0  0  0  0  0  0  0  0  0
  1  2  2  0
  2  3  1  0
  3  4  1  0
  4  5  1  0
  5  6  1  0
  4  7  2  0
  7  8  1  0
  8  9  1  0
  7 10  1  0
 10 11  2  3
 11 12  1  0
 12 13  1  0
 13 14  1  0
 14 15  2  0
 14 16  1  0
 16 17  1  0
 17 18  1  0
 10  2  1  0
 17 12  2  0
  1 19  1  0
  1 20  1  0
  3 21  1  0
  5 22  1  0
  5 23  1  0
  6 24  1  0
  6 25  1  0
  6 26  1  0
  8 27  1  0
  8 28  1  0
  9 29  1  0
  9 30  1  0
  9 31  1  0
 11 32  1  0
 18 33  1  0
M  CHG  2  13  -1  16  -1
M  END
>  <UniqueID>  (20) 
19

>  <SMILES>  (20) 
C=c1[nH]c(CC)c(CC)c1=Cc1[n-]c(=O)[n-]c1O

>  <Energy>  (20) 
94.75043511776178

>  <Genealogy>  (20) 
C=c1[nH]c(CC)c(CC)c1=Cc1[n-]c(=O)[n-]c1O (protonated)
C=c1[nH]c(CC)c(CC)c1=Cc1[n-]c(=O)[n-]c1O (3D coordinates assigned)
C=c1[nH]c(CC)c(CC)c1=Cc1[n-]c(=O)[n-]c1O (optimized conformer: 94.75043511776178 kcal/mol)

>  <smiles>  (20) 
C=c1[nH]c(CC)c(CC)c1=Cc1[nH]c(=O)[nH]c1O

>  <score_type>  (20) 
oracle

>  <origin>  (20) 
adg

>  <m_score__min__energy>  (20) 
-11

>  <m_primary>  (20) 
energy

$$$$
20:0
     RDKit          3D

 47 49  0  0  0  0  0  0  0  0999 V2000
   56.6450   30.5970   54.5360 C   0  0  0  0  0  0  0  0  0  0  0  0
   56.7380   31.1880   52.8570 S   0  0  0  0  0  0  0  0  0  0  0  0
   57.1930   30.0920   51.9360 O   0  0  0  0  0  0  0  0  0  0  0  0
   55.3640   31.6320   52.4430 O   0  0  0  0  0  0  0  0  0  0  0  0
   57.8110   32.5470   52.7520 N   0  0  0  0  0  0  0  0  0  0  0  0
   58.9050   32.6920   51.8340 C   0  0  0  0  0  0  0  0  0  0  0  0
   60.0680   33.3190   52.2980 C   0  0  0  0  0  0  0  0  0  0  0  0
   61.1740   33.4770   51.4600 C   0  0  0  0  0  0  0  0  0  0  0  0
   61.1250   33.0160   50.1440 C   0  0  0  0  0  0  0  0  0  0  0  0
   59.9610   32.4090   49.6480 C   0  0  0  0  0  0  0  0  0  0  0  0
   59.9260   31.9470   48.2870 N   0  0  0  0  0  0  0  0  0  0  0  0
   59.1640   32.6960   47.2790 C   0  0  0  0  0  0  0  0  0  0  0  0
   58.4950   31.7610   46.2470 C   0  0  0  0  0  0  0  0  0  0  0  0
   59.0450   30.3890   46.2760 N   0  0  0  0  0  0  0  0  0  0  0  0
   58.5860   29.5450   45.1500 C   0  0  0  0  0  0  0  0  0  0  0  0
   58.0230   28.1990   45.5720 C   0  0  0  0  0  0  0  0  0  0  0  0
   58.8980   27.1740   45.9730 C   0  0  0  0  0  0  0  0  0  0  0  0
   58.4000   25.9280   46.3610 C   0  0  0  0  0  0  0  0  0  0  0  0
   57.0250   25.6940   46.3650 C   0  0  0  0  0  0  0  0  0  0  0  0
   56.1390   26.7060   45.9890 C   0  0  0  0  0  0  0  0  0  0  0  0
   54.7720   26.4560   46.0080 O   0  0  0  0  0  0  0  0  0  0  0  0
   56.6300   27.9640   45.5960 C   0  0  0  0  0  0  0  0  0  0  0  0
   55.7460   28.9830   45.2320 O   0  0  0  0  0  0  0  0  0  0  0  0
   60.5040   30.3860   46.4610 C   0  0  0  0  0  0  0  0  0  0  0  0
   60.8110   30.8440   47.8870 C   0  0  0  0  0  0  0  0  0  0  0  0
   58.8390   32.2690   50.4890 C   0  0  0  0  0  0  0  0  0  0  0  0
   57.6580   31.7600   49.9630 O   0  0  0  0  0  0  0  0  0  0  0  0
   56.7777   31.4405   55.2295 H   0  0  0  0  0  0  0  0  0  0  0  0
   55.6627   30.1325   54.7073 H   0  0  0  0  0  0  0  0  0  0  0  0
   57.4372   29.8533   54.7073 H   0  0  0  0  0  0  0  0  0  0  0  0
   60.1108   33.6906   53.3324 H   0  0  0  0  0  0  0  0  0  0  0  0
   62.0844   33.9653   51.8377 H   0  0  0  0  0  0  0  0  0  0  0  0
   62.0035   33.1290   49.4917 H   0  0  0  0  0  0  0  0  0  0  0  0
   58.3831   33.2813   47.7866 H   0  0  0  0  0  0  0  0  0  0  0  0
   59.8649   33.3507   46.7403 H   0  0  0  0  0  0  0  0  0  0  0  0
   57.4176   31.7124   46.4633 H   0  0  0  0  0  0  0  0  0  0  0  0
   58.6922   32.1758   45.2475 H   0  0  0  0  0  0  0  0  0  0  0  0
   57.8019   30.0919   44.6058 H   0  0  0  0  0  0  0  0  0  0  0  0
   59.4697   29.3380   44.5285 H   0  0  0  0  0  0  0  0  0  0  0  0
   59.9830   27.3547   45.9812 H   0  0  0  0  0  0  0  0  0  0  0  0
   59.0936   25.1298   46.6640 H   0  0  0  0  0  0  0  0  0  0  0  0
   56.6372   24.7094   46.6652 H   0  0  0  0  0  0  0  0  0  0  0  0
   54.7610   28.9530   45.4660 H   0  0  0  0  0  0  0  0  0  0  0  0
   60.8961   29.3702   46.3046 H   0  0  0  0  0  0  0  0  0  0  0  0
   60.9781   31.0641   45.7361 H   0  0  0  0  0  0  0  0  0  0  0  0
   60.6661   29.9985   48.5756 H   0  0  0  0  0  0  0  0  0  0  0  0
   61.8519   31.1977   47.9255 H   0  0  0  0  0  0  0  0  0  0  0  0
  1  2  1  0
  2  3  2  0
  2  4  2  0
  2  5  1  0
  5  6  1  0
  6  7  2  0
  7  8  1  0
  8  9  2  0
  9 10  1  0
 10 11  1  0
 11 12  1  0
 12 13  1  0
 13 14  1  0
 14 15  1  0
 15 16  1  0
 16 17  2  0
 17 18  1  0
 18 19  2  0
 19 20  1  0
 20 21  1  0
 20 22  2  0
 22 23  1  0
 14 24  1  0
 24 25  1  0
 10 26  2  0
 26 27  1  0
 26  6  1  0
 25 11  1  0
 22 16  1  0
  1 28  1  0
  1 29  1  0
  1 30  1  0
  7 31  1  0
  8 32  1  0
  9 33  1  0
 12 34  1  0
 12 35  1  0
 13 36  1  0
 13 37  1  0
 15 38  1  0
 15 39  1  0
 17 40  1  0
 18 41  1  0
 19 42  1  0
 23 43  1  0
 24 44  1  0
 24 45  1  0
 25 46  1  0
 25 47  1  0
M  CHG  3   5  -1  21  -1  27  -1
M  END
>  <UniqueID>  (21) 
20

>  <SMILES>  (21) 
CS(=O)(=O)[N-]c1cccc(N2CCN(Cc3cccc([O-])c3O)CC2)c1[O-]

>  <Energy>  (21) 
65.8883389871811

>  <Genealogy>  (21) 
CS(=O)(=O)[N-]c1cccc(N2CCN(Cc3cccc([O-])c3O)CC2)c1[O-] (protonated)
CS(=O)(=O)[N-]c1cccc(N2CCN(Cc3cccc([O-])c3O)CC2)c1[O-] (3D coordinates assigned)
CS(=O)(=O)[N-]c1cccc(N2CCN(Cc3cccc([O-])c3O)CC2)c1[O-] (nonaromatic ring conformer: 65.8883389871811 kcal/mol)

>  <smiles>  (21) 
CS(=O)(=O)Nc1cccc(N2CCN(Cc3cccc(O)c3O)CC2)c1O

>  <score_type>  (21) 
oracle

>  <origin>  (21) 
adg

>  <m_score__min__energy>  (21) 
-14.31

>  <m_primary>  (21) 
energy

$$$$
21:0
     RDKit          3D

 47 49  0  0  0  0  0  0  0  0999 V2000
   59.6320   28.7840   48.7970 C   0  0  0  0  0  0  0  0  0  0  0  0
   59.1220   29.7220   47.9820 C   0  0  0  0  0  0  0  0  0  0  0  0
   58.6940   29.5800   46.6530 C   0  0  0  0  0  0  0  0  0  0  0  0
   58.6370   28.5030   45.8420 C   0  0  0  0  0  0  0  0  0  0  0  0
   57.6210   27.4400   45.9100 C   0  0  0  0  0  0  0  0  0  0  0  0
   56.2650   27.6980   45.6220 C   0  0  0  0  0  0  0  0  0  0  0  0
   55.8170   28.9720   45.2790 O   0  0  0  0  0  0  0  0  0  0  0  0
   55.3650   26.6820   45.6790 N   0  0  0  0  0  0  0  0  0  0  0  0
   55.7440   25.4190   46.0000 C   0  0  0  0  0  0  0  0  0  0  0  0
   54.8870   24.4990   46.0510 O   0  0  0  0  0  0  0  0  0  0  0  0
   57.0480   25.1450   46.2640 N   0  0  0  0  0  0  0  0  0  0  0  0
   57.9910   26.1220   46.2210 C   0  0  0  0  0  0  0  0  0  0  0  0
   59.1930   25.8340   46.4680 O   0  0  0  0  0  0  0  0  0  0  0  0
   58.2920   30.8630   46.2920 C   0  0  0  0  0  0  0  0  0  0  0  0
   57.7240   31.2900   44.9730 C   0  0  0  0  0  0  0  0  0  0  0  0
   58.4520   31.7060   47.3270 N   0  0  0  0  0  0  0  0  0  0  0  0
   58.9600   31.0230   48.3400 N   0  0  0  0  0  0  0  0  0  0  0  0
   59.2400   31.6450   49.6360 C   0  0  0  0  0  0  0  0  0  0  0  0
   57.9530   31.7780   50.4500 C   0  0  0  0  0  0  0  0  0  0  0  0
   57.6830   30.5210   51.2120 C   0  0  0  0  0  0  0  0  0  0  0  0
   58.6170   29.7010   51.4200 O   0  0  0  0  0  0  0  0  0  0  0  0
   56.3520   30.2370   51.6600 N   0  0  0  0  0  0  0  0  0  0  0  0
   55.5230   31.1930   52.3860 C   0  0  0  0  0  0  0  0  0  0  0  0
   54.0650   30.8940   52.1720 C   0  0  0  0  0  0  0  0  0  0  0  0
   53.5380   29.6330   52.4980 C   0  0  0  0  0  0  0  0  0  0  0  0
   52.1800   29.3630   52.2950 C   0  0  0  0  0  0  0  0  0  0  0  0
   51.3410   30.3500   51.7720 C   0  0  0  0  0  0  0  0  0  0  0  0
   51.8560   31.6090   51.4510 C   0  0  0  0  0  0  0  0  0  0  0  0
   51.0190   32.5920   50.9370 O   0  0  0  0  0  0  0  0  0  0  0  0
   53.2140   31.8810   51.6490 C   0  0  0  0  0  0  0  0  0  0  0  0
   59.9254   29.0480   49.8237 H   0  0  0  0  0  0  0  0  0  0  0  0
   59.7563   27.7518   48.4377 H   0  0  0  0  0  0  0  0  0  0  0  0
   59.4126   28.4120   45.0673 H   0  0  0  0  0  0  0  0  0  0  0  0
   55.6950   29.7120   45.9600 H   0  0  0  0  0  0  0  0  0  0  0  0
   56.8552   31.9431   45.1421 H   0  0  0  0  0  0  0  0  0  0  0  0
   58.4896   31.8381   44.4043 H   0  0  0  0  0  0  0  0  0  0  0  0
   57.4102   30.4023   44.4043 H   0  0  0  0  0  0  0  0  0  0  0  0
   59.9571   31.0216   50.1903 H   0  0  0  0  0  0  0  0  0  0  0  0
   59.6623   32.6468   49.4682 H   0  0  0  0  0  0  0  0  0  0  0  0
   58.0566   32.6145   51.1568 H   0  0  0  0  0  0  0  0  0  0  0  0
   57.1149   31.9640   49.7623 H   0  0  0  0  0  0  0  0  0  0  0  0
   55.7520   31.1286   53.4600 H   0  0  0  0  0  0  0  0  0  0  0  0
   55.7373   32.2054   52.0129 H   0  0  0  0  0  0  0  0  0  0  0  0
   54.1952   28.8553   52.9143 H   0  0  0  0  0  0  0  0  0  0  0  0
   51.7728   28.3728   52.5474 H   0  0  0  0  0  0  0  0  0  0  0  0
   50.2738   30.1360   51.6127 H   0  0  0  0  0  0  0  0  0  0  0  0
   53.6168   32.8723   51.3939 H   0  0  0  0  0  0  0  0  0  0  0  0
  1  2  2  0
  2  3  1  0
  3  4  2  3
  4  5  1  0
  5  6  2  0
  6  7  1  0
  6  8  1  0
  8  9  1  0
  9 10  2  0
  9 11  1  0
 11 12  1  0
 12 13  2  0
  3 14  1  0
 14 15  1  0
 14 16  2  0
 16 17  1  0
 17 18  1  0
 18 19  1  0
 19 20  1  0
 20 21  2  0
 20 22  1  0
 22 23  1  0
 23 24  1  0
 24 25  2  0
 25 26  1  0
 26 27  2  0
 27 28  1  0
 28 29  1  0
 28 30  2  0
 17  2  1  0
 30 24  1  0
 12  5  1  0
  1 31  1  0
  1 32  1  0
  4 33  1  0
  7 34  1  0
 15 35  1  0
 15 36  1  0
 15 37  1  0
 18 38  1  0
 18 39  1  0
 19 40  1  0
 19 41  1  0
 23 42  1  0
 23 43  1  0
 25 44  1  0
 26 45  1  0
 27 46  1  0
 30 47  1  0
M  CHG  4   8  -1  11  -1  22  -1  29  -1
M  END
>  <UniqueID>  (22) 
21

>  <SMILES>  (22) 
C=c1c(=Cc2c(O)[n-]c(=O)[n-]c2=O)c(C)nn1CCC(=O)[N-]Cc1cccc([O-])c1

>  <Energy>  (22) 
89.89465917459462

>  <Genealogy>  (22) 
C=c1c(=Cc2c(O)[n-]c(=O)[n-]c2=O)c(C)nn1CCC(=O)[N-]Cc1cccc([O-])c1 (protonated)
C=c1c(=Cc2c(O)[n-]c(=O)[n-]c2=O)c(C)nn1CCC(=O)[N-]Cc1cccc([O-])c1 (3D coordinates assigned)
C=c1c(=Cc2c(O)[n-]c(=O)[n-]c2=O)c(C)nn1CCC(=O)[N-]Cc1cccc([O-])c1 (optimized conformer: 89.89465917459462 kcal/mol)

>  <smiles>  (22) 
C=c1c(=Cc2c(O)[nH]c(=O)[nH]c2=O)c(C)nn1CCC(=O)NCc1cccc(O)c1

>  <score_type>  (22) 
oracle

>  <origin>  (22) 
adg

>  <m_score__min__energy>  (22) 
-18.23

>  <m_primary>  (22) 
energy

$$$$
22:0
     RDKit          3D

 57 59  0  0  0  0  0  0  0  0999 V2000
   56.1113   30.1657   42.7838 H   0  0  0  0  0  0  0  0  0  0  0  0
   56.5900   30.3440   43.7580 C   0  0  0  0  0  0  0  0  0  0  0  0
   57.1160   29.1940   44.5120 C   0  0  0  0  0  0  0  0  0  0  0  0
   56.5420   28.7940   45.5620 O   0  0  0  0  0  0  0  0  0  0  0  0
   58.2720   28.5570   44.0470 O   0  0  0  0  0  0  0  0  0  0  0  0
   59.4560   28.4050   44.8290 C   0  0  0  0  0  0  0  0  0  0  0  0
   60.3350   28.4630   44.1702 H   0  0  0  0  0  0  0  0  0  0  0  0
   59.4921   29.2077   45.5803 H   0  0  0  0  0  0  0  0  0  0  0  0
   59.4530   27.0470   45.5510 C   0  0  0  0  0  0  0  0  0  0  0  0
   59.9631   26.3082   44.9154 H   0  0  0  0  0  0  0  0  0  0  0  0
   59.9704   27.1782   46.5128 H   0  0  0  0  0  0  0  0  0  0  0  0
   58.0820   26.5610   45.8390 N   0  0  0  0  0  0  0  0  0  0  0  0
   57.4110   27.3460   45.6560 H   0  0  0  0  0  0  0  0  0  0  0  0
   57.7400   25.4540   44.9220 C   0  0  0  0  0  0  0  0  0  0  0  0
   57.8080   25.8122   43.8842 H   0  0  0  0  0  0  0  0  0  0  0  0
   58.4460   24.6275   45.0907 H   0  0  0  0  0  0  0  0  0  0  0  0
   56.3060   24.9400   45.1870 C   0  0  0  0  0  0  0  0  0  0  0  0
   55.6532   25.2828   44.3707 H   0  0  0  0  0  0  0  0  0  0  0  0
   56.3518   23.8422   45.2389 H   0  0  0  0  0  0  0  0  0  0  0  0
   55.7750   25.4040   46.4170 O   0  0  0  0  0  0  0  0  0  0  0  0
   56.7170   25.2050   47.4480 C   0  0  0  0  0  0  0  0  0  0  0  0
   56.2465   25.4311   48.4163 H   0  0  0  0  0  0  0  0  0  0  0  0
   57.0535   24.1580   47.4240 H   0  0  0  0  0  0  0  0  0  0  0  0
   57.9390   26.1250   47.2510 C   0  0  0  0  0  0  0  0  0  0  0  0
   57.8209   27.0143   47.8875 H   0  0  0  0  0  0  0  0  0  0  0  0
   58.8405   25.5577   47.5255 H   0  0  0  0  0  0  0  0  0  0  0  0
   56.6740   31.6010   44.2170 C   0  0  0  0  0  0  0  0  0  0  0  0
   55.8332   32.2830   44.0223 H   0  0  0  0  0  0  0  0  0  0  0  0
   57.8390   32.1220   44.9730 C   0  0  0  0  0  0  0  0  0  0  0  0
   58.3370   31.3680   46.0460 C   0  0  0  0  0  0  0  0  0  0  0  0
   57.8613   30.4107   46.3054 H   0  0  0  0  0  0  0  0  0  0  0  0
   59.4310   31.8200   46.7890 C   0  0  0  0  0  0  0  0  0  0  0  0
   59.8024   31.2196   47.6326 H   0  0  0  0  0  0  0  0  0  0  0  0
   60.0610   33.0350   46.4680 C   0  0  0  0  0  0  0  0  0  0  0  0
   61.1780   33.5170   47.2490 N   0  0  0  0  0  0  0  0  0  0  0  0
   60.9110   34.2540   48.4990 C   0  0  0  0  0  0  0  0  0  0  0  0
   61.4166   35.2293   48.4424 H   0  0  0  0  0  0  0  0  0  0  0  0
   59.8191   34.3532   48.5879 H   0  0  0  0  0  0  0  0  0  0  0  0
   61.4020   33.5240   49.7620 C   0  0  0  0  0  0  0  0  0  0  0  0
   60.7766   33.8400   50.6099 H   0  0  0  0  0  0  0  0  0  0  0  0
   61.3239   32.4458   49.5585 H   0  0  0  0  0  0  0  0  0  0  0  0
   62.8730   33.8070   50.1130 C   0  0  0  0  0  0  0  0  0  0  0  0
   62.9768   34.8867   50.2959 H   0  0  0  0  0  0  0  0  0  0  0  0
   63.1000   33.1864   50.9924 H   0  0  0  0  0  0  0  0  0  0  0  0
   63.8970   33.4070   49.0350 C   0  0  0  0  0  0  0  0  0  0  0  0
   64.8907   33.7486   49.3603 H   0  0  0  0  0  0  0  0  0  0  0  0
   63.8334   32.3138   48.9306 H   0  0  0  0  0  0  0  0  0  0  0  0
   63.6150   34.0010   47.6390 C   0  0  0  0  0  0  0  0  0  0  0  0
   63.2624   35.0345   47.7714 H   0  0  0  0  0  0  0  0  0  0  0  0
   64.5581   33.9337   47.0769 H   0  0  0  0  0  0  0  0  0  0  0  0
   62.5580   33.2340   46.8110 C   0  0  0  0  0  0  0  0  0  0  0  0
   62.6589   33.5251   45.7550 H   0  0  0  0  0  0  0  0  0  0  0  0
   62.7388   32.1586   46.9551 H   0  0  0  0  0  0  0  0  0  0  0  0
   59.5750   33.7830   45.3810 C   0  0  0  0  0  0  0  0  0  0  0  0
   60.0601   34.7332   45.1129 H   0  0  0  0  0  0  0  0  0  0  0  0
   58.4810   33.3300   44.6380 C   0  0  0  0  0  0  0  0  0  0  0  0
   58.1185   33.9219   43.7846 H   0  0  0  0  0  0  0  0  0  0  0  0
  1  2  1  0
  2  3  1  0
  3  4  2  0
  3  5  1  0
  5  6  1  0
  6  7  1  0
  6  8  1  0
  6  9  1  0
  9 10  1  0
  9 11  1  0
  9 12  1  0
 12 13  1  0
 12 14  1  0
 14 15  1  0
 14 16  1  0
 14 17  1  0
 17 18  1  0
 17 19  1  0
 17 20  1  0
 20 21  1  0
 21 22  1  0
 21 23  1  0
 21 24  1  0
 24 25  1  0
 24 26  1  0
  2 27  2  0
 27 28  1  0
 27 29  1  0
 29 30  2  0
 30 31  1  0
 30 32  1  0
 32 33  1  0
 32 34  2  0
 34 35  1  0
 35 36  1  0
 36 37  1  0
 36 38  1  0
 36 39  1  0
 39 40  1  0
 39 41  1  0
 39 42  1  0
 42 43  1  0
 42 44  1  0
 42 45  1  0
 45 46  1  0
 45 47  1  0
 45 48  1  0
 48 49  1  0
 48 50  1  0
 48 51  1  0
 51 52  1  0
 51 53  1  0
 34 54  1  0
 54 55  1  0
 54 56  2  0
 56 57  1  0
 24 12  1  0
 56 29  1  0
 51 35  1  0
M  CHG  1  12   1
M  END
>  <UniqueID>  (23) 
22

>  <SMILES>  (23) 
O=C(/C=C/c1ccc(N2CCCCCC2)cc1)OCC[NH+]1CCOCC1

>  <Energy>  (23) 
73.79984606068581

>  <Genealogy>  (23) 
O=C(C=Cc1ccc(N2CCCCCC2)cc1)OCC[NH+]1CCOCC1 (protonated)
O=C(/C=C/c1ccc(N2CCCCCC2)cc1)OCC[NH+]1CCOCC1 (cis-trans isomerization)
O=C(/C=C/c1ccc(N2CCCCCC2)cc1)OCC[NH+]1CCOCC1 (3D coordinates assigned)
O=C(/C=C/c1ccc(N2CCCCCC2)cc1)OCC[NH+]1CCOCC1 (nonaromatic ring conformer: 73.79984606068581 kcal/mol)

>  <smiles>  (23) 
O=C(C=Cc1ccc(N2CCCCCC2)cc1)OCCN1CCOCC1

>  <score_type>  (23) 
oracle

>  <origin>  (23) 
adg

>  <m_score__min__energy>  (23) 
-3.6099999999999999

>  <m_primary>  (23) 
energy

$$$$
23:0
     RDKit          3D

 43 45  0  0  0  0  0  0  0  0999 V2000
   61.1119   30.6857   46.6539 H   0  0  0  0  0  0  0  0  0  0  0  0
   60.3170   30.1950   46.0730 C   0  0  0  0  0  0  0  0  0  0  0  0
   60.3482   29.1081   45.9068 H   0  0  0  0  0  0  0  0  0  0  0  0
   59.3070   30.9240   45.5660 C   0  0  0  0  0  0  0  0  0  0  0  0
   58.2240   30.4450   44.8070 C   0  0  0  0  0  0  0  0  0  0  0  0
   57.9780   29.2310   44.2730 C   0  0  0  0  0  0  0  0  0  0  0  0
   58.2246   29.0915   43.2101 H   0  0  0  0  0  0  0  0  0  0  0  0
   57.4070   28.0730   44.9890 C   0  0  0  0  0  0  0  0  0  0  0  0
   56.0350   28.0030   45.2830 C   0  0  0  0  0  0  0  0  0  0  0  0
   55.1680   29.0100   44.8740 O   0  0  0  0  0  0  0  0  0  0  0  0
   55.5460   26.9450   45.9810 N   0  0  0  0  0  0  0  0  0  0  0  0
   56.3640   25.9550   46.4180 C   0  0  0  0  0  0  0  0  0  0  0  0
   55.8880   24.9830   47.0590 O   0  0  0  0  0  0  0  0  0  0  0  0
   57.6970   26.0140   46.1690 N   0  0  0  0  0  0  0  0  0  0  0  0
   58.2370   27.0510   45.4750 C   0  0  0  0  0  0  0  0  0  0  0  0
   59.4790   27.0780   45.2690 O   0  0  0  0  0  0  0  0  0  0  0  0
   57.3550   31.5090   44.6560 C   0  0  0  0  0  0  0  0  0  0  0  0
   56.3786   31.4899   44.1497 H   0  0  0  0  0  0  0  0  0  0  0  0
   57.9440   32.5980   45.2600 C   0  0  0  0  0  0  0  0  0  0  0  0
   57.3090   33.9540   45.3490 C   0  0  0  0  0  0  0  0  0  0  0  0
   57.1799   34.2297   46.4060 H   0  0  0  0  0  0  0  0  0  0  0  0
   57.9541   34.6942   44.8531 H   0  0  0  0  0  0  0  0  0  0  0  0
   56.3273   33.9324   44.8531 H   0  0  0  0  0  0  0  0  0  0  0  0
   59.1310   32.2530   45.8130 N   0  0  0  0  0  0  0  0  0  0  0  0
   59.9950   33.1600   46.5900 C   0  0  0  0  0  0  0  0  0  0  0  0
   61.0426   32.8435   46.4787 H   0  0  0  0  0  0  0  0  0  0  0  0
   59.8621   34.1841   46.2112 H   0  0  0  0  0  0  0  0  0  0  0  0
   59.6230   33.1330   48.0510 C   0  0  0  0  0  0  0  0  0  0  0  0
   58.8190   32.1010   48.5610 C   0  0  0  0  0  0  0  0  0  0  0  0
   58.4657   31.3020   47.8926 H   0  0  0  0  0  0  0  0  0  0  0  0
   58.4650   32.0830   49.9130 C   0  0  0  0  0  0  0  0  0  0  0  0
   57.8296   31.2741   50.3028 H   0  0  0  0  0  0  0  0  0  0  0  0
   58.9170   33.0920   50.7730 C   0  0  0  0  0  0  0  0  0  0  0  0
   58.4520   33.0800   52.4720 S   0  0  0  0  0  0  0  0  0  0  0  0
   57.0310   32.6080   52.6070 O   0  0  0  0  0  0  0  0  0  0  0  0
   59.3440   32.1440   53.2370 O   0  0  0  0  0  0  0  0  0  0  0  0
   58.5950   34.6740   53.1250 N   0  0  0  0  0  0  0  0  0  0  0  0
   57.7790   34.8160   53.7620 H   0  0  0  0  0  0  0  0  0  0  0  0
   58.4750   35.3410   52.3290 H   0  0  0  0  0  0  0  0  0  0  0  0
   59.7170   34.1250   50.2680 C   0  0  0  0  0  0  0  0  0  0  0  0
   60.0670   34.9243   50.9378 H   0  0  0  0  0  0  0  0  0  0  0  0
   60.0720   34.1440   48.9170 C   0  0  0  0  0  0  0  0  0  0  0  0
   60.7063   34.9547   48.5293 H   0  0  0  0  0  0  0  0  0  0  0  0
  1  2  1  0
  2  3  1  0
  2  4  2  0
  4  5  1  0
  5  6  2  0
  6  7  1  0
  6  8  1  0
  8  9  2  0
  9 10  1  0
  9 11  1  0
 11 12  1  0
 12 13  2  0
 12 14  1  0
 14 15  1  0
 15 16  2  0
  5 17  1  0
 17 18  1  0
 17 19  2  0
 19 20  1  0
 20 21  1  0
 20 22  1  0
 20 23  1  0
 19 24  1  0
 24 25  1  0
 25 26  1  0
 25 27  1  0
 25 28  1  0
 28 29  2  0
 29 30  1  0
 29 31  1  0
 31 32  1  0
 31 33  2  0
 33 34  1  0
 34 35  2  0
 34 36  2  0
 34 37  1  0
 37 38  1  0
 37 39  1  0
 33 40  1  0
 40 41  1  0
 40 42  2  0
 42 43  1  0
 24  4  1  0
 42 28  1  0
 15  8  1  0
M  CHG  3  10  -1  11  -1  14  -1
M  END
>  <UniqueID>  (24) 
23

>  <SMILES>  (24) 
C=c1/c(=C\c2c([O-])[n-]c(=O)[n-]c2=O)cc(C)n1Cc1ccc(S(N)(=O)=O)cc1

>  <Energy>  (24) 
86.79125901035059

>  <Genealogy>  (24) 
C=c1c(=Cc2c([O-])[n-]c(=O)[n-]c2=O)cc(C)n1Cc1ccc(S(N)(=O)=O)cc1 (protonated)
C=c1/c(=C\c2c([O-])[n-]c(=O)[n-]c2=O)cc(C)n1Cc1ccc(S(N)(=O)=O)cc1 (cis-trans isomerization)
C=c1/c(=C\c2c([O-])[n-]c(=O)[n-]c2=O)cc(C)n1Cc1ccc(S(N)(=O)=O)cc1 (3D coordinates assigned)
C=c1/c(=C\c2c([O-])[n-]c(=O)[n-]c2=O)cc(C)n1Cc1ccc(S(N)(=O)=O)cc1 (optimized conformer: 86.79125901035059 kcal/mol)

>  <smiles>  (24) 
C=c1c(=Cc2c(O)[nH]c(=O)[nH]c2=O)cc(C)n1Cc1ccc(S(N)(=O)=O)cc1

>  <score_type>  (24) 
oracle

>  <origin>  (24) 
adg

>  <m_score__min__energy>  (24) 
-15.82

>  <m_primary>  (24) 
energy

$$$$
24:0
     RDKit          3D

 36 38  0  0  0  0  0  0  0  0999 V2000
   63.7020   33.5660   51.2960 N   0  0  0  0  0  0  0  0  0  0  0  0
   64.0920   32.5570   49.9310 S   0  0  0  0  0  0  0  0  0  0  0  0
   63.8050   31.1350   50.3010 O   0  0  0  0  0  0  0  0  0  0  0  0
   65.5570   32.7290   49.6150 O   0  0  0  0  0  0  0  0  0  0  0  0
   63.1220   33.0660   48.5870 C   0  0  0  0  0  0  0  0  0  0  0  0
   63.7860   33.4170   47.4150 C   0  0  0  0  0  0  0  0  0  0  0  0
   63.0500   33.8270   46.3230 C   0  0  0  0  0  0  0  0  0  0  0  0
   61.6720   33.8870   46.3930 C   0  0  0  0  0  0  0  0  0  0  0  0
   60.9860   33.5380   47.5590 C   0  0  0  0  0  0  0  0  0  0  0  0
   59.2460   33.6400   47.5770 S   0  0  0  0  0  0  0  0  0  0  0  0
   58.6880   32.9090   48.7650 O   0  0  0  0  0  0  0  0  0  0  0  0
   58.8920   35.0880   47.7210 O   0  0  0  0  0  0  0  0  0  0  0  0
   58.6250   33.0110   46.0790 C   0  0  0  0  0  0  0  0  0  0  0  0
   58.0860   31.7440   46.0390 C   0  0  0  0  0  0  0  0  0  0  0  0
   57.5730   31.1560   44.9200 C   0  0  0  0  0  0  0  0  0  0  0  0
   57.0380   29.8860   44.9000 C   0  0  0  0  0  0  0  0  0  0  0  0
   57.0240   29.2250   45.9930 O   0  0  0  0  0  0  0  0  0  0  0  0
   56.5430   29.3610   43.7550 N   0  0  0  0  0  0  0  0  0  0  0  0
   56.5640   30.0550   42.6300 N   0  0  0  0  0  0  0  0  0  0  0  0
   57.0800   31.3160   42.5870 C   0  0  0  0  0  0  0  0  0  0  0  0
   57.0870   31.9600   41.4940 O   0  0  0  0  0  0  0  0  0  0  0  0
   57.5890   31.8810   43.7240 C   0  0  0  0  0  0  0  0  0  0  0  0
   58.1260   33.1560   43.7420 C   0  0  0  0  0  0  0  0  0  0  0  0
   58.6390   33.7230   44.9010 C   0  0  0  0  0  0  0  0  0  0  0  0
   59.1520   34.9670   44.8700 F   0  0  0  0  0  0  0  0  0  0  0  0
   61.7420   33.1340   48.6310 C   0  0  0  0  0  0  0  0  0  0  0  0
   63.1220   32.9530   51.9360 H   0  0  0  0  0  0  0  0  0  0  0  0
   64.5960   33.7000   51.8210 H   0  0  0  0  0  0  0  0  0  0  0  0
   64.8836   33.3680   47.3605 H   0  0  0  0  0  0  0  0  0  0  0  0
   63.5632   34.1077   45.3914 H   0  0  0  0  0  0  0  0  0  0  0  0
   61.1023   34.2167   45.5117 H   0  0  0  0  0  0  0  0  0  0  0  0
   58.0680   31.1660   46.9747 H   0  0  0  0  0  0  0  0  0  0  0  0
   56.1420   28.3770   43.7880 H   0  0  0  0  0  0  0  0  0  0  0  0
   56.1710   29.6170   41.7560 H   0  0  0  0  0  0  0  0  0  0  0  0
   58.1472   33.7386   42.8092 H   0  0  0  0  0  0  0  0  0  0  0  0
   61.2291   32.8530   49.5627 H   0  0  0  0  0  0  0  0  0  0  0  0
  1  2  1  0
  2  3  2  0
  2  4  2  0
  2  5  1  0
  5  6  2  0
  6  7  1  0
  7  8  2  0
  8  9  1  0
  9 10  1  0
 10 11  2  0
 10 12  2  0
 10 13  1  0
 13 14  2  0
 14 15  1  0
 15 16  1  0
 16 17  2  0
 16 18  1  0
 18 19  1  0
 19 20  1  0
 20 21  2  0
 20 22  1  0
 22 23  1  0
 23 24  2  0
 24 25  1  0
  9 26  2  0
 26  5  1  0
 24 13  1  0
 22 15  2  0
  1 27  1  0
  1 28  1  0
  6 29  1  0
  7 30  1  0
  8 31  1  0
 14 32  1  0
 18 33  1  0
 19 34  1  0
 23 35  1  0
 26 36  1  0
M  END
>  <smiles>  (25) 
NS(=O)(=O)c1cccc(S(=O)(=O)c2cc3c(=O)[nH][nH]c(=O)c3cc2F)c1

>  <score_type>  (25) 
oracle

>  <origin>  (25) 
adg

>  <m_score__min__energy>  (25) 
-9.5600000000000005

>  <m_primary>  (25) 
energy

$$$$
25:0
     RDKit          3D

 57 60  0  0  0  0  0  0  0  0999 V2000
   60.9480   26.3960   46.3340 O   0  0  0  0  0  0  0  0  0  0  0  0
   60.1210   27.1470   46.9280 C   0  0  0  0  0  0  0  0  0  0  0  0
   59.1750   27.9920   46.1280 C   0  0  0  0  0  0  0  0  0  0  0  0
   57.8000   27.3780   46.0500 C   0  0  0  0  0  0  0  0  0  0  0  0
   57.4990   26.1610   46.5450 N   0  0  0  0  0  0  0  0  0  0  0  0
   56.1800   26.0300   46.2810 C   0  0  0  0  0  0  0  0  0  0  0  0
   55.5200   25.0080   46.6070 O   0  0  0  0  0  0  0  0  0  0  0  0
   55.6250   27.0800   45.6410 N   0  0  0  0  0  0  0  0  0  0  0  0
   56.6580   27.9280   45.4770 C   0  0  0  0  0  0  0  0  0  0  0  0
   56.5170   29.2310   44.8010 C   0  0  0  0  0  0  0  0  0  0  0  0
   55.3980   29.8220   44.8460 O   0  0  0  0  0  0  0  0  0  0  0  0
   57.6080   29.8000   44.0550 N   0  0  0  0  0  0  0  0  0  0  0  0
   57.5190   31.1220   43.4340 C   0  0  0  0  0  0  0  0  0  0  0  0
   57.9180   32.1920   44.4170 C   0  0  0  0  0  0  0  0  0  0  0  0
   58.4720   33.4040   43.9730 C   0  0  0  0  0  0  0  0  0  0  0  0
   58.8650   34.3820   44.8940 C   0  0  0  0  0  0  0  0  0  0  0  0
   58.7070   34.1580   46.2650 C   0  0  0  0  0  0  0  0  0  0  0  0
   59.0890   35.1080   47.1560 F   0  0  0  0  0  0  0  0  0  0  0  0
   58.1600   32.9550   46.7160 C   0  0  0  0  0  0  0  0  0  0  0  0
   57.7680   31.9730   45.7970 C   0  0  0  0  0  0  0  0  0  0  0  0
   60.0010   27.1150   48.3580 N   0  0  0  0  0  0  0  0  0  0  0  0
   60.3830   28.1620   49.2610 C   0  0  0  0  0  0  0  0  0  0  0  0
   60.8690   27.8130   50.5280 C   0  0  0  0  0  0  0  0  0  0  0  0
   61.2390   28.8040   51.4390 C   0  0  0  0  0  0  0  0  0  0  0  0
   61.1090   30.1530   51.1010 C   0  0  0  0  0  0  0  0  0  0  0  0
   60.5880   30.5190   49.8510 C   0  0  0  0  0  0  0  0  0  0  0  0
   60.3760   32.2250   49.4420 S   0  0  0  0  0  0  0  0  0  0  0  0
   61.0240   33.0750   50.5020 O   0  0  0  0  0  0  0  0  0  0  0  0
   58.9060   32.5460   49.4220 O   0  0  0  0  0  0  0  0  0  0  0  0
   61.0790   32.6120   47.8860 N   0  0  0  0  0  0  0  0  0  0  0  0
   61.8960   33.8390   47.9820 C   0  0  0  0  0  0  0  0  0  0  0  0
   62.8970   33.9130   46.8150 C   0  0  0  0  0  0  0  0  0  0  0  0
   63.8140   32.8210   46.7670 O   0  0  0  0  0  0  0  0  0  0  0  0
   63.3460   31.6480   47.4190 C   0  0  0  0  0  0  0  0  0  0  0  0
   61.8200   31.4630   47.3160 C   0  0  0  0  0  0  0  0  0  0  0  0
   60.2290   29.5220   48.9320 C   0  0  0  0  0  0  0  0  0  0  0  0
   59.0959   28.9820   46.6008 H   0  0  0  0  0  0  0  0  0  0  0  0
   59.5711   28.0713   45.1049 H   0  0  0  0  0  0  0  0  0  0  0  0
   58.4720   29.2360   43.8850 H   0  0  0  0  0  0  0  0  0  0  0  0
   58.1914   31.1599   42.5643 H   0  0  0  0  0  0  0  0  0  0  0  0
   56.4805   31.2981   43.1169 H   0  0  0  0  0  0  0  0  0  0  0  0
   58.5977   33.5856   42.8954 H   0  0  0  0  0  0  0  0  0  0  0  0
   59.2988   35.3283   44.5386 H   0  0  0  0  0  0  0  0  0  0  0  0
   58.0367   32.7781   47.7947 H   0  0  0  0  0  0  0  0  0  0  0  0
   57.3406   31.0257   46.1574 H   0  0  0  0  0  0  0  0  0  0  0  0
   60.9595   26.7526   50.8063 H   0  0  0  0  0  0  0  0  0  0  0  0
   61.6341   28.5216   52.4260 H   0  0  0  0  0  0  0  0  0  0  0  0
   61.4158   30.9301   51.8165 H   0  0  0  0  0  0  0  0  0  0  0  0
   61.2350   34.7176   47.9481 H   0  0  0  0  0  0  0  0  0  0  0  0
   62.4548   33.8211   48.9293 H   0  0  0  0  0  0  0  0  0  0  0  0
   62.3294   33.9297   45.8729 H   0  0  0  0  0  0  0  0  0  0  0  0
   63.4946   34.8241   46.9656 H   0  0  0  0  0  0  0  0  0  0  0  0
   63.8354   30.7753   46.9619 H   0  0  0  0  0  0  0  0  0  0  0  0
   63.5914   31.7480   48.4866 H   0  0  0  0  0  0  0  0  0  0  0  0
   61.5466   31.3555   46.2560 H   0  0  0  0  0  0  0  0  0  0  0  0
   61.5482   30.5659   47.8916 H   0  0  0  0  0  0  0  0  0  0  0  0
   59.8249   29.8045   47.9487 H   0  0  0  0  0  0  0  0  0  0  0  0
  1  2  2  0
  2  3  1  0
  3  4  1  0
  4  5  1  0
  5  6  1  0
  6  7  2  0
  6  8  1  0
  8  9  1  0
  9 10  1  0
 10 11  2  0
 10 12  1  0
 12 13  1  0
 13 14  1  0
 14 15  2  0
 15 16  1  0
 16 17  2  0
 17 18  1  0
 17 19  1  0
 19 20  2  0
  2 21  1  0
 21 22  1  0
 22 23  2  0
 23 24  1  0
 24 25  2  0
 25 26  1  0
 26 27  1  0
 27 28  2  0
 27 29  2  0
 27 30  1  0
 30 31  1  0
 31 32  1  0
 32 33  1  0
 33 34  1  0
 34 35  1  0
 26 36  2  0
  9  4  2  0
 20 14  1  0
 36 22  1  0
 35 30  1  0
  3 37  1  0
  3 38  1  0
 12 39  1  0
 13 40  1  0
 13 41  1  0
 15 42  1  0
 16 43  1  0
 19 44  1  0
 20 45  1  0
 23 46  1  0
 24 47  1  0
 25 48  1  0
 31 49  1  0
 31 50  1  0
 32 51  1  0
 32 52  1  0
 34 53  1  0
 34 54  1  0
 35 55  1  0
 35 56  1  0
 36 57  1  0
M  CHG  3   5  -1   8  -1  21  -1
M  END
>  <UniqueID>  (26) 
24

>  <SMILES>  (26) 
O=C(Cc1[n-]c(=O)[n-]c1C(=O)NCc1ccc(F)cc1)[N-]c1cccc(S(=O)(=O)N2CCOCC2)c1

>  <Energy>  (26) 
103.43050725431893

>  <Genealogy>  (26) 
O=C(Cc1[n-]c(=O)[n-]c1C(=O)NCc1ccc(F)cc1)[N-]c1cccc(S(=O)(=O)N2CCOCC2)c1 (protonated)
O=C(Cc1[n-]c(=O)[n-]c1C(=O)NCc1ccc(F)cc1)[N-]c1cccc(S(=O)(=O)N2CCOCC2)c1 (3D coordinates assigned)
O=C(Cc1[n-]c(=O)[n-]c1C(=O)NCc1ccc(F)cc1)[N-]c1cccc(S(=O)(=O)N2CCOCC2)c1 (nonaromatic ring conformer: 103.43050725431893 kcal/mol)

>  <smiles>  (26) 
O=C(Cc1[nH]c(=O)[nH]c1C(=O)NCc1ccc(F)cc1)Nc1cccc(S(=O)(=O)N2CCOCC2)c1

>  <score_type>  (26) 
oracle

>  <origin>  (26) 
adg

>  <m_score__min__energy>  (26) 
-14.84

>  <m_primary>  (26) 
energy

$$$$
26:0
     RDKit          3D

 41 43  0  0  0  0  0  0  0  0999 V2000
   58.0809   25.7319   48.5510 H   0  0  0  0  0  0  0  0  0  0  0  0
   57.7080   25.4620   47.5520 C   0  0  0  0  0  0  0  0  0  0  0  0
   57.0489   24.5901   47.4280 H   0  0  0  0  0  0  0  0  0  0  0  0
   58.0570   26.1960   46.4850 C   0  0  0  0  0  0  0  0  0  0  0  0
   57.6850   26.0090   45.1460 C   0  0  0  0  0  0  0  0  0  0  0  0
   56.9900   25.0230   44.5420 C   0  0  0  0  0  0  0  0  0  0  0  0
   57.4556   24.5383   43.6712 H   0  0  0  0  0  0  0  0  0  0  0  0
   55.6580   24.5410   44.9520 C   0  0  0  0  0  0  0  0  0  0  0  0
   54.7710   25.3970   45.6190 C   0  0  0  0  0  0  0  0  0  0  0  0
   55.1500   26.6940   45.9470 O   0  0  0  0  0  0  0  0  0  0  0  0
   53.5310   24.9580   45.9580 N   0  0  0  0  0  0  0  0  0  0  0  0
   53.1250   23.6990   45.6490 C   0  0  0  0  0  0  0  0  0  0  0  0
   51.6330   23.1970   46.0770 S   0  0  0  0  0  0  0  0  0  0  0  0
   53.9590   22.8600   44.9820 N   0  0  0  0  0  0  0  0  0  0  0  0
   55.2060   23.2520   44.6190 C   0  0  0  0  0  0  0  0  0  0  0  0
   55.9460   22.4520   43.9870 O   0  0  0  0  0  0  0  0  0  0  0  0
   58.2070   27.1240   44.4950 C   0  0  0  0  0  0  0  0  0  0  0  0
   58.0990   27.4460   43.0380 C   0  0  0  0  0  0  0  0  0  0  0  0
   57.7513   28.4825   42.9163 H   0  0  0  0  0  0  0  0  0  0  0  0
   59.0846   27.3317   42.5632 H   0  0  0  0  0  0  0  0  0  0  0  0
   57.3816   26.7605   42.5632 H   0  0  0  0  0  0  0  0  0  0  0  0
   58.8670   27.9030   45.3710 N   0  0  0  0  0  0  0  0  0  0  0  0
   58.7880   27.3380   46.5630 N   0  0  0  0  0  0  0  0  0  0  0  0
   59.3410   27.9680   47.7630 C   0  0  0  0  0  0  0  0  0  0  0  0
   58.8888   27.5105   48.6553 H   0  0  0  0  0  0  0  0  0  0  0  0
   60.4309   27.8197   47.7777 H   0  0  0  0  0  0  0  0  0  0  0  0
   59.0460   29.4380   47.7560 C   0  0  0  0  0  0  0  0  0  0  0  0
   58.5900   29.9830   48.7980 O   0  0  0  0  0  0  0  0  0  0  0  0
   59.2650   30.2130   46.5700 N   0  0  0  0  0  0  0  0  0  0  0  0
   59.2700   29.7200   45.6470 H   0  0  0  0  0  0  0  0  0  0  0  0
   59.3760   31.6440   46.5730 C   0  0  0  0  0  0  0  0  0  0  0  0
   58.2950   32.4180   46.1230 C   0  0  0  0  0  0  0  0  0  0  0  0
   57.3715   31.9241   45.7865 H   0  0  0  0  0  0  0  0  0  0  0  0
   58.3850   33.8120   46.1000 C   0  0  0  0  0  0  0  0  0  0  0  0
   57.5276   34.4118   45.7608 H   0  0  0  0  0  0  0  0  0  0  0  0
   59.5620   34.4460   46.5070 C   0  0  0  0  0  0  0  0  0  0  0  0
   59.6520   35.7990   46.4730 F   0  0  0  0  0  0  0  0  0  0  0  0
   60.6530   33.6850   46.9320 C   0  0  0  0  0  0  0  0  0  0  0  0
   61.5824   34.1845   47.2432 H   0  0  0  0  0  0  0  0  0  0  0  0
   60.5670   32.2890   46.9630 C   0  0  0  0  0  0  0  0  0  0  0  0
   61.6600   31.5700   47.3260 F   0  0  0  0  0  0  0  0  0  0  0  0
  1  2  1  0
  2  3  1  0
  2  4  2  0
  4  5  1  0
  5  6  2  0
  6  7  1  0
  6  8  1  0
  8  9  2  0
  9 10  1  0
  9 11  1  0
 11 12  1  0
 12 13  2  0
 12 14  1  0
 14 15  1  0
 15 16  2  0
  5 17  1  0
 17 18  1  0
 18 19  1  0
 18 20  1  0
 18 21  1  0
 17 22  2  0
 22 23  1  0
 23 24  1  0
 24 25  1  0
 24 26  1  0
 24 27  1  0
 27 28  2  0
 27 29  1  0
 29 30  1  0
 29 31  1  0
 31 32  2  0
 32 33  1  0
 32 34  1  0
 34 35  1  0
 34 36  2  0
 36 37  1  0
 36 38  1  0
 38 39  1  0
 38 40  2  0
 40 41  1  0
 23  4  1  0
 40 31  1  0
 15  8  1  0
M  CHG  3  10  -1  11  -1  14  -1
M  END
>  <UniqueID>  (27) 
25

>  <SMILES>  (27) 
C=c1/c(=C\c2c([O-])[n-]c(=S)[n-]c2=O)c(C)nn1CC(=O)Nc1ccc(F)cc1F

>  <Energy>  (27) 
92.22533770511146

>  <Genealogy>  (27) 
C=c1c(=Cc2c([O-])[n-]c(=S)[n-]c2=O)c(C)nn1CC(=O)Nc1ccc(F)cc1F (protonated)
C=c1/c(=C\c2c([O-])[n-]c(=S)[n-]c2=O)c(C)nn1CC(=O)Nc1ccc(F)cc1F (cis-trans isomerization)
C=c1/c(=C\c2c([O-])[n-]c(=S)[n-]c2=O)c(C)nn1CC(=O)Nc1ccc(F)cc1F (3D coordinates assigned)
C=c1/c(=C\c2c([O-])[n-]c(=S)[n-]c2=O)c(C)nn1CC(=O)Nc1ccc(F)cc1F (optimized conformer: 92.22533770511146 kcal/mol)

>  <smiles>  (27) 
C=c1c(=Cc2c(O)[nH]c(=S)[nH]c2=O)c(C)nn1CC(=O)Nc1ccc(F)cc1F

>  <score_type>  (27) 
oracle

>  <origin>  (27) 
adg

>  <m_score__min__energy>  (27) 
-15.58

>  <m_primary>  (27) 
energy

$$$$
27:0
     RDKit          3D

 47 49  0  0  0  0  0  0  0  0999 V2000
   62.8930   31.3030   49.2520 C   0  0  0  0  0  0  0  0  0  0  0  0
   62.7500   32.8130   49.0230 C   0  0  0  0  0  0  0  0  0  0  0  0
   61.3070   33.2690   49.3350 C   0  0  0  0  0  0  0  0  0  0  0  0
   60.9820   34.5890   48.6220 C   0  0  0  0  0  0  0  0  0  0  0  0
   61.1070   34.4960   47.1450 N   0  0  0  0  0  0  0  0  0  0  0  0
   59.5390   34.3670   46.3870 S   0  0  0  0  0  0  0  0  0  0  0  0
   59.6350   34.7920   44.9470 O   0  0  0  0  0  0  0  0  0  0  0  0
   58.5490   35.2470   47.0970 O   0  0  0  0  0  0  0  0  0  0  0  0
   58.9800   32.7070   46.4700 C   0  0  0  0  0  0  0  0  0  0  0  0
   57.9770   32.1530   45.6870 C   0  0  0  0  0  0  0  0  0  0  0  0
   57.7150   30.8450   45.9490 N   0  0  0  0  0  0  0  0  0  0  0  0
   58.5110   30.3690   46.9350 C   0  0  0  0  0  0  0  0  0  0  0  0
   58.4700   29.1510   47.3860 N   0  0  0  0  0  0  0  0  0  0  0  0
   59.5850   28.2540   47.5030 C   0  0  0  0  0  0  0  0  0  0  0  0
   60.7600   28.6880   47.6520 O   0  0  0  0  0  0  0  0  0  0  0  0
   59.3530   26.7800   47.3910 C   0  0  0  0  0  0  0  0  0  0  0  0
   57.9850   26.5050   46.9530 N   0  0  0  0  0  0  0  0  0  0  0  0
   57.6090   25.2150   46.4490 C   0  0  0  0  0  0  0  0  0  0  0  0
   58.4730   24.2980   46.3730 O   0  0  0  0  0  0  0  0  0  0  0  0
   56.2180   24.9500   46.0200 C   0  0  0  0  0  0  0  0  0  0  0  0
   55.8110   23.6690   45.6170 C   0  0  0  0  0  0  0  0  0  0  0  0
   54.4910   23.4640   45.2220 C   0  0  0  0  0  0  0  0  0  0  0  0
   53.6030   24.5400   45.2340 C   0  0  0  0  0  0  0  0  0  0  0  0
   52.4060   24.3820   44.8800 O   0  0  0  0  0  0  0  0  0  0  0  0
   54.0410   25.7620   45.6300 N   0  0  0  0  0  0  0  0  0  0  0  0
   55.3040   25.9600   46.0090 N   0  0  0  0  0  0  0  0  0  0  0  0
   59.5670   31.5370   47.5260 S   0  0  0  0  0  0  0  0  0  0  0  0
   61.9830   33.4020   46.6690 C   0  0  0  0  0  0  0  0  0  0  0  0
   63.1910   33.2110   47.5930 C   0  0  0  0  0  0  0  0  0  0  0  0
   62.9126   31.0962   50.3322 H   0  0  0  0  0  0  0  0  0  0  0  0
   62.0403   30.7803   48.7940 H   0  0  0  0  0  0  0  0  0  0  0  0
   63.8286   30.9497   48.7940 H   0  0  0  0  0  0  0  0  0  0  0  0
   63.4239   33.3370   49.7168 H   0  0  0  0  0  0  0  0  0  0  0  0
   60.6035   32.4942   48.9961 H   0  0  0  0  0  0  0  0  0  0  0  0
   61.2150   33.4244   50.4201 H   0  0  0  0  0  0  0  0  0  0  0  0
   59.9493   34.8760   48.8691 H   0  0  0  0  0  0  0  0  0  0  0  0
   61.7098   35.3379   48.9676 H   0  0  0  0  0  0  0  0  0  0  0  0
   57.4382   32.7253   44.9175 H   0  0  0  0  0  0  0  0  0  0  0  0
   60.0582   26.3578   46.6600 H   0  0  0  0  0  0  0  0  0  0  0  0
   59.5077   26.3211   48.3787 H   0  0  0  0  0  0  0  0  0  0  0  0
   57.2650   27.2620   47.0110 H   0  0  0  0  0  0  0  0  0  0  0  0
   56.5276   22.8345   45.6130 H   0  0  0  0  0  0  0  0  0  0  0  0
   54.1531   22.4665   44.9047 H   0  0  0  0  0  0  0  0  0  0  0  0
   61.4040   32.4672   46.6389 H   0  0  0  0  0  0  0  0  0  0  0  0
   62.3519   33.6649   45.6666 H   0  0  0  0  0  0  0  0  0  0  0  0
   63.8337   32.4181   47.1828 H   0  0  0  0  0  0  0  0  0  0  0  0
   63.7369   34.1642   47.6513 H   0  0  0  0  0  0  0  0  0  0  0  0
  1  2  1  0
  2  3  1  0
  3  4  1  0
  4  5  1  0
  5  6  1  0
  6  7  2  0
  6  8  2  0
  6  9  1  0
  9 10  2  0
 10 11  1  0
 11 12  1  0
 12 13  2  3
 13 14  1  0
 14 15  2  0
 14 16  1  0
 16 17  1  0
 17 18  1  0
 18 19  2  0
 18 20  1  0
 20 21  1  0
 21 22  2  0
 22 23  1  0
 23 24  2  0
 23 25  1  0
 25 26  1  0
 12 27  1  0
  5 28  1  0
 28 29  1  0
 29  2  1  0
 27  9  1  0
 26 20  2  0
  1 30  1  0
  1 31  1  0
  1 32  1  0
  2 33  1  0
  3 34  1  0
  3 35  1  0
  4 36  1  0
  4 37  1  0
 10 38  1  0
 16 39  1  0
 16 40  1  0
 17 41  1  0
 21 42  1  0
 22 43  1  0
 28 44  1  0
 28 45  1  0
 29 46  1  0
 29 47  1  0
M  CHG  2  11  -1  25  -1
M  END
>  <UniqueID>  (28) 
26

>  <SMILES>  (28) 
CC1CCN(S(=O)(=O)c2c[n-]c(=NC(=O)CNC(=O)c3ccc(=O)[n-]n3)s2)CC1

>  <Energy>  (28) 
83.20575588883678

>  <Genealogy>  (28) 
CC1CCN(S(=O)(=O)c2c[n-]c(=NC(=O)CNC(=O)c3ccc(=O)[n-]n3)s2)CC1 (protonated)
CC1CCN(S(=O)(=O)c2c[n-]c(=NC(=O)CNC(=O)c3ccc(=O)[n-]n3)s2)CC1 (3D coordinates assigned)
CC1CCN(S(=O)(=O)c2c[n-]c(=NC(=O)CNC(=O)c3ccc(=O)[n-]n3)s2)CC1 (nonaromatic ring conformer: 83.20575588883678 kcal/mol)

>  <smiles>  (28) 
CC1CCN(S(=O)(=O)c2c[nH]c(=NC(=O)CNC(=O)c3ccc(=O)[nH]n3)s2)CC1

>  <score_type>  (28) 
oracle

>  <origin>  (28) 
adg

>  <m_score__min__energy>  (28) 
-12.5

>  <m_primary>  (28) 
energy

$$$$
28:0
     RDKit          3D

 45 46  0  0  1  0  0  0  0  0999 V2000
   58.4760   33.3460   44.1360 C   0  0  0  0  0  0  0  0  0  0  0  0
   58.5120   33.9300   45.5000 C   0  0  0  0  0  0  0  0  0  0  0  0
   57.3240   33.7010   46.3900 C   0  0  0  0  0  0  0  0  0  0  0  0
   59.5460   34.6360   45.9460 C   0  0  0  0  0  0  0  0  0  0  0  0
   60.3230   34.3240   47.1520 C   0  0  0  0  0  0  0  0  0  0  0  0
   61.3300   32.8410   47.0020 S   0  0  0  0  0  0  0  0  0  0  0  0
   60.6540   31.4660   47.9000 C   0  0  0  0  0  0  0  0  0  0  0  0
   61.2810   30.4810   48.5720 N   0  0  0  0  0  0  0  0  0  0  0  0
   60.3200   29.6880   49.0750 C   0  0  0  0  0  0  0  0  0  0  0  0
   60.5380   28.6490   49.7730 N   0  0  0  0  0  0  0  0  0  0  0  0
   60.7450   27.3490   49.2860 C   0  0  0  0  0  0  0  0  0  0  0  0
   60.8310   26.4010   50.1160 O   0  0  0  0  0  0  0  0  0  0  0  0
   60.8700   26.9970   47.8470 C   0  0  0  0  0  0  0  0  0  0  0  0
   59.4790   26.9880   47.2910 C   0  0  0  0  0  0  0  0  0  0  0  0
   58.6120   25.9340   47.4900 C   0  0  0  0  0  0  0  0  0  0  0  0
   57.3500   26.0420   46.9260 C   0  0  0  0  0  0  0  0  0  0  0  0
   56.9650   27.1460   46.1970 C   0  0  0  0  0  0  0  0  0  0  0  0
   55.6970   27.2630   45.6260 O   0  0  0  0  0  0  0  0  0  0  0  0
   57.8400   28.2060   45.9970 C   0  0  0  0  0  0  0  0  0  0  0  0
   57.3720   29.6170   45.0740 S   0  0  0  0  0  0  0  0  0  0  0  0
   55.6490   29.4810   44.8370 N   0  0  0  0  0  0  0  0  0  0  0  0
   57.6960   30.8280   45.9040 O   0  0  0  0  0  0  0  0  0  0  0  0
   58.1180   29.6400   43.7880 O   0  0  0  0  0  0  0  0  0  0  0  0
   59.0880   28.0800   46.5660 C   0  0  0  0  0  0  0  0  0  0  0  0
   59.1270   30.1590   48.7300 N   0  0  0  0  0  0  0  0  0  0  0  0
   59.3250   31.2430   48.0140 N   0  0  0  0  0  0  0  0  0  0  0  0
   58.4085   32.2504   44.2079 H   0  0  0  0  0  0  0  0  0  0  0  0
   57.6000   33.7326   43.5946 H   0  0  0  0  0  0  0  0  0  0  0  0
   59.3929   33.6221   43.5946 H   0  0  0  0  0  0  0  0  0  0  0  0
   57.6374   33.7614   47.4427 H   0  0  0  0  0  0  0  0  0  0  0  0
   56.5623   34.4688   46.1896 H   0  0  0  0  0  0  0  0  0  0  0  0
   56.9023   32.7050   46.1896 H   0  0  0  0  0  0  0  0  0  0  0  0
   59.8426   35.5228   45.3666 H   0  0  0  0  0  0  0  0  0  0  0  0
   60.9872   35.1742   47.3664 H   0  0  0  0  0  0  0  0  0  0  0  0
   59.6003   34.1406   47.9607 H   0  0  0  0  0  0  0  0  0  0  0  0
   61.4837   27.7454   47.3243 H   0  0  0  0  0  0  0  0  0  0  0  0
   61.3577   26.0197   47.7166 H   0  0  0  0  0  0  0  0  0  0  0  0
   58.9084   25.0476   48.0701 H   0  0  0  0  0  0  0  0  0  0  0  0
   56.6328   25.2196   47.0651 H   0  0  0  0  0  0  0  0  0  0  0  0
   55.1390   28.0420   45.9490 H   0  0  0  0  0  0  0  0  0  0  0  0
   55.4720   28.6110   44.2540 H   0  0  0  0  0  0  0  0  0  0  0  0
   55.2170   29.3960   45.7810 H   0  0  0  0  0  0  0  0  0  0  0  0
   59.8079   28.9005   46.4303 H   0  0  0  0  0  0  0  0  0  0  0  0
   58.2090   29.7290   48.9930 H   0  0  0  0  0  0  0  0  0  0  0  0
   58.5530   31.8360   47.5990 H   0  0  0  0  0  0  0  0  0  0  0  0
  1  2  1  0
  2  3  1  0
  2  4  2  3
  4  5  1  0
  5  6  1  0
  6  7  1  0
  7  8  2  0
  8  9  1  0
  9 10  2  0
 10 11  1  0
 11 12  2  0
 11 13  1  0
 13 14  1  0
 14 15  2  0
 15 16  1  0
 16 17  2  0
 17 18  1  0
 17 19  1  0
 19 20  1  0
 20 21  1  0
 20 22  2  0
 20 23  2  0
 19 24  2  0
  9 25  1  0
 25 26  1  0
 26  7  1  0
 24 14  1  0
  1 27  1  0
  1 28  1  0
  1 29  1  0
  3 30  1  0
  3 31  1  0
  3 32  1  0
  4 33  1  0
  5 34  1  0
  5 35  1  0
 13 36  1  0
 13 37  1  0
 15 38  1  0
 16 39  1  0
 18 40  1  0
 21 41  1  0
 21 42  1  0
 24 43  1  0
 25 44  1  0
 26 45  1  0
M  END
>  <smiles>  (29) 
CC(C)=CCSc1nc(=NC(=O)Cc2ccc(O)c(S(N)(=O)=O)c2)[nH][nH]1

>  <score_type>  (29) 
oracle

>  <origin>  (29) 
adg

>  <m_score__min__energy>  (29) 
-8.8699999999999992

>  <m_primary>  (29) 
energy

$$$$
29:0
     RDKit          3D

 40 42  0  0  1  0  0  0  0  0999 V2000
   58.7080   34.8260   51.9850 N   0  0  0  0  0  0  0  0  0  0  0  0
   58.2850   33.1710   52.1850 S   0  0  0  0  0  0  0  0  0  0  0  0
   56.8060   33.0460   52.5050 O   0  0  0  0  0  0  0  0  0  0  0  0
   59.0910   32.6480   53.3630 O   0  0  0  0  0  0  0  0  0  0  0  0
   58.6960   32.1910   50.8020 C   0  0  0  0  0  0  0  0  0  0  0  0
   59.2000   32.7610   49.6510 C   0  0  0  0  0  0  0  0  0  0  0  0
   59.5320   31.9860   48.5370 C   0  0  0  0  0  0  0  0  0  0  0  0
   59.3620   30.6390   48.5740 C   0  0  0  0  0  0  0  0  0  0  0  0
   59.6640   29.7510   47.5050 N   0  0  0  0  0  0  0  0  0  0  0  0
   58.7780   29.2640   46.7330 C   0  0  0  0  0  0  0  0  0  0  0  0
   58.4600   27.9040   46.7580 C   0  0  0  0  0  0  0  0  0  0  0  0
   57.5040   27.3530   45.9330 C   0  0  0  0  0  0  0  0  0  0  0  0
   57.1340   25.9530   45.9160 C   0  0  0  0  0  0  0  0  0  0  0  0
   58.1260   24.9780   45.9230 C   0  0  0  0  0  0  0  0  0  0  0  0
   57.8180   23.6190   45.9070 C   0  0  0  0  0  0  0  0  0  0  0  0
   58.8220   22.6650   45.9160 O   0  0  0  0  0  0  0  0  0  0  0  0
   56.5190   23.1680   45.8830 C   0  0  0  0  0  0  0  0  0  0  0  0
   55.5310   24.1200   45.8750 C   0  0  0  0  0  0  0  0  0  0  0  0
   55.8390   25.4850   45.8910 C   0  0  0  0  0  0  0  0  0  0  0  0
   54.7450   26.3260   45.8810 O   0  0  0  0  0  0  0  0  0  0  0  0
   56.8940   28.2270   45.0960 N   0  0  0  0  0  0  0  0  0  0  0  0
   57.2170   29.5520   45.0840 C   0  0  0  0  0  0  0  0  0  0  0  0
   56.4540   30.5690   44.0550 S   0  0  0  0  0  0  0  0  0  0  0  0
   58.1450   30.0850   45.8870 N   0  0  0  0  0  0  0  0  0  0  0  0
   58.8530   30.0500   49.7350 C   0  0  0  0  0  0  0  0  0  0  0  0
   58.5200   30.8080   50.8450 C   0  0  0  0  0  0  0  0  0  0  0  0
   57.9440   35.4180   52.3720 H   0  0  0  0  0  0  0  0  0  0  0  0
   58.9090   35.1020   51.0070 H   0  0  0  0  0  0  0  0  0  0  0  0
   59.3437   33.8508   49.6095 H   0  0  0  0  0  0  0  0  0  0  0  0
   59.9306   32.4661   47.6311 H   0  0  0  0  0  0  0  0  0  0  0  0
   58.9927   27.2485   47.4627 H   0  0  0  0  0  0  0  0  0  0  0  0
   59.1813   25.2878   45.9417 H   0  0  0  0  0  0  0  0  0  0  0  0
   58.6970   21.8830   45.2840 H   0  0  0  0  0  0  0  0  0  0  0  0
   56.2830   22.0937   45.8708 H   0  0  0  0  0  0  0  0  0  0  0  0
   54.4774   23.8045   45.8557 H   0  0  0  0  0  0  0  0  0  0  0  0
   54.3700   26.7160   46.7500 H   0  0  0  0  0  0  0  0  0  0  0  0
   56.1550   27.9650   44.4170 H   0  0  0  0  0  0  0  0  0  0  0  0
   58.3630   31.0930   45.8490 H   0  0  0  0  0  0  0  0  0  0  0  0
   58.7138   28.9593   49.7676 H   0  0  0  0  0  0  0  0  0  0  0  0
   58.1216   30.3254   51.7496 H   0  0  0  0  0  0  0  0  0  0  0  0
  1  2  1  0
  2  3  2  0
  2  4  2  0
  2  5  1  0
  5  6  2  0
  6  7  1  0
  7  8  2  0
  8  9  1  0
  9 10  2  0
 10 11  1  0
 11 12  2  0
 12 13  1  0
 13 14  2  0
 14 15  1  0
 15 16  1  0
 15 17  2  0
 17 18  1  0
 18 19  2  0
 19 20  1  0
 12 21  1  0
 21 22  1  0
 22 23  2  0
 22 24  1  0
  8 25  1  0
 25 26  2  0
 26  5  1  0
 24 10  1  0
 19 13  1  0
  1 27  1  0
  1 28  1  0
  6 29  1  0
  7 30  1  0
 11 31  1  0
 14 32  1  0
 16 33  1  0
 17 34  1  0
 18 35  1  0
 20 36  1  0
 21 37  1  0
 24 38  1  0
 25 39  1  0
 26 40  1  0
M  END
>  <smiles>  (30) 
NS(=O)(=O)c1ccc(N=c2cc(-c3cc(O)ccc3O)[nH]c(=S)[nH]2)cc1

>  <score_type>  (30) 
oracle

>  <origin>  (30) 
adg

>  <m_score__min__energy>  (30) 
-8.9900000000000002

>  <m_primary>  (30) 
energy

$$$$
30:0
     RDKit          3D

 64 68  0  0  0  0  0  0  0  0999 V2000
   56.1000   27.0100   55.7320 O   0  0  0  0  0  0  0  0  0  0  0  0
   55.9990   27.8210   54.7710 C   0  0  0  0  0  0  0  0  0  0  0  0
   54.6770   28.0360   54.1370 C   0  0  0  0  0  0  0  0  0  0  0  0
   53.8850   26.9440   53.7430 C   0  0  0  0  0  0  0  0  0  0  0  0
   52.6390   27.1510   53.1480 C   0  0  0  0  0  0  0  0  0  0  0  0
   52.1600   28.4480   52.9550 C   0  0  0  0  0  0  0  0  0  0  0  0
   52.9220   29.5520   53.3670 C   0  0  0  0  0  0  0  0  0  0  0  0
   52.4220   30.9500   53.1330 C   0  0  0  0  0  0  0  0  0  0  0  0
   51.9400   31.0960   51.7220 C   0  0  0  0  0  0  0  0  0  0  0  0
   52.2400   30.0010   50.4770 S   0  0  0  0  0  0  0  0  0  0  0  0
   51.2910   30.8580   49.3850 C   0  0  0  0  0  0  0  0  0  0  0  0
   51.1070   30.5210   48.1880 O   0  0  0  0  0  0  0  0  0  0  0  0
   50.7300   31.9570   49.9340 N   0  0  0  0  0  0  0  0  0  0  0  0
   51.0870   32.0850   51.2390 C   0  0  0  0  0  0  0  0  0  0  0  0
   50.6190   33.1330   52.0240 O   0  0  0  0  0  0  0  0  0  0  0  0
   54.1820   29.3400   53.9520 C   0  0  0  0  0  0  0  0  0  0  0  0
   57.1760   28.5030   54.3020 N   0  0  0  0  0  0  0  0  0  0  0  0
   58.4340   27.7510   54.1950 C   0  0  0  0  0  0  0  0  0  0  0  0
   59.5660   28.6150   53.6230 C   0  0  0  0  0  0  0  0  0  0  0  0
   59.0410   29.4580   52.4470 C   0  0  0  0  0  0  0  0  0  0  0  0
   60.1420   30.2120   51.7350 C   0  0  0  0  0  0  0  0  0  0  0  0
   61.3160   30.1370   52.1900 O   0  0  0  0  0  0  0  0  0  0  0  0
   59.8850   31.0260   50.5760 N   0  0  0  0  0  0  0  0  0  0  0  0
   60.5800   32.3120   50.4580 C   0  0  0  0  0  0  0  0  0  0  0  0
   59.7080   33.3110   49.6990 C   0  0  0  0  0  0  0  0  0  0  0  0
   59.2160   32.7010   48.4590 N   0  0  0  0  0  0  0  0  0  0  0  0
   59.1570   33.4740   47.2460 C   0  0  0  0  0  0  0  0  0  0  0  0
   59.7710   34.7370   47.1840 C   0  0  0  0  0  0  0  0  0  0  0  0
   59.7170   35.4930   46.0080 C   0  0  0  0  0  0  0  0  0  0  0  0
   59.0480   34.9960   44.8870 C   0  0  0  0  0  0  0  0  0  0  0  0
   58.4360   33.7400   44.9380 C   0  0  0  0  0  0  0  0  0  0  0  0
   58.4910   32.9790   46.1100 C   0  0  0  0  0  0  0  0  0  0  0  0
   58.5170   31.4150   48.5630 C   0  0  0  0  0  0  0  0  0  0  0  0
   59.3740   30.4140   49.3430 C   0  0  0  0  0  0  0  0  0  0  0  0
   57.8820   30.4000   52.8600 C   0  0  0  0  0  0  0  0  0  0  0  0
   57.1810   29.9680   54.1610 C   0  0  0  0  0  0  0  0  0  0  0  0
   54.2494   25.9188   53.9045 H   0  0  0  0  0  0  0  0  0  0  0  0
   52.0330   26.2896   52.8304 H   0  0  0  0  0  0  0  0  0  0  0  0
   51.1813   28.6052   52.4781 H   0  0  0  0  0  0  0  0  0  0  0  0
   51.5925   31.1600   53.8242 H   0  0  0  0  0  0  0  0  0  0  0  0
   53.2440   31.6598   53.3075 H   0  0  0  0  0  0  0  0  0  0  0  0
   54.7874   30.2022   54.2685 H   0  0  0  0  0  0  0  0  0  0  0  0
   58.7251   27.3993   55.1958 H   0  0  0  0  0  0  0  0  0  0  0  0
   58.2701   26.9049   53.5115 H   0  0  0  0  0  0  0  0  0  0  0  0
   59.9470   29.2835   54.4091 H   0  0  0  0  0  0  0  0  0  0  0  0
   60.3749   27.9607   53.2659 H   0  0  0  0  0  0  0  0  0  0  0  0
   58.6273   28.7380   51.7256 H   0  0  0  0  0  0  0  0  0  0  0  0
   60.7925   32.7046   51.4634 H   0  0  0  0  0  0  0  0  0  0  0  0
   61.5211   32.1641   49.9080 H   0  0  0  0  0  0  0  0  0  0  0  0
   58.8530   33.6005   50.3276 H   0  0  0  0  0  0  0  0  0  0  0  0
   60.3060   34.2009   49.4531 H   0  0  0  0  0  0  0  0  0  0  0  0
   60.2969   35.1332   48.0651 H   0  0  0  0  0  0  0  0  0  0  0  0
   60.2017   36.4795   45.9661 H   0  0  0  0  0  0  0  0  0  0  0  0
   59.0027   35.5928   43.9641 H   0  0  0  0  0  0  0  0  0  0  0  0
   57.9101   33.3495   44.0543 H   0  0  0  0  0  0  0  0  0  0  0  0
   58.0116   31.9895   46.1437 H   0  0  0  0  0  0  0  0  0  0  0  0
   57.5608   31.5615   49.0867 H   0  0  0  0  0  0  0  0  0  0  0  0
   58.3327   31.0217   47.5524 H   0  0  0  0  0  0  0  0  0  0  0  0
   58.7620   29.5371   49.6008 H   0  0  0  0  0  0  0  0  0  0  0  0
   60.2259   30.1109   48.7166 H   0  0  0  0  0  0  0  0  0  0  0  0
   58.2884   31.4123   53.0018 H   0  0  0  0  0  0  0  0  0  0  0  0
   57.1307   30.3639   52.0573 H   0  0  0  0  0  0  0  0  0  0  0  0
   57.7114   30.4091   55.0178 H   0  0  0  0  0  0  0  0  0  0  0  0
   56.1388   30.3182   54.1278 H   0  0  0  0  0  0  0  0  0  0  0  0
  1  2  2  0
  2  3  1  0
  3  4  2  0
  4  5  1  0
  5  6  2  0
  6  7  1  0
  7  8  1  0
  8  9  1  0
  9 10  1  0
 10 11  1  0
 11 12  2  0
 11 13  1  0
 13 14  1  0
 14 15  1  0
  7 16  2  0
  2 17  1  0
 17 18  1  0
 18 19  1  0
 19 20  1  0
 20 21  1  0
 21 22  2  0
 21 23  1  0
 23 24  1  0
 24 25  1  0
 25 26  1  0
 26 27  1  0
 27 28  2  0
 28 29  1  0
 29 30  2  0
 30 31  1  0
 31 32  2  0
 26 33  1  0
 33 34  1  0
 20 35  1  0
 35 36  1  0
 16  3  1  0
 36 17  1  0
 14  9  2  0
 34 23  1  0
 32 27  1  0
  4 37  1  0
  5 38  1  0
  6 39  1  0
  8 40  1  0
  8 41  1  0
 16 42  1  0
 18 43  1  0
 18 44  1  0
 19 45  1  0
 19 46  1  0
 20 47  1  0
 24 48  1  0
 24 49  1  0
 25 50  1  0
 25 51  1  0
 28 52  1  0
 29 53  1  0
 30 54  1  0
 31 55  1  0
 32 56  1  0
 33 57  1  0
 33 58  1  0
 34 59  1  0
 34 60  1  0
 35 61  1  0
 35 62  1  0
 36 63  1  0
 36 64  1  0
M  CHG  2  13  -1  15  -1
M  END
>  <UniqueID>  (31) 
27

>  <SMILES>  (31) 
O=C(c1cccc(Cc2sc(=O)[n-]c2[O-])c1)N1CCC(C(=O)N2CCN(c3ccccc3)CC2)CC1

>  <Energy>  (31) 
110.33555128614397

>  <Genealogy>  (31) 
O=C(c1cccc(Cc2sc(=O)[n-]c2[O-])c1)N1CCC(C(=O)N2CCN(c3ccccc3)CC2)CC1 (protonated)
O=C(c1cccc(Cc2sc(=O)[n-]c2[O-])c1)N1CCC(C(=O)N2CCN(c3ccccc3)CC2)CC1 (3D coordinates assigned)
O=C(c1cccc(Cc2sc(=O)[n-]c2[O-])c1)N1CCC(C(=O)N2CCN(c3ccccc3)CC2)CC1 (nonaromatic ring conformer: 110.33555128614397 kcal/mol)

>  <smiles>  (31) 
O=C(c1cccc(Cc2sc(=O)[nH]c2O)c1)N1CCC(C(=O)N2CCN(c3ccccc3)CC2)CC1

>  <score_type>  (31) 
oracle

>  <origin>  (31) 
adg

>  <m_score__min__energy>  (31) 
-17.510000000000002

>  <m_primary>  (31) 
energy

$$$$
31:0
     RDKit          3D

 54 57  0  0  0  0  0  0  0  0999 V2000
   57.6930   32.2810   41.4500 C   0  0  0  0  0  0  0  0  0  0  0  0
   57.3980   31.4710   42.4680 C   0  0  0  0  0  0  0  0  0  0  0  0
   57.1700   31.9650   43.8370 C   0  0  0  0  0  0  0  0  0  0  0  0
   56.5920   31.2410   44.6950 O   0  0  0  0  0  0  0  0  0  0  0  0
   57.6510   33.2720   44.1850 N   0  0  0  0  0  0  0  0  0  0  0  0
   58.5260   33.6160   45.2680 C   0  0  0  0  0  0  0  0  0  0  0  0
   59.1730   34.8590   45.2300 C   0  0  0  0  0  0  0  0  0  0  0  0
   59.9650   35.2800   46.3010 C   0  0  0  0  0  0  0  0  0  0  0  0
   60.1010   34.4730   47.4310 C   0  0  0  0  0  0  0  0  0  0  0  0
   59.4480   33.2340   47.4930 C   0  0  0  0  0  0  0  0  0  0  0  0
   59.5000   32.4430   48.7350 C   0  0  0  0  0  0  0  0  0  0  0  0
   59.5890   33.0450   49.8350 O   0  0  0  0  0  0  0  0  0  0  0  0
   59.3930   31.0070   48.7240 N   0  0  0  0  0  0  0  0  0  0  0  0
   59.2720   30.2650   47.6570 C   0  0  0  0  0  0  0  0  0  0  0  0
   60.3030   30.0480   46.8120 N   0  0  0  0  0  0  0  0  0  0  0  0
   59.7680   29.2690   45.8520 C   0  0  0  0  0  0  0  0  0  0  0  0
   60.5320   28.7870   44.6590 C   0  0  0  0  0  0  0  0  0  0  0  0
   61.9030   28.9640   44.8750 O   0  0  0  0  0  0  0  0  0  0  0  0
   58.4350   29.0410   46.1450 C   0  0  0  0  0  0  0  0  0  0  0  0
   57.2260   28.2480   45.1430 S   0  0  0  0  0  0  0  0  0  0  0  0
   57.6940   28.2830   43.7150 O   0  0  0  0  0  0  0  0  0  0  0  0
   55.9000   28.9450   45.2410 O   0  0  0  0  0  0  0  0  0  0  0  0
   57.0620   26.6070   45.6770 N   0  0  0  0  0  0  0  0  0  0  0  0
   58.1040   25.5960   45.5920 C   0  0  0  0  0  0  0  0  0  0  0  0
   57.4310   24.2760   46.0730 C   0  0  2  0  0  0  0  0  0  0  0  0
   57.4690   23.2020   45.0090 C   0  0  0  0  0  0  0  0  0  0  0  0
   56.3630   22.9840   44.1630 C   0  0  0  0  0  0  0  0  0  0  0  0
   56.4260   22.0140   43.1580 C   0  0  0  0  0  0  0  0  0  0  0  0
   57.5850   21.2540   42.9870 C   0  0  0  0  0  0  0  0  0  0  0  0
   58.6870   21.4640   43.8220 C   0  0  0  0  0  0  0  0  0  0  0  0
   58.6320   22.4330   44.8280 C   0  0  0  0  0  0  0  0  0  0  0  0
   56.0470   24.6130   46.4100 N   0  0  0  0  0  0  0  0  0  0  0  0
   55.8880   25.9930   46.1610 C   0  0  0  0  0  0  0  0  0  0  0  0
   54.8070   26.6100   46.3620 O   0  0  0  0  0  0  0  0  0  0  0  0
   58.1160   29.6790   47.2810 N   0  0  0  0  0  0  0  0  0  0  0  0
   58.6640   32.8010   46.4110 C   0  0  0  0  0  0  0  0  0  0  0  0
   57.8547   31.8646   40.4448 H   0  0  0  0  0  0  0  0  0  0  0  0
   57.7746   33.3654   41.6157 H   0  0  0  0  0  0  0  0  0  0  0  0
   57.3219   30.3903   42.2775 H   0  0  0  0  0  0  0  0  0  0  0  0
   59.0561   35.5082   44.3497 H   0  0  0  0  0  0  0  0  0  0  0  0
   60.4824   36.2496   46.2533 H   0  0  0  0  0  0  0  0  0  0  0  0
   60.7216   34.8095   48.2746 H   0  0  0  0  0  0  0  0  0  0  0  0
   60.3220   27.7194   44.4970 H   0  0  0  0  0  0  0  0  0  0  0  0
   60.2252   29.3620   43.7728 H   0  0  0  0  0  0  0  0  0  0  0  0
   61.9850   29.6010   45.6310 H   0  0  0  0  0  0  0  0  0  0  0  0
   58.4583   25.4932   44.5557 H   0  0  0  0  0  0  0  0  0  0  0  0
   58.9813   25.8568   46.2022 H   0  0  0  0  0  0  0  0  0  0  0  0
   57.9722   23.8688   46.9398 H   0  0  0  0  0  0  0  0  0  0  0  0
   55.4471   23.5790   44.2938 H   0  0  0  0  0  0  0  0  0  0  0  0
   55.5600   21.8490   42.5001 H   0  0  0  0  0  0  0  0  0  0  0  0
   57.6311   20.4908   42.1962 H   0  0  0  0  0  0  0  0  0  0  0  0
   59.5996   20.8650   43.6868 H   0  0  0  0  0  0  0  0  0  0  0  0
   59.5024   22.5946   45.4809 H   0  0  0  0  0  0  0  0  0  0  0  0
   58.1573   31.8257   46.4550 H   0  0  0  0  0  0  0  0  0  0  0  0
  1  2  2  0
  2  3  1  0
  3  4  2  0
  3  5  1  0
  5  6  1  0
  6  7  2  0
  7  8  1  0
  8  9  2  0
  9 10  1  0
 10 11  1  0
 11 12  2  0
 11 13  1  0
 13 14  2  3
 14 15  1  0
 15 16  1  0
 16 17  1  0
 17 18  1  0
 16 19  2  0
 19 20  1  0
 20 21  2  0
 20 22  2  0
 20 23  1  0
 23 24  1  0
 24 25  1  0
 25 26  1  0
 26 27  2  0
 27 28  1  0
 28 29  2  0
 29 30  1  0
 30 31  2  0
 25 32  1  0
 32 33  1  0
 33 34  2  0
 19 35  1  0
 10 36  2  0
 36  6  1  0
 35 14  1  0
 33 23  1  0
 31 26  1  0
  1 37  1  0
  1 38  1  0
  2 39  1  0
  7 40  1  0
  8 41  1  0
  9 42  1  0
 17 43  1  0
 17 44  1  0
 18 45  1  0
 24 46  1  0
 24 47  1  0
 25 48  1  1
 27 49  1  0
 28 50  1  0
 29 51  1  0
 30 52  1  0
 31 53  1  0
 36 54  1  0
M  CHG  4   5  -1  15  -1  32  -1  35  -1
M  END
>  <UniqueID>  (32) 
28

>  <SMILES>  (32) 
C=CC(=O)[N-]c1cccc(C(=O)N=c2[n-]c(CO)c(S(=O)(=O)N3C[C@H](c4ccccc4)[N-]C3=O)[n-]2)c1

>  <Energy>  (32) 
108.69893020206007

>  <Genealogy>  (32) 
C=CC(=O)[N-]c1cccc(C(=O)N=c2[n-]c(CO)c(S(=O)(=O)N3CC(c4ccccc4)[N-]C3=O)[n-]2)c1 (protonated)
C=CC(=O)[N-]c1cccc(C(=O)N=c2[n-]c(CO)c(S(=O)(=O)N3C[C@H](c4ccccc4)[N-]C3=O)[n-]2)c1 (chirality)
C=CC(=O)[N-]c1cccc(C(=O)N=c2[n-]c(CO)c(S(=O)(=O)N3C[C@H](c4ccccc4)[N-]C3=O)[n-]2)c1 (3D coordinates assigned)
C=CC(=O)[N-]c1cccc(C(=O)N=c2[n-]c(CO)c(S(=O)(=O)N3C[C@H](c4ccccc4)[N-]C3=O)[n-]2)c1 (nonaromatic ring conformer: 108.69893020206007 kcal/mol)

>  <smiles>  (32) 
C=CC(=O)Nc1cccc(C(=O)N=c2[nH]c(CO)c(S(=O)(=O)N3CC(c4ccccc4)NC3=O)[nH]2)c1

>  <score_type>  (32) 
oracle

>  <origin>  (32) 
adg

>  <m_score__min__energy>  (32) 
-15.81

>  <m_primary>  (32) 
energy

$$$$
32:0
     RDKit          3D

 54 57  0  0  0  0  0  0  0  0999 V2000
   56.9730   21.2100   42.9880 C   0  0  0  0  0  0  0  0  0  0  0  0
   57.3200   22.3420   43.9090 C   0  0  0  0  0  0  0  0  0  0  0  0
   58.4390   22.2600   44.7520 C   0  0  0  0  0  0  0  0  0  0  0  0
   58.7710   23.3310   45.5890 C   0  0  0  0  0  0  0  0  0  0  0  0
   57.9870   24.4990   45.5900 C   0  0  0  0  0  0  0  0  0  0  0  0
   58.2990   25.5960   46.4090 O   0  0  0  0  0  0  0  0  0  0  0  0
   58.4650   26.9130   45.9600 C   0  0  0  0  0  0  0  0  0  0  0  0
   59.7380   27.5080   45.8750 C   0  0  0  0  0  0  0  0  0  0  0  0
   59.8740   28.8260   45.4320 C   0  0  0  0  0  0  0  0  0  0  0  0
   58.7390   29.5690   45.0810 C   0  0  0  0  0  0  0  0  0  0  0  0
   58.8730   30.8490   44.6490 N   0  0  0  0  0  0  0  0  0  0  0  0
   57.7870   31.5920   44.2980 C   0  0  0  0  0  0  0  0  0  0  0  0
   57.9650   33.0190   43.8730 C   0  0  0  0  0  0  0  0  0  0  0  0
   58.6400   33.8490   44.9720 C   0  0  0  0  0  0  0  0  0  0  0  0
   57.8780   33.7700   46.2590 C   0  0  0  0  0  0  0  0  0  0  0  0
   56.6400   33.5310   46.2440 O   0  0  0  0  0  0  0  0  0  0  0  0
   58.5580   34.0060   47.4940 N   0  0  0  0  0  0  0  0  0  0  0  0
   58.9990   32.9420   48.3890 C   0  0  0  0  0  0  0  0  0  0  0  0
   59.7570   31.8690   47.6030 C   0  0  0  0  0  0  0  0  0  0  0  0
   61.1870   32.2870   47.3840 C   0  0  0  0  0  0  0  0  0  0  0  0
   61.4810   33.4880   46.7170 C   0  0  0  0  0  0  0  0  0  0  0  0
   62.8140   33.8390   46.4880 C   0  0  0  0  0  0  0  0  0  0  0  0
   63.8160   33.0180   46.9050 N   0  0  0  0  0  0  0  0  0  0  0  0
   63.5590   31.8480   47.5470 C   0  0  0  0  0  0  0  0  0  0  0  0
   62.2410   31.4560   47.7930 C   0  0  0  0  0  0  0  0  0  0  0  0
   56.5380   31.0590   44.3960 N   0  0  0  0  0  0  0  0  0  0  0  0
   56.3470   29.7830   44.8250 C   0  0  0  0  0  0  0  0  0  0  0  0
   55.1730   29.3280   44.8970 O   0  0  0  0  0  0  0  0  0  0  0  0
   57.4560   28.9920   45.1820 C   0  0  0  0  0  0  0  0  0  0  0  0
   57.3270   27.6640   45.6300 C   0  0  0  0  0  0  0  0  0  0  0  0
   56.8890   24.5900   44.7280 C   0  0  0  0  0  0  0  0  0  0  0  0
   56.5520   23.5170   43.8950 C   0  0  0  0  0  0  0  0  0  0  0  0
   56.7016   20.3245   43.5815 H   0  0  0  0  0  0  0  0  0  0  0  0
   56.1228   21.5009   42.3536 H   0  0  0  0  0  0  0  0  0  0  0  0
   57.8402   20.9745   42.3536 H   0  0  0  0  0  0  0  0  0  0  0  0
   59.0574   21.3503   44.7548 H   0  0  0  0  0  0  0  0  0  0  0  0
   59.6483   23.2594   46.2487 H   0  0  0  0  0  0  0  0  0  0  0  0
   60.6309   26.9318   46.1591 H   0  0  0  0  0  0  0  0  0  0  0  0
   60.8729   29.2808   45.3587 H   0  0  0  0  0  0  0  0  0  0  0  0
   58.5895   33.0478   42.9679 H   0  0  0  0  0  0  0  0  0  0  0  0
   56.9717   33.4482   43.6751 H   0  0  0  0  0  0  0  0  0  0  0  0
   59.6587   33.4672   45.1347 H   0  0  0  0  0  0  0  0  0  0  0  0
   58.6654   34.8997   44.6474 H   0  0  0  0  0  0  0  0  0  0  0  0
   59.6621   33.3656   49.1577 H   0  0  0  0  0  0  0  0  0  0  0  0
   58.1183   32.4842   48.8630 H   0  0  0  0  0  0  0  0  0  0  0  0
   59.7382   30.9254   48.1680 H   0  0  0  0  0  0  0  0  0  0  0  0
   59.2718   31.7352   46.6249 H   0  0  0  0  0  0  0  0  0  0  0  0
   60.6682   34.1469   46.3777 H   0  0  0  0  0  0  0  0  0  0  0  0
   63.0536   34.7795   45.9703 H   0  0  0  0  0  0  0  0  0  0  0  0
   64.3915   31.2077   47.8739 H   0  0  0  0  0  0  0  0  0  0  0  0
   62.0313   30.5042   48.3029 H   0  0  0  0  0  0  0  0  0  0  0  0
   56.3282   27.2124   45.7219 H   0  0  0  0  0  0  0  0  0  0  0  0
   56.2869   25.5103   44.7047 H   0  0  0  0  0  0  0  0  0  0  0  0
   55.6818   23.5947   43.2266 H   0  0  0  0  0  0  0  0  0  0  0  0
  1  2  1  0
  2  3  2  0
  3  4  1  0
  4  5  2  0
  5  6  1  0
  6  7  1  0
  7  8  2  0
  8  9  1  0
  9 10  2  0
 10 11  1  0
 11 12  1  0
 12 13  1  0
 13 14  1  0
 14 15  1  0
 15 16  2  0
 15 17  1  0
 17 18  1  0
 18 19  1  0
 19 20  1  0
 20 21  2  0
 21 22  1  0
 22 23  2  0
 23 24  1  0
 24 25  2  0
 12 26  2  0
 26 27  1  0
 27 28  2  0
 27 29  1  0
 29 30  2  0
  5 31  1  0
 31 32  2  0
 32  2  1  0
 30  7  1  0
 29 10  1  0
 25 20  1  0
  1 33  1  0
  1 34  1  0
  1 35  1  0
  3 36  1  0
  4 37  1  0
  8 38  1  0
  9 39  1  0
 13 40  1  0
 13 41  1  0
 14 42  1  0
 14 43  1  0
 18 44  1  0
 18 45  1  0
 19 46  1  0
 19 47  1  0
 21 48  1  0
 22 49  1  0
 24 50  1  0
 25 51  1  0
 30 52  1  0
 31 53  1  0
 32 54  1  0
M  CHG  2  11  -1  17  -1
M  END
>  <UniqueID>  (33) 
29

>  <SMILES>  (33) 
Cc1ccc(Oc2ccc3[n-]c(CCC(=O)[N-]CCc4ccncc4)nc(=O)c3c2)cc1

>  <Energy>  (33) 
60.78591727431256

>  <Genealogy>  (33) 
Cc1ccc(Oc2ccc3[n-]c(CCC(=O)[N-]CCc4ccncc4)nc(=O)c3c2)cc1 (protonated)
Cc1ccc(Oc2ccc3[n-]c(CCC(=O)[N-]CCc4ccncc4)nc(=O)c3c2)cc1 (3D coordinates assigned)
Cc1ccc(Oc2ccc3[n-]c(CCC(=O)[N-]CCc4ccncc4)nc(=O)c3c2)cc1 (optimized conformer: 60.78591727431256 kcal/mol)

>  <smiles>  (33) 
Cc1ccc(Oc2ccc3[nH]c(CCC(=O)NCCc4ccncc4)nc(=O)c3c2)cc1

>  <score_type>  (33) 
oracle

>  <origin>  (33) 
adg

>  <m_score__min__energy>  (33) 
-11.710000000000001

>  <m_primary>  (33) 
energy

$$$$
33:0
     RDKit          3D

 45 47  0  0  0  0  0  0  0  0999 V2000
   56.2690   30.5387   43.3327 H   0  0  0  0  0  0  0  0  0  0  0  0
   56.6270   29.5690   43.7090 C   0  0  0  0  0  0  0  0  0  0  0  0
   56.3978   28.6460   43.1563 H   0  0  0  0  0  0  0  0  0  0  0  0
   57.3450   29.5120   44.8450 C   0  0  0  0  0  0  0  0  0  0  0  0
   57.8580   28.3490   45.4300 C   0  0  0  0  0  0  0  0  0  0  0  0
   57.6900   27.0780   45.0110 C   0  0  0  0  0  0  0  0  0  0  0  0
   57.9795   26.8321   43.9787 H   0  0  0  0  0  0  0  0  0  0  0  0
   57.1420   25.9980   45.8520 C   0  0  0  0  0  0  0  0  0  0  0  0
   57.9000   25.0330   46.4000 N   0  0  0  0  0  0  0  0  0  0  0  0
   57.0220   24.3260   47.1430 C   0  0  0  0  0  0  0  0  0  0  0  0
   57.3590   23.3140   47.8100 O   0  0  0  0  0  0  0  0  0  0  0  0
   55.7570   24.7960   47.1240 N   0  0  0  0  0  0  0  0  0  0  0  0
   55.8500   25.8620   46.3120 C   0  0  0  0  0  0  0  0  0  0  0  0
   54.7890   26.7160   46.0410 O   0  0  0  0  0  0  0  0  0  0  0  0
   58.5340   28.7530   46.5710 C   0  0  0  0  0  0  0  0  0  0  0  0
   59.0620   28.1046   47.2857 H   0  0  0  0  0  0  0  0  0  0  0  0
   58.4160   30.1250   46.6360 C   0  0  0  0  0  0  0  0  0  0  0  0
   59.0430   30.9750   47.7030 C   0  0  0  0  0  0  0  0  0  0  0  0
   58.7586   30.5895   48.6932 H   0  0  0  0  0  0  0  0  0  0  0  0
   60.1377   30.9460   47.5988 H   0  0  0  0  0  0  0  0  0  0  0  0
   58.6921   32.0123   47.5988 H   0  0  0  0  0  0  0  0  0  0  0  0
   57.6950   30.5950   45.5910 N   0  0  0  0  0  0  0  0  0  0  0  0
   57.3620   32.0090   45.3510 C   0  0  0  0  0  0  0  0  0  0  0  0
   56.4904   32.0604   44.6819 H   0  0  0  0  0  0  0  0  0  0  0  0
   57.1448   32.4774   46.3223 H   0  0  0  0  0  0  0  0  0  0  0  0
   58.5300   32.7720   44.7050 C   0  0  0  0  0  0  0  0  0  0  0  0
   59.4729   32.2942   45.0095 H   0  0  0  0  0  0  0  0  0  0  0  0
   58.3867   32.7351   43.6150 H   0  0  0  0  0  0  0  0  0  0  0  0
   58.5750   34.2510   45.1150 C   0  0  0  0  0  0  0  0  0  0  0  0
   58.9004   34.8528   44.2536 H   0  0  0  0  0  0  0  0  0  0  0  0
   57.5689   34.5538   45.4406 H   0  0  0  0  0  0  0  0  0  0  0  0
   59.5160   34.4650   46.2370 N   0  0  0  0  0  0  0  0  0  0  0  0
   60.6500   33.5270   46.1390 C   0  0  0  0  0  0  0  0  0  0  0  0
   60.2757   32.4955   46.2162 H   0  0  0  0  0  0  0  0  0  0  0  0
   61.1534   33.6733   45.1719 H   0  0  0  0  0  0  0  0  0  0  0  0
   61.6610   33.7890   47.2770 C   0  0  0  0  0  0  0  0  0  0  0  0
   61.9429   32.8253   47.7262 H   0  0  0  0  0  0  0  0  0  0  0  0
   62.5293   34.3026   46.8386 H   0  0  0  0  0  0  0  0  0  0  0  0
   61.1360   34.6260   48.2920 O   0  0  0  0  0  0  0  0  0  0  0  0
   59.8670   34.1530   48.6910 C   0  0  0  0  0  0  0  0  0  0  0  0
   59.9451   33.0886   48.9574 H   0  0  0  0  0  0  0  0  0  0  0  0
   59.5266   34.7377   49.5583 H   0  0  0  0  0  0  0  0  0  0  0  0
   58.8450   34.3160   47.5490 C   0  0  0  0  0  0  0  0  0  0  0  0
   58.1967   33.4278   47.5201 H   0  0  0  0  0  0  0  0  0  0  0  0
   58.2558   35.2249   47.7404 H   0  0  0  0  0  0  0  0  0  0  0  0
  1  2  1  0
  2  3  1  0
  2  4  2  0
  4  5  1  0
  5  6  2  0
  6  7  1  0
  6  8  1  0
  8  9  1  0
  9 10  1  0
 10 11  2  0
 10 12  1  0
 12 13  1  0
 13 14  1  0
  5 15  1  0
 15 16  1  0
 15 17  2  0
 17 18  1  0
 18 19  1  0
 18 20  1  0
 18 21  1  0
 17 22  1  0
 22 23  1  0
 23 24  1  0
 23 25  1  0
 23 26  1  0
 26 27  1  0
 26 28  1  0
 26 29  1  0
 29 30  1  0
 29 31  1  0
 29 32  1  0
 32 33  1  0
 33 34  1  0
 33 35  1  0
 33 36  1  0
 36 37  1  0
 36 38  1  0
 36 39  1  0
 39 40  1  0
 40 41  1  0
 40 42  1  0
 40 43  1  0
 43 44  1  0
 43 45  1  0
 22  4  1  0
 43 32  1  0
 13  8  2  0
M  CHG  3   9  -1  12  -1  14  -1
M  END
>  <UniqueID>  (34) 
30

>  <SMILES>  (34) 
C=c1/c(=C/c2[n-]c(=O)[n-]c2[O-])cc(C)n1CCCN1CCOCC1

>  <Energy>  (34) 
117.13067628821845

>  <Genealogy>  (34) 
C=c1c(=Cc2[n-]c(=O)[n-]c2[O-])cc(C)n1CCCN1CCOCC1 (protonated)
C=c1/c(=C/c2[n-]c(=O)[n-]c2[O-])cc(C)n1CCCN1CCOCC1 (cis-trans isomerization)
C=c1/c(=C/c2[n-]c(=O)[n-]c2[O-])cc(C)n1CCCN1CCOCC1 (3D coordinates assigned)
C=c1/c(=C/c2[n-]c(=O)[n-]c2[O-])cc(C)n1CCCN1CCOCC1 (nonaromatic ring conformer: 117.13067628821845 kcal/mol)

>  <smiles>  (34) 
C=c1c(=Cc2[nH]c(=O)[nH]c2O)cc(C)n1CCCN1CCOCC1

>  <score_type>  (34) 
oracle

>  <origin>  (34) 
adg

>  <m_score__min__energy>  (34) 
-15.23

>  <m_primary>  (34) 
energy

$$$$
34:0
     RDKit          3D

 67 72  0  0  0  0  0  0  0  0999 V2000
   60.5393   33.5307   44.7207 H   0  0  0  0  0  0  0  0  0  0  0  0
   60.5170   33.8000   45.7870 C   0  0  0  0  0  0  0  0  0  0  0  0
   61.6930   33.7420   46.5420 C   0  0  0  0  0  0  0  0  0  0  0  0
   62.6349   33.4345   46.0643 H   0  0  0  0  0  0  0  0  0  0  0  0
   61.6780   34.0750   47.9100 C   0  0  0  0  0  0  0  0  0  0  0  0
   62.9430   33.9400   48.7410 C   0  0  0  0  0  0  0  0  0  0  0  0
   63.6873   34.6437   48.3401 H   0  0  0  0  0  0  0  0  0  0  0  0
   63.5220   32.5140   48.6150 C   0  0  0  0  0  0  0  0  0  0  0  0
   62.8017   31.7987   49.0387 H   0  0  0  0  0  0  0  0  0  0  0  0
   63.7009   32.3110   47.5488 H   0  0  0  0  0  0  0  0  0  0  0  0
   64.8620   32.3720   49.3600 C   0  0  0  0  0  0  0  0  0  0  0  0
   64.9979   31.3149   49.6323 H   0  0  0  0  0  0  0  0  0  0  0  0
   65.6479   32.7342   48.6809 H   0  0  0  0  0  0  0  0  0  0  0  0
   64.9490   33.2220   50.6460 C   0  0  0  0  0  0  0  0  0  0  0  0
   65.5290   32.6678   51.3986 H   0  0  0  0  0  0  0  0  0  0  0  0
   65.4346   34.1750   50.3892 H   0  0  0  0  0  0  0  0  0  0  0  0
   63.5650   33.5390   51.2240 C   0  0  0  0  0  0  0  0  0  0  0  0
   63.0465   32.5957   51.4507 H   0  0  0  0  0  0  0  0  0  0  0  0
   63.6983   34.1382   52.1368 H   0  0  0  0  0  0  0  0  0  0  0  0
   62.7160   34.3520   50.2270 C   0  0  0  0  0  0  0  0  0  0  0  0
   61.6538   34.2038   50.4716 H   0  0  0  0  0  0  0  0  0  0  0  0
   63.0217   35.4043   50.3226 H   0  0  0  0  0  0  0  0  0  0  0  0
   60.4600   34.4490   48.5060 C   0  0  0  0  0  0  0  0  0  0  0  0
   60.4273   34.6864   49.5796 H   0  0  0  0  0  0  0  0  0  0  0  0
   59.2920   34.5210   47.7440 C   0  0  0  0  0  0  0  0  0  0  0  0
   58.3500   34.8331   48.2186 H   0  0  0  0  0  0  0  0  0  0  0  0
   59.3090   34.1990   46.3790 C   0  0  0  0  0  0  0  0  0  0  0  0
   58.0310   34.1990   45.5770 C   0  0  0  0  0  0  0  0  0  0  0  0
   58.2728   34.1962   44.5039 H   0  0  0  0  0  0  0  0  0  0  0  0
   57.4474   35.0987   45.8221 H   0  0  0  0  0  0  0  0  0  0  0  0
   57.2430   33.0060   45.9020 N   0  0  0  0  0  0  0  0  0  0  0  0
   57.2560   31.8950   45.2210 C   0  0  0  0  0  0  0  0  0  0  0  0
   57.5120   30.7030   45.8260 N   0  0  0  0  0  0  0  0  0  0  0  0
   57.6000   29.5460   45.1170 C   0  0  0  0  0  0  0  0  0  0  0  0
   57.8470   28.3010   45.8010 N   0  0  0  0  0  0  0  0  0  0  0  0
   56.9090   27.1900   45.8200 C   0  0  0  0  0  0  0  0  0  0  0  0
   56.0781   27.4011   46.5093 H   0  0  0  0  0  0  0  0  0  0  0  0
   56.4680   27.0136   44.8278 H   0  0  0  0  0  0  0  0  0  0  0  0
   57.7070   25.9860   46.3030 C   0  0  0  0  0  0  0  0  0  0  0  0
   57.1273   25.4178   47.0453 H   0  0  0  0  0  0  0  0  0  0  0  0
   57.9404   25.3023   45.4735 H   0  0  0  0  0  0  0  0  0  0  0  0
   58.9800   26.5420   46.9390 C   0  0  0  0  0  0  0  0  0  0  0  0
   58.8882   26.5487   48.0351 H   0  0  0  0  0  0  0  0  0  0  0  0
   59.8571   25.9271   46.6890 H   0  0  0  0  0  0  0  0  0  0  0  0
   59.1270   27.9700   46.4090 C   0  0  2  0  0  0  0  0  0  0  0  0
   59.9575   28.0339   45.6905 H   0  0  0  0  0  0  0  0  0  0  0  0
   59.4450   28.9430   47.5110 C   0  0  0  0  0  0  0  0  0  0  0  0
   58.5150   29.7600   48.0710 N   0  0  0  0  0  0  0  0  0  0  0  0
   59.2250   30.4110   49.0070 C   0  0  0  0  0  0  0  0  0  0  0  0
   58.7740   31.3700   49.9140 C   0  0  0  0  0  0  0  0  0  0  0  0
   57.7297   31.7153   49.8996 H   0  0  0  0  0  0  0  0  0  0  0  0
   59.7000   31.8870   50.8550 C   0  0  0  0  0  0  0  0  0  0  0  0
   59.2840   32.9570   51.8340 C   0  0  0  0  0  0  0  0  0  0  0  0
   60.1620   32.9950   52.9050 F   0  0  0  0  0  0  0  0  0  0  0  0
   58.0140   32.7130   52.3290 F   0  0  0  0  0  0  0  0  0  0  0  0
   59.2900   34.1860   51.1990 F   0  0  0  0  0  0  0  0  0  0  0  0
   61.0520   31.4370   50.8260 C   0  0  0  0  0  0  0  0  0  0  0  0
   61.7778   31.8497   51.5421 H   0  0  0  0  0  0  0  0  0  0  0  0
   61.4690   30.4710   49.8920 C   0  0  0  0  0  0  0  0  0  0  0  0
   62.5079   30.1100   49.8702 H   0  0  0  0  0  0  0  0  0  0  0  0
   60.5170   29.9880   48.9950 C   0  0  0  0  0  0  0  0  0  0  0  0
   60.6890   29.0570   48.0470 N   0  0  0  0  0  0  0  0  0  0  0  0
   57.4290   29.5890   43.7260 C   0  0  0  0  0  0  0  0  0  0  0  0
   57.5155   28.6736   43.1222 H   0  0  0  0  0  0  0  0  0  0  0  0
   57.1470   30.8150   43.1220 C   0  0  0  0  0  0  0  0  0  0  0  0
   56.9780   30.8860   41.8770 O   0  0  0  0  0  0  0  0  0  0  0  0
   57.0670   31.9390   43.8760 N   0  0  0  0  0  0  0  0  0  0  0  0
  1  2  1  0
  2  3  2  0
  3  4  1  0
  3  5  1  0
  5  6  1  0
  6  7  1  0
  6  8  1  0
  8  9  1  0
  8 10  1  0
  8 11  1  0
 11 12  1  0
 11 13  1  0
 11 14  1  0
 14 15  1  0
 14 16  1  0
 14 17  1  0
 17 18  1  0
 17 19  1  0
 17 20  1  0
 20 21  1  0
 20 22  1  0
  5 23  2  0
 23 24  1  0
 23 25  1  0
 25 26  1  0
 25 27  2  0
 27 28  1  0
 28 29  1  0
 28 30  1  0
 28 31  1  0
 31 32  2  0
 32 33  1  0
 33 34  1  0
 34 35  1  0
 35 36  1  0
 36 37  1  0
 36 38  1  0
 36 39  1  0
 39 40  1  0
 39 41  1  0
 39 42  1  0
 42 43  1  0
 42 44  1  0
 42 45  1  0
 45 46  1  6
 45 47  1  0
 47 48  2  0
 48 49  1  0
 49 50  2  0
 50 51  1  0
 50 52  1  0
 52 53  1  0
 53 54  1  0
 53 55  1  0
 53 56  1  0
 52 57  2  0
 57 58  1  0
 57 59  1  0
 59 60  1  0
 59 61  2  0
 61 62  1  0
 34 63  2  0
 63 64  1  0
 63 65  1  0
 65 66  2  0
 65 67  1  0
 27  2  1  0
 67 32  1  0
 20  6  1  0
 45 35  1  0
 62 47  1  0
 61 49  1  0
M  CHG  3  33  -1  62  -1  67  -1
M  END
>  <UniqueID>  (35) 
31

>  <SMILES>  (35) 
O=c1cc(N2CCC[C@@H]2c2nc3cc(C(F)(F)F)ccc3[n-]2)[n-]/c(=N\Cc2ccc(C3CCCCC3)cc2)[n-]1

>  <Energy>  (35) 
111.4681819545967

>  <Genealogy>  (35) 
O=c1cc(N2CCCC2c2nc3cc(C(F)(F)F)ccc3[n-]2)[n-]c(=NCc2ccc(C3CCCCC3)cc2)[n-]1 (protonated)
O=c1cc(N2CCC[C@@H]2c2nc3cc(C(F)(F)F)ccc3[n-]2)[n-]c(=NCc2ccc(C3CCCCC3)cc2)[n-]1 (chirality)
O=c1cc(N2CCC[C@@H]2c2nc3cc(C(F)(F)F)ccc3[n-]2)[n-]/c(=N\Cc2ccc(C3CCCCC3)cc2)[n-]1 (cis-trans isomerization)
O=c1cc(N2CCC[C@@H]2c2nc3cc(C(F)(F)F)ccc3[n-]2)[n-]/c(=N\Cc2ccc(C3CCCCC3)cc2)[n-]1 (3D coordinates assigned)
O=c1cc(N2CCC[C@@H]2c2nc3cc(C(F)(F)F)ccc3[n-]2)[n-]/c(=N\Cc2ccc(C3CCCCC3)cc2)[n-]1 (nonaromatic ring conformer: 111.4681819545967 kcal/mol)

>  <smiles>  (35) 
O=c1cc(N2CCCC2c2nc3cc(C(F)(F)F)ccc3[nH]2)[nH]c(=NCc2ccc(C3CCCCC3)cc2)[nH]1

>  <score_type>  (35) 
oracle

>  <origin>  (35) 
adg

>  <m_score__min__energy>  (35) 
-14.779999999999999

>  <m_primary>  (35) 
energy

$$$$
35:0
     RDKit          3D

 23 24  0  0  0  0  0  0  0  0999 V2000
   56.9630   27.9460   53.8080 C   0  0  0  0  0  0  0  0  0  0  0  0
   55.5970   28.3620   53.5090 N   0  0  0  0  0  0  0  0  0  0  0  0
   54.4410   27.8090   53.9290 C   0  0  0  0  0  0  0  0  0  0  0  0
   54.3690   26.8430   54.7360 O   0  0  0  0  0  0  0  0  0  0  0  0
   53.3680   28.4020   53.3720 N   0  0  0  0  0  0  0  0  0  0  0  0
   53.8290   29.3410   52.5570 N   0  0  0  0  0  0  0  0  0  0  0  0
   53.0050   30.2070   51.7520 C   0  0  0  0  0  0  0  0  0  0  0  0
   52.8030   31.5520   52.1110 C   0  0  0  0  0  0  0  0  0  0  0  0
   52.0060   32.3830   51.3170 C   0  0  0  0  0  0  0  0  0  0  0  0
   51.4100   31.8830   50.1560 C   0  0  0  0  0  0  0  0  0  0  0  0
   50.6180   32.7110   49.3690 O   0  0  0  0  0  0  0  0  0  0  0  0
   51.6110   30.5510   49.7870 C   0  0  0  0  0  0  0  0  0  0  0  0
   52.4070   29.7160   50.5780 C   0  0  0  0  0  0  0  0  0  0  0  0
   55.1790   29.3080   52.6420 C   0  0  0  0  0  0  0  0  0  0  0  0
   55.9560   30.0740   52.0110 O   0  0  0  0  0  0  0  0  0  0  0  0
   57.1030   27.9034   54.8982 H   0  0  0  0  0  0  0  0  0  0  0  0
   57.1463   26.9513   53.3756 H   0  0  0  0  0  0  0  0  0  0  0  0
   57.6696   28.6697   53.3756 H   0  0  0  0  0  0  0  0  0  0  0  0
   52.3650   28.1520   53.5170 H   0  0  0  0  0  0  0  0  0  0  0  0
   53.2742   31.9522   53.0208 H   0  0  0  0  0  0  0  0  0  0  0  0
   51.8480   33.4323   51.6070 H   0  0  0  0  0  0  0  0  0  0  0  0
   51.1425   30.1579   48.8727 H   0  0  0  0  0  0  0  0  0  0  0  0
   52.5661   28.6692   50.2799 H   0  0  0  0  0  0  0  0  0  0  0  0
  1  2  1  0
  2  3  1  0
  3  4  2  0
  3  5  1  0
  5  6  1  0
  6  7  1  0
  7  8  2  0
  8  9  1  0
  9 10  2  0
 10 11  1  0
 10 12  1  0
 12 13  2  0
  6 14  1  0
 14 15  2  0
 14  2  1  0
 13  7  1  0
  1 16  1  0
  1 17  1  0
  1 18  1  0
  5 19  1  0
  8 20  1  0
  9 21  1  0
 12 22  1  0
 13 23  1  0
M  CHG  1  11  -1
M  END
>  <UniqueID>  (36) 
32

>  <SMILES>  (36) 
Cn1c(=O)[nH]n(-c2ccc([O-])cc2)c1=O

>  <Energy>  (36) 
67.62135537220398

>  <Genealogy>  (36) 
Cn1c(=O)[nH]n(-c2ccc([O-])cc2)c1=O (protonated)
Cn1c(=O)[nH]n(-c2ccc([O-])cc2)c1=O (3D coordinates assigned)
Cn1c(=O)[nH]n(-c2ccc([O-])cc2)c1=O (optimized conformer: 67.62135537220398 kcal/mol)

>  <smiles>  (36) 
Cn1c(=O)[nH]n(-c2ccc(O)cc2)c1=O

>  <score_type>  (36) 
oracle

>  <origin>  (36) 
adg

>  <m_score__min__energy>  (36) 
-8.9700000000000006

>  <m_primary>  (36) 
energy

$$$$
36:0
     RDKit          3D

 48 50  0  0  0  0  0  0  0  0999 V2000
   57.2840   21.1490   46.3570 H   0  0  0  0  0  0  0  0  0  0  0  0
   56.3450   20.8290   46.5660 O   0  0  0  0  0  0  0  0  0  0  0  0
   55.2180   21.6220   46.3400 C   0  0  0  0  0  0  0  0  0  0  0  0
   54.3030   21.8130   47.3810 C   0  0  0  0  0  0  0  0  0  0  0  0
   54.4773   21.3420   48.3597 H   0  0  0  0  0  0  0  0  0  0  0  0
   53.1690   22.6010   47.1780 C   0  0  0  0  0  0  0  0  0  0  0  0
   52.4488   22.7597   47.9942 H   0  0  0  0  0  0  0  0  0  0  0  0
   52.9590   23.1850   45.9290 C   0  0  0  0  0  0  0  0  0  0  0  0
   52.0658   23.8030   45.7552 H   0  0  0  0  0  0  0  0  0  0  0  0
   53.8560   22.9920   44.9260 N   0  0  0  0  0  0  0  0  0  0  0  0
   54.9780   22.2330   45.0930 C   0  0  0  0  0  0  0  0  0  0  0  0
   55.8260   22.0660   44.1160 N   0  0  0  0  0  0  0  0  0  0  0  0
   57.0440   22.7950   43.8900 C   0  0  0  0  0  0  0  0  0  0  0  0
   57.0300   23.9630   43.4160 O   0  0  0  0  0  0  0  0  0  0  0  0
   58.3460   22.1790   44.2880 C   0  0  0  0  0  0  0  0  0  0  0  0
   58.2523   21.0832   44.2674 H   0  0  0  0  0  0  0  0  0  0  0  0
   59.1280   22.4990   43.5837 H   0  0  0  0  0  0  0  0  0  0  0  0
   58.7080   22.6080   45.6340 N   0  0  0  0  0  0  0  0  0  0  0  0
   57.8970   23.4540   46.4610 C   0  0  0  0  0  0  0  0  0  0  0  0
   57.4430   22.9910   47.5400 O   0  0  0  0  0  0  0  0  0  0  0  0
   57.6020   24.8550   46.1000 C   0  0  0  0  0  0  0  0  0  0  0  0
   56.3300   25.3930   46.3590 C   0  0  0  0  0  0  0  0  0  0  0  0
   55.5642   24.7753   46.8509 H   0  0  0  0  0  0  0  0  0  0  0  0
   56.0330   26.7110   45.9940 C   0  0  0  0  0  0  0  0  0  0  0  0
   55.0378   27.1286   46.2064 H   0  0  0  0  0  0  0  0  0  0  0  0
   57.0020   27.5000   45.3580 C   0  0  0  0  0  0  0  0  0  0  0  0
   56.6520   29.1640   44.8960 S   0  0  0  0  0  0  0  0  0  0  0  0
   55.1660   29.4020   44.8620 O   0  0  0  0  0  0  0  0  0  0  0  0
   57.2090   29.4070   43.5220 O   0  0  0  0  0  0  0  0  0  0  0  0
   57.4140   30.2540   46.0210 N   0  0  0  0  0  0  0  0  0  0  0  0
   58.7340   30.6800   45.5520 C   0  0  0  0  0  0  0  0  0  0  0  0
   59.5058   30.2041   46.1749 H   0  0  0  0  0  0  0  0  0  0  0  0
   58.8410   30.3788   44.4995 H   0  0  0  0  0  0  0  0  0  0  0  0
   58.8910   32.1760   45.6350 C   0  0  0  0  0  0  0  0  0  0  0  0
   59.8740   32.7450   46.4640 C   0  0  0  0  0  0  0  0  0  0  0  0
   60.5295   32.0953   47.0625 H   0  0  0  0  0  0  0  0  0  0  0  0
   60.0210   34.1340   46.5300 C   0  0  0  0  0  0  0  0  0  0  0  0
   60.7959   34.5741   47.1748 H   0  0  0  0  0  0  0  0  0  0  0  0
   59.1850   34.9640   45.7780 C   0  0  0  0  0  0  0  0  0  0  0  0
   59.2965   36.0567   45.8383 H   0  0  0  0  0  0  0  0  0  0  0  0
   58.2070   34.4060   44.9490 C   0  0  0  0  0  0  0  0  0  0  0  0
   57.5549   35.0599   44.3513 H   0  0  0  0  0  0  0  0  0  0  0  0
   58.0570   33.0170   44.8790 C   0  0  0  0  0  0  0  0  0  0  0  0
   57.2832   32.5815   44.2297 H   0  0  0  0  0  0  0  0  0  0  0  0
   58.2630   26.9590   45.0830 C   0  0  0  0  0  0  0  0  0  0  0  0
   59.0238   27.5734   44.5793 H   0  0  0  0  0  0  0  0  0  0  0  0
   58.5610   25.6420   45.4450 C   0  0  0  0  0  0  0  0  0  0  0  0
   59.5511   25.2213   45.2154 H   0  0  0  0  0  0  0  0  0  0  0  0
  1  2  1  0
  2  3  1  0
  3  4  2  0
  4  5  1  0
  4  6  1  0
  6  7  1  0
  6  8  2  0
  8  9  1  0
  8 10  1  0
 10 11  1  0
 11 12  2  0
 12 13  1  0
 13 14  2  0
 13 15  1  0
 15 16  1  0
 15 17  1  0
 15 18  1  0
 18 19  1  0
 19 20  2  0
 19 21  1  0
 21 22  2  0
 22 23  1  0
 22 24  1  0
 24 25  1  0
 24 26  2  0
 26 27  1  0
 27 28  2  0
 27 29  2  0
 27 30  1  0
 30 31  1  0
 31 32  1  0
 31 33  1  0
 31 34  1  0
 34 35  2  0
 35 36  1  0
 35 37  1  0
 37 38  1  0
 37 39  2  0
 39 40  1  0
 39 41  1  0
 41 42  1  0
 41 43  2  0
 43 44  1  0
 26 45  1  0
 45 46  1  0
 45 47  2  0
 47 48  1  0
 11  3  1  0
 47 21  1  0
 43 34  1  0
M  CHG  3  10  -1  18  -1  30  -1
M  END
>  <UniqueID>  (37) 
33

>  <SMILES>  (37) 
O=C(C[N-]C(=O)c1ccc(S(=O)(=O)[N-]Cc2ccccc2)cc1)/N=c1\[n-]cccc1O

>  <Energy>  (37) 
52.21187233337921

>  <Genealogy>  (37) 
O=C(C[N-]C(=O)c1ccc(S(=O)(=O)[N-]Cc2ccccc2)cc1)N=c1[n-]cccc1O (protonated)
O=C(C[N-]C(=O)c1ccc(S(=O)(=O)[N-]Cc2ccccc2)cc1)/N=c1\[n-]cccc1O (cis-trans isomerization)
O=C(C[N-]C(=O)c1ccc(S(=O)(=O)[N-]Cc2ccccc2)cc1)/N=c1\[n-]cccc1O (3D coordinates assigned)
O=C(C[N-]C(=O)c1ccc(S(=O)(=O)[N-]Cc2ccccc2)cc1)/N=c1\[n-]cccc1O (optimized conformer: 52.21187233337921 kcal/mol)

>  <smiles>  (37) 
O=C(CNC(=O)c1ccc(S(=O)(=O)NCc2ccccc2)cc1)N=c1[nH]cccc1O

>  <score_type>  (37) 
oracle

>  <origin>  (37) 
adg

>  <m_score__min__energy>  (37) 
-13.630000000000001

>  <m_primary>  (37) 
energy

$$$$
37:0
     RDKit          3D

 64 67  0  0  0  0  0  0  0  0999 V2000
   57.3770   22.1010   47.6980 O   0  0  0  0  0  0  0  0  0  0  0  0
   57.3030   23.0720   46.8970 C   0  0  0  0  0  0  0  0  0  0  0  0
   57.3870   24.4190   47.3860 N   0  0  0  0  0  0  0  0  0  0  0  0
   57.6180   25.6050   46.6110 C   0  0  0  0  0  0  0  0  0  0  0  0
   58.8660   25.8860   46.0280 C   0  0  0  0  0  0  0  0  0  0  0  0
   59.0400   27.0410   45.2590 C   0  0  0  0  0  0  0  0  0  0  0  0
   57.9690   27.9250   45.0530 C   0  0  0  0  0  0  0  0  0  0  0  0
   58.1540   29.1480   44.1940 C   0  0  0  0  0  0  0  0  0  0  0  0
   57.4870   30.3410   44.8210 C   0  0  0  0  0  0  0  0  0  0  0  0
   56.2460   30.5070   44.6700 O   0  0  0  0  0  0  0  0  0  0  0  0
   58.2440   31.3020   45.5760 N   0  0  0  0  0  0  0  0  0  0  0  0
   57.7710   32.6760   45.7470 C   0  0  0  0  0  0  0  0  0  0  0  0
   57.9890   33.1430   47.1970 C   0  0  0  0  0  0  0  0  0  0  0  0
   59.0660   32.4040   47.9130 N   0  0  0  0  0  0  0  0  0  0  0  0
   59.5230   33.1820   49.0930 C   0  0  0  0  0  0  0  0  0  0  0  0
   58.8690   32.7080   50.3700 C   0  0  0  0  0  0  0  0  0  0  0  0
   58.9170   33.5080   51.5240 C   0  0  0  0  0  0  0  0  0  0  0  0
   58.3300   33.0670   52.7120 C   0  0  0  0  0  0  0  0  0  0  0  0
   57.6920   31.8250   52.7590 C   0  0  0  0  0  0  0  0  0  0  0  0
   57.6400   31.0210   51.6160 C   0  0  0  0  0  0  0  0  0  0  0  0
   57.0060   29.7860   51.6640 O   0  0  0  0  0  0  0  0  0  0  0  0
   58.2270   31.4590   50.4250 C   0  0  0  0  0  0  0  0  0  0  0  0
   60.1670   32.0250   46.9780 C   0  0  1  0  0  0  0  0  0  0  0  0
   61.4350   31.4750   47.6970 C   0  0  0  0  0  0  0  0  0  0  0  0
   62.6840   32.3600   47.5350 C   0  0  0  0  0  0  0  0  0  0  0  0
   63.7660   31.6280   47.0240 O   0  0  0  0  0  0  0  0  0  0  0  0
   59.6080   30.9710   45.9930 C   0  0  0  0  0  0  0  0  0  0  0  0
   56.7160   27.6230   45.6060 C   0  0  0  0  0  0  0  0  0  0  0  0
   56.5440   26.4700   46.3760 C   0  0  0  0  0  0  0  0  0  0  0  0
   57.0770   22.8230   45.4540 C   0  0  0  0  0  0  0  0  0  0  0  0
   57.8030   21.8250   44.7770 C   0  0  0  0  0  0  0  0  0  0  0  0
   57.5830   21.5920   43.4160 C   0  0  0  0  0  0  0  0  0  0  0  0
   56.6360   22.3440   42.7180 C   0  0  0  0  0  0  0  0  0  0  0  0
   55.9100   23.3370   43.3790 C   0  0  0  0  0  0  0  0  0  0  0  0
   56.1270   23.5780   44.7390 C   0  0  0  0  0  0  0  0  0  0  0  0
   59.7087   25.1949   46.1772 H   0  0  0  0  0  0  0  0  0  0  0  0
   60.0218   27.2581   44.8129 H   0  0  0  0  0  0  0  0  0  0  0  0
   59.2291   29.3521   44.0824 H   0  0  0  0  0  0  0  0  0  0  0  0
   57.6977   28.9628   43.2104 H   0  0  0  0  0  0  0  0  0  0  0  0
   58.3263   33.3377   45.0660 H   0  0  0  0  0  0  0  0  0  0  0  0
   56.6957   32.7138   45.5183 H   0  0  0  0  0  0  0  0  0  0  0  0
   58.2530   34.2107   47.1811 H   0  0  0  0  0  0  0  0  0  0  0  0
   57.0523   32.9479   47.7398 H   0  0  0  0  0  0  0  0  0  0  0  0
   60.6132   33.0725   49.1903 H   0  0  0  0  0  0  0  0  0  0  0  0
   59.2416   34.2339   48.9368 H   0  0  0  0  0  0  0  0  0  0  0  0
   59.4192   34.4861   51.4916 H   0  0  0  0  0  0  0  0  0  0  0  0
   58.3700   33.6984   53.6119 H   0  0  0  0  0  0  0  0  0  0  0  0
   57.2303   31.4793   53.6957 H   0  0  0  0  0  0  0  0  0  0  0  0
   58.1862   30.8238   49.5279 H   0  0  0  0  0  0  0  0  0  0  0  0
   60.4983   32.9332   46.4533 H   0  0  0  0  0  0  0  0  0  0  0  0
   61.2119   31.3858   48.7704 H   0  0  0  0  0  0  0  0  0  0  0  0
   61.6696   30.5073   47.2295 H   0  0  0  0  0  0  0  0  0  0  0  0
   62.4516   33.1845   46.8449 H   0  0  0  0  0  0  0  0  0  0  0  0
   62.9648   32.7480   48.5253 H   0  0  0  0  0  0  0  0  0  0  0  0
   64.5600   32.2240   47.0680 H   0  0  0  0  0  0  0  0  0  0  0  0
   60.2549   30.9328   45.1042 H   0  0  0  0  0  0  0  0  0  0  0  0
   59.5880   29.9963   46.5025 H   0  0  0  0  0  0  0  0  0  0  0  0
   55.8644   28.2973   45.4326 H   0  0  0  0  0  0  0  0  0  0  0  0
   55.5557   26.2404   46.8010 H   0  0  0  0  0  0  0  0  0  0  0  0
   58.5473   21.2253   45.3215 H   0  0  0  0  0  0  0  0  0  0  0  0
   58.1580   20.8135   42.8933 H   0  0  0  0  0  0  0  0  0  0  0  0
   56.4620   22.1544   41.6485 H   0  0  0  0  0  0  0  0  0  0  0  0
   55.1657   23.9310   42.8284 H   0  0  0  0  0  0  0  0  0  0  0  0
   55.5523   24.3621   45.2537 H   0  0  0  0  0  0  0  0  0  0  0  0
  1  2  2  0
  2  3  1  0
  3  4  1  0
  4  5  2  0
  5  6  1  0
  6  7  2  0
  7  8  1  0
  8  9  1  0
  9 10  2  0
  9 11  1  0
 11 12  1  0
 12 13  1  0
 13 14  1  0
 14 15  1  0
 15 16  1  0
 16 17  2  0
 17 18  1  0
 18 19  2  0
 19 20  1  0
 20 21  1  0
 20 22  2  0
 14 23  1  0
 23 24  1  0
 24 25  1  0
 25 26  1  0
 23 27  1  0
  7 28  1  0
 28 29  2  0
  2 30  1  0
 30 31  2  0
 31 32  1  0
 32 33  2  0
 33 34  1  0
 34 35  2  0
 29  4  1  0
 35 30  1  0
 27 11  1  0
 22 16  1  0
  5 36  1  0
  6 37  1  0
  8 38  1  0
  8 39  1  0
 12 40  1  0
 12 41  1  0
 13 42  1  0
 13 43  1  0
 15 44  1  0
 15 45  1  0
 17 46  1  0
 18 47  1  0
 19 48  1  0
 22 49  1  0
 23 50  1  6
 24 51  1  0
 24 52  1  0
 25 53  1  0
 25 54  1  0
 26 55  1  0
 27 56  1  0
 27 57  1  0
 28 58  1  0
 29 59  1  0
 31 60  1  0
 32 61  1  0
 33 62  1  0
 34 63  1  0
 35 64  1  0
M  CHG  2   3  -1  21  -1
M  END
>  <UniqueID>  (38) 
34

>  <SMILES>  (38) 
O=C([N-]c1ccc(CC(=O)N2CCN(Cc3cccc([O-])c3)[C@@H](CCO)C2)cc1)c1ccccc1

>  <Energy>  (38) 
83.53348193996507

>  <Genealogy>  (38) 
O=C([N-]c1ccc(CC(=O)N2CCN(Cc3cccc([O-])c3)C(CCO)C2)cc1)c1ccccc1 (protonated)
O=C([N-]c1ccc(CC(=O)N2CCN(Cc3cccc([O-])c3)[C@@H](CCO)C2)cc1)c1ccccc1 (chirality)
O=C([N-]c1ccc(CC(=O)N2CCN(Cc3cccc([O-])c3)[C@@H](CCO)C2)cc1)c1ccccc1 (3D coordinates assigned)
O=C([N-]c1ccc(CC(=O)N2CCN(Cc3cccc([O-])c3)[C@@H](CCO)C2)cc1)c1ccccc1 (nonaromatic ring conformer: 83.53348193996507 kcal/mol)

>  <smiles>  (38) 
O=C(Nc1ccc(CC(=O)N2CCN(Cc3cccc(O)c3)C(CCO)C2)cc1)c1ccccc1

>  <score_type>  (38) 
oracle

>  <origin>  (38) 
adg

>  <m_score__min__energy>  (38) 
-14.57

>  <m_primary>  (38) 
energy

$$$$
38:0
     RDKit          3D

 60 63  0  0  0  0  0  0  0  0999 V2000
   68.8140   33.0620   52.3120 C   0  0  0  0  0  0  0  0  0  0  0  0
   67.7960   34.0280   51.2150 S   0  0  0  0  0  0  0  0  0  0  0  0
   68.2180   35.4700   51.2510 O   0  0  0  0  0  0  0  0  0  0  0  0
   67.9740   33.5070   49.8160 O   0  0  0  0  0  0  0  0  0  0  0  0
   66.1240   33.8800   51.6620 N   0  0  0  0  0  0  0  0  0  0  0  0
   65.0580   33.5750   50.7430 C   0  0  0  0  0  0  0  0  0  0  0  0
   65.2050   32.6270   49.7120 C   0  0  0  0  0  0  0  0  0  0  0  0
   64.1470   32.3610   48.8380 C   0  0  0  0  0  0  0  0  0  0  0  0
   62.9210   33.0330   48.9710 C   0  0  0  0  0  0  0  0  0  0  0  0
   61.8090   32.7390   48.0350 C   0  0  0  0  0  0  0  0  0  0  0  0
   61.1070   33.6430   47.2610 C   0  0  0  0  0  0  0  0  0  0  0  0
   60.1830   32.9840   46.5420 N   0  0  0  0  0  0  0  0  0  0  0  0
   60.3420   31.6970   46.9100 C   0  0  0  0  0  0  0  0  0  0  0  0
   59.5470   30.5980   46.3360 C   0  0  0  0  0  0  0  0  0  0  0  0
   58.0710   30.7960   46.1560 C   0  0  0  0  0  0  0  0  0  0  0  0
   57.7490   31.0730   44.7110 C   0  0  0  0  0  0  0  0  0  0  0  0
   56.9120   30.2070   43.9890 C   0  0  0  0  0  0  0  0  0  0  0  0
   56.6280   30.4620   42.6450 C   0  0  0  0  0  0  0  0  0  0  0  0
   57.1820   31.5770   42.0110 C   0  0  0  0  0  0  0  0  0  0  0  0
   58.0280   32.4360   42.7180 C   0  0  0  0  0  0  0  0  0  0  0  0
   58.3150   32.1840   44.0620 C   0  0  0  0  0  0  0  0  0  0  0  0
   60.0520   29.4220   46.0860 N   0  0  0  0  0  0  0  0  0  0  0  0
   59.4690   28.3450   45.3340 C   0  0  0  0  0  0  0  0  0  0  0  0
   59.2180   28.4610   44.1040 O   0  0  0  0  0  0  0  0  0  0  0  0
   59.1330   27.0660   46.0370 C   0  0  0  0  0  0  0  0  0  0  0  0
   57.6410   27.0090   46.3790 C   0  0  0  0  0  0  0  0  0  0  0  0
   57.0140   25.7670   45.8010 C   0  0  0  0  0  0  0  0  0  0  0  0
   57.8230   24.6760   45.4460 C   0  0  0  0  0  0  0  0  0  0  0  0
   57.2510   23.5060   44.9390 C   0  0  0  0  0  0  0  0  0  0  0  0
   55.8660   23.4090   44.7960 C   0  0  0  0  0  0  0  0  0  0  0  0
   55.0480   24.4830   45.1570 C   0  0  0  0  0  0  0  0  0  0  0  0
   55.6150   25.6590   45.6620 C   0  0  0  0  0  0  0  0  0  0  0  0
   54.7830   26.7130   46.0270 O   0  0  0  0  0  0  0  0  0  0  0  0
   61.3300   31.5000   47.8090 N   0  0  0  0  0  0  0  0  0  0  0  0
   62.7730   33.9720   50.0070 C   0  0  0  0  0  0  0  0  0  0  0  0
   63.8310   34.2370   50.8810 C   0  0  0  0  0  0  0  0  0  0  0  0
   68.5602   33.3028   53.3549 H   0  0  0  0  0  0  0  0  0  0  0  0
   68.6370   31.9918   52.1293 H   0  0  0  0  0  0  0  0  0  0  0  0
   69.8734   33.2948   52.1293 H   0  0  0  0  0  0  0  0  0  0  0  0
   65.8820   34.1170   52.6500 H   0  0  0  0  0  0  0  0  0  0  0  0
   66.1589   32.0922   49.5937 H   0  0  0  0  0  0  0  0  0  0  0  0
   64.2761   31.6175   48.0376 H   0  0  0  0  0  0  0  0  0  0  0  0
   61.2775   34.7294   47.2373 H   0  0  0  0  0  0  0  0  0  0  0  0
   57.5418   29.8866   46.4770 H   0  0  0  0  0  0  0  0  0  0  0  0
   57.7503   31.6553   46.7633 H   0  0  0  0  0  0  0  0  0  0  0  0
   56.4785   29.3250   44.4832 H   0  0  0  0  0  0  0  0  0  0  0  0
   55.9672   29.7839   42.0851 H   0  0  0  0  0  0  0  0  0  0  0  0
   56.9521   31.7790   40.9544 H   0  0  0  0  0  0  0  0  0  0  0  0
   58.4679   33.3105   42.2163 H   0  0  0  0  0  0  0  0  0  0  0  0
   58.9865   32.8577   44.6144 H   0  0  0  0  0  0  0  0  0  0  0  0
   59.3858   26.2181   45.3835 H   0  0  0  0  0  0  0  0  0  0  0  0
   59.7111   27.0149   46.9714 H   0  0  0  0  0  0  0  0  0  0  0  0
   57.5204   27.0001   47.4723 H   0  0  0  0  0  0  0  0  0  0  0  0
   57.1437   27.8913   45.9496 H   0  0  0  0  0  0  0  0  0  0  0  0
   58.9142   24.7425   45.5677 H   0  0  0  0  0  0  0  0  0  0  0  0
   57.8933   22.6603   44.6522 H   0  0  0  0  0  0  0  0  0  0  0  0
   55.4179   22.4863   44.3988 H   0  0  0  0  0  0  0  0  0  0  0  0
   53.9567   24.4041   45.0441 H   0  0  0  0  0  0  0  0  0  0  0  0
   61.8171   34.5022   50.1306 H   0  0  0  0  0  0  0  0  0  0  0  0
   63.6987   34.9741   51.6868 H   0  0  0  0  0  0  0  0  0  0  0  0
  1  2  1  0
  2  3  2  0
  2  4  2  0
  2  5  1  0
  5  6  1  0
  6  7  2  0
  7  8  1  0
  8  9  2  0
  9 10  1  0
 10 11  2  0
 11 12  1  0
 12 13  1  0
 13 14  1  0
 14 15  1  0
 15 16  1  0
 16 17  2  0
 17 18  1  0
 18 19  2  0
 19 20  1  0
 20 21  2  0
 14 22  2  3
 22 23  1  0
 23 24  2  0
 23 25  1  0
 25 26  1  0
 26 27  1  0
 27 28  2  0
 28 29  1  0
 29 30  2  0
 30 31  1  0
 31 32  2  0
 32 33  1  0
 13 34  2  0
  9 35  1  0
 35 36  2  0
 36  6  1  0
 34 10  1  0
 21 16  1  0
 32 27  1  0
  1 37  1  0
  1 38  1  0
  1 39  1  0
  5 40  1  0
  7 41  1  0
  8 42  1  0
 11 43  1  0
 15 44  1  0
 15 45  1  0
 17 46  1  0
 18 47  1  0
 19 48  1  0
 20 49  1  0
 21 50  1  0
 25 51  1  0
 25 52  1  0
 26 53  1  0
 26 54  1  0
 28 55  1  0
 29 56  1  0
 30 57  1  0
 31 58  1  0
 35 59  1  0
 36 60  1  0
M  CHG  2  12  -1  33  -1
M  END
>  <UniqueID>  (39) 
35

>  <SMILES>  (39) 
CS(=O)(=O)Nc1ccc(-c2c[n-]c(C(Cc3ccccc3)=NC(=O)CCc3ccccc3[O-])n2)cc1

>  <Energy>  (39) 
96.93895242694222

>  <Genealogy>  (39) 
CS(=O)(=O)Nc1ccc(-c2c[n-]c(C(Cc3ccccc3)=NC(=O)CCc3ccccc3[O-])n2)cc1 (protonated)
CS(=O)(=O)Nc1ccc(-c2c[n-]c(C(Cc3ccccc3)=NC(=O)CCc3ccccc3[O-])n2)cc1 (3D coordinates assigned)
CS(=O)(=O)Nc1ccc(-c2c[n-]c(C(Cc3ccccc3)=NC(=O)CCc3ccccc3[O-])n2)cc1 (optimized conformer: 96.93895242694222 kcal/mol)

>  <smiles>  (39) 
CS(=O)(=O)Nc1ccc(-c2c[nH]c(C(Cc3ccccc3)=NC(=O)CCc3ccccc3O)n2)cc1

>  <score_type>  (39) 
oracle

>  <origin>  (39) 
adg

>  <m_score__min__energy>  (39) 
-14.73

>  <m_primary>  (39) 
energy

$$$$
39:0
     RDKit          3D

 49 52  0  0  0  0  0  0  0  0999 V2000
   58.9980   31.0260   55.5500 O   0  0  0  0  0  0  0  0  0  0  0  0
   58.5150   30.4340   54.5450 C   0  0  0  0  0  0  0  0  0  0  0  0
   58.6390   31.0760   53.2250 C   0  0  0  0  0  0  0  0  0  0  0  0
   57.7720   32.1150   52.8520 C   0  0  0  0  0  0  0  0  0  0  0  0
   57.8890   32.7020   51.5880 C   0  0  0  0  0  0  0  0  0  0  0  0
   58.8860   32.2710   50.6820 C   0  0  0  0  0  0  0  0  0  0  0  0
   59.0420   32.9400   49.3570 C   0  0  0  0  0  0  0  0  0  0  0  0
   60.0170   33.9400   49.1640 C   0  0  0  0  0  0  0  0  0  0  0  0
   60.1590   34.5730   47.9220 C   0  0  0  0  0  0  0  0  0  0  0  0
   59.3570   34.1890   46.8470 C   0  0  0  0  0  0  0  0  0  0  0  0
   58.4010   33.1860   47.0150 C   0  0  0  0  0  0  0  0  0  0  0  0
   58.2290   32.5770   48.2640 C   0  0  0  0  0  0  0  0  0  0  0  0
   59.7470   31.2160   51.0690 C   0  0  0  0  0  0  0  0  0  0  0  0
   59.6150   30.6140   52.3210 C   0  0  0  0  0  0  0  0  0  0  0  0
   57.7920   29.1840   54.6880 N   0  0  0  0  0  0  0  0  0  0  0  0
   56.6130   29.2870   55.5600 C   0  0  0  0  0  0  0  0  0  0  0  0
   55.5100   30.1650   54.9700 C   0  0  0  0  0  0  0  0  0  0  0  0
   55.2580   29.9220   53.5280 N   0  0  0  0  0  0  0  0  0  0  0  0
   54.0640   30.5080   52.9250 C   0  0  0  0  0  0  0  0  0  0  0  0
   54.0310   30.8670   51.5560 C   0  0  0  0  0  0  0  0  0  0  0  0
   52.9000   31.4700   50.9930 C   0  0  0  0  0  0  0  0  0  0  0  0
   51.7720   31.7180   51.7720 C   0  0  0  0  0  0  0  0  0  0  0  0
   50.6480   32.3280   51.2090 O   0  0  0  0  0  0  0  0  0  0  0  0
   51.7740   31.3580   53.1220 C   0  0  0  0  0  0  0  0  0  0  0  0
   52.9010   30.7550   53.6930 C   0  0  0  0  0  0  0  0  0  0  0  0
   56.2880   29.3160   52.6520 C   0  0  0  0  0  0  0  0  0  0  0  0
   57.4360   28.5920   53.3890 C   0  0  0  0  0  0  0  0  0  0  0  0
   57.0012   32.4672   53.5533 H   0  0  0  0  0  0  0  0  0  0  0  0
   57.1987   33.5070   51.2955 H   0  0  0  0  0  0  0  0  0  0  0  0
   60.6740   34.2267   49.9984 H   0  0  0  0  0  0  0  0  0  0  0  0
   60.9031   35.3730   47.7946 H   0  0  0  0  0  0  0  0  0  0  0  0
   59.4779   34.6761   45.8682 H   0  0  0  0  0  0  0  0  0  0  0  0
   57.7802   32.8727   46.1627 H   0  0  0  0  0  0  0  0  0  0  0  0
   57.4527   31.8085   48.3935 H   0  0  0  0  0  0  0  0  0  0  0  0
   60.5273   30.8676   50.3764 H   0  0  0  0  0  0  0  0  0  0  0  0
   60.2733   29.7786   52.6018 H   0  0  0  0  0  0  0  0  0  0  0  0
   58.4380   28.4930   55.1470 H   0  0  0  0  0  0  0  0  0  0  0  0
   56.2080   28.2773   55.7230 H   0  0  0  0  0  0  0  0  0  0  0  0
   56.9388   29.7550   56.5007 H   0  0  0  0  0  0  0  0  0  0  0  0
   54.5789   29.9702   55.5224 H   0  0  0  0  0  0  0  0  0  0  0  0
   55.8456   31.2082   55.0652 H   0  0  0  0  0  0  0  0  0  0  0  0
   54.9091   30.6687   50.9238 H   0  0  0  0  0  0  0  0  0  0  0  0
   52.9020   31.7497   49.9291 H   0  0  0  0  0  0  0  0  0  0  0  0
   50.8845   31.5496   53.7401 H   0  0  0  0  0  0  0  0  0  0  0  0
   52.8824   30.4687   54.7549 H   0  0  0  0  0  0  0  0  0  0  0  0
   55.7905   28.5858   51.9968 H   0  0  0  0  0  0  0  0  0  0  0  0
   56.7539   30.1502   52.1070 H   0  0  0  0  0  0  0  0  0  0  0  0
   57.1323   27.5483   53.5580 H   0  0  0  0  0  0  0  0  0  0  0  0
   58.3260   28.6809   52.7486 H   0  0  0  0  0  0  0  0  0  0  0  0
  1  2  2  0
  2  3  1  0
  3  4  2  0
  4  5  1  0
  5  6  2  0
  6  7  1  0
  7  8  2  0
  8  9  1  0
  9 10  2  0
 10 11  1  0
 11 12  2  0
  6 13  1  0
 13 14  2  0
  2 15  1  0
 15 16  1  0
 16 17  1  0
 17 18  1  0
 18 19  1  0
 19 20  2  0
 20 21  1  0
 21 22  2  0
 22 23  1  0
 22 24  1  0
 24 25  2  0
 18 26  1  0
 26 27  1  0
 14  3  1  0
 27 15  1  0
 12  7  1  0
 25 19  1  0
  4 28  1  0
  5 29  1  0
  8 30  1  0
  9 31  1  0
 10 32  1  0
 11 33  1  0
 12 34  1  0
 13 35  1  0
 14 36  1  0
 15 37  1  0
 16 38  1  0
 16 39  1  0
 17 40  1  0
 17 41  1  0
 20 42  1  0
 21 43  1  0
 24 44  1  0
 25 45  1  0
 26 46  1  0
 26 47  1  0
 27 48  1  0
 27 49  1  0
M  CHG  2  15   1  23  -1
M  END
>  <UniqueID>  (40) 
36

>  <SMILES>  (40) 
O=C(c1ccc(-c2ccccc2)cc1)[NH+]1CCN(c2ccc([O-])cc2)CC1

>  <Energy>  (40) 
79.57742291223643

>  <Genealogy>  (40) 
O=C(c1ccc(-c2ccccc2)cc1)[NH+]1CCN(c2ccc([O-])cc2)CC1 (protonated)
O=C(c1ccc(-c2ccccc2)cc1)[NH+]1CCN(c2ccc([O-])cc2)CC1 (3D coordinates assigned)
O=C(c1ccc(-c2ccccc2)cc1)[NH+]1CCN(c2ccc([O-])cc2)CC1 (nonaromatic ring conformer: 79.57742291223643 kcal/mol)

>  <smiles>  (40) 
O=C(c1ccc(-c2ccccc2)cc1)N1CCN(c2ccc(O)cc2)CC1

>  <score_type>  (40) 
oracle

>  <origin>  (40) 
adg

>  <m_score__min__energy>  (40) 
-9.9199999999999999

>  <m_primary>  (40) 
energy

$$$$
40:0
     RDKit          3D

 48 51  0  0  0  0  0  0  0  0999 V2000
   61.0918   28.1112   47.4869 H   0  0  0  0  0  0  0  0  0  0  0  0
   60.2330   27.8060   46.8710 C   0  0  0  0  0  0  0  0  0  0  0  0
   60.1207   26.7551   46.5660 H   0  0  0  0  0  0  0  0  0  0  0  0
   59.3230   28.7150   46.4920 C   0  0  0  0  0  0  0  0  0  0  0  0
   58.1840   28.4810   45.7130 C   0  0  0  0  0  0  0  0  0  0  0  0
   57.7500   27.2970   45.2390 C   0  0  0  0  0  0  0  0  0  0  0  0
   57.7977   27.1264   44.1534 H   0  0  0  0  0  0  0  0  0  0  0  0
   57.2150   26.2160   46.0870 C   0  0  0  0  0  0  0  0  0  0  0  0
   55.8950   25.9520   46.3980 C   0  0  0  0  0  0  0  0  0  0  0  0
   54.7940   26.6960   45.9910 O   0  0  0  0  0  0  0  0  0  0  0  0
   55.7990   24.8210   47.1220 N   0  0  0  0  0  0  0  0  0  0  0  0
   57.0830   24.4130   47.2150 C   0  0  0  0  0  0  0  0  0  0  0  0
   57.4260   23.3660   47.8230 O   0  0  0  0  0  0  0  0  0  0  0  0
   57.9620   25.2210   46.5890 N   0  0  0  0  0  0  0  0  0  0  0  0
   58.9960   25.0980   46.5110 H   0  0  0  0  0  0  0  0  0  0  0  0
   57.5510   29.7100   45.5700 C   0  0  0  0  0  0  0  0  0  0  0  0
   56.6194   29.9095   45.0202 H   0  0  0  0  0  0  0  0  0  0  0  0
   58.3200   30.6320   46.2530 C   0  0  0  0  0  0  0  0  0  0  0  0
   58.0060   32.0920   46.3690 C   0  0  0  0  0  0  0  0  0  0  0  0
   57.9460   32.3709   47.4314 H   0  0  0  0  0  0  0  0  0  0  0  0
   58.7988   32.6775   45.8804 H   0  0  0  0  0  0  0  0  0  0  0  0
   57.0426   32.2998   45.8804 H   0  0  0  0  0  0  0  0  0  0  0  0
   59.3960   30.0310   46.8020 N   0  0  0  0  0  0  0  0  0  0  0  0
   60.4090   30.6820   47.5890 C   0  0  0  0  0  0  0  0  0  0  0  0
   61.5270   31.2270   46.9570 C   0  0  0  0  0  0  0  0  0  0  0  0
   61.6217   31.1590   45.8632 H   0  0  0  0  0  0  0  0  0  0  0  0
   62.5270   31.8580   47.7000 C   0  0  0  0  0  0  0  0  0  0  0  0
   63.4001   32.2813   47.1818 H   0  0  0  0  0  0  0  0  0  0  0  0
   62.4360   31.9620   49.1080 C   0  0  0  0  0  0  0  0  0  0  0  0
   63.4830   32.6180   49.8880 N   0  0  0  0  0  0  0  0  0  0  0  0
   64.8850   32.1710   49.7410 C   0  0  0  0  0  0  0  0  0  0  0  0
   64.9522   31.1237   50.0706 H   0  0  0  0  0  0  0  0  0  0  0  0
   65.1530   32.2948   48.6814 H   0  0  0  0  0  0  0  0  0  0  0  0
   65.8820   32.9990   50.5550 C   0  0  0  0  0  0  0  0  0  0  0  0
   66.7977   32.4094   50.7096 H   0  0  0  0  0  0  0  0  0  0  0  0
   66.1070   33.9216   49.9999 H   0  0  0  0  0  0  0  0  0  0  0  0
   65.3430   33.3490   51.8070 O   0  0  0  0  0  0  0  0  0  0  0  0
   64.3050   34.2770   51.5980 C   0  0  0  0  0  0  0  0  0  0  0  0
   63.9862   34.6851   52.5685 H   0  0  0  0  0  0  0  0  0  0  0  0
   64.6786   35.0808   50.9467 H   0  0  0  0  0  0  0  0  0  0  0  0
   63.1050   33.6120   50.9150 C   0  0  0  0  0  0  0  0  0  0  0  0
   62.5040   33.1053   51.6845 H   0  0  0  0  0  0  0  0  0  0  0  0
   62.5446   34.4077   50.4022 H   0  0  0  0  0  0  0  0  0  0  0  0
   61.2880   31.4140   49.7320 C   0  0  0  0  0  0  0  0  0  0  0  0
   61.1812   31.4868   50.8244 H   0  0  0  0  0  0  0  0  0  0  0  0
   60.2860   30.7810   48.9840 C   0  0  0  0  0  0  0  0  0  0  0  0
   59.1250   30.2550   49.6590 C   0  0  0  0  0  0  0  0  0  0  0  0
   58.1940   29.8310   50.2000 N   0  0  0  0  0  0  0  0  0  0  0  0
  1  2  1  0
  2  3  1  0
  2  4  2  0
  4  5  1  0
  5  6  2  0
  6  7  1  0
  6  8  1  0
  8  9  2  0
  9 10  1  0
  9 11  1  0
 11 12  1  0
 12 13  2  0
 12 14  1  0
 14 15  1  0
  5 16  1  0
 16 17  1  0
 16 18  2  0
 18 19  1  0
 19 20  1  0
 19 21  1  0
 19 22  1  0
 18 23  1  0
 23 24  1  0
 24 25  2  0
 25 26  1  0
 25 27  1  0
 27 28  1  0
 27 29  2  0
 29 30  1  0
 30 31  1  0
 31 32  1  0
 31 33  1  0
 31 34  1  0
 34 35  1  0
 34 36  1  0
 34 37  1  0
 37 38  1  0
 38 39  1  0
 38 40  1  0
 38 41  1  0
 41 42  1  0
 41 43  1  0
 29 44  1  0
 44 45  1  0
 44 46  2  0
 46 47  1  0
 47 48  3  0
 23  4  1  0
 46 24  1  0
 14  8  1  0
 41 30  1  0
M  CHG  2  10  -1  11  -1
M  END
>  <UniqueID>  (41) 
37

>  <SMILES>  (41) 
C=c1/c(=C/c2[nH]c(=O)[n-]c2[O-])cc(C)n1-c1ccc(N2CCOCC2)cc1C#N

>  <Energy>  (41) 
131.40334574085264

>  <Genealogy>  (41) 
C=c1c(=Cc2[nH]c(=O)[n-]c2[O-])cc(C)n1-c1ccc(N2CCOCC2)cc1C#N (protonated)
C=c1/c(=C/c2[nH]c(=O)[n-]c2[O-])cc(C)n1-c1ccc(N2CCOCC2)cc1C#N (cis-trans isomerization)
C=c1/c(=C/c2[nH]c(=O)[n-]c2[O-])cc(C)n1-c1ccc(N2CCOCC2)cc1C#N (3D coordinates assigned)
C=c1/c(=C/c2[nH]c(=O)[n-]c2[O-])cc(C)n1-c1ccc(N2CCOCC2)cc1C#N (nonaromatic ring conformer: 131.40334574085264 kcal/mol)

>  <smiles>  (41) 
C=c1c(=Cc2[nH]c(=O)[nH]c2O)cc(C)n1-c1ccc(N2CCOCC2)cc1C#N

>  <score_type>  (41) 
oracle

>  <origin>  (41) 
adg

>  <m_score__min__energy>  (41) 
-13.41

>  <m_primary>  (41) 
energy

$$$$
41:0
     RDKit          3D

 44 47  0  0  0  0  0  0  0  0999 V2000
   57.1940   23.1610   48.3670 O   0  0  0  0  0  0  0  0  0  0  0  0
   57.0670   24.2270   47.7120 C   0  0  0  0  0  0  0  0  0  0  0  0
   55.9270   24.4590   47.0100 N   0  0  0  0  0  0  0  0  0  0  0  0
   55.7600   25.6010   46.2930 C   0  0  0  0  0  0  0  0  0  0  0  0
   54.6870   25.7760   45.6540 O   0  0  0  0  0  0  0  0  0  0  0  0
   56.7820   26.5650   46.2700 C   0  0  0  0  0  0  0  0  0  0  0  0
   56.6700   27.7670   45.5490 C   0  0  0  0  0  0  0  0  0  0  0  0
   57.7230   28.7000   45.5550 C   0  0  0  0  0  0  0  0  0  0  0  0
   57.6060   29.9720   44.8020 C   0  0  0  0  0  0  0  0  0  0  0  0
   57.3070   29.9330   43.4320 C   0  0  0  0  0  0  0  0  0  0  0  0
   57.2170   31.1120   42.6950 C   0  0  0  0  0  0  0  0  0  0  0  0
   57.4100   32.3440   43.3160 C   0  0  0  0  0  0  0  0  0  0  0  0
   57.6820   32.4160   44.6920 C   0  0  0  0  0  0  0  0  0  0  0  0
   57.8810   34.0060   45.4460 S   0  0  0  0  0  0  0  0  0  0  0  0
   57.5750   33.8890   46.9120 O   0  0  0  0  0  0  0  0  0  0  0  0
   56.9320   34.9900   44.8180 O   0  0  0  0  0  0  0  0  0  0  0  0
   59.5160   34.5830   45.2720 N   0  0  0  0  0  0  0  0  0  0  0  0
   60.1130   34.8840   46.5750 C   0  0  0  0  0  0  0  0  0  0  0  0
   60.3100   33.6220   47.3710 C   0  0  0  0  0  0  0  0  0  0  0  0
   59.8480   33.5440   48.6960 C   0  0  0  0  0  0  0  0  0  0  0  0
   60.0260   32.3720   49.4370 C   0  0  0  0  0  0  0  0  0  0  0  0
   60.6620   31.2680   48.8620 C   0  0  0  0  0  0  0  0  0  0  0  0
   60.8850   29.7990   49.7930 Cl  0  0  0  0  0  0  0  0  0  0  0  0
   61.1190   31.3360   47.5410 C   0  0  0  0  0  0  0  0  0  0  0  0
   60.9420   32.5060   46.7970 C   0  0  0  0  0  0  0  0  0  0  0  0
   57.7940   31.2190   45.4410 C   0  0  0  0  0  0  0  0  0  0  0  0
   58.0780   31.2360   46.8110 O   0  0  0  0  0  0  0  0  0  0  0  0
   58.8810   28.4260   46.3020 C   0  0  0  0  0  0  0  0  0  0  0  0
   58.9970   27.2330   47.0210 C   0  0  0  0  0  0  0  0  0  0  0  0
   57.9550   26.3020   47.0090 C   0  0  0  0  0  0  0  0  0  0  0  0
   58.0690   25.1440   47.7090 N   0  0  0  0  0  0  0  0  0  0  0  0
   55.7544   27.9789   44.9774 H   0  0  0  0  0  0  0  0  0  0  0  0
   57.1425   28.9650   42.9362 H   0  0  0  0  0  0  0  0  0  0  0  0
   56.9927   31.0699   41.6189 H   0  0  0  0  0  0  0  0  0  0  0  0
   57.3488   33.2687   42.7234 H   0  0  0  0  0  0  0  0  0  0  0  0
   61.0874   35.3711   46.4225 H   0  0  0  0  0  0  0  0  0  0  0  0
   59.4369   35.5514   47.1295 H   0  0  0  0  0  0  0  0  0  0  0  0
   59.3441   34.4089   49.1520 H   0  0  0  0  0  0  0  0  0  0  0  0
   59.6648   32.3185   50.4746 H   0  0  0  0  0  0  0  0  0  0  0  0
   61.6184   30.4672   47.0874 H   0  0  0  0  0  0  0  0  0  0  0  0
   61.2990   32.5533   45.7576 H   0  0  0  0  0  0  0  0  0  0  0  0
   58.2040   32.0820   47.3480 H   0  0  0  0  0  0  0  0  0  0  0  0
   59.7032   29.1565   46.3211 H   0  0  0  0  0  0  0  0  0  0  0  0
   59.9107   27.0265   47.5977 H   0  0  0  0  0  0  0  0  0  0  0  0
  1  2  2  0
  2  3  1  0
  3  4  1  0
  4  5  2  0
  4  6  1  0
  6  7  2  0
  7  8  1  0
  8  9  1  0
  9 10  2  0
 10 11  1  0
 11 12  2  0
 12 13  1  0
 13 14  1  0
 14 15  2  0
 14 16  2  0
 14 17  1  0
 17 18  1  0
 18 19  1  0
 19 20  2  0
 20 21  1  0
 21 22  2  0
 22 23  1  0
 22 24  1  0
 24 25  2  0
 13 26  2  0
 26 27  1  0
  8 28  2  0
 28 29  1  0
 29 30  2  0
 30 31  1  0
 31  2  1  0
 30  6  1  0
 26  9  1  0
 25 19  1  0
  7 32  1  0
 10 33  1  0
 11 34  1  0
 12 35  1  0
 18 36  1  0
 18 37  1  0
 20 38  1  0
 21 39  1  0
 24 40  1  0
 25 41  1  0
 27 42  1  0
 28 43  1  0
 29 44  1  0
M  CHG  3   3  -1  17  -1  31  -1
M  END
>  <UniqueID>  (42) 
38

>  <SMILES>  (42) 
O=c1[n-]c(=O)c2cc(-c3cccc(S(=O)(=O)[N-]Cc4ccc(Cl)cc4)c3O)ccc2[n-]1

>  <Energy>  (42) 
62.21622924838707

>  <Genealogy>  (42) 
O=c1[n-]c(=O)c2cc(-c3cccc(S(=O)(=O)[N-]Cc4ccc(Cl)cc4)c3O)ccc2[n-]1 (protonated)
O=c1[n-]c(=O)c2cc(-c3cccc(S(=O)(=O)[N-]Cc4ccc(Cl)cc4)c3O)ccc2[n-]1 (3D coordinates assigned)
O=c1[n-]c(=O)c2cc(-c3cccc(S(=O)(=O)[N-]Cc4ccc(Cl)cc4)c3O)ccc2[n-]1 (optimized conformer: 62.21622924838707 kcal/mol)

>  <smiles>  (42) 
O=c1[nH]c(=O)c2cc(-c3cccc(S(=O)(=O)NCc4ccc(Cl)cc4)c3O)ccc2[nH]1

>  <score_type>  (42) 
oracle

>  <origin>  (42) 
adg

>  <m_score__min__energy>  (42) 
-14.619999999999999

>  <m_primary>  (42) 
energy

$$$$
42:0
     RDKit          3D

 51 54  0  0  0  0  0  0  0  0999 V2000
   60.9600   29.1660   49.3360 H   0  0  0  0  0  0  0  0  0  0  0  0
   60.3880   28.3730   48.9680 N   0  0  0  0  0  0  0  0  0  0  0  0
   59.5910   28.9430   47.5430 S   0  0  0  0  0  0  0  0  0  0  0  0
   58.4710   29.8530   47.9630 O   0  0  0  0  0  0  0  0  0  0  0  0
   60.5600   29.7210   46.6980 O   0  0  0  0  0  0  0  0  0  0  0  0
   58.9440   27.5820   46.6080 C   0  0  0  0  0  0  0  0  0  0  0  0
   59.3550   26.2820   46.9460 C   0  0  0  0  0  0  0  0  0  0  0  0
   60.0035   26.1257   47.8207 H   0  0  0  0  0  0  0  0  0  0  0  0
   58.9480   25.1860   46.1820 C   0  0  0  0  0  0  0  0  0  0  0  0
   59.2741   24.1724   46.4581 H   0  0  0  0  0  0  0  0  0  0  0  0
   58.1290   25.3750   45.0700 C   0  0  0  0  0  0  0  0  0  0  0  0
   57.8202   24.5120   44.4619 H   0  0  0  0  0  0  0  0  0  0  0  0
   57.7010   26.6570   44.7280 C   0  0  0  0  0  0  0  0  0  0  0  0
   57.0567   26.7998   43.8479 H   0  0  0  0  0  0  0  0  0  0  0  0
   58.0850   27.7680   45.4970 C   0  0  0  0  0  0  0  0  0  0  0  0
   57.6090   29.0980   45.0810 C   0  0  0  0  0  0  0  0  0  0  0  0
   58.6050   30.4120   44.7720 S   0  0  0  0  0  0  0  0  0  0  0  0
   57.3060   31.4370   44.4230 C   0  0  0  0  0  0  0  0  0  0  0  0
   57.3830   32.6960   44.0950 N   0  0  0  0  0  0  0  0  0  0  0  0
   57.9200   33.7480   44.9160 C   0  0  0  0  0  0  0  0  0  0  0  0
   57.7620   34.9450   44.5570 O   0  0  0  0  0  0  0  0  0  0  0  0
   58.6190   33.4570   46.1820 C   0  0  0  0  0  0  0  0  0  0  0  0
   57.8820   33.1900   47.3480 C   0  0  0  0  0  0  0  0  0  0  0  0
   56.7946   33.3557   47.3590 H   0  0  0  0  0  0  0  0  0  0  0  0
   58.5250   32.7150   48.4930 C   0  0  0  0  0  0  0  0  0  0  0  0
   57.9447   32.5185   49.4066 H   0  0  0  0  0  0  0  0  0  0  0  0
   59.9080   32.4880   48.4810 C   0  0  0  0  0  0  0  0  0  0  0  0
   60.6850   31.6860   49.8490 S   0  0  0  0  0  0  0  0  0  0  0  0
   61.9920   31.0970   49.3960 O   0  0  0  0  0  0  0  0  0  0  0  0
   60.9770   32.7060   50.9150 O   0  0  0  0  0  0  0  0  0  0  0  0
   59.6880   30.4160   50.5210 N   0  0  0  0  0  0  0  0  0  0  0  0
   59.5900   29.6610   49.8000 H   0  0  0  0  0  0  0  0  0  0  0  0
   58.3540   30.8870   50.9020 C   0  0  0  0  0  0  0  0  0  0  0  0
   58.4060   31.9291   51.2503 H   0  0  0  0  0  0  0  0  0  0  0  0
   57.6649   30.8527   50.0453 H   0  0  0  0  0  0  0  0  0  0  0  0
   57.8690   29.9810   52.0290 C   0  0  0  0  0  0  0  0  0  0  0  0
   57.4196   30.5786   52.8358 H   0  0  0  0  0  0  0  0  0  0  0  0
   57.0978   29.2773   51.6826 H   0  0  0  0  0  0  0  0  0  0  0  0
   59.1080   29.2560   52.5320 C   0  0  0  0  0  0  0  0  0  0  0  0
   59.2504   29.4383   53.6074 H   0  0  0  0  0  0  0  0  0  0  0  0
   59.0261   28.1670   52.4005 H   0  0  0  0  0  0  0  0  0  0  0  0
   60.2670   29.8360   51.7360 C   0  0  0  0  0  0  0  0  0  0  0  0
   60.7789   30.6137   52.3218 H   0  0  0  0  0  0  0  0  0  0  0  0
   61.0094   29.0617   51.4925 H   0  0  0  0  0  0  0  0  0  0  0  0
   60.6560   32.8390   47.3480 C   0  0  0  0  0  0  0  0  0  0  0  0
   61.7505   32.7294   47.3582 H   0  0  0  0  0  0  0  0  0  0  0  0
   60.0150   33.3280   46.2050 C   0  0  0  0  0  0  0  0  0  0  0  0
   60.6072   33.6119   45.3225 H   0  0  0  0  0  0  0  0  0  0  0  0
   56.1250   30.7840   44.4930 N   0  0  0  0  0  0  0  0  0  0  0  0
   56.2880   29.4840   44.8620 C   0  0  0  0  0  0  0  0  0  0  0  0
   55.4417   28.7911   44.9784 H   0  0  0  0  0  0  0  0  0  0  0  0
  1  2  1  0
  2  3  1  0
  3  4  2  0
  3  5  2  0
  3  6  1  0
  6  7  2  0
  7  8  1  0
  7  9  1  0
  9 10  1  0
  9 11  2  0
 11 12  1  0
 11 13  1  0
 13 14  1  0
 13 15  2  0
 15 16  1  0
 16 17  1  0
 17 18  1  0
 18 19  2  0
 19 20  1  0
 20 21  2  0
 20 22  1  0
 22 23  2  0
 23 24  1  0
 23 25  1  0
 25 26  1  0
 25 27  2  0
 27 28  1  0
 28 29  2  0
 28 30  2  0
 28 31  1  0
 31 32  1  0
 31 33  1  0
 33 34  1  0
 33 35  1  0
 33 36  1  0
 36 37  1  0
 36 38  1  0
 36 39  1  0
 39 40  1  0
 39 41  1  0
 39 42  1  0
 42 43  1  0
 42 44  1  0
 27 45  1  0
 45 46  1  0
 45 47  2  0
 47 48  1  0
 18 49  1  0
 49 50  1  0
 50 51  1  0
 15  6  1  0
 50 16  2  0
 47 22  1  0
 42 31  1  0
M  CHG  3   2  -1  31   1  49  -1
M  END
>  <UniqueID>  (43) 
39

>  <SMILES>  (43) 
[NH-]S(=O)(=O)c1ccccc1-c1c[n-]/c(=N/C(=O)c2ccc(S(=O)(=O)[NH+]3CCCC3)cc2)s1

>  <Energy>  (43) 
98.92474500073301

>  <Genealogy>  (43) 
[NH-]S(=O)(=O)c1ccccc1-c1c[n-]c(=NC(=O)c2ccc(S(=O)(=O)[NH+]3CCCC3)cc2)s1 (protonated)
[NH-]S(=O)(=O)c1ccccc1-c1c[n-]/c(=N/C(=O)c2ccc(S(=O)(=O)[NH+]3CCCC3)cc2)s1 (cis-trans isomerization)
[NH-]S(=O)(=O)c1ccccc1-c1c[n-]/c(=N/C(=O)c2ccc(S(=O)(=O)[NH+]3CCCC3)cc2)s1 (3D coordinates assigned)
[NH-]S(=O)(=O)c1ccccc1-c1c[n-]/c(=N/C(=O)c2ccc(S(=O)(=O)[NH+]3CCCC3)cc2)s1 (nonaromatic ring conformer: 98.92474500073301 kcal/mol)

>  <smiles>  (43) 
NS(=O)(=O)c1ccccc1-c1c[nH]c(=NC(=O)c2ccc(S(=O)(=O)N3CCCC3)cc2)s1

>  <score_type>  (43) 
oracle

>  <origin>  (43) 
adg

>  <m_score__min__energy>  (43) 
-11.83

>  <m_primary>  (43) 
energy

$$$$
43:0
     RDKit          3D

 59 61  0  0  0  0  0  0  0  0999 V2000
   57.2657   29.9965   44.5706 H   0  0  0  0  0  0  0  0  0  0  0  0
   57.2160   28.9510   44.9090 C   0  0  0  0  0  0  0  0  0  0  0  0
   56.0500   28.3440   45.2540 N   0  0  0  0  0  0  0  0  0  0  0  0
   56.2550   27.0610   45.6350 C   0  0  0  0  0  0  0  0  0  0  0  0
   55.3100   26.2590   46.0180 N   0  0  0  0  0  0  0  0  0  0  0  0
   55.3940   24.8330   45.9440 C   0  0  0  0  0  0  0  0  0  0  0  0
   55.4830   24.1660   47.0070 O   0  0  0  0  0  0  0  0  0  0  0  0
   55.3270   24.1420   44.6890 N   0  0  0  0  0  0  0  0  0  0  0  0
   56.4240   24.0280   43.7340 C   0  0  0  0  0  0  0  0  0  0  0  0
   57.3656   24.3005   44.2331 H   0  0  0  0  0  0  0  0  0  0  0  0
   56.2264   24.7049   42.8897 H   0  0  0  0  0  0  0  0  0  0  0  0
   56.5360   22.6030   43.2000 C   0  0  0  0  0  0  0  0  0  0  0  0
   56.5914   21.8988   44.0432 H   0  0  0  0  0  0  0  0  0  0  0  0
   55.6533   22.3711   42.5859 H   0  0  0  0  0  0  0  0  0  0  0  0
   57.4441   22.5119   42.5859 H   0  0  0  0  0  0  0  0  0  0  0  0
   57.8740   26.6160   45.5520 S   0  0  0  0  0  0  0  0  0  0  0  0
   58.3400   28.1420   45.0190 C   0  0  0  0  0  0  0  0  0  0  0  0
   60.0280   28.6510   44.7190 S   0  0  0  0  0  0  0  0  0  0  0  0
   60.1220   29.5170   46.2850 C   0  0  0  0  0  0  0  0  0  0  0  0
   61.1200   30.4700   46.5040 C   0  0  0  0  0  0  0  0  0  0  0  0
   61.8388   30.7045   45.7051 H   0  0  0  0  0  0  0  0  0  0  0  0
   61.2080   31.1260   47.7340 C   0  0  0  0  0  0  0  0  0  0  0  0
   61.9986   31.8733   47.8966 H   0  0  0  0  0  0  0  0  0  0  0  0
   60.2950   30.8410   48.7690 C   0  0  0  0  0  0  0  0  0  0  0  0
   60.4050   31.5680   50.0650 C   0  0  0  0  0  0  0  0  0  0  0  0
   60.2300   30.9140   51.1320 O   0  0  0  0  0  0  0  0  0  0  0  0
   60.7570   32.9790   50.1360 N   0  0  1  0  0  0  0  0  0  0  0  0
   61.4910   33.1390   49.4090 H   0  0  0  0  0  0  0  0  0  0  0  0
   59.6630   33.8860   49.6870 C   0  0  0  0  0  0  0  0  0  0  0  0
   58.7729   33.6684   50.2956 H   0  0  0  0  0  0  0  0  0  0  0  0
   60.0514   34.9075   49.8120 H   0  0  0  0  0  0  0  0  0  0  0  0
   59.2680   33.7710   48.2270 C   0  0  0  0  0  0  0  0  0  0  0  0
   59.9820   34.4710   47.2390 C   0  0  0  0  0  0  0  0  0  0  0  0
   60.8390   35.0979   47.5263 H   0  0  0  0  0  0  0  0  0  0  0  0
   59.6120   34.3770   45.8950 C   0  0  0  0  0  0  0  0  0  0  0  0
   60.1931   34.9109   45.1287 H   0  0  0  0  0  0  0  0  0  0  0  0
   58.5030   33.6050   45.5180 C   0  0  0  0  0  0  0  0  0  0  0  0
   58.1320   33.4710   44.0650 C   0  0  0  0  0  0  0  0  0  0  0  0
   57.2202   34.0545   43.8698 H   0  0  0  0  0  0  0  0  0  0  0  0
   58.9640   33.8467   43.4513 H   0  0  0  0  0  0  0  0  0  0  0  0
   57.8780   32.0090   43.7060 C   0  0  0  0  0  0  0  0  0  0  0  0
   57.7753   31.4176   44.6278 H   0  0  0  0  0  0  0  0  0  0  0  0
   56.9530   31.9317   43.1158 H   0  0  0  0  0  0  0  0  0  0  0  0
   58.7228   31.6243   43.1158 H   0  0  0  0  0  0  0  0  0  0  0  0
   57.7710   32.9260   46.5030 C   0  0  0  0  0  0  0  0  0  0  0  0
   56.9027   32.3148   46.2157 H   0  0  0  0  0  0  0  0  0  0  0  0
   58.1390   33.0220   47.8470 C   0  0  0  0  0  0  0  0  0  0  0  0
   57.5415   32.5081   48.6144 H   0  0  0  0  0  0  0  0  0  0  0  0
   61.3900   33.3640   51.4280 C   0  0  0  0  0  0  0  0  0  0  0  0
   60.8935   34.2758   51.7914 H   0  0  0  0  0  0  0  0  0  0  0  0
   61.2672   32.4993   52.0968 H   0  0  0  0  0  0  0  0  0  0  0  0
   62.9020   33.6400   51.3620 C   0  0  0  0  0  0  0  0  0  0  0  0
   63.3061   33.7138   52.3824 H   0  0  0  0  0  0  0  0  0  0  0  0
   63.4018   32.8182   50.8282 H   0  0  0  0  0  0  0  0  0  0  0  0
   63.0792   34.5853   50.8282 H   0  0  0  0  0  0  0  0  0  0  0  0
   59.2820   29.8890   48.5290 C   0  0  0  0  0  0  0  0  0  0  0  0
   58.5491   29.6619   49.3172 H   0  0  0  0  0  0  0  0  0  0  0  0
   59.2020   29.2320   47.2980 C   0  0  0  0  0  0  0  0  0  0  0  0
   58.4112   28.4871   47.1255 H   0  0  0  0  0  0  0  0  0  0  0  0
  1  2  1  0
  2  3  1  0
  3  4  1  0
  4  5  2  0
  5  6  1  0
  6  7  2  0
  6  8  1  0
  8  9  1  0
  9 10  1  0
  9 11  1  0
  9 12  1  0
 12 13  1  0
 12 14  1  0
 12 15  1  0
  4 16  1  0
 16 17  1  0
 17 18  1  0
 18 19  1  0
 19 20  2  0
 20 21  1  0
 20 22  1  0
 22 23  1  0
 22 24  2  0
 24 25  1  0
 25 26  2  0
 25 27  1  0
 27 28  1  6
 27 29  1  0
 29 30  1  0
 29 31  1  0
 29 32  1  0
 32 33  2  0
 33 34  1  0
 33 35  1  0
 35 36  1  0
 35 37  2  0
 37 38  1  0
 38 39  1  0
 38 40  1  0
 38 41  1  0
 41 42  1  0
 41 43  1  0
 41 44  1  0
 37 45  1  0
 45 46  1  0
 45 47  2  0
 47 48  1  0
 27 49  1  0
 49 50  1  0
 49 51  1  0
 49 52  1  0
 52 53  1  0
 52 54  1  0
 52 55  1  0
 24 56  1  0
 56 57  1  0
 56 58  2  0
 58 59  1  0
 17  2  2  0
 58 19  1  0
 47 32  1  0
M  CHG  3   3  -1   8  -1  27   1
M  END
>  <UniqueID>  (44) 
40

>  <SMILES>  (44) 
CC[N-]C(=O)/N=c1\[n-]cc(Sc2ccc(C(=O)[N@H+](CC)Cc3ccc(CC)cc3)cc2)s1

>  <Energy>  (44) 
99.95963986560679

>  <Genealogy>  (44) 
CC[N-]C(=O)N=c1[n-]cc(Sc2ccc(C(=O)[NH+](CC)Cc3ccc(CC)cc3)cc2)s1 (protonated)
CC[N-]C(=O)N=c1[n-]cc(Sc2ccc(C(=O)[N@H+](CC)Cc3ccc(CC)cc3)cc2)s1 (chirality)
CC[N-]C(=O)/N=c1\[n-]cc(Sc2ccc(C(=O)[N@H+](CC)Cc3ccc(CC)cc3)cc2)s1 (cis-trans isomerization)
CC[N-]C(=O)/N=c1\[n-]cc(Sc2ccc(C(=O)[N@H+](CC)Cc3ccc(CC)cc3)cc2)s1 (3D coordinates assigned)
CC[N-]C(=O)/N=c1\[n-]cc(Sc2ccc(C(=O)[N@H+](CC)Cc3ccc(CC)cc3)cc2)s1 (optimized conformer: 99.95963986560679 kcal/mol)

>  <smiles>  (44) 
CCNC(=O)N=c1[nH]cc(Sc2ccc(C(=O)N(CC)Cc3ccc(CC)cc3)cc2)s1

>  <score_type>  (44) 
oracle

>  <origin>  (44) 
adg

>  <m_score__min__energy>  (44) 
-11.15

>  <m_primary>  (44) 
energy

$$$$
44:0
     RDKit          3D

 30 32  0  0  0  0  0  0  0  0999 V2000
   58.9080   32.6070   50.1070 C   0  0  0  0  0  0  0  0  0  0  0  0
   59.3820   33.6760   49.2940 O   0  0  0  0  0  0  0  0  0  0  0  0
   60.6420   33.7080   48.6710 C   0  0  0  0  0  0  0  0  0  0  0  0
   61.7810   34.2120   49.3340 C   0  0  0  0  0  0  0  0  0  0  0  0
   63.0270   34.2020   48.7050 C   0  0  0  0  0  0  0  0  0  0  0  0
   63.1570   33.6920   47.4140 C   0  0  0  0  0  0  0  0  0  0  0  0
   62.0380   33.1940   46.7430 C   0  0  0  0  0  0  0  0  0  0  0  0
   60.7730   33.2050   47.3580 C   0  0  0  0  0  0  0  0  0  0  0  0
   59.6000   32.6830   46.6160 C   0  0  0  0  0  0  0  0  0  0  0  0
   58.7950   33.5480   45.8510 C   0  0  0  0  0  0  0  0  0  0  0  0
   57.6950   33.0560   45.1450 C   0  0  0  0  0  0  0  0  0  0  0  0
   57.3850   31.6930   45.1900 C   0  0  0  0  0  0  0  0  0  0  0  0
   56.3160   31.2100   44.5050 N   0  0  0  0  0  0  0  0  0  0  0  0
   56.0060   29.8870   44.5390 C   0  0  0  0  0  0  0  0  0  0  0  0
   55.0110   29.4600   43.8990 O   0  0  0  0  0  0  0  0  0  0  0  0
   56.7670   29.0260   45.2640 N   0  0  0  0  0  0  0  0  0  0  0  0
   57.8470   29.4610   45.9650 C   0  0  0  0  0  0  0  0  0  0  0  0
   58.1870   30.8170   45.9450 C   0  0  0  0  0  0  0  0  0  0  0  0
   59.2910   31.3110   46.6540 C   0  0  0  0  0  0  0  0  0  0  0  0
   59.0259   32.8730   51.1678 H   0  0  0  0  0  0  0  0  0  0  0  0
   57.8449   32.4252   49.8905 H   0  0  0  0  0  0  0  0  0  0  0  0
   59.4870   31.6971   49.8905 H   0  0  0  0  0  0  0  0  0  0  0  0
   61.6864   34.6153   50.3530 H   0  0  0  0  0  0  0  0  0  0  0  0
   63.9092   34.5978   49.2296 H   0  0  0  0  0  0  0  0  0  0  0  0
   64.1416   33.6818   46.9236 H   0  0  0  0  0  0  0  0  0  0  0  0
   62.1467   32.7900   45.7257 H   0  0  0  0  0  0  0  0  0  0  0  0
   59.0344   34.6208   45.8089 H   0  0  0  0  0  0  0  0  0  0  0  0
   57.0714   33.7417   44.5526 H   0  0  0  0  0  0  0  0  0  0  0  0
   58.4514   28.7488   46.5460 H   0  0  0  0  0  0  0  0  0  0  0  0
   59.9174   30.6239   47.2417 H   0  0  0  0  0  0  0  0  0  0  0  0
  1  2  1  0
  2  3  1  0
  3  4  2  0
  4  5  1  0
  5  6  2  0
  6  7  1  0
  7  8  2  0
  8  9  1  0
  9 10  2  0
 10 11  1  0
 11 12  2  0
 12 13  1  0
 13 14  1  0
 14 15  2  0
 14 16  1  0
 16 17  2  0
 17 18  1  0
 18 19  2  0
  8  3  1  0
 19  9  1  0
 18 12  1  0
  1 20  1  0
  1 21  1  0
  1 22  1  0
  4 23  1  0
  5 24  1  0
  6 25  1  0
  7 26  1  0
 10 27  1  0
 11 28  1  0
 17 29  1  0
 19 30  1  0
M  CHG  1  13  -1
M  END
>  <UniqueID>  (45) 
41

>  <SMILES>  (45) 
COc1ccccc1-c1ccc2[n-]c(=O)ncc2c1

>  <Energy>  (45) 
42.455632812992704

>  <Genealogy>  (45) 
COc1ccccc1-c1ccc2[n-]c(=O)ncc2c1 (protonated)
COc1ccccc1-c1ccc2[n-]c(=O)ncc2c1 (3D coordinates assigned)
COc1ccccc1-c1ccc2[n-]c(=O)ncc2c1 (optimized conformer: 42.455632812992704 kcal/mol)

>  <smiles>  (45) 
COc1ccccc1-c1ccc2[nH]c(=O)ncc2c1

>  <score_type>  (45) 
oracle

>  <origin>  (45) 
adg

>  <m_score__min__energy>  (45) 
-8.5600000000000005

>  <m_primary>  (45) 
energy

$$$$
45:0
     RDKit          3D

 51 53  0  0  0  0  0  0  0  0999 V2000
   59.6270   35.6700   45.2040 C   0  0  0  0  0  0  0  0  0  0  0  0
   59.1030   34.5130   46.0030 C   0  0  0  0  0  0  0  0  0  0  0  0
   59.4250   34.3890   47.3620 C   0  0  0  0  0  0  0  0  0  0  0  0
   58.9760   33.2850   48.1010 C   0  0  0  0  0  0  0  0  0  0  0  0
   59.2860   33.1810   49.5650 C   0  0  0  0  0  0  0  0  0  0  0  0
   58.1840   32.3110   47.4760 C   0  0  0  0  0  0  0  0  0  0  0  0
   57.8590   32.4240   46.1120 C   0  0  0  0  0  0  0  0  0  0  0  0
   57.0850   31.4590   45.4490 O   0  0  0  0  0  0  0  0  0  0  0  0
   57.4070   30.1000   45.3750 C   0  0  0  0  0  0  0  0  0  0  0  0
   57.8910   29.4800   46.4800 N   0  0  0  0  0  0  0  0  0  0  0  0
   58.2200   28.1610   46.5070 C   0  0  0  0  0  0  0  0  0  0  0  0
   58.6730   27.6870   47.6360 N   0  0  0  0  0  0  0  0  0  0  0  0
   59.9400   27.9020   48.2660 C   0  0  0  0  0  0  0  0  0  0  0  0
   60.4270   26.9880   48.9860 O   0  0  0  0  0  0  0  0  0  0  0  0
   60.6370   29.2040   48.1350 C   0  0  0  0  0  0  0  0  0  0  0  0
   60.8660   29.7660   46.8670 C   0  0  0  0  0  0  0  0  0  0  0  0
   61.5090   31.0020   46.7440 C   0  0  0  0  0  0  0  0  0  0  0  0
   61.9370   31.6910   47.8850 C   0  0  0  0  0  0  0  0  0  0  0  0
   62.7290   33.2560   47.7290 S   0  0  0  0  0  0  0  0  0  0  0  0
   64.4440   33.0470   47.7940 N   0  0  0  0  0  0  0  0  0  0  0  0
   62.2920   34.1600   48.8480 O   0  0  0  0  0  0  0  0  0  0  0  0
   62.3500   33.8920   46.4210 O   0  0  0  0  0  0  0  0  0  0  0  0
   61.7060   31.1400   49.1520 C   0  0  0  0  0  0  0  0  0  0  0  0
   61.0630   29.9060   49.2780 C   0  0  0  0  0  0  0  0  0  0  0  0
   58.0550   27.4050   45.3070 C   0  0  0  0  0  0  0  0  0  0  0  0
   58.3810   25.9470   45.1590 C   0  0  0  0  0  0  0  0  0  0  0  0
   57.5930   28.0450   44.1980 N   0  0  0  0  0  0  0  0  0  0  0  0
   57.2760   29.3640   44.1870 C   0  0  0  0  0  0  0  0  0  0  0  0
   56.8010   29.9870   42.9090 C   0  0  0  0  0  0  0  0  0  0  0  0
   58.3400   33.5150   45.3800 C   0  0  0  0  0  0  0  0  0  0  0  0
   59.9829   36.4558   45.8866 H   0  0  0  0  0  0  0  0  0  0  0  0
   60.4593   35.3307   44.5698 H   0  0  0  0  0  0  0  0  0  0  0  0
   58.8230   36.0717   44.5698 H   0  0  0  0  0  0  0  0  0  0  0  0
   60.0340   35.1630   47.8519 H   0  0  0  0  0  0  0  0  0  0  0  0
   58.4022   33.4775   50.1489 H   0  0  0  0  0  0  0  0  0  0  0  0
   59.5559   32.1431   49.8098 H   0  0  0  0  0  0  0  0  0  0  0  0
   60.1272   33.8461   49.8098 H   0  0  0  0  0  0  0  0  0  0  0  0
   57.8143   31.4528   48.0563 H   0  0  0  0  0  0  0  0  0  0  0  0
   60.5370   29.2297   45.9647 H   0  0  0  0  0  0  0  0  0  0  0  0
   61.6790   31.4343   45.7469 H   0  0  0  0  0  0  0  0  0  0  0  0
   64.6210   32.0680   48.1120 H   0  0  0  0  0  0  0  0  0  0  0  0
   64.7970   33.1130   46.8120 H   0  0  0  0  0  0  0  0  0  0  0  0
   62.0324   31.6815   50.0521 H   0  0  0  0  0  0  0  0  0  0  0  0
   60.8886   29.4803   50.2772 H   0  0  0  0  0  0  0  0  0  0  0  0
   58.4829   25.4911   46.1549 H   0  0  0  0  0  0  0  0  0  0  0  0
   57.5730   25.4448   44.6068 H   0  0  0  0  0  0  0  0  0  0  0  0
   59.3260   25.8368   44.6068 H   0  0  0  0  0  0  0  0  0  0  0  0
   56.1487   30.8425   43.1384 H   0  0  0  0  0  0  0  0  0  0  0  0
   57.6671   30.3324   42.3254 H   0  0  0  0  0  0  0  0  0  0  0  0
   56.2386   29.2433   42.3254 H   0  0  0  0  0  0  0  0  0  0  0  0
   58.1175   33.5906   44.3054 H   0  0  0  0  0  0  0  0  0  0  0  0
  1  2  1  0
  2  3  2  0
  3  4  1  0
  4  5  1  0
  4  6  2  0
  6  7  1  0
  7  8  1  0
  8  9  1  0
  9 10  1  0
 10 11  1  0
 11 12  2  3
 12 13  1  0
 13 14  2  0
 13 15  1  0
 15 16  2  0
 16 17  1  0
 17 18  2  0
 18 19  1  0
 19 20  1  0
 19 21  2  0
 19 22  2  0
 18 23  1  0
 23 24  2  0
 11 25  1  0
 25 26  1  0
 25 27  2  0
 27 28  1  0
 28 29  1  0
  7 30  2  0
 30  2  1  0
 28  9  2  0
 24 15  1  0
  1 31  1  0
  1 32  1  0
  1 33  1  0
  3 34  1  0
  5 35  1  0
  5 36  1  0
  5 37  1  0
  6 38  1  0
 16 39  1  0
 17 40  1  0
 20 41  1  0
 20 42  1  0
 23 43  1  0
 24 44  1  0
 26 45  1  0
 26 46  1  0
 26 47  1  0
 29 48  1  0
 29 49  1  0
 29 50  1  0
 30 51  1  0
M  CHG  1  10  -1
M  END
>  <UniqueID>  (46) 
42

>  <SMILES>  (46) 
Cc1cc(C)cc(Oc2[n-]c(=NC(=O)c3ccc(S(N)(=O)=O)cc3)c(C)nc2C)c1

>  <Energy>  (46) 
75.6245352481168

>  <Genealogy>  (46) 
Cc1cc(C)cc(Oc2[n-]c(=NC(=O)c3ccc(S(N)(=O)=O)cc3)c(C)nc2C)c1 (protonated)
Cc1cc(C)cc(Oc2[n-]c(=NC(=O)c3ccc(S(N)(=O)=O)cc3)c(C)nc2C)c1 (3D coordinates assigned)
Cc1cc(C)cc(Oc2[n-]c(=NC(=O)c3ccc(S(N)(=O)=O)cc3)c(C)nc2C)c1 (optimized conformer: 75.6245352481168 kcal/mol)

>  <smiles>  (46) 
Cc1cc(C)cc(Oc2[nH]c(=NC(=O)c3ccc(S(N)(=O)=O)cc3)c(C)nc2C)c1

>  <score_type>  (46) 
oracle

>  <origin>  (46) 
adg

>  <m_score__min__energy>  (46) 
-10.699999999999999

>  <m_primary>  (46) 
energy

$$$$
46:0
     RDKit          3D

 37 39  0  0  0  0  0  0  0  0999 V2000
   57.0665   30.2775   42.8473 H   0  0  0  0  0  0  0  0  0  0  0  0
   57.2530   31.1670   43.4670 C   0  0  0  0  0  0  0  0  0  0  0  0
   56.8852   32.1512   43.1413 H   0  0  0  0  0  0  0  0  0  0  0  0
   57.9260   31.0520   44.6150 C   0  0  0  0  0  0  0  0  0  0  0  0
   58.2400   32.3800   45.6030 S   0  0  0  0  0  0  0  0  0  0  0  0
   58.8950   31.4530   46.8430 C   0  0  0  0  0  0  0  0  0  0  0  0
   59.4260   31.9620   48.0840 N   0  0  0  0  0  0  0  0  0  0  0  0
   59.1840   31.1860   49.3150 C   0  0  0  0  0  0  0  0  0  0  0  0
   59.1607   30.1178   49.0533 H   0  0  0  0  0  0  0  0  0  0  0  0
   58.2290   31.5364   49.7334 H   0  0  0  0  0  0  0  0  0  0  0  0
   60.2590   31.3980   50.4040 C   0  0  0  0  0  0  0  0  0  0  0  0
   61.2399   31.4673   49.9110 H   0  0  0  0  0  0  0  0  0  0  0  0
   60.1853   30.5417   51.0905 H   0  0  0  0  0  0  0  0  0  0  0  0
   60.0650   32.6120   51.2200 N   0  0  0  0  0  0  0  0  0  0  0  0
   60.6170   32.5010   52.1040 H   0  0  0  0  0  0  0  0  0  0  0  0
   60.4860   33.8800   50.5980 C   0  0  0  0  0  0  0  0  0  0  0  0
   61.5751   33.8490   50.4464 H   0  0  0  0  0  0  0  0  0  0  0  0
   60.1829   34.6905   51.2771 H   0  0  0  0  0  0  0  0  0  0  0  0
   59.8120   34.1500   49.2400 C   0  0  0  0  0  0  0  0  0  0  0  0
   60.0605   35.1763   48.9319 H   0  0  0  0  0  0  0  0  0  0  0  0
   58.7337   33.9934   49.3910 H   0  0  0  0  0  0  0  0  0  0  0  0
   60.2380   33.1920   48.1090 C   0  0  0  0  0  0  0  0  0  0  0  0
   61.2928   32.9169   48.2566 H   0  0  0  0  0  0  0  0  0  0  0  0
   60.0897   33.7134   47.1518 H   0  0  0  0  0  0  0  0  0  0  0  0
   58.9020   30.1420   46.5200 N   0  0  0  0  0  0  0  0  0  0  0  0
   58.3890   29.8900   45.2820 C   0  0  0  0  0  0  0  0  0  0  0  0
   58.3880   28.6200   44.8300 C   0  0  0  0  0  0  0  0  0  0  0  0
   59.0002   28.4076   43.9411 H   0  0  0  0  0  0  0  0  0  0  0  0
   57.6440   27.4880   45.4140 C   0  0  0  0  0  0  0  0  0  0  0  0
   56.2520   27.5630   45.5720 C   0  0  0  0  0  0  0  0  0  0  0  0
   55.5490   28.6780   45.1340 O   0  0  0  0  0  0  0  0  0  0  0  0
   55.5800   26.5340   46.1510 N   0  0  0  0  0  0  0  0  0  0  0  0
   56.2340   25.4320   46.5980 C   0  0  0  0  0  0  0  0  0  0  0  0
   55.5890   24.4900   47.1270 O   0  0  0  0  0  0  0  0  0  0  0  0
   57.5840   25.3480   46.4820 N   0  0  0  0  0  0  0  0  0  0  0  0
   58.3030   26.3490   45.9110 C   0  0  0  0  0  0  0  0  0  0  0  0
   59.5560   26.2470   45.8390 O   0  0  0  0  0  0  0  0  0  0  0  0
  1  2  1  0
  2  3  1  0
  2  4  2  0
  4  5  1  0
  5  6  1  0
  6  7  1  0
  7  8  1  0
  8  9  1  0
  8 10  1  0
  8 11  1  0
 11 12  1  0
 11 13  1  0
 11 14  1  0
 14 15  1  0
 14 16  1  0
 16 17  1  0
 16 18  1  0
 16 19  1  0
 19 20  1  0
 19 21  1  0
 19 22  1  0
 22 23  1  0
 22 24  1  0
  6 25  2  0
 25 26  1  0
 26 27  2  0
 27 28  1  0
 27 29  1  0
 29 30  2  0
 30 31  1  0
 30 32  1  0
 32 33  1  0
 33 34  2  0
 33 35  1  0
 35 36  1  0
 36 37  2  0
 26  4  1  0
 36 29  1  0
 22  7  1  0
M  CHG  3  31  -1  32  -1  35  -1
M  END
>  <UniqueID>  (47) 
43

>  <SMILES>  (47) 
C=c1sc(N2CCCNCC2)n/c1=C/c1c([O-])[n-]c(=O)[n-]c1=O

>  <Energy>  (47) 
95.11319938127176

>  <Genealogy>  (47) 
C=c1sc(N2CCCNCC2)nc1=Cc1c([O-])[n-]c(=O)[n-]c1=O (protonated)
C=c1sc(N2CCCNCC2)n/c1=C/c1c([O-])[n-]c(=O)[n-]c1=O (cis-trans isomerization)
C=c1sc(N2CCCNCC2)n/c1=C/c1c([O-])[n-]c(=O)[n-]c1=O (3D coordinates assigned)
C=c1sc(N2CCCNCC2)n/c1=C/c1c([O-])[n-]c(=O)[n-]c1=O (nonaromatic ring conformer: 95.11319938127176 kcal/mol)

>  <smiles>  (47) 
C=c1sc(N2CCCNCC2)nc1=Cc1c(O)[nH]c(=O)[nH]c1=O

>  <score_type>  (47) 
oracle

>  <origin>  (47) 
adg

>  <m_score__min__energy>  (47) 
-12.67

>  <m_primary>  (47) 
energy

$$$$
47:0
     RDKit          3D

 35 36  0  0  0  0  0  0  0  0999 V2000
   63.6780   32.4140   47.9830 C   0  0  0  0  0  0  0  0  0  0  0  0
   62.2940   32.5850   47.4340 C   0  0  0  0  0  0  0  0  0  0  0  0
   61.4100   31.4960   47.3900 C   0  0  0  0  0  0  0  0  0  0  0  0
   60.1320   31.6460   46.8430 C   0  0  0  0  0  0  0  0  0  0  0  0
   59.7290   32.8840   46.3240 C   0  0  0  0  0  0  0  0  0  0  0  0
   58.1300   33.0810   45.6090 S   0  0  0  0  0  0  0  0  0  0  0  0
   57.2870   33.9900   46.4610 O   0  0  0  0  0  0  0  0  0  0  0  0
   58.2760   33.7030   44.2490 O   0  0  0  0  0  0  0  0  0  0  0  0
   57.3550   31.5330   45.4520 N   0  0  0  0  0  0  0  0  0  0  0  0
   57.3770   31.1080   44.0520 C   0  0  0  0  0  0  0  0  0  0  0  0
   56.3290   30.0670   43.8290 C   0  0  0  0  0  0  0  0  0  0  0  0
   55.8090   29.9380   42.6880 O   0  0  0  0  0  0  0  0  0  0  0  0
   55.9770   29.1780   44.8980 N   0  0  0  0  0  0  0  0  0  0  0  0
   56.7300   28.3300   45.5440 C   0  0  0  0  0  0  0  0  0  0  0  0
   58.0280   28.6800   45.7620 N   0  0  0  0  0  0  0  0  0  0  0  0
   58.9080   27.8740   46.4110 C   0  0  0  0  0  0  0  0  0  0  0  0
   58.4940   26.6330   46.8900 C   0  0  0  0  0  0  0  0  0  0  0  0
   57.1660   26.2460   46.7150 C   0  0  0  0  0  0  0  0  0  0  0  0
   56.2650   27.0920   46.0610 C   0  0  0  0  0  0  0  0  0  0  0  0
   54.9320   26.7060   45.9930 O   0  0  0  0  0  0  0  0  0  0  0  0
   60.6170   33.9660   46.3450 C   0  0  0  0  0  0  0  0  0  0  0  0
   61.8950   33.8170   46.8920 C   0  0  0  0  0  0  0  0  0  0  0  0
   63.6396   32.4188   49.0823 H   0  0  0  0  0  0  0  0  0  0  0  0
   64.0950   31.4575   47.6348 H   0  0  0  0  0  0  0  0  0  0  0  0
   64.3153   33.2402   47.6348 H   0  0  0  0  0  0  0  0  0  0  0  0
   61.7240   30.5197   47.7878 H   0  0  0  0  0  0  0  0  0  0  0  0
   59.4412   30.7903   46.8199 H   0  0  0  0  0  0  0  0  0  0  0  0
   57.9250   30.8550   46.0090 H   0  0  0  0  0  0  0  0  0  0  0  0
   57.1774   31.9736   43.4032 H   0  0  0  0  0  0  0  0  0  0  0  0
   58.3655   30.6891   43.8123 H   0  0  0  0  0  0  0  0  0  0  0  0
   59.9478   28.2013   46.5584 H   0  0  0  0  0  0  0  0  0  0  0  0
   59.2057   25.9670   47.3998 H   0  0  0  0  0  0  0  0  0  0  0  0
   56.8255   25.2708   47.0931 H   0  0  0  0  0  0  0  0  0  0  0  0
   60.3082   34.9367   45.9297 H   0  0  0  0  0  0  0  0  0  0  0  0
   62.5909   34.6689   46.8977 H   0  0  0  0  0  0  0  0  0  0  0  0
  1  2  1  0
  2  3  2  0
  3  4  1  0
  4  5  2  0
  5  6  1  0
  6  7  2  0
  6  8  2  0
  6  9  1  0
  9 10  1  0
 10 11  1  0
 11 12  2  0
 11 13  1  0
 13 14  2  3
 14 15  1  0
 15 16  1  0
 16 17  2  0
 17 18  1  0
 18 19  2  0
 19 20  1  0
  5 21  1  0
 21 22  2  0
 22  2  1  0
 19 14  1  0
  1 23  1  0
  1 24  1  0
  1 25  1  0
  3 26  1  0
  4 27  1  0
  9 28  1  0
 10 29  1  0
 10 30  1  0
 16 31  1  0
 17 32  1  0
 18 33  1  0
 21 34  1  0
 22 35  1  0
M  CHG  2  15  -1  20  -1
M  END
>  <UniqueID>  (48) 
44

>  <SMILES>  (48) 
Cc1ccc(S(=O)(=O)NCC(=O)N=c2[n-]cccc2[O-])cc1

>  <Energy>  (48) 
43.75333640115231

>  <Genealogy>  (48) 
Cc1ccc(S(=O)(=O)NCC(=O)N=c2[n-]cccc2[O-])cc1 (protonated)
Cc1ccc(S(=O)(=O)NCC(=O)N=c2[n-]cccc2[O-])cc1 (3D coordinates assigned)
Cc1ccc(S(=O)(=O)NCC(=O)N=c2[n-]cccc2[O-])cc1 (optimized conformer: 43.75333640115231 kcal/mol)

>  <smiles>  (48) 
Cc1ccc(S(=O)(=O)NCC(=O)N=c2[nH]cccc2O)cc1

>  <score_type>  (48) 
oracle

>  <origin>  (48) 
adg

>  <m_score__min__energy>  (48) 
-13.56

>  <m_primary>  (48) 
energy

$$$$
48:0
     RDKit          3D

 38 39  0  0  0  0  0  0  0  0999 V2000
   57.7190   32.9710   44.7030 C   0  0  0  0  0  0  0  0  0  0  0  0
   58.0440   32.3800   43.3650 C   0  0  0  0  0  0  0  0  0  0  0  0
   57.0170   31.2980   43.0530 C   0  0  0  0  0  0  0  0  0  0  0  0
   57.1020   30.2100   44.0430 C   0  0  0  0  0  0  0  0  0  0  0  0
   56.1500   30.0430   44.8570 O   0  0  0  0  0  0  0  0  0  0  0  0
   58.2570   29.3900   44.0380 N   0  0  0  0  0  0  0  0  0  0  0  0
   58.4650   28.3100   44.9360 C   0  0  0  0  0  0  0  0  0  0  0  0
   59.6790   28.1540   45.6120 C   0  0  0  0  0  0  0  0  0  0  0  0
   59.8710   27.0970   46.4840 C   0  0  0  0  0  0  0  0  0  0  0  0
   58.8520   26.1680   46.7030 C   0  0  0  0  0  0  0  0  0  0  0  0
   57.6620   26.3480   46.0210 C   0  0  0  0  0  0  0  0  0  0  0  0
   56.5760   25.3440   46.2650 C   0  0  0  0  0  0  0  0  0  0  0  0
   56.5070   24.3850   45.1200 C   0  0  0  0  0  0  0  0  0  0  0  0
   56.2250   23.0650   45.4580 C   0  0  0  0  0  0  0  0  0  0  0  0
   56.1430   22.1120   44.4590 C   0  0  0  0  0  0  0  0  0  0  0  0
   55.8880   20.9070   44.7430 O   0  0  0  0  0  0  0  0  0  0  0  0
   56.3520   22.5500   43.1680 C   0  0  0  0  0  0  0  0  0  0  0  0
   56.2800   21.6960   42.2420 O   0  0  0  0  0  0  0  0  0  0  0  0
   56.6240   23.8500   42.8840 N   0  0  0  0  0  0  0  0  0  0  0  0
   56.7050   24.7730   43.8430 N   0  0  0  0  0  0  0  0  0  0  0  0
   57.4440   27.3910   45.1470 C   0  0  0  0  0  0  0  0  0  0  0  0
   58.0857   32.3041   45.4972 H   0  0  0  0  0  0  0  0  0  0  0  0
   58.2033   33.9541   44.7970 H   0  0  0  0  0  0  0  0  0  0  0  0
   56.6294   33.0886   44.7970 H   0  0  0  0  0  0  0  0  0  0  0  0
   58.0041   33.1632   42.5936 H   0  0  0  0  0  0  0  0  0  0  0  0
   59.0553   31.9475   43.3792 H   0  0  0  0  0  0  0  0  0  0  0  0
   56.0085   31.7362   43.0814 H   0  0  0  0  0  0  0  0  0  0  0  0
   57.2223   30.8881   42.0531 H   0  0  0  0  0  0  0  0  0  0  0  0
   59.0330   29.5600   43.3430 H   0  0  0  0  0  0  0  0  0  0  0  0
   60.4899   28.8792   45.4489 H   0  0  0  0  0  0  0  0  0  0  0  0
   60.8321   26.9880   47.0078 H   0  0  0  0  0  0  0  0  0  0  0  0
   58.9905   25.3229   47.3934 H   0  0  0  0  0  0  0  0  0  0  0  0
   56.7907   24.7916   47.1917 H   0  0  0  0  0  0  0  0  0  0  0  0
   55.6127   25.8665   46.3600 H   0  0  0  0  0  0  0  0  0  0  0  0
   56.0688   22.7822   46.5095 H   0  0  0  0  0  0  0  0  0  0  0  0
   56.7720   24.1130   41.8780 H   0  0  0  0  0  0  0  0  0  0  0  0
   56.9140   25.7710   43.6300 H   0  0  0  0  0  0  0  0  0  0  0  0
   56.4805   27.4941   44.6264 H   0  0  0  0  0  0  0  0  0  0  0  0
  1  2  1  0
  2  3  1  0
  3  4  1  0
  4  5  2  0
  4  6  1  0
  6  7  1  0
  7  8  2  0
  8  9  1  0
  9 10  2  0
 10 11  1  0
 11 12  1  0
 12 13  1  0
 13 14  2  0
 14 15  1  0
 15 16  2  0
 15 17  1  0
 17 18  2  0
 17 19  1  0
 19 20  1  0
 11 21  2  0
 21  7  1  0
 20 13  1  0
  1 22  1  0
  1 23  1  0
  1 24  1  0
  2 25  1  0
  2 26  1  0
  3 27  1  0
  3 28  1  0
  6 29  1  0
  8 30  1  0
  9 31  1  0
 10 32  1  0
 12 33  1  0
 12 34  1  0
 14 35  1  0
 19 36  1  0
 20 37  1  0
 21 38  1  0
M  END
>  <smiles>  (49) 
CCCC(=O)Nc1cccc(Cc2cc(=O)c(=O)[nH][nH]2)c1

>  <score_type>  (49) 
oracle

>  <origin>  (49) 
adg

>  <m_score__min__energy>  (49) 
-7.7800000000000002

>  <m_primary>  (49) 
energy

$$$$
49:0
     RDKit          3D

 48 51  0  0  0  0  0  0  0  0999 V2000
   54.7200   29.3520   45.3490 H   0  0  0  0  0  0  0  0  0  0  0  0
   55.5400   28.8120   44.9890 N   0  0  0  0  0  0  0  0  0  0  0  0
   56.4900   29.9050   44.0450 S   0  0  0  0  0  0  0  0  0  0  0  0
   57.9520   29.6030   44.2240 O   0  0  0  0  0  0  0  0  0  0  0  0
   56.1290   29.7430   42.5950 O   0  0  0  0  0  0  0  0  0  0  0  0
   56.1630   31.5360   44.5300 N   0  0  0  0  0  0  0  0  0  0  0  0
   57.1480   32.4790   44.9740 C   0  0  0  0  0  0  0  0  0  0  0  0
   58.2490   32.8420   44.1760 C   0  0  0  0  0  0  0  0  0  0  0  0
   58.3703   32.3999   43.1761 H   0  0  0  0  0  0  0  0  0  0  0  0
   59.1890   33.7620   44.6490 C   0  0  0  0  0  0  0  0  0  0  0  0
   60.0449   34.0429   44.0178 H   0  0  0  0  0  0  0  0  0  0  0  0
   59.0470   34.3290   45.9240 C   0  0  0  0  0  0  0  0  0  0  0  0
   60.0790   35.2980   46.4380 C   0  0  0  0  0  0  0  0  0  0  0  0
   60.4077   35.9469   45.6129 H   0  0  0  0  0  0  0  0  0  0  0  0
   59.6297   35.9004   47.2413 H   0  0  0  0  0  0  0  0  0  0  0  0
   61.2360   34.5830   46.9770 N   0  0  0  0  0  0  0  0  0  0  0  0
   61.3160   34.0960   48.1790 C   0  0  0  0  0  0  0  0  0  0  0  0
   60.3170   33.3000   48.6420 N   0  0  0  0  0  0  0  0  0  0  0  0
   60.3690   32.7550   49.8860 C   0  0  0  0  0  0  0  0  0  0  0  0
   59.2680   31.9070   50.3580 C   0  0  0  0  0  0  0  0  0  0  0  0
   58.7980   30.7120   49.8310 C   0  0  0  0  0  0  0  0  0  0  0  0
   59.3250   29.9340   48.6470 C   0  0  0  0  0  0  0  0  0  0  0  0
   59.0454   28.8950   48.8755 H   0  0  0  0  0  0  0  0  0  0  0  0
   60.8440   30.0610   48.4870 C   0  0  0  0  0  0  0  0  0  0  0  0
   61.2088   30.9648   48.9970 H   0  0  0  0  0  0  0  0  0  0  0  0
   61.3712   29.2037   48.9310 H   0  0  0  0  0  0  0  0  0  0  0  0
   61.0950   30.1590   46.9940 C   0  0  0  0  0  0  0  0  0  0  0  0
   61.9779   30.7835   46.7927 H   0  0  0  0  0  0  0  0  0  0  0  0
   61.2915   29.1731   46.5475 H   0  0  0  0  0  0  0  0  0  0  0  0
   59.8480   30.8010   46.4150 C   0  0  0  0  0  0  0  0  0  0  0  0
   59.9406   31.8970   46.4269 H   0  0  0  0  0  0  0  0  0  0  0  0
   59.6863   30.5010   45.3691 H   0  0  0  0  0  0  0  0  0  0  0  0
   58.6990   30.3560   47.3100 C   0  0  0  0  0  0  0  0  0  0  0  0
   57.9950   31.1867   47.4656 H   0  0  0  0  0  0  0  0  0  0  0  0
   58.1384   29.5265   46.8542 H   0  0  0  0  0  0  0  0  0  0  0  0
   57.7880   30.2700   50.6050 N   0  0  0  0  0  0  0  0  0  0  0  0
   57.5970   31.1330   51.5930 N   0  0  0  0  0  0  0  0  0  0  0  0
   58.4880   32.1350   51.4690 C   0  0  0  0  0  0  0  0  0  0  0  0
   58.5780   32.9969   52.1465 H   0  0  0  0  0  0  0  0  0  0  0  0
   61.4520   33.0420   50.7220 C   0  0  0  0  0  0  0  0  0  0  0  0
   61.4992   32.6340   51.7424 H   0  0  0  0  0  0  0  0  0  0  0  0
   62.4700   33.8570   50.2320 C   0  0  0  0  0  0  0  0  0  0  0  0
   63.3411   34.0882   50.8627 H   0  0  0  0  0  0  0  0  0  0  0  0
   62.3870   34.3660   48.9760 N   0  0  0  0  0  0  0  0  0  0  0  0
   57.9460   33.9690   46.7170 C   0  0  0  0  0  0  0  0  0  0  0  0
   57.8243   34.4100   47.7173 H   0  0  0  0  0  0  0  0  0  0  0  0
   57.0050   33.0540   46.2420 C   0  0  0  0  0  0  0  0  0  0  0  0
   56.1435   32.7825   46.8697 H   0  0  0  0  0  0  0  0  0  0  0  0
  1  2  1  0
  2  3  1  0
  3  4  2  0
  3  5  2  0
  3  6  1  0
  6  7  1  0
  7  8  2  0
  8  9  1  0
  8 10  1  0
 10 11  1  0
 10 12  2  0
 12 13  1  0
 13 14  1  0
 13 15  1  0
 13 16  1  0
 16 17  2  0
 17 18  1  0
 18 19  2  0
 19 20  1  0
 20 21  1  0
 21 22  1  0
 22 23  1  0
 22 24  1  0
 24 25  1  0
 24 26  1  0
 24 27  1  0
 27 28  1  0
 27 29  1  0
 27 30  1  0
 30 31  1  0
 30 32  1  0
 30 33  1  0
 33 34  1  0
 33 35  1  0
 21 36  2  0
 36 37  1  0
 37 38  1  0
 38 39  1  0
 19 40  1  0
 40 41  1  0
 40 42  2  0
 42 43  1  0
 42 44  1  0
 12 45  1  0
 45 46  1  0
 45 47  2  0
 47 48  1  0
 47  7  1  0
 44 17  1  0
 38 20  2  0
 33 22  1  0
M  CHG  4   2  -1   6  -1  37  -1  44  -1
M  END
>  <UniqueID>  (50) 
45

>  <SMILES>  (50) 
[NH-]S(=O)(=O)[N-]c1ccc(C/N=c2/nc(-c3c[n-]nc3C3CCCC3)cc[n-]2)cc1

>  <Energy>  (50) 
89.39783231943484

>  <Genealogy>  (50) 
[NH-]S(=O)(=O)[N-]c1ccc(CN=c2nc(-c3c[n-]nc3C3CCCC3)cc[n-]2)cc1 (protonated)
[NH-]S(=O)(=O)[N-]c1ccc(C/N=c2/nc(-c3c[n-]nc3C3CCCC3)cc[n-]2)cc1 (cis-trans isomerization)
[NH-]S(=O)(=O)[N-]c1ccc(C/N=c2/nc(-c3c[n-]nc3C3CCCC3)cc[n-]2)cc1 (3D coordinates assigned)
[NH-]S(=O)(=O)[N-]c1ccc(C/N=c2/nc(-c3c[n-]nc3C3CCCC3)cc[n-]2)cc1 (nonaromatic ring conformer: 89.39783231943484 kcal/mol)

>  <smiles>  (50) 
NS(=O)(=O)Nc1ccc(CN=c2nc(-c3c[nH]nc3C3CCCC3)cc[nH]2)cc1

>  <score_type>  (50) 
oracle

>  <origin>  (50) 
adg

>  <m_score__min__energy>  (50) 
-15.52

>  <m_primary>  (50) 
energy

$$$$
50:0
     RDKit          3D

 54 57  0  0  0  0  0  0  0  0999 V2000
   61.5150   30.6080   48.5260 C   0  0  0  0  0  0  0  0  0  0  0  0
   60.2050   30.8470   47.9310 N   0  0  0  0  0  0  0  0  0  0  0  0
   59.3330   29.7900   47.4830 C   0  0  0  0  0  0  0  0  0  0  0  0
   59.2110   28.5970   48.2200 C   0  0  0  0  0  0  0  0  0  0  0  0
   58.4440   27.5340   47.7390 C   0  0  0  0  0  0  0  0  0  0  0  0
   57.7860   27.6320   46.5040 C   0  0  0  0  0  0  0  0  0  0  0  0
   56.9920   26.4980   45.9820 C   0  0  0  0  0  0  0  0  0  0  0  0
   57.5260   25.5220   45.1970 N   0  0  0  0  0  0  0  0  0  0  0  0
   56.4800   24.7150   44.9750 C   0  0  0  0  0  0  0  0  0  0  0  0
   56.4530   23.5400   44.2280 C   0  0  0  0  0  0  0  0  0  0  0  0
   55.2290   22.8460   44.1480 C   0  0  0  0  0  0  0  0  0  0  0  0
   54.0840   23.3410   44.8100 C   0  0  0  0  0  0  0  0  0  0  0  0
   54.1500   24.5350   45.5530 C   0  0  0  0  0  0  0  0  0  0  0  0
   55.3770   25.1940   45.6090 C   0  0  0  0  0  0  0  0  0  0  0  0
   55.6720   26.3270   46.2610 N   0  0  0  0  0  0  0  0  0  0  0  0
   57.8870   28.8260   45.7740 C   0  0  0  0  0  0  0  0  0  0  0  0
   58.6300   29.9100   46.2620 C   0  0  0  0  0  0  0  0  0  0  0  0
   58.6520   31.1240   45.4970 N   0  0  0  0  0  0  0  0  0  0  0  0
   58.2780   32.3960   46.0550 C   0  0  0  0  0  0  0  0  0  0  0  0
   57.8890   32.4610   47.2550 O   0  0  0  0  0  0  0  0  0  0  0  0
   58.2500   33.6340   45.1750 C   0  0  0  0  0  0  0  0  0  0  0  0
   56.8720   34.3190   45.2540 C   0  0  0  0  0  0  0  0  0  0  0  0
   58.5250   33.1730   43.7290 C   0  0  0  0  0  0  0  0  0  0  0  0
   59.2740   34.5820   45.6610 N   0  0  0  0  0  0  0  0  0  0  0  0
   60.3100   34.2840   46.6100 C   0  0  0  0  0  0  0  0  0  0  0  0
   60.0770   34.5100   47.9740 C   0  0  0  0  0  0  0  0  0  0  0  0
   61.0710   34.2320   48.9160 C   0  0  0  0  0  0  0  0  0  0  0  0
   62.3140   33.7470   48.5010 C   0  0  0  0  0  0  0  0  0  0  0  0
   63.6680   33.3630   49.7910 Br  0  0  0  0  0  0  0  0  0  0  0  0
   62.5650   33.5470   47.1400 C   0  0  0  0  0  0  0  0  0  0  0  0
   61.5700   33.8210   46.1960 C   0  0  0  0  0  0  0  0  0  0  0  0
   61.4281   30.6239   49.6224 H   0  0  0  0  0  0  0  0  0  0  0  0
   61.8912   29.6264   48.2022 H   0  0  0  0  0  0  0  0  0  0  0  0
   62.2136   31.3935   48.2022 H   0  0  0  0  0  0  0  0  0  0  0  0
   59.8970   31.8410   47.8500 H   0  0  0  0  0  0  0  0  0  0  0  0
   59.7264   28.5009   49.1870 H   0  0  0  0  0  0  0  0  0  0  0  0
   58.3550   26.6125   48.3331 H   0  0  0  0  0  0  0  0  0  0  0  0
   57.3541   23.1672   43.7190 H   0  0  0  0  0  0  0  0  0  0  0  0
   55.1652   21.9141   43.5670 H   0  0  0  0  0  0  0  0  0  0  0  0
   53.1342   22.7900   44.7447 H   0  0  0  0  0  0  0  0  0  0  0  0
   53.2651   24.9335   46.0707 H   0  0  0  0  0  0  0  0  0  0  0  0
   57.3754   28.9128   44.8041 H   0  0  0  0  0  0  0  0  0  0  0  0
   58.7250   31.0410   44.4570 H   0  0  0  0  0  0  0  0  0  0  0  0
   56.5917   34.4583   46.3085 H   0  0  0  0  0  0  0  0  0  0  0  0
   56.9201   35.2981   44.7549 H   0  0  0  0  0  0  0  0  0  0  0  0
   56.1205   33.6896   44.7549 H   0  0  0  0  0  0  0  0  0  0  0  0
   59.0885   32.2284   43.7462 H   0  0  0  0  0  0  0  0  0  0  0  0
   57.5700   33.0208   43.2048 H   0  0  0  0  0  0  0  0  0  0  0  0
   59.1127   33.9410   43.2048 H   0  0  0  0  0  0  0  0  0  0  0  0
   59.1820   35.5830   45.3740 H   0  0  0  0  0  0  0  0  0  0  0  0
   59.1064   34.9083   48.3044 H   0  0  0  0  0  0  0  0  0  0  0  0
   60.8746   34.3952   49.9860 H   0  0  0  0  0  0  0  0  0  0  0  0
   63.5462   33.1737   46.8114 H   0  0  0  0  0  0  0  0  0  0  0  0
   61.7749   33.6734   45.1254 H   0  0  0  0  0  0  0  0  0  0  0  0
  1  2  1  0
  2  3  1  0
  3  4  2  0
  4  5  1  0
  5  6  2  0
  6  7  1  0
  7  8  2  0
  8  9  1  0
  9 10  2  0
 10 11  1  0
 11 12  2  0
 12 13  1  0
 13 14  2  0
 14 15  1  0
  6 16  1  0
 16 17  2  0
 17 18  1  0
 18 19  1  0
 19 20  2  0
 19 21  1  0
 21 22  1  0
 21 23  1  0
 21 24  1  0
 24 25  1  0
 25 26  2  0
 26 27  1  0
 27 28  2  0
 28 29  1  0
 28 30  1  0
 30 31  2  0
 17  3  1  0
 31 25  1  0
 15  7  1  0
 14  9  1  0
  1 32  1  0
  1 33  1  0
  1 34  1  0
  2 35  1  0
  4 36  1  0
  5 37  1  0
 10 38  1  0
 11 39  1  0
 12 40  1  0
 13 41  1  0
 16 42  1  0
 18 43  1  0
 22 44  1  0
 22 45  1  0
 22 46  1  0
 23 47  1  0
 23 48  1  0
 23 49  1  0
 24 50  1  0
 26 51  1  0
 27 52  1  0
 30 53  1  0
 31 54  1  0
M  CHG  1  15  -1
M  END
>  <UniqueID>  (51) 
46

>  <SMILES>  (51) 
CNc1ccc(-c2nc3ccccc3[n-]2)cc1NC(=O)C(C)(C)Nc1ccc(Br)cc1

>  <Energy>  (51) 
102.92058512340702

>  <Genealogy>  (51) 
CNc1ccc(-c2nc3ccccc3[n-]2)cc1NC(=O)C(C)(C)Nc1ccc(Br)cc1 (protonated)
CNc1ccc(-c2nc3ccccc3[n-]2)cc1NC(=O)C(C)(C)Nc1ccc(Br)cc1 (3D coordinates assigned)
CNc1ccc(-c2nc3ccccc3[n-]2)cc1NC(=O)C(C)(C)Nc1ccc(Br)cc1 (optimized conformer: 102.92058512340702 kcal/mol)

>  <smiles>  (51) 
CNc1ccc(-c2nc3ccccc3[nH]2)cc1NC(=O)C(C)(C)Nc1ccc(Br)cc1

>  <score_type>  (51) 
oracle

>  <origin>  (51) 
adg

>  <m_score__min__energy>  (51) 
-10.32

>  <m_primary>  (51) 
energy

$$$$
51:0
     RDKit          3D

 51 53  0  0  0  0  0  0  0  0999 V2000
   54.7310   26.3370   45.9380 O   0  0  0  0  0  0  0  0  0  0  0  0
   55.8700   25.9030   46.2590 C   0  0  0  0  0  0  0  0  0  0  0  0
   57.0430   26.8320   46.2520 C   0  0  0  0  0  0  0  0  0  0  0  0
   56.9420   27.7620   45.1300 N   0  0  0  0  0  0  0  0  0  0  0  0
   56.5260   29.1240   45.2660 C   0  0  0  0  0  0  0  0  0  0  0  0
   55.4050   29.4710   44.8080 O   0  0  0  0  0  0  0  0  0  0  0  0
   57.3950   30.0870   45.8790 N   0  0  0  0  0  0  0  0  0  0  0  0
   57.6980   31.4070   45.3950 C   0  0  0  0  0  0  0  0  0  0  0  0
   57.7870   31.6970   44.0190 C   0  0  0  0  0  0  0  0  0  0  0  0
   58.0610   33.0010   43.5920 C   0  0  0  0  0  0  0  0  0  0  0  0
   58.2350   34.0240   44.5280 C   0  0  0  0  0  0  0  0  0  0  0  0
   58.1240   33.7480   45.8930 C   0  0  0  0  0  0  0  0  0  0  0  0
   57.8490   32.4460   46.3240 C   0  0  0  0  0  0  0  0  0  0  0  0
   56.0400   24.5600   46.7240 N   0  0  0  0  0  0  0  0  0  0  0  0
   55.0430   23.5250   46.7430 C   0  0  0  0  0  0  0  0  0  0  0  0
   53.8030   23.6920   46.0960 C   0  0  0  0  0  0  0  0  0  0  0  0
   52.8600   22.6600   46.0960 C   0  0  0  0  0  0  0  0  0  0  0  0
   53.1450   21.4490   46.7260 C   0  0  0  0  0  0  0  0  0  0  0  0
   54.3800   21.2600   47.3460 C   0  0  0  0  0  0  0  0  0  0  0  0
   55.3430   22.2840   47.3480 C   0  0  0  0  0  0  0  0  0  0  0  0
   56.6390   22.0590   48.0230 C   0  0  0  0  0  0  0  0  0  0  0  0
   57.1030   22.9550   48.7760 O   0  0  0  0  0  0  0  0  0  0  0  0
   57.3760   20.8390   47.8670 N   0  0  0  0  0  0  0  0  0  0  0  0
   58.1260   20.4450   46.6740 C   0  0  0  0  0  0  0  0  0  0  0  0
   57.2090   20.4210   45.4500 C   0  0  0  0  0  0  0  0  0  0  0  0
   57.1730   21.7590   44.7590 C   0  0  0  0  0  0  0  0  0  0  0  0
   58.0660   22.7760   45.1390 C   0  0  0  0  0  0  0  0  0  0  0  0
   58.0540   24.0070   44.4770 C   0  0  0  0  0  0  0  0  0  0  0  0
   57.1610   24.2290   43.4230 C   0  0  0  0  0  0  0  0  0  0  0  0
   56.2780   23.2180   43.0300 C   0  0  0  0  0  0  0  0  0  0  0  0
   56.2860   21.9850   43.6890 C   0  0  0  0  0  0  0  0  0  0  0  0
   57.0628   27.3996   47.1940 H   0  0  0  0  0  0  0  0  0  0  0  0
   57.9668   26.2437   46.1491 H   0  0  0  0  0  0  0  0  0  0  0  0
   57.6407   30.8965   43.2789 H   0  0  0  0  0  0  0  0  0  0  0  0
   58.1396   33.2214   42.5172 H   0  0  0  0  0  0  0  0  0  0  0  0
   58.4593   35.0465   44.1900 H   0  0  0  0  0  0  0  0  0  0  0  0
   58.2529   34.5550   46.6293 H   0  0  0  0  0  0  0  0  0  0  0  0
   57.7505   32.2359   47.3993 H   0  0  0  0  0  0  0  0  0  0  0  0
   53.5752   24.6405   45.5875 H   0  0  0  0  0  0  0  0  0  0  0  0
   51.8901   22.8037   45.5974 H   0  0  0  0  0  0  0  0  0  0  0  0
   52.3962   20.6432   46.7340 H   0  0  0  0  0  0  0  0  0  0  0  0
   54.6023   20.3014   47.8376 H   0  0  0  0  0  0  0  0  0  0  0  0
   58.9394   21.1655   46.5031 H   0  0  0  0  0  0  0  0  0  0  0  0
   58.5392   19.4375   46.8295 H   0  0  0  0  0  0  0  0  0  0  0  0
   57.5774   19.6635   44.7426 H   0  0  0  0  0  0  0  0  0  0  0  0
   56.1902   20.1801   45.7875 H   0  0  0  0  0  0  0  0  0  0  0  0
   58.7768   22.6024   45.9603 H   0  0  0  0  0  0  0  0  0  0  0  0
   58.7480   24.8028   44.7853 H   0  0  0  0  0  0  0  0  0  0  0  0
   57.1534   25.1986   42.9035 H   0  0  0  0  0  0  0  0  0  0  0  0
   55.5763   23.3932   42.2012 H   0  0  0  0  0  0  0  0  0  0  0  0
   55.5971   21.1888   43.3706 H   0  0  0  0  0  0  0  0  0  0  0  0
  1  2  2  0
  2  3  1  0
  3  4  1  0
  4  5  1  0
  5  6  2  0
  5  7  1  0
  7  8  1  0
  8  9  2  0
  9 10  1  0
 10 11  2  0
 11 12  1  0
 12 13  2  0
  2 14  1  0
 14 15  1  0
 15 16  2  0
 16 17  1  0
 17 18  2  0
 18 19  1  0
 19 20  2  0
 20 21  1  0
 21 22  2  0
 21 23  1  0
 23 24  1  0
 24 25  1  0
 25 26  1  0
 26 27  2  0
 27 28  1  0
 28 29  2  0
 29 30  1  0
 30 31  2  0
 13  8  1  0
 20 15  1  0
 31 26  1  0
  3 32  1  0
  3 33  1  0
  9 34  1  0
 10 35  1  0
 11 36  1  0
 12 37  1  0
 13 38  1  0
 16 39  1  0
 17 40  1  0
 18 41  1  0
 19 42  1  0
 24 43  1  0
 24 44  1  0
 25 45  1  0
 25 46  1  0
 27 47  1  0
 28 48  1  0
 29 49  1  0
 30 50  1  0
 31 51  1  0
M  CHG  4   4  -1   7  -1  14  -1  23  -1
M  END
>  <UniqueID>  (52) 
47

>  <SMILES>  (52) 
O=C(C[N-]C(=O)[N-]c1ccccc1)[N-]c1ccccc1C(=O)[N-]CCc1ccccc1

>  <Energy>  (52) 
61.79696854049705

>  <Genealogy>  (52) 
O=C(C[N-]C(=O)[N-]c1ccccc1)[N-]c1ccccc1C(=O)[N-]CCc1ccccc1 (protonated)
O=C(C[N-]C(=O)[N-]c1ccccc1)[N-]c1ccccc1C(=O)[N-]CCc1ccccc1 (3D coordinates assigned)
O=C(C[N-]C(=O)[N-]c1ccccc1)[N-]c1ccccc1C(=O)[N-]CCc1ccccc1 (optimized conformer: 61.79696854049705 kcal/mol)

>  <smiles>  (52) 
O=C(CNC(=O)Nc1ccccc1)Nc1ccccc1C(=O)NCCc1ccccc1

>  <score_type>  (52) 
oracle

>  <origin>  (52) 
adg

>  <m_score__min__energy>  (52) 
-16.469999999999999

>  <m_primary>  (52) 
energy

$$$$
52:0
     RDKit          3D

 57 62  0  0  0  0  0  0  0  0999 V2000
   55.2010   22.4990   48.7010 H   0  0  0  0  0  0  0  0  0  0  0  0
   55.2560   23.2540   48.0250 O   0  0  0  0  0  0  0  0  0  0  0  0
   54.5860   23.1650   46.8100 C   0  0  0  0  0  0  0  0  0  0  0  0
   53.2510   23.0440   46.6930 N   0  0  0  0  0  0  0  0  0  0  0  0
   53.0720   23.0090   45.3560 C   0  0  0  0  0  0  0  0  0  0  0  0
   51.9350   22.9110   44.8240 O   0  0  0  0  0  0  0  0  0  0  0  0
   54.2080   23.1040   44.6300 N   0  0  0  0  0  0  0  0  0  0  0  0
   55.1730   23.1790   45.5680 C   0  0  0  0  0  0  0  0  0  0  0  0
   56.5920   23.4470   45.2870 C   0  0  0  0  0  0  0  0  0  0  0  0
   57.2510   22.5767   45.1519 H   0  0  0  0  0  0  0  0  0  0  0  0
   57.1530   24.6660   45.1810 C   0  0  0  0  0  0  0  0  0  0  0  0
   57.3990   25.2790   43.9620 C   0  0  0  0  0  0  0  0  0  0  0  0
   57.1276   24.8943   42.9678 H   0  0  0  0  0  0  0  0  0  0  0  0
   58.0500   26.4650   44.2360 C   0  0  0  0  0  0  0  0  0  0  0  0
   58.5130   27.4420   43.2000 C   0  0  0  0  0  0  0  0  0  0  0  0
   58.9337   28.3296   43.6951 H   0  0  0  0  0  0  0  0  0  0  0  0
   59.2844   26.9724   42.5719 H   0  0  0  0  0  0  0  0  0  0  0  0
   57.6611   27.7417   42.5719 H   0  0  0  0  0  0  0  0  0  0  0  0
   58.1750   26.6350   45.5710 N   0  0  0  0  0  0  0  0  0  0  0  0
   58.6820   27.8120   46.2210 C   0  0  0  0  0  0  0  0  0  0  0  0
   59.7900   27.7270   47.0730 C   0  0  0  0  0  0  0  0  0  0  0  0
   60.3030   26.7639   47.2117 H   0  0  0  0  0  0  0  0  0  0  0  0
   60.2330   28.8320   47.7290 N   0  0  0  0  0  0  0  0  0  0  0  0
   59.6240   30.0410   47.5850 C   0  0  0  0  0  0  0  0  0  0  0  0
   60.0890   31.1740   48.3310 N   0  0  0  0  0  0  0  0  0  0  0  0
   61.2850   31.8780   47.9330 C   0  0  0  0  0  0  0  0  0  0  0  0
   62.4020   31.1850   47.4340 C   0  0  0  0  0  0  0  0  0  0  0  0
   62.3290   30.1075   47.2249 H   0  0  0  0  0  0  0  0  0  0  0  0
   63.6060   31.8590   47.2020 C   0  0  0  0  0  0  0  0  0  0  0  0
   64.4725   31.3125   46.8013 H   0  0  0  0  0  0  0  0  0  0  0  0
   63.7100   33.2240   47.4780 C   0  0  0  0  0  0  0  0  0  0  0  0
   64.6616   33.7484   47.3062 H   0  0  0  0  0  0  0  0  0  0  0  0
   62.6070   33.9240   47.9720 C   0  0  0  0  0  0  0  0  0  0  0  0
   62.6915   34.9986   48.1914 H   0  0  0  0  0  0  0  0  0  0  0  0
   61.3950   33.2600   48.1880 C   0  0  0  0  0  0  0  0  0  0  0  0
   59.9460   34.1950   48.6900 S   0  0  0  0  0  0  0  0  0  0  0  0
   59.4000   32.9680   49.8780 C   0  0  0  0  0  0  0  0  0  0  0  0
   58.8710   33.3800   51.1040 C   0  0  0  0  0  0  0  0  0  0  0  0
   58.9128   34.4410   51.3913 H   0  0  0  0  0  0  0  0  0  0  0  0
   58.2880   32.4450   51.9670 C   0  0  0  0  0  0  0  0  0  0  0  0
   57.8624   32.7779   52.9252 H   0  0  0  0  0  0  0  0  0  0  0  0
   58.2420   31.0840   51.6190 C   0  0  0  0  0  0  0  0  0  0  0  0
   57.6180   30.0980   52.5750 C   0  0  0  0  0  0  0  0  0  0  0  0
   58.3620   28.9340   52.6630 F   0  0  0  0  0  0  0  0  0  0  0  0
   57.5380   30.6590   53.8370 F   0  0  0  0  0  0  0  0  0  0  0  0
   56.3440   29.7810   52.1410 F   0  0  0  0  0  0  0  0  0  0  0  0
   58.7820   30.6710   50.3860 C   0  0  0  0  0  0  0  0  0  0  0  0
   58.7341   29.6107   50.0970 H   0  0  0  0  0  0  0  0  0  0  0  0
   59.3850   31.6080   49.5170 C   0  0  0  0  0  0  0  0  0  0  0  0
   58.5160   30.1690   46.7440 C   0  0  0  0  0  0  0  0  0  0  0  0
   58.0204   31.1435   46.6230 H   0  0  0  0  0  0  0  0  0  0  0  0
   58.0440   29.0490   46.0590 C   0  0  0  0  0  0  0  0  0  0  0  0
   56.9510   29.1590   45.2690 F   0  0  0  0  0  0  0  0  0  0  0  0
   57.6070   25.5570   46.1670 C   0  0  0  0  0  0  0  0  0  0  0  0
   57.3900   25.4820   47.4890 C   0  0  0  0  0  0  0  0  0  0  0  0
   57.8042   26.2500   48.1588 H   0  0  0  0  0  0  0  0  0  0  0  0
   56.7979   24.6525   47.9030 H   0  0  0  0  0  0  0  0  0  0  0  0
  1  2  1  0
  2  3  1  0
  3  4  1  0
  4  5  1  0
  5  6  2  0
  5  7  1  0
  7  8  1  0
  8  9  1  0
  9 10  1  0
  9 11  2  0
 11 12  1  0
 12 13  1  0
 12 14  2  0
 14 15  1  0
 15 16  1  0
 15 17  1  0
 15 18  1  0
 14 19  1  0
 19 20  1  0
 20 21  2  0
 21 22  1  0
 21 23  1  0
 23 24  2  0
 24 25  1  0
 25 26  1  0
 26 27  2  0
 27 28  1  0
 27 29  1  0
 29 30  1  0
 29 31  2  0
 31 32  1  0
 31 33  1  0
 33 34  1  0
 33 35  2  0
 35 36  1  0
 36 37  1  0
 37 38  2  0
 38 39  1  0
 38 40  1  0
 40 41  1  0
 40 42  2  0
 42 43  1  0
 43 44  1  0
 43 45  1  0
 43 46  1  0
 42 47  1  0
 47 48  1  0
 47 49  2  0
 24 50  1  0
 50 51  1  0
 50 52  2  0
 52 53  1  0
 19 54  1  0
 54 55  2  0
 55 56  1  0
 55 57  1  0
  8  3  2  0
 54 11  1  0
 52 20  1  0
 49 25  1  0
 35 26  1  0
 49 37  1  0
M  CHG  2   4  -1   7  -1
M  END
>  <UniqueID>  (53) 
48

>  <SMILES>  (53) 
C=c1/c(=C\c2[n-]c(=O)[n-]c2O)cc(C)n1-c1cnc(N2c3ccccc3Sc3ccc(C(F)(F)F)cc32)cc1F

>  <Energy>  (53) 
166.17327391942032

>  <Genealogy>  (53) 
C=c1c(=Cc2[n-]c(=O)[n-]c2O)cc(C)n1-c1cnc(N2c3ccccc3Sc3ccc(C(F)(F)F)cc32)cc1F (protonated)
C=c1/c(=C\c2[n-]c(=O)[n-]c2O)cc(C)n1-c1cnc(N2c3ccccc3Sc3ccc(C(F)(F)F)cc32)cc1F (cis-trans isomerization)
C=c1/c(=C\c2[n-]c(=O)[n-]c2O)cc(C)n1-c1cnc(N2c3ccccc3Sc3ccc(C(F)(F)F)cc32)cc1F (3D coordinates assigned)
C=c1/c(=C\c2[n-]c(=O)[n-]c2O)cc(C)n1-c1cnc(N2c3ccccc3Sc3ccc(C(F)(F)F)cc32)cc1F (nonaromatic ring conformer: 166.17327391942032 kcal/mol)

>  <smiles>  (53) 
C=c1c(=Cc2[nH]c(=O)[nH]c2O)cc(C)n1-c1cnc(N2c3ccccc3Sc3ccc(C(F)(F)F)cc32)cc1F

>  <score_type>  (53) 
oracle

>  <origin>  (53) 
adg

>  <m_score__min__energy>  (53) 
-13.75

>  <m_primary>  (53) 
energy

$$$$
53:0
     RDKit          3D

 42 45  0  0  0  0  0  0  0  0999 V2000
   54.8355   23.2121   43.5804 H   0  0  0  0  0  0  0  0  0  0  0  0
   55.8420   23.1450   44.0190 C   0  0  0  0  0  0  0  0  0  0  0  0
   56.7300   22.1590   43.5810 C   0  0  0  0  0  0  0  0  0  0  0  0
   56.3510   21.2860   42.6150 F   0  0  0  0  0  0  0  0  0  0  0  0
   58.0110   22.0780   44.1330 C   0  0  0  0  0  0  0  0  0  0  0  0
   58.7107   21.3048   43.7827 H   0  0  0  0  0  0  0  0  0  0  0  0
   58.4070   22.9760   45.1290 C   0  0  0  0  0  0  0  0  0  0  0  0
   59.6750   22.9160   45.6080 F   0  0  0  0  0  0  0  0  0  0  0  0
   57.5070   23.9580   45.5910 C   0  0  0  0  0  0  0  0  0  0  0  0
   57.8660   24.8820   46.5820 O   0  0  0  0  0  0  0  0  0  0  0  0
   58.2010   26.2250   46.3520 C   0  0  0  0  0  0  0  0  0  0  0  0
   59.4740   26.7370   46.6670 C   0  0  0  0  0  0  0  0  0  0  0  0
   60.2398   26.0735   47.0950 H   0  0  0  0  0  0  0  0  0  0  0  0
   59.7700   28.0830   46.4390 C   0  0  0  0  0  0  0  0  0  0  0  0
   60.7697   28.4727   46.6813 H   0  0  0  0  0  0  0  0  0  0  0  0
   58.7970   28.9400   45.9020 C   0  0  0  0  0  0  0  0  0  0  0  0
   59.0810   30.2930   45.6680 C   0  0  0  0  0  0  0  0  0  0  0  0
   60.0757   30.6988   45.9044 H   0  0  0  0  0  0  0  0  0  0  0  0
   58.0820   31.1310   45.1270 C   0  0  0  0  0  0  0  0  0  0  0  0
   58.2700   32.4000   44.8890 N   0  0  0  0  0  0  0  0  0  0  0  0
   58.6060   33.4500   45.8080 C   0  0  0  0  0  0  0  0  0  0  0  0
   58.0600   34.5820   45.7140 O   0  0  0  0  0  0  0  0  0  0  0  0
   59.4350   33.1310   46.9370 N   0  0  0  0  0  0  0  0  0  0  0  0
   60.7280   32.9520   46.9780 C   0  0  0  0  0  0  0  0  0  0  0  0
   61.3340   31.8080   47.5390 C   0  0  0  0  0  0  0  0  0  0  0  0
   60.7142   31.0055   47.9654 H   0  0  0  0  0  0  0  0  0  0  0  0
   62.7270   31.7020   47.5490 C   0  0  0  0  0  0  0  0  0  0  0  0
   63.2045   30.8096   47.9798 H   0  0  0  0  0  0  0  0  0  0  0  0
   63.4960   32.6960   47.0290 N   0  0  0  0  0  0  0  0  0  0  0  0
   64.5360   32.6000   47.0460 H   0  0  0  0  0  0  0  0  0  0  0  0
   62.9390   33.8170   46.5000 C   0  0  0  0  0  0  0  0  0  0  0  0
   63.5839   34.6098   46.0932 H   0  0  0  0  0  0  0  0  0  0  0  0
   61.5510   33.9660   46.4710 C   0  0  0  0  0  0  0  0  0  0  0  0
   61.1041   34.8789   46.0504 H   0  0  0  0  0  0  0  0  0  0  0  0
   56.8510   30.6090   44.8720 N   0  0  0  0  0  0  0  0  0  0  0  0
   56.5460   29.3030   45.0900 C   0  0  0  0  0  0  0  0  0  0  0  0
   55.5372   28.9287   44.8614 H   0  0  0  0  0  0  0  0  0  0  0  0
   57.5140   28.4340   45.6050 C   0  0  0  0  0  0  0  0  0  0  0  0
   57.2230   27.0820   45.8380 C   0  0  0  0  0  0  0  0  0  0  0  0
   56.2185   26.6931   45.6149 H   0  0  0  0  0  0  0  0  0  0  0  0
   56.2320   24.0470   45.0150 C   0  0  0  0  0  0  0  0  0  0  0  0
   55.3640   25.0010   45.4330 F   0  0  0  0  0  0  0  0  0  0  0  0
  1  2  1  0
  2  3  2  0
  3  4  1  0
  3  5  1  0
  5  6  1  0
  5  7  2  0
  7  8  1  0
  7  9  1  0
  9 10  1  0
 10 11  1  0
 11 12  1  0
 12 13  1  0
 12 14  2  0
 14 15  1  0
 14 16  1  0
 16 17  2  0
 17 18  1  0
 17 19  1  0
 19 20  2  0
 20 21  1  0
 21 22  2  0
 21 23  1  0
 23 24  2  3
 24 25  1  0
 25 26  1  0
 25 27  2  0
 27 28  1  0
 27 29  1  0
 29 30  1  0
 29 31  1  0
 31 32  1  0
 31 33  2  0
 33 34  1  0
 19 35  1  0
 35 36  1  0
 36 37  1  0
 36 38  2  0
 38 39  1  0
 39 40  1  0
  9 41  2  0
 41 42  1  0
 41  2  1  0
 39 11  2  0
 38 16  1  0
 33 24  1  0
M  CHG  1  35  -1
M  END
>  <UniqueID>  (54) 
49

>  <SMILES>  (54) 
O=C(N=c1cc[nH]cc1)/N=c1\cc2ccc(Oc3c(F)cc(F)cc3F)cc2c[n-]1

>  <Energy>  (54) 
73.54292680662797

>  <Genealogy>  (54) 
O=C(N=c1cc[nH]cc1)N=c1cc2ccc(Oc3c(F)cc(F)cc3F)cc2c[n-]1 (protonated)
O=C(N=c1cc[nH]cc1)/N=c1\cc2ccc(Oc3c(F)cc(F)cc3F)cc2c[n-]1 (cis-trans isomerization)
O=C(N=c1cc[nH]cc1)/N=c1\cc2ccc(Oc3c(F)cc(F)cc3F)cc2c[n-]1 (3D coordinates assigned)
O=C(N=c1cc[nH]cc1)/N=c1\cc2ccc(Oc3c(F)cc(F)cc3F)cc2c[n-]1 (optimized conformer: 73.54292680662797 kcal/mol)

>  <smiles>  (54) 
O=C(N=c1cc[nH]cc1)N=c1cc2ccc(Oc3c(F)cc(F)cc3F)cc2c[nH]1

>  <score_type>  (54) 
oracle

>  <origin>  (54) 
adg

>  <m_score__min__energy>  (54) 
-9.5299999999999994

>  <m_primary>  (54) 
energy

$$$$
54:0
     RDKit          3D

 39 40  0  0  0  0  0  0  0  0999 V2000
   55.6150   29.7230   45.9630 H   0  0  0  0  0  0  0  0  0  0  0  0
   55.1430   29.2400   45.2340 O   0  0  0  0  0  0  0  0  0  0  0  0
   55.6030   29.7880   44.0290 C   0  0  0  0  0  0  0  0  0  0  0  0
   54.7741   30.3063   43.5247 H   0  0  0  0  0  0  0  0  0  0  0  0
   55.9836   28.9799   43.3871 H   0  0  0  0  0  0  0  0  0  0  0  0
   56.7080   30.7640   44.2980 C   0  0  0  0  0  0  0  0  0  0  0  0
   57.1650   30.9050   45.5390 O   0  0  0  0  0  0  0  0  0  0  0  0
   58.1220   31.7710   45.8640 C   0  0  0  0  0  0  0  0  0  0  0  0
   58.6540   31.8620   47.5760 S   0  0  0  0  0  0  0  0  0  0  0  0
   60.4240   31.6030   47.2000 C   0  0  0  0  0  0  0  0  0  0  0  0
   60.6785   32.1448   46.2772 H   0  0  0  0  0  0  0  0  0  0  0  0
   61.0199   31.9786   48.0449 H   0  0  0  0  0  0  0  0  0  0  0  0
   60.7280   30.1420   47.0120 C   0  0  0  0  0  0  0  0  0  0  0  0
   61.0923   29.5765   47.8824 H   0  0  0  0  0  0  0  0  0  0  0  0
   60.5840   29.4840   45.8530 C   0  0  0  0  0  0  0  0  0  0  0  0
   61.3169   29.6777   45.0559 H   0  0  0  0  0  0  0  0  0  0  0  0
   59.5040   28.5160   45.5790 C   0  0  0  0  0  0  0  0  0  0  0  0
   58.7480   28.0010   46.6430 C   0  0  0  0  0  0  0  0  0  0  0  0
   58.9777   28.3026   47.6756 H   0  0  0  0  0  0  0  0  0  0  0  0
   57.7030   27.1050   46.3940 C   0  0  0  0  0  0  0  0  0  0  0  0
   57.1214   26.6926   47.2317 H   0  0  0  0  0  0  0  0  0  0  0  0
   57.3970   26.7330   45.0810 C   0  0  0  0  0  0  0  0  0  0  0  0
   56.5757   26.0275   44.8870 H   0  0  0  0  0  0  0  0  0  0  0  0
   58.1340   27.2570   44.0150 C   0  0  0  0  0  0  0  0  0  0  0  0
   57.8897   26.9670   42.9824 H   0  0  0  0  0  0  0  0  0  0  0  0
   59.1820   28.1500   44.2610 C   0  0  0  0  0  0  0  0  0  0  0  0
   59.7558   28.5670   43.4203 H   0  0  0  0  0  0  0  0  0  0  0  0
   58.6950   32.5970   44.8860 C   0  0  0  0  0  0  0  0  0  0  0  0
   59.6980   33.5100   45.2480 O   0  0  0  0  0  0  0  0  0  0  0  0
   59.4500   34.8120   45.6990 C   0  0  0  0  0  0  0  0  0  0  0  0
   59.2750   35.7580   44.8820 O   0  0  0  0  0  0  0  0  0  0  0  0
   59.2690   35.0640   47.1570 C   0  0  0  0  0  0  0  0  0  0  0  0
   59.8162   34.3021   47.7315 H   0  0  0  0  0  0  0  0  0  0  0  0
   59.6581   36.0619   47.4077 H   0  0  0  0  0  0  0  0  0  0  0  0
   58.1991   35.0140   47.4077 H   0  0  0  0  0  0  0  0  0  0  0  0
   58.2580   32.4510   43.5570 C   0  0  0  0  0  0  0  0  0  0  0  0
   58.7890   33.1100   42.6250 O   0  0  0  0  0  0  0  0  0  0  0  0
   57.2450   31.5380   43.2630 C   0  0  0  0  0  0  0  0  0  0  0  0
   56.8739   31.4281   42.2333 H   0  0  0  0  0  0  0  0  0  0  0  0
  1  2  1  0
  2  3  1  0
  3  4  1  0
  3  5  1  0
  3  6  1  0
  6  7  1  0
  7  8  1  0
  8  9  1  0
  9 10  1  0
 10 11  1  0
 10 12  1  0
 10 13  1  0
 13 14  1  0
 13 15  2  0
 15 16  1  0
 15 17  1  0
 17 18  2  0
 18 19  1  0
 18 20  1  0
 20 21  1  0
 20 22  2  0
 22 23  1  0
 22 24  1  0
 24 25  1  0
 24 26  2  0
 26 27  1  0
  8 28  2  0
 28 29  1  0
 29 30  1  0
 30 31  2  0
 30 32  1  0
 32 33  1  0
 32 34  1  0
 32 35  1  0
 28 36  1  0
 36 37  2  0
 36 38  1  0
 38 39  1  0
 38  6  2  0
 26 17  1  0
M  END
>  <UniqueID>  (55) 
50

>  <SMILES>  (55) 
CC(=O)Oc1c(SC/C=C\c2ccccc2)oc(CO)cc1=O

>  <Energy>  (55) 
43.325920031968444

>  <Genealogy>  (55) 
CC(=O)Oc1c(SC/C=C\c2ccccc2)oc(CO)cc1=O (cis-trans isomerization)
CC(=O)Oc1c(SC/C=C\c2ccccc2)oc(CO)cc1=O (3D coordinates assigned)
CC(=O)Oc1c(SC/C=C\c2ccccc2)oc(CO)cc1=O (optimized conformer: 43.325920031968444 kcal/mol)

>  <smiles>  (55) 
CC(=O)Oc1c(SCC=Cc2ccccc2)oc(CO)cc1=O

>  <score_type>  (55) 
oracle

>  <origin>  (55) 
adg

>  <m_score__min__energy>  (55) 
-7.4900000000000002

>  <m_primary>  (55) 
energy

$$$$
55:0
     RDKit          3D

 39 41  0  0  0  0  0  0  0  0999 V2000
   60.2480   27.5400   48.2120 C   0  0  0  0  0  0  0  0  0  0  0  0
   59.7170   28.7500   47.5050 C   0  0  0  0  0  0  0  0  0  0  0  0
   60.2350   30.0510   47.5500 C   0  0  0  0  0  0  0  0  0  0  0  0
   61.4590   30.4960   48.2960 C   0  0  0  0  0  0  0  0  0  0  0  0
   62.2210   31.4970   47.4890 C   0  0  0  0  0  0  0  0  0  0  0  0
   63.3890   31.2290   47.0940 O   0  0  0  0  0  0  0  0  0  0  0  0
   61.6330   32.7290   47.1920 O   0  0  0  0  0  0  0  0  0  0  0  0
   61.5130   33.7770   48.1470 C   0  0  0  0  0  0  0  0  0  0  0  0
   60.0740   34.1850   48.2630 C   0  0  0  0  0  0  0  0  0  0  0  0
   59.6620   34.6030   49.3790 O   0  0  0  0  0  0  0  0  0  0  0  0
   59.1390   34.1330   47.1060 C   0  0  0  0  0  0  0  0  0  0  0  0
   57.8730   33.5160   47.2070 C   0  0  0  0  0  0  0  0  0  0  0  0
   57.0140   33.4730   46.1050 C   0  0  0  0  0  0  0  0  0  0  0  0
   57.4010   34.0410   44.8900 C   0  0  0  0  0  0  0  0  0  0  0  0
   58.6490   34.6550   44.7740 C   0  0  0  0  0  0  0  0  0  0  0  0
   59.5140   34.7010   45.8710 C   0  0  0  0  0  0  0  0  0  0  0  0
   59.5260   30.8760   46.7460 N   0  0  0  0  0  0  0  0  0  0  0  0
   58.5630   30.1130   46.2060 C   0  0  0  0  0  0  0  0  0  0  0  0
   57.6230   30.5340   45.3280 N   0  0  0  0  0  0  0  0  0  0  0  0
   56.7150   29.6310   44.8570 C   0  0  0  0  0  0  0  0  0  0  0  0
   55.5740   30.1260   43.7940 S   0  0  0  0  0  0  0  0  0  0  0  0
   56.7590   28.3220   45.2670 N   0  0  0  0  0  0  0  0  0  0  0  0
   57.7080   27.8840   46.1510 C   0  0  0  0  0  0  0  0  0  0  0  0
   57.7290   26.3100   46.6120 S   0  0  0  0  0  0  0  0  0  0  0  0
   58.6350   28.8170   46.6340 C   0  0  0  0  0  0  0  0  0  0  0  0
   60.1813   27.6920   49.2994 H   0  0  0  0  0  0  0  0  0  0  0  0
   59.6538   26.6590   47.9278 H   0  0  0  0  0  0  0  0  0  0  0  0
   61.2987   27.3809   47.9278 H   0  0  0  0  0  0  0  0  0  0  0  0
   61.1568   30.9528   49.2500 H   0  0  0  0  0  0  0  0  0  0  0  0
   62.1015   29.6231   48.4839 H   0  0  0  0  0  0  0  0  0  0  0  0
   61.8745   33.4255   49.1246 H   0  0  0  0  0  0  0  0  0  0  0  0
   62.1138   34.6394   47.8226 H   0  0  0  0  0  0  0  0  0  0  0  0
   57.5601   33.0655   48.1605 H   0  0  0  0  0  0  0  0  0  0  0  0
   56.0299   32.9900   46.1956 H   0  0  0  0  0  0  0  0  0  0  0  0
   56.7229   34.0047   44.0247 H   0  0  0  0  0  0  0  0  0  0  0  0
   58.9527   35.1039   43.8168 H   0  0  0  0  0  0  0  0  0  0  0  0
   60.4967   35.1849   45.7700 H   0  0  0  0  0  0  0  0  0  0  0  0
   59.6990   31.8890   46.5670 H   0  0  0  0  0  0  0  0  0  0  0  0
   56.0540   27.6450   44.8940 H   0  0  0  0  0  0  0  0  0  0  0  0
  1  2  1  0
  2  3  2  0
  3  4  1  0
  4  5  1  0
  5  6  2  0
  5  7  1  0
  7  8  1  0
  8  9  1  0
  9 10  2  0
  9 11  1  0
 11 12  2  0
 12 13  1  0
 13 14  2  0
 14 15  1  0
 15 16  2  0
  3 17  1  0
 17 18  1  0
 18 19  1  0
 19 20  1  0
 20 21  2  0
 20 22  1  0
 22 23  1  0
 23 24  2  0
 23 25  1  0
 25  2  1  0
 16 11  1  0
 25 18  2  0
  1 26  1  0
  1 27  1  0
  1 28  1  0
  4 29  1  0
  4 30  1  0
  8 31  1  0
  8 32  1  0
 12 33  1  0
 13 34  1  0
 14 35  1  0
 15 36  1  0
 16 37  1  0
 17 38  1  0
 22 39  1  0
M  CHG  1  19  -1
M  END
>  <UniqueID>  (56) 
51

>  <SMILES>  (56) 
Cc1c(CC(=O)OCC(=O)c2ccccc2)[nH]c2[n-]c(=S)[nH]c(=S)c12

>  <Energy>  (56) 
74.66181206218207

>  <Genealogy>  (56) 
Cc1c(CC(=O)OCC(=O)c2ccccc2)[nH]c2[n-]c(=S)[nH]c(=S)c12 (protonated)
Cc1c(CC(=O)OCC(=O)c2ccccc2)[nH]c2[n-]c(=S)[nH]c(=S)c12 (3D coordinates assigned)
Cc1c(CC(=O)OCC(=O)c2ccccc2)[nH]c2[n-]c(=S)[nH]c(=S)c12 (optimized conformer: 74.66181206218207 kcal/mol)

>  <smiles>  (56) 
Cc1c(CC(=O)OCC(=O)c2ccccc2)[nH]c2[nH]c(=S)[nH]c(=S)c12

>  <score_type>  (56) 
oracle

>  <origin>  (56) 
adg

>  <m_score__min__energy>  (56) 
-10.470000000000001

>  <m_primary>  (56) 
energy

$$$$
56:0
     RDKit          3D

 74 78  0  0  0  0  0  0  0  0999 V2000
   57.4210   27.9090   42.9240 N   0  0  0  0  0  0  0  0  0  0  0  0
   57.6800   28.9570   43.9200 C   0  0  2  0  0  0  0  0  0  0  0  0
   59.1680   28.9870   44.3280 C   0  0  0  0  0  0  0  0  0  0  0  0
   59.4620   30.1330   45.2570 C   0  0  0  0  0  0  0  0  0  0  0  0
   60.4580   30.1850   46.2260 C   0  0  0  0  0  0  0  0  0  0  0  0
   60.4620   31.3940   46.8340 N   0  0  0  0  0  0  0  0  0  0  0  0
   59.4810   32.1060   46.2530 C   0  0  0  0  0  0  0  0  0  0  0  0
   59.1080   33.4210   46.5350 C   0  0  0  0  0  0  0  0  0  0  0  0
   58.0530   33.9800   45.7900 C   0  0  0  0  0  0  0  0  0  0  0  0
   57.4000   33.2210   44.7930 C   0  0  0  0  0  0  0  0  0  0  0  0
   57.8010   31.8980   44.5270 C   0  0  0  0  0  0  0  0  0  0  0  0
   58.8490   31.3720   45.2820 C   0  0  0  0  0  0  0  0  0  0  0  0
   56.8190   28.7590   45.1410 C   0  0  0  0  0  0  0  0  0  0  0  0
   56.6500   29.7010   45.9630 O   0  0  0  0  0  0  0  0  0  0  0  0
   56.1530   27.5060   45.3330 N   0  0  0  0  0  0  0  0  0  0  0  0
   56.4690   26.5800   46.4150 C   0  0  0  0  0  0  0  0  0  0  0  0
   57.9550   26.2220   46.3840 C   0  0  0  0  0  0  0  0  0  0  0  0
   58.7400   27.1210   47.3020 C   0  0  0  0  0  0  0  0  0  0  0  0
   60.0820   26.8380   47.5950 C   0  0  0  0  0  0  0  0  0  0  0  0
   60.8180   27.6900   48.4230 C   0  0  0  0  0  0  0  0  0  0  0  0
   60.2240   28.8420   48.9580 C   0  0  0  0  0  0  0  0  0  0  0  0
   61.1540   29.9400   49.9790 S   0  0  0  0  0  0  0  0  0  0  0  0
   61.8010   29.1730   51.0990 O   0  0  0  0  0  0  0  0  0  0  0  0
   62.2230   30.5540   49.1200 O   0  0  0  0  0  0  0  0  0  0  0  0
   60.0910   31.1750   50.6790 C   0  0  0  0  0  0  0  0  0  0  0  0
   59.0320   30.7530   51.5000 C   0  0  0  0  0  0  0  0  0  0  0  0
   58.1270   31.6770   52.0290 C   0  0  0  0  0  0  0  0  0  0  0  0
   58.2740   33.0360   51.7520 C   0  0  0  0  0  0  0  0  0  0  0  0
   59.3310   33.4760   50.9540 C   0  0  0  0  0  0  0  0  0  0  0  0
   60.2560   32.5600   50.4270 C   0  0  0  0  0  0  0  0  0  0  0  0
   61.3800   33.0930   49.6370 C   0  0  0  0  0  0  0  0  0  0  0  0
   61.1270   33.6640   48.5410 O   0  0  0  0  0  0  0  0  0  0  0  0
   62.7430   32.9940   50.0990 N   0  0  0  0  0  0  0  0  0  0  0  0
   63.0560   32.7420   51.5140 C   0  0  0  0  0  0  0  0  0  0  0  0
   64.1640   33.6930   51.9770 C   0  0  0  0  0  0  0  0  0  0  0  0
   65.4130   33.6530   51.0680 C   0  0  0  0  0  0  0  0  0  0  0  0
   65.2040   32.8740   49.7590 C   0  0  0  0  0  0  0  0  0  0  0  0
   63.8380   33.1810   49.1330 C   0  0  0  0  0  0  0  0  0  0  0  0
   58.8910   29.1400   48.6460 C   0  0  0  0  0  0  0  0  0  0  0  0
   58.1510   28.2820   47.8270 C   0  0  0  0  0  0  0  0  0  0  0  0
   58.2780   27.7180   42.3570 H   0  0  0  0  0  0  0  0  0  0  0  0
   57.1230   27.0290   43.4060 H   0  0  0  0  0  0  0  0  0  0  0  0
   56.6450   28.2050   42.2870 H   0  0  0  0  0  0  0  0  0  0  0  0
   57.4268   29.9219   43.4566 H   0  0  0  0  0  0  0  0  0  0  0  0
   59.4189   28.0432   44.8342 H   0  0  0  0  0  0  0  0  0  0  0  0
   59.7727   29.1163   43.4183 H   0  0  0  0  0  0  0  0  0  0  0  0
   61.1454   29.3601   46.4646 H   0  0  0  0  0  0  0  0  0  0  0  0
   61.1020   31.7070   47.5980 H   0  0  0  0  0  0  0  0  0  0  0  0
   59.6223   34.0020   47.3147 H   0  0  0  0  0  0  0  0  0  0  0  0
   57.7346   35.0147   45.9851 H   0  0  0  0  0  0  0  0  0  0  0  0
   56.5729   33.6668   44.2209 H   0  0  0  0  0  0  0  0  0  0  0  0
   57.3042   31.2990   43.7495 H   0  0  0  0  0  0  0  0  0  0  0  0
   56.2286   27.0517   47.3792 H   0  0  0  0  0  0  0  0  0  0  0  0
   55.8753   25.6627   46.2883 H   0  0  0  0  0  0  0  0  0  0  0  0
   58.0814   25.1780   46.7066 H   0  0  0  0  0  0  0  0  0  0  0  0
   58.3283   26.3531   45.3576 H   0  0  0  0  0  0  0  0  0  0  0  0
   60.5575   25.9412   47.1711 H   0  0  0  0  0  0  0  0  0  0  0  0
   61.8673   27.4560   48.6559 H   0  0  0  0  0  0  0  0  0  0  0  0
   58.9139   29.6836   51.7289 H   0  0  0  0  0  0  0  0  0  0  0  0
   57.2979   31.3322   52.6644 H   0  0  0  0  0  0  0  0  0  0  0  0
   57.5564   33.7615   52.1628 H   0  0  0  0  0  0  0  0  0  0  0  0
   59.4405   34.5486   50.7361 H   0  0  0  0  0  0  0  0  0  0  0  0
   62.1547   32.9074   52.1226 H   0  0  0  0  0  0  0  0  0  0  0  0
   63.3965   31.7026   51.6314 H   0  0  0  0  0  0  0  0  0  0  0  0
   63.7664   34.7186   51.9815 H   0  0  0  0  0  0  0  0  0  0  0  0
   64.4771   33.3696   52.9807 H   0  0  0  0  0  0  0  0  0  0  0  0
   65.6913   34.6868   50.8155 H   0  0  0  0  0  0  0  0  0  0  0  0
   66.2009   33.1297   51.6296 H   0  0  0  0  0  0  0  0  0  0  0  0
   65.9943   33.1536   49.0468 H   0  0  0  0  0  0  0  0  0  0  0  0
   65.2446   31.7988   49.9875 H   0  0  0  0  0  0  0  0  0  0  0  0
   63.8318   34.2243   48.7844 H   0  0  0  0  0  0  0  0  0  0  0  0
   63.6798   32.4852   48.2958 H   0  0  0  0  0  0  0  0  0  0  0  0
   58.4251   30.0523   49.0469 H   0  0  0  0  0  0  0  0  0  0  0  0
   57.1024   28.5178   47.5929 H   0  0  0  0  0  0  0  0  0  0  0  0
  1  2  1  0
  2  3  1  0
  3  4  1  0
  4  5  2  0
  5  6  1  0
  6  7  1  0
  7  8  2  0
  8  9  1  0
  9 10  2  0
 10 11  1  0
 11 12  2  0
  2 13  1  0
 13 14  2  0
 13 15  1  0
 15 16  1  0
 16 17  1  0
 17 18  1  0
 18 19  2  0
 19 20  1  0
 20 21  2  0
 21 22  1  0
 22 23  2  0
 22 24  2  0
 22 25  1  0
 25 26  2  0
 26 27  1  0
 27 28  2  0
 28 29  1  0
 29 30  2  0
 30 31  1  0
 31 32  2  0
 31 33  1  0
 33 34  1  0
 34 35  1  0
 35 36  1  0
 36 37  1  0
 37 38  1  0
 21 39  1  0
 39 40  2  0
 12  4  1  0
 40 18  1  0
 12  7  1  0
 30 25  1  0
 38 33  1  0
  1 41  1  0
  1 42  1  0
  1 43  1  0
  2 44  1  6
  3 45  1  0
  3 46  1  0
  5 47  1  0
  6 48  1  0
  8 49  1  0
  9 50  1  0
 10 51  1  0
 11 52  1  0
 16 53  1  0
 16 54  1  0
 17 55  1  0
 17 56  1  0
 19 57  1  0
 20 58  1  0
 26 59  1  0
 27 60  1  0
 28 61  1  0
 29 62  1  0
 34 63  1  0
 34 64  1  0
 35 65  1  0
 35 66  1  0
 36 67  1  0
 36 68  1  0
 37 69  1  0
 37 70  1  0
 38 71  1  0
 38 72  1  0
 39 73  1  0
 40 74  1  0
M  CHG  2   1   1  15  -1
M  END
>  <UniqueID>  (57) 
52

>  <SMILES>  (57) 
[NH3+][C@H](Cc1c[nH]c2ccccc12)C(=O)[N-]CCc1ccc(S(=O)(=O)c2ccccc2C(=O)N2CCCCC2)cc1

>  <Energy>  (57) 
115.55449108379345

>  <Genealogy>  (57) 
[NH3+]C(Cc1c[nH]c2ccccc12)C(=O)[N-]CCc1ccc(S(=O)(=O)c2ccccc2C(=O)N2CCCCC2)cc1 (protonated)
[NH3+][C@H](Cc1c[nH]c2ccccc12)C(=O)[N-]CCc1ccc(S(=O)(=O)c2ccccc2C(=O)N2CCCCC2)cc1 (chirality)
[NH3+][C@H](Cc1c[nH]c2ccccc12)C(=O)[N-]CCc1ccc(S(=O)(=O)c2ccccc2C(=O)N2CCCCC2)cc1 (3D coordinates assigned)
[NH3+][C@H](Cc1c[nH]c2ccccc12)C(=O)[N-]CCc1ccc(S(=O)(=O)c2ccccc2C(=O)N2CCCCC2)cc1 (nonaromatic ring conformer: 115.55449108379345 kcal/mol)

>  <smiles>  (57) 
NC(Cc1c[nH]c2ccccc12)C(=O)NCCc1ccc(S(=O)(=O)c2ccccc2C(=O)N2CCCCC2)cc1

>  <score_type>  (57) 
oracle

>  <origin>  (57) 
adg

>  <m_score__min__energy>  (57) 
-12.390000000000001

>  <m_primary>  (57) 
energy

$$$$
57:0
     RDKit          3D

 62 65  0  0  0  0  0  0  0  0999 V2000
   62.8850   25.4290   51.9030 C   0  0  0  0  0  0  0  0  0  0  0  0
   62.3210   26.7710   51.8890 N   0  0  0  0  0  0  0  0  0  0  0  0
   62.7360   27.8080   52.6400 C   0  0  0  0  0  0  0  0  0  0  0  0
   61.9880   28.9100   52.2860 C   0  0  0  0  0  0  0  0  0  0  0  0
   62.0340   30.2700   52.9090 C   0  0  0  0  0  0  0  0  0  0  0  0
   61.8040   31.3370   51.8690 C   0  0  0  0  0  0  0  0  0  0  0  0
   62.7970   31.6140   50.9210 C   0  0  0  0  0  0  0  0  0  0  0  0
   62.6110   32.5710   49.9630 N   0  0  0  0  0  0  0  0  0  0  0  0
   63.7180   32.8440   49.0280 C   0  0  0  0  0  0  0  0  0  0  0  0
   63.3640   32.3930   47.6360 C   0  0  0  0  0  0  0  0  0  0  0  0
   63.6710   33.1210   46.6550 O   0  0  0  0  0  0  0  0  0  0  0  0
   62.6360   31.1810   47.3880 N   0  0  0  0  0  0  0  0  0  0  0  0
   61.5670   30.6330   48.2160 C   0  0  0  0  0  0  0  0  0  0  0  0
   60.3800   30.2430   47.3770 C   0  0  0  0  0  0  0  0  0  0  0  0
   60.3710   30.5150   46.0000 C   0  0  0  0  0  0  0  0  0  0  0  0
   59.2860   30.1220   45.2090 C   0  0  0  0  0  0  0  0  0  0  0  0
   58.1960   29.4590   45.7870 C   0  0  0  0  0  0  0  0  0  0  0  0
   56.8490   28.9340   44.7840 S   0  0  0  0  0  0  0  0  0  0  0  0
   57.4510   28.3500   43.2730 N   0  0  0  0  0  0  0  0  0  0  0  0
   55.9150   30.0860   44.5440 O   0  0  0  0  0  0  0  0  0  0  0  0
   56.0920   27.8370   45.4760 O   0  0  0  0  0  0  0  0  0  0  0  0
   58.2050   29.1800   47.1600 C   0  0  0  0  0  0  0  0  0  0  0  0
   59.2910   29.5680   47.9500 C   0  0  0  0  0  0  0  0  0  0  0  0
   61.4360   33.2840   49.9360 C   0  0  0  0  0  0  0  0  0  0  0  0
   61.1070   34.5580   48.7040 S   0  0  0  0  0  0  0  0  0  0  0  0
   59.3140   34.2130   48.6060 C   0  0  0  0  0  0  0  0  0  0  0  0
   58.8970   33.9120   47.1920 C   0  0  0  0  0  0  0  0  0  0  0  0
   59.6490   34.3980   46.1100 C   0  0  0  0  0  0  0  0  0  0  0  0
   59.2640   34.1090   44.7990 C   0  0  0  0  0  0  0  0  0  0  0  0
   58.1270   33.3320   44.5540 C   0  0  0  0  0  0  0  0  0  0  0  0
   57.7430   33.0810   43.2800 F   0  0  0  0  0  0  0  0  0  0  0  0
   57.3810   32.8330   45.6280 C   0  0  0  0  0  0  0  0  0  0  0  0
   57.7640   33.1180   46.9420 C   0  0  0  0  0  0  0  0  0  0  0  0
   60.4690   33.0330   50.8570 N   0  0  0  0  0  0  0  0  0  0  0  0
   60.6210   32.0860   51.8140 C   0  0  0  0  0  0  0  0  0  0  0  0
   59.6890   31.8910   52.6390 O   0  0  0  0  0  0  0  0  0  0  0  0
   61.1230   28.4650   51.3030 C   0  0  0  0  0  0  0  0  0  0  0  0
   61.3560   27.1580   51.0690 N   0  0  0  0  0  0  0  0  0  0  0  0
   63.0232   25.1002   52.9436 H   0  0  0  0  0  0  0  0  0  0  0  0
   62.2010   24.7384   51.3880 H   0  0  0  0  0  0  0  0  0  0  0  0
   63.8570   25.4344   51.3880 H   0  0  0  0  0  0  0  0  0  0  0  0
   63.5303   27.7808   53.4005 H   0  0  0  0  0  0  0  0  0  0  0  0
   61.2523   30.3415   53.6796 H   0  0  0  0  0  0  0  0  0  0  0  0
   63.0262   30.4210   53.3592 H   0  0  0  0  0  0  0  0  0  0  0  0
   63.7423   31.0521   50.9479 H   0  0  0  0  0  0  0  0  0  0  0  0
   63.9221   33.9248   49.0162 H   0  0  0  0  0  0  0  0  0  0  0  0
   64.6077   32.2906   49.3629 H   0  0  0  0  0  0  0  0  0  0  0  0
   61.9414   29.7439   48.7446 H   0  0  0  0  0  0  0  0  0  0  0  0
   61.2502   31.4037   48.9340 H   0  0  0  0  0  0  0  0  0  0  0  0
   61.2214   31.0399   45.5404 H   0  0  0  0  0  0  0  0  0  0  0  0
   59.2890   30.3344   44.1297 H   0  0  0  0  0  0  0  0  0  0  0  0
   57.7380   29.1830   42.7170 H   0  0  0  0  0  0  0  0  0  0  0  0
   56.6450   27.9220   42.7690 H   0  0  0  0  0  0  0  0  0  0  0  0
   57.3545   28.6538   47.6179 H   0  0  0  0  0  0  0  0  0  0  0  0
   59.2921   29.3430   49.0268 H   0  0  0  0  0  0  0  0  0  0  0  0
   59.0795   33.3466   49.2419 H   0  0  0  0  0  0  0  0  0  0  0  0
   58.7675   35.1037   48.9494 H   0  0  0  0  0  0  0  0  0  0  0  0
   60.5448   35.0087   46.2959 H   0  0  0  0  0  0  0  0  0  0  0  0
   59.8570   34.4937   43.9562 H   0  0  0  0  0  0  0  0  0  0  0  0
   56.4911   32.2150   45.4377 H   0  0  0  0  0  0  0  0  0  0  0  0
   57.1771   32.7198   47.7828 H   0  0  0  0  0  0  0  0  0  0  0  0
   60.3660   29.0793   50.7936 H   0  0  0  0  0  0  0  0  0  0  0  0
  1  2  1  0
  2  3  1  0
  3  4  2  0
  4  5  1  0
  5  6  1  0
  6  7  2  0
  7  8  1  0
  8  9  1  0
  9 10  1  0
 10 11  2  0
 10 12  1  0
 12 13  1  0
 13 14  1  0
 14 15  2  0
 15 16  1  0
 16 17  2  0
 17 18  1  0
 18 19  1  0
 18 20  2  0
 18 21  2  0
 17 22  1  0
 22 23  2  0
  8 24  1  0
 24 25  1  0
 25 26  1  0
 26 27  1  0
 27 28  2  0
 28 29  1  0
 29 30  2  0
 30 31  1  0
 30 32  1  0
 32 33  2  0
 24 34  2  0
 34 35  1  0
 35 36  2  0
  4 37  1  0
 37 38  2  0
 38  2  1  0
 35  6  1  0
 23 14  1  0
 33 27  1  0
  1 39  1  0
  1 40  1  0
  1 41  1  0
  3 42  1  0
  5 43  1  0
  5 44  1  0
  7 45  1  0
  9 46  1  0
  9 47  1  0
 13 48  1  0
 13 49  1  0
 15 50  1  0
 16 51  1  0
 19 52  1  0
 19 53  1  0
 22 54  1  0
 23 55  1  0
 26 56  1  0
 26 57  1  0
 28 58  1  0
 29 59  1  0
 32 60  1  0
 33 61  1  0
 37 62  1  0
M  CHG  1  12  -1
M  END
>  <UniqueID>  (58) 
53

>  <SMILES>  (58) 
Cn1cc(Cc2cn(CC(=O)[N-]Cc3ccc(S(N)(=O)=O)cc3)c(SCc3ccc(F)cc3)nc2=O)cn1

>  <Energy>  (58) 
88.50107825659786

>  <Genealogy>  (58) 
Cn1cc(Cc2cn(CC(=O)[N-]Cc3ccc(S(N)(=O)=O)cc3)c(SCc3ccc(F)cc3)nc2=O)cn1 (protonated)
Cn1cc(Cc2cn(CC(=O)[N-]Cc3ccc(S(N)(=O)=O)cc3)c(SCc3ccc(F)cc3)nc2=O)cn1 (3D coordinates assigned)
Cn1cc(Cc2cn(CC(=O)[N-]Cc3ccc(S(N)(=O)=O)cc3)c(SCc3ccc(F)cc3)nc2=O)cn1 (optimized conformer: 88.50107825659786 kcal/mol)

>  <smiles>  (58) 
Cn1cc(Cc2cn(CC(=O)NCc3ccc(S(N)(=O)=O)cc3)c(SCc3ccc(F)cc3)nc2=O)cn1

>  <score_type>  (58) 
oracle

>  <origin>  (58) 
adg

>  <m_score__min__energy>  (58) 
-11.029999999999999

>  <m_primary>  (58) 
energy

$$$$
58:0
     RDKit          3D

 49 51  0  0  0  0  0  0  0  0999 V2000
   56.5790   25.1570   47.3300 C   0  0  0  0  0  0  0  0  0  0  0  0
   56.7330   25.2460   45.9870 C   0  0  0  0  0  0  0  0  0  0  0  0
   57.4160   26.3640   45.3980 C   0  0  0  0  0  0  0  0  0  0  0  0
   57.7070   27.6560   46.1710 C   0  0  0  0  0  0  0  0  0  0  0  0
   57.1650   28.8960   45.4950 C   0  0  0  0  0  0  0  0  0  0  0  0
   55.8870   29.0010   45.0700 N   0  0  0  0  0  0  0  0  0  0  0  0
   55.6820   30.1920   44.5270 N   0  0  0  0  0  0  0  0  0  0  0  0
   56.8400   30.8680   44.6160 C   0  0  0  0  0  0  0  0  0  0  0  0
   56.9960   32.0410   44.1820 O   0  0  0  0  0  0  0  0  0  0  0  0
   57.8110   30.1020   45.2340 C   0  0  0  0  0  0  0  0  0  0  0  0
   59.2410   30.4960   45.4630 C   0  0  0  0  0  0  0  0  0  0  0  0
   59.4090   31.1800   46.8230 C   0  0  0  0  0  0  0  0  0  0  0  0
   58.9480   32.6020   46.7630 C   0  0  0  0  0  0  0  0  0  0  0  0
   59.5880   33.4480   46.0830 O   0  0  0  0  0  0  0  0  0  0  0  0
   57.8130   32.9970   47.4630 O   0  0  0  0  0  0  0  0  0  0  0  0
   57.8140   26.2830   44.0360 C   0  0  0  0  0  0  0  0  0  0  0  0
   58.5130   27.4140   43.3170 C   0  0  0  0  0  0  0  0  0  0  0  0
   57.6720   25.0810   43.3440 C   0  0  0  0  0  0  0  0  0  0  0  0
   56.9550   24.0070   43.8740 C   0  0  0  0  0  0  0  0  0  0  0  0
   56.8340   22.7660   43.0020 C   0  0  0  0  0  0  0  0  0  0  0  0
   57.5840   21.5900   43.6210 C   0  0  0  0  0  0  0  0  0  0  0  0
   56.3430   24.1380   45.1530 C   0  0  0  0  0  0  0  0  0  0  0  0
   55.4020   23.2250   45.5340 C   0  0  0  0  0  0  0  0  0  0  0  0
   53.9410   23.4060   45.4020 C   0  0  0  0  0  0  0  0  0  0  0  0
   53.0450   22.4050   45.3080 N   0  0  0  0  0  0  0  0  0  0  0  0
   51.8590   23.0490   45.3110 C   0  0  0  0  0  0  0  0  0  0  0  0
   50.7590   22.4410   45.2310 O   0  0  0  0  0  0  0  0  0  0  0  0
   51.9410   24.3910   45.4190 N   0  0  0  0  0  0  0  0  0  0  0  0
   53.2650   24.5990   45.4850 C   0  0  0  0  0  0  0  0  0  0  0  0
   53.8450   25.8550   45.6210 O   0  0  0  0  0  0  0  0  0  0  0  0
   56.0538   24.2952   47.7675 H   0  0  0  0  0  0  0  0  0  0  0  0
   56.9792   25.9466   47.9830 H   0  0  0  0  0  0  0  0  0  0  0  0
   57.2511   27.5754   47.1688 H   0  0  0  0  0  0  0  0  0  0  0  0
   58.8004   27.7651   46.2208 H   0  0  0  0  0  0  0  0  0  0  0  0
   55.1540   28.2610   45.1330 H   0  0  0  0  0  0  0  0  0  0  0  0
   59.8719   29.5954   45.4326 H   0  0  0  0  0  0  0  0  0  0  0  0
   59.5411   31.2025   44.6751 H   0  0  0  0  0  0  0  0  0  0  0  0
   58.8145   30.6396   47.5744 H   0  0  0  0  0  0  0  0  0  0  0  0
   60.4746   31.1660   47.0955 H   0  0  0  0  0  0  0  0  0  0  0  0
   58.9419   28.1080   44.0548 H   0  0  0  0  0  0  0  0  0  0  0  0
   59.3169   27.0064   42.6865 H   0  0  0  0  0  0  0  0  0  0  0  0
   57.7889   27.9507   42.6865 H   0  0  0  0  0  0  0  0  0  0  0  0
   58.1378   24.9761   42.3530 H   0  0  0  0  0  0  0  0  0  0  0  0
   55.7715   22.5010   42.8982 H   0  0  0  0  0  0  0  0  0  0  0  0
   57.2736   22.9841   42.0175 H   0  0  0  0  0  0  0  0  0  0  0  0
   57.5380   21.6621   44.7177 H   0  0  0  0  0  0  0  0  0  0  0  0
   57.1201   20.6471   43.2958 H   0  0  0  0  0  0  0  0  0  0  0  0
   58.6346   21.6130   43.2958 H   0  0  0  0  0  0  0  0  0  0  0  0
   55.7588   22.2817   45.9732 H   0  0  0  0  0  0  0  0  0  0  0  0
  1  2  2  0
  2  3  1  0
  3  4  1  0
  4  5  1  0
  5  6  1  0
  6  7  1  0
  7  8  1  0
  8  9  2  0
  8 10  1  0
 10 11  1  0
 11 12  1  0
 12 13  1  0
 13 14  2  0
 13 15  1  0
  3 16  2  0
 16 17  1  0
 16 18  1  0
 18 19  2  0
 19 20  1  0
 20 21  1  0
 19 22  1  0
 22 23  2  3
 23 24  1  0
 24 25  1  0
 25 26  1  0
 26 27  2  0
 26 28  1  0
 28 29  1  0
 29 30  1  0
 22  2  1  0
 29 24  2  0
 10  5  2  0
  1 31  1  0
  1 32  1  0
  4 33  1  0
  4 34  1  0
  6 35  1  0
 11 36  1  0
 11 37  1  0
 12 38  1  0
 12 39  1  0
 17 40  1  0
 17 41  1  0
 17 42  1  0
 18 43  1  0
 20 44  1  0
 20 45  1  0
 21 46  1  0
 21 47  1  0
 21 48  1  0
 23 49  1  0
M  CHG  5   7  -1  15  -1  25  -1  28  -1  30  -1
M  END
>  <UniqueID>  (59) 
54

>  <SMILES>  (59) 
C=c1c(Cc2[nH][n-]c(=O)c2CCC(=O)[O-])c(C)cc(CC)c1=Cc1[n-]c(=O)[n-]c1[O-]

>  <Energy>  (59) 
138.27759625665163

>  <Genealogy>  (59) 
C=c1c(Cc2[nH][n-]c(=O)c2CCC(=O)[O-])c(C)cc(CC)c1=Cc1[n-]c(=O)[n-]c1[O-] (protonated)
C=c1c(Cc2[nH][n-]c(=O)c2CCC(=O)[O-])c(C)cc(CC)c1=Cc1[n-]c(=O)[n-]c1[O-] (3D coordinates assigned)
C=c1c(Cc2[nH][n-]c(=O)c2CCC(=O)[O-])c(C)cc(CC)c1=Cc1[n-]c(=O)[n-]c1[O-] (optimized conformer: 138.27759625665163 kcal/mol)

>  <smiles>  (59) 
C=c1c(Cc2[nH][nH]c(=O)c2CCC(=O)O)c(C)cc(CC)c1=Cc1[nH]c(=O)[nH]c1O

>  <score_type>  (59) 
oracle

>  <origin>  (59) 
adg

>  <m_score__min__energy>  (59) 
-16.899999999999999

>  <m_primary>  (59) 
energy

$$$$
59:0
     RDKit          3D

 32 33  0  0  0  0  0  0  0  0999 V2000
   54.5750   30.1260   45.3110 H   0  0  0  0  0  0  0  0  0  0  0  0
   55.1630   29.4040   44.8350 N   0  0  0  0  0  0  0  0  0  0  0  0
   56.4280   29.2680   45.0750 C   0  0  0  0  0  0  0  0  0  0  0  0
   57.1800   30.3710   45.3340 N   0  0  0  0  0  0  0  0  0  0  0  0
   58.5140   30.2860   45.5830 C   0  0  0  0  0  0  0  0  0  0  0  0
   59.0942   31.1990   45.7826 H   0  0  0  0  0  0  0  0  0  0  0  0
   59.1490   29.0430   45.5860 C   0  0  0  0  0  0  0  0  0  0  0  0
   60.2309   28.9756   45.7728 H   0  0  0  0  0  0  0  0  0  0  0  0
   58.4020   27.8820   45.3500 C   0  0  0  0  0  0  0  0  0  0  0  0
   59.0910   26.5720   45.3340 C   0  0  0  0  0  0  0  0  0  0  0  0
   59.9735   26.4719   44.6851 H   0  0  0  0  0  0  0  0  0  0  0  0
   58.7240   25.4960   46.0490 C   0  0  0  0  0  0  0  0  0  0  0  0
   58.9858   25.4816   47.1173 H   0  0  0  0  0  0  0  0  0  0  0  0
   57.9930   24.3270   45.5070 C   0  0  0  0  0  0  0  0  0  0  0  0
   58.7130   23.2940   44.8810 C   0  0  0  0  0  0  0  0  0  0  0  0
   59.8120   23.3342   44.8579 H   0  0  0  0  0  0  0  0  0  0  0  0
   58.0500   22.2190   44.2890 C   0  0  0  0  0  0  0  0  0  0  0  0
   58.6287   21.4095   43.8202 H   0  0  0  0  0  0  0  0  0  0  0  0
   56.6470   22.1660   44.2890 C   0  0  0  0  0  0  0  0  0  0  0  0
   55.9330   21.1090   43.7050 O   0  0  0  0  0  0  0  0  0  0  0  0
   55.9000   19.7820   44.2190 C   0  0  0  0  0  0  0  0  0  0  0  0
   55.9008   19.8146   45.3185 H   0  0  0  0  0  0  0  0  0  0  0  0
   54.9890   19.2753   43.8678 H   0  0  0  0  0  0  0  0  0  0  0  0
   56.7847   19.2307   43.8678 H   0  0  0  0  0  0  0  0  0  0  0  0
   55.9250   23.2010   44.8920 C   0  0  0  0  0  0  0  0  0  0  0  0
   54.8255   23.1678   44.8838 H   0  0  0  0  0  0  0  0  0  0  0  0
   56.5780   24.2840   45.5090 C   0  0  0  0  0  0  0  0  0  0  0  0
   55.7930   25.3080   46.1510 N   0  0  0  0  0  0  0  0  0  0  0  0
   56.2730   25.9670   47.0950 O   0  0  0  0  0  0  0  0  0  0  0  0
   54.5710   25.6810   45.6390 O   0  0  0  0  0  0  0  0  0  0  0  0
   57.0300   28.0010   45.0680 C   0  0  0  0  0  0  0  0  0  0  0  0
   56.4318   27.1057   44.8431 H   0  0  0  0  0  0  0  0  0  0  0  0
  1  2  1  0
  2  3  2  0
  3  4  1  0
  4  5  1  0
  5  6  1  0
  5  7  2  0
  7  8  1  0
  7  9  1  0
  9 10  1  0
 10 11  1  0
 10 12  2  3
 12 13  1  0
 12 14  1  0
 14 15  2  0
 15 16  1  0
 15 17  1  0
 17 18  1  0
 17 19  2  0
 19 20  1  0
 20 21  1  0
 21 22  1  0
 21 23  1  0
 21 24  1  0
 19 25  1  0
 25 26  1  0
 25 27  2  0
 27 28  1  0
 28 29  2  0
 28 30  1  0
  9 31  2  0
 31 32  1  0
 31  3  1  0
 27 14  1  0
M  CHG  3   4  -1  28   1  30  -1
M  END
>  <UniqueID>  (60) 
55

>  <SMILES>  (60) 
[H]/N=c1\cc(C=Cc2ccc(OC)cc2[N+](=O)[O-])cc[n-]1

>  <Energy>  (60) 
47.26625966164635

>  <Genealogy>  (60) 
COc1ccc(C=Cc2cc[n-]c(=N)c2)c([N+](=O)[O-])c1 (protonated)
[H]/N=c1\cc(C=Cc2ccc(OC)cc2[N+](=O)[O-])cc[n-]1 (cis-trans isomerization)
[H]/N=c1\cc(C=Cc2ccc(OC)cc2[N+](=O)[O-])cc[n-]1 (3D coordinates assigned)
[H]/N=c1\cc(C=Cc2ccc(OC)cc2[N+](=O)[O-])cc[n-]1 (optimized conformer: 47.26625966164635 kcal/mol)

>  <smiles>  (60) 
COc1ccc(C=Cc2cc[nH]c(=N)c2)c([N+](=O)[O-])c1

>  <score_type>  (60) 
oracle

>  <origin>  (60) 
adg

>  <m_score__min__energy>  (60) 
-9.5399999999999991

>  <m_primary>  (60) 
energy

$$$$
60:0
     RDKit          3D

 72 76  0  0  0  0  0  0  0  0999 V2000
   60.4970   33.2900   51.9920 H   0  0  0  0  0  0  0  0  0  0  0  0
   61.2540   33.8370   51.6000 O   0  0  0  0  0  0  0  0  0  0  0  0
   61.5220   33.8330   50.2330 C   0  0  0  0  0  0  0  0  0  0  0  0
   62.7860   33.4610   49.7550 C   0  0  0  0  0  0  0  0  0  0  0  0
   63.5774   33.1711   50.4619 H   0  0  0  0  0  0  0  0  0  0  0  0
   63.0420   33.4580   48.3800 C   0  0  0  0  0  0  0  0  0  0  0  0
   64.0339   33.1631   48.0070 H   0  0  0  0  0  0  0  0  0  0  0  0
   62.0400   33.8290   47.4790 C   0  0  0  0  0  0  0  0  0  0  0  0
   62.2454   33.8243   46.3984 H   0  0  0  0  0  0  0  0  0  0  0  0
   60.7710   34.2080   47.9490 C   0  0  0  0  0  0  0  0  0  0  0  0
   59.6790   34.5910   46.9840 C   0  0  0  0  0  0  0  0  0  0  0  0
   59.8268   35.6340   46.6673 H   0  0  0  0  0  0  0  0  0  0  0  0
   58.7075   34.4782   47.4874 H   0  0  0  0  0  0  0  0  0  0  0  0
   59.7010   33.7140   45.7920 N   0  0  0  0  0  0  0  0  0  0  0  0
   58.8480   34.1980   44.6850 C   0  0  0  0  0  0  0  0  0  0  0  0
   59.1202   33.6554   43.7676 H   0  0  0  0  0  0  0  0  0  0  0  0
   59.0179   35.2800   44.5827 H   0  0  0  0  0  0  0  0  0  0  0  0
   57.3480   33.9860   44.9560 C   0  0  0  0  0  0  0  0  0  0  0  0
   56.7821   34.2692   44.0562 H   0  0  0  0  0  0  0  0  0  0  0  0
   57.0694   34.6104   45.8177 H   0  0  0  0  0  0  0  0  0  0  0  0
   57.0340   32.5830   45.2930 N   0  0  0  0  0  0  0  0  0  0  0  0
   57.0290   31.7010   44.1040 C   0  0  0  0  0  0  0  0  0  0  0  0
   58.0531   31.6174   43.7113 H   0  0  0  0  0  0  0  0  0  0  0  0
   56.3643   32.1352   43.3426 H   0  0  0  0  0  0  0  0  0  0  0  0
   56.5240   30.3300   44.4650 C   0  0  0  0  0  0  0  0  0  0  0  0
   55.2760   30.1480   44.5100 O   0  0  0  0  0  0  0  0  0  0  0  0
   57.4430   29.1920   44.7520 C   0  0  0  0  0  0  0  0  0  0  0  0
   57.6910   28.1900   43.7940 C   0  0  0  0  0  0  0  0  0  0  0  0
   57.2035   28.2437   42.8094 H   0  0  0  0  0  0  0  0  0  0  0  0
   58.5500   27.1300   44.0840 C   0  0  0  0  0  0  0  0  0  0  0  0
   58.7377   26.3552   43.3261 H   0  0  0  0  0  0  0  0  0  0  0  0
   59.1720   27.0470   45.3290 C   0  0  0  0  0  0  0  0  0  0  0  0
   59.8493   26.2080   45.5468 H   0  0  0  0  0  0  0  0  0  0  0  0
   58.9390   28.0290   46.3080 C   0  0  0  0  0  0  0  0  0  0  0  0
   59.5950   27.9610   47.6380 C   0  0  0  0  0  0  0  0  0  0  0  0
   59.6990   29.0900   48.3930 N   0  0  0  0  0  0  0  0  0  0  0  0
   60.2830   29.0830   49.6230 C   0  0  0  0  0  0  0  0  0  0  0  0
   60.3790   30.1720   50.3260 N   0  0  0  0  0  0  0  0  0  0  0  0
   59.3540   31.2110   50.3720 C   0  0  0  0  0  0  0  0  0  0  0  0
   59.8418   32.1898   50.4905 H   0  0  0  0  0  0  0  0  0  0  0  0
   58.7794   31.1717   49.4348 H   0  0  0  0  0  0  0  0  0  0  0  0
   58.3790   30.9900   51.5490 C   0  0  0  0  0  0  0  0  0  0  0  0
   57.8112   30.0797   51.3062 H   0  0  0  0  0  0  0  0  0  0  0  0
   57.3510   32.1360   51.6830 C   0  0  0  0  0  0  0  0  0  0  0  0
   56.9878   32.3977   50.6782 H   0  0  0  0  0  0  0  0  0  0  0  0
   56.5435   31.7729   52.3358 H   0  0  0  0  0  0  0  0  0  0  0  0
   57.9320   33.4090   52.3410 C   0  0  0  0  0  0  0  0  0  0  0  0
   58.2151   34.1142   51.5457 H   0  0  0  0  0  0  0  0  0  0  0  0
   57.1528   33.8172   53.0014 H   0  0  0  0  0  0  0  0  0  0  0  0
   59.1170   33.1480   53.1770 N   0  0  0  0  0  0  0  0  0  0  0  0
   59.1890   33.9120   53.8900 H   0  0  0  0  0  0  0  0  0  0  0  0
   59.0100   31.8710   53.8850 C   0  0  0  0  0  0  0  0  0  0  0  0
   59.8246   31.7928   54.6200 H   0  0  0  0  0  0  0  0  0  0  0  0
   58.0381   31.8234   54.3980 H   0  0  0  0  0  0  0  0  0  0  0  0
   59.1110   30.7060   52.8880 C   0  0  0  0  0  0  0  0  0  0  0  0
   60.1736   30.5186   52.6740 H   0  0  0  0  0  0  0  0  0  0  0  0
   58.6258   29.8337   53.3502 H   0  0  0  0  0  0  0  0  0  0  0  0
   60.7870   27.8830   50.1290 C   0  0  0  0  0  0  0  0  0  0  0  0
   61.2665   27.8561   51.1186 H   0  0  0  0  0  0  0  0  0  0  0  0
   60.6800   26.7500   49.3890 N   0  0  0  0  0  0  0  0  0  0  0  0
   60.0980   26.7570   48.1610 C   0  0  0  0  0  0  0  0  0  0  0  0
   60.0210   25.8263   47.5798 H   0  0  0  0  0  0  0  0  0  0  0  0
   58.0810   29.1020   46.0040 C   0  0  0  0  0  0  0  0  0  0  0  0
   57.9056   29.8840   46.7574 H   0  0  0  0  0  0  0  0  0  0  0  0
   57.8900   32.0850   46.3910 C   0  0  0  0  0  0  0  0  0  0  0  0
   57.7118   31.0066   46.5143 H   0  0  0  0  0  0  0  0  0  0  0  0
   57.6264   32.6480   47.2985 H   0  0  0  0  0  0  0  0  0  0  0  0
   59.3910   32.3090   46.1250 C   0  0  0  0  0  0  0  0  0  0  0  0
   59.6998   31.6704   45.2842 H   0  0  0  0  0  0  0  0  0  0  0  0
   59.9361   32.0549   47.0460 H   0  0  0  0  0  0  0  0  0  0  0  0
   60.5190   34.2050   49.3310 C   0  0  0  0  0  0  0  0  0  0  0  0
   59.5271   34.4969   49.7064 H   0  0  0  0  0  0  0  0  0  0  0  0
  1  2  1  0
  2  3  1  0
  3  4  2  0
  4  5  1  0
  4  6  1  0
  6  7  1  0
  6  8  2  0
  8  9  1  0
  8 10  1  0
 10 11  1  0
 11 12  1  0
 11 13  1  0
 11 14  1  0
 14 15  1  0
 15 16  1  0
 15 17  1  0
 15 18  1  0
 18 19  1  0
 18 20  1  0
 18 21  1  0
 21 22  1  0
 22 23  1  0
 22 24  1  0
 22 25  1  0
 25 26  2  0
 25 27  1  0
 27 28  2  0
 28 29  1  0
 28 30  1  0
 30 31  1  0
 30 32  2  0
 32 33  1  0
 32 34  1  0
 34 35  1  0
 35 36  1  0
 36 37  1  0
 37 38  2  0
 38 39  1  0
 39 40  1  0
 39 41  1  0
 39 42  1  0
 42 43  1  0
 42 44  1  0
 44 45  1  0
 44 46  1  0
 44 47  1  0
 47 48  1  0
 47 49  1  0
 47 50  1  0
 50 51  1  0
 50 52  1  0
 52 53  1  0
 52 54  1  0
 52 55  1  0
 55 56  1  0
 55 57  1  0
 37 58  1  0
 58 59  1  0
 58 60  2  0
 60 61  1  0
 61 62  1  0
 34 63  2  0
 63 64  1  0
 21 65  1  0
 65 66  1  0
 65 67  1  0
 65 68  1  0
 68 69  1  0
 68 70  1  0
 10 71  2  0
 71 72  1  0
 71  3  1  0
 68 14  1  0
 63 27  1  0
 61 35  2  0
 55 42  1  0
M  CHG  1  36  -1
M  END
>  <UniqueID>  (61) 
56

>  <SMILES>  (61) 
O=C(CN1CCN(Cc2cccc(O)c2)CC1)c1cccc(-c2cnc/c(=N/CC3CCNCC3)[n-]2)c1

>  <Energy>  (61) 
93.8168778382656

>  <Genealogy>  (61) 
O=C(CN1CCN(Cc2cccc(O)c2)CC1)c1cccc(-c2cncc(=NCC3CCNCC3)[n-]2)c1 (protonated)
O=C(CN1CCN(Cc2cccc(O)c2)CC1)c1cccc(-c2cnc/c(=N/CC3CCNCC3)[n-]2)c1 (cis-trans isomerization)
O=C(CN1CCN(Cc2cccc(O)c2)CC1)c1cccc(-c2cnc/c(=N/CC3CCNCC3)[n-]2)c1 (3D coordinates assigned)
O=C(CN1CCN(Cc2cccc(O)c2)CC1)c1cccc(-c2cnc/c(=N/CC3CCNCC3)[n-]2)c1 (nonaromatic ring conformer: 93.8168778382656 kcal/mol)

>  <smiles>  (61) 
O=C(CN1CCN(Cc2cccc(O)c2)CC1)c1cccc(-c2cncc(=NCC3CCNCC3)[nH]2)c1

>  <score_type>  (61) 
oracle

>  <origin>  (61) 
adg

>  <m_score__min__energy>  (61) 
-12.68

>  <m_primary>  (61) 
energy

$$$$
61:0
     RDKit          3D

 62 66  0  0  0  0  0  0  0  0999 V2000
   56.9240   20.9920   48.8090 O   0  0  0  0  0  0  0  0  0  0  0  0
   56.8660   20.8470   47.5620 C   0  0  0  0  0  0  0  0  0  0  0  0
   55.9200   19.8280   46.9860 C   0  0  0  0  0  0  0  0  0  0  0  0
   55.1230   20.4030   45.9520 O   0  0  0  0  0  0  0  0  0  0  0  0
   55.5850   21.2550   44.9370 C   0  0  0  0  0  0  0  0  0  0  0  0
   55.0590   22.5520   44.8740 C   0  0  0  0  0  0  0  0  0  0  0  0
   55.4820   23.4440   43.8860 C   0  0  0  0  0  0  0  0  0  0  0  0
   56.4390   23.0480   42.9490 C   0  0  0  0  0  0  0  0  0  0  0  0
   56.9780   21.7590   43.0050 C   0  0  0  0  0  0  0  0  0  0  0  0
   56.5570   20.8640   43.9930 C   0  0  0  0  0  0  0  0  0  0  0  0
   57.7690   21.5970   46.7370 N   0  0  0  0  0  0  0  0  0  0  0  0
   57.7430   23.0140   46.5150 C   0  0  0  0  0  0  0  0  0  0  0  0
   56.8850   23.8060   47.2860 C   0  0  0  0  0  0  0  0  0  0  0  0
   56.8330   25.1900   47.0940 C   0  0  0  0  0  0  0  0  0  0  0  0
   57.6340   25.8020   46.1120 C   0  0  0  0  0  0  0  0  0  0  0  0
   57.6110   27.2700   45.8980 C   0  0  0  0  0  0  0  0  0  0  0  0
   58.6620   28.0590   46.2720 N   0  0  0  0  0  0  0  0  0  0  0  0
   58.6290   29.4030   46.0500 C   0  0  0  0  0  0  0  0  0  0  0  0
   59.7080   30.2180   46.4240 C   0  0  0  0  0  0  0  0  0  0  0  0
   59.6690   31.5930   46.1770 C   0  0  0  0  0  0  0  0  0  0  0  0
   58.5530   32.1680   45.5520 C   0  0  0  0  0  0  0  0  0  0  0  0
   58.4940   33.9040   45.2500 S   0  0  0  0  0  0  0  0  0  0  0  0
   57.0570   34.3210   45.1080 O   0  0  0  0  0  0  0  0  0  0  0  0
   59.2130   34.2220   43.9670 O   0  0  0  0  0  0  0  0  0  0  0  0
   59.2290   34.7690   46.5780 N   0  0  0  0  0  0  0  0  0  0  0  0
   58.8340   34.1470   47.8640 C   0  0  0  0  0  0  0  0  0  0  0  0
   59.7920   34.5340   48.9930 C   0  0  0  0  0  0  0  0  0  0  0  0
   61.2190   34.0310   48.7050 C   0  0  0  0  0  0  0  0  0  0  0  0
   61.5040   33.8870   47.2010 C   0  0  0  0  0  0  0  0  0  0  0  0
   60.6940   34.9020   46.3810 C   0  0  0  0  0  0  0  0  0  0  0  0
   57.4670   31.3610   45.1870 C   0  0  0  0  0  0  0  0  0  0  0  0
   57.5030   29.9760   45.4300 C   0  0  0  0  0  0  0  0  0  0  0  0
   56.4550   29.1180   45.0680 C   0  0  0  0  0  0  0  0  0  0  0  0
   55.4180   29.5650   44.5090 O   0  0  0  0  0  0  0  0  0  0  0  0
   56.5500   27.8170   45.3100 O   0  0  0  0  0  0  0  0  0  0  0  0
   58.4510   24.9960   45.3030 C   0  0  0  0  0  0  0  0  0  0  0  0
   58.5040   23.6120   45.5000 C   0  0  0  0  0  0  0  0  0  0  0  0
   56.5008   18.9914   46.5704 H   0  0  0  0  0  0  0  0  0  0  0  0
   55.2550   19.4725   47.7868 H   0  0  0  0  0  0  0  0  0  0  0  0
   54.3058   22.8708   45.6096 H   0  0  0  0  0  0  0  0  0  0  0  0
   55.0610   24.4594   43.8458 H   0  0  0  0  0  0  0  0  0  0  0  0
   56.7683   23.7492   42.1680 H   0  0  0  0  0  0  0  0  0  0  0  0
   57.7351   21.4484   42.2699 H   0  0  0  0  0  0  0  0  0  0  0  0
   56.9852   19.8516   44.0342 H   0  0  0  0  0  0  0  0  0  0  0  0
   56.2467   23.3363   48.0488 H   0  0  0  0  0  0  0  0  0  0  0  0
   56.1626   25.8036   47.7137 H   0  0  0  0  0  0  0  0  0  0  0  0
   59.5160   27.6350   46.7000 H   0  0  0  0  0  0  0  0  0  0  0  0
   60.5873   29.7734   46.9131 H   0  0  0  0  0  0  0  0  0  0  0  0
   60.5174   32.2270   46.4741 H   0  0  0  0  0  0  0  0  0  0  0  0
   57.8194   34.4816   48.1259 H   0  0  0  0  0  0  0  0  0  0  0  0
   58.8674   33.0542   47.7430 H   0  0  0  0  0  0  0  0  0  0  0  0
   59.8097   35.6296   49.0896 H   0  0  0  0  0  0  0  0  0  0  0  0
   59.4391   34.0698   49.9257 H   0  0  0  0  0  0  0  0  0  0  0  0
   61.9374   34.7459   49.1326 H   0  0  0  0  0  0  0  0  0  0  0  0
   61.3185   33.0342   49.1594 H   0  0  0  0  0  0  0  0  0  0  0  0
   62.5762   34.0552   47.0216 H   0  0  0  0  0  0  0  0  0  0  0  0
   61.2116   32.8741   46.8872 H   0  0  0  0  0  0  0  0  0  0  0  0
   60.9973   35.9162   46.6801 H   0  0  0  0  0  0  0  0  0  0  0  0
   60.9022   34.7079   45.3185 H   0  0  0  0  0  0  0  0  0  0  0  0
   56.5845   31.8116   44.7094 H   0  0  0  0  0  0  0  0  0  0  0  0
   59.0547   25.4569   44.5073 H   0  0  0  0  0  0  0  0  0  0  0  0
   59.1446   22.9908   44.8568 H   0  0  0  0  0  0  0  0  0  0  0  0
  1  2  2  0
  2  3  1  0
  3  4  1  0
  4  5  1  0
  5  6  2  0
  6  7  1  0
  7  8  2  0
  8  9  1  0
  9 10  2  0
  2 11  1  0
 11 12  1  0
 12 13  2  0
 13 14  1  0
 14 15  2  0
 15 16  1  0
 16 17  2  0
 17 18  1  0
 18 19  2  0
 19 20  1  0
 20 21  2  0
 21 22  1  0
 22 23  2  0
 22 24  2  0
 22 25  1  0
 25 26  1  0
 26 27  1  0
 27 28  1  0
 28 29  1  0
 29 30  1  0
 21 31  1  0
 31 32  2  0
 32 33  1  0
 33 34  2  0
 33 35  1  0
 15 36  1  0
 36 37  2  0
 10  5  1  0
 37 12  1  0
 35 16  1  0
 32 18  1  0
 30 25  1  0
  3 38  1  0
  3 39  1  0
  6 40  1  0
  7 41  1  0
  8 42  1  0
  9 43  1  0
 10 44  1  0
 13 45  1  0
 14 46  1  0
 17 47  1  0
 19 48  1  0
 20 49  1  0
 26 50  1  0
 26 51  1  0
 27 52  1  0
 27 53  1  0
 28 54  1  0
 28 55  1  0
 29 56  1  0
 29 57  1  0
 30 58  1  0
 30 59  1  0
 31 60  1  0
 36 61  1  0
 37 62  1  0
M  CHG  2  11  -1  17   1
M  END
>  <UniqueID>  (62) 
57

>  <SMILES>  (62) 
O=C(COc1ccccc1)[N-]c1ccc(-c2[nH+]c3ccc(S(=O)(=O)N4CCCCC4)cc3c(=O)o2)cc1

>  <Energy>  (62) 
86.35274520515911

>  <Genealogy>  (62) 
O=C(COc1ccccc1)[N-]c1ccc(-c2[nH+]c3ccc(S(=O)(=O)N4CCCCC4)cc3c(=O)o2)cc1 (protonated)
O=C(COc1ccccc1)[N-]c1ccc(-c2[nH+]c3ccc(S(=O)(=O)N4CCCCC4)cc3c(=O)o2)cc1 (3D coordinates assigned)
O=C(COc1ccccc1)[N-]c1ccc(-c2[nH+]c3ccc(S(=O)(=O)N4CCCCC4)cc3c(=O)o2)cc1 (nonaromatic ring conformer: 86.35274520515911 kcal/mol)

>  <smiles>  (62) 
O=C(COc1ccccc1)Nc1ccc(-c2nc3ccc(S(=O)(=O)N4CCCCC4)cc3c(=O)o2)cc1

>  <score_type>  (62) 
oracle

>  <origin>  (62) 
adg

>  <m_score__min__energy>  (62) 
-9.7799999999999994

>  <m_primary>  (62) 
energy

$$$$
62:0
     RDKit          3D

 50 53  0  0  0  0  0  0  0  0999 V2000
   59.5700   29.6590   48.1080 C   0  0  0  0  0  0  0  0  0  0  0  0
   58.8330   30.4110   47.2760 C   0  0  0  0  0  0  0  0  0  0  0  0
   58.3510   30.0630   46.0020 C   0  0  0  0  0  0  0  0  0  0  0  0
   58.3730   28.8920   45.3360 C   0  0  0  0  0  0  0  0  0  0  0  0
   57.5850   27.6930   45.6800 C   0  0  0  0  0  0  0  0  0  0  0  0
   56.1850   27.7240   45.6160 C   0  0  0  0  0  0  0  0  0  0  0  0
   55.5210   28.8650   45.1790 O   0  0  0  0  0  0  0  0  0  0  0  0
   55.4650   26.6290   45.9750 N   0  0  0  0  0  0  0  0  0  0  0  0
   56.0790   25.5000   46.4130 C   0  0  0  0  0  0  0  0  0  0  0  0
   55.3920   24.4960   46.7360 O   0  0  0  0  0  0  0  0  0  0  0  0
   57.4330   25.4540   46.5090 N   0  0  0  0  0  0  0  0  0  0  0  0
   58.1970   26.5220   46.1630 C   0  0  0  0  0  0  0  0  0  0  0  0
   59.4490   26.4530   46.2840 O   0  0  0  0  0  0  0  0  0  0  0  0
   57.7640   31.2060   45.4830 C   0  0  0  0  0  0  0  0  0  0  0  0
   57.8720   32.1860   46.4480 C   0  0  0  0  0  0  0  0  0  0  0  0
   57.3050   33.5670   46.3240 C   0  0  0  0  0  0  0  0  0  0  0  0
   58.4990   31.7000   47.5410 N   0  0  0  0  0  0  0  0  0  0  0  0
   58.8120   32.4510   48.7290 C   0  0  0  0  0  0  0  0  0  0  0  0
   58.1810   32.1070   49.9330 C   0  0  0  0  0  0  0  0  0  0  0  0
   58.4880   32.7870   51.1110 C   0  0  0  0  0  0  0  0  0  0  0  0
   59.4290   33.8150   51.0960 C   0  0  0  0  0  0  0  0  0  0  0  0
   60.0650   34.1690   49.9040 C   0  0  0  0  0  0  0  0  0  0  0  0
   59.7720   33.4920   48.7040 C   0  0  0  0  0  0  0  0  0  0  0  0
   60.4310   33.8830   47.4230 C   0  0  0  0  0  0  0  0  0  0  0  0
   60.0520   34.9510   46.8660 O   0  0  0  0  0  0  0  0  0  0  0  0
   61.5000   33.1230   46.7980 N   0  0  0  0  0  0  0  0  0  0  0  0
   61.9330   31.9180   47.5400 C   0  0  0  0  0  0  0  0  0  0  0  0
   63.4310   32.0310   47.7820 C   0  0  0  0  0  0  0  0  0  0  0  0
   63.9090   33.0890   46.8120 C   0  0  0  0  0  0  0  0  0  0  0  0
   62.6900   33.9530   46.5440 C   0  0  0  0  0  0  0  0  0  0  0  0
   59.8806   30.0612   49.0836 H   0  0  0  0  0  0  0  0  0  0  0  0
   59.8635   28.6404   47.8144 H   0  0  0  0  0  0  0  0  0  0  0  0
   59.0354   28.8240   44.4605 H   0  0  0  0  0  0  0  0  0  0  0  0
   57.3005   31.3117   44.4911 H   0  0  0  0  0  0  0  0  0  0  0  0
   57.1336   33.9844   47.3272 H   0  0  0  0  0  0  0  0  0  0  0  0
   58.0134   34.2064   45.7769 H   0  0  0  0  0  0  0  0  0  0  0  0
   56.3517   33.5242   45.7769 H   0  0  0  0  0  0  0  0  0  0  0  0
   57.4388   31.2953   49.9483 H   0  0  0  0  0  0  0  0  0  0  0  0
   57.9879   32.5123   52.0514 H   0  0  0  0  0  0  0  0  0  0  0  0
   59.6716   34.3495   52.0263 H   0  0  0  0  0  0  0  0  0  0  0  0
   60.8025   34.9851   49.9023 H   0  0  0  0  0  0  0  0  0  0  0  0
   61.1420   32.7970   45.8670 H   0  0  0  0  0  0  0  0  0  0  0  0
   61.4023   31.8605   48.5018 H   0  0  0  0  0  0  0  0  0  0  0  0
   61.7056   31.0099   46.9623 H   0  0  0  0  0  0  0  0  0  0  0  0
   63.6324   32.3385   48.8188 H   0  0  0  0  0  0  0  0  0  0  0  0
   63.9462   31.0709   47.6310 H   0  0  0  0  0  0  0  0  0  0  0  0
   64.7166   33.6873   47.2590 H   0  0  0  0  0  0  0  0  0  0  0  0
   64.3167   32.6507   45.8892 H   0  0  0  0  0  0  0  0  0  0  0  0
   62.6914   34.8244   47.2153 H   0  0  0  0  0  0  0  0  0  0  0  0
   62.6939   34.3210   45.5074 H   0  0  0  0  0  0  0  0  0  0  0  0
  1  2  2  0
  2  3  1  0
  3  4  2  3
  4  5  1  0
  5  6  2  0
  6  7  1  0
  6  8  1  0
  8  9  1  0
  9 10  2  0
  9 11  1  0
 11 12  1  0
 12 13  2  0
  3 14  1  0
 14 15  2  0
 15 16  1  0
 15 17  1  0
 17 18  1  0
 18 19  2  0
 19 20  1  0
 20 21  2  0
 21 22  1  0
 22 23  2  0
 23 24  1  0
 24 25  2  0
 24 26  1  0
 26 27  1  0
 27 28  1  0
 28 29  1  0
 29 30  1  0
 17  2  1  0
 23 18  1  0
 30 26  1  0
 12  5  1  0
  1 31  1  0
  1 32  1  0
  4 33  1  0
 14 34  1  0
 16 35  1  0
 16 36  1  0
 16 37  1  0
 19 38  1  0
 20 39  1  0
 21 40  1  0
 22 41  1  0
 26 42  1  0
 27 43  1  0
 27 44  1  0
 28 45  1  0
 28 46  1  0
 29 47  1  0
 29 48  1  0
 30 49  1  0
 30 50  1  0
M  CHG  4   7  -1   8  -1  11  -1  26   1
M  END
>  <UniqueID>  (63) 
58

>  <SMILES>  (63) 
C=c1c(=Cc2c([O-])[n-]c(=O)[n-]c2=O)cc(C)n1-c1ccccc1C(=O)[NH+]1CCCC1

>  <Energy>  (63) 
114.03210516818886

>  <Genealogy>  (63) 
C=c1c(=Cc2c([O-])[n-]c(=O)[n-]c2=O)cc(C)n1-c1ccccc1C(=O)[NH+]1CCCC1 (protonated)
C=c1c(=Cc2c([O-])[n-]c(=O)[n-]c2=O)cc(C)n1-c1ccccc1C(=O)[NH+]1CCCC1 (3D coordinates assigned)
C=c1c(=Cc2c([O-])[n-]c(=O)[n-]c2=O)cc(C)n1-c1ccccc1C(=O)[NH+]1CCCC1 (nonaromatic ring conformer: 114.03210516818886 kcal/mol)

>  <smiles>  (63) 
C=c1c(=Cc2c(O)[nH]c(=O)[nH]c2=O)cc(C)n1-c1ccccc1C(=O)N1CCCC1

>  <score_type>  (63) 
oracle

>  <origin>  (63) 
adg

>  <m_score__min__energy>  (63) 
-15.42

>  <m_primary>  (63) 
energy

$$$$
63:0
     RDKit          3D

 69 72  0  0  0  0  0  0  0  0999 V2000
   56.7030   31.3310   45.6440 H   0  0  0  0  0  0  0  0  0  0  0  0
   56.1520   31.5300   44.8420 O   0  0  0  0  0  0  0  0  0  0  0  0
   57.0330   31.5860   43.7520 C   0  0  0  0  0  0  0  0  0  0  0  0
   58.0687   31.5728   44.1224 H   0  0  0  0  0  0  0  0  0  0  0  0
   56.8441   32.5116   43.1885 H   0  0  0  0  0  0  0  0  0  0  0  0
   56.8140   30.3880   42.8250 C   0  0  0  0  0  0  0  0  0  0  0  0
   57.2501   30.6106   41.8400 H   0  0  0  0  0  0  0  0  0  0  0  0
   55.7328   30.2068   42.7349 H   0  0  0  0  0  0  0  0  0  0  0  0
   57.4450   29.1860   43.3670 N   0  0  0  0  0  0  0  0  0  0  0  0
   58.2490   28.7440   42.8620 H   0  0  0  0  0  0  0  0  0  0  0  0
   57.0130   28.6100   44.6070 C   0  0  0  0  0  0  0  0  0  0  0  0
   56.0500   29.1240   45.2450 O   0  0  0  0  0  0  0  0  0  0  0  0
   57.7030   27.3980   45.1670 C   0  0  0  0  0  0  0  0  0  0  0  0
   58.3320   26.9538   44.3815 H   0  0  0  0  0  0  0  0  0  0  0  0
   56.9282   26.6941   45.5050 H   0  0  0  0  0  0  0  0  0  0  0  0
   58.5730   27.7350   46.3540 C   0  0  0  0  0  0  0  0  0  0  0  0
   59.5230   26.8050   46.8170 C   0  0  0  0  0  0  0  0  0  0  0  0
   59.6701   25.8585   46.2762 H   0  0  0  0  0  0  0  0  0  0  0  0
   60.2800   27.0770   47.9590 C   0  0  0  0  0  0  0  0  0  0  0  0
   61.0293   26.3507   48.3069 H   0  0  0  0  0  0  0  0  0  0  0  0
   60.0870   28.2700   48.6600 C   0  0  0  0  0  0  0  0  0  0  0  0
   60.6860   28.4828   49.5578 H   0  0  0  0  0  0  0  0  0  0  0  0
   59.1320   29.1950   48.2210 C   0  0  0  0  0  0  0  0  0  0  0  0
   58.9630   30.4370   48.9090 N   0  0  0  0  0  0  0  0  0  0  0  0
   59.1410   30.5360   50.2160 N   0  0  0  0  0  0  0  0  0  0  0  0
   58.8660   31.8070   50.5820 C   0  0  0  0  0  0  0  0  0  0  0  0
   58.9070   32.3140   52.0150 C   0  0  0  0  0  0  0  0  0  0  0  0
   58.9880   33.8550   52.0100 C   0  0  0  0  0  0  0  0  0  0  0  0
   59.0074   34.2245   53.0459 H   0  0  0  0  0  0  0  0  0  0  0  0
   59.9041   34.1723   51.4903 H   0  0  0  0  0  0  0  0  0  0  0  0
   58.1102   34.2666   51.4903 H   0  0  0  0  0  0  0  0  0  0  0  0
   57.6350   31.8840   52.7820 C   0  0  0  0  0  0  0  0  0  0  0  0
   57.8207   31.9468   53.8644 H   0  0  0  0  0  0  0  0  0  0  0  0
   56.8021   32.5505   52.5136 H   0  0  0  0  0  0  0  0  0  0  0  0
   57.3773   30.8488   52.5136 H   0  0  0  0  0  0  0  0  0  0  0  0
   60.1430   31.7310   52.7260 C   0  0  0  0  0  0  0  0  0  0  0  0
   60.0043   31.7964   53.8153 H   0  0  0  0  0  0  0  0  0  0  0  0
   60.2705   30.6778   52.4352 H   0  0  0  0  0  0  0  0  0  0  0  0
   61.0368   32.3025   52.4352 H   0  0  0  0  0  0  0  0  0  0  0  0
   58.5030   32.5460   49.4660 C   0  0  0  0  0  0  0  0  0  0  0  0
   58.2250   33.6093   49.4209 H   0  0  0  0  0  0  0  0  0  0  0  0
   58.5700   31.6450   48.4280 C   0  0  0  0  0  0  0  0  0  0  0  0
   58.1810   31.9270   47.2150 N   0  0  0  0  0  0  0  0  0  0  0  0
   57.9080   33.2140   46.6510 C   0  0  0  0  0  0  0  0  0  0  0  0
   56.7760   33.4620   46.1520 O   0  0  0  0  0  0  0  0  0  0  0  0
   58.9560   34.1810   46.5100 N   0  0  0  0  0  0  0  0  0  0  0  0
   60.2590   34.0950   47.1020 C   0  0  0  0  0  0  0  0  0  0  0  0
   60.5290   34.5750   48.3930 C   0  0  0  0  0  0  0  0  0  0  0  0
   59.7326   35.0617   48.9752 H   0  0  0  0  0  0  0  0  0  0  0  0
   61.7710   34.4400   48.9250 N   0  0  0  0  0  0  0  0  0  0  0  0
   62.7900   33.8540   48.2400 C   0  0  0  0  0  0  0  0  0  0  0  0
   64.0570   33.7080   48.8200 O   0  0  0  0  0  0  0  0  0  0  0  0
   64.4230   32.6810   49.7000 C   0  0  0  0  0  0  0  0  0  0  0  0
   65.7470   32.5110   50.1510 C   0  0  0  0  0  0  0  0  0  0  0  0
   66.5321   33.2035   49.8133 H   0  0  0  0  0  0  0  0  0  0  0  0
   66.0700   31.4680   51.0250 C   0  0  0  0  0  0  0  0  0  0  0  0
   67.1073   31.3379   51.3671 H   0  0  0  0  0  0  0  0  0  0  0  0
   65.0750   30.5920   51.4630 C   0  0  0  0  0  0  0  0  0  0  0  0
   65.3292   29.7671   52.1449 H   0  0  0  0  0  0  0  0  0  0  0  0
   63.7540   30.7640   51.0340 C   0  0  0  0  0  0  0  0  0  0  0  0
   62.9706   30.0736   51.3800 H   0  0  0  0  0  0  0  0  0  0  0  0
   63.4270   31.8120   50.1660 C   0  0  0  0  0  0  0  0  0  0  0  0
   62.3836   31.9543   49.8481 H   0  0  0  0  0  0  0  0  0  0  0  0
   62.5800   33.4230   46.9270 C   0  0  0  0  0  0  0  0  0  0  0  0
   63.4074   32.9894   46.3461 H   0  0  0  0  0  0  0  0  0  0  0  0
   61.3090   33.5480   46.3590 C   0  0  0  0  0  0  0  0  0  0  0  0
   61.1347   33.2152   45.3251 H   0  0  0  0  0  0  0  0  0  0  0  0
   58.3800   28.9300   47.0710 C   0  0  0  0  0  0  0  0  0  0  0  0
   57.6335   29.6604   46.7256 H   0  0  0  0  0  0  0  0  0  0  0  0
  1  2  1  0
  2  3  1  0
  3  4  1  0
  3  5  1  0
  3  6  1  0
  6  7  1  0
  6  8  1  0
  6  9  1  0
  9 10  1  0
  9 11  1  0
 11 12  2  0
 11 13  1  0
 13 14  1  0
 13 15  1  0
 13 16  1  0
 16 17  2  0
 17 18  1  0
 17 19  1  0
 19 20  1  0
 19 21  2  0
 21 22  1  0
 21 23  1  0
 23 24  1  0
 24 25  1  0
 25 26  1  0
 26 27  1  0
 27 28  1  0
 28 29  1  0
 28 30  1  0
 28 31  1  0
 27 32  1  0
 32 33  1  0
 32 34  1  0
 32 35  1  0
 27 36  1  0
 36 37  1  0
 36 38  1  0
 36 39  1  0
 26 40  2  0
 40 41  1  0
 40 42  1  0
 42 43  2  0
 43 44  1  0
 44 45  2  0
 44 46  1  0
 46 47  1  0
 47 48  2  0
 48 49  1  0
 48 50  1  0
 50 51  2  0
 51 52  1  0
 52 53  1  0
 53 54  2  0
 54 55  1  0
 54 56  1  0
 56 57  1  0
 56 58  2  0
 58 59  1  0
 58 60  1  0
 60 61  1  0
 60 62  2  0
 62 63  1  0
 51 64  1  0
 64 65  1  0
 64 66  2  0
 66 67  1  0
 23 68  2  0
 68 69  1  0
 68 16  1  0
 42 24  1  0
 66 47  1  0
 62 53  1  0
M  CHG  2  25  -1  46  -1
M  END
>  <UniqueID>  (64) 
59

>  <SMILES>  (64) 
CC(C)(C)c1c/c(=N/C(=O)[N-]c2ccc(Oc3ccccc3)nc2)n(-c2cccc(CC(=O)NCCO)c2)[n-]1

>  <Energy>  (64) 
120.25383893448044

>  <Genealogy>  (64) 
CC(C)(C)c1cc(=NC(=O)[N-]c2ccc(Oc3ccccc3)nc2)n(-c2cccc(CC(=O)NCCO)c2)[n-]1 (protonated)
CC(C)(C)c1c/c(=N/C(=O)[N-]c2ccc(Oc3ccccc3)nc2)n(-c2cccc(CC(=O)NCCO)c2)[n-]1 (cis-trans isomerization)
CC(C)(C)c1c/c(=N/C(=O)[N-]c2ccc(Oc3ccccc3)nc2)n(-c2cccc(CC(=O)NCCO)c2)[n-]1 (3D coordinates assigned)
CC(C)(C)c1c/c(=N/C(=O)[N-]c2ccc(Oc3ccccc3)nc2)n(-c2cccc(CC(=O)NCCO)c2)[n-]1 (optimized conformer: 120.25383893448044 kcal/mol)

>  <smiles>  (64) 
CC(C)(C)c1cc(=NC(=O)Nc2ccc(Oc3ccccc3)nc2)n(-c2cccc(CC(=O)NCCO)c2)[nH]1

>  <score_type>  (64) 
oracle

>  <origin>  (64) 
adg

>  <m_score__min__energy>  (64) 
-12.51

>  <m_primary>  (64) 
energy

$$$$
64:0
     RDKit          3D

 34 36  0  0  0  0  0  0  0  0999 V2000
   59.1980   28.9290   44.8820 O   0  0  0  0  0  0  0  0  0  0  0  0
   58.2540   29.2870   45.6360 C   0  0  0  0  0  0  0  0  0  0  0  0
   58.0250   28.5460   46.8420 N   0  0  0  0  0  0  0  0  0  0  0  0
   57.5500   27.1690   46.9050 C   0  0  0  0  0  0  0  0  0  0  0  0
   57.1680   26.6970   45.5040 C   0  0  0  0  0  0  0  0  0  0  0  0
   56.0760   25.6750   45.5730 C   0  0  0  0  0  0  0  0  0  0  0  0
   56.2320   24.3140   45.4690 C   0  0  0  0  0  0  0  0  0  0  0  0
   55.0220   23.7330   45.5170 N   0  0  0  0  0  0  0  0  0  0  0  0
   54.1630   24.7680   45.6410 C   0  0  0  0  0  0  0  0  0  0  0  0
   54.7690   25.9740   45.6700 N   0  0  0  0  0  0  0  0  0  0  0  0
   57.4150   30.4400   45.2430 C   0  0  0  0  0  0  0  0  0  0  0  0
   56.2520   30.2460   44.8040 O   0  0  0  0  0  0  0  0  0  0  0  0
   57.9360   31.8210   45.2830 C   0  0  0  0  0  0  0  0  0  0  0  0
   57.9140   32.7250   44.2240 C   0  0  0  0  0  0  0  0  0  0  0  0
   58.4500   33.9080   44.5970 N   0  0  0  0  0  0  0  0  0  0  0  0
   58.7970   33.7680   45.8900 C   0  0  0  0  0  0  0  0  0  0  0  0
   59.3570   34.7390   46.7220 C   0  0  0  0  0  0  0  0  0  0  0  0
   59.6570   36.0090   46.2340 O   0  0  0  0  0  0  0  0  0  0  0  0
   59.6030   34.3940   48.0660 C   0  0  0  0  0  0  0  0  0  0  0  0
   59.2700   33.1070   48.5430 C   0  0  0  0  0  0  0  0  0  0  0  0
   58.6990   32.1520   47.6840 C   0  0  0  0  0  0  0  0  0  0  0  0
   58.4930   32.5100   46.3480 C   0  0  0  0  0  0  0  0  0  0  0  0
   58.3468   26.5243   47.3044 H   0  0  0  0  0  0  0  0  0  0  0  0
   56.6698   27.1148   47.5625 H   0  0  0  0  0  0  0  0  0  0  0  0
   56.8207   27.5582   44.9143 H   0  0  0  0  0  0  0  0  0  0  0  0
   58.0502   26.2426   45.0295 H   0  0  0  0  0  0  0  0  0  0  0  0
   57.1914   23.7862   45.3636 H   0  0  0  0  0  0  0  0  0  0  0  0
   53.0727   24.6403   45.7117 H   0  0  0  0  0  0  0  0  0  0  0  0
   57.5154   32.5063   43.2223 H   0  0  0  0  0  0  0  0  0  0  0  0
   58.5540   34.7600   44.0040 H   0  0  0  0  0  0  0  0  0  0  0  0
   59.5090   36.8380   46.7970 H   0  0  0  0  0  0  0  0  0  0  0  0
   60.0562   35.1300   48.7463 H   0  0  0  0  0  0  0  0  0  0  0  0
   59.4591   32.8498   49.5957 H   0  0  0  0  0  0  0  0  0  0  0  0
   58.4225   31.1529   48.0518 H   0  0  0  0  0  0  0  0  0  0  0  0
  1  2  2  0
  2  3  1  0
  3  4  1  0
  4  5  1  0
  5  6  1  0
  6  7  2  0
  7  8  1  0
  8  9  1  0
  9 10  2  0
  2 11  1  0
 11 12  2  0
 11 13  1  0
 13 14  2  0
 14 15  1  0
 15 16  1  0
 16 17  2  0
 17 18  1  0
 17 19  1  0
 19 20  2  0
 20 21  1  0
 21 22  2  0
 10  6  1  0
 22 13  1  0
 22 16  1  0
  4 23  1  0
  4 24  1  0
  5 25  1  0
  5 26  1  0
  7 27  1  0
  9 28  1  0
 14 29  1  0
 15 30  1  0
 18 31  1  0
 19 32  1  0
 20 33  1  0
 21 34  1  0
M  CHG  2   3  -1   8  -1
M  END
>  <UniqueID>  (65) 
60

>  <SMILES>  (65) 
O=C([N-]CCc1c[n-]cn1)C(=O)c1c[nH]c2c(O)cccc12

>  <Energy>  (65) 
96.70720972322313

>  <Genealogy>  (65) 
O=C([N-]CCc1c[n-]cn1)C(=O)c1c[nH]c2c(O)cccc12 (protonated)
O=C([N-]CCc1c[n-]cn1)C(=O)c1c[nH]c2c(O)cccc12 (3D coordinates assigned)
O=C([N-]CCc1c[n-]cn1)C(=O)c1c[nH]c2c(O)cccc12 (optimized conformer: 96.70720972322313 kcal/mol)

>  <smiles>  (65) 
O=C(NCCc1c[nH]cn1)C(=O)c1c[nH]c2c(O)cccc12

>  <score_type>  (65) 
oracle

>  <origin>  (65) 
adg

>  <m_score__min__energy>  (65) 
-10.27

>  <m_primary>  (65) 
energy

$$$$
65:0
     RDKit          3D

 81 85  0  0  0  0  0  0  0  0999 V2000
   57.4440   33.0940   47.0560 C   0  0  0  0  0  0  0  0  0  0  0  0
   58.3030   33.0410   45.7660 C   0  0  0  0  0  0  0  0  0  0  0  0
   58.1730   34.3920   45.0270 C   0  0  0  0  0  0  0  0  0  0  0  0
   59.7370   32.7990   46.2510 C   0  0  0  0  0  0  0  0  0  0  0  0
   60.1510   31.6080   46.3190 O   0  0  0  0  0  0  0  0  0  0  0  0
   60.6100   33.8760   46.6450 N   0  0  0  0  0  0  0  0  0  0  0  0
   61.7220   33.7300   47.5490 C   0  0  0  0  0  0  0  0  0  0  0  0
   62.8910   33.0320   47.1890 C   0  0  0  0  0  0  0  0  0  0  0  0
   63.9600   32.9340   48.0850 C   0  0  0  0  0  0  0  0  0  0  0  0
   63.8690   33.4970   49.3660 C   0  0  0  0  0  0  0  0  0  0  0  0
   64.9770   33.4020   50.2780 N   0  0  0  0  0  0  0  0  0  0  0  0
   64.8490   33.9990   51.6120 C   0  0  0  0  0  0  0  0  0  0  0  0
   66.2350   34.2710   52.2010 C   0  0  0  0  0  0  0  0  0  0  0  0
   67.0450   33.1140   52.1370 O   0  0  0  0  0  0  0  0  0  0  0  0
   67.3030   32.7890   50.7860 C   0  0  0  0  0  0  0  0  0  0  0  0
   66.0110   32.3830   50.0690 C   0  0  0  0  0  0  0  0  0  0  0  0
   62.6880   34.1560   49.7410 C   0  0  0  0  0  0  0  0  0  0  0  0
   61.6270   34.2720   48.8400 C   0  0  0  0  0  0  0  0  0  0  0  0
   57.8440   31.9130   44.8010 C   0  0  0  0  0  0  0  0  0  0  0  0
   57.4760   32.2260   43.4670 C   0  0  0  0  0  0  0  0  0  0  0  0
   57.0530   31.2390   42.5770 C   0  0  0  0  0  0  0  0  0  0  0  0
   56.9600   29.9170   42.9910 C   0  0  0  0  0  0  0  0  0  0  0  0
   57.2480   29.5830   44.3100 C   0  0  0  0  0  0  0  0  0  0  0  0
   57.6370   30.5700   45.2350 C   0  0  0  0  0  0  0  0  0  0  0  0
   57.7950   30.2150   46.6140 N   0  0  0  0  0  0  0  0  0  0  0  0
   58.1480   28.9200   47.1120 C   0  0  0  0  0  0  0  0  0  0  0  0
   57.5600   27.9070   46.6520 O   0  0  0  0  0  0  0  0  0  0  0  0
   59.1680   28.7400   48.1010 N   0  0  0  0  0  0  0  0  0  0  0  0
   60.0880   29.7730   48.5700 C   0  0  0  0  0  0  0  0  0  0  0  0
   59.7610   30.2690   50.0010 C   0  0  1  0  0  0  0  0  0  0  0  0
   60.9820   30.5050   50.8920 C   0  0  0  0  0  0  0  0  0  0  0  0
   60.8800   30.7670   52.2740 C   0  0  0  0  0  0  0  0  0  0  0  0
   62.0220   31.0290   53.0350 C   0  0  0  0  0  0  0  0  0  0  0  0
   63.2810   31.0350   52.4350 C   0  0  0  0  0  0  0  0  0  0  0  0
   63.4030   30.7650   51.0730 C   0  0  0  0  0  0  0  0  0  0  0  0
   62.2640   30.5020   50.3060 C   0  0  0  0  0  0  0  0  0  0  0  0
   58.7520   31.3630   50.0320 N   0  0  0  0  0  0  0  0  0  0  0  0
   59.1990   32.7660   49.8890 C   0  0  0  0  0  0  0  0  0  0  0  0
   59.3120   33.4970   51.2400 C   0  0  0  0  0  0  0  0  0  0  0  0
   58.1300   33.3540   51.9980 O   0  0  0  0  0  0  0  0  0  0  0  0
   57.9410   31.9890   52.3060 C   0  0  0  0  0  0  0  0  0  0  0  0
   57.6710   31.1900   51.0270 C   0  0  0  0  0  0  0  0  0  0  0  0
   58.1020   33.0534   47.9366 H   0  0  0  0  0  0  0  0  0  0  0  0
   56.8657   34.0295   47.0732 H   0  0  0  0  0  0  0  0  0  0  0  0
   56.7550   32.2367   47.0732 H   0  0  0  0  0  0  0  0  0  0  0  0
   58.0947   35.2062   45.7625 H   0  0  0  0  0  0  0  0  0  0  0  0
   59.0599   34.5517   44.3962 H   0  0  0  0  0  0  0  0  0  0  0  0
   57.2719   34.3797   44.3962 H   0  0  0  0  0  0  0  0  0  0  0  0
   60.5300   34.7840   46.1370 H   0  0  0  0  0  0  0  0  0  0  0  0
   62.9635   32.5613   46.1974 H   0  0  0  0  0  0  0  0  0  0  0  0
   64.8794   32.4112   47.7826 H   0  0  0  0  0  0  0  0  0  0  0  0
   64.2940   34.9456   51.5353 H   0  0  0  0  0  0  0  0  0  0  0  0
   64.3091   33.3010   52.2688 H   0  0  0  0  0  0  0  0  0  0  0  0
   66.7162   35.0798   51.6315 H   0  0  0  0  0  0  0  0  0  0  0  0
   66.1185   34.5612   53.2556 H   0  0  0  0  0  0  0  0  0  0  0  0
   67.7363   33.6647   50.2806 H   0  0  0  0  0  0  0  0  0  0  0  0
   68.0053   31.9430   50.7542 H   0  0  0  0  0  0  0  0  0  0  0  0
   66.2092   32.2814   48.9918 H   0  0  0  0  0  0  0  0  0  0  0  0
   65.6590   31.4240   50.4769 H   0  0  0  0  0  0  0  0  0  0  0  0
   62.5974   34.5837   50.7504 H   0  0  0  0  0  0  0  0  0  0  0  0
   60.7078   34.7934   49.1454 H   0  0  0  0  0  0  0  0  0  0  0  0
   57.5254   33.2709   43.1269 H   0  0  0  0  0  0  0  0  0  0  0  0
   56.7921   31.5090   41.5431 H   0  0  0  0  0  0  0  0  0  0  0  0
   56.6593   29.1357   42.2775 H   0  0  0  0  0  0  0  0  0  0  0  0
   57.1708   28.5347   44.6343 H   0  0  0  0  0  0  0  0  0  0  0  0
   61.1084   29.3621   48.5658 H   0  0  0  0  0  0  0  0  0  0  0  0
   59.9899   30.6339   47.8924 H   0  0  0  0  0  0  0  0  0  0  0  0
   59.2633   29.4142   50.4822 H   0  0  0  0  0  0  0  0  0  0  0  0
   59.8919   30.7651   52.7574 H   0  0  0  0  0  0  0  0  0  0  0  0
   61.9277   31.2314   54.1121 H   0  0  0  0  0  0  0  0  0  0  0  0
   64.1764   31.2525   53.0358 H   0  0  0  0  0  0  0  0  0  0  0  0
   64.3966   30.7588   50.6010 H   0  0  0  0  0  0  0  0  0  0  0  0
   62.3696   30.2901   49.2318 H   0  0  0  0  0  0  0  0  0  0  0  0
   60.1854   32.7727   49.4022 H   0  0  0  0  0  0  0  0  0  0  0  0
   58.4440   33.2946   49.2885 H   0  0  0  0  0  0  0  0  0  0  0  0
   60.1550   33.0751   51.8069 H   0  0  0  0  0  0  0  0  0  0  0  0
   59.4731   34.5674   51.0445 H   0  0  0  0  0  0  0  0  0  0  0  0
   58.8459   31.5981   52.7943 H   0  0  0  0  0  0  0  0  0  0  0  0
   57.0775   31.8896   52.9801 H   0  0  0  0  0  0  0  0  0  0  0  0
   57.5910   30.1234   51.2838 H   0  0  0  0  0  0  0  0  0  0  0  0
   56.7355   31.5614   50.5832 H   0  0  0  0  0  0  0  0  0  0  0  0
  1  2  1  0
  2  3  1  0
  2  4  1  0
  4  5  2  0
  4  6  1  0
  6  7  1  0
  7  8  2  0
  8  9  1  0
  9 10  2  0
 10 11  1  0
 11 12  1  0
 12 13  1  0
 13 14  1  0
 14 15  1  0
 15 16  1  0
 10 17  1  0
 17 18  2  0
  2 19  1  0
 19 20  2  0
 20 21  1  0
 21 22  2  0
 22 23  1  0
 23 24  2  0
 24 25  1  0
 25 26  1  0
 26 27  2  0
 26 28  1  0
 28 29  1  0
 29 30  1  0
 30 31  1  0
 31 32  2  0
 32 33  1  0
 33 34  2  0
 34 35  1  0
 35 36  2  0
 30 37  1  0
 37 38  1  0
 38 39  1  0
 39 40  1  0
 40 41  1  0
 41 42  1  0
 18  7  1  0
 24 19  1  0
 36 31  1  0
 42 37  1  0
 16 11  1  0
  1 43  1  0
  1 44  1  0
  1 45  1  0
  3 46  1  0
  3 47  1  0
  3 48  1  0
  6 49  1  0
  8 50  1  0
  9 51  1  0
 12 52  1  0
 12 53  1  0
 13 54  1  0
 13 55  1  0
 15 56  1  0
 15 57  1  0
 16 58  1  0
 16 59  1  0
 17 60  1  0
 18 61  1  0
 20 62  1  0
 21 63  1  0
 22 64  1  0
 23 65  1  0
 29 66  1  0
 29 67  1  0
 30 68  1  1
 32 69  1  0
 33 70  1  0
 34 71  1  0
 35 72  1  0
 36 73  1  0
 38 74  1  0
 38 75  1  0
 39 76  1  0
 39 77  1  0
 41 78  1  0
 41 79  1  0
 42 80  1  0
 42 81  1  0
M  CHG  2  25  -1  28  -1
M  END
>  <UniqueID>  (66) 
61

>  <SMILES>  (66) 
CC(C)(C(=O)Nc1ccc(N2CCOCC2)cc1)c1ccccc1[N-]C(=O)[N-]C[C@@H](c1ccccc1)N1CCOCC1

>  <Energy>  (66) 
126.08446711774529

>  <Genealogy>  (66) 
CC(C)(C(=O)Nc1ccc(N2CCOCC2)cc1)c1ccccc1[N-]C(=O)[N-]CC(c1ccccc1)N1CCOCC1 (protonated)
CC(C)(C(=O)Nc1ccc(N2CCOCC2)cc1)c1ccccc1[N-]C(=O)[N-]C[C@@H](c1ccccc1)N1CCOCC1 (chirality)
CC(C)(C(=O)Nc1ccc(N2CCOCC2)cc1)c1ccccc1[N-]C(=O)[N-]C[C@@H](c1ccccc1)N1CCOCC1 (3D coordinates assigned)
CC(C)(C(=O)Nc1ccc(N2CCOCC2)cc1)c1ccccc1[N-]C(=O)[N-]C[C@@H](c1ccccc1)N1CCOCC1 (nonaromatic ring conformer: 126.08446711774529 kcal/mol)

>  <smiles>  (66) 
CC(C)(C(=O)Nc1ccc(N2CCOCC2)cc1)c1ccccc1NC(=O)NCC(c1ccccc1)N1CCOCC1

>  <score_type>  (66) 
oracle

>  <origin>  (66) 
adg

>  <m_score__min__energy>  (66) 
-12.42

>  <m_primary>  (66) 
energy

$$$$
66:0
     RDKit          3D

 45 47  0  0  0  0  0  0  0  0999 V2000
   52.8310   24.2850   45.3490 C   0  0  0  0  0  0  0  0  0  0  0  0
   54.3130   24.0310   45.3360 C   0  0  0  0  0  0  0  0  0  0  0  0
   54.8060   22.7690   44.9740 C   0  0  0  0  0  0  0  0  0  0  0  0
   56.1800   22.5380   44.9270 C   0  0  0  0  0  0  0  0  0  0  0  0
   57.0760   23.5610   45.2420 C   0  0  0  0  0  0  0  0  0  0  0  0
   56.6070   24.8320   45.6130 C   0  0  0  0  0  0  0  0  0  0  0  0
   57.5820   25.8970   45.9460 C   0  0  0  0  0  0  0  0  0  0  0  0
   58.8180   25.6540   45.8600 O   0  0  0  0  0  0  0  0  0  0  0  0
   57.1390   27.1730   46.4370 N   0  0  0  0  0  0  0  0  0  0  0  0
   57.9500   28.3610   46.4280 C   0  0  0  0  0  0  0  0  0  0  0  0
   59.1910   28.4060   47.0890 C   0  0  0  0  0  0  0  0  0  0  0  0
   59.9670   29.5670   47.0520 C   0  0  0  0  0  0  0  0  0  0  0  0
   59.5220   30.6870   46.3470 C   0  0  0  0  0  0  0  0  0  0  0  0
   58.3020   30.6460   45.6590 C   0  0  0  0  0  0  0  0  0  0  0  0
   57.7420   32.0690   44.7830 S   0  0  0  0  0  0  0  0  0  0  0  0
   58.4700   32.1470   43.4710 O   0  0  0  0  0  0  0  0  0  0  0  0
   56.2680   31.9510   44.5070 O   0  0  0  0  0  0  0  0  0  0  0  0
   58.0620   33.5080   45.7190 N   0  0  0  0  0  0  0  0  0  0  0  0
   59.4890   33.8710   45.6130 C   0  0  0  0  0  0  0  0  0  0  0  0
   59.9060   34.7760   46.7820 C   0  0  0  0  0  0  0  0  0  0  0  0
   59.7340   34.1870   48.0670 O   0  0  0  0  0  0  0  0  0  0  0  0
   58.7880   33.1260   48.0880 C   0  0  0  0  0  0  0  0  0  0  0  0
   57.6110   33.3440   47.1200 C   0  0  0  0  0  0  0  0  0  0  0  0
   57.5210   29.4820   45.7010 C   0  0  0  0  0  0  0  0  0  0  0  0
   55.2150   25.0710   45.6360 C   0  0  0  0  0  0  0  0  0  0  0  0
   54.7220   26.3390   45.9310 O   0  0  0  0  0  0  0  0  0  0  0  0
   52.4785   24.3454   46.3892 H   0  0  0  0  0  0  0  0  0  0  0  0
   52.6169   25.2329   44.8336 H   0  0  0  0  0  0  0  0  0  0  0  0
   52.3135   23.4625   44.8336 H   0  0  0  0  0  0  0  0  0  0  0  0
   54.1055   21.9579   44.7261 H   0  0  0  0  0  0  0  0  0  0  0  0
   56.5595   21.5460   44.6407 H   0  0  0  0  0  0  0  0  0  0  0  0
   58.1585   23.3702   45.1993 H   0  0  0  0  0  0  0  0  0  0  0  0
   56.2150   27.2120   46.9240 H   0  0  0  0  0  0  0  0  0  0  0  0
   59.5518   27.5233   47.6373 H   0  0  0  0  0  0  0  0  0  0  0  0
   60.9315   29.5989   47.5799 H   0  0  0  0  0  0  0  0  0  0  0  0
   60.1303   31.6033   46.3316 H   0  0  0  0  0  0  0  0  0  0  0  0
   60.0972   32.9546   45.6307 H   0  0  0  0  0  0  0  0  0  0  0  0
   59.6470   34.4150   44.6701 H   0  0  0  0  0  0  0  0  0  0  0  0
   60.9690   35.0306   46.6588 H   0  0  0  0  0  0  0  0  0  0  0  0
   59.2495   35.6580   46.7484 H   0  0  0  0  0  0  0  0  0  0  0  0
   59.3017   32.1940   47.8096 H   0  0  0  0  0  0  0  0  0  0  0  0
   58.3709   33.0799   49.1048 H   0  0  0  0  0  0  0  0  0  0  0  0
   56.9400   32.4742   47.1766 H   0  0  0  0  0  0  0  0  0  0  0  0
   57.0946   34.2681   47.4189 H   0  0  0  0  0  0  0  0  0  0  0  0
   56.5641   29.4474   45.1595 H   0  0  0  0  0  0  0  0  0  0  0  0
  1  2  1  0
  2  3  2  0
  3  4  1  0
  4  5  2  0
  5  6  1  0
  6  7  1  0
  7  8  2  0
  7  9  1  0
  9 10  1  0
 10 11  2  0
 11 12  1  0
 12 13  2  0
 13 14  1  0
 14 15  1  0
 15 16  2  0
 15 17  2  0
 15 18  1  0
 18 19  1  0
 19 20  1  0
 20 21  1  0
 21 22  1  0
 22 23  1  0
 14 24  2  0
  6 25  2  0
 25 26  1  0
 25  2  1  0
 24 10  1  0
 23 18  1  0
  1 27  1  0
  1 28  1  0
  1 29  1  0
  3 30  1  0
  4 31  1  0
  5 32  1  0
  9 33  1  0
 11 34  1  0
 12 35  1  0
 13 36  1  0
 19 37  1  0
 19 38  1  0
 20 39  1  0
 20 40  1  0
 22 41  1  0
 22 42  1  0
 23 43  1  0
 23 44  1  0
 24 45  1  0
M  CHG  1  26  -1
M  END
>  <UniqueID>  (67) 
62

>  <SMILES>  (67) 
Cc1cccc(C(=O)Nc2cccc(S(=O)(=O)N3CCOCC3)c2)c1[O-]

>  <Energy>  (67) 
65.91656441142523

>  <Genealogy>  (67) 
Cc1cccc(C(=O)Nc2cccc(S(=O)(=O)N3CCOCC3)c2)c1[O-] (protonated)
Cc1cccc(C(=O)Nc2cccc(S(=O)(=O)N3CCOCC3)c2)c1[O-] (3D coordinates assigned)
Cc1cccc(C(=O)Nc2cccc(S(=O)(=O)N3CCOCC3)c2)c1[O-] (nonaromatic ring conformer: 65.91656441142523 kcal/mol)

>  <smiles>  (67) 
Cc1cccc(C(=O)Nc2cccc(S(=O)(=O)N3CCOCC3)c2)c1O

>  <score_type>  (67) 
oracle

>  <origin>  (67) 
adg

>  <m_score__min__energy>  (67) 
-12.58

>  <m_primary>  (67) 
energy

$$$$
67:0
     RDKit          3D

 39 41  0  0  0  0  0  0  0  0999 V2000
   63.5381   33.0896   51.8193 H   0  0  0  0  0  0  0  0  0  0  0  0
   63.8450   33.4490   50.8260 C   0  0  0  0  0  0  0  0  0  0  0  0
   65.1080   33.0360   50.2790 C   0  0  0  0  0  0  0  0  0  0  0  0
   66.1250   32.7020   49.8370 N   0  0  0  0  0  0  0  0  0  0  0  0
   63.0410   34.2640   50.1410 C   0  0  0  0  0  0  0  0  0  0  0  0
   62.6842   35.1866   50.6221 H   0  0  0  0  0  0  0  0  0  0  0  0
   62.6260   33.9770   48.7970 N   0  0  0  0  0  0  0  0  0  0  0  0
   63.4990   33.8170   47.8140 N   0  0  0  0  0  0  0  0  0  0  0  0
   62.8160   33.5510   46.6840 C   0  0  0  0  0  0  0  0  0  0  0  0
   63.2650   33.3872   45.6933 H   0  0  0  0  0  0  0  0  0  0  0  0
   61.4610   33.5160   46.9640 C   0  0  0  0  0  0  0  0  0  0  0  0
   60.3330   33.3590   46.0200 C   0  0  0  0  0  0  0  0  0  0  0  0
   60.2408   34.1032   45.2153 H   0  0  0  0  0  0  0  0  0  0  0  0
   59.4080   32.3780   46.0650 C   0  0  0  0  0  0  0  0  0  0  0  0
   59.7920   31.0160   46.5090 C   0  0  0  0  0  0  0  0  0  0  0  0
   60.9360   30.7980   46.9960 O   0  0  0  0  0  0  0  0  0  0  0  0
   58.8250   29.9090   46.3760 C   0  0  0  0  0  0  0  0  0  0  0  0
   59.1170   28.6200   46.8470 C   0  0  0  0  0  0  0  0  0  0  0  0
   60.0678   28.4272   47.3655 H   0  0  0  0  0  0  0  0  0  0  0  0
   58.2040   27.5830   46.6590 C   0  0  0  0  0  0  0  0  0  0  0  0
   58.4355   26.5771   47.0391 H   0  0  0  0  0  0  0  0  0  0  0  0
   56.9960   27.8110   45.9910 C   0  0  0  0  0  0  0  0  0  0  0  0
   56.1260   26.7420   45.8230 O   0  0  0  0  0  0  0  0  0  0  0  0
   56.6880   29.1070   45.5090 C   0  0  0  0  0  0  0  0  0  0  0  0
   55.5020   29.4260   44.8250 O   0  0  0  0  0  0  0  0  0  0  0  0
   55.3850   29.7170   43.4360 C   0  0  0  0  0  0  0  0  0  0  0  0
   54.9775   30.7305   43.3068 H   0  0  0  0  0  0  0  0  0  0  0  0
   56.3769   29.6577   42.9641 H   0  0  0  0  0  0  0  0  0  0  0  0
   54.7102   28.9876   42.9641 H   0  0  0  0  0  0  0  0  0  0  0  0
   57.6080   30.1480   45.7190 C   0  0  0  0  0  0  0  0  0  0  0  0
   57.3140   31.4310   45.2440 O   0  0  0  0  0  0  0  0  0  0  0  0
   57.9500   32.6150   45.7300 C   0  0  0  0  0  0  0  0  0  0  0  0
   57.8852   33.3957   44.9578 H   0  0  0  0  0  0  0  0  0  0  0  0
   57.4350   32.9240   46.6516 H   0  0  0  0  0  0  0  0  0  0  0  0
   61.3720   33.7910   48.3180 C   0  0  0  0  0  0  0  0  0  0  0  0
   60.1050   33.8300   49.1220 C   0  0  0  0  0  0  0  0  0  0  0  0
   60.3507   33.8224   50.1942 H   0  0  0  0  0  0  0  0  0  0  0  0
   59.5455   34.7458   48.8805 H   0  0  0  0  0  0  0  0  0  0  0  0
   59.4903   32.9504   48.8805 H   0  0  0  0  0  0  0  0  0  0  0  0
  1  2  1  0
  2  3  1  0
  3  4  3  0
  2  5  2  0
  5  6  1  0
  5  7  1  0
  7  8  1  0
  8  9  2  0
  9 10  1  0
  9 11  1  0
 11 12  1  0
 12 13  1  0
 12 14  2  0
 14 15  1  0
 15 16  2  0
 15 17  1  0
 17 18  2  0
 18 19  1  0
 18 20  1  0
 20 21  1  0
 20 22  2  0
 22 23  1  0
 22 24  1  0
 24 25  1  0
 25 26  1  0
 26 27  1  0
 26 28  1  0
 26 29  1  0
 24 30  2  0
 30 31  1  0
 31 32  1  0
 32 33  1  0
 32 34  1  0
 11 35  2  0
 35 36  1  0
 36 37  1  0
 36 38  1  0
 36 39  1  0
 35  7  1  0
 32 14  1  0
 30 17  1  0
M  CHG  1  23  -1
M  END
>  <UniqueID>  (68) 
63

>  <SMILES>  (68) 
COc1c([O-])ccc2c1OC/C(=C\c1cnn(/C=C/C#N)c1C)C2=O

>  <Energy>  (68) 
84.79863865022762

>  <Genealogy>  (68) 
COc1c([O-])ccc2c1OCC(=Cc1cnn(C=CC#N)c1C)C2=O (protonated)
COc1c([O-])ccc2c1OC/C(=C\c1cnn(/C=C/C#N)c1C)C2=O (cis-trans isomerization)
COc1c([O-])ccc2c1OC/C(=C\c1cnn(/C=C/C#N)c1C)C2=O (3D coordinates assigned)
COc1c([O-])ccc2c1OC/C(=C\c1cnn(/C=C/C#N)c1C)C2=O (nonaromatic ring conformer: 84.79863865022762 kcal/mol)

>  <smiles>  (68) 
COc1c(O)ccc2c1OCC(=Cc1cnn(C=CC#N)c1C)C2=O

>  <score_type>  (68) 
oracle

>  <origin>  (68) 
adg

>  <m_score__min__energy>  (68) 
-9.9399999999999995

>  <m_primary>  (68) 
energy

$$$$
68:0
     RDKit          3D

 66 69  0  0  1  0  0  0  0  0999 V2000
   58.1920   31.9810   50.9620 C   0  0  0  0  0  0  0  0  0  0  0  0
   58.5100   32.6340   49.6630 C   0  0  0  0  0  0  0  0  0  0  0  0
   57.7680   32.6520   48.5440 N   0  0  0  0  0  0  0  0  0  0  0  0
   58.3800   33.3240   47.6150 O   0  0  0  0  0  0  0  0  0  0  0  0
   59.5390   33.7620   48.1050 C   0  0  0  0  0  0  0  0  0  0  0  0
   60.4700   34.5640   47.2850 C   0  0  0  0  0  0  0  0  0  0  0  0
   61.2300   33.7620   46.2780 C   0  0  0  0  0  0  0  0  0  0  0  0
   62.7110   33.8000   46.4660 C   0  0  0  0  0  0  0  0  0  0  0  0
   63.2640   32.4880   46.7580 N   0  0  0  0  0  0  0  0  0  0  0  0
   63.1750   31.9870   47.9370 C   0  0  0  0  0  0  0  0  0  0  0  0
   61.9920   31.3010   48.2190 C   0  0  0  0  0  0  0  0  0  0  0  0
   61.8410   30.7440   49.4630 C   0  0  0  0  0  0  0  0  0  0  0  0
   60.6600   29.9780   49.9130 C   0  0  0  0  0  0  0  0  0  0  0  0
   59.9810   29.2560   48.8420 C   0  0  0  0  0  0  0  0  0  0  0  0
   59.2250   30.0130   47.9390 C   0  0  0  0  0  0  0  0  0  0  0  0
   58.5370   29.4200   46.8950 C   0  0  0  0  0  0  0  0  0  0  0  0
   57.7590   30.3310   45.9880 C   0  0  1  0  0  0  0  0  0  0  0  0
   58.3700   31.4940   45.7260 O   0  0  0  0  0  0  0  0  0  0  0  0
   58.3790   32.0710   44.5190 C   0  0  2  0  0  0  0  0  0  0  0  0
   57.4210   33.2740   44.5660 C   0  0  0  0  0  0  0  0  0  0  0  0
   56.6570   33.2550   45.7230 O   0  0  0  0  0  0  0  0  0  0  0  0
   57.9910   31.2560   43.3330 C   0  0  2  0  0  0  0  0  0  0  0  0
   57.7000   32.0040   42.2170 O   0  0  0  0  0  0  0  0  0  0  0  0
   56.7860   30.4250   43.7260 C   0  0  1  0  0  0  0  0  0  0  0  0
   56.2820   29.7040   42.6520 O   0  0  0  0  0  0  0  0  0  0  0  0
   57.3210   29.5020   44.8120 C   0  0  2  0  0  0  0  0  0  0  0  0
   56.3420   28.5740   45.1640 O   0  0  0  0  0  0  0  0  0  0  0  0
   58.5700   28.0530   46.7060 C   0  0  0  0  0  0  0  0  0  0  0  0
   59.3130   27.3070   47.5940 C   0  0  0  0  0  0  0  0  0  0  0  0
   59.9960   27.9060   48.6290 C   0  0  0  0  0  0  0  0  0  0  0  0
   60.9200   26.8780   49.6930 Cl  0  0  0  0  0  0  0  0  0  0  0  0
   62.8510   30.8980   50.3340 N   0  0  0  0  0  0  0  0  0  0  0  0
   63.9940   31.5570   50.0700 C   0  0  0  0  0  0  0  0  0  0  0  0
   65.0940   31.7100   51.0580 C   0  0  0  0  0  0  0  0  0  0  0  0
   64.1510   32.1090   48.8480 N   0  0  0  0  0  0  0  0  0  0  0  0
   59.6200   33.3350   49.3720 N   0  0  0  0  0  0  0  0  0  0  0  0
   58.5100   32.6340   51.7882 H   0  0  0  0  0  0  0  0  0  0  0  0
   57.1080   31.8064   51.0290 H   0  0  0  0  0  0  0  0  0  0  0  0
   58.7230   31.0200   51.0290 H   0  0  0  0  0  0  0  0  0  0  0  0
   59.8897   35.3310   46.7512 H   0  0  0  0  0  0  0  0  0  0  0  0
   61.2098   34.9993   47.9729 H   0  0  0  0  0  0  0  0  0  0  0  0
   60.8989   32.7153   46.3478 H   0  0  0  0  0  0  0  0  0  0  0  0
   61.0220   34.2065   45.2935 H   0  0  0  0  0  0  0  0  0  0  0  0
   63.1748   34.1823   45.5447 H   0  0  0  0  0  0  0  0  0  0  0  0
   62.9245   34.4537   47.3245 H   0  0  0  0  0  0  0  0  0  0  0  0
   61.1999   31.2095   47.4612 H   0  0  0  0  0  0  0  0  0  0  0  0
   60.9873   29.2490   50.6689 H   0  0  0  0  0  0  0  0  0  0  0  0
   59.9400   30.7068   50.3135 H   0  0  0  0  0  0  0  0  0  0  0  0
   59.1768   31.1050   48.0623 H   0  0  0  0  0  0  0  0  0  0  0  0
   56.8547   30.7142   46.4833 H   0  0  0  0  0  0  0  0  0  0  0  0
   59.4412   32.3053   44.3554 H   0  0  0  0  0  0  0  0  0  0  0  0
   58.0088   34.2034   44.5381 H   0  0  0  0  0  0  0  0  0  0  0  0
   56.7462   33.2191   43.6991 H   0  0  0  0  0  0  0  0  0  0  0  0
   57.2520   33.0200   46.4880 H   0  0  0  0  0  0  0  0  0  0  0  0
   58.8513   30.6305   43.0527 H   0  0  0  0  0  0  0  0  0  0  0  0
   56.9640   31.5580   41.7010 H   0  0  0  0  0  0  0  0  0  0  0  0
   55.9447   31.0450   44.0692 H   0  0  0  0  0  0  0  0  0  0  0  0
   56.1520   28.7670   42.9420 H   0  0  0  0  0  0  0  0  0  0  0  0
   58.1924   28.9399   44.4451 H   0  0  0  0  0  0  0  0  0  0  0  0
   55.9260   28.2580   44.3230 H   0  0  0  0  0  0  0  0  0  0  0  0
   58.0238   27.5777   45.8779 H   0  0  0  0  0  0  0  0  0  0  0  0
   59.3616   26.2146   47.4745 H   0  0  0  0  0  0  0  0  0  0  0  0
   64.6826   31.6528   52.0766 H   0  0  0  0  0  0  0  0  0  0  0  0
   65.8304   30.9056   50.9143 H   0  0  0  0  0  0  0  0  0  0  0  0
   65.5830   32.6848   50.9143 H   0  0  0  0  0  0  0  0  0  0  0  0
   65.0150   32.6290   48.5940 H   0  0  0  0  0  0  0  0  0  0  0  0
  1  2  1  0
  2  3  2  0
  3  4  1  0
  4  5  1  0
  5  6  1  0
  6  7  1  0
  7  8  1  0
  8  9  1  0
  9 10  2  0
 10 11  1  0
 11 12  2  0
 12 13  1  0
 13 14  1  0
 14 15  2  0
 15 16  1  0
 16 17  1  0
 17 18  1  0
 18 19  1  0
 19 20  1  0
 20 21  1  0
 19 22  1  0
 22 23  1  0
 22 24  1  0
 24 25  1  0
 24 26  1  0
 26 27  1  0
 16 28  2  0
 28 29  1  0
 29 30  2  0
 30 31  1  0
 12 32  1  0
 32 33  2  0
 33 34  1  0
 33 35  1  0
  5 36  2  0
 36  2  1  0
 35 10  1  0
 30 14  1  0
 26 17  1  0
  1 37  1  0
  1 38  1  0
  1 39  1  0
  6 40  1  0
  6 41  1  0
  7 42  1  0
  7 43  1  0
  8 44  1  0
  8 45  1  0
 11 46  1  0
 13 47  1  0
 13 48  1  0
 15 49  1  0
 17 50  1  1
 19 51  1  6
 20 52  1  0
 20 53  1  0
 21 54  1  0
 22 55  1  6
 23 56  1  0
 24 57  1  1
 25 58  1  0
 26 59  1  6
 27 60  1  0
 28 61  1  0
 29 62  1  0
 34 63  1  0
 34 64  1  0
 34 65  1  0
 35 66  1  0
M  END
>  <smiles>  (69) 
Cc1noc(CCCN=c2cc(Cc3cc(C4OC(CO)C(O)C(O)C4O)ccc3Cl)nc(C)[nH]2)n1

>  <score_type>  (69) 
oracle

>  <origin>  (69) 
adg

>  <m_score__min__energy>  (69) 
-10.460000000000001

>  <m_primary>  (69) 
energy

$$$$
69:0
     RDKit          3D

 55 58  0  0  0  0  0  0  0  0999 V2000
   55.5380   27.0910   45.7010 N   0  0  0  0  0  0  0  0  0  0  0  0
   56.5230   25.7090   46.0290 S   0  0  0  0  0  0  0  0  0  0  0  0
   56.6520   24.8750   44.7850 O   0  0  0  0  0  0  0  0  0  0  0  0
   55.8740   24.8790   47.1000 O   0  0  0  0  0  0  0  0  0  0  0  0
   58.1180   26.2360   46.5570 C   0  0  0  0  0  0  0  0  0  0  0  0
   59.2450   25.4440   46.3040 C   0  0  0  0  0  0  0  0  0  0  0  0
   60.5040   25.8550   46.7440 C   0  0  0  0  0  0  0  0  0  0  0  0
   60.6460   27.0580   47.4400 C   0  0  0  0  0  0  0  0  0  0  0  0
   59.5250   27.8690   47.6990 C   0  0  0  0  0  0  0  0  0  0  0  0
   59.6850   29.1380   48.4490 C   0  0  0  0  0  0  0  0  0  0  0  0
   60.5480   29.2100   49.3680 O   0  0  0  0  0  0  0  0  0  0  0  0
   58.8850   30.2880   48.1380 N   0  0  0  0  0  0  0  0  0  0  0  0
   58.8800   31.4670   49.0060 C   0  0  0  0  0  0  0  0  0  0  0  0
   58.9530   32.7730   48.1890 C   0  0  1  0  0  0  0  0  0  0  0  0
   60.2060   32.8120   47.3040 C   0  0  0  0  0  0  0  0  0  0  0  0
   60.3350   34.1580   46.5770 C   0  0  0  0  0  0  0  0  0  0  0  0
   58.9910   34.8920   46.3820 C   0  0  0  0  0  0  0  0  0  0  0  0
   57.8310   33.9820   46.2690 N   0  0  0  0  0  0  0  0  0  0  0  0
   57.4450   33.5910   44.8950 C   0  0  0  0  0  0  0  0  0  0  0  0
   57.4440   32.0960   44.6720 C   0  0  0  0  0  0  0  0  0  0  0  0
   56.2250   31.3980   44.4590 C   0  0  0  0  0  0  0  0  0  0  0  0
   56.2180   30.0050   44.2660 C   0  0  0  0  0  0  0  0  0  0  0  0
   57.4420   29.3400   44.2770 C   0  0  0  0  0  0  0  0  0  0  0  0
   57.6570   28.0240   44.1150 N   0  0  0  0  0  0  0  0  0  0  0  0
   58.9970   27.8580   44.1950 C   0  0  0  0  0  0  0  0  0  0  0  0
   59.6340   29.0760   44.4070 C   0  0  0  0  0  0  0  0  0  0  0  0
   58.6220   30.0090   44.4550 C   0  0  0  0  0  0  0  0  0  0  0  0
   58.6660   31.3860   44.6470 C   0  0  0  0  0  0  0  0  0  0  0  0
   57.7000   32.9270   47.3010 C   0  0  0  0  0  0  0  0  0  0  0  0
   58.2590   27.4390   47.2620 C   0  0  0  0  0  0  0  0  0  0  0  0
   54.7630   27.0850   46.4010 H   0  0  0  0  0  0  0  0  0  0  0  0
   59.1376   24.4956   45.7571 H   0  0  0  0  0  0  0  0  0  0  0  0
   61.3866   25.2303   46.5423 H   0  0  0  0  0  0  0  0  0  0  0  0
   61.6406   27.3736   47.7880 H   0  0  0  0  0  0  0  0  0  0  0  0
   58.3380   30.3020   47.2470 H   0  0  0  0  0  0  0  0  0  0  0  0
   57.9544   31.4689   49.6004 H   0  0  0  0  0  0  0  0  0  0  0  0
   59.7649   31.4186   49.6576 H   0  0  0  0  0  0  0  0  0  0  0  0
   59.0021   33.6052   48.9066 H   0  0  0  0  0  0  0  0  0  0  0  0
   61.0945   32.6587   47.9342 H   0  0  0  0  0  0  0  0  0  0  0  0
   60.1220   32.0166   46.5488 H   0  0  0  0  0  0  0  0  0  0  0  0
   61.0024   34.8065   47.1636 H   0  0  0  0  0  0  0  0  0  0  0  0
   60.7315   33.9435   45.5736 H   0  0  0  0  0  0  0  0  0  0  0  0
   58.8293   35.5564   47.2437 H   0  0  0  0  0  0  0  0  0  0  0  0
   59.0603   35.4459   45.4342 H   0  0  0  0  0  0  0  0  0  0  0  0
   56.4332   33.9736   44.6953 H   0  0  0  0  0  0  0  0  0  0  0  0
   58.1948   34.0195   44.2137 H   0  0  0  0  0  0  0  0  0  0  0  0
   55.2757   31.9536   44.4449 H   0  0  0  0  0  0  0  0  0  0  0  0
   55.2762   29.4581   44.1113 H   0  0  0  0  0  0  0  0  0  0  0  0
   56.9420   27.2800   43.9590 H   0  0  0  0  0  0  0  0  0  0  0  0
   59.5130   26.8907   44.1046 H   0  0  0  0  0  0  0  0  0  0  0  0
   60.7140   29.2556   44.5135 H   0  0  0  0  0  0  0  0  0  0  0  0
   59.6256   31.9081   44.7759 H   0  0  0  0  0  0  0  0  0  0  0  0
   56.8447   33.1760   47.9464 H   0  0  0  0  0  0  0  0  0  0  0  0
   57.5604   31.9730   46.7715 H   0  0  0  0  0  0  0  0  0  0  0  0
   57.3714   28.0527   47.4756 H   0  0  0  0  0  0  0  0  0  0  0  0
  1  2  1  0
  2  3  2  0
  2  4  2  0
  2  5  1  0
  5  6  2  0
  6  7  1  0
  7  8  2  0
  8  9  1  0
  9 10  1  0
 10 11  2  0
 10 12  1  0
 12 13  1  0
 13 14  1  0
 14 15  1  0
 15 16  1  0
 16 17  1  0
 17 18  1  0
 18 19  1  0
 19 20  1  0
 20 21  2  0
 21 22  1  0
 22 23  2  0
 23 24  1  0
 24 25  1  0
 25 26  2  0
 26 27  1  0
 27 28  2  0
 18 29  1  0
  9 30  2  0
 30  5  1  0
 29 14  1  0
 28 20  1  0
 27 23  1  0
  1 31  1  0
  6 32  1  0
  7 33  1  0
  8 34  1  0
 12 35  1  0
 13 36  1  0
 13 37  1  0
 14 38  1  1
 15 39  1  0
 15 40  1  0
 16 41  1  0
 16 42  1  0
 17 43  1  0
 17 44  1  0
 19 45  1  0
 19 46  1  0
 21 47  1  0
 22 48  1  0
 24 49  1  0
 25 50  1  0
 26 51  1  0
 28 52  1  0
 29 53  1  0
 29 54  1  0
 30 55  1  0
M  CHG  1   1  -1
M  END
>  <UniqueID>  (70) 
64

>  <SMILES>  (70) 
[NH-]S(=O)(=O)c1cccc(C(=O)NC[C@H]2CCCN(Cc3ccc4[nH]ccc4c3)C2)c1

>  <Energy>  (70) 
101.20434430998415

>  <Genealogy>  (70) 
[NH-]S(=O)(=O)c1cccc(C(=O)NCC2CCCN(Cc3ccc4[nH]ccc4c3)C2)c1 (protonated)
[NH-]S(=O)(=O)c1cccc(C(=O)NC[C@H]2CCCN(Cc3ccc4[nH]ccc4c3)C2)c1 (chirality)
[NH-]S(=O)(=O)c1cccc(C(=O)NC[C@H]2CCCN(Cc3ccc4[nH]ccc4c3)C2)c1 (3D coordinates assigned)
[NH-]S(=O)(=O)c1cccc(C(=O)NC[C@H]2CCCN(Cc3ccc4[nH]ccc4c3)C2)c1 (nonaromatic ring conformer: 101.20434430998415 kcal/mol)

>  <smiles>  (70) 
NS(=O)(=O)c1cccc(C(=O)NCC2CCCN(Cc3ccc4[nH]ccc4c3)C2)c1

>  <score_type>  (70) 
oracle

>  <origin>  (70) 
adg

>  <m_score__min__energy>  (70) 
-12.77

>  <m_primary>  (70) 
energy

$$$$
70:0
     RDKit          3D

 61 64  0  0  0  0  0  0  0  0999 V2000
   59.2630   35.5920   44.9350 C   0  0  0  0  0  0  0  0  0  0  0  0
   59.4630   34.4900   45.9330 C   0  0  0  0  0  0  0  0  0  0  0  0
   60.7580   34.1320   46.3450 C   0  0  0  0  0  0  0  0  0  0  0  0
   60.9430   33.1390   47.3120 C   0  0  0  0  0  0  0  0  0  0  0  0
   59.8370   32.4950   47.8860 C   0  0  0  0  0  0  0  0  0  0  0  0
   60.0360   31.4910   48.9980 C   0  0  0  0  0  0  0  0  0  0  0  0
   61.0810   30.4300   48.6170 C   0  0  0  0  0  0  0  0  0  0  0  0
   60.7450   29.7670   47.3010 C   0  0  0  0  0  0  0  0  0  0  0  0
   60.9910   30.3820   46.2290 O   0  0  0  0  0  0  0  0  0  0  0  0
   60.2310   28.4220   47.2450 N   0  0  0  0  0  0  0  0  0  0  0  0
   59.3320   27.9060   48.2940 C   0  0  0  0  0  0  0  0  0  0  0  0
   58.2590   26.9860   47.6920 C   0  0  0  0  0  0  0  0  0  0  0  0
   58.8350   26.0460   46.7210 N   0  0  0  0  0  0  0  0  0  0  0  0
   57.9920   25.0520   46.1240 C   0  0  0  0  0  0  0  0  0  0  0  0
   58.2340   23.6960   46.3840 C   0  0  0  0  0  0  0  0  0  0  0  0
   57.4120   22.7140   45.8280 C   0  0  0  0  0  0  0  0  0  0  0  0
   56.3470   23.0810   45.0050 C   0  0  0  0  0  0  0  0  0  0  0  0
   56.1000   24.4290   44.7340 C   0  0  0  0  0  0  0  0  0  0  0  0
   56.9140   25.4290   45.2950 C   0  0  0  0  0  0  0  0  0  0  0  0
   56.7090   26.8140   44.9650 N   0  0  0  0  0  0  0  0  0  0  0  0
   57.7200   27.6570   44.3930 C   0  0  0  0  0  0  0  0  0  0  0  0
   58.7210   27.1390   43.8280 O   0  0  0  0  0  0  0  0  0  0  0  0
   57.5500   29.1290   44.3740 C   0  0  0  0  0  0  0  0  0  0  0  0
   58.6690   29.9520   44.1550 C   0  0  0  0  0  0  0  0  0  0  0  0
   58.5260   31.3410   44.0900 C   0  0  0  0  0  0  0  0  0  0  0  0
   57.2690   31.9250   44.2540 C   0  0  0  0  0  0  0  0  0  0  0  0
   56.1540   31.1220   44.4970 C   0  0  0  0  0  0  0  0  0  0  0  0
   56.2870   29.7310   44.5680 C   0  0  0  0  0  0  0  0  0  0  0  0
   55.1640   28.9660   44.8590 O   0  0  0  0  0  0  0  0  0  0  0  0
   60.2640   26.0830   46.4010 C   0  0  0  0  0  0  0  0  0  0  0  0
   60.7010   27.5330   46.1690 C   0  0  0  0  0  0  0  0  0  0  0  0
   58.5410   32.8650   47.4870 C   0  0  0  0  0  0  0  0  0  0  0  0
   58.3540   33.8600   46.5200 C   0  0  0  0  0  0  0  0  0  0  0  0
   59.0909   36.5402   45.4654 H   0  0  0  0  0  0  0  0  0  0  0  0
   60.1594   35.6823   44.3039 H   0  0  0  0  0  0  0  0  0  0  0  0
   58.3920   35.3615   44.3039 H   0  0  0  0  0  0  0  0  0  0  0  0
   61.6310   34.6357   45.9044 H   0  0  0  0  0  0  0  0  0  0  0  0
   61.9607   32.8616   47.6240 H   0  0  0  0  0  0  0  0  0  0  0  0
   60.3759   32.0198   49.9007 H   0  0  0  0  0  0  0  0  0  0  0  0
   59.0777   30.9825   49.1802 H   0  0  0  0  0  0  0  0  0  0  0  0
   62.0658   30.9128   48.5325 H   0  0  0  0  0  0  0  0  0  0  0  0
   61.0887   29.6574   49.3999 H   0  0  0  0  0  0  0  0  0  0  0  0
   59.9230   27.3381   49.0276 H   0  0  0  0  0  0  0  0  0  0  0  0
   58.8329   28.7576   48.7795 H   0  0  0  0  0  0  0  0  0  0  0  0
   57.7830   26.4148   48.5026 H   0  0  0  0  0  0  0  0  0  0  0  0
   57.5226   27.6133   47.1683 H   0  0  0  0  0  0  0  0  0  0  0  0
   59.0757   23.4042   47.0293 H   0  0  0  0  0  0  0  0  0  0  0  0
   57.6040   21.6516   46.0387 H   0  0  0  0  0  0  0  0  0  0  0  0
   55.6996   22.3064   44.5680 H   0  0  0  0  0  0  0  0  0  0  0  0
   55.2633   24.7100   44.0775 H   0  0  0  0  0  0  0  0  0  0  0  0
   55.7410   27.2020   45.0420 H   0  0  0  0  0  0  0  0  0  0  0  0
   59.6642   29.4994   44.0339 H   0  0  0  0  0  0  0  0  0  0  0  0
   59.4063   31.9753   43.9092 H   0  0  0  0  0  0  0  0  0  0  0  0
   57.1574   33.0175   44.1917 H   0  0  0  0  0  0  0  0  0  0  0  0
   55.1655   31.5849   44.6334 H   0  0  0  0  0  0  0  0  0  0  0  0
   60.8376   25.6571   47.2374 H   0  0  0  0  0  0  0  0  0  0  0  0
   60.4498   25.4951   45.4900 H   0  0  0  0  0  0  0  0  0  0  0  0
   61.7996   27.5722   46.1285 H   0  0  0  0  0  0  0  0  0  0  0  0
   60.2593   27.8771   45.2222 H   0  0  0  0  0  0  0  0  0  0  0  0
   57.6682   32.3697   47.9374 H   0  0  0  0  0  0  0  0  0  0  0  0
   57.3360   34.1488   46.2195 H   0  0  0  0  0  0  0  0  0  0  0  0
  1  2  1  0
  2  3  2  0
  3  4  1  0
  4  5  2  0
  5  6  1  0
  6  7  1  0
  7  8  1  0
  8  9  2  0
  8 10  1  0
 10 11  1  0
 11 12  1  0
 12 13  1  0
 13 14  1  0
 14 15  2  0
 15 16  1  0
 16 17  2  0
 17 18  1  0
 18 19  2  0
 19 20  1  0
 20 21  1  0
 21 22  2  0
 21 23  1  0
 23 24  2  0
 24 25  1  0
 25 26  2  0
 26 27  1  0
 27 28  2  0
 28 29  1  0
 13 30  1  0
 30 31  1  0
  5 32  1  0
 32 33  2  0
 33  2  1  0
 31 10  1  0
 19 14  1  0
 28 23  1  0
  1 34  1  0
  1 35  1  0
  1 36  1  0
  3 37  1  0
  4 38  1  0
  6 39  1  0
  6 40  1  0
  7 41  1  0
  7 42  1  0
 11 43  1  0
 11 44  1  0
 12 45  1  0
 12 46  1  0
 15 47  1  0
 16 48  1  0
 17 49  1  0
 18 50  1  0
 20 51  1  0
 24 52  1  0
 25 53  1  0
 26 54  1  0
 27 55  1  0
 30 56  1  0
 30 57  1  0
 31 58  1  0
 31 59  1  0
 32 60  1  0
 33 61  1  0
M  CHG  1  29  -1
M  END
>  <UniqueID>  (71) 
65

>  <SMILES>  (71) 
Cc1ccc(CCC(=O)N2CCN(c3ccccc3NC(=O)c3ccccc3[O-])CC2)cc1

>  <Energy>  (71) 
72.8768459428954

>  <Genealogy>  (71) 
Cc1ccc(CCC(=O)N2CCN(c3ccccc3NC(=O)c3ccccc3[O-])CC2)cc1 (protonated)
Cc1ccc(CCC(=O)N2CCN(c3ccccc3NC(=O)c3ccccc3[O-])CC2)cc1 (3D coordinates assigned)
Cc1ccc(CCC(=O)N2CCN(c3ccccc3NC(=O)c3ccccc3[O-])CC2)cc1 (nonaromatic ring conformer: 72.8768459428954 kcal/mol)

>  <smiles>  (71) 
Cc1ccc(CCC(=O)N2CCN(c3ccccc3NC(=O)c3ccccc3O)CC2)cc1

>  <score_type>  (71) 
oracle

>  <origin>  (71) 
adg

>  <m_score__min__energy>  (71) 
-14.199999999999999

>  <m_primary>  (71) 
energy

$$$$
71:0
     RDKit          3D

 55 58  0  0  0  0  0  0  0  0999 V2000
   54.9610   27.3660   46.2040 H   0  0  0  0  0  0  0  0  0  0  0  0
   54.8200   26.3540   46.0030 N   0  0  0  0  0  0  0  0  0  0  0  0
   55.7620   25.4620   45.9520 C   0  0  0  0  0  0  0  0  0  0  0  0
   55.4950   24.2200   46.4380 N   0  0  0  0  0  0  0  0  0  0  0  0
   56.4330   23.2390   46.4910 C   0  0  0  0  0  0  0  0  0  0  0  0
   56.1689   22.2462   46.8841 H   0  0  0  0  0  0  0  0  0  0  0  0
   57.7280   23.4900   46.0480 C   0  0  0  0  0  0  0  0  0  0  0  0
   58.4961   22.7045   46.1029 H   0  0  0  0  0  0  0  0  0  0  0  0
   58.0420   24.7470   45.5340 C   0  0  0  0  0  0  0  0  0  0  0  0
   59.0649   24.9534   45.1862 H   0  0  0  0  0  0  0  0  0  0  0  0
   57.0640   25.7530   45.4560 C   0  0  0  0  0  0  0  0  0  0  0  0
   57.4370   27.0480   44.8370 C   0  0  0  0  0  0  0  0  0  0  0  0
   58.4230   27.1110   44.0530 O   0  0  0  0  0  0  0  0  0  0  0  0
   56.7100   28.2350   45.1970 N   0  0  0  0  0  0  0  0  0  0  0  0
   56.8600   29.4140   44.6700 C   0  0  0  0  0  0  0  0  0  0  0  0
   57.1970   30.5230   45.3640 N   0  0  0  0  0  0  0  0  0  0  0  0
   57.2760   31.6160   44.5560 C   0  0  0  0  0  0  0  0  0  0  0  0
   57.6180   32.9490   45.0810 C   0  0  0  0  0  0  0  0  0  0  0  0
   56.7220   33.6550   45.6200 O   0  0  0  0  0  0  0  0  0  0  0  0
   58.9610   33.4480   44.9790 N   0  0  0  0  0  0  0  0  0  0  0  0
   59.6750   32.9010   44.4480 H   0  0  0  0  0  0  0  0  0  0  0  0
   59.3950   34.6700   45.6510 C   0  0  0  0  0  0  0  0  0  0  0  0
   58.5124   35.2469   45.9643 H   0  0  0  0  0  0  0  0  0  0  0  0
   60.0034   35.2682   44.9568 H   0  0  0  0  0  0  0  0  0  0  0  0
   60.2190   34.3250   46.8590 C   0  0  0  0  0  0  0  0  0  0  0  0
   61.5440   33.8850   46.7210 C   0  0  0  0  0  0  0  0  0  0  0  0
   61.9761   33.7573   45.7175 H   0  0  0  0  0  0  0  0  0  0  0  0
   62.3180   33.6080   47.8510 C   0  0  0  0  0  0  0  0  0  0  0  0
   63.3553   33.2619   47.7316 H   0  0  0  0  0  0  0  0  0  0  0  0
   61.7790   33.7690   49.1400 C   0  0  0  0  0  0  0  0  0  0  0  0
   62.5830   33.5030   50.3070 N   0  0  0  0  0  0  0  0  0  0  0  0
   63.3950   34.5710   50.9000 C   0  0  0  0  0  0  0  0  0  0  0  0
   62.7428   35.2395   51.4812 H   0  0  0  0  0  0  0  0  0  0  0  0
   63.8905   35.1278   50.0910 H   0  0  0  0  0  0  0  0  0  0  0  0
   64.4730   33.9860   51.8280 C   0  0  0  0  0  0  0  0  0  0  0  0
   64.0186   33.7602   52.8040 H   0  0  0  0  0  0  0  0  0  0  0  0
   65.2775   34.7293   51.9296 H   0  0  0  0  0  0  0  0  0  0  0  0
   65.0590   32.7460   51.2740 N   0  0  0  0  0  0  0  0  0  0  0  0
   65.8550   33.0100   50.0640 C   0  0  0  0  0  0  0  0  0  0  0  0
   66.8623   33.3441   50.3534 H   0  0  0  0  0  0  0  0  0  0  0  0
   65.9315   32.0891   49.4673 H   0  0  0  0  0  0  0  0  0  0  0  0
   65.3660   33.7941   49.4673 H   0  0  0  0  0  0  0  0  0  0  0  0
   64.0590   31.6680   51.0520 C   0  0  0  0  0  0  0  0  0  0  0  0
   64.1091   30.9697   51.9005 H   0  0  0  0  0  0  0  0  0  0  0  0
   64.3135   31.1903   50.0944 H   0  0  0  0  0  0  0  0  0  0  0  0
   62.6090   32.1740   50.9260 C   0  0  0  0  0  0  0  0  0  0  0  0
   62.1570   32.2317   51.9272 H   0  0  0  0  0  0  0  0  0  0  0  0
   62.0410   31.4752   50.2943 H   0  0  0  0  0  0  0  0  0  0  0  0
   60.4570   34.2280   49.2760 C   0  0  0  0  0  0  0  0  0  0  0  0
   60.0279   34.3707   50.2788 H   0  0  0  0  0  0  0  0  0  0  0  0
   59.6850   34.5040   48.1440 C   0  0  0  0  0  0  0  0  0  0  0  0
   58.6522   34.8639   48.2613 H   0  0  0  0  0  0  0  0  0  0  0  0
   56.9960   31.3710   43.2100 C   0  0  0  0  0  0  0  0  0  0  0  0
   57.0018   32.1185   42.4030 H   0  0  0  0  0  0  0  0  0  0  0  0
   56.6480   29.7330   43.0370 S   0  0  0  0  0  0  0  0  0  0  0  0
  1  2  1  0
  2  3  2  3
  3  4  1  0
  4  5  1  0
  5  6  1  0
  5  7  2  0
  7  8  1  0
  7  9  1  0
  9 10  1  0
  9 11  2  0
 11 12  1  0
 12 13  2  0
 12 14  1  0
 14 15  2  0
 15 16  1  0
 16 17  1  0
 17 18  1  0
 18 19  2  0
 18 20  1  0
 20 21  1  0
 20 22  1  0
 22 23  1  0
 22 24  1  0
 22 25  1  0
 25 26  2  0
 26 27  1  0
 26 28  1  0
 28 29  1  0
 28 30  2  0
 30 31  1  0
 31 32  1  0
 32 33  1  0
 32 34  1  0
 32 35  1  0
 35 36  1  0
 35 37  1  0
 35 38  1  0
 38 39  1  0
 39 40  1  0
 39 41  1  0
 39 42  1  0
 38 43  1  0
 43 44  1  0
 43 45  1  0
 43 46  1  0
 46 47  1  0
 46 48  1  0
 30 49  1  0
 49 50  1  0
 49 51  2  0
 51 52  1  0
 17 53  2  0
 53 54  1  0
 53 55  1  0
 11  3  1  0
 55 15  1  0
 51 25  1  0
 46 31  1  0
M  CHG  2   4  -1  16  -1
M  END
>  <UniqueID>  (72) 
66

>  <SMILES>  (72) 
CN1CCN(c2ccc(CNC(=O)c3cs/c(=N/C(=O)c4ccc[n-]c4=N)[n-]3)cc2)CC1

>  <Energy>  (72) 
106.22237089158781

>  <Genealogy>  (72) 
CN1CCN(c2ccc(CNC(=O)c3csc(=NC(=O)c4ccc[n-]c4=N)[n-]3)cc2)CC1 (protonated)
CN1CCN(c2ccc(CNC(=O)c3cs/c(=N/C(=O)c4ccc[n-]c4=N)[n-]3)cc2)CC1 (cis-trans isomerization)
CN1CCN(c2ccc(CNC(=O)c3cs/c(=N/C(=O)c4ccc[n-]c4=N)[n-]3)cc2)CC1 (3D coordinates assigned)
CN1CCN(c2ccc(CNC(=O)c3cs/c(=N/C(=O)c4ccc[n-]c4=N)[n-]3)cc2)CC1 (nonaromatic ring conformer: 106.22237089158781 kcal/mol)

>  <smiles>  (72) 
CN1CCN(c2ccc(CNC(=O)c3csc(=NC(=O)c4ccc[nH]c4=N)[nH]3)cc2)CC1

>  <score_type>  (72) 
oracle

>  <origin>  (72) 
adg

>  <m_score__min__energy>  (72) 
-13.5

>  <m_primary>  (72) 
energy

$$$$
72:0
     RDKit          3D

 49 52  0  0  0  0  0  0  0  0999 V2000
   60.9300   29.0900   45.2990 H   0  0  0  0  0  0  0  0  0  0  0  0
   61.2080   29.7560   46.0080 O   0  0  0  0  0  0  0  0  0  0  0  0
   60.3390   30.7290   46.5040 C   0  0  0  0  0  0  0  0  0  0  0  0
   60.8540   31.7400   47.3210 C   0  0  0  0  0  0  0  0  0  0  0  0
   61.9313   31.7650   47.5417 H   0  0  0  0  0  0  0  0  0  0  0  0
   60.0110   32.7240   47.8630 C   0  0  0  0  0  0  0  0  0  0  0  0
   60.5600   33.7930   48.7270 C   0  0  0  0  0  0  0  0  0  0  0  0
   60.0580   34.9490   48.6670 O   0  0  0  0  0  0  0  0  0  0  0  0
   61.6610   33.5450   49.6210 N   0  0  0  0  0  0  0  0  0  0  0  0
   62.6460   34.6150   49.8330 C   0  0  0  0  0  0  0  0  0  0  0  0
   63.0632   34.9107   48.8591 H   0  0  0  0  0  0  0  0  0  0  0  0
   62.1314   35.4566   50.3198 H   0  0  0  0  0  0  0  0  0  0  0  0
   63.7900   34.1730   50.7450 C   0  0  0  0  0  0  0  0  0  0  0  0
   64.5814   34.9369   50.7346 H   0  0  0  0  0  0  0  0  0  0  0  0
   63.4101   34.0472   51.7696 H   0  0  0  0  0  0  0  0  0  0  0  0
   64.4700   32.5900   50.1570 S   0  0  0  0  0  0  0  0  0  0  0  0
   62.9620   31.5740   50.4170 C   0  0  0  0  0  0  0  0  0  0  0  0
   62.8794   30.8662   49.5790 H   0  0  0  0  0  0  0  0  0  0  0  0
   63.0877   31.0841   51.3938 H   0  0  0  0  0  0  0  0  0  0  0  0
   61.6470   32.3670   50.5020 C   0  0  0  0  0  0  0  0  0  0  0  0
   60.8156   31.7106   50.2054 H   0  0  0  0  0  0  0  0  0  0  0  0
   61.5250   32.7164   51.5379 H   0  0  0  0  0  0  0  0  0  0  0  0
   58.6430   32.7000   47.5510 C   0  0  0  0  0  0  0  0  0  0  0  0
   57.9763   33.4760   47.9551 H   0  0  0  0  0  0  0  0  0  0  0  0
   58.1230   31.6960   46.7300 C   0  0  0  0  0  0  0  0  0  0  0  0
   57.0482   31.6823   46.4964 H   0  0  0  0  0  0  0  0  0  0  0  0
   58.9630   30.7070   46.2030 C   0  0  0  0  0  0  0  0  0  0  0  0
   58.4100   29.6920   45.3490 N   0  0  0  0  0  0  0  0  0  0  0  0
   57.7930   29.9090   44.1700 C   0  0  0  0  0  0  0  0  0  0  0  0
   57.6090   31.2550   43.5390 C   0  0  0  0  0  0  0  0  0  0  0  0
   57.5048   32.0173   44.3251 H   0  0  0  0  0  0  0  0  0  0  0  0
   58.4834   31.4897   42.9142 H   0  0  0  0  0  0  0  0  0  0  0  0
   56.7037   31.2464   42.9142 H   0  0  0  0  0  0  0  0  0  0  0  0
   57.3710   28.7140   43.6210 C   0  0  0  0  0  0  0  0  0  0  0  0
   56.8484   28.5806   42.6623 H   0  0  0  0  0  0  0  0  0  0  0  0
   57.7350   27.7100   44.5160 C   0  0  0  0  0  0  0  0  0  0  0  0
   57.5050   26.3850   44.3970 C   0  0  0  0  0  0  0  0  0  0  0  0
   57.7005   25.9278   43.4158 H   0  0  0  0  0  0  0  0  0  0  0  0
   57.0130   25.4940   45.4710 C   0  0  0  0  0  0  0  0  0  0  0  0
   57.6460   24.4070   45.9500 N   0  0  0  0  0  0  0  0  0  0  0  0
   56.8260   23.9690   46.9300 C   0  0  0  0  0  0  0  0  0  0  0  0
   57.0810   22.9500   47.6230 O   0  0  0  0  0  0  0  0  0  0  0  0
   55.7150   24.7130   47.1120 N   0  0  0  0  0  0  0  0  0  0  0  0
   55.8500   25.6740   46.1840 C   0  0  0  0  0  0  0  0  0  0  0  0
   54.9290   26.6960   45.9920 O   0  0  0  0  0  0  0  0  0  0  0  0
   58.3760   28.3570   45.5810 C   0  0  0  0  0  0  0  0  0  0  0  0
   58.9040   27.7800   46.6720 C   0  0  0  0  0  0  0  0  0  0  0  0
   59.3842   28.3994   47.4439 H   0  0  0  0  0  0  0  0  0  0  0  0
   58.8565   26.6878   46.7941 H   0  0  0  0  0  0  0  0  0  0  0  0
  1  2  1  0
  2  3  1  0
  3  4  2  0
  4  5  1  0
  4  6  1  0
  6  7  1  0
  7  8  2  0
  7  9  1  0
  9 10  1  0
 10 11  1  0
 10 12  1  0
 10 13  1  0
 13 14  1  0
 13 15  1  0
 13 16  1  0
 16 17  1  0
 17 18  1  0
 17 19  1  0
 17 20  1  0
 20 21  1  0
 20 22  1  0
  6 23  2  0
 23 24  1  0
 23 25  1  0
 25 26  1  0
 25 27  2  0
 27 28  1  0
 28 29  1  0
 29 30  1  0
 30 31  1  0
 30 32  1  0
 30 33  1  0
 29 34  2  0
 34 35  1  0
 34 36  1  0
 36 37  2  0
 37 38  1  0
 37 39  1  0
 39 40  1  0
 40 41  1  0
 41 42  2  0
 41 43  1  0
 43 44  1  0
 44 45  1  0
 36 46  1  0
 46 47  2  0
 47 48  1  0
 47 49  1  0
 27  3  1  0
 46 28  1  0
 20  9  1  0
 44 39  2  0
M  CHG  3  40  -1  43  -1  45  -1
M  END
>  <UniqueID>  (73) 
67

>  <SMILES>  (73) 
C=c1/c(=C/c2[n-]c(=O)[n-]c2[O-])cc(C)n1-c1ccc(C(=O)N2CCSCC2)cc1O

>  <Energy>  (73) 
126.44806432794533

>  <Genealogy>  (73) 
C=c1c(=Cc2[n-]c(=O)[n-]c2[O-])cc(C)n1-c1ccc(C(=O)N2CCSCC2)cc1O (protonated)
C=c1/c(=C/c2[n-]c(=O)[n-]c2[O-])cc(C)n1-c1ccc(C(=O)N2CCSCC2)cc1O (cis-trans isomerization)
C=c1/c(=C/c2[n-]c(=O)[n-]c2[O-])cc(C)n1-c1ccc(C(=O)N2CCSCC2)cc1O (3D coordinates assigned)
C=c1/c(=C/c2[n-]c(=O)[n-]c2[O-])cc(C)n1-c1ccc(C(=O)N2CCSCC2)cc1O (nonaromatic ring conformer: 126.44806432794533 kcal/mol)

>  <smiles>  (73) 
C=c1c(=Cc2[nH]c(=O)[nH]c2O)cc(C)n1-c1ccc(C(=O)N2CCSCC2)cc1O

>  <score_type>  (73) 
oracle

>  <origin>  (73) 
adg

>  <m_score__min__energy>  (73) 
-15.81

>  <m_primary>  (73) 
energy

$$$$
73:0
     RDKit          3D

 57 60  0  0  0  0  0  0  0  0999 V2000
   65.8810   34.5210   52.0300 C   0  0  0  0  0  0  0  0  0  0  0  0
   65.0370   34.1990   51.2320 C   0  0  0  0  0  0  0  0  0  0  0  0
   64.0280   33.8120   50.2800 C   0  0  0  0  0  0  0  0  0  0  0  0
   64.3600   32.9650   49.2160 C   0  0  0  0  0  0  0  0  0  0  0  0
   63.3850   32.5840   48.2820 C   0  0  0  0  0  0  0  0  0  0  0  0
   63.7390   31.6350   47.1710 C   0  0  0  0  0  0  0  0  0  0  0  0
   62.0600   33.0390   48.4320 C   0  0  0  0  0  0  0  0  0  0  0  0
   61.0860   32.6190   47.5160 O   0  0  0  0  0  0  0  0  0  0  0  0
   60.3440   31.4440   47.6810 C   0  0  0  0  0  0  0  0  0  0  0  0
   60.5150   30.6620   48.7780 N   0  0  0  0  0  0  0  0  0  0  0  0
   59.8090   29.5160   48.9330 C   0  0  0  0  0  0  0  0  0  0  0  0
   60.0160   28.7750   49.9800 N   0  0  0  0  0  0  0  0  0  0  0  0
   59.3800   28.9690   51.2820 C   0  0  0  0  0  0  0  0  0  0  0  0
   59.0920   30.4330   51.5420 C   0  0  0  0  0  0  0  0  0  0  0  0
   57.7570   30.8720   51.4690 C   0  0  0  0  0  0  0  0  0  0  0  0
   57.4290   32.2060   51.7120 C   0  0  0  0  0  0  0  0  0  0  0  0
   58.4270   33.1210   52.0340 C   0  0  0  0  0  0  0  0  0  0  0  0
   59.7560   32.7080   52.1130 C   0  0  0  0  0  0  0  0  0  0  0  0
   60.1110   31.3710   51.8660 C   0  0  0  0  0  0  0  0  0  0  0  0
   61.8190   30.9200   52.0320 S   0  0  0  0  0  0  0  0  0  0  0  0
   62.4360   30.3960   50.5040 N   0  0  0  0  0  0  0  0  0  0  0  0
   62.6300   32.0820   52.5330 O   0  0  0  0  0  0  0  0  0  0  0  0
   61.9550   29.7960   53.0220 O   0  0  0  0  0  0  0  0  0  0  0  0
   58.9140   29.1480   47.9770 N   0  0  0  0  0  0  0  0  0  0  0  0
   58.7200   29.8890   46.8820 N   0  0  0  0  0  0  0  0  0  0  0  0
   57.8220   29.4820   45.9380 C   0  0  0  0  0  0  0  0  0  0  0  0
   57.1690   28.4150   46.1070 O   0  0  0  0  0  0  0  0  0  0  0  0
   57.6250   30.2480   44.7790 C   0  0  0  0  0  0  0  0  0  0  0  0
   56.4790   29.7390   43.5350 S   0  0  0  0  0  0  0  0  0  0  0  0
   54.9670   29.3360   44.2700 N   0  0  0  0  0  0  0  0  0  0  0  0
   56.2580   30.8470   42.5420 O   0  0  0  0  0  0  0  0  0  0  0  0
   57.0260   28.5400   42.8140 O   0  0  0  0  0  0  0  0  0  0  0  0
   58.3640   31.4220   44.6280 C   0  0  0  0  0  0  0  0  0  0  0  0
   59.2460   31.7990   45.5870 N   0  0  0  0  0  0  0  0  0  0  0  0
   59.4300   31.0480   46.7030 C   0  0  0  0  0  0  0  0  0  0  0  0
   61.7320   33.9210   49.4860 C   0  0  0  0  0  0  0  0  0  0  0  0
   60.3350   34.4560   49.6490 C   0  0  0  0  0  0  0  0  0  0  0  0
   62.7190   34.2850   50.4150 C   0  0  0  0  0  0  0  0  0  0  0  0
   66.6512   34.8149   52.7583 H   0  0  0  0  0  0  0  0  0  0  0  0
   65.3911   32.5962   49.1117 H   0  0  0  0  0  0  0  0  0  0  0  0
   64.0932   30.6855   47.5988 H   0  0  0  0  0  0  0  0  0  0  0  0
   62.8499   31.4487   46.5507 H   0  0  0  0  0  0  0  0  0  0  0  0
   64.5329   32.0765   46.5507 H   0  0  0  0  0  0  0  0  0  0  0  0
   58.4340   28.4082   51.3056 H   0  0  0  0  0  0  0  0  0  0  0  0
   60.0671   28.6070   52.0610 H   0  0  0  0  0  0  0  0  0  0  0  0
   56.9622   30.1544   51.2172 H   0  0  0  0  0  0  0  0  0  0  0  0
   56.3812   32.5348   51.6491 H   0  0  0  0  0  0  0  0  0  0  0  0
   58.1665   34.1722   52.2266 H   0  0  0  0  0  0  0  0  0  0  0  0
   60.5369   33.4381   52.3720 H   0  0  0  0  0  0  0  0  0  0  0  0
   62.3060   31.1870   49.8330 H   0  0  0  0  0  0  0  0  0  0  0  0
   61.8250   29.6150   50.1760 H   0  0  0  0  0  0  0  0  0  0  0  0
   55.1770   29.0080   45.2390 H   0  0  0  0  0  0  0  0  0  0  0  0
   58.2310   32.0428   43.7297 H   0  0  0  0  0  0  0  0  0  0  0  0
   60.0995   34.5462   50.7197 H   0  0  0  0  0  0  0  0  0  0  0  0
   60.2634   35.4452   49.1732 H   0  0  0  0  0  0  0  0  0  0  0  0
   59.6209   33.7677   49.1732 H   0  0  0  0  0  0  0  0  0  0  0  0
   62.4612   34.9468   51.2550 H   0  0  0  0  0  0  0  0  0  0  0  0
  1  2  3  0
  2  3  1  0
  3  4  2  0
  4  5  1  0
  5  6  1  0
  5  7  2  0
  7  8  1  0
  8  9  1  0
  9 10  2  0
 10 11  1  0
 11 12  2  3
 12 13  1  0
 13 14  1  0
 14 15  2  0
 15 16  1  0
 16 17  2  0
 17 18  1  0
 18 19  2  0
 19 20  1  0
 20 21  1  0
 20 22  2  0
 20 23  2  0
 11 24  1  0
 24 25  1  0
 25 26  1  0
 26 27  2  0
 26 28  1  0
 28 29  1  0
 29 30  1  0
 29 31  2  0
 29 32  2  0
 28 33  2  0
 33 34  1  0
 34 35  2  0
  7 36  1  0
 36 37  1  0
 36 38  2  0
 38  3  1  0
 35  9  1  0
 19 14  1  0
 35 25  1  0
  1 39  1  0
  4 40  1  0
  6 41  1  0
  6 42  1  0
  6 43  1  0
 13 44  1  0
 13 45  1  0
 15 46  1  0
 16 47  1  0
 17 48  1  0
 18 49  1  0
 21 50  1  0
 21 51  1  0
 30 52  1  0
 33 53  1  0
 37 54  1  0
 37 55  1  0
 37 56  1  0
 38 57  1  0
M  CHG  2  24  -1  30  -1
M  END
>  <UniqueID>  (74) 
68

>  <SMILES>  (74) 
C#Cc1cc(C)c(Oc2nc(=NCc3ccccc3S(N)(=O)=O)[n-]n3c(=O)c(S([NH-])(=O)=O)cnc23)c(C)c1

>  <Energy>  (74) 
70.51794418756886

>  <Genealogy>  (74) 
C#Cc1cc(C)c(Oc2nc(=NCc3ccccc3S(N)(=O)=O)[n-]n3c(=O)c(S([NH-])(=O)=O)cnc23)c(C)c1 (protonated)
C#Cc1cc(C)c(Oc2nc(=NCc3ccccc3S(N)(=O)=O)[n-]n3c(=O)c(S([NH-])(=O)=O)cnc23)c(C)c1 (3D coordinates assigned)
C#Cc1cc(C)c(Oc2nc(=NCc3ccccc3S(N)(=O)=O)[n-]n3c(=O)c(S([NH-])(=O)=O)cnc23)c(C)c1 (optimized conformer: 70.51794418756886 kcal/mol)

>  <smiles>  (74) 
C#Cc1cc(C)c(Oc2nc(=NCc3ccccc3S(N)(=O)=O)[nH]n3c(=O)c(S(N)(=O)=O)cnc23)c(C)c1

>  <score_type>  (74) 
oracle

>  <origin>  (74) 
adg

>  <m_score__min__energy>  (74) 
-11.31

>  <m_primary>  (74) 
energy

$$$$
74:0
     RDKit          3D

 59 60  0  0  0  0  0  0  0  0999 V2000
   58.1280   33.4340   47.0140 C   0  0  0  0  0  0  0  0  0  0  0  0
   57.8250   32.9560   45.9520 C   0  0  0  0  0  0  0  0  0  0  0  0
   57.4670   32.3670   44.6570 C   0  0  0  0  0  0  0  0  0  0  0  0
   56.2700   31.5480   44.7950 N   0  0  0  0  0  0  0  0  0  0  0  0
   56.2110   30.1680   44.4200 C   0  0  0  0  0  0  0  0  0  0  0  0
   55.1450   29.5090   44.5710 O   0  0  0  0  0  0  0  0  0  0  0  0
   57.4110   29.5120   43.8120 C   0  0  0  0  0  0  0  0  0  0  0  0
   58.1480   28.7080   44.8540 C   0  0  0  0  0  0  0  0  0  0  0  0
   58.6250   29.3390   45.9980 C   0  0  0  0  0  0  0  0  0  0  0  0
   59.2580   28.6070   46.9990 C   0  0  0  0  0  0  0  0  0  0  0  0
   59.6410   29.3140   48.2380 C   0  0  0  0  0  0  0  0  0  0  0  0
   59.2280   28.8620   49.3420 O   0  0  0  0  0  0  0  0  0  0  0  0
   60.4900   30.4840   48.2090 N   0  0  0  0  0  0  0  0  0  0  0  0
   60.5770   31.3510   49.3950 C   0  0  0  0  0  0  0  0  0  0  0  0
   61.3980   30.6790   50.4900 C   0  0  0  0  0  0  0  0  0  0  0  0
   61.3790   30.7450   47.0640 C   0  0  0  0  0  0  0  0  0  0  0  0
   62.4830   31.7200   47.4570 C   0  0  0  0  0  0  0  0  0  0  0  0
   59.4710   27.2190   46.8180 C   0  0  0  0  0  0  0  0  0  0  0  0
   60.2630   26.4490   47.8600 C   0  0  0  0  0  0  0  0  0  0  0  0
   58.9180   26.5810   45.7200 N   0  0  0  0  0  0  0  0  0  0  0  0
   58.9270   25.1000   45.6230 C   0  0  0  0  0  0  0  0  0  0  0  0
   57.5340   24.5730   45.3870 C   0  0  0  0  0  0  0  0  0  0  0  0
   56.4730   24.9830   46.2110 C   0  0  0  0  0  0  0  0  0  0  0  0
   55.1840   24.4830   46.0070 C   0  0  0  0  0  0  0  0  0  0  0  0
   54.9330   23.5720   44.9630 C   0  0  0  0  0  0  0  0  0  0  0  0
   53.6570   23.0410   44.7170 O   0  0  0  0  0  0  0  0  0  0  0  0
   52.4430   23.7730   44.8550 C   0  0  0  0  0  0  0  0  0  0  0  0
   55.9890   23.1760   44.1350 C   0  0  0  0  0  0  0  0  0  0  0  0
   57.2800   23.6730   44.3390 C   0  0  0  0  0  0  0  0  0  0  0  0
   58.2770   27.3130   44.7430 C   0  0  0  0  0  0  0  0  0  0  0  0
   57.7810   26.7370   43.7330 O   0  0  0  0  0  0  0  0  0  0  0  0
   58.4050   33.8709   47.9848 H   0  0  0  0  0  0  0  0  0  0  0  0
   57.2761   33.1714   43.9314 H   0  0  0  0  0  0  0  0  0  0  0  0
   58.2970   31.7364   44.3057 H   0  0  0  0  0  0  0  0  0  0  0  0
   57.0879   28.8447   42.9994 H   0  0  0  0  0  0  0  0  0  0  0  0
   58.0825   30.2879   43.4156 H   0  0  0  0  0  0  0  0  0  0  0  0
   58.5011   30.4259   46.1129 H   0  0  0  0  0  0  0  0  0  0  0  0
   61.0563   32.3006   49.1146 H   0  0  0  0  0  0  0  0  0  0  0  0
   59.5615   31.5359   49.7752 H   0  0  0  0  0  0  0  0  0  0  0  0
   61.0191   30.9892   51.4750 H   0  0  0  0  0  0  0  0  0  0  0  0
   61.3147   29.5865   50.3925 H   0  0  0  0  0  0  0  0  0  0  0  0
   62.4525   30.9765   50.3925 H   0  0  0  0  0  0  0  0  0  0  0  0
   61.8323   29.7985   46.7345 H   0  0  0  0  0  0  0  0  0  0  0  0
   60.7881   31.1866   46.2480 H   0  0  0  0  0  0  0  0  0  0  0  0
   62.5481   31.7775   48.5536 H   0  0  0  0  0  0  0  0  0  0  0  0
   63.4433   31.3698   47.0505 H   0  0  0  0  0  0  0  0  0  0  0  0
   62.2542   32.7162   47.0505 H   0  0  0  0  0  0  0  0  0  0  0  0
   59.9440   26.7591   48.8660 H   0  0  0  0  0  0  0  0  0  0  0  0
   60.0833   25.3711   47.7344 H   0  0  0  0  0  0  0  0  0  0  0  0
   61.3354   26.6590   47.7344 H   0  0  0  0  0  0  0  0  0  0  0  0
   59.5743   24.7968   44.7869 H   0  0  0  0  0  0  0  0  0  0  0  0
   59.3063   24.6859   46.5688 H   0  0  0  0  0  0  0  0  0  0  0  0
   56.6579   25.7024   47.0223 H   0  0  0  0  0  0  0  0  0  0  0  0
   54.3621   24.8024   46.6647 H   0  0  0  0  0  0  0  0  0  0  0  0
   52.2165   23.9096   45.9227 H   0  0  0  0  0  0  0  0  0  0  0  0
   52.5512   24.7565   44.3744 H   0  0  0  0  0  0  0  0  0  0  0  0
   51.6237   23.2182   44.3744 H   0  0  0  0  0  0  0  0  0  0  0  0
   55.8018   22.4666   43.3154 H   0  0  0  0  0  0  0  0  0  0  0  0
   58.0996   23.3580   43.6764 H   0  0  0  0  0  0  0  0  0  0  0  0
  1  2  3  0
  2  3  1  0
  3  4  1  0
  4  5  1  0
  5  6  2  0
  5  7  1  0
  7  8  1  0
  8  9  2  0
  9 10  1  0
 10 11  1  0
 11 12  2  0
 11 13  1  0
 13 14  1  0
 14 15  1  0
 13 16  1  0
 16 17  1  0
 10 18  2  0
 18 19  1  0
 18 20  1  0
 20 21  1  0
 21 22  1  0
 22 23  2  0
 23 24  1  0
 24 25  2  0
 25 26  1  0
 26 27  1  0
 25 28  1  0
 28 29  2  0
 20 30  1  0
 30 31  2  0
 30  8  1  0
 29 22  1  0
  1 32  1  0
  3 33  1  0
  3 34  1  0
  7 35  1  0
  7 36  1  0
  9 37  1  0
 14 38  1  0
 14 39  1  0
 15 40  1  0
 15 41  1  0
 15 42  1  0
 16 43  1  0
 16 44  1  0
 17 45  1  0
 17 46  1  0
 17 47  1  0
 19 48  1  0
 19 49  1  0
 19 50  1  0
 21 51  1  0
 21 52  1  0
 23 53  1  0
 24 54  1  0
 27 55  1  0
 27 56  1  0
 27 57  1  0
 28 58  1  0
 29 59  1  0
M  CHG  1   4  -1
M  END
>  <UniqueID>  (75) 
69

>  <SMILES>  (75) 
C#CC[N-]C(=O)Cc1cc(C(=O)N(CC)CC)c(C)n(Cc2ccc(OC)cc2)c1=O

>  <Energy>  (75) 
56.758553801034914

>  <Genealogy>  (75) 
C#CC[N-]C(=O)Cc1cc(C(=O)N(CC)CC)c(C)n(Cc2ccc(OC)cc2)c1=O (protonated)
C#CC[N-]C(=O)Cc1cc(C(=O)N(CC)CC)c(C)n(Cc2ccc(OC)cc2)c1=O (3D coordinates assigned)
C#CC[N-]C(=O)Cc1cc(C(=O)N(CC)CC)c(C)n(Cc2ccc(OC)cc2)c1=O (optimized conformer: 56.758553801034914 kcal/mol)

>  <smiles>  (75) 
C#CCNC(=O)Cc1cc(C(=O)N(CC)CC)c(C)n(Cc2ccc(OC)cc2)c1=O

>  <score_type>  (75) 
oracle

>  <origin>  (75) 
adg

>  <m_score__min__energy>  (75) 
-9.0199999999999996

>  <m_primary>  (75) 
energy

$$$$
75:0
     RDKit          3D

 50 52  0  0  0  0  0  0  0  0999 V2000
   55.1350   22.0360   46.4910 C   0  0  0  0  0  0  0  0  0  0  0  0
   54.4590   23.2820   45.4180 S   0  0  0  0  0  0  0  0  0  0  0  0
   55.1540   23.2140   44.0860 O   0  0  0  0  0  0  0  0  0  0  0  0
   52.9880   23.0320   45.2420 O   0  0  0  0  0  0  0  0  0  0  0  0
   54.7120   24.8390   46.1350 N   0  0  0  0  0  0  0  0  0  0  0  0
   55.9920   25.4450   46.3620 C   0  0  0  0  0  0  0  0  0  0  0  0
   56.9260   24.9040   47.2630 C   0  0  0  0  0  0  0  0  0  0  0  0
   58.1540   25.5390   47.4670 C   0  0  0  0  0  0  0  0  0  0  0  0
   58.4640   26.7100   46.7710 C   0  0  0  0  0  0  0  0  0  0  0  0
   57.5530   27.2500   45.8520 C   0  0  0  0  0  0  0  0  0  0  0  0
   57.8870   28.4650   45.1590 N   0  0  0  0  0  0  0  0  0  0  0  0
   56.9950   29.5860   45.0400 C   0  0  0  0  0  0  0  0  0  0  0  0
   55.7540   29.4190   45.2020 O   0  0  0  0  0  0  0  0  0  0  0  0
   57.5080   30.9250   44.6700 C   0  0  0  0  0  0  0  0  0  0  0  0
   57.4120   31.3810   43.3430 C   0  0  0  0  0  0  0  0  0  0  0  0
   57.9110   32.6360   42.9880 C   0  0  0  0  0  0  0  0  0  0  0  0
   58.5020   33.4550   43.9530 C   0  0  0  0  0  0  0  0  0  0  0  0
   58.5860   33.0270   45.2830 C   0  0  0  0  0  0  0  0  0  0  0  0
   59.3360   34.0590   46.4990 S   0  0  0  0  0  0  0  0  0  0  0  0
   59.2590   35.4910   46.0490 O   0  0  0  0  0  0  0  0  0  0  0  0
   58.5980   33.9330   47.8040 O   0  0  0  0  0  0  0  0  0  0  0  0
   61.0030   33.6260   46.7220 N   0  0  0  0  0  0  0  0  0  0  0  0
   61.2110   33.1260   48.0790 C   0  0  0  0  0  0  0  0  0  0  0  0
   60.5990   31.7600   48.2000 C   0  0  0  0  0  0  0  0  0  0  0  0
   60.9020   30.7610   47.2600 C   0  0  0  0  0  0  0  0  0  0  0  0
   60.3080   29.4980   47.3580 C   0  0  0  0  0  0  0  0  0  0  0  0
   59.4000   29.2300   48.3870 C   0  0  0  0  0  0  0  0  0  0  0  0
   59.0810   30.2250   49.3160 C   0  0  0  0  0  0  0  0  0  0  0  0
   59.6740   31.4880   49.2210 C   0  0  0  0  0  0  0  0  0  0  0  0
   58.0890   31.7650   45.6390 C   0  0  0  0  0  0  0  0  0  0  0  0
   56.3110   26.6190   45.6650 C   0  0  0  0  0  0  0  0  0  0  0  0
   54.9759   22.3292   47.5392 H   0  0  0  0  0  0  0  0  0  0  0  0
   54.6342   21.0756   46.2988 H   0  0  0  0  0  0  0  0  0  0  0  0
   56.2131   21.9322   46.2988 H   0  0  0  0  0  0  0  0  0  0  0  0
   56.6895   23.9786   47.8087 H   0  0  0  0  0  0  0  0  0  0  0  0
   58.8788   25.1155   48.1778 H   0  0  0  0  0  0  0  0  0  0  0  0
   59.4277   27.2110   46.9448 H   0  0  0  0  0  0  0  0  0  0  0  0
   58.7760   28.4850   44.6090 H   0  0  0  0  0  0  0  0  0  0  0  0
   56.9406   30.7447   42.5795 H   0  0  0  0  0  0  0  0  0  0  0  0
   57.8385   32.9805   41.9459 H   0  0  0  0  0  0  0  0  0  0  0  0
   58.9024   34.4388   43.6670 H   0  0  0  0  0  0  0  0  0  0  0  0
   62.2893   33.0661   48.2880 H   0  0  0  0  0  0  0  0  0  0  0  0
   60.7388   33.8083   48.8012 H   0  0  0  0  0  0  0  0  0  0  0  0
   61.6087   30.9724   46.4440 H   0  0  0  0  0  0  0  0  0  0  0  0
   60.5554   28.7157   46.6254 H   0  0  0  0  0  0  0  0  0  0  0  0
   58.9363   28.2356   48.4657 H   0  0  0  0  0  0  0  0  0  0  0  0
   58.3630   30.0142   50.1223 H   0  0  0  0  0  0  0  0  0  0  0  0
   59.4149   32.2712   49.9487 H   0  0  0  0  0  0  0  0  0  0  0  0
   58.1536   31.4285   46.6843 H   0  0  0  0  0  0  0  0  0  0  0  0
   55.5814   27.0509   44.9642 H   0  0  0  0  0  0  0  0  0  0  0  0
  1  2  1  0
  2  3  2  0
  2  4  2  0
  2  5  1  0
  5  6  1  0
  6  7  2  0
  7  8  1  0
  8  9  2  0
  9 10  1  0
 10 11  1  0
 11 12  1  0
 12 13  2  0
 12 14  1  0
 14 15  2  0
 15 16  1  0
 16 17  2  0
 17 18  1  0
 18 19  1  0
 19 20  2  0
 19 21  2  0
 19 22  1  0
 22 23  1  0
 23 24  1  0
 24 25  2  0
 25 26  1  0
 26 27  2  0
 27 28  1  0
 28 29  2  0
 18 30  2  0
 10 31  2  0
 31  6  1  0
 30 14  1  0
 29 24  1  0
  1 32  1  0
  1 33  1  0
  1 34  1  0
  7 35  1  0
  8 36  1  0
  9 37  1  0
 11 38  1  0
 15 39  1  0
 16 40  1  0
 17 41  1  0
 23 42  1  0
 23 43  1  0
 25 44  1  0
 26 45  1  0
 27 46  1  0
 28 47  1  0
 29 48  1  0
 30 49  1  0
 31 50  1  0
M  CHG  2   5  -1  22  -1
M  END
>  <UniqueID>  (76) 
70

>  <SMILES>  (76) 
CS(=O)(=O)[N-]c1cccc(NC(=O)c2cccc(S(=O)(=O)[N-]Cc3ccccc3)c2)c1

>  <Energy>  (76) 
54.395872617702196

>  <Genealogy>  (76) 
CS(=O)(=O)[N-]c1cccc(NC(=O)c2cccc(S(=O)(=O)[N-]Cc3ccccc3)c2)c1 (protonated)
CS(=O)(=O)[N-]c1cccc(NC(=O)c2cccc(S(=O)(=O)[N-]Cc3ccccc3)c2)c1 (3D coordinates assigned)
CS(=O)(=O)[N-]c1cccc(NC(=O)c2cccc(S(=O)(=O)[N-]Cc3ccccc3)c2)c1 (optimized conformer: 54.395872617702196 kcal/mol)

>  <smiles>  (76) 
CS(=O)(=O)Nc1cccc(NC(=O)c2cccc(S(=O)(=O)NCc3ccccc3)c2)c1

>  <score_type>  (76) 
oracle

>  <origin>  (76) 
adg

>  <m_score__min__energy>  (76) 
-12.210000000000001

>  <m_primary>  (76) 
energy

$$$$
76:0
     RDKit          3D

 38 41  0  0  0  0  0  0  0  0999 V2000
   58.9710   31.5240   49.2480 H   0  0  0  0  0  0  0  0  0  0  0  0
   59.4050   30.6180   49.1240 O   0  0  0  0  0  0  0  0  0  0  0  0
   59.3240   29.9290   47.9130 C   0  0  0  0  0  0  0  0  0  0  0  0
   58.4570   28.8360   47.7840 C   0  0  0  0  0  0  0  0  0  0  0  0
   57.8474   28.5197   48.6432 H   0  0  0  0  0  0  0  0  0  0  0  0
   58.3590   28.1400   46.5670 C   0  0  0  0  0  0  0  0  0  0  0  0
   57.4360   26.9900   46.4320 C   0  0  0  0  0  0  0  0  0  0  0  0
   57.7750   25.7240   46.7570 N   0  0  0  0  0  0  0  0  0  0  0  0
   56.6700   25.0100   46.4860 C   0  0  0  0  0  0  0  0  0  0  0  0
   56.5633   23.9242   46.6259 H   0  0  0  0  0  0  0  0  0  0  0  0
   55.6950   25.8490   46.0070 C   0  0  0  0  0  0  0  0  0  0  0  0
   54.6839   25.5418   45.7017 H   0  0  0  0  0  0  0  0  0  0  0  0
   56.1710   27.1050   45.9700 N   0  0  0  0  0  0  0  0  0  0  0  0
   59.1490   28.5480   45.4810 C   0  0  0  0  0  0  0  0  0  0  0  0
   59.0858   28.0068   44.5254 H   0  0  0  0  0  0  0  0  0  0  0  0
   60.0150   29.6370   45.6060 C   0  0  0  0  0  0  0  0  0  0  0  0
   60.6345   29.9432   44.7502 H   0  0  0  0  0  0  0  0  0  0  0  0
   60.1000   30.3420   46.8140 C   0  0  0  0  0  0  0  0  0  0  0  0
   61.0100   31.5010   46.9290 C   0  0  0  0  0  0  0  0  0  0  0  0
   62.3780   31.2560   47.1350 C   0  0  0  0  0  0  0  0  0  0  0  0
   62.7409   30.2208   47.2165 H   0  0  0  0  0  0  0  0  0  0  0  0
   63.2800   32.3160   47.2370 C   0  0  0  0  0  0  0  0  0  0  0  0
   64.3490   32.1134   47.3990 H   0  0  0  0  0  0  0  0  0  0  0  0
   62.8290   33.6310   47.1340 C   0  0  0  0  0  0  0  0  0  0  0  0
   63.5434   34.4641   47.2079 H   0  0  0  0  0  0  0  0  0  0  0  0
   61.4710   33.8920   46.9370 C   0  0  0  0  0  0  0  0  0  0  0  0
   61.1224   34.9322   46.8562 H   0  0  0  0  0  0  0  0  0  0  0  0
   60.5460   32.8390   46.8410 C   0  0  0  0  0  0  0  0  0  0  0  0
   58.8300   33.2380   46.6410 S   0  0  0  0  0  0  0  0  0  0  0  0
   58.6000   34.6500   47.0980 O   0  0  0  0  0  0  0  0  0  0  0  0
   57.9790   32.3190   47.4730 O   0  0  0  0  0  0  0  0  0  0  0  0
   58.3410   33.0910   44.9830 N   0  0  0  0  0  0  0  0  0  0  0  0
   57.7240   32.0590   44.4950 C   0  0  0  0  0  0  0  0  0  0  0  0
   57.0200   31.1940   45.2490 N   0  0  0  0  0  0  0  0  0  0  0  0
   56.4500   30.2140   44.4800 C   0  0  0  0  0  0  0  0  0  0  0  0
   55.8385   29.4183   44.9306 H   0  0  0  0  0  0  0  0  0  0  0  0
   56.6690   30.2620   43.1360 N   0  0  0  0  0  0  0  0  0  0  0  0
   57.6270   31.6000   42.8980 S   0  0  0  0  0  0  0  0  0  0  0  0
  1  2  1  0
  2  3  1  0
  3  4  2  0
  4  5  1  0
  4  6  1  0
  6  7  1  0
  7  8  2  0
  8  9  1  0
  9 10  1  0
  9 11  2  0
 11 12  1  0
 11 13  1  0
  6 14  2  0
 14 15  1  0
 14 16  1  0
 16 17  1  0
 16 18  2  0
 18 19  1  0
 19 20  2  0
 20 21  1  0
 20 22  1  0
 22 23  1  0
 22 24  2  0
 24 25  1  0
 24 26  1  0
 26 27  1  0
 26 28  2  0
 28 29  1  0
 29 30  2  0
 29 31  2  0
 29 32  1  0
 32 33  2  0
 33 34  1  0
 34 35  1  0
 35 36  1  0
 35 37  2  0
 37 38  1  0
 18  3  1  0
 28 19  1  0
 38 33  1  0
 13  7  1  0
M  CHG  2  13  -1  34  -1
M  END
>  <UniqueID>  (77) 
71

>  <SMILES>  (77) 
O=S(=O)(/N=c1/[n-]cns1)c1ccccc1-c1ccc(-c2ncc[n-]2)cc1O

>  <Energy>  (77) 
118.27376622571366

>  <Genealogy>  (77) 
O=S(=O)(N=c1[n-]cns1)c1ccccc1-c1ccc(-c2ncc[n-]2)cc1O (protonated)
O=S(=O)(/N=c1/[n-]cns1)c1ccccc1-c1ccc(-c2ncc[n-]2)cc1O (cis-trans isomerization)
O=S(=O)(/N=c1/[n-]cns1)c1ccccc1-c1ccc(-c2ncc[n-]2)cc1O (3D coordinates assigned)
O=S(=O)(/N=c1/[n-]cns1)c1ccccc1-c1ccc(-c2ncc[n-]2)cc1O (optimized conformer: 118.27376622571366 kcal/mol)

>  <smiles>  (77) 
O=S(=O)(N=c1[nH]cns1)c1ccccc1-c1ccc(-c2ncc[nH]2)cc1O

>  <score_type>  (77) 
oracle

>  <origin>  (77) 
adg

>  <m_score__min__energy>  (77) 
-10.65

>  <m_primary>  (77) 
energy

$$$$
77:0
     RDKit          3D

 40 41  0  0  0  0  0  0  0  0999 V2000
   59.7000   26.6180   46.3390 O   0  0  0  0  0  0  0  0  0  0  0  0
   58.4640   26.3900   46.2490 C   0  0  0  0  0  0  0  0  0  0  0  0
   57.7950   25.5540   47.2920 C   0  0  0  0  0  0  0  0  0  0  0  0
   56.3490   25.6600   47.1400 N   0  0  0  0  0  0  0  0  0  0  0  0
   55.6150   25.2180   45.9910 C   0  0  0  0  0  0  0  0  0  0  0  0
   54.6100   25.8820   45.6230 O   0  0  0  0  0  0  0  0  0  0  0  0
   56.0190   24.0320   45.2110 C   0  0  0  0  0  0  0  0  0  0  0  0
   56.0900   24.0930   43.8090 C   0  0  0  0  0  0  0  0  0  0  0  0
   56.4880   22.9740   43.0720 C   0  0  0  0  0  0  0  0  0  0  0  0
   56.8300   21.7890   43.7280 C   0  0  0  0  0  0  0  0  0  0  0  0
   56.7820   21.7240   45.1230 C   0  0  0  0  0  0  0  0  0  0  0  0
   56.3840   22.8420   45.8660 C   0  0  0  0  0  0  0  0  0  0  0  0
   56.3370   22.7560   47.2190 F   0  0  0  0  0  0  0  0  0  0  0  0
   57.6850   26.9580   45.1830 N   0  0  0  0  0  0  0  0  0  0  0  0
   58.2270   27.7900   44.1440 C   0  0  0  0  0  0  0  0  0  0  0  0
   59.4550   28.0800   44.1290 O   0  0  0  0  0  0  0  0  0  0  0  0
   57.3600   28.3320   43.1340 N   0  0  0  0  0  0  0  0  0  0  0  0
   56.4660   29.3320   43.7310 C   0  0  0  0  0  0  0  0  0  0  0  0
   57.2070   30.6230   43.9700 C   0  0  0  0  0  0  0  0  0  0  0  0
   57.4320   31.5170   42.9100 C   0  0  0  0  0  0  0  0  0  0  0  0
   58.0900   32.7300   43.1400 C   0  0  0  0  0  0  0  0  0  0  0  0
   58.5140   33.0630   44.4300 C   0  0  0  0  0  0  0  0  0  0  0  0
   58.2780   32.1850   45.4920 C   0  0  0  0  0  0  0  0  0  0  0  0
   57.6220   30.9720   45.2650 C   0  0  0  0  0  0  0  0  0  0  0  0
   58.1010   24.5041   47.1733 H   0  0  0  0  0  0  0  0  0  0  0  0
   58.0874   25.9082   48.2915 H   0  0  0  0  0  0  0  0  0  0  0  0
   55.8309   25.0267   43.2884 H   0  0  0  0  0  0  0  0  0  0  0  0
   56.5320   23.0265   41.9741 H   0  0  0  0  0  0  0  0  0  0  0  0
   57.1370   20.9072   43.1465 H   0  0  0  0  0  0  0  0  0  0  0  0
   57.0576   20.7923   45.6387 H   0  0  0  0  0  0  0  0  0  0  0  0
   56.6590   26.7610   45.1670 H   0  0  0  0  0  0  0  0  0  0  0  0
   57.9390   28.7750   42.3820 H   0  0  0  0  0  0  0  0  0  0  0  0
   56.7980   27.5550   42.7130 H   0  0  0  0  0  0  0  0  0  0  0  0
   55.6236   29.5185   43.0486 H   0  0  0  0  0  0  0  0  0  0  0  0
   56.0951   28.9499   44.6935 H   0  0  0  0  0  0  0  0  0  0  0  0
   57.0898   31.2625   41.8960 H   0  0  0  0  0  0  0  0  0  0  0  0
   58.2739   33.4223   42.3052 H   0  0  0  0  0  0  0  0  0  0  0  0
   59.0333   34.0160   44.6093 H   0  0  0  0  0  0  0  0  0  0  0  0
   58.6089   32.4491   46.5072 H   0  0  0  0  0  0  0  0  0  0  0  0
   57.4300   30.2878   46.1046 H   0  0  0  0  0  0  0  0  0  0  0  0
  1  2  2  0
  2  3  1  0
  3  4  1  0
  4  5  1  0
  5  6  2  0
  5  7  1  0
  7  8  2  0
  8  9  1  0
  9 10  2  0
 10 11  1  0
 11 12  2  0
 12 13  1  0
  2 14  1  0
 14 15  1  0
 15 16  2  0
 15 17  1  0
 17 18  1  0
 18 19  1  0
 19 20  2  0
 20 21  1  0
 21 22  2  0
 22 23  1  0
 23 24  2  0
 12  7  1  0
 24 19  1  0
  3 25  1  0
  3 26  1  0
  8 27  1  0
  9 28  1  0
 10 29  1  0
 11 30  1  0
 14 31  1  0
 17 32  1  0
 17 33  1  0
 18 34  1  0
 18 35  1  0
 20 36  1  0
 21 37  1  0
 22 38  1  0
 23 39  1  0
 24 40  1  0
M  CHG  2   4  -1  17   1
M  END
>  <UniqueID>  (78) 
72

>  <SMILES>  (78) 
O=C(C[N-]C(=O)c1ccccc1F)NC(=O)[NH2+]Cc1ccccc1

>  <Energy>  (78) 
42.02428009813611

>  <Genealogy>  (78) 
O=C(C[N-]C(=O)c1ccccc1F)NC(=O)[NH2+]Cc1ccccc1 (protonated)
O=C(C[N-]C(=O)c1ccccc1F)NC(=O)[NH2+]Cc1ccccc1 (3D coordinates assigned)
O=C(C[N-]C(=O)c1ccccc1F)NC(=O)[NH2+]Cc1ccccc1 (optimized conformer: 42.02428009813611 kcal/mol)

>  <smiles>  (78) 
O=C(CNC(=O)c1ccccc1F)NC(=O)NCc1ccccc1

>  <score_type>  (78) 
oracle

>  <origin>  (78) 
adg

>  <m_score__min__energy>  (78) 
-9.1999999999999993

>  <m_primary>  (78) 
energy

$$$$
78:0
     RDKit          3D

 46 48  0  0  0  0  0  0  0  0999 V2000
   60.4760   34.1610   53.4960 C   0  0  0  0  0  0  0  0  0  0  0  0
   59.8370   33.4500   52.3360 C   0  0  0  0  0  0  0  0  0  0  0  0
   60.5420   33.2700   51.1410 C   0  0  0  0  0  0  0  0  0  0  0  0
   59.9670   32.6420   50.0710 N   0  0  0  0  0  0  0  0  0  0  0  0
   60.7470   32.5240   48.8270 C   0  0  0  0  0  0  0  0  0  0  0  0
   60.0480   33.2420   47.6980 C   0  0  0  0  0  0  0  0  0  0  0  0
   60.0250   34.6460   47.6700 C   0  0  0  0  0  0  0  0  0  0  0  0
   59.4120   35.3220   46.6120 C   0  0  0  0  0  0  0  0  0  0  0  0
   58.8210   34.6040   45.5710 C   0  0  0  0  0  0  0  0  0  0  0  0
   58.8420   33.2070   45.5860 C   0  0  0  0  0  0  0  0  0  0  0  0
   59.4550   32.5240   46.6410 C   0  0  0  0  0  0  0  0  0  0  0  0
   59.4630   31.1670   46.6310 F   0  0  0  0  0  0  0  0  0  0  0  0
   58.6780   32.1750   50.1490 C   0  0  0  0  0  0  0  0  0  0  0  0
   58.1380   31.6500   49.1370 O   0  0  0  0  0  0  0  0  0  0  0  0
   57.9440   32.2980   51.3470 C   0  0  0  0  0  0  0  0  0  0  0  0
   56.6140   31.7720   51.4880 N   0  0  0  0  0  0  0  0  0  0  0  0
   56.1580   30.4750   52.5470 S   0  0  0  0  0  0  0  0  0  0  0  0
   56.6990   29.1830   52.0040 O   0  0  0  0  0  0  0  0  0  0  0  0
   56.7390   30.7210   53.9120 O   0  0  0  0  0  0  0  0  0  0  0  0
   54.4010   30.3540   52.6260 C   0  0  0  0  0  0  0  0  0  0  0  0
   53.7910   29.3000   53.3150 C   0  0  0  0  0  0  0  0  0  0  0  0
   52.4000   29.2230   53.3870 C   0  0  0  0  0  0  0  0  0  0  0  0
   51.6030   30.1970   52.7760 C   0  0  0  0  0  0  0  0  0  0  0  0
   50.2210   30.0850   52.8790 O   0  0  0  0  0  0  0  0  0  0  0  0
   52.2020   31.2690   52.0750 C   0  0  0  0  0  0  0  0  0  0  0  0
   51.3890   32.3300   51.4200 C   0  0  0  0  0  0  0  0  0  0  0  0
   51.0310   32.2180   50.0440 N   0  0  0  0  0  0  0  0  0  0  0  0
   51.0080   33.3400   52.0680 O   0  0  0  0  0  0  0  0  0  0  0  0
   53.6080   31.3270   52.0030 C   0  0  0  0  0  0  0  0  0  0  0  0
   58.5280   32.9640   52.4370 C   0  0  0  0  0  0  0  0  0  0  0  0
   57.8250   33.1390   53.6320 O   0  0  0  0  0  0  0  0  0  0  0  0
   60.0969   33.7392   54.4385 H   0  0  0  0  0  0  0  0  0  0  0  0
   61.5674   34.0317   53.4492 H   0  0  0  0  0  0  0  0  0  0  0  0
   60.2314   35.2324   53.4492 H   0  0  0  0  0  0  0  0  0  0  0  0
   61.5750   33.6394   51.0609 H   0  0  0  0  0  0  0  0  0  0  0  0
   61.7414   32.9690   48.9790 H   0  0  0  0  0  0  0  0  0  0  0  0
   60.8451   31.4597   48.5668 H   0  0  0  0  0  0  0  0  0  0  0  0
   60.4924   35.2168   48.4859 H   0  0  0  0  0  0  0  0  0  0  0  0
   59.3951   36.4218   46.5994 H   0  0  0  0  0  0  0  0  0  0  0  0
   58.3388   35.1380   44.7389 H   0  0  0  0  0  0  0  0  0  0  0  0
   58.3749   32.6428   44.7654 H   0  0  0  0  0  0  0  0  0  0  0  0
   54.4094   28.5308   53.8007 H   0  0  0  0  0  0  0  0  0  0  0  0
   51.9264   28.3905   53.9280 H   0  0  0  0  0  0  0  0  0  0  0  0
   50.0430   32.3490   49.7330 H   0  0  0  0  0  0  0  0  0  0  0  0
   54.0896   32.1471   51.4503 H   0  0  0  0  0  0  0  0  0  0  0  0
   56.9890   32.6140   53.8550 H   0  0  0  0  0  0  0  0  0  0  0  0
  1  2  1  0
  2  3  2  0
  3  4  1  0
  4  5  1  0
  5  6  1  0
  6  7  2  0
  7  8  1  0
  8  9  2  0
  9 10  1  0
 10 11  2  0
 11 12  1  0
  4 13  1  0
 13 14  2  0
 13 15  1  0
 15 16  1  0
 16 17  1  0
 17 18  2  0
 17 19  2  0
 17 20  1  0
 20 21  2  0
 21 22  1  0
 22 23  2  0
 23 24  1  0
 23 25  1  0
 25 26  1  0
 26 27  1  0
 26 28  2  0
 25 29  2  0
 15 30  2  0
 30 31  1  0
 30  2  1  0
 11  6  1  0
 29 20  1  0
  1 32  1  0
  1 33  1  0
  1 34  1  0
  3 35  1  0
  5 36  1  0
  5 37  1  0
  7 38  1  0
  8 39  1  0
  9 40  1  0
 10 41  1  0
 21 42  1  0
 22 43  1  0
 27 44  1  0
 29 45  1  0
 31 46  1  0
M  CHG  3  16  -1  24  -1  27  -1
M  END
>  <UniqueID>  (79) 
73

>  <SMILES>  (79) 
Cc1cn(Cc2ccccc2F)c(=O)c([N-]S(=O)(=O)c2ccc([O-])c(C([NH-])=O)c2)c1O

>  <Energy>  (79) 
59.4348179916111

>  <Genealogy>  (79) 
Cc1cn(Cc2ccccc2F)c(=O)c([N-]S(=O)(=O)c2ccc([O-])c(C([NH-])=O)c2)c1O (protonated)
Cc1cn(Cc2ccccc2F)c(=O)c([N-]S(=O)(=O)c2ccc([O-])c(C([NH-])=O)c2)c1O (3D coordinates assigned)
Cc1cn(Cc2ccccc2F)c(=O)c([N-]S(=O)(=O)c2ccc([O-])c(C([NH-])=O)c2)c1O (optimized conformer: 59.4348179916111 kcal/mol)

>  <smiles>  (79) 
Cc1cn(Cc2ccccc2F)c(=O)c(NS(=O)(=O)c2ccc(O)c(C(N)=O)c2)c1O

>  <score_type>  (79) 
oracle

>  <origin>  (79) 
adg

>  <m_score__min__energy>  (79) 
-15.65

>  <m_primary>  (79) 
energy

$$$$
79:0
     RDKit          3D

 48 50  0  0  0  0  0  0  0  0999 V2000
   50.2470   23.9620   44.1810 C   0  0  0  0  0  0  0  0  0  0  0  0
   51.5550   23.4440   44.6850 C   0  0  0  0  0  0  0  0  0  0  0  0
   51.6460   22.2430   45.0570 O   0  0  0  0  0  0  0  0  0  0  0  0
   52.6940   24.3130   44.7350 N   0  0  0  0  0  0  0  0  0  0  0  0
   53.8880   24.0290   45.4770 C   0  0  0  0  0  0  0  0  0  0  0  0
   54.5330   22.4840   45.6590 S   0  0  0  0  0  0  0  0  0  0  0  0
   55.9330   23.0560   46.3920 C   0  0  0  0  0  0  0  0  0  0  0  0
   56.8800   22.3180   46.7700 O   0  0  0  0  0  0  0  0  0  0  0  0
   55.9420   24.4090   46.4950 N   0  0  0  0  0  0  0  0  0  0  0  0
   57.0980   25.1990   46.9390 C   0  0  0  0  0  0  0  0  0  0  0  0
   58.2690   24.9830   46.0230 C   0  0  0  0  0  0  0  0  0  0  0  0
   59.0600   24.0280   46.2420 O   0  0  0  0  0  0  0  0  0  0  0  0
   58.4450   25.8350   44.8860 N   0  0  0  0  0  0  0  0  0  0  0  0
   58.8270   27.2180   44.8730 C   0  0  0  0  0  0  0  0  0  0  0  0
   60.0800   27.6630   45.3320 C   0  0  0  0  0  0  0  0  0  0  0  0
   60.3570   29.0320   45.3980 C   0  0  0  0  0  0  0  0  0  0  0  0
   59.3790   29.9640   45.0420 C   0  0  0  0  0  0  0  0  0  0  0  0
   58.1210   29.5310   44.6070 C   0  0  0  0  0  0  0  0  0  0  0  0
   56.8400   30.6960   44.2630 S   0  0  0  0  0  0  0  0  0  0  0  0
   55.5470   30.1870   44.8360 O   0  0  0  0  0  0  0  0  0  0  0  0
   56.6720   30.8270   42.7750 O   0  0  0  0  0  0  0  0  0  0  0  0
   57.1980   32.2650   44.9450 N   0  0  0  0  0  0  0  0  0  0  0  0
   57.7700   32.1290   46.2930 C   0  0  0  0  0  0  0  0  0  0  0  0
   58.0240   33.5270   46.8950 C   0  0  0  0  0  0  0  0  0  0  0  0
   57.8980   34.5620   45.9350 O   0  0  0  0  0  0  0  0  0  0  0  0
   58.6720   34.2570   44.7920 C   0  0  0  0  0  0  0  0  0  0  0  0
   58.1250   33.0080   44.0720 C   0  0  0  0  0  0  0  0  0  0  0  0
   57.8610   28.1590   44.5030 C   0  0  0  0  0  0  0  0  0  0  0  0
   54.8090   24.9580   45.9660 C   0  0  0  0  0  0  0  0  0  0  0  0
   54.6360   26.3340   45.8600 O   0  0  0  0  0  0  0  0  0  0  0  0
   49.6009   24.2179   45.0337 H   0  0  0  0  0  0  0  0  0  0  0  0
   50.4194   24.8598   43.5692 H   0  0  0  0  0  0  0  0  0  0  0  0
   49.7580   23.1897   43.5692 H   0  0  0  0  0  0  0  0  0  0  0  0
   52.6840   25.1760   44.1450 H   0  0  0  0  0  0  0  0  0  0  0  0
   56.8293   26.2657   46.9369 H   0  0  0  0  0  0  0  0  0  0  0  0
   57.3776   24.8792   47.9537 H   0  0  0  0  0  0  0  0  0  0  0  0
   60.8431   26.9329   45.6395 H   0  0  0  0  0  0  0  0  0  0  0  0
   61.3473   29.3760   45.7310 H   0  0  0  0  0  0  0  0  0  0  0  0
   59.5980   31.0402   45.1037 H   0  0  0  0  0  0  0  0  0  0  0  0
   57.0670   31.5772   46.9343 H   0  0  0  0  0  0  0  0  0  0  0  0
   58.7219   31.5813   46.2307 H   0  0  0  0  0  0  0  0  0  0  0  0
   57.2954   33.7021   47.7003 H   0  0  0  0  0  0  0  0  0  0  0  0
   59.0568   33.5456   47.2732 H   0  0  0  0  0  0  0  0  0  0  0  0
   58.6446   35.1119   44.1003 H   0  0  0  0  0  0  0  0  0  0  0  0
   59.7046   34.0533   45.1119 H   0  0  0  0  0  0  0  0  0  0  0  0
   57.5914   33.3207   43.1624 H   0  0  0  0  0  0  0  0  0  0  0  0
   58.9691   32.3516   43.8139 H   0  0  0  0  0  0  0  0  0  0  0  0
   56.8857   27.8175   44.1259 H   0  0  0  0  0  0  0  0  0  0  0  0
  1  2  1  0
  2  3  2  0
  2  4  1  0
  4  5  1  0
  5  6  1  0
  6  7  1  0
  7  8  2  0
  7  9  1  0
  9 10  1  0
 10 11  1  0
 11 12  2  0
 11 13  1  0
 13 14  1  0
 14 15  2  0
 15 16  1  0
 16 17  2  0
 17 18  1  0
 18 19  1  0
 19 20  2  0
 19 21  2  0
 19 22  1  0
 22 23  1  0
 23 24  1  0
 24 25  1  0
 25 26  1  0
 26 27  1  0
 18 28  2  0
  9 29  1  0
 29 30  1  0
 29  5  2  0
 28 14  1  0
 27 22  1  0
  1 31  1  0
  1 32  1  0
  1 33  1  0
  4 34  1  0
 10 35  1  0
 10 36  1  0
 15 37  1  0
 16 38  1  0
 17 39  1  0
 23 40  1  0
 23 41  1  0
 24 42  1  0
 24 43  1  0
 26 44  1  0
 26 45  1  0
 27 46  1  0
 27 47  1  0
 28 48  1  0
M  CHG  2  13  -1  30  -1
M  END
>  <UniqueID>  (80) 
74

>  <SMILES>  (80) 
CC(=O)Nc1sc(=O)n(CC(=O)[N-]c2cccc(S(=O)(=O)N3CCOCC3)c2)c1[O-]

>  <Energy>  (80) 
92.43222672556904

>  <Genealogy>  (80) 
CC(=O)Nc1sc(=O)n(CC(=O)[N-]c2cccc(S(=O)(=O)N3CCOCC3)c2)c1[O-] (protonated)
CC(=O)Nc1sc(=O)n(CC(=O)[N-]c2cccc(S(=O)(=O)N3CCOCC3)c2)c1[O-] (3D coordinates assigned)
CC(=O)Nc1sc(=O)n(CC(=O)[N-]c2cccc(S(=O)(=O)N3CCOCC3)c2)c1[O-] (nonaromatic ring conformer: 92.43222672556904 kcal/mol)

>  <smiles>  (80) 
CC(=O)Nc1sc(=O)n(CC(=O)Nc2cccc(S(=O)(=O)N3CCOCC3)c2)c1O

>  <score_type>  (80) 
oracle

>  <origin>  (80) 
adg

>  <m_score__min__energy>  (80) 
-14.35

>  <m_primary>  (80) 
energy

$$$$
80:0
     RDKit          3D

 45 47  0  0  0  0  0  0  0  0999 V2000
   57.7150   31.8280   42.4070 O   0  0  0  0  0  0  0  0  0  0  0  0
   57.2890   31.2620   43.4490 C   0  0  0  0  0  0  0  0  0  0  0  0
   56.9400   29.8090   43.4150 C   0  0  0  0  0  0  0  0  0  0  0  0
   55.9220   29.3470   44.8610 S   0  0  0  0  0  0  0  0  0  0  0  0
   57.0010   28.0100   45.4050 C   0  0  0  0  0  0  0  0  0  0  0  0
   58.3890   28.1970   45.3290 C   0  0  0  0  0  0  0  0  0  0  0  0
   59.2620   27.1730   45.7040 C   0  0  0  0  0  0  0  0  0  0  0  0
   58.7530   25.9600   46.1730 C   0  0  0  0  0  0  0  0  0  0  0  0
   57.3720   25.7720   46.2720 C   0  0  0  0  0  0  0  0  0  0  0  0
   56.4880   26.7910   45.8940 C   0  0  0  0  0  0  0  0  0  0  0  0
   55.1160   26.5610   46.0090 O   0  0  0  0  0  0  0  0  0  0  0  0
   57.1420   31.9900   44.6750 N   0  0  0  0  0  0  0  0  0  0  0  0
   58.0180   33.0070   45.1810 C   0  0  0  0  0  0  0  0  0  0  0  0
   58.2030   34.2320   44.5150 C   0  0  0  0  0  0  0  0  0  0  0  0
   59.0260   35.2150   45.0690 C   0  0  0  0  0  0  0  0  0  0  0  0
   59.6700   34.9870   46.2880 C   0  0  0  0  0  0  0  0  0  0  0  0
   59.4950   33.7710   46.9650 C   0  0  0  0  0  0  0  0  0  0  0  0
   60.1580   33.5260   48.2670 C   0  0  0  0  0  0  0  0  0  0  0  0
   59.4610   33.1340   49.2410 O   0  0  0  0  0  0  0  0  0  0  0  0
   61.5770   33.7100   48.4420 N   0  0  0  0  0  0  0  0  0  0  0  0
   62.1150   34.2170   49.7070 C   0  0  0  0  0  0  0  0  0  0  0  0
   63.3890   33.4460   50.0660 C   0  0  0  0  0  0  0  0  0  0  0  0
   64.3090   33.4670   48.9900 O   0  0  0  0  0  0  0  0  0  0  0  0
   63.7690   32.7710   47.8810 C   0  0  0  0  0  0  0  0  0  0  0  0
   62.5240   33.4850   47.3430 C   0  0  0  0  0  0  0  0  0  0  0  0
   58.6480   32.7960   46.4140 C   0  0  0  0  0  0  0  0  0  0  0  0
   56.3760   29.5958   42.4949 H   0  0  0  0  0  0  0  0  0  0  0  0
   57.8711   29.2238   43.4401 H   0  0  0  0  0  0  0  0  0  0  0  0
   58.7926   29.1559   44.9719 H   0  0  0  0  0  0  0  0  0  0  0  0
   60.3494   27.3219   45.6300 H   0  0  0  0  0  0  0  0  0  0  0  0
   59.4399   25.1519   46.4647 H   0  0  0  0  0  0  0  0  0  0  0  0
   56.9762   24.8175   46.6493 H   0  0  0  0  0  0  0  0  0  0  0  0
   54.7330   25.7180   46.4180 H   0  0  0  0  0  0  0  0  0  0  0  0
   57.6981   34.4163   43.5552 H   0  0  0  0  0  0  0  0  0  0  0  0
   59.1677   36.1714   44.5443 H   0  0  0  0  0  0  0  0  0  0  0  0
   60.3174   35.7650   46.7188 H   0  0  0  0  0  0  0  0  0  0  0  0
   62.3508   35.2864   49.6028 H   0  0  0  0  0  0  0  0  0  0  0  0
   61.3682   34.0819   50.5033 H   0  0  0  0  0  0  0  0  0  0  0  0
   63.8548   33.9098   50.9480 H   0  0  0  0  0  0  0  0  0  0  0  0
   63.1204   32.4010   50.2801 H   0  0  0  0  0  0  0  0  0  0  0  0
   64.5264   32.7181   47.0850 H   0  0  0  0  0  0  0  0  0  0  0  0
   63.4825   31.7597   48.2053 H   0  0  0  0  0  0  0  0  0  0  0  0
   62.8154   34.4516   46.9062 H   0  0  0  0  0  0  0  0  0  0  0  0
   62.0488   32.8625   46.5705 H   0  0  0  0  0  0  0  0  0  0  0  0
   58.4772   31.8550   46.9574 H   0  0  0  0  0  0  0  0  0  0  0  0
  1  2  2  0
  2  3  1  0
  3  4  1  0
  4  5  1  0
  5  6  2  0
  6  7  1  0
  7  8  2  0
  8  9  1  0
  9 10  2  0
 10 11  1  0
  2 12  1  0
 12 13  1  0
 13 14  2  0
 14 15  1  0
 15 16  2  0
 16 17  1  0
 17 18  1  0
 18 19  2  0
 18 20  1  0
 20 21  1  0
 21 22  1  0
 22 23  1  0
 23 24  1  0
 24 25  1  0
 17 26  2  0
 10  5  1  0
 26 13  1  0
 25 20  1  0
  3 27  1  0
  3 28  1  0
  6 29  1  0
  7 30  1  0
  8 31  1  0
  9 32  1  0
 11 33  1  0
 14 34  1  0
 15 35  1  0
 16 36  1  0
 21 37  1  0
 21 38  1  0
 22 39  1  0
 22 40  1  0
 24 41  1  0
 24 42  1  0
 25 43  1  0
 25 44  1  0
 26 45  1  0
M  CHG  1  12  -1
M  END
>  <UniqueID>  (81) 
75

>  <SMILES>  (81) 
O=C(CSc1ccccc1O)[N-]c1cccc(C(=O)N2CCOCC2)c1

>  <Energy>  (81) 
50.884166525280456

>  <Genealogy>  (81) 
O=C(CSc1ccccc1O)[N-]c1cccc(C(=O)N2CCOCC2)c1 (protonated)
O=C(CSc1ccccc1O)[N-]c1cccc(C(=O)N2CCOCC2)c1 (3D coordinates assigned)
O=C(CSc1ccccc1O)[N-]c1cccc(C(=O)N2CCOCC2)c1 (nonaromatic ring conformer: 50.884166525280456 kcal/mol)

>  <smiles>  (81) 
O=C(CSc1ccccc1O)Nc1cccc(C(=O)N2CCOCC2)c1

>  <score_type>  (81) 
oracle

>  <origin>  (81) 
adg

>  <m_score__min__energy>  (81) 
-11.24

>  <m_primary>  (81) 
energy

$$$$
81:0
     RDKit          3D

 62 65  0  0  0  0  0  0  0  0999 V2000
   53.9580   23.7320   44.4480 C   0  0  0  0  0  0  0  0  0  0  0  0
   55.3140   23.0860   44.3890 C   0  0  0  0  0  0  0  0  0  0  0  0
   55.7620   22.6210   43.1890 N   0  0  0  0  0  0  0  0  0  0  0  0
   56.9840   22.0460   43.0430 C   0  0  0  0  0  0  0  0  0  0  0  0
   57.8420   21.9400   44.1350 C   0  0  0  0  0  0  0  0  0  0  0  0
   57.4180   22.3990   45.3810 C   0  0  0  0  0  0  0  0  0  0  0  0
   56.1390   22.9640   45.5340 C   0  0  0  0  0  0  0  0  0  0  0  0
   55.7040   23.4530   46.8950 C   0  0  0  0  0  0  0  0  0  0  0  0
   56.1570   24.8210   47.1040 N   0  0  0  0  0  0  0  0  0  0  0  0
   56.1510   25.8180   46.0790 C   0  0  0  0  0  0  0  0  0  0  0  0
   55.1360   26.5470   45.9020 O   0  0  0  0  0  0  0  0  0  0  0  0
   57.3520   25.9820   45.2000 C   0  0  0  0  0  0  0  0  0  0  0  0
   57.8620   27.4040   45.2350 C   0  0  0  0  0  0  0  0  0  0  0  0
   57.5450   28.2540   44.1600 C   0  0  0  0  0  0  0  0  0  0  0  0
   58.0270   29.5610   44.1170 C   0  0  0  0  0  0  0  0  0  0  0  0
   58.8320   30.0440   45.1460 C   0  0  0  0  0  0  0  0  0  0  0  0
   59.1350   29.2340   46.2500 C   0  0  0  0  0  0  0  0  0  0  0  0
   60.0080   29.7170   47.2750 N   0  0  0  0  0  0  0  0  0  0  0  0
   59.6560   31.0810   48.2820 S   0  0  0  0  0  0  0  0  0  0  0  0
   60.8280   31.4200   49.1560 O   0  0  0  0  0  0  0  0  0  0  0  0
   58.4890   30.7470   49.1660 O   0  0  0  0  0  0  0  0  0  0  0  0
   59.2410   32.4520   47.2510 C   0  0  0  0  0  0  0  0  0  0  0  0
   57.9020   32.8460   47.1040 C   0  0  0  0  0  0  0  0  0  0  0  0
   57.5680   33.9100   46.2620 C   0  0  0  0  0  0  0  0  0  0  0  0
   58.5690   34.5850   45.5600 C   0  0  0  0  0  0  0  0  0  0  0  0
   59.9070   34.2250   45.7290 C   0  0  0  0  0  0  0  0  0  0  0  0
   60.2580   33.1700   46.5910 C   0  0  0  0  0  0  0  0  0  0  0  0
   61.5970   32.7860   46.7710 O   0  0  0  0  0  0  0  0  0  0  0  0
   62.4120   33.1330   47.8560 C   0  0  0  0  0  0  0  0  0  0  0  0
   62.0310   34.1110   48.7990 C   0  0  0  0  0  0  0  0  0  0  0  0
   62.8610   34.3980   49.8880 C   0  0  0  0  0  0  0  0  0  0  0  0
   64.0790   33.7180   50.0450 C   0  0  0  0  0  0  0  0  0  0  0  0
   64.9220   34.0000   51.1210 O   0  0  0  0  0  0  0  0  0  0  0  0
   64.4510   32.7400   49.1130 C   0  0  0  0  0  0  0  0  0  0  0  0
   63.6160   32.4430   48.0330 C   0  0  0  0  0  0  0  0  0  0  0  0
   58.6390   27.9090   46.3140 C   0  0  0  0  0  0  0  0  0  0  0  0
   58.9860   27.0480   47.5110 C   0  0  0  0  0  0  0  0  0  0  0  0
   53.6640   23.8721   45.4987 H   0  0  0  0  0  0  0  0  0  0  0  0
   53.9951   24.7092   43.9442 H   0  0  0  0  0  0  0  0  0  0  0  0
   53.2226   23.0875   43.9442 H   0  0  0  0  0  0  0  0  0  0  0  0
   57.2966   21.6633   42.0602 H   0  0  0  0  0  0  0  0  0  0  0  0
   58.8427   21.4991   44.0155 H   0  0  0  0  0  0  0  0  0  0  0  0
   58.0877   22.3189   46.2499 H   0  0  0  0  0  0  0  0  0  0  0  0
   54.6064   23.4194   46.9599 H   0  0  0  0  0  0  0  0  0  0  0  0
   56.1448   22.8060   47.6677 H   0  0  0  0  0  0  0  0  0  0  0  0
   58.1472   25.3065   45.5485 H   0  0  0  0  0  0  0  0  0  0  0  0
   57.0641   25.7396   44.1664 H   0  0  0  0  0  0  0  0  0  0  0  0
   56.9088   27.8825   43.3431 H   0  0  0  0  0  0  0  0  0  0  0  0
   57.7711   30.2126   43.2685 H   0  0  0  0  0  0  0  0  0  0  0  0
   59.2325   31.0671   45.0923 H   0  0  0  0  0  0  0  0  0  0  0  0
   57.1116   32.3146   47.6543 H   0  0  0  0  0  0  0  0  0  0  0  0
   56.5171   34.2158   46.1521 H   0  0  0  0  0  0  0  0  0  0  0  0
   58.3026   35.4016   44.8728 H   0  0  0  0  0  0  0  0  0  0  0  0
   60.6923   34.7699   45.1845 H   0  0  0  0  0  0  0  0  0  0  0  0
   61.0792   34.6490   48.6776 H   0  0  0  0  0  0  0  0  0  0  0  0
   62.5584   35.1584   50.6230 H   0  0  0  0  0  0  0  0  0  0  0  0
   64.8760   33.4690   51.9830 H   0  0  0  0  0  0  0  0  0  0  0  0
   65.4042   32.2040   49.2322 H   0  0  0  0  0  0  0  0  0  0  0  0
   63.9074   31.6608   47.3166 H   0  0  0  0  0  0  0  0  0  0  0  0
   58.7637   27.5997   48.4363 H   0  0  0  0  0  0  0  0  0  0  0  0
   58.3901   26.1238   47.4830 H   0  0  0  0  0  0  0  0  0  0  0  0
   60.0562   26.7953   47.4830 H   0  0  0  0  0  0  0  0  0  0  0  0
  1  2  1  0
  2  3  2  0
  3  4  1  0
  4  5  2  0
  5  6  1  0
  6  7  2  0
  7  8  1  0
  8  9  1  0
  9 10  1  0
 10 11  2  0
 10 12  1  0
 12 13  1  0
 13 14  2  0
 14 15  1  0
 15 16  2  0
 16 17  1  0
 17 18  1  0
 18 19  1  0
 19 20  2  0
 19 21  2  0
 19 22  1  0
 22 23  2  0
 23 24  1  0
 24 25  2  0
 25 26  1  0
 26 27  2  0
 27 28  1  0
 28 29  1  0
 29 30  2  0
 30 31  1  0
 31 32  2  0
 32 33  1  0
 32 34  1  0
 34 35  2  0
 17 36  2  0
 36 37  1  0
  7  2  1  0
 36 13  1  0
 27 22  1  0
 35 29  1  0
  1 38  1  0
  1 39  1  0
  1 40  1  0
  4 41  1  0
  5 42  1  0
  6 43  1  0
  8 44  1  0
  8 45  1  0
 12 46  1  0
 12 47  1  0
 14 48  1  0
 15 49  1  0
 16 50  1  0
 23 51  1  0
 24 52  1  0
 25 53  1  0
 26 54  1  0
 30 55  1  0
 31 56  1  0
 33 57  1  0
 34 58  1  0
 35 59  1  0
 37 60  1  0
 37 61  1  0
 37 62  1  0
M  CHG  2   9  -1  18  -1
M  END
>  <UniqueID>  (82) 
76

>  <SMILES>  (82) 
Cc1ncccc1C[N-]C(=O)Cc1cccc([N-]S(=O)(=O)c2ccccc2Oc2ccc(O)cc2)c1C

>  <Energy>  (82) 
75.64934081938088

>  <Genealogy>  (82) 
Cc1ncccc1C[N-]C(=O)Cc1cccc([N-]S(=O)(=O)c2ccccc2Oc2ccc(O)cc2)c1C (protonated)
Cc1ncccc1C[N-]C(=O)Cc1cccc([N-]S(=O)(=O)c2ccccc2Oc2ccc(O)cc2)c1C (3D coordinates assigned)
Cc1ncccc1C[N-]C(=O)Cc1cccc([N-]S(=O)(=O)c2ccccc2Oc2ccc(O)cc2)c1C (optimized conformer: 75.64934081938088 kcal/mol)

>  <smiles>  (82) 
Cc1ncccc1CNC(=O)Cc1cccc(NS(=O)(=O)c2ccccc2Oc2ccc(O)cc2)c1C

>  <score_type>  (82) 
oracle

>  <origin>  (82) 
adg

>  <m_score__min__energy>  (82) 
-13.220000000000001

>  <m_primary>  (82) 
energy

$$$$
82:0
     RDKit          3D

 33 35  0  0  0  0  0  0  0  0999 V2000
   57.4410   31.9460   42.1960 O   0  0  0  0  0  0  0  0  0  0  0  0
   57.1820   31.1910   43.1670 C   0  0  0  0  0  0  0  0  0  0  0  0
   55.9850   30.5890   43.3310 N   0  0  0  0  0  0  0  0  0  0  0  0
   56.1680   29.8980   44.4710 C   0  0  0  0  0  0  0  0  0  0  0  0
   55.1820   29.1110   45.0580 O   0  0  0  0  0  0  0  0  0  0  0  0
   57.4480   30.1020   44.9470 C   0  0  0  0  0  0  0  0  0  0  0  0
   58.0790   29.5240   46.1770 C   0  0  0  0  0  0  0  0  0  0  0  0
   59.3650   28.8210   45.8460 C   0  0  0  0  0  0  0  0  0  0  0  0
   60.2550   29.2890   44.9490 N   0  0  0  0  0  0  0  0  0  0  0  0
   61.2630   28.4000   44.8880 C   0  0  0  0  0  0  0  0  0  0  0  0
   61.0240   27.3490   45.7500 C   0  0  0  0  0  0  0  0  0  0  0  0
   59.8180   27.6190   46.3710 C   0  0  0  0  0  0  0  0  0  0  0  0
   59.1250   26.7240   47.3610 C   0  0  0  0  0  0  0  0  0  0  0  0
   58.0160   25.9530   46.6970 C   0  0  0  0  0  0  0  0  0  0  0  0
   58.2450   24.6580   46.2040 C   0  0  0  0  0  0  0  0  0  0  0  0
   57.2060   23.9350   45.6110 C   0  0  0  0  0  0  0  0  0  0  0  0
   55.9280   24.4960   45.5120 C   0  0  0  0  0  0  0  0  0  0  0  0
   54.8990   23.7720   44.9220 O   0  0  0  0  0  0  0  0  0  0  0  0
   55.6890   25.7820   46.0120 C   0  0  0  0  0  0  0  0  0  0  0  0
   54.4210   26.3420   45.9230 O   0  0  0  0  0  0  0  0  0  0  0  0
   56.7280   26.5060   46.6050 C   0  0  0  0  0  0  0  0  0  0  0  0
   58.0520   30.9110   44.1120 O   0  0  0  0  0  0  0  0  0  0  0  0
   55.1430   28.1120   44.9050 H   0  0  0  0  0  0  0  0  0  0  0  0
   58.2865   30.3358   46.8897 H   0  0  0  0  0  0  0  0  0  0  0  0
   57.3840   28.7928   46.6155 H   0  0  0  0  0  0  0  0  0  0  0  0
   60.1760   30.1660   44.3880 H   0  0  0  0  0  0  0  0  0  0  0  0
   62.1496   28.4968   44.2441 H   0  0  0  0  0  0  0  0  0  0  0  0
   61.6658   26.4703   45.9113 H   0  0  0  0  0  0  0  0  0  0  0  0
   59.8552   26.0166   47.7809 H   0  0  0  0  0  0  0  0  0  0  0  0
   58.6939   27.3467   48.1588 H   0  0  0  0  0  0  0  0  0  0  0  0
   59.2466   24.2106   46.2849 H   0  0  0  0  0  0  0  0  0  0  0  0
   57.3934   22.9234   45.2216 H   0  0  0  0  0  0  0  0  0  0  0  0
   56.5357   27.5139   47.0015 H   0  0  0  0  0  0  0  0  0  0  0  0
  1  2  2  0
  2  3  1  0
  3  4  1  0
  4  5  1  0
  4  6  2  0
  6  7  1  0
  7  8  1  0
  8  9  1  0
  9 10  1  0
 10 11  2  0
 11 12  1  0
 12 13  1  0
 13 14  1  0
 14 15  2  0
 15 16  1  0
 16 17  2  0
 17 18  1  0
 17 19  1  0
 19 20  1  0
 19 21  2  0
  6 22  1  0
 22  2  1  0
 12  8  2  0
 21 14  1  0
  5 23  1  0
  7 24  1  0
  7 25  1  0
  9 26  1  0
 10 27  1  0
 11 28  1  0
 13 29  1  0
 13 30  1  0
 15 31  1  0
 16 32  1  0
 21 33  1  0
M  CHG  3   3  -1  18  -1  20  -1
M  END
>  <UniqueID>  (83) 
77

>  <SMILES>  (83) 
O=c1[n-]c(O)c(Cc2[nH]ccc2Cc2ccc([O-])c([O-])c2)o1

>  <Energy>  (83) 
87.77724955608227

>  <Genealogy>  (83) 
O=c1[n-]c(O)c(Cc2[nH]ccc2Cc2ccc([O-])c([O-])c2)o1 (protonated)
O=c1[n-]c(O)c(Cc2[nH]ccc2Cc2ccc([O-])c([O-])c2)o1 (3D coordinates assigned)
O=c1[n-]c(O)c(Cc2[nH]ccc2Cc2ccc([O-])c([O-])c2)o1 (optimized conformer: 87.77724955608227 kcal/mol)

>  <smiles>  (83) 
O=c1[nH]c(O)c(Cc2[nH]ccc2Cc2ccc(O)c(O)c2)o1

>  <score_type>  (83) 
oracle

>  <origin>  (83) 
adg

>  <m_score__min__energy>  (83) 
-15.720000000000001

>  <m_primary>  (83) 
energy

$$$$
