0:0
     RDKit          3D

 61 63  0  0  0  0  0  0  0  0999 V2000
   63.3180   32.5460   47.5010 C   0  0  0  0  0  0  0  0  0  0  0  0
   62.5950   33.8050   47.0300 C   0  0  0  0  0  0  0  0  0  0  0  0
   61.1700   33.8310   47.5120 C   0  0  0  0  0  0  0  0  0  0  0  0
   60.9360   33.8470   48.7510 O   0  0  0  0  0  0  0  0  0  0  0  0
   60.0700   33.8710   46.5910 N   0  0  0  0  0  0  0  0  0  0  0  0
   59.5850   35.1050   45.9730 C   0  0  0  0  0  0  0  0  0  0  0  0
   58.5460   34.6720   44.9100 C   0  0  0  0  0  0  0  0  0  0  0  0
   58.4730   33.1960   45.0830 C   0  0  0  0  0  0  0  0  0  0  0  0
   57.6230   32.3010   44.4310 C   0  0  0  0  0  0  0  0  0  0  0  0
   57.6690   30.9420   44.7920 C   0  0  0  0  0  0  0  0  0  0  0  0
   56.6010   29.7890   43.9950 S   0  0  0  0  0  0  0  0  0  0  0  0
   55.5380   29.3570   44.9670 O   0  0  0  0  0  0  0  0  0  0  0  0
   55.9320   30.4370   42.8150 O   0  0  0  0  0  0  0  0  0  0  0  0
   57.5040   28.3980   43.4770 N   0  0  0  0  0  0  0  0  0  0  0  0
   58.0730   27.7140   44.6400 C   0  0  0  0  0  0  0  0  0  0  0  0
   57.3860   26.3580   44.8390 C   0  0  0  0  0  0  0  0  0  0  0  0
   56.4680   26.3540   46.0370 C   0  0  0  0  0  0  0  0  0  0  0  0
   56.9330   26.5850   47.1840 O   0  0  0  0  0  0  0  0  0  0  0  0
   55.0530   26.1740   45.8960 N   0  0  0  0  0  0  0  0  0  0  0  0
   54.4050   24.9000   45.6110 C   0  0  0  0  0  0  0  0  0  0  0  0
   55.2620   23.7760   46.1260 C   0  0  0  0  0  0  0  0  0  0  0  0
   55.5910   23.7220   47.4890 C   0  0  0  0  0  0  0  0  0  0  0  0
   56.3990   22.6960   47.9820 C   0  0  0  0  0  0  0  0  0  0  0  0
   56.9030   21.7150   47.1250 C   0  0  0  0  0  0  0  0  0  0  0  0
   57.7070   20.7040   47.6730 O   0  0  0  0  0  0  0  0  0  0  0  0
   57.8720   19.4080   47.1060 C   0  0  0  0  0  0  0  0  0  0  0  0
   56.5920   21.7720   45.7530 C   0  0  0  0  0  0  0  0  0  0  0  0
   55.7760   22.8030   45.2440 C   0  0  0  0  0  0  0  0  0  0  0  0
   55.4590   22.8910   43.8770 O   0  0  0  0  0  0  0  0  0  0  0  0
   56.3700   22.6280   42.8160 C   0  0  0  0  0  0  0  0  0  0  0  0
   58.5410   30.5180   45.8180 C   0  0  0  0  0  0  0  0  0  0  0  0
   59.3800   31.4400   46.4630 C   0  0  0  0  0  0  0  0  0  0  0  0
   59.3470   32.7770   46.0480 C   0  0  0  0  0  0  0  0  0  0  0  0
   63.3323   32.5211   48.6006 H   0  0  0  0  0  0  0  0  0  0  0  0
   62.7925   31.6575   47.1209 H   0  0  0  0  0  0  0  0  0  0  0  0
   64.3502   32.5521   47.1209 H   0  0  0  0  0  0  0  0  0  0  0  0
   63.1216   34.6879   47.4213 H   0  0  0  0  0  0  0  0  0  0  0  0
   62.5891   33.8105   45.9300 H   0  0  0  0  0  0  0  0  0  0  0  0
   59.1125   35.7503   46.7282 H   0  0  0  0  0  0  0  0  0  0  0  0
   60.4075   35.6789   45.5212 H   0  0  0  0  0  0  0  0  0  0  0  0
   57.5689   35.1398   45.1008 H   0  0  0  0  0  0  0  0  0  0  0  0
   58.8244   34.9722   43.8890 H   0  0  0  0  0  0  0  0  0  0  0  0
   56.9312   32.6512   43.6507 H   0  0  0  0  0  0  0  0  0  0  0  0
   58.2930   28.7570   42.8910 H   0  0  0  0  0  0  0  0  0  0  0  0
   59.1498   27.5567   44.4793 H   0  0  0  0  0  0  0  0  0  0  0  0
   57.9159   28.3332   45.5355 H   0  0  0  0  0  0  0  0  0  0  0  0
   56.7964   26.1244   43.9402 H   0  0  0  0  0  0  0  0  0  0  0  0
   58.1691   25.6049   45.0113 H   0  0  0  0  0  0  0  0  0  0  0  0
   53.4231   24.8691   46.1060 H   0  0  0  0  0  0  0  0  0  0  0  0
   54.2712   24.7913   44.5246 H   0  0  0  0  0  0  0  0  0  0  0  0
   55.2095   24.4936   48.1739 H   0  0  0  0  0  0  0  0  0  0  0  0
   56.6408   22.6598   49.0545 H   0  0  0  0  0  0  0  0  0  0  0  0
   57.9666   18.6648   47.9114 H   0  0  0  0  0  0  0  0  0  0  0  0
   56.9975   19.1657   46.4843 H   0  0  0  0  0  0  0  0  0  0  0  0
   58.7794   19.3926   46.4843 H   0  0  0  0  0  0  0  0  0  0  0  0
   56.9893   21.0050   45.0719 H   0  0  0  0  0  0  0  0  0  0  0  0
   57.3477   22.3457   43.2337 H   0  0  0  0  0  0  0  0  0  0  0  0
   55.9842   21.8046   42.1971 H   0  0  0  0  0  0  0  0  0  0  0  0
   56.4824   23.5304   42.1971 H   0  0  0  0  0  0  0  0  0  0  0  0
   58.5631   29.4587   46.1137 H   0  0  0  0  0  0  0  0  0  0  0  0
   60.0482   31.1196   47.2759 H   0  0  0  0  0  0  0  0  0  0  0  0
  1  2  1  0
  2  3  1  0
  3  4  2  0
  3  5  1  0
  5  6  1  0
  6  7  1  0
  7  8  1  0
  8  9  2  0
  9 10  1  0
 10 11  1  0
 11 12  2  0
 11 13  2  0
 11 14  1  0
 14 15  1  0
 15 16  1  0
 16 17  1  0
 17 18  2  0
 17 19  1  0
 19 20  1  0
 20 21  1  0
 21 22  2  0
 22 23  1  0
 23 24  2  0
 24 25  1  0
 25 26  1  0
 24 27  1  0
 27 28  2  0
 28 29  1  0
 29 30  1  0
 10 31  2  0
 31 32  1  0
 32 33  2  0
 33  5  1  0
 33  8  1  0
 28 21  1  0
  1 34  1  0
  1 35  1  0
  1 36  1  0
  2 37  1  0
  2 38  1  0
  6 39  1  0
  6 40  1  0
  7 41  1  0
  7 42  1  0
  9 43  1  0
 14 44  1  0
 15 45  1  0
 15 46  1  0
 16 47  1  0
 16 48  1  0
 20 49  1  0
 20 50  1  0
 22 51  1  0
 23 52  1  0
 26 53  1  0
 26 54  1  0
 26 55  1  0
 27 56  1  0
 30 57  1  0
 30 58  1  0
 30 59  1  0
 31 60  1  0
 32 61  1  0
M  CHG  1  19  -1
M  END
>  <UniqueID>  (1) 
1

>  <SMILES>  (1) 
CCC(=O)N1CCc2cc(S(=O)(=O)NCCC(=O)[N-]Cc3ccc(OC)cc3OC)ccc21

>  <Energy>  (1) 
69.83614203216293

>  <Genealogy>  (1) 
CCC(=O)N1CCc2cc(S(=O)(=O)NCCC(=O)[N-]Cc3ccc(OC)cc3OC)ccc21 (protonated)
CCC(=O)N1CCc2cc(S(=O)(=O)NCCC(=O)[N-]Cc3ccc(OC)cc3OC)ccc21 (3D coordinates assigned)
CCC(=O)N1CCc2cc(S(=O)(=O)NCCC(=O)[N-]Cc3ccc(OC)cc3OC)ccc21 (nonaromatic ring conformer: 69.83614203216293 kcal/mol)

>  <smiles>  (1) 
CCC(=O)N1CCc2cc(S(=O)(=O)NCCC(=O)NCc3ccc(OC)cc3OC)ccc21

>  <score_type>  (1) 
oracle

>  <origin>  (1) 
adg

>  <m_score__min__energy>  (1) 
-12.449999999999999

>  <m_primary>  (1) 
energy

$$$$
1:0
     RDKit          3D

 42 43  0  0  0  0  0  0  0  0999 V2000
   63.1420   33.7240   46.7540 C   0  0  0  0  0  0  0  0  0  0  0  0
   62.8520   33.8410   48.0530 C   0  0  0  0  0  0  0  0  0  0  0  0
   61.4340   33.9320   48.5380 C   0  0  0  0  0  0  0  0  0  0  0  0
   60.5820   32.9880   47.8120 N   0  0  0  0  0  0  0  0  0  0  0  0
   59.6330   33.4650   46.8470 C   0  0  0  0  0  0  0  0  0  0  0  0
   60.0770   34.0180   45.6350 C   0  0  0  0  0  0  0  0  0  0  0  0
   59.1530   34.4860   44.6960 C   0  0  0  0  0  0  0  0  0  0  0  0
   57.7830   34.4010   44.9590 C   0  0  0  0  0  0  0  0  0  0  0  0
   57.3340   33.8430   46.1610 C   0  0  0  0  0  0  0  0  0  0  0  0
   58.2560   33.3750   47.1020 C   0  0  0  0  0  0  0  0  0  0  0  0
   60.6710   31.2850   48.1570 S   0  0  0  0  0  0  0  0  0  0  0  0
   59.8460   30.9800   49.3770 O   0  0  0  0  0  0  0  0  0  0  0  0
   62.0940   30.8990   48.4520 O   0  0  0  0  0  0  0  0  0  0  0  0
   60.0820   30.3460   46.7880 C   0  0  0  0  0  0  0  0  0  0  0  0
   60.9840   29.6490   45.9760 C   0  0  0  0  0  0  0  0  0  0  0  0
   60.5230   28.9180   44.8800 C   0  0  0  0  0  0  0  0  0  0  0  0
   59.1570   28.8750   44.5880 C   0  0  0  0  0  0  0  0  0  0  0  0
   58.2340   29.5650   45.3960 C   0  0  0  0  0  0  0  0  0  0  0  0
   56.7860   29.5250   45.0880 C   0  0  0  0  0  0  0  0  0  0  0  0
   56.2000   30.5610   44.6690 O   0  0  0  0  0  0  0  0  0  0  0  0
   56.0450   28.3110   45.2580 N   0  0  0  0  0  0  0  0  0  0  0  0
   56.6540   27.0380   45.6270 C   0  0  0  0  0  0  0  0  0  0  0  0
   55.6140   26.1000   46.1540 C   0  0  0  0  0  0  0  0  0  0  0  0
   54.3950   26.3250   45.9410 O   0  0  0  0  0  0  0  0  0  0  0  0
   55.9940   24.9590   46.8490 O   0  0  0  0  0  0  0  0  0  0  0  0
   58.7100   30.2960   46.5000 C   0  0  0  0  0  0  0  0  0  0  0  0
   64.1907   33.6594   46.4282 H   0  0  0  0  0  0  0  0  0  0  0  0
   62.3321   33.6923   46.0103 H   0  0  0  0  0  0  0  0  0  0  0  0
   63.6724   33.8714   48.7852 H   0  0  0  0  0  0  0  0  0  0  0  0
   61.4029   33.6957   49.6119 H   0  0  0  0  0  0  0  0  0  0  0  0
   61.0631   34.9528   48.3634 H   0  0  0  0  0  0  0  0  0  0  0  0
   61.1546   34.0831   45.4239 H   0  0  0  0  0  0  0  0  0  0  0  0
   59.5047   34.9216   43.7491 H   0  0  0  0  0  0  0  0  0  0  0  0
   57.0574   34.7730   44.2207 H   0  0  0  0  0  0  0  0  0  0  0  0
   56.2555   33.7725   46.3656 H   0  0  0  0  0  0  0  0  0  0  0  0
   57.9009   32.9348   48.0454 H   0  0  0  0  0  0  0  0  0  0  0  0
   62.0601   29.6774   46.2024 H   0  0  0  0  0  0  0  0  0  0  0  0
   61.2370   28.3741   44.2441 H   0  0  0  0  0  0  0  0  0  0  0  0
   58.8011   28.2984   43.7215 H   0  0  0  0  0  0  0  0  0  0  0  0
   57.1294   26.5924   44.7407 H   0  0  0  0  0  0  0  0  0  0  0  0
   57.4072   27.2142   46.4091 H   0  0  0  0  0  0  0  0  0  0  0  0
   57.9988   30.8339   47.1440 H   0  0  0  0  0  0  0  0  0  0  0  0
  1  2  2  0
  2  3  1  0
  3  4  1  0
  4  5  1  0
  5  6  2  0
  6  7  1  0
  7  8  2  0
  8  9  1  0
  9 10  2  0
  4 11  1  0
 11 12  2  0
 11 13  2  0
 11 14  1  0
 14 15  2  0
 15 16  1  0
 16 17  2  0
 17 18  1  0
 18 19  1  0
 19 20  2  0
 19 21  1  0
 21 22  1  0
 22 23  1  0
 23 24  2  0
 23 25  1  0
 18 26  2  0
 10  5  1  0
 26 14  1  0
  1 27  1  0
  1 28  1  0
  2 29  1  0
  3 30  1  0
  3 31  1  0
  6 32  1  0
  7 33  1  0
  8 34  1  0
  9 35  1  0
 10 36  1  0
 15 37  1  0
 16 38  1  0
 17 39  1  0
 22 40  1  0
 22 41  1  0
 26 42  1  0
M  CHG  2  21  -1  25  -1
M  END
>  <UniqueID>  (2) 
2

>  <SMILES>  (2) 
C=CCN(c1ccccc1)S(=O)(=O)c1cccc(C(=O)[N-]CC(=O)[O-])c1

>  <Energy>  (2) 
41.938647029456654

>  <Genealogy>  (2) 
C=CCN(c1ccccc1)S(=O)(=O)c1cccc(C(=O)[N-]CC(=O)[O-])c1 (protonated)
C=CCN(c1ccccc1)S(=O)(=O)c1cccc(C(=O)[N-]CC(=O)[O-])c1 (3D coordinates assigned)
C=CCN(c1ccccc1)S(=O)(=O)c1cccc(C(=O)[N-]CC(=O)[O-])c1 (optimized conformer: 41.938647029456654 kcal/mol)

>  <smiles>  (2) 
C=CCN(c1ccccc1)S(=O)(=O)c1cccc(C(=O)NCC(=O)O)c1

>  <score_type>  (2) 
oracle

>  <origin>  (2) 
adg

>  <m_score__min__energy>  (2) 
-13.75

>  <m_primary>  (2) 
energy

$$$$
2:0
     RDKit          3D

 39 40  0  0  0  0  0  0  0  0999 V2000
   51.4890   32.7030   51.1940 N   0  0  0  0  0  0  0  0  0  0  0  0
   51.5170   31.0030   51.4980 S   0  0  0  0  0  0  0  0  0  0  0  0
   50.3560   30.6330   52.3780 O   0  0  0  0  0  0  0  0  0  0  0  0
   51.3940   30.2560   50.1990 O   0  0  0  0  0  0  0  0  0  0  0  0
   53.0300   30.5710   52.2910 C   0  0  0  0  0  0  0  0  0  0  0  0
   53.0440   29.6070   53.3080 C   0  0  0  0  0  0  0  0  0  0  0  0
   54.2420   29.2860   53.9510 C   0  0  0  0  0  0  0  0  0  0  0  0
   55.4320   29.9180   53.5790 C   0  0  0  0  0  0  0  0  0  0  0  0
   55.4310   30.8710   52.5450 C   0  0  0  0  0  0  0  0  0  0  0  0
   56.6260   31.5650   52.1640 N   0  0  0  0  0  0  0  0  0  0  0  0
   57.5540   31.1660   51.1470 C   0  0  0  0  0  0  0  0  0  0  0  0
   57.8690   29.9510   51.0540 O   0  0  0  0  0  0  0  0  0  0  0  0
   58.2060   32.1640   50.2280 C   0  0  0  0  0  0  0  0  0  0  0  0
   58.6380   31.5080   48.9960 N   0  0  0  0  0  0  0  0  0  0  0  0
   58.8090   32.2270   47.7680 C   0  0  0  0  0  0  0  0  0  0  0  0
   58.4500   33.4340   47.6850 O   0  0  0  0  0  0  0  0  0  0  0  0
   59.4310   31.5570   46.5780 C   0  0  0  0  0  0  0  0  0  0  0  0
   58.3650   30.9420   45.6960 C   0  0  0  0  0  0  0  0  0  0  0  0
   57.7070   31.7320   44.7200 C   0  0  0  0  0  0  0  0  0  0  0  0
   58.0590   33.4450   44.5120 Cl  0  0  0  0  0  0  0  0  0  0  0  0
   56.7440   31.1590   43.8820 C   0  0  0  0  0  0  0  0  0  0  0  0
   56.4250   29.8070   43.9970 C   0  0  0  0  0  0  0  0  0  0  0  0
   57.0630   29.0170   44.9500 C   0  0  0  0  0  0  0  0  0  0  0  0
   58.0300   29.5690   45.7990 C   0  0  0  0  0  0  0  0  0  0  0  0
   58.7830   28.4950   46.9760 Cl  0  0  0  0  0  0  0  0  0  0  0  0
   54.2220   31.2100   51.9240 C   0  0  0  0  0  0  0  0  0  0  0  0
   50.6480   33.0860   51.6820 H   0  0  0  0  0  0  0  0  0  0  0  0
   52.1111   29.1027   53.6002 H   0  0  0  0  0  0  0  0  0  0  0  0
   54.2489   28.5331   54.7530 H   0  0  0  0  0  0  0  0  0  0  0  0
   56.3706   29.6695   54.0959 H   0  0  0  0  0  0  0  0  0  0  0  0
   57.4850   32.9579   49.9834 H   0  0  0  0  0  0  0  0  0  0  0  0
   59.0835   32.5959   50.7315 H   0  0  0  0  0  0  0  0  0  0  0  0
   58.8510   30.4860   49.0250 H   0  0  0  0  0  0  0  0  0  0  0  0
   59.9952   32.3018   45.9975 H   0  0  0  0  0  0  0  0  0  0  0  0
   60.1032   30.7607   46.9301 H   0  0  0  0  0  0  0  0  0  0  0  0
   56.2360   31.7788   43.1285 H   0  0  0  0  0  0  0  0  0  0  0  0
   55.6679   29.3632   43.3338 H   0  0  0  0  0  0  0  0  0  0  0  0
   56.8053   27.9511   45.0365 H   0  0  0  0  0  0  0  0  0  0  0  0
   54.2082   31.9837   51.1423 H   0  0  0  0  0  0  0  0  0  0  0  0
  1  2  1  0
  2  3  2  0
  2  4  2  0
  2  5  1  0
  5  6  2  0
  6  7  1  0
  7  8  2  0
  8  9  1  0
  9 10  1  0
 10 11  1  0
 11 12  2  0
 11 13  1  0
 13 14  1  0
 14 15  1  0
 15 16  2  0
 15 17  1  0
 17 18  1  0
 18 19  2  0
 19 20  1  0
 19 21  1  0
 21 22  2  0
 22 23  1  0
 23 24  2  0
 24 25  1  0
  9 26  2  0
 26  5  1  0
 24 18  1  0
  1 27  1  0
  6 28  1  0
  7 29  1  0
  8 30  1  0
 13 31  1  0
 13 32  1  0
 14 33  1  0
 17 34  1  0
 17 35  1  0
 21 36  1  0
 22 37  1  0
 23 38  1  0
 26 39  1  0
M  CHG  2   1  -1  10  -1
M  END
>  <UniqueID>  (3) 
3

>  <SMILES>  (3) 
[NH-]S(=O)(=O)c1cccc([N-]C(=O)CNC(=O)Cc2c(Cl)cccc2Cl)c1

>  <Energy>  (3) 
42.189804927162534

>  <Genealogy>  (3) 
[NH-]S(=O)(=O)c1cccc([N-]C(=O)CNC(=O)Cc2c(Cl)cccc2Cl)c1 (protonated)
[NH-]S(=O)(=O)c1cccc([N-]C(=O)CNC(=O)Cc2c(Cl)cccc2Cl)c1 (3D coordinates assigned)
[NH-]S(=O)(=O)c1cccc([N-]C(=O)CNC(=O)Cc2c(Cl)cccc2Cl)c1 (optimized conformer: 42.189804927162534 kcal/mol)

>  <smiles>  (3) 
NS(=O)(=O)c1cccc(NC(=O)CNC(=O)Cc2c(Cl)cccc2Cl)c1

>  <score_type>  (3) 
oracle

>  <origin>  (3) 
adg

>  <m_score__min__energy>  (3) 
-12.859999999999999

>  <m_primary>  (3) 
energy

$$$$
3:0
     RDKit          3D

 32 33  0  0  0  0  0  0  0  0999 V2000
   60.9350   26.8630   46.2750 O   0  0  0  0  0  0  0  0  0  0  0  0
   60.0210   27.6700   46.6000 C   0  0  0  0  0  0  0  0  0  0  0  0
   60.3480   28.9210   47.1330 O   0  0  0  0  0  0  0  0  0  0  0  0
   60.7720   30.0190   46.3290 C   0  0  0  0  0  0  0  0  0  0  0  0
   60.5030   31.3320   47.0610 C   0  0  0  0  0  0  0  0  0  0  0  0
   59.4090   32.1160   46.3850 C   0  0  0  0  0  0  0  0  0  0  0  0
   59.2610   33.4900   46.6380 C   0  0  0  0  0  0  0  0  0  0  0  0
   58.2200   34.2090   46.0410 C   0  0  0  0  0  0  0  0  0  0  0  0
   57.3160   33.5600   45.1950 C   0  0  0  0  0  0  0  0  0  0  0  0
   57.4490   32.1910   44.9480 C   0  0  0  0  0  0  0  0  0  0  0  0
   58.4890   31.4690   45.5420 C   0  0  0  0  0  0  0  0  0  0  0  0
   58.6000   27.2980   46.4230 C   0  0  0  0  0  0  0  0  0  0  0  0
   57.7160   28.1710   45.7660 C   0  0  0  0  0  0  0  0  0  0  0  0
   56.3710   27.8270   45.5990 C   0  0  0  0  0  0  0  0  0  0  0  0
   55.5160   28.7090   44.9470 O   0  0  0  0  0  0  0  0  0  0  0  0
   55.8920   26.6010   46.0880 C   0  0  0  0  0  0  0  0  0  0  0  0
   54.5540   26.2380   45.9310 O   0  0  0  0  0  0  0  0  0  0  0  0
   56.7670   25.7270   46.7430 C   0  0  0  0  0  0  0  0  0  0  0  0
   56.3040   24.5100   47.2300 O   0  0  0  0  0  0  0  0  0  0  0  0
   58.1130   26.0720   46.9100 C   0  0  0  0  0  0  0  0  0  0  0  0
   61.8493   29.9283   46.1262 H   0  0  0  0  0  0  0  0  0  0  0  0
   60.2139   30.0113   45.3811 H   0  0  0  0  0  0  0  0  0  0  0  0
   60.2002   31.1111   48.0952 H   0  0  0  0  0  0  0  0  0  0  0  0
   61.4235   31.9341   47.0476 H   0  0  0  0  0  0  0  0  0  0  0  0
   59.9666   34.0026   47.3083 H   0  0  0  0  0  0  0  0  0  0  0  0
   58.1127   35.2860   46.2375 H   0  0  0  0  0  0  0  0  0  0  0  0
   56.4998   34.1271   44.7236 H   0  0  0  0  0  0  0  0  0  0  0  0
   56.7346   31.6805   44.2854 H   0  0  0  0  0  0  0  0  0  0  0  0
   58.5874   30.3906   45.3488 H   0  0  0  0  0  0  0  0  0  0  0  0
   58.0852   29.1326   45.3800 H   0  0  0  0  0  0  0  0  0  0  0  0
   54.1620   25.4210   46.3820 H   0  0  0  0  0  0  0  0  0  0  0  0
   58.7946   25.3795   47.4257 H   0  0  0  0  0  0  0  0  0  0  0  0
  1  2  2  0
  2  3  1  0
  3  4  1  0
  4  5  1  0
  5  6  1  0
  6  7  2  0
  7  8  1  0
  8  9  2  0
  9 10  1  0
 10 11  2  0
  2 12  1  0
 12 13  2  0
 13 14  1  0
 14 15  1  0
 14 16  2  0
 16 17  1  0
 16 18  1  0
 18 19  1  0
 18 20  2  0
 11  6  1  0
 20 12  1  0
  4 21  1  0
  4 22  1  0
  5 23  1  0
  5 24  1  0
  7 25  1  0
  8 26  1  0
  9 27  1  0
 10 28  1  0
 11 29  1  0
 13 30  1  0
 17 31  1  0
 20 32  1  0
M  CHG  2  15  -1  19  -1
M  END
>  <UniqueID>  (4) 
4

>  <SMILES>  (4) 
O=C(OCCc1ccccc1)c1cc([O-])c(O)c([O-])c1

>  <Energy>  (4) 
28.354242831801695

>  <Genealogy>  (4) 
O=C(OCCc1ccccc1)c1cc([O-])c(O)c([O-])c1 (protonated)
O=C(OCCc1ccccc1)c1cc([O-])c(O)c([O-])c1 (3D coordinates assigned)
O=C(OCCc1ccccc1)c1cc([O-])c(O)c([O-])c1 (optimized conformer: 28.354242831801695 kcal/mol)

>  <smiles>  (4) 
O=C(OCCc1ccccc1)c1cc(O)c(O)c(O)c1

>  <score_type>  (4) 
oracle

>  <origin>  (4) 
adg

>  <m_score__min__energy>  (4) 
-12.24

>  <m_primary>  (4) 
energy

$$$$
4:0
     RDKit          3D

 41 43  0  0  0  0  0  0  0  0999 V2000
   59.4700   31.0790   50.6050 O   0  0  0  0  0  0  0  0  0  0  0  0
   58.6080   31.8750   50.1430 C   0  0  0  0  0  0  0  0  0  0  0  0
   57.3060   31.9560   50.7570 N   0  0  0  0  0  0  0  0  0  0  0  0
   56.8680   31.0920   51.8190 C   0  0  0  0  0  0  0  0  0  0  0  0
   57.7160   30.8640   52.9120 C   0  0  0  0  0  0  0  0  0  0  0  0
   57.3060   30.0460   53.9650 C   0  0  0  0  0  0  0  0  0  0  0  0
   56.0380   29.4610   53.9490 C   0  0  0  0  0  0  0  0  0  0  0  0
   55.1570   29.7030   52.8780 C   0  0  0  0  0  0  0  0  0  0  0  0
   53.8320   29.1370   52.8390 N   0  0  0  0  0  0  0  0  0  0  0  0
   52.8340   29.2880   53.9000 C   0  0  0  0  0  0  0  0  0  0  0  0
   51.9130   30.4420   53.6030 C   0  0  0  0  0  0  0  0  0  0  0  0
   51.0700   30.9480   54.6070 C   0  0  0  0  0  0  0  0  0  0  0  0
   50.2170   32.0230   54.3370 C   0  0  0  0  0  0  0  0  0  0  0  0
   50.2040   32.6050   53.0660 C   0  0  0  0  0  0  0  0  0  0  0  0
   51.0490   32.1160   52.0640 C   0  0  0  0  0  0  0  0  0  0  0  0
   51.0390   32.6990   50.8040 O   0  0  0  0  0  0  0  0  0  0  0  0
   51.9040   31.0410   52.3310 C   0  0  0  0  0  0  0  0  0  0  0  0
   55.5820   30.5220   51.8190 C   0  0  0  0  0  0  0  0  0  0  0  0
   58.9630   32.7190   48.9780 C   0  0  0  0  0  0  0  0  0  0  0  0
   58.1260   32.7330   47.8470 C   0  0  0  0  0  0  0  0  0  0  0  0
   58.4460   33.5210   46.7360 C   0  0  0  0  0  0  0  0  0  0  0  0
   59.6070   34.2960   46.7390 C   0  0  0  0  0  0  0  0  0  0  0  0
   60.4540   34.2800   47.8480 C   0  0  0  0  0  0  0  0  0  0  0  0
   60.1380   33.4950   48.9630 C   0  0  0  0  0  0  0  0  0  0  0  0
   56.6480   32.7090   50.4600 H   0  0  0  0  0  0  0  0  0  0  0  0
   58.7106   31.3330   52.9394 H   0  0  0  0  0  0  0  0  0  0  0  0
   57.9841   29.8611   54.8112 H   0  0  0  0  0  0  0  0  0  0  0  0
   55.7261   28.8079   54.7774 H   0  0  0  0  0  0  0  0  0  0  0  0
   53.5380   28.6180   51.9800 H   0  0  0  0  0  0  0  0  0  0  0  0
   52.2425   28.3635   53.9738 H   0  0  0  0  0  0  0  0  0  0  0  0
   53.3536   29.4850   54.8493 H   0  0  0  0  0  0  0  0  0  0  0  0
   51.0810   30.4965   55.6100 H   0  0  0  0  0  0  0  0  0  0  0  0
   49.5556   32.4110   55.1257 H   0  0  0  0  0  0  0  0  0  0  0  0
   49.5293   33.4475   52.8538 H   0  0  0  0  0  0  0  0  0  0  0  0
   52.5717   30.6631   51.5427 H   0  0  0  0  0  0  0  0  0  0  0  0
   54.9003   30.7202   50.9787 H   0  0  0  0  0  0  0  0  0  0  0  0
   57.2129   32.1196   47.8362 H   0  0  0  0  0  0  0  0  0  0  0  0
   57.7819   33.5298   45.8591 H   0  0  0  0  0  0  0  0  0  0  0  0
   59.8543   34.9194   45.8671 H   0  0  0  0  0  0  0  0  0  0  0  0
   61.3722   34.8858   47.8459 H   0  0  0  0  0  0  0  0  0  0  0  0
   60.8115   33.4842   49.8327 H   0  0  0  0  0  0  0  0  0  0  0  0
  1  2  2  0
  2  3  1  0
  3  4  1  0
  4  5  2  0
  5  6  1  0
  6  7  2  0
  7  8  1  0
  8  9  1  0
  9 10  1  0
 10 11  1  0
 11 12  2  0
 12 13  1  0
 13 14  2  0
 14 15  1  0
 15 16  1  0
 15 17  2  0
  8 18  2  0
  2 19  1  0
 19 20  2  0
 20 21  1  0
 21 22  2  0
 22 23  1  0
 23 24  2  0
 18  4  1  0
 24 19  1  0
 17 11  1  0
  3 25  1  0
  5 26  1  0
  6 27  1  0
  7 28  1  0
  9 29  1  0
 10 30  1  0
 10 31  1  0
 12 32  1  0
 13 33  1  0
 14 34  1  0
 17 35  1  0
 18 36  1  0
 20 37  1  0
 21 38  1  0
 22 39  1  0
 23 40  1  0
 24 41  1  0
M  CHG  1  16  -1
M  END
>  <UniqueID>  (5) 
5

>  <SMILES>  (5) 
O=C(Nc1cccc(NCc2cccc([O-])c2)c1)c1ccccc1

>  <Energy>  (5) 
50.04461980023423

>  <Genealogy>  (5) 
O=C(Nc1cccc(NCc2cccc([O-])c2)c1)c1ccccc1 (protonated)
O=C(Nc1cccc(NCc2cccc([O-])c2)c1)c1ccccc1 (3D coordinates assigned)
O=C(Nc1cccc(NCc2cccc([O-])c2)c1)c1ccccc1 (optimized conformer: 50.04461980023423 kcal/mol)

>  <smiles>  (5) 
O=C(Nc1cccc(NCc2cccc(O)c2)c1)c1ccccc1

>  <score_type>  (5) 
oracle

>  <origin>  (5) 
adg

>  <m_score__min__energy>  (5) 
-11.880000000000001

>  <m_primary>  (5) 
energy

$$$$
5:0
     RDKit          3D

 54 55  0  0  0  0  0  0  0  0999 V2000
   58.3061   34.0209   48.4521 H   0  0  0  0  0  0  0  0  0  0  0  0
   59.0290   33.4510   47.8500 C   0  0  0  0  0  0  0  0  0  0  0  0
   58.6640   32.0610   47.4820 C   0  0  0  0  0  0  0  0  0  0  0  0
   58.9710   31.1050   48.2500 O   0  0  0  0  0  0  0  0  0  0  0  0
   58.0450   31.7990   46.1980 N   0  0  2  0  0  0  0  0  0  0  0  0
   57.0170   31.6670   46.3650 H   0  0  0  0  0  0  0  0  0  0  0  0
   58.5390   30.5510   45.5690 C   0  0  0  0  0  0  0  0  0  0  0  0
   59.0752   30.8067   44.6432 H   0  0  0  0  0  0  0  0  0  0  0  0
   59.2052   30.0473   46.2848 H   0  0  0  0  0  0  0  0  0  0  0  0
   57.4130   29.6110   45.2360 C   0  0  0  0  0  0  0  0  0  0  0  0
   56.2600   30.0730   45.0170 O   0  0  0  0  0  0  0  0  0  0  0  0
   57.6690   28.2010   45.1850 N   0  0  0  0  0  0  0  0  0  0  0  0
   56.8040   27.2730   45.4600 C   0  0  0  0  0  0  0  0  0  0  0  0
   55.5210   27.4660   45.6450 O   0  0  0  0  0  0  0  0  0  0  0  0
   54.9270   26.3430   45.9280 N   0  0  0  0  0  0  0  0  0  0  0  0
   55.8750   25.3790   45.9260 C   0  0  0  0  0  0  0  0  0  0  0  0
   55.6140   23.9100   46.2150 C   0  0  0  0  0  0  0  0  0  0  0  0
   56.4610   23.0420   45.2630 C   0  0  0  0  0  0  0  0  0  0  0  0
   57.1097   22.3773   45.8524 H   0  0  0  0  0  0  0  0  0  0  0  0
   55.7960   22.4375   44.6287 H   0  0  0  0  0  0  0  0  0  0  0  0
   57.0816   23.6920   44.6287 H   0  0  0  0  0  0  0  0  0  0  0  0
   54.1170   23.6080   45.9980 C   0  0  0  0  0  0  0  0  0  0  0  0
   53.6181   23.5074   46.9732 H   0  0  0  0  0  0  0  0  0  0  0  0
   53.6550   24.4310   45.4330 H   0  0  0  0  0  0  0  0  0  0  0  0
   54.0103   22.6702   45.4330 H   0  0  0  0  0  0  0  0  0  0  0  0
   55.9890   23.5680   47.6740 C   0  0  0  0  0  0  0  0  0  0  0  0
   55.3543   24.1469   48.3610 H   0  0  0  0  0  0  0  0  0  0  0  0
   55.8347   22.4932   47.8499 H   0  0  0  0  0  0  0  0  0  0  0  0
   57.0451   23.8204   47.8499 H   0  0  0  0  0  0  0  0  0  0  0  0
   57.1030   25.9420   45.6200 C   0  0  0  0  0  0  0  0  0  0  0  0
   58.0797   25.4444   45.5276 H   0  0  0  0  0  0  0  0  0  0  0  0
   58.1620   32.9690   45.2940 C   0  0  0  0  0  0  0  0  0  0  0  0
   58.2360   32.5984   44.2609 H   0  0  0  0  0  0  0  0  0  0  0  0
   59.0542   33.5252   45.6176 H   0  0  0  0  0  0  0  0  0  0  0  0
   56.9840   33.9540   45.3670 C   0  0  0  0  0  0  0  0  0  0  0  0
   56.7408   34.1573   46.4203 H   0  0  0  0  0  0  0  0  0  0  0  0
   57.2603   34.8937   44.8665 H   0  0  0  0  0  0  0  0  0  0  0  0
   56.1080   33.5157   44.8665 H   0  0  0  0  0  0  0  0  0  0  0  0
   60.1690   34.0690   47.5080 C   0  0  0  0  0  0  0  0  0  0  0  0
   60.1049   34.8717   46.7587 H   0  0  0  0  0  0  0  0  0  0  0  0
   61.5040   33.7570   48.0580 C   0  0  0  0  0  0  0  0  0  0  0  0
   61.8340   34.1890   49.3490 C   0  0  0  0  0  0  0  0  0  0  0  0
   61.1126   34.7848   49.9274 H   0  0  0  0  0  0  0  0  0  0  0  0
   63.0760   33.8670   49.9070 C   0  0  0  0  0  0  0  0  0  0  0  0
   63.3303   34.2182   50.9179 H   0  0  0  0  0  0  0  0  0  0  0  0
   63.9990   33.0970   49.1810 C   0  0  0  0  0  0  0  0  0  0  0  0
   65.3240   32.7260   49.7770 C   0  0  0  0  0  0  0  0  0  0  0  0
   65.2510   32.7464   50.8744 H   0  0  0  0  0  0  0  0  0  0  0  0
   65.6043   31.7148   49.4469 H   0  0  0  0  0  0  0  0  0  0  0  0
   66.0886   33.4446   49.4469 H   0  0  0  0  0  0  0  0  0  0  0  0
   63.6500   32.6250   47.9080 C   0  0  0  0  0  0  0  0  0  0  0  0
   64.3557   31.9963   47.3452 H   0  0  0  0  0  0  0  0  0  0  0  0
   62.4100   32.9490   47.3500 C   0  0  0  0  0  0  0  0  0  0  0  0
   62.1423   32.5700   46.3527 H   0  0  0  0  0  0  0  0  0  0  0  0
  1  2  1  0
  2  3  1  0
  3  4  2  0
  3  5  1  0
  5  6  1  1
  5  7  1  0
  7  8  1  0
  7  9  1  0
  7 10  1  0
 10 11  2  0
 10 12  1  0
 12 13  2  0
 13 14  1  0
 14 15  1  0
 15 16  1  0
 16 17  1  0
 17 18  1  0
 18 19  1  0
 18 20  1  0
 18 21  1  0
 17 22  1  0
 22 23  1  0
 22 24  1  0
 22 25  1  0
 17 26  1  0
 26 27  1  0
 26 28  1  0
 26 29  1  0
 16 30  2  0
 30 31  1  0
  5 32  1  0
 32 33  1  0
 32 34  1  0
 32 35  1  0
 35 36  1  0
 35 37  1  0
 35 38  1  0
  2 39  2  3
 39 40  1  0
 39 41  1  0
 41 42  2  0
 42 43  1  0
 42 44  1  0
 44 45  1  0
 44 46  2  0
 46 47  1  0
 47 48  1  0
 47 49  1  0
 47 50  1  0
 46 51  1  0
 51 52  1  0
 51 53  2  0
 53 54  1  0
 30 13  1  0
 53 41  1  0
M  CHG  2   5   1  15  -1
M  END
>  <UniqueID>  (6) 
6

>  <SMILES>  (6) 
CC[N@@H+](CC(=O)/N=c1/cc(C(C)(C)C)[n-]o1)C(=O)C=Cc1ccc(C)cc1

>  <Energy>  (6) 
87.73701566036073

>  <Genealogy>  (6) 
CC[NH+](CC(=O)N=c1cc(C(C)(C)C)[n-]o1)C(=O)C=Cc1ccc(C)cc1 (protonated)
CC[N@@H+](CC(=O)N=c1cc(C(C)(C)C)[n-]o1)C(=O)C=Cc1ccc(C)cc1 (chirality)
CC[N@@H+](CC(=O)/N=c1/cc(C(C)(C)C)[n-]o1)C(=O)C=Cc1ccc(C)cc1 (cis-trans isomerization)
CC[N@@H+](CC(=O)/N=c1/cc(C(C)(C)C)[n-]o1)C(=O)C=Cc1ccc(C)cc1 (3D coordinates assigned)
CC[N@@H+](CC(=O)/N=c1/cc(C(C)(C)C)[n-]o1)C(=O)C=Cc1ccc(C)cc1 (optimized conformer: 87.73701566036073 kcal/mol)

>  <smiles>  (6) 
CCN(CC(=O)N=c1cc(C(C)(C)C)[nH]o1)C(=O)C=Cc1ccc(C)cc1

>  <score_type>  (6) 
oracle

>  <origin>  (6) 
adg

>  <m_score__min__energy>  (6) 
-10.42

>  <m_primary>  (6) 
energy

$$$$
6:0
     RDKit          3D

 39 40  0  0  0  0  0  0  0  0999 V2000
   58.3312   26.7636   44.7838 H   0  0  0  0  0  0  0  0  0  0  0  0
   58.1250   27.8030   45.0790 C   0  0  0  0  0  0  0  0  0  0  0  0
   56.7190   28.1620   45.3670 C   0  0  0  0  0  0  0  0  0  0  0  0
   55.8850   27.2600   45.6400 O   0  0  0  0  0  0  0  0  0  0  0  0
   56.2460   29.5070   45.2210 N   0  0  0  0  0  0  0  0  0  0  0  0
   56.8650   30.5730   44.4790 C   0  0  0  0  0  0  0  0  0  0  0  0
   57.4240   31.6930   45.1270 C   0  0  0  0  0  0  0  0  0  0  0  0
   57.3921   31.7616   46.2244 H   0  0  0  0  0  0  0  0  0  0  0  0
   58.0180   32.7160   44.3850 C   0  0  0  0  0  0  0  0  0  0  0  0
   58.4707   33.5757   44.9007 H   0  0  0  0  0  0  0  0  0  0  0  0
   58.0390   32.6510   42.9910 C   0  0  0  0  0  0  0  0  0  0  0  0
   58.5200   33.4521   42.4105 H   0  0  0  0  0  0  0  0  0  0  0  0
   57.4500   31.5700   42.3330 C   0  0  0  0  0  0  0  0  0  0  0  0
   57.4497   31.5330   41.2336 H   0  0  0  0  0  0  0  0  0  0  0  0
   56.8570   30.5280   43.0680 C   0  0  0  0  0  0  0  0  0  0  0  0
   56.2700   29.4210   42.3720 N   0  0  0  0  0  0  0  0  0  0  0  0
   55.8340   29.5550   41.4350 H   0  0  0  0  0  0  0  0  0  0  0  0
   56.2420   28.4630   42.7900 H   0  0  0  0  0  0  0  0  0  0  0  0
   59.1700   28.6440   45.1490 C   0  0  0  0  0  0  0  0  0  0  0  0
   59.7349   28.8247   44.2226 H   0  0  0  0  0  0  0  0  0  0  0  0
   59.6240   29.3470   46.3680 C   0  0  0  0  0  0  0  0  0  0  0  0
   58.8930   29.2850   47.5660 C   0  0  0  0  0  0  0  0  0  0  0  0
   57.9592   28.7052   47.6092 H   0  0  0  0  0  0  0  0  0  0  0  0
   59.3480   29.9570   48.7020 C   0  0  0  0  0  0  0  0  0  0  0  0
   58.7897   29.8791   49.6466 H   0  0  0  0  0  0  0  0  0  0  0  0
   60.5110   30.7280   48.6410 C   0  0  0  0  0  0  0  0  0  0  0  0
   60.8758   31.2385   49.5445 H   0  0  0  0  0  0  0  0  0  0  0  0
   61.2170   30.8560   47.4360 C   0  0  0  0  0  0  0  0  0  0  0  0
   62.3970   31.6730   47.3950 N   0  0  0  0  0  0  0  0  0  0  0  0
   63.3130   31.2520   47.6760 H   0  0  0  0  0  0  0  0  0  0  0  0
   62.3570   33.3930   47.1620 S   0  0  0  0  0  0  0  0  0  0  0  0
   63.4280   33.7780   46.1790 O   0  0  0  0  0  0  0  0  0  0  0  0
   62.6270   34.0970   48.4630 O   0  0  0  0  0  0  0  0  0  0  0  0
   60.7730   33.8830   46.5200 C   0  0  0  0  0  0  0  0  0  0  0  0
   60.0886   34.0947   47.3547 H   0  0  0  0  0  0  0  0  0  0  0  0
   60.8906   34.7867   45.9040 H   0  0  0  0  0  0  0  0  0  0  0  0
   60.3598   33.0707   45.9040 H   0  0  0  0  0  0  0  0  0  0  0  0
   60.7710   30.1510   46.3020 C   0  0  0  0  0  0  0  0  0  0  0  0
   61.3269   30.2315   45.3562 H   0  0  0  0  0  0  0  0  0  0  0  0
  1  2  1  0
  2  3  1  0
  3  4  2  0
  3  5  1  0
  5  6  1  0
  6  7  2  0
  7  8  1  0
  7  9  1  0
  9 10  1  0
  9 11  2  0
 11 12  1  0
 11 13  1  0
 13 14  1  0
 13 15  2  0
 15 16  1  0
 16 17  1  0
 16 18  1  0
  2 19  2  0
 19 20  1  0
 19 21  1  0
 21 22  2  0
 22 23  1  0
 22 24  1  0
 24 25  1  0
 24 26  2  0
 26 27  1  0
 26 28  1  0
 28 29  1  0
 29 30  1  0
 29 31  1  0
 31 32  2  0
 31 33  2  0
 31 34  1  0
 34 35  1  0
 34 36  1  0
 34 37  1  0
 28 38  2  0
 38 39  1  0
 15  6  1  0
 38 21  1  0
M  CHG  1   5  -1
M  END
>  <UniqueID>  (7) 
7

>  <SMILES>  (7) 
CS(=O)(=O)Nc1cccc(/C=C\C(=O)[N-]c2ccccc2N)c1

>  <Energy>  (7) 
50.52281326339982

>  <Genealogy>  (7) 
CS(=O)(=O)Nc1cccc(C=CC(=O)[N-]c2ccccc2N)c1 (protonated)
CS(=O)(=O)Nc1cccc(/C=C\C(=O)[N-]c2ccccc2N)c1 (cis-trans isomerization)
CS(=O)(=O)Nc1cccc(/C=C\C(=O)[N-]c2ccccc2N)c1 (3D coordinates assigned)
CS(=O)(=O)Nc1cccc(/C=C\C(=O)[N-]c2ccccc2N)c1 (optimized conformer: 50.52281326339982 kcal/mol)

>  <smiles>  (7) 
CS(=O)(=O)Nc1cccc(C=CC(=O)Nc2ccccc2N)c1

>  <score_type>  (7) 
oracle

>  <origin>  (7) 
adg

>  <m_score__min__energy>  (7) 
-10.49

>  <m_primary>  (7) 
energy

$$$$
7:0
     RDKit          3D

 37 38  0  0  0  0  0  0  0  0999 V2000
   63.3720   34.1470   46.3560 C   0  0  0  0  0  0  0  0  0  0  0  0
   63.3270   33.2730   47.5460 C   0  0  0  0  0  0  0  0  0  0  0  0
   64.4440   33.1550   48.3470 C   0  0  0  0  0  0  0  0  0  0  0  0
   64.4260   32.3390   49.4720 C   0  0  0  0  0  0  0  0  0  0  0  0
   65.9690   32.1820   50.5720 Br  0  0  0  0  0  0  0  0  0  0  0  0
   63.2980   31.6460   49.7900 C   0  0  0  0  0  0  0  0  0  0  0  0
   62.1950   31.7810   48.9720 C   0  0  0  0  0  0  0  0  0  0  0  0
   60.6190   30.8080   49.4230 Br  0  0  0  0  0  0  0  0  0  0  0  0
   62.1760   32.5800   47.8500 C   0  0  0  0  0  0  0  0  0  0  0  0
   61.0670   32.7370   46.9980 N   0  0  0  0  0  0  0  0  0  0  0  0
   60.1580   33.8170   47.1850 C   0  0  0  0  0  0  0  0  0  0  0  0
   60.3980   34.6030   48.1300 O   0  0  0  0  0  0  0  0  0  0  0  0
   59.0200   33.9200   46.2570 C   0  0  0  0  0  0  0  0  0  0  0  0
   58.9990   32.9780   45.1890 N   0  0  0  0  0  0  0  0  0  0  0  0
   58.1170   33.2840   44.1040 C   0  0  0  0  0  0  0  0  0  0  0  0
   58.7060   31.3980   45.8050 S   0  0  0  0  0  0  0  0  0  0  0  0
   59.9890   30.6020   45.9010 O   0  0  0  0  0  0  0  0  0  0  0  0
   58.1460   31.4820   47.2090 O   0  0  0  0  0  0  0  0  0  0  0  0
   57.5760   30.5440   44.7910 C   0  0  0  0  0  0  0  0  0  0  0  0
   57.8530   29.3860   44.0760 C   0  0  0  0  0  0  0  0  0  0  0  0
   56.7630   28.9990   43.4070 N   0  0  0  0  0  0  0  0  0  0  0  0
   55.8160   29.9030   43.7000 C   0  0  0  0  0  0  0  0  0  0  0  0
   56.2920   30.8340   44.5290 N   0  0  0  0  0  0  0  0  0  0  0  0
   63.4261   35.1983   46.6750 H   0  0  0  0  0  0  0  0  0  0  0  0
   64.2586   33.9006   45.7534 H   0  0  0  0  0  0  0  0  0  0  0  0
   62.4647   33.9929   45.7534 H   0  0  0  0  0  0  0  0  0  0  0  0
   65.3578   33.7121   48.0928 H   0  0  0  0  0  0  0  0  0  0  0  0
   63.2668   30.9952   50.6763 H   0  0  0  0  0  0  0  0  0  0  0  0
   60.9260   32.0470   46.2300 H   0  0  0  0  0  0  0  0  0  0  0  0
   58.0968   33.7882   46.8404 H   0  0  0  0  0  0  0  0  0  0  0  0
   59.1138   34.9070   45.7805 H   0  0  0  0  0  0  0  0  0  0  0  0
   57.1484   33.6201   44.5025 H   0  0  0  0  0  0  0  0  0  0  0  0
   58.5568   34.0821   43.4878 H   0  0  0  0  0  0  0  0  0  0  0  0
   57.9680   32.3850   43.4878 H   0  0  0  0  0  0  0  0  0  0  0  0
   58.8224   28.8664   44.0625 H   0  0  0  0  0  0  0  0  0  0  0  0
   56.6170   28.1760   42.7750 H   0  0  0  0  0  0  0  0  0  0  0  0
   54.7877   29.8799   43.3101 H   0  0  0  0  0  0  0  0  0  0  0  0
  1  2  1  0
  2  3  2  0
  3  4  1  0
  4  5  1  0
  4  6  2  0
  6  7  1  0
  7  8  1  0
  7  9  2  0
  9 10  1  0
 10 11  1  0
 11 12  2  0
 11 13  1  0
 13 14  1  0
 14 15  1  0
 14 16  1  0
 16 17  2  0
 16 18  2  0
 16 19  1  0
 19 20  2  0
 20 21  1  0
 21 22  1  0
 22 23  2  0
  9  2  1  0
 23 19  1  0
  1 24  1  0
  1 25  1  0
  1 26  1  0
  3 27  1  0
  6 28  1  0
 10 29  1  0
 13 30  1  0
 13 31  1  0
 15 32  1  0
 15 33  1  0
 15 34  1  0
 20 35  1  0
 21 36  1  0
 22 37  1  0
M  END
>  <smiles>  (8) 
Cc1cc(Br)cc(Br)c1NC(=O)CN(C)S(=O)(=O)c1c[nH]cn1

>  <score_type>  (8) 
oracle

>  <origin>  (8) 
adg

>  <m_score__min__energy>  (8) 
-8.2799999999999994

>  <m_primary>  (8) 
energy

$$$$
8:0
     RDKit          3D

 40 42  0  0  1  0  0  0  0  0999 V2000
   55.8300   22.7490   42.8980 C   0  0  0  0  0  0  0  0  0  0  0  0
   56.6350   23.4030   43.9400 C   0  0  0  0  0  0  0  0  0  0  0  0
   56.2110   24.5820   44.5010 C   0  0  0  0  0  0  0  0  0  0  0  0
   56.9460   25.2380   45.4940 C   0  0  0  0  0  0  0  0  0  0  0  0
   56.4660   26.4970   46.0730 C   0  0  2  0  0  0  0  0  0  0  0  0
   55.0800   26.5540   46.1770 O   0  0  0  0  0  0  0  0  0  0  0  0
   57.0370   27.6820   45.3630 C   0  0  0  0  0  0  0  0  0  0  0  0
   57.2880   28.8630   45.9550 N   0  0  0  0  0  0  0  0  0  0  0  0
   57.7980   29.7280   45.0570 C   0  0  0  0  0  0  0  0  0  0  0  0
   58.1960   31.1080   45.3260 C   0  0  0  0  0  0  0  0  0  0  0  0
   57.5500   32.1200   44.6420 C   0  0  0  0  0  0  0  0  0  0  0  0
   57.9510   33.4090   44.9200 C   0  0  0  0  0  0  0  0  0  0  0  0
   58.9520   33.6990   45.8360 C   0  0  0  0  0  0  0  0  0  0  0  0
   59.3860   35.0490   46.1400 C   0  0  0  0  0  0  0  0  0  0  0  0
   59.5570   35.3890   47.5270 N   0  0  0  0  0  0  0  0  0  0  0  0
   59.6130   35.9170   45.2570 O   0  0  0  0  0  0  0  0  0  0  0  0
   59.5840   32.6630   46.5080 C   0  0  0  0  0  0  0  0  0  0  0  0
   59.1950   31.3640   46.2420 C   0  0  0  0  0  0  0  0  0  0  0  0
   57.8630   29.0480   43.8570 C   0  0  0  0  0  0  0  0  0  0  0  0
   57.3920   27.8050   44.0730 N   0  0  0  0  0  0  0  0  0  0  0  0
   58.1320   24.6470   45.8960 C   0  0  0  0  0  0  0  0  0  0  0  0
   58.5710   23.4600   45.3410 C   0  0  0  0  0  0  0  0  0  0  0  0
   57.8190   22.8410   44.3630 C   0  0  0  0  0  0  0  0  0  0  0  0
   58.1950   21.6730   43.7770 F   0  0  0  0  0  0  0  0  0  0  0  0
   55.0587   22.1224   43.3698 H   0  0  0  0  0  0  0  0  0  0  0  0
   55.3481   23.5147   42.2723 H   0  0  0  0  0  0  0  0  0  0  0  0
   56.4808   22.1205   42.2723 H   0  0  0  0  0  0  0  0  0  0  0  0
   55.2638   25.0246   44.1590 H   0  0  0  0  0  0  0  0  0  0  0  0
   56.8394   26.5292   47.1072 H   0  0  0  0  0  0  0  0  0  0  0  0
   54.7800   27.4700   46.3460 H   0  0  0  0  0  0  0  0  0  0  0  0
   56.7552   31.9074   43.9119 H   0  0  0  0  0  0  0  0  0  0  0  0
   57.4581   34.2405   44.3950 H   0  0  0  0  0  0  0  0  0  0  0  0
   60.5360   35.6480   47.8440 H   0  0  0  0  0  0  0  0  0  0  0  0
   58.7530   35.3820   48.2020 H   0  0  0  0  0  0  0  0  0  0  0  0
   60.3795   32.8715   47.2386 H   0  0  0  0  0  0  0  0  0  0  0  0
   59.6851   30.5289   46.7640 H   0  0  0  0  0  0  0  0  0  0  0  0
   58.2316   29.4479   42.9008 H   0  0  0  0  0  0  0  0  0  0  0  0
   57.3160   27.0420   43.3400 H   0  0  0  0  0  0  0  0  0  0  0  0
   58.7382   25.1332   46.6745 H   0  0  0  0  0  0  0  0  0  0  0  0
   59.5166   23.0099   45.6775 H   0  0  0  0  0  0  0  0  0  0  0  0
  1  2  1  0
  2  3  2  0
  3  4  1  0
  4  5  1  0
  5  6  1  0
  5  7  1  0
  7  8  2  0
  8  9  1  0
  9 10  1  0
 10 11  2  0
 11 12  1  0
 12 13  2  0
 13 14  1  0
 14 15  1  0
 14 16  2  0
 13 17  1  0
 17 18  2  0
  9 19  2  0
 19 20  1  0
  4 21  2  0
 21 22  1  0
 22 23  2  0
 23 24  1  0
 23  2  1  0
 20  7  1  0
 18 10  1  0
  1 25  1  0
  1 26  1  0
  1 27  1  0
  3 28  1  0
  5 29  1  1
  6 30  1  0
 11 31  1  0
 12 32  1  0
 15 33  1  0
 15 34  1  0
 17 35  1  0
 18 36  1  0
 19 37  1  0
 20 38  1  0
 21 39  1  0
 22 40  1  0
M  END
>  <smiles>  (9) 
Cc1cc(C(O)c2nc(-c3ccc(C(N)=O)cc3)c[nH]2)ccc1F

>  <score_type>  (9) 
oracle

>  <origin>  (9) 
adg

>  <m_score__min__energy>  (9) 
-8.2599999999999998

>  <m_primary>  (9) 
energy

$$$$
9:0
     RDKit          3D

 39 40  0  0  0  0  0  0  0  0999 V2000
   55.1250   29.3830   44.7920 N   0  0  0  0  0  0  0  0  0  0  0  0
   56.7030   29.9940   44.4370 S   0  0  0  0  0  0  0  0  0  0  0  0
   57.0800   29.6250   43.0300 O   0  0  0  0  0  0  0  0  0  0  0  0
   56.7010   31.4930   44.5600 O   0  0  0  0  0  0  0  0  0  0  0  0
   57.8650   29.3080   45.5680 C   0  0  0  0  0  0  0  0  0  0  0  0
   58.2010   30.0020   46.7380 C   0  0  0  0  0  0  0  0  0  0  0  0
   59.1060   29.4480   47.6470 C   0  0  0  0  0  0  0  0  0  0  0  0
   59.6600   28.1870   47.4040 C   0  0  0  0  0  0  0  0  0  0  0  0
   59.3000   27.4680   46.2540 C   0  0  0  0  0  0  0  0  0  0  0  0
   59.8280   26.1620   45.9910 N   0  0  0  0  0  0  0  0  0  0  0  0
   59.1130   24.9200   46.0760 C   0  0  0  0  0  0  0  0  0  0  0  0
   59.6590   23.8770   45.6320 O   0  0  0  0  0  0  0  0  0  0  0  0
   57.7250   24.8250   46.6480 C   0  0  0  0  0  0  0  0  0  0  0  0
   56.7350   25.1000   45.6160 N   0  0  0  0  0  0  0  0  0  0  0  0
   55.3960   25.5110   45.9060 C   0  0  0  0  0  0  0  0  0  0  0  0
   55.1290   26.7290   46.0810 O   0  0  0  0  0  0  0  0  0  0  0  0
   54.3470   24.5430   45.9990 N   0  0  0  0  0  0  0  0  0  0  0  0
   54.0150   23.6130   44.9250 C   0  0  0  0  0  0  0  0  0  0  0  0
   55.2410   22.8570   44.4870 C   0  0  0  0  0  0  0  0  0  0  0  0
   55.9060   21.9950   45.3740 C   0  0  0  0  0  0  0  0  0  0  0  0
   57.0290   21.2790   44.9520 C   0  0  0  0  0  0  0  0  0  0  0  0
   57.4950   21.4160   43.6400 C   0  0  0  0  0  0  0  0  0  0  0  0
   56.8400   22.2730   42.7520 C   0  0  0  0  0  0  0  0  0  0  0  0
   55.7160   22.9910   43.1720 C   0  0  0  0  0  0  0  0  0  0  0  0
   58.4290   28.0490   45.3240 C   0  0  0  0  0  0  0  0  0  0  0  0
   55.2140   28.7770   45.6380 H   0  0  0  0  0  0  0  0  0  0  0  0
   57.7513   30.9851   46.9413 H   0  0  0  0  0  0  0  0  0  0  0  0
   59.3830   30.0042   48.5547 H   0  0  0  0  0  0  0  0  0  0  0  0
   60.3799   27.7577   48.1163 H   0  0  0  0  0  0  0  0  0  0  0  0
   57.5642   23.8117   47.0447 H   0  0  0  0  0  0  0  0  0  0  0  0
   57.6179   25.5657   47.4541 H   0  0  0  0  0  0  0  0  0  0  0  0
   53.2586   22.8997   45.2842 H   0  0  0  0  0  0  0  0  0  0  0  0
   53.6223   24.1819   44.0694 H   0  0  0  0  0  0  0  0  0  0  0  0
   55.5411   21.8830   46.4056 H   0  0  0  0  0  0  0  0  0  0  0  0
   57.5472   20.6070   45.6519 H   0  0  0  0  0  0  0  0  0  0  0  0
   58.3771   20.8490   43.3076 H   0  0  0  0  0  0  0  0  0  0  0  0
   57.2088   22.3830   41.7215 H   0  0  0  0  0  0  0  0  0  0  0  0
   55.2017   23.6635   42.4697 H   0  0  0  0  0  0  0  0  0  0  0  0
   58.1858   27.5128   44.3949 H   0  0  0  0  0  0  0  0  0  0  0  0
  1  2  1  0
  2  3  2  0
  2  4  2  0
  2  5  1  0
  5  6  2  0
  6  7  1  0
  7  8  2  0
  8  9  1  0
  9 10  1  0
 10 11  1  0
 11 12  2  0
 11 13  1  0
 13 14  1  0
 14 15  1  0
 15 16  2  0
 15 17  1  0
 17 18  1  0
 18 19  1  0
 19 20  2  0
 20 21  1  0
 21 22  2  0
 22 23  1  0
 23 24  2  0
  9 25  2  0
 25  5  1  0
 24 19  1  0
  1 26  1  0
  6 27  1  0
  7 28  1  0
  8 29  1  0
 13 30  1  0
 13 31  1  0
 18 32  1  0
 18 33  1  0
 20 34  1  0
 21 35  1  0
 22 36  1  0
 23 37  1  0
 24 38  1  0
 25 39  1  0
M  CHG  4   1  -1  10  -1  14  -1  17  -1
M  END
>  <UniqueID>  (10) 
8

>  <SMILES>  (10) 
[NH-]S(=O)(=O)c1cccc([N-]C(=O)C[N-]C(=O)[N-]Cc2ccccc2)c1

>  <Energy>  (10) 
34.876617155685295

>  <Genealogy>  (10) 
[NH-]S(=O)(=O)c1cccc([N-]C(=O)C[N-]C(=O)[N-]Cc2ccccc2)c1 (protonated)
[NH-]S(=O)(=O)c1cccc([N-]C(=O)C[N-]C(=O)[N-]Cc2ccccc2)c1 (3D coordinates assigned)
[NH-]S(=O)(=O)c1cccc([N-]C(=O)C[N-]C(=O)[N-]Cc2ccccc2)c1 (optimized conformer: 34.876617155685295 kcal/mol)

>  <smiles>  (10) 
NS(=O)(=O)c1cccc(NC(=O)CNC(=O)NCc2ccccc2)c1

>  <score_type>  (10) 
oracle

>  <origin>  (10) 
adg

>  <m_score__min__energy>  (10) 
-15.06

>  <m_primary>  (10) 
energy

$$$$
10:0
     RDKit          3D

 39 41  0  0  0  0  0  0  0  0999 V2000
   67.7660   33.1990   51.1210 C   0  0  0  0  0  0  0  0  0  0  0  0
   66.6490   32.3660   51.4150 O   0  0  0  0  0  0  0  0  0  0  0  0
   65.5150   32.2410   50.5950 C   0  0  0  0  0  0  0  0  0  0  0  0
   65.2830   33.0930   49.5010 C   0  0  0  0  0  0  0  0  0  0  0  0
   64.1400   32.9300   48.7160 C   0  0  0  0  0  0  0  0  0  0  0  0
   63.2350   31.9140   49.0290 C   0  0  0  0  0  0  0  0  0  0  0  0
   62.0510   31.7250   48.2370 C   0  0  0  0  0  0  0  0  0  0  0  0
   61.0600   31.5690   47.5700 C   0  0  0  0  0  0  0  0  0  0  0  0
   59.8700   31.3820   46.7720 C   0  0  0  0  0  0  0  0  0  0  0  0
   59.3690   30.0860   46.6140 C   0  0  0  0  0  0  0  0  0  0  0  0
   58.2480   29.8470   45.8700 N   0  0  0  0  0  0  0  0  0  0  0  0
   57.7550   28.4710   45.7320 C   0  0  0  0  0  0  0  0  0  0  0  0
   57.5810   30.8760   45.2570 C   0  0  0  0  0  0  0  0  0  0  0  0
   56.5450   30.6360   44.5750 O   0  0  0  0  0  0  0  0  0  0  0  0
   58.0440   32.2020   45.3830 C   0  0  0  0  0  0  0  0  0  0  0  0
   57.3730   33.2730   44.7600 C   0  0  0  0  0  0  0  0  0  0  0  0
   57.8450   34.5790   44.8960 C   0  0  0  0  0  0  0  0  0  0  0  0
   58.9880   34.8360   45.6510 C   0  0  0  0  0  0  0  0  0  0  0  0
   59.6670   33.7880   46.2760 C   0  0  0  0  0  0  0  0  0  0  0  0
   59.2060   32.4600   46.1520 C   0  0  0  0  0  0  0  0  0  0  0  0
   63.4710   31.0980   50.0890 N   0  0  0  0  0  0  0  0  0  0  0  0
   64.5750   31.2320   50.8740 C   0  0  0  0  0  0  0  0  0  0  0  0
   64.7730   30.2970   52.0270 C   0  0  0  0  0  0  0  0  0  0  0  0
   68.2252   33.5415   52.0600 H   0  0  0  0  0  0  0  0  0  0  0  0
   68.5047   32.6295   50.5379 H   0  0  0  0  0  0  0  0  0  0  0  0
   67.4309   34.0695   50.5379 H   0  0  0  0  0  0  0  0  0  0  0  0
   66.0034   33.8895   49.2631 H   0  0  0  0  0  0  0  0  0  0  0  0
   63.9544   33.5952   47.8598 H   0  0  0  0  0  0  0  0  0  0  0  0
   59.8864   29.2441   47.0972 H   0  0  0  0  0  0  0  0  0  0  0  0
   57.5990   28.0356   46.7300 H   0  0  0  0  0  0  0  0  0  0  0  0
   56.8028   28.4762   45.1813 H   0  0  0  0  0  0  0  0  0  0  0  0
   58.4938   27.8703   45.1813 H   0  0  0  0  0  0  0  0  0  0  0  0
   56.4705   33.0781   44.1621 H   0  0  0  0  0  0  0  0  0  0  0  0
   57.3135   35.4081   44.4060 H   0  0  0  0  0  0  0  0  0  0  0  0
   59.3563   35.8673   45.7548 H   0  0  0  0  0  0  0  0  0  0  0  0
   60.5685   33.9993   46.8698 H   0  0  0  0  0  0  0  0  0  0  0  0
   64.6561   30.8492   52.9711 H   0  0  0  0  0  0  0  0  0  0  0  0
   64.0255   29.4914   51.9784 H   0  0  0  0  0  0  0  0  0  0  0  0
   65.7828   29.8636   51.9784 H   0  0  0  0  0  0  0  0  0  0  0  0
  1  2  1  0
  2  3  1  0
  3  4  2  0
  4  5  1  0
  5  6  2  0
  6  7  1  0
  7  8  3  0
  8  9  1  0
  9 10  2  0
 10 11  1  0
 11 12  1  0
 11 13  1  0
 13 14  2  0
 13 15  1  0
 15 16  2  0
 16 17  1  0
 17 18  2  0
 18 19  1  0
 19 20  2  0
  6 21  1  0
 21 22  2  0
 22 23  1  0
 22  3  1  0
 20  9  1  0
 20 15  1  0
  1 24  1  0
  1 25  1  0
  1 26  1  0
  4 27  1  0
  5 28  1  0
 10 29  1  0
 12 30  1  0
 12 31  1  0
 12 32  1  0
 16 33  1  0
 17 34  1  0
 18 35  1  0
 19 36  1  0
 23 37  1  0
 23 38  1  0
 23 39  1  0
M  END
>  <UniqueID>  (11) 
9

>  <SMILES>  (11) 
COc1ccc(C#Cc2cn(C)c(=O)c3ccccc23)nc1C

>  <Energy>  (11) 
44.86009520677495

>  <Genealogy>  (11) 
COc1ccc(C#Cc2cn(C)c(=O)c3ccccc23)nc1C (3D coordinates assigned)
COc1ccc(C#Cc2cn(C)c(=O)c3ccccc23)nc1C (optimized conformer: 44.86009520677495 kcal/mol)

>  <smiles>  (11) 
COc1ccc(C#Cc2cn(C)c(=O)c3ccccc23)nc1C

>  <score_type>  (11) 
oracle

>  <origin>  (11) 
adg

>  <m_score__min__energy>  (11) 
-6.6699999999999999

>  <m_primary>  (11) 
energy

$$$$
11:0
     RDKit          3D

 27 27  0  0  0  0  0  0  0  0999 V2000
   55.0050   26.3340   45.9760 N   0  0  0  0  0  0  0  0  0  0  0  0
   56.5770   25.7930   46.4440 S   0  0  0  0  0  0  0  0  0  0  0  0
   56.4430   24.8130   47.5750 O   0  0  0  0  0  0  0  0  0  0  0  0
   57.2350   25.1190   45.2740 O   0  0  0  0  0  0  0  0  0  0  0  0
   57.5160   27.1620   46.9600 N   0  0  0  0  0  0  0  0  0  0  0  0
   58.1280   27.8480   45.8200 C   0  0  0  0  0  0  0  0  0  0  0  0
   57.8420   29.3520   45.8590 C   0  0  0  0  0  0  0  0  0  0  0  0
   56.6160   29.8310   44.6480 S   0  0  0  0  0  0  0  0  0  0  0  0
   55.3640   29.0300   44.8750 O   0  0  0  0  0  0  0  0  0  0  0  0
   57.1360   29.5500   43.2670 O   0  0  0  0  0  0  0  0  0  0  0  0
   56.2770   31.5230   44.8040 N   0  0  0  0  0  0  0  0  0  0  0  0
   57.2890   32.4940   45.0810 C   0  0  0  0  0  0  0  0  0  0  0  0
   57.4500   32.9370   46.4000 C   0  0  0  0  0  0  0  0  0  0  0  0
   58.4220   33.8920   46.7120 C   0  0  0  0  0  0  0  0  0  0  0  0
   59.2500   34.3990   45.7080 C   0  0  0  0  0  0  0  0  0  0  0  0
   59.1160   33.9430   44.3940 C   0  0  0  0  0  0  0  0  0  0  0  0
   58.1440   32.9870   44.0730 C   0  0  0  0  0  0  0  0  0  0  0  0
   58.0820   32.3750   42.4260 Cl  0  0  0  0  0  0  0  0  0  0  0  0
   55.1400   27.0500   45.2280 H   0  0  0  0  0  0  0  0  0  0  0  0
   59.2161   27.6890   45.8477 H   0  0  0  0  0  0  0  0  0  0  0  0
   57.6988   27.4361   44.8947 H   0  0  0  0  0  0  0  0  0  0  0  0
   57.4745   29.6180   46.8611 H   0  0  0  0  0  0  0  0  0  0  0  0
   58.7769   29.8824   45.6250 H   0  0  0  0  0  0  0  0  0  0  0  0
   56.8076   32.5309   47.1953 H   0  0  0  0  0  0  0  0  0  0  0  0
   58.5347   34.2441   47.7480 H   0  0  0  0  0  0  0  0  0  0  0  0
   60.0081   35.1578   45.9518 H   0  0  0  0  0  0  0  0  0  0  0  0
   59.7771   34.3367   43.6079 H   0  0  0  0  0  0  0  0  0  0  0  0
  1  2  1  0
  2  3  2  0
  2  4  2  0
  2  5  1  0
  5  6  1  0
  6  7  1  0
  7  8  1  0
  8  9  2  0
  8 10  2  0
  8 11  1  0
 11 12  1  0
 12 13  2  0
 13 14  1  0
 14 15  2  0
 15 16  1  0
 16 17  2  0
 17 18  1  0
 17 12  1  0
  1 19  1  0
  6 20  1  0
  6 21  1  0
  7 22  1  0
  7 23  1  0
 13 24  1  0
 14 25  1  0
 15 26  1  0
 16 27  1  0
M  CHG  3   1  -1   5  -1  11  -1
M  END
>  <UniqueID>  (12) 
10

>  <SMILES>  (12) 
[NH-]S(=O)(=O)[N-]CCS(=O)(=O)[N-]c1ccccc1Cl

>  <Energy>  (12) 
26.13296731538136

>  <Genealogy>  (12) 
[NH-]S(=O)(=O)[N-]CCS(=O)(=O)[N-]c1ccccc1Cl (protonated)
[NH-]S(=O)(=O)[N-]CCS(=O)(=O)[N-]c1ccccc1Cl (3D coordinates assigned)
[NH-]S(=O)(=O)[N-]CCS(=O)(=O)[N-]c1ccccc1Cl (optimized conformer: 26.13296731538136 kcal/mol)

>  <smiles>  (12) 
NS(=O)(=O)NCCS(=O)(=O)Nc1ccccc1Cl

>  <score_type>  (12) 
oracle

>  <origin>  (12) 
adg

>  <m_score__min__energy>  (12) 
-13.539999999999999

>  <m_primary>  (12) 
energy

$$$$
12:0
     RDKit          3D

 39 40  0  0  0  0  0  0  0  0999 V2000
   55.1460   26.0780   46.1260 N   0  0  0  0  0  0  0  0  0  0  0  0
   56.8720   26.1630   46.0580 S   0  0  0  0  0  0  0  0  0  0  0  0
   57.3670   25.3220   44.9160 O   0  0  0  0  0  0  0  0  0  0  0  0
   57.4530   25.6330   47.3390 O   0  0  0  0  0  0  0  0  0  0  0  0
   57.3590   27.8400   45.8300 C   0  0  0  0  0  0  0  0  0  0  0  0
   58.3260   28.4050   46.6720 C   0  0  0  0  0  0  0  0  0  0  0  0
   58.6830   29.7470   46.5290 C   0  0  0  0  0  0  0  0  0  0  0  0
   58.0950   30.5410   45.5310 C   0  0  0  0  0  0  0  0  0  0  0  0
   58.4730   31.9230   45.4200 N   0  0  0  0  0  0  0  0  0  0  0  0
   57.5460   33.0020   45.2210 C   0  0  0  0  0  0  0  0  0  0  0  0
   56.3030   32.7980   45.2480 O   0  0  0  0  0  0  0  0  0  0  0  0
   58.0520   34.3540   44.8190 C   0  0  0  0  0  0  0  0  0  0  0  0
   59.4390   34.4800   45.2350 N   0  0  0  0  0  0  0  0  0  0  0  0
   59.8640   35.3970   46.2480 C   0  0  0  0  0  0  0  0  0  0  0  0
   60.0230   36.6190   45.9780 O   0  0  0  0  0  0  0  0  0  0  0  0
   60.0040   34.9130   47.6570 C   0  0  0  0  0  0  0  0  0  0  0  0
   60.9430   33.7320   47.6790 C   0  0  0  0  0  0  0  0  0  0  0  0
   62.1970   33.8530   47.0560 C   0  0  0  0  0  0  0  0  0  0  0  0
   63.0620   32.7580   46.9760 C   0  0  0  0  0  0  0  0  0  0  0  0
   62.6870   31.5290   47.5200 C   0  0  0  0  0  0  0  0  0  0  0  0
   61.4420   31.3900   48.1380 C   0  0  0  0  0  0  0  0  0  0  0  0
   60.5600   32.4770   48.2110 C   0  0  0  0  0  0  0  0  0  0  0  0
   58.8410   32.1820   49.0110 Br  0  0  0  0  0  0  0  0  0  0  0  0
   57.1090   29.9770   44.7030 C   0  0  0  0  0  0  0  0  0  0  0  0
   56.7460   28.6340   44.8520 C   0  0  0  0  0  0  0  0  0  0  0  0
   54.8040   27.0300   46.3820 H   0  0  0  0  0  0  0  0  0  0  0  0
   58.8051   27.7895   47.4477 H   0  0  0  0  0  0  0  0  0  0  0  0
   59.4318   30.1866   47.2043 H   0  0  0  0  0  0  0  0  0  0  0  0
   59.4940   32.1400   45.3320 H   0  0  0  0  0  0  0  0  0  0  0  0
   57.9825   34.4646   43.7268 H   0  0  0  0  0  0  0  0  0  0  0  0
   57.4462   35.1367   45.2990 H   0  0  0  0  0  0  0  0  0  0  0  0
   60.4104   35.7192   48.2854 H   0  0  0  0  0  0  0  0  0  0  0  0
   59.0200   34.6131   48.0468 H   0  0  0  0  0  0  0  0  0  0  0  0
   62.5008   34.8193   46.6270 H   0  0  0  0  0  0  0  0  0  0  0  0
   64.0397   32.8653   46.4835 H   0  0  0  0  0  0  0  0  0  0  0  0
   63.3715   30.6699   47.4622 H   0  0  0  0  0  0  0  0  0  0  0  0
   61.1518   30.4210   48.5703 H   0  0  0  0  0  0  0  0  0  0  0  0
   56.6206   30.5942   43.9345 H   0  0  0  0  0  0  0  0  0  0  0  0
   55.9756   28.1995   44.1981 H   0  0  0  0  0  0  0  0  0  0  0  0
  1  2  1  0
  2  3  2  0
  2  4  2  0
  2  5  1  0
  5  6  2  0
  6  7  1  0
  7  8  2  0
  8  9  1  0
  9 10  1  0
 10 11  2  0
 10 12  1  0
 12 13  1  0
 13 14  1  0
 14 15  2  0
 14 16  1  0
 16 17  1  0
 17 18  2  0
 18 19  1  0
 19 20  2  0
 20 21  1  0
 21 22  2  0
 22 23  1  0
  8 24  1  0
 24 25  2  0
 25  5  1  0
 22 17  1  0
  1 26  1  0
  6 27  1  0
  7 28  1  0
  9 29  1  0
 12 30  1  0
 12 31  1  0
 16 32  1  0
 16 33  1  0
 18 34  1  0
 19 35  1  0
 20 36  1  0
 21 37  1  0
 24 38  1  0
 25 39  1  0
M  CHG  2   1  -1  13  -1
M  END
>  <UniqueID>  (13) 
11

>  <SMILES>  (13) 
[NH-]S(=O)(=O)c1ccc(NC(=O)C[N-]C(=O)Cc2ccccc2Br)cc1

>  <Energy>  (13) 
36.85928174405341

>  <Genealogy>  (13) 
[NH-]S(=O)(=O)c1ccc(NC(=O)C[N-]C(=O)Cc2ccccc2Br)cc1 (protonated)
[NH-]S(=O)(=O)c1ccc(NC(=O)C[N-]C(=O)Cc2ccccc2Br)cc1 (3D coordinates assigned)
[NH-]S(=O)(=O)c1ccc(NC(=O)C[N-]C(=O)Cc2ccccc2Br)cc1 (optimized conformer: 36.85928174405341 kcal/mol)

>  <smiles>  (13) 
NS(=O)(=O)c1ccc(NC(=O)CNC(=O)Cc2ccccc2Br)cc1

>  <score_type>  (13) 
oracle

>  <origin>  (13) 
adg

>  <m_score__min__energy>  (13) 
-11.630000000000001

>  <m_primary>  (13) 
energy

$$$$
13:0
     RDKit          3D

 59 62  0  0  0  0  0  0  0  0999 V2000
   63.4210   32.8030   50.0960 C   0  0  0  0  0  0  0  0  0  0  0  0
   62.8230   33.9650   49.5300 O   0  0  0  0  0  0  0  0  0  0  0  0
   61.7470   33.9490   48.6290 C   0  0  0  0  0  0  0  0  0  0  0  0
   60.4200   34.1720   49.0520 C   0  0  0  0  0  0  0  0  0  0  0  0
   59.3740   34.1670   48.1290 C   0  0  0  0  0  0  0  0  0  0  0  0
   59.6300   33.9430   46.7710 C   0  0  0  0  0  0  0  0  0  0  0  0
   58.3160   34.0000   45.6010 S   0  0  0  0  0  0  0  0  0  0  0  0
   57.0080   33.9060   46.3370 O   0  0  0  0  0  0  0  0  0  0  0  0
   58.3470   35.3060   44.8580 O   0  0  0  0  0  0  0  0  0  0  0  0
   58.4120   32.6960   44.4610 N   0  0  0  0  0  0  0  0  0  0  0  0
   58.2750   31.3210   44.8300 C   0  0  0  0  0  0  0  0  0  0  0  0
   57.1810   30.5590   44.3990 C   0  0  0  0  0  0  0  0  0  0  0  0
   57.0620   29.2190   44.7740 C   0  0  0  0  0  0  0  0  0  0  0  0
   58.0450   28.6140   45.5790 C   0  0  0  0  0  0  0  0  0  0  0  0
   57.9210   27.1980   46.0020 C   0  0  0  0  0  0  0  0  0  0  0  0
   58.6910   26.7480   46.8940 O   0  0  0  0  0  0  0  0  0  0  0  0
   56.8940   26.3530   45.4530 N   0  0  0  0  0  0  0  0  0  0  0  0
   56.9170   24.9210   45.5660 C   0  0  0  0  0  0  0  0  0  0  0  0
   58.3220   23.9940   45.6430 S   0  0  0  0  0  0  0  0  0  0  0  0
   57.5340   22.5160   45.6290 C   0  0  0  0  0  0  0  0  0  0  0  0
   56.1640   22.7090   45.5150 C   0  0  0  0  0  0  0  0  0  0  0  0
   55.7940   24.0780   45.5060 C   0  0  0  0  0  0  0  0  0  0  0  0
   54.3960   24.5760   45.5320 C   0  0  0  0  0  0  0  0  0  0  0  0
   54.1140   25.9690   45.6530 N   0  0  0  0  0  0  0  0  0  0  0  0
   53.4350   23.7680   45.4370 O   0  0  0  0  0  0  0  0  0  0  0  0
   55.2220   21.5330   45.5540 C   0  0  0  0  0  0  0  0  0  0  0  0
   55.9630   20.1840   45.4070 C   0  0  0  0  0  0  0  0  0  0  0  0
   57.2430   20.1310   46.1510 N   0  0  0  0  0  0  0  0  0  0  0  0
   57.0410   20.1820   47.6090 C   0  0  0  0  0  0  0  0  0  0  0  0
   58.1870   21.1700   45.6860 C   0  0  0  0  0  0  0  0  0  0  0  0
   59.1680   29.3710   45.9620 C   0  0  0  0  0  0  0  0  0  0  0  0
   59.2810   30.7120   45.5850 C   0  0  0  0  0  0  0  0  0  0  0  0
   60.9430   33.7200   46.3430 C   0  0  0  0  0  0  0  0  0  0  0  0
   62.0030   33.7080   47.2640 C   0  0  0  0  0  0  0  0  0  0  0  0
   63.4120   33.5010   46.7810 C   0  0  0  0  0  0  0  0  0  0  0  0
   63.3864   32.8703   51.1934 H   0  0  0  0  0  0  0  0  0  0  0  0
   62.8707   31.9096   49.7659 H   0  0  0  0  0  0  0  0  0  0  0  0
   64.4679   32.7316   49.7659 H   0  0  0  0  0  0  0  0  0  0  0  0
   60.2086   34.3510   50.1165 H   0  0  0  0  0  0  0  0  0  0  0  0
   58.3426   34.3400   48.4700 H   0  0  0  0  0  0  0  0  0  0  0  0
   56.4114   31.0189   43.7616 H   0  0  0  0  0  0  0  0  0  0  0  0
   56.1942   28.6326   44.4379 H   0  0  0  0  0  0  0  0  0  0  0  0
   56.0810   26.8010   44.9760 H   0  0  0  0  0  0  0  0  0  0  0  0
   54.7750   26.6830   45.2770 H   0  0  0  0  0  0  0  0  0  0  0  0
   54.6868   21.5400   46.5150 H   0  0  0  0  0  0  0  0  0  0  0  0
   54.5269   21.6297   44.7070 H   0  0  0  0  0  0  0  0  0  0  0  0
   55.3082   19.3839   45.7825 H   0  0  0  0  0  0  0  0  0  0  0  0
   56.2022   20.0598   44.3405 H   0  0  0  0  0  0  0  0  0  0  0  0
   57.9861   19.9434   48.1187 H   0  0  0  0  0  0  0  0  0  0  0  0
   56.7129   21.1912   47.8986 H   0  0  0  0  0  0  0  0  0  0  0  0
   56.2731   19.4495   47.8986 H   0  0  0  0  0  0  0  0  0  0  0  0
   59.0396   21.2150   46.3796 H   0  0  0  0  0  0  0  0  0  0  0  0
   58.5217   20.9046   44.6723 H   0  0  0  0  0  0  0  0  0  0  0  0
   59.9625   28.9038   46.5624 H   0  0  0  0  0  0  0  0  0  0  0  0
   60.1668   31.2914   45.8843 H   0  0  0  0  0  0  0  0  0  0  0  0
   61.1470   33.5525   45.2751 H   0  0  0  0  0  0  0  0  0  0  0  0
   64.0851   33.4021   47.6454 H   0  0  0  0  0  0  0  0  0  0  0  0
   63.4602   32.5861   46.1722 H   0  0  0  0  0  0  0  0  0  0  0  0
   63.7213   34.3633   46.1722 H   0  0  0  0  0  0  0  0  0  0  0  0
  1  2  1  0
  2  3  1  0
  3  4  2  0
  4  5  1  0
  5  6  2  0
  6  7  1  0
  7  8  2  0
  7  9  2  0
  7 10  1  0
 10 11  1  0
 11 12  2  0
 12 13  1  0
 13 14  2  0
 14 15  1  0
 15 16  2  0
 15 17  1  0
 17 18  1  0
 18 19  1  0
 19 20  1  0
 20 21  2  0
 21 22  1  0
 22 23  1  0
 23 24  1  0
 23 25  2  0
 21 26  1  0
 26 27  1  0
 27 28  1  0
 28 29  1  0
 28 30  1  0
 14 31  1  0
 31 32  2  0
  6 33  1  0
 33 34  2  0
 34 35  1  0
 34  3  1  0
 32 11  1  0
 22 18  2  0
 30 20  1  0
  1 36  1  0
  1 37  1  0
  1 38  1  0
  4 39  1  0
  5 40  1  0
 12 41  1  0
 13 42  1  0
 17 43  1  0
 24 44  1  0
 26 45  1  0
 26 46  1  0
 27 47  1  0
 27 48  1  0
 29 49  1  0
 29 50  1  0
 29 51  1  0
 30 52  1  0
 30 53  1  0
 31 54  1  0
 32 55  1  0
 33 56  1  0
 35 57  1  0
 35 58  1  0
 35 59  1  0
M  CHG  2  10  -1  24  -1
M  END
>  <UniqueID>  (14) 
12

>  <SMILES>  (14) 
COc1ccc(S(=O)(=O)[N-]c2ccc(C(=O)Nc3sc4c(c3C([NH-])=O)CCN(C)C4)cc2)cc1C

>  <Energy>  (14) 
109.87712179642192

>  <Genealogy>  (14) 
COc1ccc(S(=O)(=O)[N-]c2ccc(C(=O)Nc3sc4c(c3C([NH-])=O)CCN(C)C4)cc2)cc1C (protonated)
COc1ccc(S(=O)(=O)[N-]c2ccc(C(=O)Nc3sc4c(c3C([NH-])=O)CCN(C)C4)cc2)cc1C (3D coordinates assigned)
COc1ccc(S(=O)(=O)[N-]c2ccc(C(=O)Nc3sc4c(c3C([NH-])=O)CCN(C)C4)cc2)cc1C (nonaromatic ring conformer: 109.87712179642192 kcal/mol)

>  <smiles>  (14) 
COc1ccc(S(=O)(=O)Nc2ccc(C(=O)Nc3sc4c(c3C(N)=O)CCN(C)C4)cc2)cc1C

>  <score_type>  (14) 
oracle

>  <origin>  (14) 
adg

>  <m_score__min__energy>  (14) 
-13.48

>  <m_primary>  (14) 
energy

$$$$
14:0
     RDKit          3D

 45 47  0  0  0  0  0  0  0  0999 V2000
   55.0190   26.3350   45.9090 N   0  0  0  0  0  0  0  0  0  0  0  0
   54.5880   24.6770   45.6810 S   0  0  0  0  0  0  0  0  0  0  0  0
   55.1150   23.8670   46.8310 O   0  0  0  0  0  0  0  0  0  0  0  0
   53.0920   24.5520   45.6380 O   0  0  0  0  0  0  0  0  0  0  0  0
   55.2940   24.0590   44.1570 C   0  0  0  0  0  0  0  0  0  0  0  0
   56.7070   23.5030   44.3570 C   0  0  0  0  0  0  0  0  0  0  0  0
   57.5920   24.5030   44.9480 N   0  0  0  0  0  0  0  0  0  0  0  0
   58.4390   24.3050   45.9760 C   0  0  0  0  0  0  0  0  0  0  0  0
   59.1160   25.4810   46.2160 C   0  0  0  0  0  0  0  0  0  0  0  0
   58.6180   26.3670   45.2720 C   0  0  0  0  0  0  0  0  0  0  0  0
   59.0070   27.7760   45.0830 C   0  0  0  0  0  0  0  0  0  0  0  0
   60.1430   28.1510   45.4800 O   0  0  0  0  0  0  0  0  0  0  0  0
   58.1170   28.7190   44.4610 N   0  0  0  0  0  0  0  0  0  0  0  0
   58.5100   30.1110   44.2150 C   0  0  0  0  0  0  0  0  0  0  0  0
   57.2800   30.9300   43.7600 C   0  0  0  0  0  0  0  0  0  0  0  0
   57.3940   32.3940   44.1990 C   0  0  0  0  0  0  0  0  0  0  0  0
   57.4270   32.5200   45.6760 N   0  0  0  0  0  0  0  0  0  0  0  0
   58.0050   33.8190   46.0460 C   0  0  0  0  0  0  0  0  0  0  0  0
   58.6170   34.5630   44.8710 C   0  0  0  0  0  0  0  0  0  0  0  0
   59.5170   33.8810   45.8870 C   0  0  0  0  0  0  0  0  0  0  0  0
   58.1400   31.4140   46.3680 C   0  0  0  0  0  0  0  0  0  0  0  0
   59.1770   30.7230   45.4720 C   0  0  0  0  0  0  0  0  0  0  0  0
   57.6930   25.7480   44.5120 N   0  0  0  0  0  0  0  0  0  0  0  0
   55.7780   26.5500   45.2260 H   0  0  0  0  0  0  0  0  0  0  0  0
   54.6496   23.2569   43.7679 H   0  0  0  0  0  0  0  0  0  0  0  0
   55.3589   24.8993   43.4501 H   0  0  0  0  0  0  0  0  0  0  0  0
   56.6573   22.6296   45.0239 H   0  0  0  0  0  0  0  0  0  0  0  0
   57.1109   23.2196   43.3739 H   0  0  0  0  0  0  0  0  0  0  0  0
   58.5685   23.3638   46.5304 H   0  0  0  0  0  0  0  0  0  0  0  0
   59.8798   25.6738   46.9837 H   0  0  0  0  0  0  0  0  0  0  0  0
   57.1630   28.4060   44.1760 H   0  0  0  0  0  0  0  0  0  0  0  0
   59.2562   30.1393   43.4073 H   0  0  0  0  0  0  0  0  0  0  0  0
   57.2078   30.8892   42.6631 H   0  0  0  0  0  0  0  0  0  0  0  0
   56.3822   30.4965   44.2248 H   0  0  0  0  0  0  0  0  0  0  0  0
   58.3191   32.8202   43.7836 H   0  0  0  0  0  0  0  0  0  0  0  0
   56.5109   32.9344   43.8273 H   0  0  0  0  0  0  0  0  0  0  0  0
   57.2939   34.0698   46.8469 H   0  0  0  0  0  0  0  0  0  0  0  0
   58.5270   34.1536   43.8540 H   0  0  0  0  0  0  0  0  0  0  0  0
   58.5330   35.5831   44.4682 H   0  0  0  0  0  0  0  0  0  0  0  0
   60.0781   32.9776   45.6060 H   0  0  0  0  0  0  0  0  0  0  0  0
   60.3538   34.2022   46.5246 H   0  0  0  0  0  0  0  0  0  0  0  0
   58.6547   31.8246   47.2492 H   0  0  0  0  0  0  0  0  0  0  0  0
   57.3896   30.6602   46.6484 H   0  0  0  0  0  0  0  0  0  0  0  0
   59.9280   31.4621   45.1562 H   0  0  0  0  0  0  0  0  0  0  0  0
   59.6493   29.9122   46.0461 H   0  0  0  0  0  0  0  0  0  0  0  0
  1  2  1  0
  2  3  2  0
  2  4  2  0
  2  5  1  0
  5  6  1  0
  6  7  1  0
  7  8  1  0
  8  9  2  0
  9 10  1  0
 10 11  1  0
 11 12  2  0
 11 13  1  0
 13 14  1  0
 14 15  1  0
 15 16  1  0
 16 17  1  0
 17 18  1  0
 18 19  1  0
 19 20  1  0
 17 21  1  0
 21 22  1  0
 10 23  2  0
 23  7  1  0
 22 14  1  0
 20 18  1  0
  1 24  1  0
  5 25  1  0
  5 26  1  0
  6 27  1  0
  6 28  1  0
  8 29  1  0
  9 30  1  0
 13 31  1  0
 14 32  1  0
 15 33  1  0
 15 34  1  0
 16 35  1  0
 16 36  1  0
 18 37  1  0
 19 38  1  0
 19 39  1  0
 20 40  1  0
 20 41  1  0
 21 42  1  0
 21 43  1  0
 22 44  1  0
 22 45  1  0
M  CHG  1   1  -1
M  END
>  <UniqueID>  (15) 
13

>  <SMILES>  (15) 
[NH-]S(=O)(=O)CCn1ccc(C(=O)NC2CCN(C3CC3)CC2)n1

>  <Energy>  (15) 
335.0460914959652

>  <Genealogy>  (15) 
[NH-]S(=O)(=O)CCn1ccc(C(=O)NC2CCN(C3CC3)CC2)n1 (protonated)
[NH-]S(=O)(=O)CCn1ccc(C(=O)NC2CCN(C3CC3)CC2)n1 (3D coordinates assigned)
[NH-]S(=O)(=O)CCn1ccc(C(=O)NC2CCN(C3CC3)CC2)n1 (nonaromatic ring conformer: 335.0460914959652 kcal/mol)

>  <smiles>  (15) 
NS(=O)(=O)CCn1ccc(C(=O)NC2CCN(C3CC3)CC2)n1

>  <score_type>  (15) 
oracle

>  <origin>  (15) 
adg

>  <m_score__min__energy>  (15) 
-10.33

>  <m_primary>  (15) 
energy

$$$$
15:0
     RDKit          3D

 44 47  0  0  0  0  0  0  0  0999 V2000
   58.0775   34.6074   47.6891 H   0  0  0  0  0  0  0  0  0  0  0  0
   58.1240   34.1960   46.6700 C   0  0  0  0  0  0  0  0  0  0  0  0
   57.1920   33.2380   46.2610 C   0  0  0  0  0  0  0  0  0  0  0  0
   56.4044   32.9083   46.9545 H   0  0  0  0  0  0  0  0  0  0  0  0
   57.2580   32.6930   44.9630 C   0  0  0  0  0  0  0  0  0  0  0  0
   56.2920   31.7380   44.4950 N   0  0  0  0  0  0  0  0  0  0  0  0
   56.5690   30.4090   44.0320 C   0  0  0  0  0  0  0  0  0  0  0  0
   56.1300   30.0570   42.9050 O   0  0  0  0  0  0  0  0  0  0  0  0
   57.3890   29.4630   44.8190 C   0  0  0  0  0  0  0  0  0  0  0  0
   56.8420   28.2440   45.2500 C   0  0  0  0  0  0  0  0  0  0  0  0
   55.8152   27.9729   44.9632 H   0  0  0  0  0  0  0  0  0  0  0  0
   57.5960   27.3730   46.0420 C   0  0  0  0  0  0  0  0  0  0  0  0
   57.1529   26.4294   46.3932 H   0  0  0  0  0  0  0  0  0  0  0  0
   58.9130   27.6970   46.3900 C   0  0  0  0  0  0  0  0  0  0  0  0
   59.8150   26.6510   47.4820 S   0  0  0  0  0  0  0  0  0  0  0  0
   58.8960   25.5920   48.0230 O   0  0  0  0  0  0  0  0  0  0  0  0
   60.9480   25.9790   46.7570 O   0  0  0  0  0  0  0  0  0  0  0  0
   60.4410   27.5930   48.8000 N   0  0  0  0  0  0  0  0  0  0  0  0
   60.2820   28.8790   48.9030 C   0  0  0  0  0  0  0  0  0  0  0  0
   61.1750   29.7390   48.3390 N   0  0  0  0  0  0  0  0  0  0  0  0
   61.0280   31.0870   48.4160 C   0  0  0  0  0  0  0  0  0  0  0  0
   61.9720   31.9320   47.8210 C   0  0  0  0  0  0  0  0  0  0  0  0
   62.8324   31.5048   47.2851 H   0  0  0  0  0  0  0  0  0  0  0  0
   61.8210   33.3190   47.9080 C   0  0  0  0  0  0  0  0  0  0  0  0
   62.5673   33.9825   47.4467 H   0  0  0  0  0  0  0  0  0  0  0  0
   60.7220   33.8650   48.5810 C   0  0  0  0  0  0  0  0  0  0  0  0
   60.6050   34.9570   48.6430 H   0  0  0  0  0  0  0  0  0  0  0  0
   59.7720   33.0280   49.1750 C   0  0  0  0  0  0  0  0  0  0  0  0
   58.9088   33.4614   49.7013 H   0  0  0  0  0  0  0  0  0  0  0  0
   59.9210   31.6360   49.0990 C   0  0  0  0  0  0  0  0  0  0  0  0
   58.9930   30.7680   49.6890 C   0  0  0  0  0  0  0  0  0  0  0  0
   58.1235   31.1739   50.2268 H   0  0  0  0  0  0  0  0  0  0  0  0
   59.1740   29.3850   49.5930 C   0  0  0  0  0  0  0  0  0  0  0  0
   58.4502   28.6987   50.0568 H   0  0  0  0  0  0  0  0  0  0  0  0
   59.4760   28.8930   45.9270 C   0  0  0  0  0  0  0  0  0  0  0  0
   60.5181   29.1408   46.1773 H   0  0  0  0  0  0  0  0  0  0  0  0
   58.7200   29.7720   45.1490 C   0  0  0  0  0  0  0  0  0  0  0  0
   59.1683   30.7111   44.7925 H   0  0  0  0  0  0  0  0  0  0  0  0
   58.2500   33.1430   44.0810 C   0  0  0  0  0  0  0  0  0  0  0  0
   58.3170   32.6480   42.8200 F   0  0  0  0  0  0  0  0  0  0  0  0
   59.1790   34.1040   44.4940 C   0  0  0  0  0  0  0  0  0  0  0  0
   59.9615   34.4447   43.8000 H   0  0  0  0  0  0  0  0  0  0  0  0
   59.1150   34.6320   45.7860 C   0  0  0  0  0  0  0  0  0  0  0  0
   60.0060   35.5760   46.1780 F   0  0  0  0  0  0  0  0  0  0  0  0
  1  2  1  0
  2  3  2  0
  3  4  1  0
  3  5  1  0
  5  6  1  0
  6  7  1  0
  7  8  2  0
  7  9  1  0
  9 10  2  0
 10 11  1  0
 10 12  1  0
 12 13  1  0
 12 14  2  0
 14 15  1  0
 15 16  2  0
 15 17  2  0
 15 18  1  0
 18 19  2  0
 19 20  1  0
 20 21  1  0
 21 22  2  0
 22 23  1  0
 22 24  1  0
 24 25  1  0
 24 26  2  0
 26 27  1  0
 26 28  1  0
 28 29  1  0
 28 30  2  0
 30 31  1  0
 31 32  1  0
 31 33  2  0
 33 34  1  0
 14 35  1  0
 35 36  1  0
 35 37  2  0
 37 38  1  0
  5 39  2  0
 39 40  1  0
 39 41  1  0
 41 42  1  0
 41 43  2  0
 43 44  1  0
 43  2  1  0
 37  9  1  0
 33 19  1  0
 30 21  1  0
M  CHG  2   6  -1  20  -1
M  END
>  <UniqueID>  (16) 
14

>  <SMILES>  (16) 
O=C([N-]c1ccc(F)cc1F)c1ccc(S(=O)(=O)/N=c2/ccc3ccccc3[n-]2)cc1

>  <Energy>  (16) 
58.61701124876571

>  <Genealogy>  (16) 
O=C([N-]c1ccc(F)cc1F)c1ccc(S(=O)(=O)N=c2ccc3ccccc3[n-]2)cc1 (protonated)
O=C([N-]c1ccc(F)cc1F)c1ccc(S(=O)(=O)/N=c2/ccc3ccccc3[n-]2)cc1 (cis-trans isomerization)
O=C([N-]c1ccc(F)cc1F)c1ccc(S(=O)(=O)/N=c2/ccc3ccccc3[n-]2)cc1 (3D coordinates assigned)
O=C([N-]c1ccc(F)cc1F)c1ccc(S(=O)(=O)/N=c2/ccc3ccccc3[n-]2)cc1 (optimized conformer: 58.61701124876571 kcal/mol)

>  <smiles>  (16) 
O=C(Nc1ccc(F)cc1F)c1ccc(S(=O)(=O)N=c2ccc3ccccc3[nH]2)cc1

>  <score_type>  (16) 
oracle

>  <origin>  (16) 
adg

>  <m_score__min__energy>  (16) 
-12.199999999999999

>  <m_primary>  (16) 
energy

$$$$
16:0
     RDKit          3D

 64 67  0  0  0  0  0  0  0  0999 V2000
   59.6190   34.9550   48.8750 N   0  0  0  0  0  0  0  0  0  0  0  0
   60.7930   34.3780   48.3150 C   0  0  0  0  0  0  0  0  0  0  0  0
   61.9340   34.2260   49.1200 C   0  0  0  0  0  0  0  0  0  0  0  0
   63.1290   33.7620   48.5710 C   0  0  0  0  0  0  0  0  0  0  0  0
   63.1990   33.4500   47.2120 C   0  0  0  0  0  0  0  0  0  0  0  0
   62.0710   33.5860   46.4000 C   0  0  0  0  0  0  0  0  0  0  0  0
   60.8590   34.0300   46.9450 C   0  0  0  0  0  0  0  0  0  0  0  0
   59.7180   34.1310   46.0810 N   0  0  0  0  0  0  0  0  0  0  0  0
   58.5670   33.2820   46.1630 C   0  0  0  0  0  0  0  0  0  0  0  0
   57.9840   33.1160   47.2710 O   0  0  0  0  0  0  0  0  0  0  0  0
   58.0940   32.5690   44.9560 C   0  0  0  0  0  0  0  0  0  0  0  0
   58.1900   33.1730   43.6890 C   0  0  0  0  0  0  0  0  0  0  0  0
   57.7850   32.4860   42.5450 C   0  0  0  0  0  0  0  0  0  0  0  0
   57.2880   31.1860   42.6450 C   0  0  0  0  0  0  0  0  0  0  0  0
   57.1750   30.5650   43.8980 C   0  0  0  0  0  0  0  0  0  0  0  0
   56.6640   29.1480   43.9970 C   0  0  0  0  0  0  0  0  0  0  0  0
   57.4230   28.2110   43.0430 C   0  0  0  0  0  0  0  0  0  0  0  0
   58.3200   27.3190   43.7930 N   0  0  0  0  0  0  0  0  0  0  0  0
   59.5670   27.9990   44.1740 C   0  0  0  0  0  0  0  0  0  0  0  0
   59.4770   28.5960   45.5570 C   0  0  0  0  0  0  0  0  0  0  0  0
   60.2110   29.7450   45.8810 C   0  0  0  0  0  0  0  0  0  0  0  0
   60.0880   30.3320   47.1420 C   0  0  0  0  0  0  0  0  0  0  0  0
   59.2340   29.7710   48.1070 C   0  0  0  0  0  0  0  0  0  0  0  0
   59.0780   30.3810   49.4500 C   0  0  0  0  0  0  0  0  0  0  0  0
   58.8790   29.6340   50.4490 O   0  0  0  0  0  0  0  0  0  0  0  0
   59.1490   31.8040   49.6360 N   0  0  0  0  0  0  0  0  0  0  0  0
   59.0320   32.4170   50.9290 C   0  0  0  0  0  0  0  0  0  0  0  0
   60.0670   33.2310   51.4150 C   0  0  0  0  0  0  0  0  0  0  0  0
   59.9580   33.8480   52.6630 C   0  0  0  0  0  0  0  0  0  0  0  0
   58.8150   33.6590   53.4390 C   0  0  0  0  0  0  0  0  0  0  0  0
   57.7730   32.8600   52.9630 C   0  0  0  0  0  0  0  0  0  0  0  0
   57.8680   32.2360   51.7090 C   0  0  0  0  0  0  0  0  0  0  0  0
   56.7930   31.3990   51.2590 N   0  0  0  0  0  0  0  0  0  0  0  0
   58.4950   28.6220   47.7740 C   0  0  0  0  0  0  0  0  0  0  0  0
   58.6210   28.0370   46.5170 C   0  0  0  0  0  0  0  0  0  0  0  0
   57.5690   31.2660   45.0520 C   0  0  0  0  0  0  0  0  0  0  0  0
   59.6480   35.5250   49.7520 H   0  0  0  0  0  0  0  0  0  0  0  0
   58.6820   34.7630   48.4570 H   0  0  0  0  0  0  0  0  0  0  0  0
   61.8846   34.4746   50.1904 H   0  0  0  0  0  0  0  0  0  0  0  0
   64.0169   33.6418   49.2091 H   0  0  0  0  0  0  0  0  0  0  0  0
   64.1462   33.0957   46.7792 H   0  0  0  0  0  0  0  0  0  0  0  0
   62.1342   33.3437   45.3289 H   0  0  0  0  0  0  0  0  0  0  0  0
   58.5875   34.1948   43.6001 H   0  0  0  0  0  0  0  0  0  0  0  0
   57.8576   32.9707   41.5602 H   0  0  0  0  0  0  0  0  0  0  0  0
   56.9832   30.6453   41.7368 H   0  0  0  0  0  0  0  0  0  0  0  0
   56.7955   28.7912   45.0292 H   0  0  0  0  0  0  0  0  0  0  0  0
   55.6007   29.1425   43.7151 H   0  0  0  0  0  0  0  0  0  0  0  0
   56.6981   27.6041   42.4807 H   0  0  0  0  0  0  0  0  0  0  0  0
   58.0263   28.8211   42.3546 H   0  0  0  0  0  0  0  0  0  0  0  0
   57.8400   27.0460   44.6840 H   0  0  0  0  0  0  0  0  0  0  0  0
   60.3910   27.2706   44.1531 H   0  0  0  0  0  0  0  0  0  0  0  0
   59.7446   28.8157   43.4588 H   0  0  0  0  0  0  0  0  0  0  0  0
   60.8890   30.1877   45.1365 H   0  0  0  0  0  0  0  0  0  0  0  0
   60.6628   31.2388   47.3815 H   0  0  0  0  0  0  0  0  0  0  0  0
   59.3190   32.4300   48.8200 H   0  0  0  0  0  0  0  0  0  0  0  0
   60.9714   33.3842   50.8079 H   0  0  0  0  0  0  0  0  0  0  0  0
   60.7750   34.4840   53.0344 H   0  0  0  0  0  0  0  0  0  0  0  0
   58.7340   34.1389   54.4255 H   0  0  0  0  0  0  0  0  0  0  0  0
   56.8705   32.7185   53.5757 H   0  0  0  0  0  0  0  0  0  0  0  0
   55.8340   31.7710   51.0940 H   0  0  0  0  0  0  0  0  0  0  0  0
   56.9460   30.3740   51.1120 H   0  0  0  0  0  0  0  0  0  0  0  0
   57.8107   28.1811   48.5138 H   0  0  0  0  0  0  0  0  0  0  0  0
   58.0458   27.1310   46.2754 H   0  0  0  0  0  0  0  0  0  0  0  0
   57.4660   30.7917   46.0391 H   0  0  0  0  0  0  0  0  0  0  0  0
  1  2  1  0
  2  3  2  0
  3  4  1  0
  4  5  2  0
  5  6  1  0
  6  7  2  0
  7  8  1  0
  8  9  1  0
  9 10  2  0
  9 11  1  0
 11 12  2  0
 12 13  1  0
 13 14  2  0
 14 15  1  0
 15 16  1  0
 16 17  1  0
 17 18  1  0
 18 19  1  0
 19 20  1  0
 20 21  2  0
 21 22  1  0
 22 23  2  0
 23 24  1  0
 24 25  2  0
 24 26  1  0
 26 27  1  0
 27 28  2  0
 28 29  1  0
 29 30  2  0
 30 31  1  0
 31 32  2  0
 32 33  1  0
 23 34  1  0
 34 35  2  0
 15 36  2  0
  7  2  1  0
 36 11  1  0
 35 20  1  0
 32 27  1  0
  1 37  1  0
  1 38  1  0
  3 39  1  0
  4 40  1  0
  5 41  1  0
  6 42  1  0
 12 43  1  0
 13 44  1  0
 14 45  1  0
 16 46  1  0
 16 47  1  0
 17 48  1  0
 17 49  1  0
 18 50  1  0
 19 51  1  0
 19 52  1  0
 21 53  1  0
 22 54  1  0
 26 55  1  0
 28 56  1  0
 29 57  1  0
 30 58  1  0
 31 59  1  0
 33 60  1  0
 33 61  1  0
 34 62  1  0
 35 63  1  0
 36 64  1  0
M  CHG  1   8  -1
M  END
>  <UniqueID>  (17) 
15

>  <SMILES>  (17) 
Nc1ccccc1[N-]C(=O)c1cccc(CCNCc2ccc(C(=O)Nc3ccccc3N)cc2)c1

>  <Energy>  (17) 
82.28978666996616

>  <Genealogy>  (17) 
Nc1ccccc1[N-]C(=O)c1cccc(CCNCc2ccc(C(=O)Nc3ccccc3N)cc2)c1 (protonated)
Nc1ccccc1[N-]C(=O)c1cccc(CCNCc2ccc(C(=O)Nc3ccccc3N)cc2)c1 (3D coordinates assigned)
Nc1ccccc1[N-]C(=O)c1cccc(CCNCc2ccc(C(=O)Nc3ccccc3N)cc2)c1 (optimized conformer: 82.28978666996616 kcal/mol)

>  <smiles>  (17) 
Nc1ccccc1NC(=O)c1ccc(CNCCc2cccc(C(=O)Nc3ccccc3N)c2)cc1

>  <score_type>  (17) 
oracle

>  <origin>  (17) 
adg

>  <m_score__min__energy>  (17) 
-11.619999999999999

>  <m_primary>  (17) 
energy

$$$$
17:0
     RDKit          3D

 42 43  0  0  0  0  0  0  0  0999 V2000
   57.3210   27.9760   45.4440 C   0  0  0  0  0  0  0  0  0  0  0  0
   57.4240   28.7930   44.1560 C   0  0  0  0  0  0  0  0  0  0  0  0
   56.2290   29.7370   43.9780 C   0  0  0  0  0  0  0  0  0  0  0  0
   56.3330   30.8950   44.8630 N   0  0  0  0  0  0  0  0  0  0  0  0
   57.2480   31.9760   44.6420 C   0  0  0  0  0  0  0  0  0  0  0  0
   57.9530   32.0130   43.5980 O   0  0  0  0  0  0  0  0  0  0  0  0
   57.4090   33.0400   45.6830 C   0  0  0  0  0  0  0  0  0  0  0  0
   58.6710   32.8770   46.4180 N   0  0  0  0  0  0  0  0  0  0  0  0
   59.1180   31.5780   46.8630 C   0  0  0  0  0  0  0  0  0  0  0  0
   59.8180   30.7210   45.9930 C   0  0  0  0  0  0  0  0  0  0  0  0
   60.2730   29.4760   46.4390 C   0  0  0  0  0  0  0  0  0  0  0  0
   60.0400   29.0740   47.7560 C   0  0  0  0  0  0  0  0  0  0  0  0
   59.3480   29.9170   48.6300 C   0  0  0  0  0  0  0  0  0  0  0  0
   58.8920   31.1620   48.1880 C   0  0  0  0  0  0  0  0  0  0  0  0
   59.6160   34.2980   46.7720 S   0  0  0  0  0  0  0  0  0  0  0  0
   59.7400   35.1630   45.5480 O   0  0  0  0  0  0  0  0  0  0  0  0
   58.9340   35.0800   47.8600 O   0  0  0  0  0  0  0  0  0  0  0  0
   61.2380   33.8240   47.2700 C   0  0  0  0  0  0  0  0  0  0  0  0
   61.4660   33.4380   48.6000 C   0  0  0  0  0  0  0  0  0  0  0  0
   62.7490   33.0660   49.0130 C   0  0  0  0  0  0  0  0  0  0  0  0
   63.8090   33.0790   48.0990 C   0  0  0  0  0  0  0  0  0  0  0  0
   63.5860   33.4630   46.7720 C   0  0  0  0  0  0  0  0  0  0  0  0
   62.3040   33.8350   46.3570 C   0  0  0  0  0  0  0  0  0  0  0  0
   57.4056   28.6470   46.3116 H   0  0  0  0  0  0  0  0  0  0  0  0
   56.3506   27.4589   45.4736 H   0  0  0  0  0  0  0  0  0  0  0  0
   58.1327   27.2342   45.4736 H   0  0  0  0  0  0  0  0  0  0  0  0
   58.3471   29.3905   44.1872 H   0  0  0  0  0  0  0  0  0  0  0  0
   57.4325   28.0919   43.3085 H   0  0  0  0  0  0  0  0  0  0  0  0
   56.1987   30.0845   42.9348 H   0  0  0  0  0  0  0  0  0  0  0  0
   55.3105   29.1871   44.2309 H   0  0  0  0  0  0  0  0  0  0  0  0
   57.4035   34.0250   45.1933 H   0  0  0  0  0  0  0  0  0  0  0  0
   56.5765   32.9576   46.3973 H   0  0  0  0  0  0  0  0  0  0  0  0
   60.0084   31.0326   44.9554 H   0  0  0  0  0  0  0  0  0  0  0  0
   60.8159   28.8116   45.7506 H   0  0  0  0  0  0  0  0  0  0  0  0
   60.4006   28.0952   48.1050 H   0  0  0  0  0  0  0  0  0  0  0  0
   59.1621   29.6003   49.6669 H   0  0  0  0  0  0  0  0  0  0  0  0
   58.3517   31.8225   48.8821 H   0  0  0  0  0  0  0  0  0  0  0  0
   60.6336   33.4281   49.3190 H   0  0  0  0  0  0  0  0  0  0  0  0
   62.9252   32.7633   50.0557 H   0  0  0  0  0  0  0  0  0  0  0  0
   64.8184   32.7870   48.4242 H   0  0  0  0  0  0  0  0  0  0  0  0
   64.4201   33.4721   46.0549 H   0  0  0  0  0  0  0  0  0  0  0  0
   62.1304   34.1367   45.3135 H   0  0  0  0  0  0  0  0  0  0  0  0
  1  2  1  0
  2  3  1  0
  3  4  1  0
  4  5  1  0
  5  6  2  0
  5  7  1  0
  7  8  1  0
  8  9  1  0
  9 10  2  0
 10 11  1  0
 11 12  2  0
 12 13  1  0
 13 14  2  0
  8 15  1  0
 15 16  2  0
 15 17  2  0
 15 18  1  0
 18 19  2  0
 19 20  1  0
 20 21  2  0
 21 22  1  0
 22 23  2  0
 14  9  1  0
 23 18  1  0
  1 24  1  0
  1 25  1  0
  1 26  1  0
  2 27  1  0
  2 28  1  0
  3 29  1  0
  3 30  1  0
  7 31  1  0
  7 32  1  0
 10 33  1  0
 11 34  1  0
 12 35  1  0
 13 36  1  0
 14 37  1  0
 19 38  1  0
 20 39  1  0
 21 40  1  0
 22 41  1  0
 23 42  1  0
M  CHG  1   4  -1
M  END
>  <UniqueID>  (18) 
16

>  <SMILES>  (18) 
CCC[N-]C(=O)CN(c1ccccc1)S(=O)(=O)c1ccccc1

>  <Energy>  (18) 
38.270632916998615

>  <Genealogy>  (18) 
CCC[N-]C(=O)CN(c1ccccc1)S(=O)(=O)c1ccccc1 (protonated)
CCC[N-]C(=O)CN(c1ccccc1)S(=O)(=O)c1ccccc1 (3D coordinates assigned)
CCC[N-]C(=O)CN(c1ccccc1)S(=O)(=O)c1ccccc1 (optimized conformer: 38.270632916998615 kcal/mol)

>  <smiles>  (18) 
CCCNC(=O)CN(c1ccccc1)S(=O)(=O)c1ccccc1

>  <score_type>  (18) 
oracle

>  <origin>  (18) 
adg

>  <m_score__min__energy>  (18) 
-9.8599999999999994

>  <m_primary>  (18) 
energy

$$$$
18:0
     RDKit          3D

 39 40  0  0  1  0  0  0  0  0999 V2000
   55.9590   29.7210   43.4940 C   0  0  0  0  0  0  0  0  0  0  0  0
   56.2900   30.6670   44.5190 O   0  0  0  0  0  0  0  0  0  0  0  0
   57.2770   31.6190   44.3230 C   0  0  0  0  0  0  0  0  0  0  0  0
   57.5780   32.0400   43.1700 O   0  0  0  0  0  0  0  0  0  0  0  0
   57.9910   32.1500   45.4820 C   0  0  0  0  0  0  0  0  0  0  0  0
   59.0260   31.4390   46.0630 C   0  0  0  0  0  0  0  0  0  0  0  0
   59.7270   31.9100   47.1630 C   0  0  0  0  0  0  0  0  0  0  0  0
   59.3610   33.1350   47.6830 C   0  0  0  0  0  0  0  0  0  0  0  0
   60.0380   33.7460   48.8630 C   0  0  0  0  0  0  0  0  0  0  0  0
   59.2880   33.4480   50.0170 N   0  0  0  0  0  0  0  0  0  0  0  0
   58.9130   32.2650   50.3860 C   0  0  0  0  0  0  0  0  0  0  0  0
   59.8470   31.2660   50.3180 C   0  0  0  0  0  0  0  0  0  0  0  0
   59.5670   29.9550   50.6860 C   0  0  0  0  0  0  0  0  0  0  0  0
   60.5390   28.9650   50.6040 O   0  0  0  0  0  0  0  0  0  0  0  0
   60.6600   28.2890   49.3640 C   0  0  0  0  0  0  0  0  0  0  0  0
   58.3120   29.7210   51.1160 N   0  0  0  0  0  0  0  0  0  0  0  0
   57.3850   30.7150   51.1830 C   0  0  0  0  0  0  0  0  0  0  0  0
   56.1010   30.3810   51.6450 O   0  0  0  0  0  0  0  0  0  0  0  0
   55.9240   30.2520   53.0450 C   0  0  0  0  0  0  0  0  0  0  0  0
   57.6740   31.9840   50.8220 N   0  0  0  0  0  0  0  0  0  0  0  0
   58.3270   33.8630   47.1170 C   0  0  0  0  0  0  0  0  0  0  0  0
   57.6460   33.3710   46.0210 C   0  0  0  0  0  0  0  0  0  0  0  0
   55.6294   28.7791   43.9569 H   0  0  0  0  0  0  0  0  0  0  0  0
   55.1490   30.1256   42.8693 H   0  0  0  0  0  0  0  0  0  0  0  0
   56.8445   29.5324   42.8693 H   0  0  0  0  0  0  0  0  0  0  0  0
   59.3032   30.4637   45.6365 H   0  0  0  0  0  0  0  0  0  0  0  0
   60.5475   31.3267   47.6063 H   0  0  0  0  0  0  0  0  0  0  0  0
   61.0522   33.3322   48.9634 H   0  0  0  0  0  0  0  0  0  0  0  0
   60.1085   34.8359   48.7324 H   0  0  0  0  0  0  0  0  0  0  0  0
   60.8575   31.5102   49.9584 H   0  0  0  0  0  0  0  0  0  0  0  0
   60.8511   27.2211   49.5457 H   0  0  0  0  0  0  0  0  0  0  0  0
   59.7273   28.4024   48.7920 H   0  0  0  0  0  0  0  0  0  0  0  0
   61.4955   28.7189   48.7920 H   0  0  0  0  0  0  0  0  0  0  0  0
   56.7063   30.8221   53.5676 H   0  0  0  0  0  0  0  0  0  0  0  0
   54.9352   30.6427   53.3271 H   0  0  0  0  0  0  0  0  0  0  0  0
   55.9932   29.1910   53.3271 H   0  0  0  0  0  0  0  0  0  0  0  0
   56.9620   32.7500   50.8730 H   0  0  0  0  0  0  0  0  0  0  0  0
   58.0471   34.8379   47.5428 H   0  0  0  0  0  0  0  0  0  0  0  0
   56.8262   33.9548   45.5770 H   0  0  0  0  0  0  0  0  0  0  0  0
  1  2  1  0
  2  3  1  0
  3  4  2  0
  3  5  1  0
  5  6  2  0
  6  7  1  0
  7  8  2  0
  8  9  1  0
  9 10  1  0
 10 11  2  0
 11 12  1  0
 12 13  2  0
 13 14  1  0
 14 15  1  0
 13 16  1  0
 16 17  2  0
 17 18  1  0
 18 19  1  0
 17 20  1  0
  8 21  1  0
 21 22  2  0
 22  5  1  0
 20 11  1  0
  1 23  1  0
  1 24  1  0
  1 25  1  0
  6 26  1  0
  7 27  1  0
  9 28  1  0
  9 29  1  0
 12 30  1  0
 15 31  1  0
 15 32  1  0
 15 33  1  0
 19 34  1  0
 19 35  1  0
 19 36  1  0
 20 37  1  0
 21 38  1  0
 22 39  1  0
M  END
>  <smiles>  (19) 
COC(=O)c1ccc(CN=c2cc(OC)nc(OC)[nH]2)cc1

>  <score_type>  (19) 
oracle

>  <origin>  (19) 
adg

>  <m_score__min__energy>  (19) 
-6.8700000000000001

>  <m_primary>  (19) 
energy

$$$$
19:0
     RDKit          3D

 29 30  0  0  0  0  0  0  0  0999 V2000
   54.7640   26.3560   46.0000 N   0  0  0  0  0  0  0  0  0  0  0  0
   55.9300   25.0900   46.1500 S   0  0  0  0  0  0  0  0  0  0  0  0
   55.7210   24.3710   47.4530 O   0  0  0  0  0  0  0  0  0  0  0  0
   55.7530   24.1090   45.0240 O   0  0  0  0  0  0  0  0  0  0  0  0
   57.5520   25.7730   46.0930 C   0  0  0  0  0  0  0  0  0  0  0  0
   58.6720   24.9450   46.2430 C   0  0  0  0  0  0  0  0  0  0  0  0
   59.9560   25.4930   46.2290 C   0  0  0  0  0  0  0  0  0  0  0  0
   60.1290   26.8690   46.0630 C   0  0  0  0  0  0  0  0  0  0  0  0
   59.0180   27.7100   45.8940 C   0  0  0  0  0  0  0  0  0  0  0  0
   59.2230   29.1260   45.7530 N   0  0  0  0  0  0  0  0  0  0  0  0
   58.1510   30.0820   45.6430 C   0  0  0  0  0  0  0  0  0  0  0  0
   56.9590   29.6820   45.5570 O   0  0  0  0  0  0  0  0  0  0  0  0
   58.4200   31.5410   45.6190 C   0  0  0  0  0  0  0  0  0  0  0  0
   57.6250   32.4300   44.8730 C   0  0  0  0  0  0  0  0  0  0  0  0
   57.9050   33.7970   44.8790 C   0  0  0  0  0  0  0  0  0  0  0  0
   58.9770   34.2730   45.6370 C   0  0  0  0  0  0  0  0  0  0  0  0
   59.2430   35.5040   45.6540 O   0  0  0  0  0  0  0  0  0  0  0  0
   59.7310   33.4080   46.3640 N   0  0  0  0  0  0  0  0  0  0  0  0
   59.4790   32.0720   46.3750 C   0  0  0  0  0  0  0  0  0  0  0  0
   57.7270   27.1540   45.9340 C   0  0  0  0  0  0  0  0  0  0  0  0
   55.1560   27.0530   45.3280 H   0  0  0  0  0  0  0  0  0  0  0  0
   58.5395   23.8607   46.3721 H   0  0  0  0  0  0  0  0  0  0  0  0
   60.8330   24.8399   46.3489 H   0  0  0  0  0  0  0  0  0  0  0  0
   61.1426   27.2964   46.0647 H   0  0  0  0  0  0  0  0  0  0  0  0
   60.2110   29.4530   45.6790 H   0  0  0  0  0  0  0  0  0  0  0  0
   56.7797   32.0462   44.2829 H   0  0  0  0  0  0  0  0  0  0  0  0
   57.2873   34.4930   44.2924 H   0  0  0  0  0  0  0  0  0  0  0  0
   60.1082   31.4023   46.9796 H   0  0  0  0  0  0  0  0  0  0  0  0
   56.8478   27.8083   45.8397 H   0  0  0  0  0  0  0  0  0  0  0  0
  1  2  1  0
  2  3  2  0
  2  4  2  0
  2  5  1  0
  5  6  2  0
  6  7  1  0
  7  8  2  0
  8  9  1  0
  9 10  1  0
 10 11  1  0
 11 12  2  0
 11 13  1  0
 13 14  1  0
 14 15  2  0
 15 16  1  0
 16 17  2  0
 16 18  1  0
 18 19  1  0
  9 20  2  0
 20  5  1  0
 19 13  2  0
  1 21  1  0
  6 22  1  0
  7 23  1  0
  8 24  1  0
 10 25  1  0
 14 26  1  0
 15 27  1  0
 19 28  1  0
 20 29  1  0
M  CHG  2   1  -1  18  -1
M  END
>  <UniqueID>  (20) 
17

>  <SMILES>  (20) 
[NH-]S(=O)(=O)c1cccc(NC(=O)c2ccc(=O)[n-]c2)c1

>  <Energy>  (20) 
37.27789576451666

>  <Genealogy>  (20) 
[NH-]S(=O)(=O)c1cccc(NC(=O)c2ccc(=O)[n-]c2)c1 (protonated)
[NH-]S(=O)(=O)c1cccc(NC(=O)c2ccc(=O)[n-]c2)c1 (3D coordinates assigned)
[NH-]S(=O)(=O)c1cccc(NC(=O)c2ccc(=O)[n-]c2)c1 (optimized conformer: 37.27789576451666 kcal/mol)

>  <smiles>  (20) 
NS(=O)(=O)c1cccc(NC(=O)c2ccc(=O)[nH]c2)c1

>  <score_type>  (20) 
oracle

>  <origin>  (20) 
adg

>  <m_score__min__energy>  (20) 
-10.949999999999999

>  <m_primary>  (20) 
energy

$$$$
20:0
     RDKit          3D

 66 70  0  0  0  0  0  0  0  0999 V2000
   57.4230   26.2910   44.6410 O   0  0  0  0  0  0  0  0  0  0  0  0
   57.2060   26.7360   45.7990 C   0  0  0  0  0  0  0  0  0  0  0  0
   56.1250   26.1820   46.5600 N   0  0  0  0  0  0  0  0  0  0  0  0
   55.8890   24.7590   46.7580 C   0  0  0  0  0  0  0  0  0  0  0  0
   55.1800   24.1910   45.5290 C   0  0  0  0  0  0  0  0  0  0  0  0
   56.0690   23.2310   44.7840 C   0  0  0  0  0  0  0  0  0  0  0  0
   57.1170   22.5710   45.4460 C   0  0  0  0  0  0  0  0  0  0  0  0
   57.9440   21.6860   44.7460 C   0  0  0  0  0  0  0  0  0  0  0  0
   57.7240   21.4480   43.3840 C   0  0  0  0  0  0  0  0  0  0  0  0
   56.6690   22.0830   42.7260 C   0  0  0  0  0  0  0  0  0  0  0  0
   55.8410   22.9700   43.4220 C   0  0  0  0  0  0  0  0  0  0  0  0
   58.0890   27.7890   46.3440 C   0  0  0  0  0  0  0  0  0  0  0  0
   58.6380   27.6480   47.6290 C   0  0  0  0  0  0  0  0  0  0  0  0
   59.4570   28.6490   48.1610 C   0  0  0  0  0  0  0  0  0  0  0  0
   59.7190   29.8050   47.4210 C   0  0  0  0  0  0  0  0  0  0  0  0
   59.1680   29.9590   46.1480 C   0  0  0  0  0  0  0  0  0  0  0  0
   58.3640   28.9530   45.5970 C   0  0  0  0  0  0  0  0  0  0  0  0
   57.8140   29.1150   44.2890 N   0  0  0  0  0  0  0  0  0  0  0  0
   56.2960   29.9090   44.0140 S   0  0  0  0  0  0  0  0  0  0  0  0
   56.0650   30.0990   42.5410 O   0  0  0  0  0  0  0  0  0  0  0  0
   55.1980   29.0290   44.5380 O   0  0  0  0  0  0  0  0  0  0  0  0
   56.2380   31.4220   44.8670 N   0  0  0  0  0  0  0  0  0  0  0  0
   57.2840   32.3950   45.0140 C   0  0  0  0  0  0  0  0  0  0  0  0
   58.0170   32.9030   43.9270 C   0  0  0  0  0  0  0  0  0  0  0  0
   59.0280   33.8450   44.1390 C   0  0  0  0  0  0  0  0  0  0  0  0
   59.3200   34.2870   45.4320 C   0  0  0  0  0  0  0  0  0  0  0  0
   58.5970   33.7930   46.5280 C   0  0  0  0  0  0  0  0  0  0  0  0
   58.9270   34.2380   47.9300 C   0  0  0  0  0  0  0  0  0  0  0  0
   59.8460   33.2580   48.6150 C   0  0  0  0  0  0  0  0  0  0  0  0
   59.3480   32.5370   49.6550 N   0  0  0  0  0  0  0  0  0  0  0  0
   60.0900   31.6560   50.3260 N   0  0  0  0  0  0  0  0  0  0  0  0
   61.3890   31.4270   50.0060 C   0  0  0  0  0  0  0  0  0  0  0  0
   62.0510   30.5840   50.6690 O   0  0  0  0  0  0  0  0  0  0  0  0
   61.9750   32.1300   48.9420 C   0  0  0  0  0  0  0  0  0  0  0  0
   61.2020   33.0850   48.2490 C   0  0  0  0  0  0  0  0  0  0  0  0
   61.8020   33.8350   47.1750 N   0  0  0  0  0  0  0  0  0  0  0  0
   63.2400   33.7810   46.9200 C   0  0  0  0  0  0  0  0  0  0  0  0
   63.7610   32.3650   47.1670 C   0  0  0  0  0  0  0  0  0  0  0  0
   63.4370   31.9260   48.5980 C   0  0  0  0  0  0  0  0  0  0  0  0
   57.5850   32.8430   46.3090 C   0  0  0  0  0  0  0  0  0  0  0  0
   56.8501   24.2429   46.8995 H   0  0  0  0  0  0  0  0  0  0  0  0
   55.2613   24.6091   47.6488 H   0  0  0  0  0  0  0  0  0  0  0  0
   54.2710   23.6621   45.8514 H   0  0  0  0  0  0  0  0  0  0  0  0
   54.9257   25.0240   44.8570 H   0  0  0  0  0  0  0  0  0  0  0  0
   57.2881   22.7504   46.5177 H   0  0  0  0  0  0  0  0  0  0  0  0
   58.7683   21.1764   45.2665 H   0  0  0  0  0  0  0  0  0  0  0  0
   58.3823   20.7608   42.8324 H   0  0  0  0  0  0  0  0  0  0  0  0
   56.4887   21.8856   41.6590 H   0  0  0  0  0  0  0  0  0  0  0  0
   55.0082   23.4652   42.9012 H   0  0  0  0  0  0  0  0  0  0  0  0
   58.4227   26.7456   48.2200 H   0  0  0  0  0  0  0  0  0  0  0  0
   59.8952   28.5263   49.1625 H   0  0  0  0  0  0  0  0  0  0  0  0
   60.3597   30.5939   47.8419 H   0  0  0  0  0  0  0  0  0  0  0  0
   59.3663   30.8761   45.5738 H   0  0  0  0  0  0  0  0  0  0  0  0
   57.7942   32.5581   42.9065 H   0  0  0  0  0  0  0  0  0  0  0  0
   59.5962   34.2401   43.2840 H   0  0  0  0  0  0  0  0  0  0  0  0
   60.1199   35.0252   45.5911 H   0  0  0  0  0  0  0  0  0  0  0  0
   59.4192   35.2208   47.8873 H   0  0  0  0  0  0  0  0  0  0  0  0
   57.9909   34.2956   48.5049 H   0  0  0  0  0  0  0  0  0  0  0  0
   61.2260   34.4460   46.5540 H   0  0  0  0  0  0  0  0  0  0  0  0
   63.4358   34.0643   45.8753 H   0  0  0  0  0  0  0  0  0  0  0  0
   63.7538   34.4786   47.5978 H   0  0  0  0  0  0  0  0  0  0  0  0
   63.2838   31.6730   46.4575 H   0  0  0  0  0  0  0  0  0  0  0  0
   64.8518   32.3535   47.0256 H   0  0  0  0  0  0  0  0  0  0  0  0
   63.6805   30.8586   48.7049 H   0  0  0  0  0  0  0  0  0  0  0  0
   64.0349   32.5436   49.2844 H   0  0  0  0  0  0  0  0  0  0  0  0
   57.0207   32.4449   47.1652 H   0  0  0  0  0  0  0  0  0  0  0  0
  1  2  2  0
  2  3  1  0
  3  4  1  0
  4  5  1  0
  5  6  1  0
  6  7  2  0
  7  8  1  0
  8  9  2  0
  9 10  1  0
 10 11  2  0
  2 12  1  0
 12 13  2  0
 13 14  1  0
 14 15  2  0
 15 16  1  0
 16 17  2  0
 17 18  1  0
 18 19  1  0
 19 20  2  0
 19 21  2  0
 19 22  1  0
 22 23  1  0
 23 24  2  0
 24 25  1  0
 25 26  2  0
 26 27  1  0
 27 28  1  0
 28 29  1  0
 29 30  2  0
 30 31  1  0
 31 32  1  0
 32 33  2  0
 32 34  1  0
 34 35  2  0
 35 36  1  0
 36 37  1  0
 37 38  1  0
 38 39  1  0
 27 40  2  0
 11  6  1  0
 17 12  1  0
 40 23  1  0
 35 29  1  0
 39 34  1  0
  4 41  1  0
  4 42  1  0
  5 43  1  0
  5 44  1  0
  7 45  1  0
  8 46  1  0
  9 47  1  0
 10 48  1  0
 11 49  1  0
 13 50  1  0
 14 51  1  0
 15 52  1  0
 16 53  1  0
 24 54  1  0
 25 55  1  0
 26 56  1  0
 28 57  1  0
 28 58  1  0
 36 59  1  0
 37 60  1  0
 37 61  1  0
 38 62  1  0
 38 63  1  0
 39 64  1  0
 39 65  1  0
 40 66  1  0
M  CHG  4   3  -1  18  -1  22  -1  31  -1
M  END
>  <UniqueID>  (21) 
18

>  <SMILES>  (21) 
O=C([N-]CCc1ccccc1)c1ccccc1[N-]S(=O)(=O)[N-]c1cccc(Cc2n[n-]c(=O)c3c2NCCC3)c1

>  <Energy>  (21) 
86.79842496677541

>  <Genealogy>  (21) 
O=C([N-]CCc1ccccc1)c1ccccc1[N-]S(=O)(=O)[N-]c1cccc(Cc2n[n-]c(=O)c3c2NCCC3)c1 (protonated)
O=C([N-]CCc1ccccc1)c1ccccc1[N-]S(=O)(=O)[N-]c1cccc(Cc2n[n-]c(=O)c3c2NCCC3)c1 (3D coordinates assigned)
O=C([N-]CCc1ccccc1)c1ccccc1[N-]S(=O)(=O)[N-]c1cccc(Cc2n[n-]c(=O)c3c2NCCC3)c1 (nonaromatic ring conformer: 86.79842496677541 kcal/mol)

>  <smiles>  (21) 
O=C(NCCc1ccccc1)c1ccccc1NS(=O)(=O)Nc1cccc(Cc2n[nH]c(=O)c3c2NCCC3)c1

>  <score_type>  (21) 
oracle

>  <origin>  (21) 
adg

>  <m_score__min__energy>  (21) 
-16.989999999999998

>  <m_primary>  (21) 
energy

$$$$
21:0
     RDKit          3D

 42 43  0  0  0  0  0  0  0  0999 V2000
   64.2880   33.4440   49.9870 C   0  0  0  0  0  0  0  0  0  0  0  0
   63.2170   33.1200   48.9940 C   0  0  0  0  0  0  0  0  0  0  0  0
   63.4160   32.2040   48.1510 O   0  0  0  0  0  0  0  0  0  0  0  0
   61.9430   33.7820   49.0720 N   0  0  0  0  0  0  0  0  0  0  0  0
   60.9090   33.6580   48.0810 C   0  0  0  0  0  0  0  0  0  0  0  0
   61.2070   33.9300   46.7360 C   0  0  0  0  0  0  0  0  0  0  0  0
   60.2230   33.8030   45.7530 C   0  0  0  0  0  0  0  0  0  0  0  0
   58.9260   33.4030   46.0980 C   0  0  0  0  0  0  0  0  0  0  0  0
   57.6670   33.2790   44.8740 S   0  0  0  0  0  0  0  0  0  0  0  0
   56.8450   34.5370   44.8800 O   0  0  0  0  0  0  0  0  0  0  0  0
   58.2970   33.1310   43.5190 O   0  0  0  0  0  0  0  0  0  0  0  0
   56.6060   31.9450   45.2110 N   0  0  0  0  0  0  0  0  0  0  0  0
   56.6560   30.6480   44.6050 C   0  0  0  0  0  0  0  0  0  0  0  0
   55.6840   29.8660   44.7790 O   0  0  0  0  0  0  0  0  0  0  0  0
   57.8120   30.2090   43.7440 C   0  0  0  0  0  0  0  0  0  0  0  0
   58.5930   29.2010   44.3880 O   0  0  0  0  0  0  0  0  0  0  0  0
   59.1290   29.2770   45.6860 C   0  0  0  0  0  0  0  0  0  0  0  0
   60.1910   30.1450   46.0070 C   0  0  0  0  0  0  0  0  0  0  0  0
   60.6910   30.2030   47.3080 C   0  0  0  0  0  0  0  0  0  0  0  0
   60.1370   29.4000   48.3080 C   0  0  0  0  0  0  0  0  0  0  0  0
   60.7600   29.4830   49.9460 Cl  0  0  0  0  0  0  0  0  0  0  0  0
   59.0870   28.5310   48.0030 C   0  0  0  0  0  0  0  0  0  0  0  0
   58.5790   28.4600   46.6950 C   0  0  0  0  0  0  0  0  0  0  0  0
   57.4450   27.5280   46.3760 C   0  0  0  0  0  0  0  0  0  0  0  0
   58.6280   33.1080   47.4340 C   0  0  0  0  0  0  0  0  0  0  0  0
   59.6160   33.2170   48.4170 C   0  0  0  0  0  0  0  0  0  0  0  0
   63.8916   33.3241   51.0061 H   0  0  0  0  0  0  0  0  0  0  0  0
   65.1400   32.7634   49.8425 H   0  0  0  0  0  0  0  0  0  0  0  0
   64.6199   34.4827   49.8425 H   0  0  0  0  0  0  0  0  0  0  0  0
   61.7190   34.2950   49.9550 H   0  0  0  0  0  0  0  0  0  0  0  0
   62.2226   34.2453   46.4546 H   0  0  0  0  0  0  0  0  0  0  0  0
   60.4680   34.0183   44.7025 H   0  0  0  0  0  0  0  0  0  0  0  0
   57.4203   29.8072   42.7979 H   0  0  0  0  0  0  0  0  0  0  0  0
   58.4572   31.0813   43.5626 H   0  0  0  0  0  0  0  0  0  0  0  0
   60.6297   30.7824   45.2252 H   0  0  0  0  0  0  0  0  0  0  0  0
   61.5228   30.8820   47.5469 H   0  0  0  0  0  0  0  0  0  0  0  0
   58.6549   27.8980   48.7921 H   0  0  0  0  0  0  0  0  0  0  0  0
   56.9980   27.1607   47.3116 H   0  0  0  0  0  0  0  0  0  0  0  0
   56.6830   28.0643   45.7914 H   0  0  0  0  0  0  0  0  0  0  0  0
   57.8235   26.6765   45.7914 H   0  0  0  0  0  0  0  0  0  0  0  0
   57.6124   32.7892   47.7112 H   0  0  0  0  0  0  0  0  0  0  0  0
   59.3810   32.9564   49.4595 H   0  0  0  0  0  0  0  0  0  0  0  0
  1  2  1  0
  2  3  2  0
  2  4  1  0
  4  5  1  0
  5  6  2  0
  6  7  1  0
  7  8  2  0
  8  9  1  0
  9 10  2  0
  9 11  2  0
  9 12  1  0
 12 13  1  0
 13 14  2  0
 13 15  1  0
 15 16  1  0
 16 17  1  0
 17 18  2  0
 18 19  1  0
 19 20  2  0
 20 21  1  0
 20 22  1  0
 22 23  2  0
 23 24  1  0
  8 25  1  0
 25 26  2  0
 26  5  1  0
 23 17  1  0
  1 27  1  0
  1 28  1  0
  1 29  1  0
  4 30  1  0
  6 31  1  0
  7 32  1  0
 15 33  1  0
 15 34  1  0
 18 35  1  0
 19 36  1  0
 22 37  1  0
 24 38  1  0
 24 39  1  0
 24 40  1  0
 25 41  1  0
 26 42  1  0
M  CHG  1  12  -1
M  END
>  <UniqueID>  (22) 
19

>  <SMILES>  (22) 
CC(=O)Nc1ccc(S(=O)(=O)[N-]C(=O)COc2ccc(Cl)cc2C)cc1

>  <Energy>  (22) 
47.131972148515864

>  <Genealogy>  (22) 
CC(=O)Nc1ccc(S(=O)(=O)[N-]C(=O)COc2ccc(Cl)cc2C)cc1 (protonated)
CC(=O)Nc1ccc(S(=O)(=O)[N-]C(=O)COc2ccc(Cl)cc2C)cc1 (3D coordinates assigned)
CC(=O)Nc1ccc(S(=O)(=O)[N-]C(=O)COc2ccc(Cl)cc2C)cc1 (optimized conformer: 47.131972148515864 kcal/mol)

>  <smiles>  (22) 
CC(=O)Nc1ccc(S(=O)(=O)NC(=O)COc2ccc(Cl)cc2C)cc1

>  <score_type>  (22) 
oracle

>  <origin>  (22) 
adg

>  <m_score__min__energy>  (22) 
-9.3800000000000008

>  <m_primary>  (22) 
energy

$$$$
22:0
     RDKit          3D

 52 54  0  0  0  0  0  0  0  0999 V2000
   56.7740   29.9290   43.1250 C   0  0  0  0  0  0  0  0  0  0  0  0
   57.7560   29.6170   44.2240 C   0  0  0  0  0  0  0  0  0  0  0  0
   58.3400   28.3400   44.2730 C   0  0  0  0  0  0  0  0  0  0  0  0
   59.2710   28.0080   45.2630 C   0  0  0  0  0  0  0  0  0  0  0  0
   59.8280   26.7190   45.2420 O   0  0  0  0  0  0  0  0  0  0  0  0
   60.1260   25.9260   46.3910 C   0  0  0  0  0  0  0  0  0  0  0  0
   59.1850   26.2430   47.5200 C   0  0  0  0  0  0  0  0  0  0  0  0
   59.6520   26.4220   48.6760 O   0  0  0  0  0  0  0  0  0  0  0  0
   57.7680   26.3420   47.3270 N   0  0  0  0  0  0  0  0  0  0  0  0
   57.0160   25.7800   46.2030 C   0  0  1  0  0  0  0  0  0  0  0  0
   56.6410   24.3170   46.4950 C   0  0  0  0  0  0  0  0  0  0  0  0
   56.7580   23.4210   45.2830 C   0  0  0  0  0  0  0  0  0  0  0  0
   57.6510   22.3360   45.2850 C   0  0  0  0  0  0  0  0  0  0  0  0
   57.7730   21.5210   44.1550 C   0  0  0  0  0  0  0  0  0  0  0  0
   57.0070   21.7850   43.0160 C   0  0  0  0  0  0  0  0  0  0  0  0
   56.1180   22.8630   43.0050 C   0  0  0  0  0  0  0  0  0  0  0  0
   55.9930   23.6800   44.1330 C   0  0  0  0  0  0  0  0  0  0  0  0
   55.7970   26.6080   45.9050 C   0  0  0  0  0  0  0  0  0  0  0  0
   55.9040   27.8310   45.6190 O   0  0  0  0  0  0  0  0  0  0  0  0
   54.5350   26.0350   45.9930 O   0  0  0  0  0  0  0  0  0  0  0  0
   59.6070   28.9640   46.2350 C   0  0  0  0  0  0  0  0  0  0  0  0
   59.0240   30.2310   46.2080 C   0  0  0  0  0  0  0  0  0  0  0  0
   58.0960   30.5740   45.2100 C   0  0  0  0  0  0  0  0  0  0  0  0
   57.4790   31.9220   45.2400 C   0  0  0  0  0  0  0  0  0  0  0  0
   56.2730   32.0460   44.8900 O   0  0  0  0  0  0  0  0  0  0  0  0
   58.2310   33.1200   45.6930 C   0  0  0  0  0  0  0  0  0  0  0  0
   58.6730   34.0910   44.7730 C   0  0  0  0  0  0  0  0  0  0  0  0
   59.3720   35.2190   45.2150 C   0  0  0  0  0  0  0  0  0  0  0  0
   59.6300   35.3950   46.5750 C   0  0  0  0  0  0  0  0  0  0  0  0
   59.1870   34.4460   47.4990 C   0  0  0  0  0  0  0  0  0  0  0  0
   58.4880   33.3160   47.0630 C   0  0  0  0  0  0  0  0  0  0  0  0
   55.8139   30.2340   43.5668 H   0  0  0  0  0  0  0  0  0  0  0  0
   57.1675   30.7464   42.5028 H   0  0  0  0  0  0  0  0  0  0  0  0
   56.6236   29.0344   42.5028 H   0  0  0  0  0  0  0  0  0  0  0  0
   58.0604   27.5884   43.5200 H   0  0  0  0  0  0  0  0  0  0  0  0
   60.0291   24.8620   46.1293 H   0  0  0  0  0  0  0  0  0  0  0  0
   61.1529   26.1496   46.7158 H   0  0  0  0  0  0  0  0  0  0  0  0
   57.6544   25.7996   45.3074 H   0  0  0  0  0  0  0  0  0  0  0  0
   57.3104   23.9340   47.2793 H   0  0  0  0  0  0  0  0  0  0  0  0
   55.5873   24.3055   46.8106 H   0  0  0  0  0  0  0  0  0  0  0  0
   58.2566   22.1268   46.1791 H   0  0  0  0  0  0  0  0  0  0  0  0
   58.4721   20.6718   44.1626 H   0  0  0  0  0  0  0  0  0  0  0  0
   57.1041   21.1436   42.1276 H   0  0  0  0  0  0  0  0  0  0  0  0
   55.5157   23.0692   42.1079 H   0  0  0  0  0  0  0  0  0  0  0  0
   55.2932   24.5286   44.1201 H   0  0  0  0  0  0  0  0  0  0  0  0
   60.3336   28.7126   47.0217 H   0  0  0  0  0  0  0  0  0  0  0  0
   59.2938   30.9701   46.9767 H   0  0  0  0  0  0  0  0  0  0  0  0
   58.4671   33.9613   43.7003 H   0  0  0  0  0  0  0  0  0  0  0  0
   59.7191   35.9690   44.4890 H   0  0  0  0  0  0  0  0  0  0  0  0
   60.1825   36.2816   46.9195 H   0  0  0  0  0  0  0  0  0  0  0  0
   59.3882   34.5876   48.5711 H   0  0  0  0  0  0  0  0  0  0  0  0
   58.1365   32.5749   47.7960 H   0  0  0  0  0  0  0  0  0  0  0  0
  1  2  1  0
  2  3  2  0
  3  4  1  0
  4  5  1  0
  5  6  1  0
  6  7  1  0
  7  8  2  0
  7  9  1  0
  9 10  1  0
 10 11  1  0
 11 12  1  0
 12 13  2  0
 13 14  1  0
 14 15  2  0
 15 16  1  0
 16 17  2  0
 10 18  1  0
 18 19  2  0
 18 20  1  0
  4 21  2  0
 21 22  1  0
 22 23  2  0
 23 24  1  0
 24 25  2  0
 24 26  1  0
 26 27  2  0
 27 28  1  0
 28 29  2  0
 29 30  1  0
 30 31  2  0
 23  2  1  0
 31 26  1  0
 17 12  1  0
  1 32  1  0
  1 33  1  0
  1 34  1  0
  3 35  1  0
  6 36  1  0
  6 37  1  0
 10 38  1  6
 11 39  1  0
 11 40  1  0
 13 41  1  0
 14 42  1  0
 15 43  1  0
 16 44  1  0
 17 45  1  0
 21 46  1  0
 22 47  1  0
 27 48  1  0
 28 49  1  0
 29 50  1  0
 30 51  1  0
 31 52  1  0
M  CHG  2   9  -1  20  -1
M  END
>  <UniqueID>  (23) 
20

>  <SMILES>  (23) 
Cc1cc(OCC(=O)[N-][C@@H](Cc2ccccc2)C(=O)[O-])ccc1C(=O)c1ccccc1

>  <Energy>  (23) 
58.751884841313775

>  <Genealogy>  (23) 
Cc1cc(OCC(=O)[N-]C(Cc2ccccc2)C(=O)[O-])ccc1C(=O)c1ccccc1 (protonated)
Cc1cc(OCC(=O)[N-][C@@H](Cc2ccccc2)C(=O)[O-])ccc1C(=O)c1ccccc1 (chirality)
Cc1cc(OCC(=O)[N-][C@@H](Cc2ccccc2)C(=O)[O-])ccc1C(=O)c1ccccc1 (3D coordinates assigned)
Cc1cc(OCC(=O)[N-][C@@H](Cc2ccccc2)C(=O)[O-])ccc1C(=O)c1ccccc1 (optimized conformer: 58.751884841313775 kcal/mol)

>  <smiles>  (23) 
Cc1cc(OCC(=O)NC(Cc2ccccc2)C(=O)O)ccc1C(=O)c1ccccc1

>  <score_type>  (23) 
oracle

>  <origin>  (23) 
adg

>  <m_score__min__energy>  (23) 
-14.960000000000001

>  <m_primary>  (23) 
energy

$$$$
23:0
     RDKit          3D

 27 28  0  0  0  0  0  0  0  0999 V2000
   55.1480   28.0980   44.9780 H   0  0  0  0  0  0  0  0  0  0  0  0
   55.7830   27.6330   45.6150 O   0  0  0  0  0  0  0  0  0  0  0  0
   57.1610   27.8400   45.5590 C   0  0  0  0  0  0  0  0  0  0  0  0
   58.0270   26.9010   46.1380 C   0  0  0  0  0  0  0  0  0  0  0  0
   57.6165   25.9929   46.6036 H   0  0  0  0  0  0  0  0  0  0  0  0
   59.4070   27.1120   46.1270 C   0  0  0  0  0  0  0  0  0  0  0  0
   60.0806   26.3681   46.5774 H   0  0  0  0  0  0  0  0  0  0  0  0
   59.9320   28.2660   45.5450 C   0  0  0  0  0  0  0  0  0  0  0  0
   61.0188   28.4359   45.5460 H   0  0  0  0  0  0  0  0  0  0  0  0
   59.0800   29.2060   44.9610 C   0  0  0  0  0  0  0  0  0  0  0  0
   59.5005   30.1182   44.5125 H   0  0  0  0  0  0  0  0  0  0  0  0
   57.6890   28.9970   44.9410 C   0  0  0  0  0  0  0  0  0  0  0  0
   56.8180   30.0020   44.2790 C   0  0  0  0  0  0  0  0  0  0  0  0
   55.6310   30.1360   44.6780 O   0  0  0  0  0  0  0  0  0  0  0  0
   57.2620   30.8310   43.1380 C   0  0  0  0  0  0  0  0  0  0  0  0
   57.2084   30.3797   42.1363 H   0  0  0  0  0  0  0  0  0  0  0  0
   57.7250   32.0880   43.2220 C   0  0  0  0  0  0  0  0  0  0  0  0
   58.0626   32.5654   42.2903 H   0  0  0  0  0  0  0  0  0  0  0  0
   57.8180   32.8820   44.4630 C   0  0  0  0  0  0  0  0  0  0  0  0
   58.7530   33.8630   44.7480 C   0  0  0  0  0  0  0  0  0  0  0  0
   59.5419   34.2378   44.0793 H   0  0  0  0  0  0  0  0  0  0  0  0
   58.4960   34.2760   46.0400 C   0  0  0  0  0  0  0  0  0  0  0  0
   59.0332   35.0559   46.5995 H   0  0  0  0  0  0  0  0  0  0  0  0
   57.4340   33.5200   46.4930 C   0  0  0  0  0  0  0  0  0  0  0  0
   56.9804   33.6045   47.4915 H   0  0  0  0  0  0  0  0  0  0  0  0
   57.0350   32.6650   45.5350 N   0  0  0  0  0  0  0  0  0  0  0  0
   56.2620   31.9670   45.6120 H   0  0  0  0  0  0  0  0  0  0  0  0
  1  2  1  0
  2  3  1  0
  3  4  2  0
  4  5  1  0
  4  6  1  0
  6  7  1  0
  6  8  2  0
  8  9  1  0
  8 10  1  0
 10 11  1  0
 10 12  2  0
 12 13  1  0
 13 14  2  0
 13 15  1  0
 15 16  1  0
 15 17  2  0
 17 18  1  0
 17 19  1  0
 19 20  2  0
 20 21  1  0
 20 22  1  0
 22 23  1  0
 22 24  2  0
 24 25  1  0
 24 26  1  0
 26 27  1  0
 12  3  1  0
 26 19  1  0
M  END
>  <UniqueID>  (24) 
21

>  <SMILES>  (24) 
O=C(/C=C\c1ccc[nH]1)c1ccccc1O

>  <Energy>  (24) 
62.9811153377634

>  <Genealogy>  (24) 
O=C(/C=C\c1ccc[nH]1)c1ccccc1O (cis-trans isomerization)
O=C(/C=C\c1ccc[nH]1)c1ccccc1O (3D coordinates assigned)
O=C(/C=C\c1ccc[nH]1)c1ccccc1O (optimized conformer: 62.9811153377634 kcal/mol)

>  <smiles>  (24) 
O=C(C=Cc1ccc[nH]1)c1ccccc1O

>  <score_type>  (24) 
oracle

>  <origin>  (24) 
adg

>  <m_score__min__energy>  (24) 
-7.8700000000000001

>  <m_primary>  (24) 
energy

$$$$
24:0
     RDKit          3D

 54 56  0  0  0  0  0  0  0  0999 V2000
   55.1410   29.3260   44.8280 N   0  0  0  0  0  0  0  0  0  0  0  0
   56.7750   29.7880   44.5020 S   0  0  0  0  0  0  0  0  0  0  0  0
   56.8890   31.2830   44.6200 O   0  0  0  0  0  0  0  0  0  0  0  0
   57.1460   29.3740   43.1070 O   0  0  0  0  0  0  0  0  0  0  0  0
   57.8510   29.0020   45.6520 C   0  0  0  0  0  0  0  0  0  0  0  0
   57.4350   27.8320   46.3010 C   0  0  0  0  0  0  0  0  0  0  0  0
   58.2800   27.1940   47.2130 C   0  0  0  0  0  0  0  0  0  0  0  0
   59.5500   27.7260   47.4980 C   0  0  0  0  0  0  0  0  0  0  0  0
   60.4450   27.0800   48.4210 N   0  0  0  0  0  0  0  0  0  0  0  0
   60.6990   27.5540   49.7520 C   0  0  0  0  0  0  0  0  0  0  0  0
   61.4370   26.5420   50.8150 S   0  0  0  0  0  0  0  0  0  0  0  0
   60.5850   28.9560   50.0480 N   0  0  0  0  0  0  0  0  0  0  0  0
   60.4190   29.4910   51.3710 C   0  0  0  0  0  0  0  0  0  0  0  0
   60.0490   28.7500   52.3220 O   0  0  0  0  0  0  0  0  0  0  0  0
   60.7390   30.9330   51.6400 C   0  0  0  0  0  0  0  0  0  0  0  0
   59.4840   31.8150   51.5030 C   0  0  2  0  0  0  0  0  0  0  0  0
   59.5300   32.5650   50.2420 N   0  0  0  0  0  0  0  0  0  0  0  0
   59.1090   31.9900   48.9930 C   0  0  0  0  0  0  0  0  0  0  0  0
   58.8280   30.7620   48.9320 O   0  0  0  0  0  0  0  0  0  0  0  0
   59.0170   32.8180   47.7670 C   0  0  0  0  0  0  0  0  0  0  0  0
   60.1560   33.4480   47.2320 C   0  0  0  0  0  0  0  0  0  0  0  0
   60.0530   34.2360   46.0800 C   0  0  0  0  0  0  0  0  0  0  0  0
   58.8160   34.4080   45.4560 C   0  0  0  0  0  0  0  0  0  0  0  0
   57.6770   33.7970   45.9840 C   0  0  0  0  0  0  0  0  0  0  0  0
   57.7730   33.0090   47.1350 C   0  0  0  0  0  0  0  0  0  0  0  0
   59.3360   32.7660   52.6790 C   0  0  0  0  0  0  0  0  0  0  0  0
   59.0630   34.1290   52.4540 C   0  0  0  0  0  0  0  0  0  0  0  0
   58.8560   34.9960   53.5310 C   0  0  0  0  0  0  0  0  0  0  0  0
   58.9250   34.5170   54.8410 C   0  0  0  0  0  0  0  0  0  0  0  0
   59.2000   33.1690   55.0780 C   0  0  0  0  0  0  0  0  0  0  0  0
   59.4030   32.2960   54.0060 C   0  0  0  0  0  0  0  0  0  0  0  0
   59.9720   28.8840   46.8250 C   0  0  0  0  0  0  0  0  0  0  0  0
   59.1260   29.5200   45.9120 C   0  0  0  0  0  0  0  0  0  0  0  0
   55.1700   28.6570   45.6290 H   0  0  0  0  0  0  0  0  0  0  0  0
   56.4393   27.4140   46.0918 H   0  0  0  0  0  0  0  0  0  0  0  0
   57.9497   26.2703   47.7108 H   0  0  0  0  0  0  0  0  0  0  0  0
   60.9610   26.2320   48.0920 H   0  0  0  0  0  0  0  0  0  0  0  0
   60.6380   29.6300   49.2510 H   0  0  0  0  0  0  0  0  0  0  0  0
   61.1352   31.0284   52.6617 H   0  0  0  0  0  0  0  0  0  0  0  0
   61.4837   31.2686   50.9033 H   0  0  0  0  0  0  0  0  0  0  0  0
   58.6054   31.1532   51.4986 H   0  0  0  0  0  0  0  0  0  0  0  0
   60.0270   33.4830   50.2200 H   0  0  0  0  0  0  0  0  0  0  0  0
   61.1326   33.3204   47.7219 H   0  0  0  0  0  0  0  0  0  0  0  0
   60.9489   34.7210   45.6652 H   0  0  0  0  0  0  0  0  0  0  0  0
   58.7387   35.0248   44.5485 H   0  0  0  0  0  0  0  0  0  0  0  0
   56.7022   33.9358   45.4935 H   0  0  0  0  0  0  0  0  0  0  0  0
   56.8710   32.5351   47.5496 H   0  0  0  0  0  0  0  0  0  0  0  0
   59.0123   34.5138   51.4248 H   0  0  0  0  0  0  0  0  0  0  0  0
   58.6382   36.0582   53.3461 H   0  0  0  0  0  0  0  0  0  0  0  0
   58.7626   35.2020   55.6862 H   0  0  0  0  0  0  0  0  0  0  0  0
   59.2570   32.7935   56.1103 H   0  0  0  0  0  0  0  0  0  0  0  0
   59.6166   31.2344   54.1992 H   0  0  0  0  0  0  0  0  0  0  0  0
   60.9747   29.2932   47.0176 H   0  0  0  0  0  0  0  0  0  0  0  0
   59.4630   30.4310   45.3957 H   0  0  0  0  0  0  0  0  0  0  0  0
  1  2  1  0
  2  3  2  0
  2  4  2  0
  2  5  1  0
  5  6  2  0
  6  7  1  0
  7  8  2  0
  8  9  1  0
  9 10  1  0
 10 11  2  0
 10 12  1  0
 12 13  1  0
 13 14  2  0
 13 15  1  0
 15 16  1  0
 16 17  1  0
 17 18  1  0
 18 19  2  0
 18 20  1  0
 20 21  2  0
 21 22  1  0
 22 23  2  0
 23 24  1  0
 24 25  2  0
 16 26  1  0
 26 27  2  0
 27 28  1  0
 28 29  2  0
 29 30  1  0
 30 31  2  0
  8 32  1  0
 32 33  2  0
 33  5  1  0
 25 20  1  0
 31 26  1  0
  1 34  1  0
  6 35  1  0
  7 36  1  0
  9 37  1  0
 12 38  1  0
 15 39  1  0
 15 40  1  0
 16 41  1  6
 17 42  1  0
 21 43  1  0
 22 44  1  0
 23 45  1  0
 24 46  1  0
 25 47  1  0
 27 48  1  0
 28 49  1  0
 29 50  1  0
 30 51  1  0
 31 52  1  0
 32 53  1  0
 33 54  1  0
M  CHG  1   1  -1
M  END
>  <UniqueID>  (25) 
22

>  <SMILES>  (25) 
[NH-]S(=O)(=O)c1ccc(NC(=S)NC(=O)C[C@H](NC(=O)c2ccccc2)c2ccccc2)cc1

>  <Energy>  (25) 
59.85752679265031

>  <Genealogy>  (25) 
[NH-]S(=O)(=O)c1ccc(NC(=S)NC(=O)CC(NC(=O)c2ccccc2)c2ccccc2)cc1 (protonated)
[NH-]S(=O)(=O)c1ccc(NC(=S)NC(=O)C[C@H](NC(=O)c2ccccc2)c2ccccc2)cc1 (chirality)
[NH-]S(=O)(=O)c1ccc(NC(=S)NC(=O)C[C@H](NC(=O)c2ccccc2)c2ccccc2)cc1 (3D coordinates assigned)
[NH-]S(=O)(=O)c1ccc(NC(=S)NC(=O)C[C@H](NC(=O)c2ccccc2)c2ccccc2)cc1 (optimized conformer: 59.85752679265031 kcal/mol)

>  <smiles>  (25) 
NS(=O)(=O)c1ccc(NC(=S)NC(=O)CC(NC(=O)c2ccccc2)c2ccccc2)cc1

>  <score_type>  (25) 
oracle

>  <origin>  (25) 
adg

>  <m_score__min__energy>  (25) 
-11.59

>  <m_primary>  (25) 
energy

$$$$
25:0
     RDKit          3D

 51 54  0  0  0  0  0  0  0  0999 V2000
   59.0100   33.7420   50.8030 O   0  0  0  0  0  0  0  0  0  0  0  0
   60.0530   33.2710   50.2710 C   0  0  0  0  0  0  0  0  0  0  0  0
   61.1160   34.1500   49.8730 N   0  0  0  0  0  0  0  0  0  0  0  0
   62.5240   33.8920   49.9740 C   0  0  0  0  0  0  0  0  0  0  0  0
   63.1870   33.3480   48.8650 C   0  0  0  0  0  0  0  0  0  0  0  0
   64.5530   33.0620   48.9280 C   0  0  0  0  0  0  0  0  0  0  0  0
   65.2670   33.3030   50.1060 C   0  0  0  0  0  0  0  0  0  0  0  0
   66.9820   32.9430   50.1840 Cl  0  0  0  0  0  0  0  0  0  0  0  0
   64.6080   33.8220   51.2250 C   0  0  0  0  0  0  0  0  0  0  0  0
   63.2410   34.1090   51.1650 C   0  0  0  0  0  0  0  0  0  0  0  0
   60.1550   31.8170   50.0060 C   0  0  0  0  0  0  0  0  0  0  0  0
   61.3930   31.1560   50.0970 C   0  0  0  0  0  0  0  0  0  0  0  0
   61.4870   29.7850   49.8390 C   0  0  0  0  0  0  0  0  0  0  0  0
   60.3470   29.0450   49.5030 C   0  0  0  0  0  0  0  0  0  0  0  0
   60.4950   27.6480   49.2170 N   0  0  0  0  0  0  0  0  0  0  0  0
   60.3310   27.0140   47.9410 C   0  0  0  0  0  0  0  0  0  0  0  0
   61.3360   26.5550   47.3300 O   0  0  0  0  0  0  0  0  0  0  0  0
   58.9890   26.9400   47.3180 C   0  0  0  0  0  0  0  0  0  0  0  0
   58.1760   25.8100   47.5010 C   0  0  0  0  0  0  0  0  0  0  0  0
   56.9070   25.7480   46.9220 C   0  0  0  0  0  0  0  0  0  0  0  0
   56.4220   26.8190   46.1660 C   0  0  0  0  0  0  0  0  0  0  0  0
   55.1430   26.7390   45.6240 O   0  0  0  0  0  0  0  0  0  0  0  0
   57.2160   27.9660   45.9770 C   0  0  0  0  0  0  0  0  0  0  0  0
   56.7150   29.1220   45.1930 C   0  0  0  0  0  0  0  0  0  0  0  0
   55.4850   29.2170   44.9420 O   0  0  0  0  0  0  0  0  0  0  0  0
   57.6030   30.1140   44.6570 N   0  0  0  0  0  0  0  0  0  0  0  0
   57.9110   31.3840   45.2520 C   0  0  0  0  0  0  0  0  0  0  0  0
   57.1940   32.5490   44.9190 C   0  0  0  0  0  0  0  0  0  0  0  0
   57.5290   33.7720   45.5070 C   0  0  0  0  0  0  0  0  0  0  0  0
   58.5890   33.8460   46.4150 C   0  0  0  0  0  0  0  0  0  0  0  0
   59.3190   32.6970   46.7320 C   0  0  0  0  0  0  0  0  0  0  0  0
   58.9860   31.4710   46.1480 C   0  0  0  0  0  0  0  0  0  0  0  0
   58.5030   28.0090   46.5420 C   0  0  0  0  0  0  0  0  0  0  0  0
   59.1110   29.7020   49.3910 C   0  0  0  0  0  0  0  0  0  0  0  0
   59.0150   31.0730   49.6480 C   0  0  0  0  0  0  0  0  0  0  0  0
   62.6282   33.1451   47.9395 H   0  0  0  0  0  0  0  0  0  0  0  0
   65.0679   32.6464   48.0493 H   0  0  0  0  0  0  0  0  0  0  0  0
   65.1666   34.0049   52.1548 H   0  0  0  0  0  0  0  0  0  0  0  0
   62.7245   34.5056   52.0515 H   0  0  0  0  0  0  0  0  0  0  0  0
   62.2947   31.7222   50.3734 H   0  0  0  0  0  0  0  0  0  0  0  0
   62.4643   29.2839   49.9005 H   0  0  0  0  0  0  0  0  0  0  0  0
   58.5417   24.9668   48.1054 H   0  0  0  0  0  0  0  0  0  0  0  0
   56.2854   24.8513   47.0616 H   0  0  0  0  0  0  0  0  0  0  0  0
   56.3681   32.4966   44.1943 H   0  0  0  0  0  0  0  0  0  0  0  0
   56.9576   34.6775   45.2548 H   0  0  0  0  0  0  0  0  0  0  0  0
   58.8487   34.8084   46.8801 H   0  0  0  0  0  0  0  0  0  0  0  0
   60.1569   32.7573   47.4421 H   0  0  0  0  0  0  0  0  0  0  0  0
   59.5697   30.5712   46.3924 H   0  0  0  0  0  0  0  0  0  0  0  0
   59.1391   28.8908   46.3751 H   0  0  0  0  0  0  0  0  0  0  0  0
   58.2142   29.1355   49.0997 H   0  0  0  0  0  0  0  0  0  0  0  0
   58.0393   31.5750   49.5697 H   0  0  0  0  0  0  0  0  0  0  0  0
  1  2  2  0
  2  3  1  0
  3  4  1  0
  4  5  2  0
  5  6  1  0
  6  7  2  0
  7  8  1  0
  7  9  1  0
  9 10  2  0
  2 11  1  0
 11 12  2  0
 12 13  1  0
 13 14  2  0
 14 15  1  0
 15 16  1  0
 16 17  2  0
 16 18  1  0
 18 19  2  0
 19 20  1  0
 20 21  2  0
 21 22  1  0
 21 23  1  0
 23 24  1  0
 24 25  2  0
 24 26  1  0
 26 27  1  0
 27 28  2  0
 28 29  1  0
 29 30  2  0
 30 31  1  0
 31 32  2  0
 23 33  2  0
 14 34  1  0
 34 35  2  0
 10  4  1  0
 35 11  1  0
 33 18  1  0
 32 27  1  0
  5 36  1  0
  6 37  1  0
  9 38  1  0
 10 39  1  0
 12 40  1  0
 13 41  1  0
 19 42  1  0
 20 43  1  0
 28 44  1  0
 29 45  1  0
 30 46  1  0
 31 47  1  0
 32 48  1  0
 33 49  1  0
 34 50  1  0
 35 51  1  0
M  CHG  4   3  -1  15  -1  22  -1  26  -1
M  END
>  <UniqueID>  (26) 
23

>  <SMILES>  (26) 
O=C([N-]c1ccc(Cl)cc1)c1ccc([N-]C(=O)c2ccc([O-])c(C(=O)[N-]c3ccccc3)c2)cc1

>  <Energy>  (26) 
72.59546504654574

>  <Genealogy>  (26) 
O=C([N-]c1ccc(Cl)cc1)c1ccc([N-]C(=O)c2ccc([O-])c(C(=O)[N-]c3ccccc3)c2)cc1 (protonated)
O=C([N-]c1ccc(Cl)cc1)c1ccc([N-]C(=O)c2ccc([O-])c(C(=O)[N-]c3ccccc3)c2)cc1 (3D coordinates assigned)
O=C([N-]c1ccc(Cl)cc1)c1ccc([N-]C(=O)c2ccc([O-])c(C(=O)[N-]c3ccccc3)c2)cc1 (optimized conformer: 72.59546504654574 kcal/mol)

>  <smiles>  (26) 
O=C(Nc1ccc(Cl)cc1)c1ccc(NC(=O)c2ccc(O)c(C(=O)Nc3ccccc3)c2)cc1

>  <score_type>  (26) 
oracle

>  <origin>  (26) 
adg

>  <m_score__min__energy>  (26) 
-16.719999999999999

>  <m_primary>  (26) 
energy

$$$$
26:0
     RDKit          3D

 31 32  0  0  0  0  0  0  0  0999 V2000
   59.0130   29.0830   44.4010 O   0  0  0  0  0  0  0  0  0  0  0  0
   57.7530   29.1290   44.4570 C   0  0  0  0  0  0  0  0  0  0  0  0
   57.0470   30.3830   44.0430 C   0  0  0  0  0  0  0  0  0  0  0  0
   57.7230   31.5800   44.6540 C   0  0  0  0  0  0  0  0  0  0  0  0
   57.8940   32.7560   43.9040 C   0  0  0  0  0  0  0  0  0  0  0  0
   58.4850   33.8820   44.4850 C   0  0  0  0  0  0  0  0  0  0  0  0
   58.9030   33.8460   45.8190 C   0  0  0  0  0  0  0  0  0  0  0  0
   59.6410   35.2610   46.5460 Cl  0  0  0  0  0  0  0  0  0  0  0  0
   58.7250   32.6820   46.5750 C   0  0  0  0  0  0  0  0  0  0  0  0
   58.1350   31.5550   45.9970 C   0  0  0  0  0  0  0  0  0  0  0  0
   56.9940   27.9750   44.8480 N   0  0  0  0  0  0  0  0  0  0  0  0
   57.5850   26.7260   45.2410 C   0  0  0  0  0  0  0  0  0  0  0  0
   58.7970   26.6830   45.5900 O   0  0  0  0  0  0  0  0  0  0  0  0
   56.7740   25.4880   45.2900 C   0  0  0  0  0  0  0  0  0  0  0  0
   57.3590   24.2650   44.9150 C   0  0  0  0  0  0  0  0  0  0  0  0
   56.6180   23.0800   44.9610 C   0  0  0  0  0  0  0  0  0  0  0  0
   55.2850   23.1040   45.3730 C   0  0  0  0  0  0  0  0  0  0  0  0
   54.6860   24.3140   45.7310 C   0  0  0  0  0  0  0  0  0  0  0  0
   55.4180   25.5070   45.6840 C   0  0  0  0  0  0  0  0  0  0  0  0
   54.7780   26.7000   46.0000 O   0  0  0  0  0  0  0  0  0  0  0  0
   57.0725   30.4704   42.9468 H   0  0  0  0  0  0  0  0  0  0  0  0
   56.0040   30.3413   44.3899 H   0  0  0  0  0  0  0  0  0  0  0  0
   57.5617   32.7908   42.8560 H   0  0  0  0  0  0  0  0  0  0  0  0
   58.6215   34.7981   43.8916 H   0  0  0  0  0  0  0  0  0  0  0  0
   59.0499   32.6542   47.6255 H   0  0  0  0  0  0  0  0  0  0  0  0
   57.9924   30.6437   46.5964 H   0  0  0  0  0  0  0  0  0  0  0  0
   55.9510   28.0550   44.8540 H   0  0  0  0  0  0  0  0  0  0  0  0
   58.4074   24.2406   44.5830 H   0  0  0  0  0  0  0  0  0  0  0  0
   57.0865   22.1276   44.6720 H   0  0  0  0  0  0  0  0  0  0  0  0
   54.7058   22.1698   45.4159 H   0  0  0  0  0  0  0  0  0  0  0  0
   53.6339   24.3299   46.0515 H   0  0  0  0  0  0  0  0  0  0  0  0
  1  2  2  0
  2  3  1  0
  3  4  1  0
  4  5  2  0
  5  6  1  0
  6  7  2  0
  7  8  1  0
  7  9  1  0
  9 10  2  0
  2 11  1  0
 11 12  1  0
 12 13  2  0
 12 14  1  0
 14 15  2  0
 15 16  1  0
 16 17  2  0
 17 18  1  0
 18 19  2  0
 19 20  1  0
 10  4  1  0
 19 14  1  0
  3 21  1  0
  3 22  1  0
  5 23  1  0
  6 24  1  0
  9 25  1  0
 10 26  1  0
 11 27  1  0
 15 28  1  0
 16 29  1  0
 17 30  1  0
 18 31  1  0
M  CHG  1  20  -1
M  END
>  <UniqueID>  (27) 
24

>  <SMILES>  (27) 
O=C(Cc1ccc(Cl)cc1)NC(=O)c1ccccc1[O-]

>  <Energy>  (27) 
33.80442866685072

>  <Genealogy>  (27) 
O=C(Cc1ccc(Cl)cc1)NC(=O)c1ccccc1[O-] (protonated)
O=C(Cc1ccc(Cl)cc1)NC(=O)c1ccccc1[O-] (3D coordinates assigned)
O=C(Cc1ccc(Cl)cc1)NC(=O)c1ccccc1[O-] (optimized conformer: 33.80442866685072 kcal/mol)

>  <smiles>  (27) 
O=C(Cc1ccc(Cl)cc1)NC(=O)c1ccccc1O

>  <score_type>  (27) 
oracle

>  <origin>  (27) 
adg

>  <m_score__min__energy>  (27) 
-12.199999999999999

>  <m_primary>  (27) 
energy

$$$$
27:0
     RDKit          3D

 65 69  0  0  1  0  0  0  0  0999 V2000
   54.0240   29.0560   52.1220 N   0  0  0  0  0  0  0  0  0  0  0  0
   55.3840   29.3080   53.1760 S   0  0  0  0  0  0  0  0  0  0  0  0
   54.8950   29.9820   54.4420 O   0  0  0  0  0  0  0  0  0  0  0  0
   55.9200   27.9420   53.5270 O   0  0  0  0  0  0  0  0  0  0  0  0
   56.6030   30.2670   52.3610 C   0  0  0  0  0  0  0  0  0  0  0  0
   57.7590   29.6750   51.8330 C   0  0  0  0  0  0  0  0  0  0  0  0
   58.7130   30.4390   51.1920 C   0  0  0  0  0  0  0  0  0  0  0  0
   58.5490   31.8000   51.0600 C   0  0  0  0  0  0  0  0  0  0  0  0
   59.4730   32.6590   50.4240 N   0  0  0  0  0  0  0  0  0  0  0  0
   59.2850   33.0460   49.2100 C   0  0  0  0  0  0  0  0  0  0  0  0
   58.8470   32.2090   48.2760 N   0  0  0  0  0  0  0  0  0  0  0  0
   58.6560   32.6300   46.9720 C   0  0  0  0  0  0  0  0  0  0  0  0
   58.2390   31.8010   46.1020 O   0  0  0  0  0  0  0  0  0  0  0  0
   57.8580   30.9150   45.2840 C   0  0  0  0  0  0  0  0  0  0  0  0
   57.3700   31.2860   44.0060 C   0  0  0  0  0  0  0  0  0  0  0  0
   56.9490   30.3860   43.0780 C   0  0  0  0  0  0  0  0  0  0  0  0
   56.9970   29.0510   43.3900 C   0  0  0  0  0  0  0  0  0  0  0  0
   57.4570   28.6120   44.6030 C   0  0  0  0  0  0  0  0  0  0  0  0
   57.8750   29.5530   45.5170 C   0  0  0  0  0  0  0  0  0  0  0  0
   58.4020   28.9740   46.8090 C   0  0  0  0  0  0  0  0  0  0  0  0
   59.1880   27.7370   46.3420 C   0  0  0  0  0  0  0  0  0  0  0  0
   58.2340   26.7360   45.9820 N   0  0  0  0  0  0  0  0  0  0  0  0
   58.8500   25.4570   45.6790 C   0  0  0  0  0  0  0  0  0  0  0  0
   58.0650   24.2830   46.1860 C   0  0  0  0  0  0  0  0  0  0  0  0
   57.4290   23.5300   45.0450 C   0  0  0  0  0  0  0  0  0  0  0  0
   57.9800   22.3320   44.6510 C   0  0  0  0  0  0  0  0  0  0  0  0
   57.3540   21.6780   43.5970 C   0  0  0  0  0  0  0  0  0  0  0  0
   56.2580   22.1880   42.9850 N   0  0  0  0  0  0  0  0  0  0  0  0
   55.7050   23.3590   43.3580 C   0  0  0  0  0  0  0  0  0  0  0  0
   56.2990   24.0340   44.3990 C   0  0  0  0  0  0  0  0  0  0  0  0
   57.4710   27.1530   44.8480 C   0  0  0  0  0  0  0  0  0  0  0  0
   58.9450   33.9720   46.6840 C   0  0  0  0  0  0  0  0  0  0  0  0
   58.8130   34.5500   45.3380 C   0  0  0  0  0  0  0  0  0  0  0  0
   59.3870   35.7650   45.1530 F   0  0  0  0  0  0  0  0  0  0  0  0
   57.4270   34.6170   45.0670 F   0  0  0  0  0  0  0  0  0  0  0  0
   59.2750   33.6180   44.4140 F   0  0  0  0  0  0  0  0  0  0  0  0
   59.4040   34.8160   47.7050 C   0  0  0  0  0  0  0  0  0  0  0  0
   59.5580   34.3240   48.9300 N   0  0  0  0  0  0  0  0  0  0  0  0
   57.4010   32.4020   51.5810 C   0  0  0  0  0  0  0  0  0  0  0  0
   56.4320   31.6490   52.2280 C   0  0  0  0  0  0  0  0  0  0  0  0
   53.6440   28.0930   52.3390 H   0  0  0  0  0  0  0  0  0  0  0  0
   54.4420   28.9370   51.1580 H   0  0  0  0  0  0  0  0  0  0  0  0
   57.9073   28.5894   51.9307 H   0  0  0  0  0  0  0  0  0  0  0  0
   59.6128   29.9564   50.7827 H   0  0  0  0  0  0  0  0  0  0  0  0
   57.3299   32.3556   43.7523 H   0  0  0  0  0  0  0  0  0  0  0  0
   56.5779   30.7211   42.0982 H   0  0  0  0  0  0  0  0  0  0  0  0
   56.6574   28.3144   42.6470 H   0  0  0  0  0  0  0  0  0  0  0  0
   59.0607   29.6896   47.3227 H   0  0  0  0  0  0  0  0  0  0  0  0
   57.6076   28.7343   47.5311 H   0  0  0  0  0  0  0  0  0  0  0  0
   59.8106   27.9933   45.4721 H   0  0  0  0  0  0  0  0  0  0  0  0
   59.8504   27.3730   47.1412 H   0  0  0  0  0  0  0  0  0  0  0  0
   58.9468   25.3665   44.5870 H   0  0  0  0  0  0  0  0  0  0  0  0
   59.8262   25.4384   46.1856 H   0  0  0  0  0  0  0  0  0  0  0  0
   58.7394   23.6073   46.7323 H   0  0  0  0  0  0  0  0  0  0  0  0
   57.2702   24.6516   46.8512 H   0  0  0  0  0  0  0  0  0  0  0  0
   58.8696   21.9140   45.1448 H   0  0  0  0  0  0  0  0  0  0  0  0
   57.7605   20.7170   43.2488 H   0  0  0  0  0  0  0  0  0  0  0  0
   54.8147   23.7588   42.8506 H   0  0  0  0  0  0  0  0  0  0  0  0
   55.8737   24.9930   44.7299 H   0  0  0  0  0  0  0  0  0  0  0  0
   57.8888   26.6618   43.9568 H   0  0  0  0  0  0  0  0  0  0  0  0
   56.4296   26.8676   45.0578 H   0  0  0  0  0  0  0  0  0  0  0  0
   59.6336   35.8711   47.4951 H   0  0  0  0  0  0  0  0  0  0  0  0
   59.8990   34.9620   49.6760 H   0  0  0  0  0  0  0  0  0  0  0  0
   57.2635   33.4884   51.4767 H   0  0  0  0  0  0  0  0  0  0  0  0
   55.5335   32.1363   52.6345 H   0  0  0  0  0  0  0  0  0  0  0  0
  1  2  1  0
  2  3  2  0
  2  4  2  0
  2  5  1  0
  5  6  2  0
  6  7  1  0
  7  8  2  0
  8  9  1  0
  9 10  2  0
 10 11  1  0
 11 12  2  0
 12 13  1  0
 13 14  1  0
 14 15  2  0
 15 16  1  0
 16 17  2  0
 17 18  1  0
 18 19  2  0
 19 20  1  0
 20 21  1  0
 21 22  1  0
 22 23  1  0
 23 24  1  0
 24 25  1  0
 25 26  2  0
 26 27  1  0
 27 28  2  0
 28 29  1  0
 29 30  2  0
 22 31  1  0
 12 32  1  0
 32 33  1  0
 33 34  1  0
 33 35  1  0
 33 36  1  0
 32 37  2  0
 37 38  1  0
  8 39  1  0
 39 40  2  0
 40  5  1  0
 38 10  1  0
 19 14  1  0
 30 25  1  0
 31 18  1  0
  1 41  1  0
  1 42  1  0
  6 43  1  0
  7 44  1  0
 15 45  1  0
 16 46  1  0
 17 47  1  0
 20 48  1  0
 20 49  1  0
 21 50  1  0
 21 51  1  0
 23 52  1  0
 23 53  1  0
 24 54  1  0
 24 55  1  0
 26 56  1  0
 27 57  1  0
 29 58  1  0
 30 59  1  0
 31 60  1  0
 31 61  1  0
 37 62  1  0
 38 63  1  0
 39 64  1  0
 40 65  1  0
M  END
>  <smiles>  (28) 
NS(=O)(=O)c1ccc(N=c2nc(Oc3cccc4c3CCN(CCc3ccncc3)C4)c(C(F)(F)F)c[nH]2)cc1

>  <score_type>  (28) 
oracle

>  <origin>  (28) 
adg

>  <m_score__min__energy>  (28) 
-10.67

>  <m_primary>  (28) 
energy

$$$$
28:0
     RDKit          3D

 54 56  0  0  0  0  0  0  0  0999 V2000
   57.3310   34.2180   44.8760 C   0  0  0  0  0  0  0  0  0  0  0  0
   57.7060   32.7650   45.0080 C   0  0  0  0  0  0  0  0  0  0  0  0
   57.6020   31.9330   43.8810 C   0  0  0  0  0  0  0  0  0  0  0  0
   57.9440   30.5850   43.9590 C   0  0  0  0  0  0  0  0  0  0  0  0
   58.4040   30.0390   45.1560 C   0  0  0  0  0  0  0  0  0  0  0  0
   58.7260   28.6400   45.1950 N   0  0  0  0  0  0  0  0  0  0  0  0
   58.0420   27.6110   45.9240 C   0  0  0  0  0  0  0  0  0  0  0  0
   57.6950   27.8500   47.1110 O   0  0  0  0  0  0  0  0  0  0  0  0
   57.6790   26.3090   45.3130 C   0  0  0  0  0  0  0  0  0  0  0  0
   57.2260   25.2540   46.1260 C   0  0  0  0  0  0  0  0  0  0  0  0
   56.8880   24.0200   45.5640 C   0  0  0  0  0  0  0  0  0  0  0  0
   56.9960   23.8190   44.1810 C   0  0  0  0  0  0  0  0  0  0  0  0
   56.7110   22.4620   43.5870 C   0  0  0  0  0  0  0  0  0  0  0  0
   55.8820   22.5800   42.3890 N   0  0  0  0  0  0  0  0  0  0  0  0
   57.4340   24.8710   43.3650 C   0  0  0  0  0  0  0  0  0  0  0  0
   57.7550   26.1120   43.9230 C   0  0  0  0  0  0  0  0  0  0  0  0
   58.4860   30.8520   46.2990 C   0  0  0  0  0  0  0  0  0  0  0  0
   58.1520   32.2220   46.2420 C   0  0  0  0  0  0  0  0  0  0  0  0
   58.2500   33.0580   47.4190 N   0  0  0  0  0  0  0  0  0  0  0  0
   59.0150   34.3070   47.4880 C   0  0  0  0  0  0  0  0  0  0  0  0
   60.5150   34.0670   47.5510 C   0  0  0  0  0  0  0  0  0  0  0  0
   61.2590   33.9690   46.3600 C   0  0  0  0  0  0  0  0  0  0  0  0
   62.6380   33.7920   46.3940 C   0  0  0  0  0  0  0  0  0  0  0  0
   63.3040   33.7070   47.6130 C   0  0  0  0  0  0  0  0  0  0  0  0
   62.5940   33.7660   48.8210 C   0  0  0  0  0  0  0  0  0  0  0  0
   63.3640   33.6710   50.1140 C   0  0  0  0  0  0  0  0  0  0  0  0
   61.1770   33.8820   48.7980 C   0  0  0  0  0  0  0  0  0  0  0  0
   60.3800   33.8570   50.0850 C   0  0  0  0  0  0  0  0  0  0  0  0
   57.2170   34.6597   45.8770 H   0  0  0  0  0  0  0  0  0  0  0  0
   58.1207   34.7521   44.3273 H   0  0  0  0  0  0  0  0  0  0  0  0
   56.3814   34.3032   44.3273 H   0  0  0  0  0  0  0  0  0  0  0  0
   57.2469   32.3503   42.9272 H   0  0  0  0  0  0  0  0  0  0  0  0
   57.8503   29.9461   43.0685 H   0  0  0  0  0  0  0  0  0  0  0  0
   57.1372   25.4016   47.2124 H   0  0  0  0  0  0  0  0  0  0  0  0
   56.5355   23.2025   46.2100 H   0  0  0  0  0  0  0  0  0  0  0  0
   57.6625   21.9787   43.3202 H   0  0  0  0  0  0  0  0  0  0  0  0
   56.1691   21.8597   44.3311 H   0  0  0  0  0  0  0  0  0  0  0  0
   56.4190   22.2110   41.5700 H   0  0  0  0  0  0  0  0  0  0  0  0
   55.6890   23.5930   42.2100 H   0  0  0  0  0  0  0  0  0  0  0  0
   57.5257   24.7193   42.2794 H   0  0  0  0  0  0  0  0  0  0  0  0
   58.0691   26.9398   43.2702 H   0  0  0  0  0  0  0  0  0  0  0  0
   58.8155   30.4140   47.2527 H   0  0  0  0  0  0  0  0  0  0  0  0
   57.7230   32.8020   48.2830 H   0  0  0  0  0  0  0  0  0  0  0  0
   58.7909   34.9080   46.5944 H   0  0  0  0  0  0  0  0  0  0  0  0
   58.7206   34.8293   48.4102 H   0  0  0  0  0  0  0  0  0  0  0  0
   60.7433   34.0332   45.3905 H   0  0  0  0  0  0  0  0  0  0  0  0
   63.2044   33.7189   45.4539 H   0  0  0  0  0  0  0  0  0  0  0  0
   64.3979   33.5924   47.6292 H   0  0  0  0  0  0  0  0  0  0  0  0
   62.6686   33.7568   50.9620 H   0  0  0  0  0  0  0  0  0  0  0  0
   63.8826   32.7021   50.1616 H   0  0  0  0  0  0  0  0  0  0  0  0
   64.1025   34.4848   50.1616 H   0  0  0  0  0  0  0  0  0  0  0  0
   61.0681   33.8786   50.9429 H   0  0  0  0  0  0  0  0  0  0  0  0
   59.7182   34.7348   50.1236 H   0  0  0  0  0  0  0  0  0  0  0  0
   59.7746   32.9394   50.1236 H   0  0  0  0  0  0  0  0  0  0  0  0
  1  2  1  0
  2  3  2  0
  3  4  1  0
  4  5  2  0
  5  6  1  0
  6  7  1  0
  7  8  2  0
  7  9  1  0
  9 10  2  0
 10 11  1  0
 11 12  2  0
 12 13  1  0
 13 14  1  0
 12 15  1  0
 15 16  2  0
  5 17  1  0
 17 18  2  0
 18 19  1  0
 19 20  1  0
 20 21  1  0
 21 22  2  0
 22 23  1  0
 23 24  2  0
 24 25  1  0
 25 26  1  0
 25 27  2  0
 27 28  1  0
 18  2  1  0
 27 21  1  0
 16  9  1  0
  1 29  1  0
  1 30  1  0
  1 31  1  0
  3 32  1  0
  4 33  1  0
 10 34  1  0
 11 35  1  0
 13 36  1  0
 13 37  1  0
 14 38  1  0
 14 39  1  0
 15 40  1  0
 16 41  1  0
 17 42  1  0
 19 43  1  0
 20 44  1  0
 20 45  1  0
 22 46  1  0
 23 47  1  0
 24 48  1  0
 26 49  1  0
 26 50  1  0
 26 51  1  0
 28 52  1  0
 28 53  1  0
 28 54  1  0
M  CHG  1   6  -1
M  END
>  <UniqueID>  (29) 
25

>  <SMILES>  (29) 
Cc1ccc([N-]C(=O)c2ccc(CN)cc2)cc1NCc1cccc(C)c1C

>  <Energy>  (29) 
63.31317159922688

>  <Genealogy>  (29) 
Cc1ccc([N-]C(=O)c2ccc(CN)cc2)cc1NCc1cccc(C)c1C (protonated)
Cc1ccc([N-]C(=O)c2ccc(CN)cc2)cc1NCc1cccc(C)c1C (3D coordinates assigned)
Cc1ccc([N-]C(=O)c2ccc(CN)cc2)cc1NCc1cccc(C)c1C (optimized conformer: 63.31317159922688 kcal/mol)

>  <smiles>  (29) 
Cc1ccc(NC(=O)c2ccc(CN)cc2)cc1NCc1cccc(C)c1C

>  <score_type>  (29) 
oracle

>  <origin>  (29) 
adg

>  <m_score__min__energy>  (29) 
-10.6

>  <m_primary>  (29) 
energy

$$$$
29:0
     RDKit          3D

 80 81  0  0  1  0  0  0  0  0999 V2000
   61.8130   30.9510   47.5870 C   0  0  0  0  0  0  0  0  0  0  0  0
   60.7580   30.1880   46.8520 C   0  0  0  0  0  0  0  0  0  0  0  0
   60.0980   29.1610   47.7430 C   0  0  0  0  0  0  0  0  0  0  0  0
   59.3080   28.1470   46.9720 C   0  0  0  0  0  0  0  0  0  0  0  0
   60.0300   27.5850   45.7970 C   0  0  0  0  0  0  0  0  0  0  0  0
   59.4560   28.0470   44.4790 C   0  0  0  0  0  0  0  0  0  0  0  0
   58.0590   27.5330   44.2220 C   0  0  0  0  0  0  0  0  0  0  0  0
   57.4120   28.2280   43.0440 C   0  0  0  0  0  0  0  0  0  0  0  0
   56.5970   29.4080   43.4320 C   0  0  0  0  0  0  0  0  0  0  0  0
   56.5850   29.7510   44.8750 C   0  0  0  0  0  0  0  0  0  0  0  0
   57.7090   30.6710   45.2990 C   0  0  0  0  0  0  0  0  0  0  0  0
   57.5170   31.9510   44.5750 C   0  0  0  0  0  0  0  0  0  0  0  0
   58.1230   33.1780   45.1470 C   0  0  0  0  0  0  0  0  0  0  0  0
   56.9460   34.1590   45.2960 C   0  0  0  0  0  0  0  0  0  0  0  0
   59.0130   33.8510   44.1110 C   0  0  0  0  0  0  0  0  0  0  0  0
   58.7630   33.0670   46.4510 C   0  0  0  0  0  0  0  0  0  0  0  0
   60.0320   33.1980   46.5870 O   0  0  0  0  0  0  0  0  0  0  0  0
   58.0630   32.8070   47.6640 N   0  0  0  0  0  0  0  0  0  0  0  0
   58.8570   32.7360   48.8510 C   0  0  0  0  0  0  0  0  0  0  0  0
   58.9530   31.5810   49.6050 C   0  0  0  0  0  0  0  0  0  0  0  0
   59.7270   31.5390   50.7470 C   0  0  0  0  0  0  0  0  0  0  0  0
   60.4250   32.6750   51.1530 C   0  0  0  0  0  0  0  0  0  0  0  0
   61.4220   32.6770   52.5930 S   0  0  0  0  0  0  0  0  0  0  0  0
   61.8640   31.2870   52.9410 O   0  0  0  0  0  0  0  0  0  0  0  0
   60.6730   33.2000   53.7900 O   0  0  0  0  0  0  0  0  0  0  0  0
   62.7930   33.6750   52.2710 N   0  0  0  0  0  0  0  0  0  0  0  0
   63.6030   33.4300   51.2800 C   0  0  0  0  0  0  0  0  0  0  0  0
   64.8600   32.9030   51.4930 C   0  0  0  0  0  0  0  0  0  0  0  0
   65.6560   32.6730   50.3650 C   0  0  0  0  0  0  0  0  0  0  0  0
   67.0200   32.1100   50.4890 C   0  0  0  0  0  0  0  0  0  0  0  0
   65.1860   32.9680   49.1220 N   0  0  0  0  0  0  0  0  0  0  0  0
   63.9460   33.4810   48.9980 C   0  0  0  0  0  0  0  0  0  0  0  0
   63.4290   33.8040   47.6380 C   0  0  0  0  0  0  0  0  0  0  0  0
   63.1460   33.7170   50.0550 N   0  0  0  0  0  0  0  0  0  0  0  0
   60.3310   33.8340   50.3990 C   0  0  0  0  0  0  0  0  0  0  0  0
   59.5500   33.8490   49.2600 C   0  0  0  0  0  0  0  0  0  0  0  0
   61.6586   30.8393   48.6704 H   0  0  0  0  0  0  0  0  0  0  0  0
   62.8046   30.5597   47.3157 H   0  0  0  0  0  0  0  0  0  0  0  0
   61.7520   32.0153   47.3157 H   0  0  0  0  0  0  0  0  0  0  0  0
   59.9939   30.8918   46.4903 H   0  0  0  0  0  0  0  0  0  0  0  0
   61.2338   29.6620   46.0112 H   0  0  0  0  0  0  0  0  0  0  0  0
   60.8786   28.6379   48.3149 H   0  0  0  0  0  0  0  0  0  0  0  0
   59.3983   29.6949   48.4029 H   0  0  0  0  0  0  0  0  0  0  0  0
   59.0523   27.3191   47.6497 H   0  0  0  0  0  0  0  0  0  0  0  0
   58.4188   28.6644   46.5825 H   0  0  0  0  0  0  0  0  0  0  0  0
   61.0834   27.8974   45.8499 H   0  0  0  0  0  0  0  0  0  0  0  0
   59.9252   26.4908   45.8374 H   0  0  0  0  0  0  0  0  0  0  0  0
   59.4293   29.1467   44.4762 H   0  0  0  0  0  0  0  0  0  0  0  0
   60.1019   27.6457   43.6841 H   0  0  0  0  0  0  0  0  0  0  0  0
   58.1092   26.4538   44.0150 H   0  0  0  0  0  0  0  0  0  0  0  0
   57.4503   27.7365   45.1153 H   0  0  0  0  0  0  0  0  0  0  0  0
   58.2041   28.5615   42.3574 H   0  0  0  0  0  0  0  0  0  0  0  0
   56.7318   27.5036   42.5722 H   0  0  0  0  0  0  0  0  0  0  0  0
   56.9853   30.2788   42.8835 H   0  0  0  0  0  0  0  0  0  0  0  0
   55.5587   29.1423   43.1844 H   0  0  0  0  0  0  0  0  0  0  0  0
   55.6291   30.2441   45.1052 H   0  0  0  0  0  0  0  0  0  0  0  0
   56.7198   28.8090   45.4268 H   0  0  0  0  0  0  0  0  0  0  0  0
   57.6687   30.8413   46.3850 H   0  0  0  0  0  0  0  0  0  0  0  0
   58.6884   30.2293   45.0632 H   0  0  0  0  0  0  0  0  0  0  0  0
   57.9351   31.8207   43.5659 H   0  0  0  0  0  0  0  0  0  0  0  0
   56.4334   32.1330   44.6263 H   0  0  0  0  0  0  0  0  0  0  0  0
   56.7428   34.3284   46.3637 H   0  0  0  0  0  0  0  0  0  0  0  0
   57.2021   35.1147   44.8154 H   0  0  0  0  0  0  0  0  0  0  0  0
   56.0521   33.7349   44.8154 H   0  0  0  0  0  0  0  0  0  0  0  0
   59.7902   34.4387   44.6215 H   0  0  0  0  0  0  0  0  0  0  0  0
   59.4876   33.0839   43.4815 H   0  0  0  0  0  0  0  0  0  0  0  0
   58.4042   34.5167   43.4815 H   0  0  0  0  0  0  0  0  0  0  0  0
   57.0420   32.6640   47.6920 H   0  0  0  0  0  0  0  0  0  0  0  0
   58.4039   30.6815   49.2898 H   0  0  0  0  0  0  0  0  0  0  0  0
   59.7928   30.6117   51.3350 H   0  0  0  0  0  0  0  0  0  0  0  0
   65.2213   32.6733   52.5063 H   0  0  0  0  0  0  0  0  0  0  0  0
   67.2775   32.0037   51.5532 H   0  0  0  0  0  0  0  0  0  0  0  0
   67.0552   31.1238   50.0030 H   0  0  0  0  0  0  0  0  0  0  0  0
   67.7405   32.7842   50.0030 H   0  0  0  0  0  0  0  0  0  0  0  0
   65.7800   32.7980   48.2600 H   0  0  0  0  0  0  0  0  0  0  0  0
   62.4992   34.3849   47.7276 H   0  0  0  0  0  0  0  0  0  0  0  0
   64.1790   34.3945   47.0913 H   0  0  0  0  0  0  0  0  0  0  0  0
   63.2272   32.8710   47.0913 H   0  0  0  0  0  0  0  0  0  0  0  0
   60.8763   34.7385   50.7065 H   0  0  0  0  0  0  0  0  0  0  0  0
   59.4815   34.7730   48.6672 H   0  0  0  0  0  0  0  0  0  0  0  0
  1  2  1  0
  2  3  1  0
  3  4  1  0
  4  5  1  0
  5  6  1  0
  6  7  1  0
  7  8  1  0
  8  9  1  0
  9 10  1  0
 10 11  1  0
 11 12  1  0
 12 13  1  0
 13 14  1  0
 13 15  1  0
 13 16  1  0
 16 17  2  0
 16 18  1  0
 18 19  1  0
 19 20  2  0
 20 21  1  0
 21 22  2  0
 22 23  1  0
 23 24  2  0
 23 25  2  0
 23 26  1  0
 26 27  2  0
 27 28  1  0
 28 29  2  0
 29 30  1  0
 29 31  1  0
 31 32  1  0
 32 33  1  0
 32 34  2  0
 22 35  1  0
 35 36  2  0
 36 19  1  0
 34 27  1  0
  1 37  1  0
  1 38  1  0
  1 39  1  0
  2 40  1  0
  2 41  1  0
  3 42  1  0
  3 43  1  0
  4 44  1  0
  4 45  1  0
  5 46  1  0
  5 47  1  0
  6 48  1  0
  6 49  1  0
  7 50  1  0
  7 51  1  0
  8 52  1  0
  8 53  1  0
  9 54  1  0
  9 55  1  0
 10 56  1  0
 10 57  1  0
 11 58  1  0
 11 59  1  0
 12 60  1  0
 12 61  1  0
 14 62  1  0
 14 63  1  0
 14 64  1  0
 15 65  1  0
 15 66  1  0
 15 67  1  0
 18 68  1  0
 20 69  1  0
 21 70  1  0
 28 71  1  0
 30 72  1  0
 30 73  1  0
 30 74  1  0
 31 75  1  0
 33 76  1  0
 33 77  1  0
 33 78  1  0
 35 79  1  0
 36 80  1  0
M  END
>  <smiles>  (30) 
CCCCCCCCCCCCC(C)(C)C(=O)Nc1ccc(S(=O)(=O)N=c2cc(C)[nH]c(C)n2)cc1

>  <score_type>  (30) 
oracle

>  <origin>  (30) 
adg

>  <m_score__min__energy>  (30) 
-9.3200000000000003

>  <m_primary>  (30) 
energy

$$$$
30:0
     RDKit          3D

 45 47  0  0  0  0  0  0  0  0999 V2000
   59.7780   34.1890   49.6320 C   0  0  0  0  0  0  0  0  0  0  0  0
   59.7550   32.9670   48.8040 N   0  0  0  0  0  0  0  0  0  0  0  0
   59.4690   33.0360   47.4550 C   0  0  0  0  0  0  0  0  0  0  0  0
   59.0930   34.3110   46.8000 C   0  0  0  0  0  0  0  0  0  0  0  0
   58.0950   34.3390   45.7790 N   0  0  0  0  0  0  0  0  0  0  0  0
   59.6820   35.3770   47.1210 O   0  0  0  0  0  0  0  0  0  0  0  0
   59.4910   31.8700   46.6720 C   0  0  0  0  0  0  0  0  0  0  0  0
   59.2090   31.9430   45.2980 O   0  0  0  0  0  0  0  0  0  0  0  0
   58.2090   31.2020   44.6540 C   0  0  0  0  0  0  0  0  0  0  0  0
   57.8170   31.5680   43.3630 C   0  0  0  0  0  0  0  0  0  0  0  0
   56.8270   30.8420   42.6960 C   0  0  0  0  0  0  0  0  0  0  0  0
   56.2130   29.7550   43.3220 C   0  0  0  0  0  0  0  0  0  0  0  0
   56.5710   29.3910   44.6260 C   0  0  0  0  0  0  0  0  0  0  0  0
   55.8970   28.2820   45.2390 N   0  0  0  0  0  0  0  0  0  0  0  0
   56.6610   26.8790   45.9180 S   0  0  0  0  0  0  0  0  0  0  0  0
   57.7260   26.1050   44.7210 C   0  0  0  0  0  0  0  0  0  0  0  0
   57.4450   27.2660   47.1410 O   0  0  0  0  0  0  0  0  0  0  0  0
   55.5940   25.9000   46.3180 O   0  0  0  0  0  0  0  0  0  0  0  0
   57.5690   30.1230   45.2930 C   0  0  0  0  0  0  0  0  0  0  0  0
   59.8150   30.6500   47.2690 C   0  0  0  0  0  0  0  0  0  0  0  0
   60.0710   30.5720   48.6390 C   0  0  0  0  0  0  0  0  0  0  0  0
   60.4130   29.2570   49.2460 C   0  0  0  0  0  0  0  0  0  0  0  0
   60.3450   28.0300   48.6050 C   0  0  0  0  0  0  0  0  0  0  0  0
   60.7780   27.0880   49.5150 C   0  0  0  0  0  0  0  0  0  0  0  0
   61.1050   27.7730   50.6660 C   0  0  0  0  0  0  0  0  0  0  0  0
   60.8850   29.0900   50.4990 N   0  0  0  0  0  0  0  0  0  0  0  0
   60.0000   31.7540   49.4040 C   0  0  0  0  0  0  0  0  0  0  0  0
   60.1450   31.6890   50.6570 O   0  0  0  0  0  0  0  0  0  0  0  0
   59.7728   33.9109   50.6963 H   0  0  0  0  0  0  0  0  0  0  0  0
   60.6872   34.7664   49.4083 H   0  0  0  0  0  0  0  0  0  0  0  0
   58.8912   34.8002   49.4083 H   0  0  0  0  0  0  0  0  0  0  0  0
   57.6720   33.4530   45.4220 H   0  0  0  0  0  0  0  0  0  0  0  0
   57.8180   35.2440   45.3390 H   0  0  0  0  0  0  0  0  0  0  0  0
   58.2897   32.4306   42.8706 H   0  0  0  0  0  0  0  0  0  0  0  0
   56.5306   31.1271   41.6758 H   0  0  0  0  0  0  0  0  0  0  0  0
   55.4425   29.1805   42.7868 H   0  0  0  0  0  0  0  0  0  0  0  0
   58.5098   25.5353   45.2417 H   0  0  0  0  0  0  0  0  0  0  0  0
   57.1353   25.4240   44.0907 H   0  0  0  0  0  0  0  0  0  0  0  0
   58.1913   26.8771   44.0907 H   0  0  0  0  0  0  0  0  0  0  0  0
   57.8516   29.8509   46.3207 H   0  0  0  0  0  0  0  0  0  0  0  0
   59.8691   29.7403   46.6529 H   0  0  0  0  0  0  0  0  0  0  0  0
   60.0114   27.8439   47.5735 H   0  0  0  0  0  0  0  0  0  0  0  0
   60.8486   26.0022   49.3538 H   0  0  0  0  0  0  0  0  0  0  0  0
   61.4897   27.3103   51.5868 H   0  0  0  0  0  0  0  0  0  0  0  0
   61.0930   29.8300   51.2040 H   0  0  0  0  0  0  0  0  0  0  0  0
  1  2  1  0
  2  3  1  0
  3  4  1  0
  4  5  1  0
  4  6  2  0
  3  7  2  0
  7  8  1  0
  8  9  1  0
  9 10  2  0
 10 11  1  0
 11 12  2  0
 12 13  1  0
 13 14  1  0
 14 15  1  0
 15 16  1  0
 15 17  2  0
 15 18  2  0
 13 19  2  0
  7 20  1  0
 20 21  2  0
 21 22  1  0
 22 23  2  0
 23 24  1  0
 24 25  2  0
 25 26  1  0
 21 27  1  0
 27 28  2  0
 27  2  1  0
 19  9  1  0
 26 22  1  0
  1 29  1  0
  1 30  1  0
  1 31  1  0
  5 32  1  0
  5 33  1  0
 10 34  1  0
 11 35  1  0
 12 36  1  0
 16 37  1  0
 16 38  1  0
 16 39  1  0
 19 40  1  0
 20 41  1  0
 23 42  1  0
 24 43  1  0
 25 44  1  0
 26 45  1  0
M  CHG  1  14  -1
M  END
>  <UniqueID>  (31) 
26

>  <SMILES>  (31) 
Cn1c(C(N)=O)c(Oc2cccc([N-]S(C)(=O)=O)c2)cc(-c2ccc[nH]2)c1=O

>  <Energy>  (31) 
91.07901626497394

>  <Genealogy>  (31) 
Cn1c(C(N)=O)c(Oc2cccc([N-]S(C)(=O)=O)c2)cc(-c2ccc[nH]2)c1=O (protonated)
Cn1c(C(N)=O)c(Oc2cccc([N-]S(C)(=O)=O)c2)cc(-c2ccc[nH]2)c1=O (3D coordinates assigned)
Cn1c(C(N)=O)c(Oc2cccc([N-]S(C)(=O)=O)c2)cc(-c2ccc[nH]2)c1=O (optimized conformer: 91.07901626497394 kcal/mol)

>  <smiles>  (31) 
Cn1c(C(N)=O)c(Oc2cccc(NS(C)(=O)=O)c2)cc(-c2ccc[nH]2)c1=O

>  <score_type>  (31) 
oracle

>  <origin>  (31) 
adg

>  <m_score__min__energy>  (31) 
-10.800000000000001

>  <m_primary>  (31) 
energy

$$$$
31:0
     RDKit          3D

 67 71  0  0  1  0  0  0  0  0999 V2000
   56.9390   23.7420   43.5340 C   0  0  0  0  0  0  0  0  0  0  0  0
   57.6440   23.9440   44.8810 C   0  0  0  0  0  0  0  0  0  0  0  0
   56.6760   23.6020   45.9690 C   0  0  0  0  0  0  0  0  0  0  0  0
   58.8070   22.9990   44.9220 C   0  0  0  0  0  0  0  0  0  0  0  0
   58.0730   25.3730   45.0040 C   0  0  0  0  0  0  0  0  0  0  0  0
   59.1460   25.8440   45.7490 C   0  0  0  0  0  0  0  0  0  0  0  0
   59.1770   27.2050   45.5790 C   0  0  0  0  0  0  0  0  0  0  0  0
   59.9830   28.0910   46.0640 N   0  0  0  0  0  0  0  0  0  0  0  0
   59.7680   28.5500   47.3920 C   0  0  0  0  0  0  0  0  0  0  0  0
   59.8750   27.8310   48.4090 O   0  0  0  0  0  0  0  0  0  0  0  0
   59.4090   29.9270   47.5370 N   0  0  0  0  0  0  0  0  0  0  0  0
   59.1630   30.5270   48.8040 C   0  0  0  0  0  0  0  0  0  0  0  0
   58.7390   29.7100   49.8400 C   0  0  0  0  0  0  0  0  0  0  0  0
   58.4900   30.2710   51.0920 C   0  0  0  0  0  0  0  0  0  0  0  0
   58.6710   31.6390   51.2850 C   0  0  0  0  0  0  0  0  0  0  0  0
   58.4370   32.2030   52.4890 N   0  0  0  0  0  0  0  0  0  0  0  0
   58.6020   33.5220   52.7080 C   0  0  0  0  0  0  0  0  0  0  0  0
   59.0160   34.2920   51.6790 N   0  0  0  0  0  0  0  0  0  0  0  0
   59.2700   33.8030   50.4520 C   0  0  0  0  0  0  0  0  0  0  0  0
   59.6650   34.5320   49.4630 N   0  0  0  0  0  0  0  0  0  0  0  0
   60.8850   34.1950   48.8100 C   0  0  0  0  0  0  0  0  0  0  0  0
   61.0290   34.1760   47.4540 C   0  0  0  0  0  0  0  0  0  0  0  0
   62.2440   33.8390   46.9170 C   0  0  0  0  0  0  0  0  0  0  0  0
   63.3390   33.5130   47.7120 C   0  0  0  0  0  0  0  0  0  0  0  0
   63.2050   33.5290   49.0810 C   0  0  0  0  0  0  0  0  0  0  0  0
   64.7020   33.0830   50.1960 Br  0  0  0  0  0  0  0  0  0  0  0  0
   61.9790   33.8690   49.6090 C   0  0  0  0  0  0  0  0  0  0  0  0
   59.0990   32.4490   50.2330 C   0  0  0  0  0  0  0  0  0  0  0  0
   59.3420   31.8880   48.9960 C   0  0  0  0  0  0  0  0  0  0  0  0
   58.1580   27.5400   44.7600 N   0  0  0  0  0  0  0  0  0  0  0  0
   57.7880   28.8420   44.2930 C   0  0  0  0  0  0  0  0  0  0  0  0
   57.0420   28.8730   43.1240 C   0  0  0  0  0  0  0  0  0  0  0  0
   56.6480   30.0850   42.6120 C   0  0  0  0  0  0  0  0  0  0  0  0
   57.0180   31.2320   43.2900 C   0  0  0  0  0  0  0  0  0  0  0  0
   57.7660   31.1930   44.4620 C   0  0  0  0  0  0  0  0  0  0  0  0
   58.1420   32.4250   45.1610 C   0  0  0  0  0  0  0  0  0  0  0  0
   57.4230   33.6340   44.8480 N   0  0  0  0  0  0  0  0  0  0  0  0
   59.0610   32.4240   46.0040 O   0  0  0  0  0  0  0  0  0  0  0  0
   58.1570   29.9780   44.9710 C   0  0  0  0  0  0  0  0  0  0  0  0
   57.4980   26.4460   44.4160 N   0  0  0  0  0  0  0  0  0  0  0  0
   55.8948   23.4428   43.7079 H   0  0  0  0  0  0  0  0  0  0  0  0
   56.9609   24.6826   42.9640 H   0  0  0  0  0  0  0  0  0  0  0  0
   57.4556   22.9557   42.9640 H   0  0  0  0  0  0  0  0  0  0  0  0
   57.1499   23.7694   46.9474 H   0  0  0  0  0  0  0  0  0  0  0  0
   55.7839   24.2394   45.8798 H   0  0  0  0  0  0  0  0  0  0  0  0
   56.3823   22.5457   45.8798 H   0  0  0  0  0  0  0  0  0  0  0  0
   59.0694   22.7858   45.9687 H   0  0  0  0  0  0  0  0  0  0  0  0
   58.5361   22.0619   44.4137 H   0  0  0  0  0  0  0  0  0  0  0  0
   59.6689   23.4560   44.4137 H   0  0  0  0  0  0  0  0  0  0  0  0
   59.8372   25.2424   46.3576 H   0  0  0  0  0  0  0  0  0  0  0  0
   59.3110   30.5610   46.6890 H   0  0  0  0  0  0  0  0  0  0  0  0
   58.6004   28.6311   49.6765 H   0  0  0  0  0  0  0  0  0  0  0  0
   58.1520   29.6360   51.9242 H   0  0  0  0  0  0  0  0  0  0  0  0
   58.4049   33.9596   53.6978 H   0  0  0  0  0  0  0  0  0  0  0  0
   59.1380   35.3100   51.8680 H   0  0  0  0  0  0  0  0  0  0  0  0
   60.1812   34.4278   46.8000 H   0  0  0  0  0  0  0  0  0  0  0  0
   62.3574   33.8257   45.8229 H   0  0  0  0  0  0  0  0  0  0  0  0
   64.3011   33.2455   47.2506 H   0  0  0  0  0  0  0  0  0  0  0  0
   61.8591   33.8837   50.7024 H   0  0  0  0  0  0  0  0  0  0  0  0
   59.6780   32.5213   48.1617 H   0  0  0  0  0  0  0  0  0  0  0  0
   56.7692   27.9379   42.6130 H   0  0  0  0  0  0  0  0  0  0  0  0
   56.0543   30.1417   41.6877 H   0  0  0  0  0  0  0  0  0  0  0  0
   56.7102   32.2088   42.8887 H   0  0  0  0  0  0  0  0  0  0  0  0
   57.9800   34.5110   44.7530 H   0  0  0  0  0  0  0  0  0  0  0  0
   56.3750   33.5970   44.7270 H   0  0  0  0  0  0  0  0  0  0  0  0
   58.7492   29.9169   45.8960 H   0  0  0  0  0  0  0  0  0  0  0  0
   56.6630   26.3710   43.7930 H   0  0  0  0  0  0  0  0  0  0  0  0
  1  2  1  0
  2  3  1  0
  2  4  1  0
  2  5  1  0
  5  6  2  0
  6  7  1  0
  7  8  2  0
  8  9  1  0
  9 10  2  0
  9 11  1  0
 11 12  1  0
 12 13  2  0
 13 14  1  0
 14 15  2  0
 15 16  1  0
 16 17  2  0
 17 18  1  0
 18 19  1  0
 19 20  2  0
 20 21  1  0
 21 22  2  0
 22 23  1  0
 23 24  2  0
 24 25  1  0
 25 26  1  0
 25 27  2  0
 19 28  1  0
 28 29  2  0
  7 30  1  0
 30 31  1  0
 31 32  2  0
 32 33  1  0
 33 34  2  0
 34 35  1  0
 35 36  1  0
 36 37  1  0
 36 38  2  0
 35 39  2  0
 30 40  1  0
 40  5  1  0
 29 12  1  0
 39 31  1  0
 28 15  1  0
 27 21  1  0
  1 41  1  0
  1 42  1  0
  1 43  1  0
  3 44  1  0
  3 45  1  0
  3 46  1  0
  4 47  1  0
  4 48  1  0
  4 49  1  0
  6 50  1  0
 11 51  1  0
 13 52  1  0
 14 53  1  0
 17 54  1  0
 18 55  1  0
 22 56  1  0
 23 57  1  0
 24 58  1  0
 27 59  1  0
 29 60  1  0
 32 61  1  0
 33 62  1  0
 34 63  1  0
 37 64  1  0
 37 65  1  0
 39 66  1  0
 40 67  1  0
M  END
>  <smiles>  (32) 
CC(C)(C)c1cc(=NC(=O)Nc2ccc3nc[nH]c(=Nc4cccc(Br)c4)c3c2)n(-c2cccc(C(N)=O)c2)[nH]1

>  <score_type>  (32) 
oracle

>  <origin>  (32) 
adg

>  <m_score__min__energy>  (32) 
-10.880000000000001

>  <m_primary>  (32) 
energy

$$$$
32:0
     RDKit          3D

 41 43  0  0  0  0  0  0  0  0999 V2000
   55.1650   26.6900   46.0170 N   0  0  0  0  0  0  0  0  0  0  0  0
   56.8740   26.4520   45.9110 S   0  0  0  0  0  0  0  0  0  0  0  0
   57.4070   26.0300   47.2520 O   0  0  0  0  0  0  0  0  0  0  0  0
   57.1620   25.3690   44.9090 O   0  0  0  0  0  0  0  0  0  0  0  0
   57.6410   27.9600   45.4260 C   0  0  0  0  0  0  0  0  0  0  0  0
   58.9610   27.9800   44.9570 C   0  0  0  0  0  0  0  0  0  0  0  0
   59.5450   29.1850   44.5590 C   0  0  0  0  0  0  0  0  0  0  0  0
   58.8120   30.3740   44.6190 C   0  0  0  0  0  0  0  0  0  0  0  0
   57.4890   30.3680   45.0780 C   0  0  0  0  0  0  0  0  0  0  0  0
   56.7600   31.6030   45.0950 N   0  0  0  0  0  0  0  0  0  0  0  0
   57.4770   33.1810   45.0550 S   0  0  0  0  0  0  0  0  0  0  0  0
   58.4160   33.2610   43.8840 O   0  0  0  0  0  0  0  0  0  0  0  0
   56.3970   34.2120   44.8900 O   0  0  0  0  0  0  0  0  0  0  0  0
   58.3340   33.4880   46.5630 C   0  0  0  0  0  0  0  0  0  0  0  0
   59.1680   34.6050   46.6940 C   0  0  0  0  0  0  0  0  0  0  0  0
   59.8860   34.8140   47.8740 C   0  0  0  0  0  0  0  0  0  0  0  0
   59.7760   33.9040   48.9410 C   0  0  0  0  0  0  0  0  0  0  0  0
   60.5020   34.0700   50.1660 N   0  0  0  0  0  0  0  0  0  0  0  0
   62.1840   33.7090   50.3860 S   0  0  0  0  0  0  0  0  0  0  0  0
   62.9170   34.9630   50.7700 O   0  0  0  0  0  0  0  0  0  0  0  0
   62.3460   32.6650   51.4530 O   0  0  0  0  0  0  0  0  0  0  0  0
   62.8410   33.1020   48.8790 C   0  0  0  0  0  0  0  0  0  0  0  0
   63.3370   33.8740   47.8400 C   0  0  0  0  0  0  0  0  0  0  0  0
   63.8060   33.1060   46.7670 C   0  0  0  0  0  0  0  0  0  0  0  0
   63.6770   31.7370   46.9630 C   0  0  0  0  0  0  0  0  0  0  0  0
   62.9790   31.4790   48.4730 S   0  0  0  0  0  0  0  0  0  0  0  0
   58.9330   32.7930   48.8080 C   0  0  0  0  0  0  0  0  0  0  0  0
   58.2150   32.5850   47.6280 C   0  0  0  0  0  0  0  0  0  0  0  0
   56.9110   29.1540   45.4930 C   0  0  0  0  0  0  0  0  0  0  0  0
   54.8010   26.7300   45.0380 H   0  0  0  0  0  0  0  0  0  0  0  0
   59.5385   27.0454   44.9021 H   0  0  0  0  0  0  0  0  0  0  0  0
   60.5838   29.1984   44.1976 H   0  0  0  0  0  0  0  0  0  0  0  0
   59.2772   31.3197   44.3038 H   0  0  0  0  0  0  0  0  0  0  0  0
   59.2583   35.3212   45.8640 H   0  0  0  0  0  0  0  0  0  0  0  0
   60.5398   35.6935   47.9691 H   0  0  0  0  0  0  0  0  0  0  0  0
   63.3598   34.9736   47.8566 H   0  0  0  0  0  0  0  0  0  0  0  0
   64.2360   33.5455   45.8549 H   0  0  0  0  0  0  0  0  0  0  0  0
   63.9796   30.9541   46.2520 H   0  0  0  0  0  0  0  0  0  0  0  0
   58.8358   32.0790   49.6391 H   0  0  0  0  0  0  0  0  0  0  0  0
   57.5546   31.7103   47.5345 H   0  0  0  0  0  0  0  0  0  0  0  0
   55.8787   29.1423   45.8727 H   0  0  0  0  0  0  0  0  0  0  0  0
  1  2  1  0
  2  3  2  0
  2  4  2  0
  2  5  1  0
  5  6  2  0
  6  7  1  0
  7  8  2  0
  8  9  1  0
  9 10  1  0
 10 11  1  0
 11 12  2  0
 11 13  2  0
 11 14  1  0
 14 15  2  0
 15 16  1  0
 16 17  2  0
 17 18  1  0
 18 19  1  0
 19 20  2  0
 19 21  2  0
 19 22  1  0
 22 23  2  0
 23 24  1  0
 24 25  2  0
 25 26  1  0
 17 27  1  0
 27 28  2  0
  9 29  2  0
 29  5  1  0
 28 14  1  0
 26 22  1  0
  1 30  1  0
  6 31  1  0
  7 32  1  0
  8 33  1  0
 15 34  1  0
 16 35  1  0
 23 36  1  0
 24 37  1  0
 25 38  1  0
 27 39  1  0
 28 40  1  0
 29 41  1  0
M  CHG  3   1  -1  10  -1  18  -1
M  END
>  <UniqueID>  (33) 
27

>  <SMILES>  (33) 
[NH-]S(=O)(=O)c1cccc([N-]S(=O)(=O)c2ccc([N-]S(=O)(=O)c3cccs3)cc2)c1

>  <Energy>  (33) 
75.53313431433001

>  <Genealogy>  (33) 
[NH-]S(=O)(=O)c1cccc([N-]S(=O)(=O)c2ccc([N-]S(=O)(=O)c3cccs3)cc2)c1 (protonated)
[NH-]S(=O)(=O)c1cccc([N-]S(=O)(=O)c2ccc([N-]S(=O)(=O)c3cccs3)cc2)c1 (3D coordinates assigned)
[NH-]S(=O)(=O)c1cccc([N-]S(=O)(=O)c2ccc([N-]S(=O)(=O)c3cccs3)cc2)c1 (optimized conformer: 75.53313431433001 kcal/mol)

>  <smiles>  (33) 
NS(=O)(=O)c1cccc(NS(=O)(=O)c2ccc(NS(=O)(=O)c3cccs3)cc2)c1

>  <score_type>  (33) 
oracle

>  <origin>  (33) 
adg

>  <m_score__min__energy>  (33) 
-14.06

>  <m_primary>  (33) 
energy

$$$$
33:0
     RDKit          3D

 32 34  0  0  0  0  0  0  0  0999 V2000
   56.4510   30.1930   51.6430 O   0  0  0  0  0  0  0  0  0  0  0  0
   56.1230   29.5560   52.6800 C   0  0  0  0  0  0  0  0  0  0  0  0
   57.1170   29.3120   53.7620 C   0  0  0  0  0  0  0  0  0  0  0  0
   58.2680   30.1210   53.9530 C   0  0  0  0  0  0  0  0  0  0  0  0
   58.4770   31.3170   53.2610 O   0  0  0  0  0  0  0  0  0  0  0  0
   59.2330   29.7450   54.8930 C   0  0  0  0  0  0  0  0  0  0  0  0
   59.0500   28.6130   55.6860 C   0  0  0  0  0  0  0  0  0  0  0  0
   57.8930   27.8480   55.5560 C   0  0  0  0  0  0  0  0  0  0  0  0
   56.9150   28.1980   54.6140 C   0  0  0  0  0  0  0  0  0  0  0  0
   55.6810   27.3440   54.4730 C   0  0  0  0  0  0  0  0  0  0  0  0
   54.4830   28.2050   54.0650 C   0  0  0  0  0  0  0  0  0  0  0  0
   54.7510   28.9170   52.7250 C   0  0  1  0  0  0  0  0  0  0  0  0
   53.6640   29.9360   52.4460 C   0  0  0  0  0  0  0  0  0  0  0  0
   52.7710   30.3350   53.4590 C   0  0  0  0  0  0  0  0  0  0  0  0
   51.7590   31.2590   53.1870 C   0  0  0  0  0  0  0  0  0  0  0  0
   51.6220   31.7900   51.9010 C   0  0  0  0  0  0  0  0  0  0  0  0
   50.6150   32.7090   51.6320 O   0  0  0  0  0  0  0  0  0  0  0  0
   52.4960   31.3930   50.8850 C   0  0  0  0  0  0  0  0  0  0  0  0
   53.5100   30.4680   51.1530 C   0  0  0  0  0  0  0  0  0  0  0  0
   57.9660   31.5800   52.4300 H   0  0  0  0  0  0  0  0  0  0  0  0
   60.1455   30.3485   55.0078 H   0  0  0  0  0  0  0  0  0  0  0  0
   59.8206   28.3234   56.4156 H   0  0  0  0  0  0  0  0  0  0  0  0
   57.7459   26.9651   56.1954 H   0  0  0  0  0  0  0  0  0  0  0  0
   55.8560   26.5777   53.7035 H   0  0  0  0  0  0  0  0  0  0  0  0
   55.4649   26.8651   55.4394 H   0  0  0  0  0  0  0  0  0  0  0  0
   53.5962   27.5626   53.9608 H   0  0  0  0  0  0  0  0  0  0  0  0
   54.3157   28.9663   54.8412 H   0  0  0  0  0  0  0  0  0  0  0  0
   54.7328   28.1537   51.9331 H   0  0  0  0  0  0  0  0  0  0  0  0
   52.8709   29.9164   54.4713 H   0  0  0  0  0  0  0  0  0  0  0  0
   51.0691   31.5691   53.9857 H   0  0  0  0  0  0  0  0  0  0  0  0
   52.3860   31.8090   49.8726 H   0  0  0  0  0  0  0  0  0  0  0  0
   54.1911   30.1546   50.3480 H   0  0  0  0  0  0  0  0  0  0  0  0
  1  2  2  0
  2  3  1  0
  3  4  2  0
  4  5  1  0
  4  6  1  0
  6  7  2  0
  7  8  1  0
  8  9  2  0
  9 10  1  0
 10 11  1  0
 11 12  1  0
 12 13  1  0
 13 14  2  0
 14 15  1  0
 15 16  2  0
 16 17  1  0
 16 18  1  0
 18 19  2  0
 12  2  1  0
 19 13  1  0
  9  3  1  0
  5 20  1  0
  6 21  1  0
  7 22  1  0
  8 23  1  0
 10 24  1  0
 10 25  1  0
 11 26  1  0
 11 27  1  0
 12 28  1  6
 14 29  1  0
 15 30  1  0
 18 31  1  0
 19 32  1  0
M  CHG  1  17  -1
M  END
>  <UniqueID>  (34) 
28

>  <SMILES>  (34) 
O=C1c2c(O)cccc2CC[C@H]1c1ccc([O-])cc1

>  <Energy>  (34) 
41.14229115516897

>  <Genealogy>  (34) 
O=C1c2c(O)cccc2CCC1c1ccc([O-])cc1 (protonated)
O=C1c2c(O)cccc2CC[C@H]1c1ccc([O-])cc1 (chirality)
O=C1c2c(O)cccc2CC[C@H]1c1ccc([O-])cc1 (3D coordinates assigned)
O=C1c2c(O)cccc2CC[C@H]1c1ccc([O-])cc1 (nonaromatic ring conformer: 41.14229115516897 kcal/mol)

>  <smiles>  (34) 
O=C1c2c(O)cccc2CCC1c1ccc(O)cc1

>  <score_type>  (34) 
oracle

>  <origin>  (34) 
adg

>  <m_score__min__energy>  (34) 
-9.7200000000000006

>  <m_primary>  (34) 
energy

$$$$
34:0
     RDKit          3D

 71 74  0  0  0  0  0  0  0  0999 V2000
   59.9420   28.3800   48.6110 C   0  0  0  0  0  0  0  0  0  0  0  0
   60.5530   28.4670   50.0060 C   0  0  0  0  0  0  0  0  0  0  0  0
   60.6800   29.8970   50.4400 C   0  0  0  0  0  0  0  0  0  0  0  0
   61.4630   30.7920   49.8090 N   0  0  0  0  0  0  0  0  0  0  0  0
   61.3300   31.9600   50.4220 N   0  0  0  0  0  0  0  0  0  0  0  0
   62.0370   33.1660   49.9840 C   0  0  0  0  0  0  0  0  0  0  0  0
   61.3370   33.7590   48.7820 C   0  0  0  0  0  0  0  0  0  0  0  0
   60.0370   34.2630   48.9380 C   0  0  0  0  0  0  0  0  0  0  0  0
   59.2850   34.6440   47.8270 C   0  0  0  0  0  0  0  0  0  0  0  0
   59.8050   34.4920   46.5370 C   0  0  0  0  0  0  0  0  0  0  0  0
   58.9570   34.7750   45.3620 C   0  0  0  0  0  0  0  0  0  0  0  0
   59.2430   35.7430   44.6080 O   0  0  0  0  0  0  0  0  0  0  0  0
   57.7970   33.9870   45.0690 N   0  0  0  0  0  0  0  0  0  0  0  0
   57.7620   32.5520   45.0010 C   0  0  0  0  0  0  0  0  0  0  0  0
   58.1690   31.8100   46.1190 C   0  0  0  0  0  0  0  0  0  0  0  0
   58.2210   30.4140   46.0640 C   0  0  0  0  0  0  0  0  0  0  0  0
   57.8600   29.7390   44.8870 C   0  0  0  0  0  0  0  0  0  0  0  0
   57.9370   28.2690   44.8290 C   0  0  0  0  0  0  0  0  0  0  0  0
   57.7880   27.6930   43.7180 O   0  0  0  0  0  0  0  0  0  0  0  0
   58.1840   27.4750   45.9960 N   0  0  0  0  0  0  0  0  0  0  0  0
   57.1700   26.7350   46.7430 C   0  0  0  0  0  0  0  0  0  0  0  0
   56.6920   25.5400   45.9520 C   0  0  0  0  0  0  0  0  0  0  0  0
   57.6150   24.5500   45.5700 C   0  0  0  0  0  0  0  0  0  0  0  0
   57.1860   23.4110   44.8810 C   0  0  0  0  0  0  0  0  0  0  0  0
   55.8350   23.2500   44.5680 C   0  0  0  0  0  0  0  0  0  0  0  0
   54.9120   24.2300   44.9370 C   0  0  0  0  0  0  0  0  0  0  0  0
   55.3330   25.3770   45.6180 C   0  0  0  0  0  0  0  0  0  0  0  0
   54.3940   26.3390   45.9660 O   0  0  0  0  0  0  0  0  0  0  0  0
   57.4650   30.4750   43.7630 C   0  0  0  0  0  0  0  0  0  0  0  0
   57.4240   31.8720   43.8150 C   0  0  0  0  0  0  0  0  0  0  0  0
   61.1180   34.0260   46.3720 C   0  0  0  0  0  0  0  0  0  0  0  0
   61.9030   33.6840   47.4860 C   0  0  0  0  0  0  0  0  0  0  0  0
   63.3190   33.2130   47.2740 C   0  0  0  0  0  0  0  0  0  0  0  0
   60.4430   31.8390   51.4370 C   0  0  0  0  0  0  0  0  0  0  0  0
   59.9760   32.9570   52.3320 C   0  0  0  0  0  0  0  0  0  0  0  0
   58.5420   33.3510   51.9950 C   0  0  0  0  0  0  0  0  0  0  0  0
   59.9910   30.5270   51.4660 C   0  0  0  0  0  0  0  0  0  0  0  0
   59.0260   29.9090   52.4380 C   0  0  0  0  0  0  0  0  0  0  0  0
   57.6510   29.8620   51.8500 C   0  0  0  0  0  0  0  0  0  0  0  0
   57.3540   30.5930   50.8670 O   0  0  0  0  0  0  0  0  0  0  0  0
   56.6980   28.9970   52.3740 O   0  0  0  0  0  0  0  0  0  0  0  0
   58.8562   28.2254   48.6953 H   0  0  0  0  0  0  0  0  0  0  0  0
   60.1380   29.3151   48.0659 H   0  0  0  0  0  0  0  0  0  0  0  0
   60.3912   27.5368   48.0659 H   0  0  0  0  0  0  0  0  0  0  0  0
   59.9082   27.9296   50.7169 H   0  0  0  0  0  0  0  0  0  0  0  0
   61.5551   28.0139   49.9825 H   0  0  0  0  0  0  0  0  0  0  0  0
   62.0461   33.9018   50.8017 H   0  0  0  0  0  0  0  0  0  0  0  0
   63.0699   32.9039   49.7114 H   0  0  0  0  0  0  0  0  0  0  0  0
   59.6069   34.3585   49.9459 H   0  0  0  0  0  0  0  0  0  0  0  0
   58.2786   35.0659   47.9655 H   0  0  0  0  0  0  0  0  0  0  0  0
   58.4496   32.3304   47.0466 H   0  0  0  0  0  0  0  0  0  0  0  0
   58.5459   29.8425   46.9459 H   0  0  0  0  0  0  0  0  0  0  0  0
   57.6020   26.3896   47.6938 H   0  0  0  0  0  0  0  0  0  0  0  0
   56.3142   27.3997   46.9325 H   0  0  0  0  0  0  0  0  0  0  0  0
   58.6805   24.6722   45.8145 H   0  0  0  0  0  0  0  0  0  0  0  0
   57.9139   22.6411   44.5854 H   0  0  0  0  0  0  0  0  0  0  0  0
   55.4980   22.3512   44.0308 H   0  0  0  0  0  0  0  0  0  0  0  0
   53.8478   24.0996   44.6909 H   0  0  0  0  0  0  0  0  0  0  0  0
   57.1860   29.9526   42.8360 H   0  0  0  0  0  0  0  0  0  0  0  0
   57.1258   32.4434   42.9236 H   0  0  0  0  0  0  0  0  0  0  0  0
   61.5373   33.9273   45.3598 H   0  0  0  0  0  0  0  0  0  0  0  0
   63.8019   33.0524   48.2492 H   0  0  0  0  0  0  0  0  0  0  0  0
   63.3108   32.2692   46.7090 H   0  0  0  0  0  0  0  0  0  0  0  0
   63.8777   33.9737   46.7090 H   0  0  0  0  0  0  0  0  0  0  0  0
   60.0230   32.6250   53.3796 H   0  0  0  0  0  0  0  0  0  0  0  0
   60.6286   33.8293   52.1796 H   0  0  0  0  0  0  0  0  0  0  0  0
   57.9762   33.5065   52.9254 H   0  0  0  0  0  0  0  0  0  0  0  0
   58.5456   34.2814   51.4082 H   0  0  0  0  0  0  0  0  0  0  0  0
   58.0697   32.5493   51.4082 H   0  0  0  0  0  0  0  0  0  0  0  0
   59.3544   28.8860   52.6738 H   0  0  0  0  0  0  0  0  0  0  0  0
   59.0019   30.5189   53.3531 H   0  0  0  0  0  0  0  0  0  0  0  0
  1  2  1  0
  2  3  1  0
  3  4  2  0
  4  5  1  0
  5  6  1  0
  6  7  1  0
  7  8  2  0
  8  9  1  0
  9 10  2  0
 10 11  1  0
 11 12  2  0
 11 13  1  0
 13 14  1  0
 14 15  2  0
 15 16  1  0
 16 17  2  0
 17 18  1  0
 18 19  2  0
 18 20  1  0
 20 21  1  0
 21 22  1  0
 22 23  2  0
 23 24  1  0
 24 25  2  0
 25 26  1  0
 26 27  2  0
 27 28  1  0
 17 29  1  0
 29 30  2  0
 10 31  1  0
 31 32  2  0
 32 33  1  0
  5 34  1  0
 34 35  1  0
 35 36  1  0
 34 37  2  0
 37 38  1  0
 38 39  1  0
 39 40  2  0
 39 41  1  0
 37  3  1  0
 32  7  1  0
 30 14  1  0
 27 22  1  0
  1 42  1  0
  1 43  1  0
  1 44  1  0
  2 45  1  0
  2 46  1  0
  6 47  1  0
  6 48  1  0
  8 49  1  0
  9 50  1  0
 15 51  1  0
 16 52  1  0
 21 53  1  0
 21 54  1  0
 23 55  1  0
 24 56  1  0
 25 57  1  0
 26 58  1  0
 29 59  1  0
 30 60  1  0
 31 61  1  0
 33 62  1  0
 33 63  1  0
 33 64  1  0
 35 65  1  0
 35 66  1  0
 36 67  1  0
 36 68  1  0
 36 69  1  0
 38 70  1  0
 38 71  1  0
M  CHG  4  13  -1  20  -1  28  -1  41  -1
M  END
>  <UniqueID>  (35) 
29

>  <SMILES>  (35) 
CCc1nn(Cc2ccc(C(=O)[N-]c3ccc(C(=O)[N-]Cc4ccccc4[O-])cc3)cc2C)c(CC)c1CC(=O)[O-]

>  <Energy>  (35) 
101.53740238414338

>  <Genealogy>  (35) 
CCc1nn(Cc2ccc(C(=O)[N-]c3ccc(C(=O)[N-]Cc4ccccc4[O-])cc3)cc2C)c(CC)c1CC(=O)[O-] (protonated)
CCc1nn(Cc2ccc(C(=O)[N-]c3ccc(C(=O)[N-]Cc4ccccc4[O-])cc3)cc2C)c(CC)c1CC(=O)[O-] (3D coordinates assigned)
CCc1nn(Cc2ccc(C(=O)[N-]c3ccc(C(=O)[N-]Cc4ccccc4[O-])cc3)cc2C)c(CC)c1CC(=O)[O-] (optimized conformer: 101.53740238414338 kcal/mol)

>  <smiles>  (35) 
CCc1nn(Cc2ccc(C(=O)Nc3ccc(C(=O)NCc4ccccc4O)cc3)cc2C)c(CC)c1CC(=O)O

>  <score_type>  (35) 
oracle

>  <origin>  (35) 
adg

>  <m_score__min__energy>  (35) 
-20.760000000000002

>  <m_primary>  (35) 
energy

$$$$
35:0
     RDKit          3D

 48 51  0  0  0  0  0  0  0  0999 V2000
   60.6720   28.6300   45.7020 O   0  0  0  0  0  0  0  0  0  0  0  0
   59.9630   29.0590   46.6520 C   0  0  0  0  0  0  0  0  0  0  0  0
   58.9550   30.0520   46.3990 N   0  0  0  0  0  0  0  0  0  0  0  0
   58.2080   30.1810   45.1730 C   0  0  0  0  0  0  0  0  0  0  0  0
   57.7470   29.0450   44.4750 C   0  0  0  0  0  0  0  0  0  0  0  0
   56.9870   29.1860   43.3120 C   0  0  0  0  0  0  0  0  0  0  0  0
   56.6580   30.4570   42.8390 C   0  0  0  0  0  0  0  0  0  0  0  0
   57.0810   31.5910   43.5330 C   0  0  0  0  0  0  0  0  0  0  0  0
   57.8510   31.4620   44.6960 C   0  0  0  0  0  0  0  0  0  0  0  0
   58.2440   32.6430   45.4050 N   0  0  0  0  0  0  0  0  0  0  0  0
   57.7660   32.9750   46.7320 C   0  0  0  0  0  0  0  0  0  0  0  0
   58.5500   34.2140   47.1450 C   0  0  0  0  0  0  0  0  0  0  0  0
   59.2120   34.7480   45.8740 C   0  0  0  0  0  0  0  0  0  0  0  0
   59.1870   33.6040   44.8690 C   0  0  0  0  0  0  0  0  0  0  0  0
   60.2360   28.5980   48.0370 C   0  0  0  0  0  0  0  0  0  0  0  0
   60.4640   27.2330   48.2800 C   0  0  0  0  0  0  0  0  0  0  0  0
   60.7690   26.7980   49.5700 C   0  0  0  0  0  0  0  0  0  0  0  0
   60.8400   27.6900   50.5910 N   0  0  0  0  0  0  0  0  0  0  0  0
   60.6160   29.0150   50.3970 C   0  0  0  0  0  0  0  0  0  0  0  0
   60.3010   29.5030   49.1180 C   0  0  0  0  0  0  0  0  0  0  0  0
   60.0060   30.8590   48.9210 O   0  0  0  0  0  0  0  0  0  0  0  0
   60.9290   31.8300   48.5110 C   0  0  0  0  0  0  0  0  0  0  0  0
   61.9030   31.4650   47.5730 C   0  0  0  0  0  0  0  0  0  0  0  0
   62.8560   32.3920   47.1430 C   0  0  0  0  0  0  0  0  0  0  0  0
   62.8530   33.6890   47.6600 C   0  0  0  0  0  0  0  0  0  0  0  0
   63.7820   34.5850   47.2470 F   0  0  0  0  0  0  0  0  0  0  0  0
   61.9010   34.0590   48.6140 C   0  0  0  0  0  0  0  0  0  0  0  0
   60.9410   33.1370   49.0500 C   0  0  0  0  0  0  0  0  0  0  0  0
   59.8450   33.6260   50.3370 Cl  0  0  0  0  0  0  0  0  0  0  0  0
   58.7740   30.7390   47.1640 H   0  0  0  0  0  0  0  0  0  0  0  0
   57.9883   28.0395   44.8501 H   0  0  0  0  0  0  0  0  0  0  0  0
   56.6468   28.2929   42.7673 H   0  0  0  0  0  0  0  0  0  0  0  0
   56.0650   30.5648   41.9188 H   0  0  0  0  0  0  0  0  0  0  0  0
   56.8085   32.5912   43.1651 H   0  0  0  0  0  0  0  0  0  0  0  0
   56.6877   33.1913   46.7099 H   0  0  0  0  0  0  0  0  0  0  0  0
   57.9103   32.1446   47.4389 H   0  0  0  0  0  0  0  0  0  0  0  0
   57.8720   34.9701   47.5676 H   0  0  0  0  0  0  0  0  0  0  0  0
   59.2985   33.9747   47.9148 H   0  0  0  0  0  0  0  0  0  0  0  0
   58.6502   35.6099   45.4847 H   0  0  0  0  0  0  0  0  0  0  0  0
   60.2399   35.0872   46.0697 H   0  0  0  0  0  0  0  0  0  0  0  0
   58.8528   33.9635   43.8846 H   0  0  0  0  0  0  0  0  0  0  0  0
   60.1844   33.1629   44.7256 H   0  0  0  0  0  0  0  0  0  0  0  0
   60.4021   26.5086   47.4545 H   0  0  0  0  0  0  0  0  0  0  0  0
   60.9523   25.7302   49.7602 H   0  0  0  0  0  0  0  0  0  0  0  0
   60.6816   29.7106   51.2466 H   0  0  0  0  0  0  0  0  0  0  0  0
   61.9178   30.4409   47.1718 H   0  0  0  0  0  0  0  0  0  0  0  0
   63.6092   32.0997   46.3965 H   0  0  0  0  0  0  0  0  0  0  0  0
   61.9057   35.0795   49.0245 H   0  0  0  0  0  0  0  0  0  0  0  0
  1  2  2  0
  2  3  1  0
  3  4  1  0
  4  5  2  0
  5  6  1  0
  6  7  2  0
  7  8  1  0
  8  9  2  0
  9 10  1  0
 10 11  1  0
 11 12  1  0
 12 13  1  0
 13 14  1  0
  2 15  1  0
 15 16  2  0
 16 17  1  0
 17 18  2  0
 18 19  1  0
 19 20  2  0
 20 21  1  0
 21 22  1  0
 22 23  2  0
 23 24  1  0
 24 25  2  0
 25 26  1  0
 25 27  1  0
 27 28  2  0
 28 29  1  0
  9  4  1  0
 14 10  1  0
 20 15  1  0
 28 22  1  0
  3 30  1  0
  5 31  1  0
  6 32  1  0
  7 33  1  0
  8 34  1  0
 11 35  1  0
 11 36  1  0
 12 37  1  0
 12 38  1  0
 13 39  1  0
 13 40  1  0
 14 41  1  0
 14 42  1  0
 16 43  1  0
 17 44  1  0
 19 45  1  0
 23 46  1  0
 24 47  1  0
 27 48  1  0
M  END
>  <UniqueID>  (36) 
30

>  <SMILES>  (36) 
O=C(Nc1ccccc1N1CCCC1)c1ccncc1Oc1ccc(F)cc1Cl

>  <Energy>  (36) 
71.74011584396098

>  <Genealogy>  (36) 
O=C(Nc1ccccc1N1CCCC1)c1ccncc1Oc1ccc(F)cc1Cl (3D coordinates assigned)
O=C(Nc1ccccc1N1CCCC1)c1ccncc1Oc1ccc(F)cc1Cl (nonaromatic ring conformer: 71.74011584396098 kcal/mol)

>  <smiles>  (36) 
O=C(Nc1ccccc1N1CCCC1)c1ccncc1Oc1ccc(F)cc1Cl

>  <score_type>  (36) 
oracle

>  <origin>  (36) 
adg

>  <m_score__min__energy>  (36) 
-7.79

>  <m_primary>  (36) 
energy

$$$$
36:0
     RDKit          3D

 48 50  0  0  1  0  0  0  0  0999 V2000
   60.7890   26.6120   46.4970 C   0  0  0  0  0  0  0  0  0  0  0  0
   59.6300   27.4120   45.9920 C   0  0  0  0  0  0  0  0  0  0  0  0
   58.8480   26.8810   44.9870 C   0  0  0  0  0  0  0  0  0  0  0  0
   57.7830   27.6360   44.5370 C   0  0  0  0  0  0  0  0  0  0  0  0
   57.4840   28.8830   45.0540 C   0  0  0  0  0  0  0  0  0  0  0  0
   56.3310   29.6450   44.5300 C   0  0  0  0  0  0  0  0  0  0  0  0
   55.1500   29.3480   44.8230 O   0  0  0  0  0  0  0  0  0  0  0  0
   56.6460   30.7330   43.6740 N   0  0  0  0  0  0  0  0  0  0  0  0
   57.1320   31.8190   44.1710 C   0  0  0  0  0  0  0  0  0  0  0  0
   58.1580   32.5280   43.5730 C   0  0  0  0  0  0  0  0  0  0  0  0
   58.6700   33.6840   44.1070 C   0  0  0  0  0  0  0  0  0  0  0  0
   58.1530   34.1460   45.2600 N   0  0  0  0  0  0  0  0  0  0  0  0
   57.1510   33.4670   45.8560 C   0  0  0  0  0  0  0  0  0  0  0  0
   56.6460   32.3200   45.3200 N   0  0  0  0  0  0  0  0  0  0  0  0
   58.2870   29.3920   46.0620 C   0  0  0  0  0  0  0  0  0  0  0  0
   59.3580   28.6590   46.5320 C   0  0  0  0  0  0  0  0  0  0  0  0
   60.2240   29.1160   47.5640 N   0  0  0  0  0  0  0  0  0  0  0  0
   59.7690   29.8060   48.7150 C   0  0  0  0  0  0  0  0  0  0  0  0
   58.5530   30.0650   48.9060 O   0  0  0  0  0  0  0  0  0  0  0  0
   60.8090   30.2170   49.7060 C   0  0  0  0  0  0  0  0  0  0  0  0
   61.8980   31.0410   49.0440 C   0  0  0  0  0  0  0  0  0  0  0  0
   61.3080   32.2750   48.4280 C   0  0  0  0  0  0  0  0  0  0  0  0
   61.6420   32.6170   47.1340 C   0  0  0  0  0  0  0  0  0  0  0  0
   61.0710   33.7730   46.5980 C   0  0  0  0  0  0  0  0  0  0  0  0
   60.1960   34.5310   47.3800 C   0  0  0  0  0  0  0  0  0  0  0  0
   59.6120   35.6980   46.8550 O   0  0  0  0  0  0  0  0  0  0  0  0
   59.8690   34.1860   48.6600 C   0  0  0  0  0  0  0  0  0  0  0  0
   60.4380   33.0340   49.1950 C   0  0  0  0  0  0  0  0  0  0  0  0
   60.7850   26.6148   47.5970 H   0  0  0  0  0  0  0  0  0  0  0  0
   60.7069   25.5773   46.1327 H   0  0  0  0  0  0  0  0  0  0  0  0
   61.7273   27.0557   46.1327 H   0  0  0  0  0  0  0  0  0  0  0  0
   59.0652   25.8911   44.5593 H   0  0  0  0  0  0  0  0  0  0  0  0
   57.1478   27.2296   43.7361 H   0  0  0  0  0  0  0  0  0  0  0  0
   58.5810   32.1498   42.6307 H   0  0  0  0  0  0  0  0  0  0  0  0
   59.4863   34.2218   43.6026 H   0  0  0  0  0  0  0  0  0  0  0  0
   58.5530   35.0310   45.6590 H   0  0  0  0  0  0  0  0  0  0  0  0
   56.7310   33.8487   46.7983 H   0  0  0  0  0  0  0  0  0  0  0  0
   58.0705   30.3825   46.4886 H   0  0  0  0  0  0  0  0  0  0  0  0
   61.2510   28.9110   47.4280 H   0  0  0  0  0  0  0  0  0  0  0  0
   60.3348   30.8170   50.4967 H   0  0  0  0  0  0  0  0  0  0  0  0
   61.2654   29.3105   50.1302 H   0  0  0  0  0  0  0  0  0  0  0  0
   62.6437   31.3319   49.7986 H   0  0  0  0  0  0  0  0  0  0  0  0
   62.3767   30.4394   48.2573 H   0  0  0  0  0  0  0  0  0  0  0  0
   62.3352   31.9995   46.5440 H   0  0  0  0  0  0  0  0  0  0  0  0
   61.3079   34.0839   45.5698 H   0  0  0  0  0  0  0  0  0  0  0  0
   59.0480   36.3120   47.4560 H   0  0  0  0  0  0  0  0  0  0  0  0
   59.1753   34.8013   49.2518 H   0  0  0  0  0  0  0  0  0  0  0  0
   60.1980   32.7267   50.2236 H   0  0  0  0  0  0  0  0  0  0  0  0
  1  2  1  0
  2  3  2  0
  3  4  1  0
  4  5  2  0
  5  6  1  0
  6  7  2  0
  6  8  1  0
  8  9  2  0
  9 10  1  0
 10 11  2  0
 11 12  1  0
 12 13  1  0
 13 14  2  0
  5 15  1  0
 15 16  2  0
 16 17  1  0
 17 18  1  0
 18 19  2  0
 18 20  1  0
 20 21  1  0
 21 22  1  0
 22 23  2  0
 23 24  1  0
 24 25  2  0
 25 26  1  0
 25 27  1  0
 27 28  2  0
 16  2  1  0
 28 22  1  0
 14  9  1  0
  1 29  1  0
  1 30  1  0
  1 31  1  0
  3 32  1  0
  4 33  1  0
 10 34  1  0
 11 35  1  0
 12 36  1  0
 13 37  1  0
 15 38  1  0
 17 39  1  0
 20 40  1  0
 20 41  1  0
 21 42  1  0
 21 43  1  0
 23 44  1  0
 24 45  1  0
 26 46  1  0
 27 47  1  0
 28 48  1  0
M  END
>  <smiles>  (37) 
Cc1ccc(C(=O)N=c2cc[nH]cn2)cc1NC(=O)CCc1ccc(O)cc1

>  <score_type>  (37) 
oracle

>  <origin>  (37) 
adg

>  <m_score__min__energy>  (37) 
-9.7400000000000002

>  <m_primary>  (37) 
energy

$$$$
37:0
     RDKit          3D

 55 58  0  0  0  0  0  0  0  0999 V2000
   58.1330   32.2210   48.7120 O   0  0  0  0  0  0  0  0  0  0  0  0
   58.5680   31.3870   49.5500 C   0  0  0  0  0  0  0  0  0  0  0  0
   59.2580   30.2090   49.1020 N   0  0  0  0  0  0  0  0  0  0  0  0
   59.2780   29.7630   47.7350 C   0  0  0  0  0  0  0  0  0  0  0  0
   60.1850   28.7800   47.2970 C   0  0  0  0  0  0  0  0  0  0  0  0
   60.1990   28.3820   45.9570 C   0  0  0  0  0  0  0  0  0  0  0  0
   59.3220   28.9680   45.0410 C   0  0  0  0  0  0  0  0  0  0  0  0
   58.4290   29.9600   45.4600 C   0  0  0  0  0  0  0  0  0  0  0  0
   57.3420   30.7020   44.2890 S   0  0  0  0  0  0  0  0  0  0  0  0
   55.9360   30.7620   44.8190 O   0  0  0  0  0  0  0  0  0  0  0  0
   57.3490   29.8770   43.0320 O   0  0  0  0  0  0  0  0  0  0  0  0
   57.8840   32.3060   43.9180 N   0  0  0  0  0  0  0  0  0  0  0  0
   58.3000   33.1620   44.8020 C   0  0  0  0  0  0  0  0  0  0  0  0
   59.2510   34.2460   44.4820 C   0  0  0  0  0  0  0  0  0  0  0  0
   59.4310   34.9740   45.8230 C   0  0  0  0  0  0  0  0  0  0  0  0
   58.5640   34.2430   46.8660 C   0  0  0  0  0  0  0  0  0  0  0  0
   57.9080   33.1610   46.1620 N   0  0  0  0  0  0  0  0  0  0  0  0
   58.4140   30.3600   46.8050 C   0  0  0  0  0  0  0  0  0  0  0  0
   58.3590   31.6130   50.9980 C   0  0  0  0  0  0  0  0  0  0  0  0
   57.2630   30.9740   51.6050 C   0  0  0  0  0  0  0  0  0  0  0  0
   56.9970   31.1490   52.9620 C   0  0  0  0  0  0  0  0  0  0  0  0
   57.8230   31.9570   53.7380 C   0  0  0  0  0  0  0  0  0  0  0  0
   58.9230   32.5910   53.1600 C   0  0  0  0  0  0  0  0  0  0  0  0
   59.2080   32.4370   51.7910 C   0  0  0  0  0  0  0  0  0  0  0  0
   60.4530   33.1130   51.2550 C   0  0  0  0  0  0  0  0  0  0  0  0
   60.0640   34.2000   49.8340 S   0  0  0  0  0  0  0  0  0  0  0  0
   61.3930   33.6000   48.7890 C   0  0  0  0  0  0  0  0  0  0  0  0
   61.1780   32.5120   47.9320 C   0  0  0  0  0  0  0  0  0  0  0  0
   62.2170   32.0400   47.1260 C   0  0  0  0  0  0  0  0  0  0  0  0
   63.4700   32.6600   47.1650 C   0  0  0  0  0  0  0  0  0  0  0  0
   63.6830   33.7560   48.0060 C   0  0  0  0  0  0  0  0  0  0  0  0
   62.6440   34.2290   48.8150 C   0  0  0  0  0  0  0  0  0  0  0  0
   59.8620   29.7070   49.7900 H   0  0  0  0  0  0  0  0  0  0  0  0
   60.8854   28.3232   48.0117 H   0  0  0  0  0  0  0  0  0  0  0  0
   60.9026   27.6052   45.6229 H   0  0  0  0  0  0  0  0  0  0  0  0
   59.3336   28.6488   43.9884 H   0  0  0  0  0  0  0  0  0  0  0  0
   60.2078   33.8369   44.1254 H   0  0  0  0  0  0  0  0  0  0  0  0
   58.8916   34.9080   43.6804 H   0  0  0  0  0  0  0  0  0  0  0  0
   60.4878   34.9459   46.1268 H   0  0  0  0  0  0  0  0  0  0  0  0
   59.1271   36.0276   45.7361 H   0  0  0  0  0  0  0  0  0  0  0  0
   59.1951   33.8445   47.6740 H   0  0  0  0  0  0  0  0  0  0  0  0
   57.8318   34.9235   47.3252 H   0  0  0  0  0  0  0  0  0  0  0  0
   57.2430   32.4970   46.6130 H   0  0  0  0  0  0  0  0  0  0  0  0
   57.7195   31.1476   47.1325 H   0  0  0  0  0  0  0  0  0  0  0  0
   56.6079   30.3284   51.0016 H   0  0  0  0  0  0  0  0  0  0  0  0
   56.1322   30.6473   53.4208 H   0  0  0  0  0  0  0  0  0  0  0  0
   57.6082   32.0957   54.8079 H   0  0  0  0  0  0  0  0  0  0  0  0
   59.5762   33.2197   53.7829 H   0  0  0  0  0  0  0  0  0  0  0  0
   60.9045   33.7179   52.0552 H   0  0  0  0  0  0  0  0  0  0  0  0
   61.1504   32.3337   50.9139 H   0  0  0  0  0  0  0  0  0  0  0  0
   60.1903   32.0293   47.8940 H   0  0  0  0  0  0  0  0  0  0  0  0
   62.0494   31.1804   46.4605 H   0  0  0  0  0  0  0  0  0  0  0  0
   64.2886   32.2848   46.5333 H   0  0  0  0  0  0  0  0  0  0  0  0
   64.6672   34.2465   48.0318 H   0  0  0  0  0  0  0  0  0  0  0  0
   62.8099   35.0956   49.4719 H   0  0  0  0  0  0  0  0  0  0  0  0
  1  2  2  0
  2  3  1  0
  3  4  1  0
  4  5  2  0
  5  6  1  0
  6  7  2  0
  7  8  1  0
  8  9  1  0
  9 10  2  0
  9 11  2  0
  9 12  1  0
 12 13  2  3
 13 14  1  0
 14 15  1  0
 15 16  1  0
 16 17  1  0
  8 18  2  0
  2 19  1  0
 19 20  2  0
 20 21  1  0
 21 22  2  0
 22 23  1  0
 23 24  2  0
 24 25  1  0
 25 26  1  0
 26 27  1  0
 27 28  2  0
 28 29  1  0
 29 30  2  0
 30 31  1  0
 31 32  2  0
 18  4  1  0
 24 19  1  0
 32 27  1  0
 17 13  1  0
  3 33  1  0
  5 34  1  0
  6 35  1  0
  7 36  1  0
 14 37  1  0
 14 38  1  0
 15 39  1  0
 15 40  1  0
 16 41  1  0
 16 42  1  0
 17 43  1  0
 18 44  1  0
 20 45  1  0
 21 46  1  0
 22 47  1  0
 23 48  1  0
 25 49  1  0
 25 50  1  0
 28 51  1  0
 29 52  1  0
 30 53  1  0
 31 54  1  0
 32 55  1  0
M  END
>  <UniqueID>  (38) 
31

>  <SMILES>  (38) 
O=C(Nc1cccc(S(=O)(=O)N=C2CCCN2)c1)c1ccccc1CSc1ccccc1

>  <Energy>  (38) 
71.7108114921481

>  <Genealogy>  (38) 
O=C(Nc1cccc(S(=O)(=O)N=C2CCCN2)c1)c1ccccc1CSc1ccccc1 (3D coordinates assigned)
O=C(Nc1cccc(S(=O)(=O)N=C2CCCN2)c1)c1ccccc1CSc1ccccc1 (nonaromatic ring conformer: 71.7108114921481 kcal/mol)

>  <smiles>  (38) 
O=C(Nc1cccc(S(=O)(=O)N=C2CCCN2)c1)c1ccccc1CSc1ccccc1

>  <score_type>  (38) 
oracle

>  <origin>  (38) 
adg

>  <m_score__min__energy>  (38) 
-11.06

>  <m_primary>  (38) 
energy

$$$$
38:0
     RDKit          3D

 25 26  0  0  0  0  0  0  0  0999 V2000
   58.0674   33.3622   43.1724 H   0  0  0  0  0  0  0  0  0  0  0  0
   57.7800   32.9960   44.1690 C   0  0  0  0  0  0  0  0  0  0  0  0
   57.6700   33.8780   45.1720 C   0  0  0  0  0  0  0  0  0  0  0  0
   56.9681   34.7164   45.0515 H   0  0  0  0  0  0  0  0  0  0  0  0
   58.4420   33.7870   46.4360 C   0  0  0  0  0  0  0  0  0  0  0  0
   58.0490   32.8370   47.3960 C   0  0  0  0  0  0  0  0  0  0  0  0
   57.1908   32.1794   47.1935 H   0  0  0  0  0  0  0  0  0  0  0  0
   58.7410   32.7220   48.6060 C   0  0  0  0  0  0  0  0  0  0  0  0
   58.4316   31.9694   49.3461 H   0  0  0  0  0  0  0  0  0  0  0  0
   59.8240   33.5610   48.8760 C   0  0  0  0  0  0  0  0  0  0  0  0
   60.3698   33.4661   49.8263 H   0  0  0  0  0  0  0  0  0  0  0  0
   60.2140   34.5200   47.9400 C   0  0  0  0  0  0  0  0  0  0  0  0
   61.0638   35.1841   48.1565 H   0  0  0  0  0  0  0  0  0  0  0  0
   59.5270   34.6390   46.7270 C   0  0  0  0  0  0  0  0  0  0  0  0
   59.8351   35.4014   45.9964 H   0  0  0  0  0  0  0  0  0  0  0  0
   57.5310   31.5550   44.3490 C   0  0  0  0  0  0  0  0  0  0  0  0
   56.2910   31.0520   44.5430 N   0  0  0  0  0  0  0  0  0  0  0  0
   56.3070   29.7010   44.6820 C   0  0  0  0  0  0  0  0  0  0  0  0
   55.1400   28.9720   44.8720 O   0  0  0  0  0  0  0  0  0  0  0  0
   57.5650   29.1120   44.6140 C   0  0  0  0  0  0  0  0  0  0  0  0
   57.8620   27.6500   44.6620 C   0  0  0  0  0  0  0  0  0  0  0  0
   57.9283   27.3235   45.7103 H   0  0  0  0  0  0  0  0  0  0  0  0
   57.0581   27.0957   44.1555 H   0  0  0  0  0  0  0  0  0  0  0  0
   58.8184   27.4533   44.1555 H   0  0  0  0  0  0  0  0  0  0  0  0
   58.6940   30.3280   44.3400 S   0  0  0  0  0  0  0  0  0  0  0  0
  1  2  1  0
  2  3  2  0
  3  4  1  0
  3  5  1  0
  5  6  2  0
  6  7  1  0
  6  8  1  0
  8  9  1  0
  8 10  2  0
 10 11  1  0
 10 12  1  0
 12 13  1  0
 12 14  2  0
 14 15  1  0
  2 16  1  0
 16 17  2  0
 17 18  1  0
 18 19  1  0
 18 20  2  0
 20 21  1  0
 21 22  1  0
 21 23  1  0
 21 24  1  0
 20 25  1  0
 14  5  1  0
 25 16  1  0
M  CHG  1  19  -1
M  END
>  <UniqueID>  (39) 
32

>  <SMILES>  (39) 
Cc1sc(/C=C/c2ccccc2)nc1[O-]

>  <Energy>  (39) 
56.16090095050467

>  <Genealogy>  (39) 
Cc1sc(C=Cc2ccccc2)nc1[O-] (protonated)
Cc1sc(/C=C/c2ccccc2)nc1[O-] (cis-trans isomerization)
Cc1sc(/C=C/c2ccccc2)nc1[O-] (3D coordinates assigned)
Cc1sc(/C=C/c2ccccc2)nc1[O-] (optimized conformer: 56.16090095050467 kcal/mol)

>  <smiles>  (39) 
Cc1sc(C=Cc2ccccc2)nc1O

>  <score_type>  (39) 
oracle

>  <origin>  (39) 
adg

>  <m_score__min__energy>  (39) 
-10.81

>  <m_primary>  (39) 
energy

$$$$
39:0
     RDKit          3D

 45 46  0  0  1  0  0  0  0  0999 V2000
   63.1870   33.5040   46.7770 C   0  0  0  0  0  0  0  0  0  0  0  0
   62.0720   33.7600   47.7980 C   0  0  0  0  0  0  0  0  0  0  0  0
   61.2970   32.6080   47.8880 N   0  0  0  0  0  0  0  0  0  0  0  0
   61.6620   31.4690   47.1490 C   0  0  0  0  0  0  0  0  0  0  0  0
   60.8070   30.2410   47.3580 C   0  0  0  0  0  0  0  0  0  0  0  0
   60.1650   32.5330   48.7070 C   0  0  0  0  0  0  0  0  0  0  0  0
   59.7190   33.9580   49.0570 C   0  0  0  0  0  0  0  0  0  0  0  0
   58.8860   34.5020   48.0600 N   0  0  0  0  0  0  0  0  0  0  0  0
   58.7760   34.1970   46.8300 C   0  0  0  0  0  0  0  0  0  0  0  0
   59.4230   34.8080   45.8250 N   0  0  0  0  0  0  0  0  0  0  0  0
   59.2840   34.4660   44.5330 C   0  0  0  0  0  0  0  0  0  0  0  0
   58.4280   33.4260   44.2010 C   0  0  0  0  0  0  0  0  0  0  0  0
   57.7650   32.8020   45.2380 C   0  0  0  0  0  0  0  0  0  0  0  0
   56.9680   31.8390   44.9880 N   0  0  0  0  0  0  0  0  0  0  0  0
   57.4000   30.4900   44.9050 C   0  0  0  0  0  0  0  0  0  0  0  0
   58.7510   30.2190   44.6960 C   0  0  0  0  0  0  0  0  0  0  0  0
   59.2350   28.9280   44.6030 C   0  0  0  0  0  0  0  0  0  0  0  0
   58.3520   27.8630   44.7200 C   0  0  0  0  0  0  0  0  0  0  0  0
   57.0150   28.1250   44.9270 C   0  0  0  0  0  0  0  0  0  0  0  0
   56.5340   29.4290   45.0200 C   0  0  0  0  0  0  0  0  0  0  0  0
   55.1810   29.6250   45.2280 O   0  0  0  0  0  0  0  0  0  0  0  0
   57.9430   33.1860   46.5130 N   0  0  0  0  0  0  0  0  0  0  0  0
   64.1267   33.2883   47.3066 H   0  0  0  0  0  0  0  0  0  0  0  0
   62.9161   32.6447   46.1460 H   0  0  0  0  0  0  0  0  0  0  0  0
   63.3181   34.3954   46.1460 H   0  0  0  0  0  0  0  0  0  0  0  0
   62.5110   33.9919   48.7796 H   0  0  0  0  0  0  0  0  0  0  0  0
   61.4531   34.6125   47.4814 H   0  0  0  0  0  0  0  0  0  0  0  0
   61.6178   31.7320   46.0818 H   0  0  0  0  0  0  0  0  0  0  0  0
   62.6663   31.1947   47.5042 H   0  0  0  0  0  0  0  0  0  0  0  0
   60.6815   30.0607   48.4358 H   0  0  0  0  0  0  0  0  0  0  0  0
   59.8214   30.3973   46.8952 H   0  0  0  0  0  0  0  0  0  0  0  0
   61.2956   29.3709   46.8952 H   0  0  0  0  0  0  0  0  0  0  0  0
   59.3560   32.0118   48.1742 H   0  0  0  0  0  0  0  0  0  0  0  0
   60.4023   31.9771   49.6261 H   0  0  0  0  0  0  0  0  0  0  0  0
   59.1681   33.9356   50.0089 H   0  0  0  0  0  0  0  0  0  0  0  0
   60.6166   34.5889   49.1362 H   0  0  0  0  0  0  0  0  0  0  0  0
   60.0750   35.5950   46.0660 H   0  0  0  0  0  0  0  0  0  0  0  0
   59.8405   35.0025   43.7504 H   0  0  0  0  0  0  0  0  0  0  0  0
   58.2840   33.1124   43.1565 H   0  0  0  0  0  0  0  0  0  0  0  0
   59.4544   31.0595   44.6021 H   0  0  0  0  0  0  0  0  0  0  0  0
   60.3073   28.7463   44.4382 H   0  0  0  0  0  0  0  0  0  0  0  0
   58.7138   26.8267   44.6486 H   0  0  0  0  0  0  0  0  0  0  0  0
   56.3112   27.2848   45.0210 H   0  0  0  0  0  0  0  0  0  0  0  0
   54.7710   30.4490   45.6240 H   0  0  0  0  0  0  0  0  0  0  0  0
   57.4130   32.6700   47.2420 H   0  0  0  0  0  0  0  0  0  0  0  0
  1  2  1  0
  2  3  1  0
  3  4  1  0
  4  5  1  0
  3  6  1  0
  6  7  1  0
  7  8  1  0
  8  9  2  0
  9 10  1  0
 10 11  1  0
 11 12  2  0
 12 13  1  0
 13 14  2  0
 14 15  1  0
 15 16  2  0
 16 17  1  0
 17 18  2  0
 18 19  1  0
 19 20  2  0
 20 21  1  0
 13 22  1  0
 22  9  1  0
 20 15  1  0
  1 23  1  0
  1 24  1  0
  1 25  1  0
  2 26  1  0
  2 27  1  0
  4 28  1  0
  4 29  1  0
  5 30  1  0
  5 31  1  0
  5 32  1  0
  6 33  1  0
  6 34  1  0
  7 35  1  0
  7 36  1  0
 10 37  1  0
 11 38  1  0
 12 39  1  0
 16 40  1  0
 17 41  1  0
 18 42  1  0
 19 43  1  0
 21 44  1  0
 22 45  1  0
M  END
>  <smiles>  (40) 
CCN(CC)CCN=c1[nH]ccc(=Nc2ccccc2O)[nH]1

>  <score_type>  (40) 
oracle

>  <origin>  (40) 
adg

>  <m_score__min__energy>  (40) 
-7.5999999999999996

>  <m_primary>  (40) 
energy

$$$$
40:0
     RDKit          3D

 39 40  0  0  0  0  0  0  0  0999 V2000
   59.2960   28.9310   48.4100 C   0  0  0  0  0  0  0  0  0  0  0  0
   60.3750   28.0470   47.8080 C   0  0  0  0  0  0  0  0  0  0  0  0
   60.2190   28.0200   45.9920 S   0  0  0  0  0  0  0  0  0  0  0  0
   58.8590   26.8430   46.0070 C   0  0  0  0  0  0  0  0  0  0  0  0
   59.1480   25.4720   46.0120 C   0  0  0  0  0  0  0  0  0  0  0  0
   58.1140   24.5350   46.0010 C   0  0  0  0  0  0  0  0  0  0  0  0
   56.7850   24.9600   45.9900 C   0  0  0  0  0  0  0  0  0  0  0  0
   56.4840   26.3260   45.9850 C   0  0  0  0  0  0  0  0  0  0  0  0
   55.1850   26.7180   46.0150 F   0  0  0  0  0  0  0  0  0  0  0  0
   57.5190   27.2790   45.9860 C   0  0  0  0  0  0  0  0  0  0  0  0
   57.2150   28.6820   45.9910 N   0  0  0  0  0  0  0  0  0  0  0  0
   56.9730   29.4250   44.7910 C   0  0  0  0  0  0  0  0  0  0  0  0
   57.0280   28.8560   43.6670 O   0  0  0  0  0  0  0  0  0  0  0  0
   56.6510   30.8170   44.8850 N   0  0  0  0  0  0  0  0  0  0  0  0
   57.5530   31.8720   45.2510 C   0  0  0  0  0  0  0  0  0  0  0  0
   57.1870   33.1930   44.9760 C   0  0  0  0  0  0  0  0  0  0  0  0
   58.0270   34.2470   45.3350 C   0  0  0  0  0  0  0  0  0  0  0  0
   59.2350   33.9920   45.9880 C   0  0  0  0  0  0  0  0  0  0  0  0
   59.6140   32.6730   46.3020 C   0  0  0  0  0  0  0  0  0  0  0  0
   60.8940   32.4180   47.0180 C   0  0  0  0  0  0  0  0  0  0  0  0
   61.9920   33.4390   47.0690 C   0  0  0  0  0  0  0  0  0  0  0  0
   61.0750   31.3150   47.6000 O   0  0  0  0  0  0  0  0  0  0  0  0
   58.7560   31.6160   45.9330 C   0  0  0  0  0  0  0  0  0  0  0  0
   59.3535   28.8839   49.5075 H   0  0  0  0  0  0  0  0  0  0  0  0
   59.4458   29.9693   48.0792 H   0  0  0  0  0  0  0  0  0  0  0  0
   58.3074   28.5798   48.0792 H   0  0  0  0  0  0  0  0  0  0  0  0
   61.3643   28.4418   48.0826 H   0  0  0  0  0  0  0  0  0  0  0  0
   60.2605   27.0238   48.1951 H   0  0  0  0  0  0  0  0  0  0  0  0
   60.1943   25.1329   46.0247 H   0  0  0  0  0  0  0  0  0  0  0  0
   58.3469   23.4599   46.0010 H   0  0  0  0  0  0  0  0  0  0  0  0
   55.9720   24.2190   45.9853 H   0  0  0  0  0  0  0  0  0  0  0  0
   57.3210   29.2150   46.8830 H   0  0  0  0  0  0  0  0  0  0  0  0
   56.2311   33.4023   44.4736 H   0  0  0  0  0  0  0  0  0  0  0  0
   57.7371   35.2825   45.1031 H   0  0  0  0  0  0  0  0  0  0  0  0
   59.8957   34.8286   46.2592 H   0  0  0  0  0  0  0  0  0  0  0  0
   62.2345   33.6645   48.1180 H   0  0  0  0  0  0  0  0  0  0  0  0
   62.8849   33.0428   46.5632 H   0  0  0  0  0  0  0  0  0  0  0  0
   61.6617   34.3583   46.5632 H   0  0  0  0  0  0  0  0  0  0  0  0
   59.0308   30.5802   46.1814 H   0  0  0  0  0  0  0  0  0  0  0  0
  1  2  1  0
  2  3  1  0
  3  4  1  0
  4  5  2  0
  5  6  1  0
  6  7  2  0
  7  8  1  0
  8  9  1  0
  8 10  2  0
 10 11  1  0
 11 12  1  0
 12 13  2  0
 12 14  1  0
 14 15  1  0
 15 16  2  0
 16 17  1  0
 17 18  2  0
 18 19  1  0
 19 20  1  0
 20 21  1  0
 20 22  2  0
 19 23  2  0
 10  4  1  0
 23 15  1  0
  1 24  1  0
  1 25  1  0
  1 26  1  0
  2 27  1  0
  2 28  1  0
  5 29  1  0
  6 30  1  0
  7 31  1  0
 11 32  1  0
 16 33  1  0
 17 34  1  0
 18 35  1  0
 21 36  1  0
 21 37  1  0
 21 38  1  0
 23 39  1  0
M  CHG  1  14  -1
M  END
>  <UniqueID>  (41) 
33

>  <SMILES>  (41) 
CCSc1cccc(F)c1NC(=O)[N-]c1cccc(C(C)=O)c1

>  <Energy>  (41) 
40.75839445110626

>  <Genealogy>  (41) 
CCSc1cccc(F)c1NC(=O)[N-]c1cccc(C(C)=O)c1 (protonated)
CCSc1cccc(F)c1NC(=O)[N-]c1cccc(C(C)=O)c1 (3D coordinates assigned)
CCSc1cccc(F)c1NC(=O)[N-]c1cccc(C(C)=O)c1 (optimized conformer: 40.75839445110626 kcal/mol)

>  <smiles>  (41) 
CCSc1cccc(F)c1NC(=O)Nc1cccc(C(C)=O)c1

>  <score_type>  (41) 
oracle

>  <origin>  (41) 
adg

>  <m_score__min__energy>  (41) 
-8.7599999999999998

>  <m_primary>  (41) 
energy

$$$$
41:0
     RDKit          3D

 47 49  0  0  0  0  0  0  0  0999 V2000
   60.3690   28.6510   45.7410 C   0  0  0  0  0  0  0  0  0  0  0  0
   59.3110   27.9600   44.9330 C   0  0  0  0  0  0  0  0  0  0  0  0
   59.4730   27.8420   43.7270 O   0  0  0  0  0  0  0  0  0  0  0  0
   58.0380   27.4540   45.5750 C   0  0  2  0  0  0  0  0  0  0  0  0
   57.5130   26.2910   44.8520 N   0  0  0  0  0  0  0  0  0  0  0  0
   57.9820   24.9590   45.1170 C   0  0  0  0  0  0  0  0  0  0  0  0
   58.8660   24.7680   45.9950 O   0  0  0  0  0  0  0  0  0  0  0  0
   57.4410   23.7960   44.3870 C   0  0  0  0  0  0  0  0  0  0  0  0
   56.2470   23.7240   43.6710 C   0  0  0  0  0  0  0  0  0  0  0  0
   56.0050   22.5200   43.0860 N   0  0  0  0  0  0  0  0  0  0  0  0
   56.9880   21.6250   43.3220 C   0  0  0  0  0  0  0  0  0  0  0  0
   58.2020   22.2990   44.2680 S   0  0  0  0  0  0  0  0  0  0  0  0
   57.0200   28.5550   45.5900 C   0  0  0  0  0  0  0  0  0  0  0  0
   55.8360   28.3180   45.2270 O   0  0  0  0  0  0  0  0  0  0  0  0
   57.3930   29.8660   46.0320 N   0  0  0  0  0  0  0  0  0  0  0  0
   57.6720   30.9760   45.1690 C   0  0  0  0  0  0  0  0  0  0  0  0
   57.6310   30.7700   43.7840 C   0  0  0  0  0  0  0  0  0  0  0  0
   57.9270   31.8140   42.9050 C   0  0  0  0  0  0  0  0  0  0  0  0
   58.2830   33.0670   43.4030 C   0  0  0  0  0  0  0  0  0  0  0  0
   58.3590   33.2770   44.7810 C   0  0  0  0  0  0  0  0  0  0  0  0
   58.0710   32.2300   45.6810 C   0  0  0  0  0  0  0  0  0  0  0  0
   58.1950   32.3910   47.0720 O   0  0  0  0  0  0  0  0  0  0  0  0
   58.9850   33.3810   47.7300 C   0  0  0  0  0  0  0  0  0  0  0  0
   60.4500   33.1040   47.5290 C   0  0  0  0  0  0  0  0  0  0  0  0
   61.2680   34.0670   46.9170 C   0  0  0  0  0  0  0  0  0  0  0  0
   62.6300   33.8170   46.7260 C   0  0  0  0  0  0  0  0  0  0  0  0
   63.1830   32.6020   47.1400 C   0  0  0  0  0  0  0  0  0  0  0  0
   62.3740   31.6350   47.7420 C   0  0  0  0  0  0  0  0  0  0  0  0
   61.0110   31.8820   47.9350 C   0  0  0  0  0  0  0  0  0  0  0  0
   60.1599   28.5144   46.8123 H   0  0  0  0  0  0  0  0  0  0  0  0
   61.3526   28.2207   45.5017 H   0  0  0  0  0  0  0  0  0  0  0  0
   60.3704   29.7246   45.5017 H   0  0  0  0  0  0  0  0  0  0  0  0
   58.2600   27.1408   46.6058 H   0  0  0  0  0  0  0  0  0  0  0  0
   56.6820   26.4200   44.2320 H   0  0  0  0  0  0  0  0  0  0  0  0
   55.5546   24.5745   43.5858 H   0  0  0  0  0  0  0  0  0  0  0  0
   56.9933   20.5917   42.9449 H   0  0  0  0  0  0  0  0  0  0  0  0
   57.3640   29.7798   43.3863 H   0  0  0  0  0  0  0  0  0  0  0  0
   57.8793   31.6478   41.8187 H   0  0  0  0  0  0  0  0  0  0  0  0
   58.5043   33.8912   42.7089 H   0  0  0  0  0  0  0  0  0  0  0  0
   58.6456   34.2661   45.1677 H   0  0  0  0  0  0  0  0  0  0  0  0
   58.7435   34.3711   47.3159 H   0  0  0  0  0  0  0  0  0  0  0  0
   58.7624   33.3563   48.8070 H   0  0  0  0  0  0  0  0  0  0  0  0
   60.8351   35.0226   46.5863 H   0  0  0  0  0  0  0  0  0  0  0  0
   63.2669   34.5769   46.2496 H   0  0  0  0  0  0  0  0  0  0  0  0
   64.2554   32.4071   46.9918 H   0  0  0  0  0  0  0  0  0  0  0  0
   62.8097   30.6779   48.0647 H   0  0  0  0  0  0  0  0  0  0  0  0
   60.3764   31.1170   48.4062 H   0  0  0  0  0  0  0  0  0  0  0  0
  1  2  1  0
  2  3  2  0
  2  4  1  0
  4  5  1  0
  5  6  1  0
  6  7  2  0
  6  8  1  0
  8  9  2  0
  9 10  1  0
 10 11  2  0
 11 12  1  0
  4 13  1  0
 13 14  2  0
 13 15  1  0
 15 16  1  0
 16 17  2  0
 17 18  1  0
 18 19  2  0
 19 20  1  0
 20 21  2  0
 21 22  1  0
 22 23  1  0
 23 24  1  0
 24 25  2  0
 25 26  1  0
 26 27  2  0
 27 28  1  0
 28 29  2  0
 12  8  1  0
 21 16  1  0
 29 24  1  0
  1 30  1  0
  1 31  1  0
  1 32  1  0
  4 33  1  1
  5 34  1  0
  9 35  1  0
 11 36  1  0
 17 37  1  0
 18 38  1  0
 19 39  1  0
 20 40  1  0
 23 41  1  0
 23 42  1  0
 25 43  1  0
 26 44  1  0
 27 45  1  0
 28 46  1  0
 29 47  1  0
M  CHG  1  15  -1
M  END
>  <UniqueID>  (42) 
34

>  <SMILES>  (42) 
CC(=O)[C@H](NC(=O)c1cncs1)C(=O)[N-]c1ccccc1OCc1ccccc1

>  <Energy>  (42) 
78.84817839608978

>  <Genealogy>  (42) 
CC(=O)C(NC(=O)c1cncs1)C(=O)[N-]c1ccccc1OCc1ccccc1 (protonated)
CC(=O)[C@H](NC(=O)c1cncs1)C(=O)[N-]c1ccccc1OCc1ccccc1 (chirality)
CC(=O)[C@H](NC(=O)c1cncs1)C(=O)[N-]c1ccccc1OCc1ccccc1 (3D coordinates assigned)
CC(=O)[C@H](NC(=O)c1cncs1)C(=O)[N-]c1ccccc1OCc1ccccc1 (optimized conformer: 78.84817839608978 kcal/mol)

>  <smiles>  (42) 
CC(=O)C(NC(=O)c1cncs1)C(=O)Nc1ccccc1OCc1ccccc1

>  <score_type>  (42) 
oracle

>  <origin>  (42) 
adg

>  <m_score__min__energy>  (42) 
-10.220000000000001

>  <m_primary>  (42) 
energy

$$$$
42:0
     RDKit          3D

 36 37  0  0  0  0  0  0  0  0999 V2000
   59.2600   34.5760   48.4490 N   0  0  0  0  0  0  0  0  0  0  0  0
   59.9280   34.6380   46.8570 S   0  0  0  0  0  0  0  0  0  0  0  0
   61.3710   34.2220   46.9040 O   0  0  0  0  0  0  0  0  0  0  0  0
   59.8480   36.0440   46.3330 O   0  0  0  0  0  0  0  0  0  0  0  0
   59.0320   33.5510   45.8010 C   0  0  0  0  0  0  0  0  0  0  0  0
   58.7990   33.8960   44.4630 C   0  0  0  0  0  0  0  0  0  0  0  0
   58.0940   33.0260   43.6270 C   0  0  0  0  0  0  0  0  0  0  0  0
   57.6040   31.8170   44.1270 C   0  0  0  0  0  0  0  0  0  0  0  0
   57.7940   31.4790   45.4720 C   0  0  0  0  0  0  0  0  0  0  0  0
   57.2940   30.2230   45.9500 N   0  0  0  0  0  0  0  0  0  0  0  0
   56.4880   29.2890   45.2190 C   0  0  0  0  0  0  0  0  0  0  0  0
   55.4880   29.7190   44.5860 O   0  0  0  0  0  0  0  0  0  0  0  0
   56.7480   27.8070   45.2540 C   0  0  0  0  0  0  0  0  0  0  0  0
   55.5410   27.0800   45.6310 N   0  0  0  0  0  0  0  0  0  0  0  0
   55.5210   25.6970   45.9950 C   0  0  0  0  0  0  0  0  0  0  0  0
   55.9380   25.3590   47.1340 O   0  0  0  0  0  0  0  0  0  0  0  0
   55.0730   24.7090   45.0570 N   0  0  0  0  0  0  0  0  0  0  0  0
   55.8530   23.6470   44.4890 C   0  0  0  0  0  0  0  0  0  0  0  0
   55.6050   23.2690   43.1630 C   0  0  0  0  0  0  0  0  0  0  0  0
   56.3300   22.2270   42.5760 C   0  0  0  0  0  0  0  0  0  0  0  0
   57.2980   21.5440   43.3170 C   0  0  0  0  0  0  0  0  0  0  0  0
   57.5350   21.8980   44.6470 C   0  0  0  0  0  0  0  0  0  0  0  0
   56.8140   22.9410   45.2370 C   0  0  0  0  0  0  0  0  0  0  0  0
   58.5320   32.3400   46.3020 C   0  0  0  0  0  0  0  0  0  0  0  0
   59.0120   35.5560   48.7130 H   0  0  0  0  0  0  0  0  0  0  0  0
   59.1717   34.8534   44.0700 H   0  0  0  0  0  0  0  0  0  0  0  0
   57.9246   33.2935   42.5736 H   0  0  0  0  0  0  0  0  0  0  0  0
   57.0661   31.1271   43.4602 H   0  0  0  0  0  0  0  0  0  0  0  0
   57.0735   27.4740   44.2574 H   0  0  0  0  0  0  0  0  0  0  0  0
   57.5308   27.6030   45.9995 H   0  0  0  0  0  0  0  0  0  0  0  0
   54.8350   23.7952   42.5797 H   0  0  0  0  0  0  0  0  0  0  0  0
   56.1381   21.9449   41.5303 H   0  0  0  0  0  0  0  0  0  0  0  0
   57.8726   20.7286   42.8534 H   0  0  0  0  0  0  0  0  0  0  0  0
   58.2913   21.3546   45.2325 H   0  0  0  0  0  0  0  0  0  0  0  0
   56.9982   23.2102   46.2875 H   0  0  0  0  0  0  0  0  0  0  0  0
   58.7185   32.0628   47.3500 H   0  0  0  0  0  0  0  0  0  0  0  0
  1  2  1  0
  2  3  2  0
  2  4  2  0
  2  5  1  0
  5  6  2  0
  6  7  1  0
  7  8  2  0
  8  9  1  0
  9 10  1  0
 10 11  1  0
 11 12  2  0
 11 13  1  0
 13 14  1  0
 14 15  1  0
 15 16  2  0
 15 17  1  0
 17 18  1  0
 18 19  2  0
 19 20  1  0
 20 21  2  0
 21 22  1  0
 22 23  2  0
  9 24  2  0
 24  5  1  0
 23 18  1  0
  1 25  1  0
  6 26  1  0
  7 27  1  0
  8 28  1  0
 13 29  1  0
 13 30  1  0
 19 31  1  0
 20 32  1  0
 21 33  1  0
 22 34  1  0
 23 35  1  0
 24 36  1  0
M  CHG  4   1  -1  10  -1  14  -1  17  -1
M  END
>  <UniqueID>  (43) 
35

>  <SMILES>  (43) 
[NH-]S(=O)(=O)c1cccc([N-]C(=O)C[N-]C(=O)[N-]c2ccccc2)c1

>  <Energy>  (43) 
41.845621770514214

>  <Genealogy>  (43) 
[NH-]S(=O)(=O)c1cccc([N-]C(=O)C[N-]C(=O)[N-]c2ccccc2)c1 (protonated)
[NH-]S(=O)(=O)c1cccc([N-]C(=O)C[N-]C(=O)[N-]c2ccccc2)c1 (3D coordinates assigned)
[NH-]S(=O)(=O)c1cccc([N-]C(=O)C[N-]C(=O)[N-]c2ccccc2)c1 (optimized conformer: 41.845621770514214 kcal/mol)

>  <smiles>  (43) 
NS(=O)(=O)c1cccc(NC(=O)CNC(=O)Nc2ccccc2)c1

>  <score_type>  (43) 
oracle

>  <origin>  (43) 
adg

>  <m_score__min__energy>  (43) 
-14.67

>  <m_primary>  (43) 
energy

$$$$
43:0
     RDKit          3D

 52 55  0  0  0  0  0  0  0  0999 V2000
   56.4600   29.6970   42.6190 C   0  0  0  0  0  0  0  0  0  0  0  0
   55.9640   29.6940   44.0610 C   0  0  0  0  0  0  0  0  0  0  0  0
   57.0630   29.2400   45.0030 C   0  0  0  0  0  0  0  0  0  0  0  0
   58.2910   29.9380   45.1350 C   0  0  0  0  0  0  0  0  0  0  0  0
   58.4970   31.5730   44.3670 S   0  0  0  0  0  0  0  0  0  0  0  0
   58.8340   32.4800   45.8930 C   0  0  0  0  0  0  0  0  0  0  0  0
   58.2000   32.0780   47.0770 C   0  0  0  0  0  0  0  0  0  0  0  0
   58.4140   32.7800   48.2670 C   0  0  0  0  0  0  0  0  0  0  0  0
   59.2590   33.8930   48.2810 C   0  0  0  0  0  0  0  0  0  0  0  0
   59.8900   34.3020   47.1040 C   0  0  0  0  0  0  0  0  0  0  0  0
   59.6770   33.6010   45.9140 C   0  0  0  0  0  0  0  0  0  0  0  0
   59.3410   29.3580   45.8190 N   0  0  0  0  0  0  0  0  0  0  0  0
   60.7090   29.9280   45.7470 C   0  0  0  0  0  0  0  0  0  0  0  0
   61.1620   30.4910   47.0700 C   0  0  0  0  0  0  0  0  0  0  0  0
   62.2720   31.3470   47.1340 C   0  0  0  0  0  0  0  0  0  0  0  0
   62.6960   31.8310   48.3710 C   0  0  0  0  0  0  0  0  0  0  0  0
   62.0100   31.4740   49.5300 C   0  0  0  0  0  0  0  0  0  0  0  0
   60.8800   30.6450   49.4370 C   0  0  0  0  0  0  0  0  0  0  0  0
   60.1660   30.2430   50.5760 O   0  0  0  0  0  0  0  0  0  0  0  0
   59.0910   30.9360   51.1500 C   0  0  0  0  0  0  0  0  0  0  0  0
   57.7920   30.3950   51.1890 C   0  0  0  0  0  0  0  0  0  0  0  0
   56.7500   31.1120   51.7870 C   0  0  0  0  0  0  0  0  0  0  0  0
   56.9980   32.3620   52.3590 C   0  0  0  0  0  0  0  0  0  0  0  0
   58.2890   32.8950   52.3410 C   0  0  0  0  0  0  0  0  0  0  0  0
   59.3330   32.1810   51.7440 C   0  0  0  0  0  0  0  0  0  0  0  0
   60.4910   30.1740   48.2170 N   0  0  0  0  0  0  0  0  0  0  0  0
   59.1420   28.1750   46.4880 C   0  0  0  0  0  0  0  0  0  0  0  0
   60.0700   27.6430   47.1560 O   0  0  0  0  0  0  0  0  0  0  0  0
   57.9480   27.5410   46.4230 N   0  0  0  0  0  0  0  0  0  0  0  0
   56.9230   28.0250   45.6890 C   0  0  0  0  0  0  0  0  0  0  0  0
   55.8530   27.3630   45.6250 O   0  0  0  0  0  0  0  0  0  0  0  0
   57.5599   29.7037   42.6096 H   0  0  0  0  0  0  0  0  0  0  0  0
   56.0944   28.7966   42.1036 H   0  0  0  0  0  0  0  0  0  0  0  0
   56.0835   30.5929   42.1036 H   0  0  0  0  0  0  0  0  0  0  0  0
   55.6487   30.7111   44.3369 H   0  0  0  0  0  0  0  0  0  0  0  0
   55.1166   28.9974   44.1430 H   0  0  0  0  0  0  0  0  0  0  0  0
   57.5304   31.2053   47.0697 H   0  0  0  0  0  0  0  0  0  0  0  0
   57.9168   32.4559   49.1931 H   0  0  0  0  0  0  0  0  0  0  0  0
   59.4268   34.4458   49.2171 H   0  0  0  0  0  0  0  0  0  0  0  0
   60.5559   35.1775   47.1138 H   0  0  0  0  0  0  0  0  0  0  0  0
   60.1730   33.9300   44.9889 H   0  0  0  0  0  0  0  0  0  0  0  0
   61.4075   29.1350   45.4417 H   0  0  0  0  0  0  0  0  0  0  0  0
   60.6938   30.7510   45.0173 H   0  0  0  0  0  0  0  0  0  0  0  0
   62.8038   31.6341   46.2149 H   0  0  0  0  0  0  0  0  0  0  0  0
   63.5715   32.4942   48.4318 H   0  0  0  0  0  0  0  0  0  0  0  0
   62.3508   31.8386   50.5103 H   0  0  0  0  0  0  0  0  0  0  0  0
   57.5958   29.4064   50.7484 H   0  0  0  0  0  0  0  0  0  0  0  0
   55.7340   30.6908   51.8067 H   0  0  0  0  0  0  0  0  0  0  0  0
   56.1764   32.9268   52.8238 H   0  0  0  0  0  0  0  0  0  0  0  0
   58.4847   33.8769   52.7966 H   0  0  0  0  0  0  0  0  0  0  0  0
   60.3502   32.5998   51.7410 H   0  0  0  0  0  0  0  0  0  0  0  0
   59.6530   29.5510   48.1740 H   0  0  0  0  0  0  0  0  0  0  0  0
  1  2  1  0
  2  3  1  0
  3  4  2  0
  4  5  1  0
  5  6  1  0
  6  7  2  0
  7  8  1  0
  8  9  2  0
  9 10  1  0
 10 11  2  0
  4 12  1  0
 12 13  1  0
 13 14  1  0
 14 15  2  0
 15 16  1  0
 16 17  2  0
 17 18  1  0
 18 19  1  0
 19 20  1  0
 20 21  2  0
 21 22  1  0
 22 23  2  0
 23 24  1  0
 24 25  2  0
 18 26  2  0
 12 27  1  0
 27 28  2  0
 27 29  1  0
 29 30  1  0
 30 31  2  0
 30  3  1  0
 11  6  1  0
 26 14  1  0
 25 20  1  0
  1 32  1  0
  1 33  1  0
  1 34  1  0
  2 35  1  0
  2 36  1  0
  7 37  1  0
  8 38  1  0
  9 39  1  0
 10 40  1  0
 11 41  1  0
 13 42  1  0
 13 43  1  0
 15 44  1  0
 16 45  1  0
 17 46  1  0
 21 47  1  0
 22 48  1  0
 23 49  1  0
 24 50  1  0
 25 51  1  0
 26 52  1  0
M  CHG  2  26   1  29  -1
M  END
>  <UniqueID>  (44) 
36

>  <SMILES>  (44) 
CCc1c(Sc2ccccc2)n(Cc2cccc(Oc3ccccc3)[nH+]2)c(=O)[n-]c1=O

>  <Energy>  (44) 
68.58983453161062

>  <Genealogy>  (44) 
CCc1c(Sc2ccccc2)n(Cc2cccc(Oc3ccccc3)[nH+]2)c(=O)[n-]c1=O (protonated)
CCc1c(Sc2ccccc2)n(Cc2cccc(Oc3ccccc3)[nH+]2)c(=O)[n-]c1=O (3D coordinates assigned)
CCc1c(Sc2ccccc2)n(Cc2cccc(Oc3ccccc3)[nH+]2)c(=O)[n-]c1=O (optimized conformer: 68.58983453161062 kcal/mol)

>  <smiles>  (44) 
CCc1c(Sc2ccccc2)n(Cc2cccc(Oc3ccccc3)n2)c(=O)[nH]c1=O

>  <score_type>  (44) 
oracle

>  <origin>  (44) 
adg

>  <m_score__min__energy>  (44) 
-8.7599999999999998

>  <m_primary>  (44) 
energy

$$$$
44:0
     RDKit          3D

 41 43  0  0  0  0  0  0  0  0999 V2000
   55.1620   29.3240   44.8460 N   0  0  0  0  0  0  0  0  0  0  0  0
   56.8880   29.3300   44.9300 S   0  0  0  0  0  0  0  0  0  0  0  0
   57.4290   28.3190   43.9570 O   0  0  0  0  0  0  0  0  0  0  0  0
   57.3250   28.9720   46.3220 O   0  0  0  0  0  0  0  0  0  0  0  0
   57.4920   30.9240   44.5180 C   0  0  0  0  0  0  0  0  0  0  0  0
   57.6230   31.4330   43.2330 C   0  0  0  0  0  0  0  0  0  0  0  0
   58.1380   32.7320   43.2100 C   0  0  0  0  0  0  0  0  0  0  0  0
   58.4090   33.2290   44.4770 C   0  0  0  0  0  0  0  0  0  0  0  0
   59.0580   34.8560   44.8410 S   0  0  0  0  0  0  0  0  0  0  0  0
   59.7550   34.3200   46.4020 C   0  0  0  0  0  0  0  0  0  0  0  0
   60.9420   33.5790   46.4240 C   0  0  0  0  0  0  0  0  0  0  0  0
   61.4900   33.1680   47.6420 C   0  0  0  0  0  0  0  0  0  0  0  0
   60.8510   33.4900   48.8490 C   0  0  0  0  0  0  0  0  0  0  0  0
   61.5330   32.9560   50.3870 S   0  0  0  0  0  0  0  0  0  0  0  0
   62.1950   34.1220   51.0660 O   0  0  0  0  0  0  0  0  0  0  0  0
   62.5840   31.9130   50.1260 O   0  0  0  0  0  0  0  0  0  0  0  0
   60.3060   32.2880   51.4380 N   0  0  0  0  0  0  0  0  0  0  0  0
   59.2990   33.3160   51.7710 C   0  0  0  0  0  0  0  0  0  0  0  0
   58.0060   32.6730   52.2880 C   0  0  0  0  0  0  0  0  0  0  0  0
   57.3850   31.7830   51.2880 N   0  0  0  0  0  0  0  0  0  0  0  0
   58.3300   31.2560   50.2850 C   0  0  0  0  0  0  0  0  0  0  0  0
   59.7300   31.0410   50.8830 C   0  0  0  0  0  0  0  0  0  0  0  0
   59.6650   34.2380   48.8230 C   0  0  0  0  0  0  0  0  0  0  0  0
   59.1170   34.6480   47.6040 C   0  0  0  0  0  0  0  0  0  0  0  0
   58.0160   32.0710   45.6320 S   0  0  0  0  0  0  0  0  0  0  0  0
   54.8080   29.3360   45.8280 H   0  0  0  0  0  0  0  0  0  0  0  0
   57.3498   30.8721   42.3270 H   0  0  0  0  0  0  0  0  0  0  0  0
   58.3105   33.3009   42.2845 H   0  0  0  0  0  0  0  0  0  0  0  0
   61.4447   33.3196   45.4806 H   0  0  0  0  0  0  0  0  0  0  0  0
   62.4258   32.5899   47.6546 H   0  0  0  0  0  0  0  0  0  0  0  0
   59.7061   33.9797   52.5480 H   0  0  0  0  0  0  0  0  0  0  0  0
   59.0663   33.8863   50.8596 H   0  0  0  0  0  0  0  0  0  0  0  0
   58.2384   32.0857   53.1886 H   0  0  0  0  0  0  0  0  0  0  0  0
   57.2929   33.4810   52.5086 H   0  0  0  0  0  0  0  0  0  0  0  0
   56.6430   32.3180   50.7790 H   0  0  0  0  0  0  0  0  0  0  0  0
   57.9513   30.2943   49.9086 H   0  0  0  0  0  0  0  0  0  0  0  0
   58.4131   31.9916   49.4714 H   0  0  0  0  0  0  0  0  0  0  0  0
   59.6590   30.2957   51.6889 H   0  0  0  0  0  0  0  0  0  0  0  0
   60.3910   30.6983   50.0733 H   0  0  0  0  0  0  0  0  0  0  0  0
   59.1639   34.5032   49.7656 H   0  0  0  0  0  0  0  0  0  0  0  0
   58.1832   35.2292   47.5894 H   0  0  0  0  0  0  0  0  0  0  0  0
  1  2  1  0
  2  3  2  0
  2  4  2  0
  2  5  1  0
  5  6  2  0
  6  7  1  0
  7  8  2  0
  8  9  1  0
  9 10  1  0
 10 11  2  0
 11 12  1  0
 12 13  2  0
 13 14  1  0
 14 15  2  0
 14 16  2  0
 14 17  1  0
 17 18  1  0
 18 19  1  0
 19 20  1  0
 20 21  1  0
 21 22  1  0
 13 23  1  0
 23 24  2  0
  8 25  1  0
 25  5  1  0
 24 10  1  0
 22 17  1  0
  1 26  1  0
  6 27  1  0
  7 28  1  0
 11 29  1  0
 12 30  1  0
 18 31  1  0
 18 32  1  0
 19 33  1  0
 19 34  1  0
 20 35  1  0
 21 36  1  0
 21 37  1  0
 22 38  1  0
 22 39  1  0
 23 40  1  0
 24 41  1  0
M  CHG  1   1  -1
M  END
>  <UniqueID>  (45) 
37

>  <SMILES>  (45) 
[NH-]S(=O)(=O)c1ccc(Sc2ccc(S(=O)(=O)N3CCNCC3)cc2)s1

>  <Energy>  (45) 
71.53370125355698

>  <Genealogy>  (45) 
[NH-]S(=O)(=O)c1ccc(Sc2ccc(S(=O)(=O)N3CCNCC3)cc2)s1 (protonated)
[NH-]S(=O)(=O)c1ccc(Sc2ccc(S(=O)(=O)N3CCNCC3)cc2)s1 (3D coordinates assigned)
[NH-]S(=O)(=O)c1ccc(Sc2ccc(S(=O)(=O)N3CCNCC3)cc2)s1 (nonaromatic ring conformer: 71.53370125355698 kcal/mol)

>  <smiles>  (45) 
NS(=O)(=O)c1ccc(Sc2ccc(S(=O)(=O)N3CCNCC3)cc2)s1

>  <score_type>  (45) 
oracle

>  <origin>  (45) 
adg

>  <m_score__min__energy>  (45) 
-12.050000000000001

>  <m_primary>  (45) 
energy

$$$$
45:0
     RDKit          3D

 53 56  0  0  0  0  0  0  0  0999 V2000
   55.5290   24.7710   46.6380 O   0  0  0  0  0  0  0  0  0  0  0  0
   56.7100   24.0760   47.3040 S   0  0  0  0  0  0  0  0  0  0  0  0
   57.9270   25.3070   47.3450 N   0  0  0  0  0  0  0  0  0  0  0  0
   58.7220   25.1060   46.3600 C   0  0  0  0  0  0  0  0  0  0  0  0
   59.8190   26.0610   46.0000 C   0  0  0  0  0  0  0  0  0  0  0  0
   59.2370   27.3840   45.5890 C   0  0  0  0  0  0  0  0  0  0  0  0
   60.0680   28.5030   45.4230 C   0  0  0  0  0  0  0  0  0  0  0  0
   59.5310   29.7240   45.0030 C   0  0  0  0  0  0  0  0  0  0  0  0
   58.1630   29.8360   44.7300 C   0  0  0  0  0  0  0  0  0  0  0  0
   57.4920   31.3840   44.2310 S   0  0  0  0  0  0  0  0  0  0  0  0
   57.7020   31.5640   42.7530 O   0  0  0  0  0  0  0  0  0  0  0  0
   56.0150   31.4290   44.5050 O   0  0  0  0  0  0  0  0  0  0  0  0
   58.2930   32.6680   45.1270 C   0  0  0  0  0  0  0  0  0  0  0  0
   58.6170   33.8810   44.5020 C   0  0  0  0  0  0  0  0  0  0  0  0
   59.2610   34.8910   45.2230 C   0  0  0  0  0  0  0  0  0  0  0  0
   59.5900   34.6940   46.5670 C   0  0  0  0  0  0  0  0  0  0  0  0
   59.2830   33.4770   47.1950 C   0  0  0  0  0  0  0  0  0  0  0  0
   59.6680   33.2190   48.8950 S   0  0  0  0  0  0  0  0  0  0  0  0
   59.8220   34.5620   49.5540 O   0  0  0  0  0  0  0  0  0  0  0  0
   58.5430   32.4840   49.5710 O   0  0  0  0  0  0  0  0  0  0  0  0
   61.1620   32.3210   49.0560 N   0  0  0  0  0  0  0  0  0  0  0  0
   62.2580   33.1530   49.5920 C   0  0  0  0  0  0  0  0  0  0  0  0
   62.8090   34.1550   48.5600 C   0  0  0  0  0  0  0  0  0  0  0  0
   62.9110   33.5650   47.1420 C   0  0  0  0  0  0  0  0  0  0  0  0
   62.8130   32.0410   47.1480 C   0  0  0  0  0  0  0  0  0  0  0  0
   61.5030   31.5830   47.8130 C   0  0  0  0  0  0  0  0  0  0  0  0
   58.6330   32.4690   46.4710 C   0  0  0  0  0  0  0  0  0  0  0  0
   57.3290   28.7200   44.8920 C   0  0  0  0  0  0  0  0  0  0  0  0
   57.8650   27.4990   45.3110 C   0  0  0  0  0  0  0  0  0  0  0  0
   58.3980   23.9730   45.5580 N   0  0  0  0  0  0  0  0  0  0  0  0
   57.3980   23.1690   46.0210 O   0  0  0  0  0  0  0  0  0  0  0  0
   57.9860   26.0950   48.0280 H   0  0  0  0  0  0  0  0  0  0  0  0
   60.4749   26.2068   46.8709 H   0  0  0  0  0  0  0  0  0  0  0  0
   60.3973   25.6458   45.1615 H   0  0  0  0  0  0  0  0  0  0  0  0
   61.1462   28.4191   45.6241 H   0  0  0  0  0  0  0  0  0  0  0  0
   60.1864   30.5998   44.8868 H   0  0  0  0  0  0  0  0  0  0  0  0
   58.3641   34.0380   43.4430 H   0  0  0  0  0  0  0  0  0  0  0  0
   59.5094   35.8431   44.7312 H   0  0  0  0  0  0  0  0  0  0  0  0
   60.0901   35.4936   47.1332 H   0  0  0  0  0  0  0  0  0  0  0  0
   61.8807   33.7143   50.4595 H   0  0  0  0  0  0  0  0  0  0  0  0
   63.0809   32.4773   49.8683 H   0  0  0  0  0  0  0  0  0  0  0  0
   62.1412   35.0285   48.5287 H   0  0  0  0  0  0  0  0  0  0  0  0
   63.8268   34.4265   48.8768 H   0  0  0  0  0  0  0  0  0  0  0  0
   62.0931   33.9710   46.5287 H   0  0  0  0  0  0  0  0  0  0  0  0
   63.8926   33.8407   46.7291 H   0  0  0  0  0  0  0  0  0  0  0  0
   62.8397   31.6733   46.1116 H   0  0  0  0  0  0  0  0  0  0  0  0
   63.6606   31.6343   47.7191 H   0  0  0  0  0  0  0  0  0  0  0  0
   60.6832   31.7224   47.0929 H   0  0  0  0  0  0  0  0  0  0  0  0
   61.6442   30.5301   48.0986 H   0  0  0  0  0  0  0  0  0  0  0  0
   58.3881   31.5152   46.9612 H   0  0  0  0  0  0  0  0  0  0  0  0
   56.2513   28.8058   44.6890 H   0  0  0  0  0  0  0  0  0  0  0  0
   57.2088   26.6234   45.4236 H   0  0  0  0  0  0  0  0  0  0  0  0
   58.7200   23.9050   44.5680 H   0  0  0  0  0  0  0  0  0  0  0  0
  1  2  2  0
  2  3  1  0
  3  4  2  0
  4  5  1  0
  5  6  1  0
  6  7  2  0
  7  8  1  0
  8  9  2  0
  9 10  1  0
 10 11  2  0
 10 12  2  0
 10 13  1  0
 13 14  2  0
 14 15  1  0
 15 16  2  0
 16 17  1  0
 17 18  1  0
 18 19  2  0
 18 20  2  0
 18 21  1  0
 21 22  1  0
 22 23  1  0
 23 24  1  0
 24 25  1  0
 25 26  1  0
 17 27  2  0
  9 28  1  0
 28 29  2  0
  4 30  1  0
 30 31  1  0
  2 31  1  6
 29  6  1  0
 27 13  1  0
 26 21  1  0
  3 32  1  0
  5 33  1  0
  5 34  1  0
  7 35  1  0
  8 36  1  0
 14 37  1  0
 15 38  1  0
 16 39  1  0
 22 40  1  0
 22 41  1  0
 23 42  1  0
 23 43  1  0
 24 44  1  0
 24 45  1  0
 25 46  1  0
 25 47  1  0
 26 48  1  0
 26 49  1  0
 27 50  1  0
 28 51  1  0
 29 52  1  0
 30 53  1  0
M  CHG  1   3   1
M  END
>  <UniqueID>  (46) 
38

>  <SMILES>  (46) 
O=[S@@]1[NH+]=C(Cc2ccc(S(=O)(=O)c3cccc(S(=O)(=O)N4CCCCC4)c3)cc2)NO1

>  <Energy>  (46) 
81.84324912299341

>  <Genealogy>  (46) 
O=S1[NH+]=C(Cc2ccc(S(=O)(=O)c3cccc(S(=O)(=O)N4CCCCC4)c3)cc2)NO1 (protonated)
O=[S@@]1[NH+]=C(Cc2ccc(S(=O)(=O)c3cccc(S(=O)(=O)N4CCCCC4)c3)cc2)NO1 (chirality)
O=[S@@]1[NH+]=C(Cc2ccc(S(=O)(=O)c3cccc(S(=O)(=O)N4CCCCC4)c3)cc2)NO1 (3D coordinates assigned)
O=[S@@]1[NH+]=C(Cc2ccc(S(=O)(=O)c3cccc(S(=O)(=O)N4CCCCC4)c3)cc2)NO1 (nonaromatic ring conformer: 81.84324912299341 kcal/mol)

>  <smiles>  (46) 
O=S1N=C(Cc2ccc(S(=O)(=O)c3cccc(S(=O)(=O)N4CCCCC4)c3)cc2)NO1

>  <score_type>  (46) 
oracle

>  <origin>  (46) 
adg

>  <m_score__min__energy>  (46) 
-9.9600000000000009

>  <m_primary>  (46) 
energy

$$$$
46:0
     RDKit          3D

 45 47  0  0  0  0  0  0  0  0999 V2000
   50.6350   31.3950   48.7660 C   0  0  0  0  0  0  0  0  0  0  0  0
   51.0410   32.3050   49.8280 N   0  0  0  0  0  0  0  0  0  0  0  0
   51.1130   31.9750   51.2230 C   0  0  0  0  0  0  0  0  0  0  0  0
   50.2790   32.4990   52.0080 O   0  0  0  0  0  0  0  0  0  0  0  0
   52.1490   31.0850   51.7790 C   0  0  0  0  0  0  0  0  0  0  0  0
   53.4320   31.5600   52.0870 C   0  0  0  0  0  0  0  0  0  0  0  0
   54.3930   30.6790   52.6080 C   0  0  0  0  0  0  0  0  0  0  0  0
   55.6900   31.1020   52.9300 O   0  0  0  0  0  0  0  0  0  0  0  0
   56.8050   30.9990   52.0830 C   0  0  0  0  0  0  0  0  0  0  0  0
   57.1960   32.0690   51.2600 C   0  0  0  0  0  0  0  0  0  0  0  0
   58.3050   31.9460   50.4200 C   0  0  0  0  0  0  0  0  0  0  0  0
   59.0430   30.7600   50.3900 C   0  0  0  0  0  0  0  0  0  0  0  0
   60.1560   30.6670   49.4900 N   0  0  0  0  0  0  0  0  0  0  0  0
   60.0260   30.5630   47.7630 S   0  0  0  0  0  0  0  0  0  0  0  0
   59.0980   29.4350   47.4070 O   0  0  0  0  0  0  0  0  0  0  0  0
   61.3790   30.2740   47.1770 O   0  0  0  0  0  0  0  0  0  0  0  0
   59.4350   32.0980   47.1120 C   0  0  0  0  0  0  0  0  0  0  0  0
   59.7380   33.2940   47.7820 C   0  0  0  0  0  0  0  0  0  0  0  0
   59.3020   34.5190   47.2720 C   0  0  0  0  0  0  0  0  0  0  0  0
   58.5570   34.5600   46.0940 C   0  0  0  0  0  0  0  0  0  0  0  0
   58.2470   33.3770   45.4220 C   0  0  0  0  0  0  0  0  0  0  0  0
   58.6780   32.1440   45.9240 C   0  0  0  0  0  0  0  0  0  0  0  0
   58.2500   30.6850   45.0370 Cl  0  0  0  0  0  0  0  0  0  0  0  0
   58.6790   29.7000   51.2380 C   0  0  0  0  0  0  0  0  0  0  0  0
   57.5700   29.8180   52.0920 C   0  0  0  0  0  0  0  0  0  0  0  0
   57.1690   28.6660   52.9690 C   0  0  0  0  0  0  0  0  0  0  0  0
   54.0670   29.3290   52.7620 C   0  0  0  0  0  0  0  0  0  0  0  0
   52.7910   28.8860   52.4150 C   0  0  0  0  0  0  0  0  0  0  0  0
   51.8710   29.7610   51.9320 N   0  0  0  0  0  0  0  0  0  0  0  0
   50.2246   30.4752   49.2082 H   0  0  0  0  0  0  0  0  0  0  0  0
   49.8666   31.8772   48.1438 H   0  0  0  0  0  0  0  0  0  0  0  0
   51.5071   31.1453   48.1438 H   0  0  0  0  0  0  0  0  0  0  0  0
   53.6842   32.6178   51.9212 H   0  0  0  0  0  0  0  0  0  0  0  0
   56.6251   33.0091   51.2775 H   0  0  0  0  0  0  0  0  0  0  0  0
   58.5995   32.7889   49.7775 H   0  0  0  0  0  0  0  0  0  0  0  0
   60.3220   33.2661   48.7138 H   0  0  0  0  0  0  0  0  0  0  0  0
   59.5466   35.4524   47.8002 H   0  0  0  0  0  0  0  0  0  0  0  0
   58.2135   35.5255   45.6942 H   0  0  0  0  0  0  0  0  0  0  0  0
   57.6604   33.4139   44.4922 H   0  0  0  0  0  0  0  0  0  0  0  0
   59.2673   28.7705   51.2329 H   0  0  0  0  0  0  0  0  0  0  0  0
   57.2702   28.9566   54.0251 H   0  0  0  0  0  0  0  0  0  0  0  0
   56.1234   28.3942   52.7620 H   0  0  0  0  0  0  0  0  0  0  0  0
   57.8198   27.8037   52.7620 H   0  0  0  0  0  0  0  0  0  0  0  0
   54.8116   28.6207   53.1542 H   0  0  0  0  0  0  0  0  0  0  0  0
   52.5286   27.8243   52.5328 H   0  0  0  0  0  0  0  0  0  0  0  0
  1  2  1  0
  2  3  1  0
  3  4  2  0
  3  5  1  0
  5  6  2  0
  6  7  1  0
  7  8  1  0
  8  9  1  0
  9 10  2  0
 10 11  1  0
 11 12  2  0
 12 13  1  0
 13 14  1  0
 14 15  2  0
 14 16  2  0
 14 17  1  0
 17 18  2  0
 18 19  1  0
 19 20  2  0
 20 21  1  0
 21 22  2  0
 22 23  1  0
 12 24  1  0
 24 25  2  0
 25 26  1  0
  7 27  2  0
 27 28  1  0
 28 29  2  0
 29  5  1  0
 25  9  1  0
 22 17  1  0
  1 30  1  0
  1 31  1  0
  1 32  1  0
  6 33  1  0
 10 34  1  0
 11 35  1  0
 18 36  1  0
 19 37  1  0
 20 38  1  0
 21 39  1  0
 24 40  1  0
 26 41  1  0
 26 42  1  0
 26 43  1  0
 27 44  1  0
 28 45  1  0
M  CHG  2   2  -1  13  -1
M  END
>  <UniqueID>  (47) 
39

>  <SMILES>  (47) 
C[N-]C(=O)c1cc(Oc2ccc([N-]S(=O)(=O)c3ccccc3Cl)cc2C)ccn1

>  <Energy>  (47) 
60.835889095824335

>  <Genealogy>  (47) 
C[N-]C(=O)c1cc(Oc2ccc([N-]S(=O)(=O)c3ccccc3Cl)cc2C)ccn1 (protonated)
C[N-]C(=O)c1cc(Oc2ccc([N-]S(=O)(=O)c3ccccc3Cl)cc2C)ccn1 (3D coordinates assigned)
C[N-]C(=O)c1cc(Oc2ccc([N-]S(=O)(=O)c3ccccc3Cl)cc2C)ccn1 (optimized conformer: 60.835889095824335 kcal/mol)

>  <smiles>  (47) 
CNC(=O)c1cc(Oc2ccc(NS(=O)(=O)c3ccccc3Cl)cc2C)ccn1

>  <score_type>  (47) 
oracle

>  <origin>  (47) 
adg

>  <m_score__min__energy>  (47) 
-12.140000000000001

>  <m_primary>  (47) 
energy

$$$$
47:0
     RDKit          3D

 63 67  0  0  0  0  0  0  0  0999 V2000
   60.1890   30.8820   53.9610 N   0  0  0  0  0  0  0  0  0  0  0  0
   59.0840   30.7420   53.6460 C   0  0  0  0  0  0  0  0  0  0  0  0
   57.7060   30.5680   53.2520 C   0  0  0  0  0  0  0  0  0  0  0  0
   57.0190   29.4390   53.7230 C   0  0  0  0  0  0  0  0  0  0  0  0
   55.6970   29.2060   53.3420 C   0  0  0  0  0  0  0  0  0  0  0  0
   55.0530   30.0930   52.4830 C   0  0  0  0  0  0  0  0  0  0  0  0
   55.7260   31.2210   52.0070 C   0  0  0  0  0  0  0  0  0  0  0  0
   57.0580   31.4790   52.3790 C   0  0  0  0  0  0  0  0  0  0  0  0
   57.7360   32.7170   51.9020 C   0  0  0  0  0  0  0  0  0  0  0  0
   57.4700   33.8090   52.4710 O   0  0  0  0  0  0  0  0  0  0  0  0
   58.6220   32.7530   50.7700 N   0  0  0  0  0  0  0  0  0  0  0  0
   59.9110   32.1460   50.5730 C   0  0  0  0  0  0  0  0  0  0  0  0
   61.0930   32.8980   50.7160 C   0  0  0  0  0  0  0  0  0  0  0  0
   62.3420   32.2910   50.6010 C   0  0  0  0  0  0  0  0  0  0  0  0
   62.4330   30.9340   50.3090 C   0  0  0  0  0  0  0  0  0  0  0  0
   61.2770   30.1890   50.0790 C   0  0  0  0  0  0  0  0  0  0  0  0
   60.0000   30.7850   50.1680 C   0  0  0  0  0  0  0  0  0  0  0  0
   58.8130   29.9900   49.7260 C   0  0  0  0  0  0  0  0  0  0  0  0
   58.1180   29.3820   50.5860 O   0  0  0  0  0  0  0  0  0  0  0  0
   58.5260   29.8070   48.3330 N   0  0  0  0  0  0  0  0  0  0  0  0
   58.7410   28.5890   47.6040 C   0  0  0  0  0  0  0  0  0  0  0  0
   59.4610   27.5720   48.2440 C   0  0  0  0  0  0  0  0  0  0  0  0
   59.6290   26.3280   47.6360 C   0  0  0  0  0  0  0  0  0  0  0  0
   59.0840   26.0840   46.3720 C   0  0  0  0  0  0  0  0  0  0  0  0
   59.2320   24.8410   45.7610 O   0  0  0  0  0  0  0  0  0  0  0  0
   58.3900   27.1000   45.7090 C   0  0  0  0  0  0  0  0  0  0  0  0
   58.2360   28.3680   46.2980 C   0  0  0  0  0  0  0  0  0  0  0  0
   57.6150   29.4390   45.4900 C   0  0  0  0  0  0  0  0  0  0  0  0
   56.3700   29.4160   45.2960 O   0  0  0  0  0  0  0  0  0  0  0  0
   58.3770   30.5130   44.9240 N   0  0  0  0  0  0  0  0  0  0  0  0
   58.3460   31.8960   45.3130 C   0  0  0  0  0  0  0  0  0  0  0  0
   57.3550   32.7680   44.8270 C   0  0  0  0  0  0  0  0  0  0  0  0
   57.3450   34.1110   45.2070 C   0  0  0  0  0  0  0  0  0  0  0  0
   58.3070   34.5970   46.0930 C   0  0  0  0  0  0  0  0  0  0  0  0
   59.2870   33.7380   46.6080 C   0  0  0  0  0  0  0  0  0  0  0  0
   59.2950   32.3790   46.2360 C   0  0  0  0  0  0  0  0  0  0  0  0
   60.3510   31.4890   46.8410 C   0  0  0  0  0  0  0  0  0  0  0  0
   61.6930   32.2140   46.7850 C   0  0  0  0  0  0  0  0  0  0  0  0
   61.6690   33.5790   47.5130 C   0  0  0  0  0  0  0  0  0  0  0  0
   60.2710   34.2310   47.6400 C   0  0  0  0  0  0  0  0  0  0  0  0
   57.5259   28.7328   54.3971 H   0  0  0  0  0  0  0  0  0  0  0  0
   55.1634   28.3215   53.7202 H   0  0  0  0  0  0  0  0  0  0  0  0
   54.0127   29.9052   52.1788 H   0  0  0  0  0  0  0  0  0  0  0  0
   55.2070   31.9173   51.3318 H   0  0  0  0  0  0  0  0  0  0  0  0
   61.0296   33.9769   50.9208 H   0  0  0  0  0  0  0  0  0  0  0  0
   63.2569   32.8855   50.7413 H   0  0  0  0  0  0  0  0  0  0  0  0
   63.4185   30.4479   50.2595 H   0  0  0  0  0  0  0  0  0  0  0  0
   61.3610   29.1221   49.8247 H   0  0  0  0  0  0  0  0  0  0  0  0
   59.8984   27.7564   49.2363 H   0  0  0  0  0  0  0  0  0  0  0  0
   60.1920   25.5366   48.1526 H   0  0  0  0  0  0  0  0  0  0  0  0
   58.8570   24.6580   44.8370 H   0  0  0  0  0  0  0  0  0  0  0  0
   57.9595   26.9058   44.7156 H   0  0  0  0  0  0  0  0  0  0  0  0
   56.5821   32.3886   44.1423 H   0  0  0  0  0  0  0  0  0  0  0  0
   56.5763   34.7884   44.8067 H   0  0  0  0  0  0  0  0  0  0  0  0
   58.2961   35.6567   46.3879 H   0  0  0  0  0  0  0  0  0  0  0  0
   60.0934   31.2675   47.8872 H   0  0  0  0  0  0  0  0  0  0  0  0
   60.4115   30.5447   46.2801 H   0  0  0  0  0  0  0  0  0  0  0  0
   62.4560   31.5776   47.2569 H   0  0  0  0  0  0  0  0  0  0  0  0
   61.9204   32.4077   45.7263 H   0  0  0  0  0  0  0  0  0  0  0  0
   62.0696   33.4316   48.5268 H   0  0  0  0  0  0  0  0  0  0  0  0
   62.2719   34.2642   46.8990 H   0  0  0  0  0  0  0  0  0  0  0  0
   59.8705   34.0066   48.6396 H   0  0  0  0  0  0  0  0  0  0  0  0
   60.3993   35.3114   47.4781 H   0  0  0  0  0  0  0  0  0  0  0  0
  1  2  3  0
  2  3  1  0
  3  4  2  0
  4  5  1  0
  5  6  2  0
  6  7  1  0
  7  8  2  0
  8  9  1  0
  9 10  2  0
  9 11  1  0
 11 12  1  0
 12 13  2  0
 13 14  1  0
 14 15  2  0
 15 16  1  0
 16 17  2  0
 17 18  1  0
 18 19  2  0
 18 20  1  0
 20 21  1  0
 21 22  2  0
 22 23  1  0
 23 24  2  0
 24 25  1  0
 24 26  1  0
 26 27  2  0
 27 28  1  0
 28 29  2  0
 28 30  1  0
 30 31  1  0
 31 32  2  0
 32 33  1  0
 33 34  2  0
 34 35  1  0
 35 36  2  0
 36 37  1  0
 37 38  1  0
 38 39  1  0
 39 40  1  0
  8  3  1  0
 17 12  1  0
 27 21  1  0
 36 31  1  0
 40 35  1  0
  4 41  1  0
  5 42  1  0
  6 43  1  0
  7 44  1  0
 13 45  1  0
 14 46  1  0
 15 47  1  0
 16 48  1  0
 22 49  1  0
 23 50  1  0
 25 51  1  0
 26 52  1  0
 32 53  1  0
 33 54  1  0
 34 55  1  0
 37 56  1  0
 37 57  1  0
 38 58  1  0
 38 59  1  0
 39 60  1  0
 39 61  1  0
 40 62  1  0
 40 63  1  0
M  CHG  3  11  -1  20  -1  30  -1
M  END
>  <UniqueID>  (48) 
40

>  <SMILES>  (48) 
N#Cc1ccccc1C(=O)[N-]c1ccccc1C(=O)[N-]c1ccc(O)cc1C(=O)[N-]c1cccc2c1CCCC2

>  <Energy>  (48) 
102.08773497602449

>  <Genealogy>  (48) 
N#Cc1ccccc1C(=O)[N-]c1ccccc1C(=O)[N-]c1ccc(O)cc1C(=O)[N-]c1cccc2c1CCCC2 (protonated)
N#Cc1ccccc1C(=O)[N-]c1ccccc1C(=O)[N-]c1ccc(O)cc1C(=O)[N-]c1cccc2c1CCCC2 (3D coordinates assigned)
N#Cc1ccccc1C(=O)[N-]c1ccccc1C(=O)[N-]c1ccc(O)cc1C(=O)[N-]c1cccc2c1CCCC2 (nonaromatic ring conformer: 102.08773497602449 kcal/mol)

>  <smiles>  (48) 
N#Cc1ccccc1C(=O)Nc1ccccc1C(=O)Nc1ccc(O)cc1C(=O)Nc1cccc2c1CCCC2

>  <score_type>  (48) 
oracle

>  <origin>  (48) 
adg

>  <m_score__min__energy>  (48) 
-14.630000000000001

>  <m_primary>  (48) 
energy

$$$$
48:0
     RDKit          3D

 41 43  0  0  0  0  0  0  0  0999 V2000
   59.9000   30.4050   48.1960 C   0  0  0  0  0  0  0  0  0  0  0  0
   59.5110   29.6520   46.9580 C   0  0  0  0  0  0  0  0  0  0  0  0
   60.3750   28.6970   46.4050 C   0  0  0  0  0  0  0  0  0  0  0  0
   59.9950   27.9760   45.2700 C   0  0  0  0  0  0  0  0  0  0  0  0
   58.7390   28.1880   44.6780 C   0  0  0  0  0  0  0  0  0  0  0  0
   58.3410   27.3850   43.4680 C   0  0  0  0  0  0  0  0  0  0  0  0
   57.8640   29.1430   45.2400 C   0  0  0  0  0  0  0  0  0  0  0  0
   56.2350   29.4540   44.5370 S   0  0  0  0  0  0  0  0  0  0  0  0
   56.8260   30.7770   43.4320 C   0  0  0  0  0  0  0  0  0  0  0  0
   57.3290   31.9150   44.2540 C   0  0  0  0  0  0  0  0  0  0  0  0
   58.5400   32.4890   44.0860 N   0  0  0  0  0  0  0  0  0  0  0  0
   58.5280   33.4250   45.0590 C   0  0  0  0  0  0  0  0  0  0  0  0
   59.6240   34.4170   45.2740 C   0  0  0  0  0  0  0  0  0  0  0  0
   60.4310   34.0380   46.4870 C   0  0  0  0  0  0  0  0  0  0  0  0
   61.8100   33.7910   46.3590 C   0  0  0  0  0  0  0  0  0  0  0  0
   62.5780   33.4760   47.4840 C   0  0  0  0  0  0  0  0  0  0  0  0
   61.9780   33.4080   48.7440 C   0  0  0  0  0  0  0  0  0  0  0  0
   60.6120   33.6630   48.8830 C   0  0  0  0  0  0  0  0  0  0  0  0
   59.8380   33.9830   47.7620 C   0  0  0  0  0  0  0  0  0  0  0  0
   58.5150   34.2420   47.9230 F   0  0  0  0  0  0  0  0  0  0  0  0
   57.3750   33.4130   45.7510 N   0  0  0  0  0  0  0  0  0  0  0  0
   56.6560   32.4670   45.2340 O   0  0  0  0  0  0  0  0  0  0  0  0
   58.2510   29.8580   46.3800 C   0  0  0  0  0  0  0  0  0  0  0  0
   59.6023   29.8287   49.0844 H   0  0  0  0  0  0  0  0  0  0  0  0
   60.9894   30.5570   48.2056 H   0  0  0  0  0  0  0  0  0  0  0  0
   59.3935   31.3814   48.2056 H   0  0  0  0  0  0  0  0  0  0  0  0
   61.3566   28.5142   46.8665 H   0  0  0  0  0  0  0  0  0  0  0  0
   60.6848   27.2367   44.8368 H   0  0  0  0  0  0  0  0  0  0  0  0
   57.8740   26.4428   43.7906 H   0  0  0  0  0  0  0  0  0  0  0  0
   57.6244   27.9617   42.8647 H   0  0  0  0  0  0  0  0  0  0  0  0
   59.2339   27.1640   42.8647 H   0  0  0  0  0  0  0  0  0  0  0  0
   57.6397   30.3921   42.7998 H   0  0  0  0  0  0  0  0  0  0  0  0
   55.9997   31.1204   42.7922 H   0  0  0  0  0  0  0  0  0  0  0  0
   60.2795   34.4327   44.3908 H   0  0  0  0  0  0  0  0  0  0  0  0
   59.1840   35.4130   45.4299 H   0  0  0  0  0  0  0  0  0  0  0  0
   62.2863   33.8460   45.3690 H   0  0  0  0  0  0  0  0  0  0  0  0
   63.6554   33.2816   47.3771 H   0  0  0  0  0  0  0  0  0  0  0  0
   62.5821   33.1534   49.6273 H   0  0  0  0  0  0  0  0  0  0  0  0
   60.1430   33.6121   49.8767 H   0  0  0  0  0  0  0  0  0  0  0  0
   57.0880   34.0380   46.5370 H   0  0  0  0  0  0  0  0  0  0  0  0
   57.5597   30.5881   46.8260 H   0  0  0  0  0  0  0  0  0  0  0  0
  1  2  1  0
  2  3  2  0
  3  4  1  0
  4  5  2  0
  5  6  1  0
  5  7  1  0
  7  8  1  0
  8  9  1  0
  9 10  1  0
 10 11  2  0
 11 12  1  0
 12 13  1  0
 13 14  1  0
 14 15  2  0
 15 16  1  0
 16 17  2  0
 17 18  1  0
 18 19  2  0
 19 20  1  0
 12 21  2  0
 21 22  1  0
  7 23  2  0
 23  2  1  0
 22 10  1  0
 19 14  1  0
  1 24  1  0
  1 25  1  0
  1 26  1  0
  3 27  1  0
  4 28  1  0
  6 29  1  0
  6 30  1  0
  6 31  1  0
  9 32  1  0
  9 33  1  0
 13 34  1  0
 13 35  1  0
 15 36  1  0
 16 37  1  0
 17 38  1  0
 18 39  1  0
 21 40  1  0
 23 41  1  0
M  CHG  1  21   1
M  END
>  <UniqueID>  (49) 
41

>  <SMILES>  (49) 
Cc1ccc(C)c(SCc2nc(Cc3ccccc3F)[nH+]o2)c1

>  <Energy>  (49) 
69.81957495203108

>  <Genealogy>  (49) 
Cc1ccc(C)c(SCc2nc(Cc3ccccc3F)[nH+]o2)c1 (protonated)
Cc1ccc(C)c(SCc2nc(Cc3ccccc3F)[nH+]o2)c1 (3D coordinates assigned)
Cc1ccc(C)c(SCc2nc(Cc3ccccc3F)[nH+]o2)c1 (optimized conformer: 69.81957495203108 kcal/mol)

>  <smiles>  (49) 
Cc1ccc(C)c(SCc2nc(Cc3ccccc3F)no2)c1

>  <score_type>  (49) 
oracle

>  <origin>  (49) 
adg

>  <m_score__min__energy>  (49) 
-7.0700000000000003

>  <m_primary>  (49) 
energy

$$$$
49:0
     RDKit          3D

 75 79  0  0  0  0  0  0  0  0999 V2000
   60.5810   31.1870   47.6530 C   0  0  0  0  0  0  0  0  0  0  0  0
   59.6050   32.1140   46.9590 C   0  0  0  0  0  0  0  0  0  0  0  0
   59.6030   33.5080   47.2550 C   0  0  0  0  0  0  0  0  0  0  0  0
   60.5700   34.1350   48.2410 C   0  0  0  0  0  0  0  0  0  0  0  0
   59.8900   34.5920   49.4140 O   0  0  0  0  0  0  0  0  0  0  0  0
   59.3100   33.7600   50.3860 C   0  0  0  0  0  0  0  0  0  0  0  0
   59.1570   34.1560   51.7280 C   0  0  0  0  0  0  0  0  0  0  0  0
   58.5640   33.2960   52.6560 C   0  0  0  0  0  0  0  0  0  0  0  0
   58.1360   32.0140   52.2640 C   0  0  0  0  0  0  0  0  0  0  0  0
   57.5570   31.1020   53.1620 O   0  0  0  0  0  0  0  0  0  0  0  0
   57.0270   29.8220   52.8120 C   0  0  0  0  0  0  0  0  0  0  0  0
   55.5370   29.8940   52.5960 C   0  0  0  0  0  0  0  0  0  0  0  0
   54.9970   30.8400   51.7090 C   0  0  0  0  0  0  0  0  0  0  0  0
   53.6150   30.9120   51.5110 C   0  0  0  0  0  0  0  0  0  0  0  0
   52.7620   30.0470   52.2020 C   0  0  0  0  0  0  0  0  0  0  0  0
   53.2900   29.1140   53.0990 C   0  0  0  0  0  0  0  0  0  0  0  0
   54.6710   29.0400   53.3020 C   0  0  0  0  0  0  0  0  0  0  0  0
   58.2910   31.6250   50.9290 C   0  0  0  0  0  0  0  0  0  0  0  0
   58.8690   32.4910   49.9980 C   0  0  0  0  0  0  0  0  0  0  0  0
   58.6590   34.3440   46.6340 C   0  0  0  0  0  0  0  0  0  0  0  0
   57.7820   33.8410   45.6770 C   0  0  0  0  0  0  0  0  0  0  0  0
   57.8270   32.4960   45.3280 C   0  0  0  0  0  0  0  0  0  0  0  0
   58.7310   31.6240   45.9530 C   0  0  0  0  0  0  0  0  0  0  0  0
   58.7410   30.2430   45.5570 N   0  0  0  0  0  0  0  0  0  0  0  0
   58.5470   29.1810   46.5080 C   0  0  0  0  0  0  0  0  0  0  0  0
   58.3020   29.4660   47.7140 O   0  0  0  0  0  0  0  0  0  0  0  0
   58.5730   27.7550   46.0930 C   0  0  0  0  0  0  0  0  0  0  0  0
   57.7920   27.2870   45.0190 C   0  0  0  0  0  0  0  0  0  0  0  0
   57.7960   25.9320   44.6780 C   0  0  0  0  0  0  0  0  0  0  0  0
   58.5830   25.0190   45.3870 C   0  0  0  0  0  0  0  0  0  0  0  0
   58.5160   23.6640   45.0250 O   0  0  0  0  0  0  0  0  0  0  0  0
   57.6170   23.1120   44.0610 C   0  0  0  0  0  0  0  0  0  0  0  0
   56.1850   23.3050   44.4870 C   0  0  0  0  0  0  0  0  0  0  0  0
   55.1850   23.5180   43.5270 C   0  0  0  0  0  0  0  0  0  0  0  0
   53.8580   23.7170   43.9220 C   0  0  0  0  0  0  0  0  0  0  0  0
   53.5080   23.6960   45.2760 C   0  0  0  0  0  0  0  0  0  0  0  0
   52.1640   23.9140   45.6200 O   0  0  0  0  0  0  0  0  0  0  0  0
   51.0870   23.9780   44.6890 C   0  0  0  0  0  0  0  0  0  0  0  0
   49.9760   23.3370   45.2080 F   0  0  0  0  0  0  0  0  0  0  0  0
   50.7710   25.3020   44.4510 F   0  0  0  0  0  0  0  0  0  0  0  0
   54.5060   23.4580   46.2400 C   0  0  0  0  0  0  0  0  0  0  0  0
   55.8330   23.2590   45.8450 C   0  0  0  0  0  0  0  0  0  0  0  0
   59.4000   25.4900   46.4300 C   0  0  0  0  0  0  0  0  0  0  0  0
   59.3920   26.8410   46.7800 C   0  0  0  0  0  0  0  0  0  0  0  0
   60.4727   31.2899   48.7428 H   0  0  0  0  0  0  0  0  0  0  0  0
   60.3711   30.1477   47.3601 H   0  0  0  0  0  0  0  0  0  0  0  0
   61.6081   31.4501   47.3601 H   0  0  0  0  0  0  0  0  0  0  0  0
   61.3221   33.3866   48.5311 H   0  0  0  0  0  0  0  0  0  0  0  0
   61.0488   34.9992   47.7573 H   0  0  0  0  0  0  0  0  0  0  0  0
   59.5064   35.1487   52.0482 H   0  0  0  0  0  0  0  0  0  0  0  0
   58.4311   33.6226   53.6979 H   0  0  0  0  0  0  0  0  0  0  0  0
   57.5082   29.4746   51.8858 H   0  0  0  0  0  0  0  0  0  0  0  0
   57.2277   29.1225   53.6369 H   0  0  0  0  0  0  0  0  0  0  0  0
   55.6644   31.5270   51.1680 H   0  0  0  0  0  0  0  0  0  0  0  0
   53.1983   31.6505   50.8103 H   0  0  0  0  0  0  0  0  0  0  0  0
   51.6753   30.1004   52.0400 H   0  0  0  0  0  0  0  0  0  0  0  0
   52.6176   28.4368   53.6461 H   0  0  0  0  0  0  0  0  0  0  0  0
   55.0818   28.3113   54.0164 H   0  0  0  0  0  0  0  0  0  0  0  0
   57.9544   30.6276   50.6096 H   0  0  0  0  0  0  0  0  0  0  0  0
   58.9782   32.1722   48.9509 H   0  0  0  0  0  0  0  0  0  0  0  0
   58.6127   35.4085   46.9075 H   0  0  0  0  0  0  0  0  0  0  0  0
   57.0522   34.5089   45.1961 H   0  0  0  0  0  0  0  0  0  0  0  0
   57.1467   32.1115   44.5538 H   0  0  0  0  0  0  0  0  0  0  0  0
   58.8120   30.0230   44.5410 H   0  0  0  0  0  0  0  0  0  0  0  0
   57.1744   27.9930   44.4444 H   0  0  0  0  0  0  0  0  0  0  0  0
   57.1732   25.5795   43.8426 H   0  0  0  0  0  0  0  0  0  0  0  0
   57.7752   23.6116   43.0939 H   0  0  0  0  0  0  0  0  0  0  0  0
   57.8148   22.0334   43.9740 H   0  0  0  0  0  0  0  0  0  0  0  0
   55.4455   23.5286   42.4583 H   0  0  0  0  0  0  0  0  0  0  0  0
   53.0830   23.8915   43.1612 H   0  0  0  0  0  0  0  0  0  0  0  0
   51.3887   23.4859   43.7526 H   0  0  0  0  0  0  0  0  0  0  0  0
   54.2414   23.4284   47.3073 H   0  0  0  0  0  0  0  0  0  0  0  0
   56.6057   23.0652   46.6035 H   0  0  0  0  0  0  0  0  0  0  0  0
   60.0500   24.7887   46.9739 H   0  0  0  0  0  0  0  0  0  0  0  0
   60.0326   27.1945   47.6014 H   0  0  0  0  0  0  0  0  0  0  0  0
  1  2  1  0
  2  3  2  0
  3  4  1  0
  4  5  1  0
  5  6  1  0
  6  7  2  0
  7  8  1  0
  8  9  2  0
  9 10  1  0
 10 11  1  0
 11 12  1  0
 12 13  2  0
 13 14  1  0
 14 15  2  0
 15 16  1  0
 16 17  2  0
  9 18  1  0
 18 19  2  0
  3 20  1  0
 20 21  2  0
 21 22  1  0
 22 23  2  0
 23 24  1  0
 24 25  1  0
 25 26  2  0
 25 27  1  0
 27 28  2  0
 28 29  1  0
 29 30  2  0
 30 31  1  0
 31 32  1  0
 32 33  1  0
 33 34  2  0
 34 35  1  0
 35 36  2  0
 36 37  1  0
 37 38  1  0
 38 39  1  0
 38 40  1  0
 36 41  1  0
 41 42  2  0
 30 43  1  0
 43 44  2  0
 23  2  1  0
 44 27  1  0
 19  6  1  0
 42 33  1  0
 17 12  1  0
  1 45  1  0
  1 46  1  0
  1 47  1  0
  4 48  1  0
  4 49  1  0
  7 50  1  0
  8 51  1  0
 11 52  1  0
 11 53  1  0
 13 54  1  0
 14 55  1  0
 15 56  1  0
 16 57  1  0
 17 58  1  0
 18 59  1  0
 19 60  1  0
 20 61  1  0
 21 62  1  0
 22 63  1  0
 24 64  1  0
 28 65  1  0
 29 66  1  0
 32 67  1  0
 32 68  1  0
 34 69  1  0
 35 70  1  0
 38 71  1  0
 41 72  1  0
 42 73  1  0
 43 74  1  0
 44 75  1  0
M  END
>  <UniqueID>  (50) 
42

>  <SMILES>  (50) 
Cc1c(COc2ccc(OCc3ccccc3)cc2)cccc1NC(=O)c1ccc(OCc2ccc(OC(F)F)cc2)cc1

>  <Energy>  (50) 
92.28611717632941

>  <Genealogy>  (50) 
Cc1c(COc2ccc(OCc3ccccc3)cc2)cccc1NC(=O)c1ccc(OCc2ccc(OC(F)F)cc2)cc1 (3D coordinates assigned)
Cc1c(COc2ccc(OCc3ccccc3)cc2)cccc1NC(=O)c1ccc(OCc2ccc(OC(F)F)cc2)cc1 (optimized conformer: 92.28611717632941 kcal/mol)

>  <smiles>  (50) 
Cc1c(COc2ccc(OCc3ccccc3)cc2)cccc1NC(=O)c1ccc(OCc2ccc(OC(F)F)cc2)cc1

>  <score_type>  (50) 
oracle

>  <origin>  (50) 
adg

>  <m_score__min__energy>  (50) 
-8.1799999999999997

>  <m_primary>  (50) 
energy

$$$$
50:0
     RDKit          3D

 63 67  0  0  0  0  0  0  0  0999 V2000
   59.6390   35.5180   45.9650 C   0  0  0  0  0  0  0  0  0  0  0  0
   58.8290   34.2450   46.2240 C   0  0  1  0  0  0  0  0  0  0  0  0
   59.3020   33.1760   45.3990 O   0  0  0  0  0  0  0  0  0  0  0  0
   58.5310   32.4330   44.4910 C   0  0  0  0  0  0  0  0  0  0  0  0
   58.5100   32.6910   43.1110 C   0  0  0  0  0  0  0  0  0  0  0  0
   57.7360   31.9390   42.2860 N   0  0  0  0  0  0  0  0  0  0  0  0
   56.9670   30.9150   42.7480 C   0  0  0  0  0  0  0  0  0  0  0  0
   56.2720   30.2540   41.9310 O   0  0  0  0  0  0  0  0  0  0  0  0
   56.9540   30.6050   44.1280 C   0  0  0  0  0  0  0  0  0  0  0  0
   56.1510   29.4820   44.6890 C   0  0  0  0  0  0  0  0  0  0  0  0
   54.9370   29.3650   44.3710 O   0  0  0  0  0  0  0  0  0  0  0  0
   56.7330   28.5770   45.6390 N   0  0  0  0  0  0  0  0  0  0  0  0
   58.0980   28.5300   46.0850 C   0  0  0  0  0  0  0  0  0  0  0  0
   58.9940   27.7160   45.3860 C   0  0  0  0  0  0  0  0  0  0  0  0
   60.3240   27.6150   45.7920 C   0  0  0  0  0  0  0  0  0  0  0  0
   60.7700   28.3160   46.9150 C   0  0  0  0  0  0  0  0  0  0  0  0
   59.8830   29.1220   47.6510 C   0  0  0  0  0  0  0  0  0  0  0  0
   60.3480   29.8660   48.8500 C   0  0  0  0  0  0  0  0  0  0  0  0
   59.7780   29.6830   49.9590 O   0  0  0  0  0  0  0  0  0  0  0  0
   61.4440   30.8590   48.7720 C   0  0  0  0  0  0  0  0  0  0  0  0
   61.4480   31.7520   47.6950 C   0  0  0  0  0  0  0  0  0  0  0  0
   62.4590   32.6540   47.5280 N   0  0  0  0  0  0  0  0  0  0  0  0
   62.4300   33.5600   46.3710 C   0  0  0  0  0  0  0  0  0  0  0  0
   63.4970   32.7200   48.4200 C   0  0  0  0  0  0  0  0  0  0  0  0
   64.4220   33.5620   48.2360 O   0  0  0  0  0  0  0  0  0  0  0  0
   63.5360   31.8600   49.5400 C   0  0  0  0  0  0  0  0  0  0  0  0
   64.5880   31.9130   50.4850 C   0  0  0  0  0  0  0  0  0  0  0  0
   65.6220   32.7820   50.3490 F   0  0  0  0  0  0  0  0  0  0  0  0
   64.5850   31.0610   51.5910 C   0  0  0  0  0  0  0  0  0  0  0  0
   63.5430   30.1590   51.7830 C   0  0  0  0  0  0  0  0  0  0  0  0
   62.4980   30.0910   50.8630 C   0  0  0  0  0  0  0  0  0  0  0  0
   62.4860   30.9230   49.7240 C   0  0  0  0  0  0  0  0  0  0  0  0
   58.5420   29.2200   47.2300 C   0  0  0  0  0  0  0  0  0  0  0  0
   57.7440   31.3920   44.9870 C   0  0  0  0  0  0  0  0  0  0  0  0
   58.9520   33.8470   47.6760 C   0  0  0  0  0  0  0  0  0  0  0  0
   59.8190   34.5480   48.5340 C   0  0  0  0  0  0  0  0  0  0  0  0
   59.9580   34.1590   49.8690 C   0  0  0  0  0  0  0  0  0  0  0  0
   59.2440   33.0620   50.3590 C   0  0  0  0  0  0  0  0  0  0  0  0
   58.3870   32.3530   49.5130 C   0  0  0  0  0  0  0  0  0  0  0  0
   58.2420   32.7390   48.1770 C   0  0  0  0  0  0  0  0  0  0  0  0
   59.9272   35.9709   46.9251 H   0  0  0  0  0  0  0  0  0  0  0  0
   60.5437   35.2667   45.3919 H   0  0  0  0  0  0  0  0  0  0  0  0
   59.0282   36.2310   45.3919 H   0  0  0  0  0  0  0  0  0  0  0  0
   57.7747   34.4456   45.9827 H   0  0  0  0  0  0  0  0  0  0  0  0
   59.1226   33.5051   42.6964 H   0  0  0  0  0  0  0  0  0  0  0  0
   57.7360   32.1570   41.2630 H   0  0  0  0  0  0  0  0  0  0  0  0
   58.6470   27.1506   44.5086 H   0  0  0  0  0  0  0  0  0  0  0  0
   61.0237   26.9819   45.2267 H   0  0  0  0  0  0  0  0  0  0  0  0
   61.8222   28.2371   47.2258 H   0  0  0  0  0  0  0  0  0  0  0  0
   60.6215   31.7268   46.9696 H   0  0  0  0  0  0  0  0  0  0  0  0
   62.3966   34.6020   46.7220 H   0  0  0  0  0  0  0  0  0  0  0  0
   63.3335   33.4068   45.7626 H   0  0  0  0  0  0  0  0  0  0  0  0
   61.5381   33.3493   45.7626 H   0  0  0  0  0  0  0  0  0  0  0  0
   65.4118   31.1030   52.3154 H   0  0  0  0  0  0  0  0  0  0  0  0
   63.5439   29.4983   52.6625 H   0  0  0  0  0  0  0  0  0  0  0  0
   61.6740   29.3810   51.0270 H   0  0  0  0  0  0  0  0  0  0  0  0
   57.8355   29.8408   47.8005 H   0  0  0  0  0  0  0  0  0  0  0  0
   57.7412   31.1833   46.0670 H   0  0  0  0  0  0  0  0  0  0  0  0
   60.3905   35.4068   48.1520 H   0  0  0  0  0  0  0  0  0  0  0  0
   60.6311   34.7177   50.5359 H   0  0  0  0  0  0  0  0  0  0  0  0
   59.3565   32.7569   51.4098 H   0  0  0  0  0  0  0  0  0  0  0  0
   57.8254   31.4895   49.8989 H   0  0  0  0  0  0  0  0  0  0  0  0
   57.5700   32.1743   47.5140 H   0  0  0  0  0  0  0  0  0  0  0  0
  1  2  1  0
  2  3  1  0
  3  4  1  0
  4  5  2  0
  5  6  1  0
  6  7  1  0
  7  8  2  0
  7  9  1  0
  9 10  1  0
 10 11  2  0
 10 12  1  0
 12 13  1  0
 13 14  2  0
 14 15  1  0
 15 16  2  0
 16 17  1  0
 17 18  1  0
 18 19  2  0
 18 20  1  0
 20 21  2  0
 21 22  1  0
 22 23  1  0
 22 24  1  0
 24 25  2  0
 24 26  1  0
 26 27  2  0
 27 28  1  0
 27 29  1  0
 29 30  2  0
 30 31  1  0
 31 32  2  0
 17 33  2  0
  9 34  2  0
  2 35  1  0
 35 36  2  0
 36 37  1  0
 37 38  2  0
 38 39  1  0
 39 40  2  0
 34  4  1  0
 40 35  1  0
 33 13  1  0
 32 20  1  0
 32 26  1  0
  1 41  1  0
  1 42  1  0
  1 43  1  0
  2 44  1  6
  5 45  1  0
  6 46  1  0
 14 47  1  0
 15 48  1  0
 16 49  1  0
 21 50  1  0
 23 51  1  0
 23 52  1  0
 23 53  1  0
 29 54  1  0
 30 55  1  0
 31 56  1  0
 33 57  1  0
 34 58  1  0
 36 59  1  0
 37 60  1  0
 38 61  1  0
 39 62  1  0
 40 63  1  0
M  CHG  1  12  -1
M  END
>  <UniqueID>  (51) 
43

>  <SMILES>  (51) 
C[C@@H](Oc1c[nH]c(=O)c(C(=O)[N-]c2cccc(C(=O)c3cn(C)c(=O)c4c(F)cccc34)c2)c1)c1ccccc1

>  <Energy>  (51) 
93.38365577449466

>  <Genealogy>  (51) 
CC(Oc1c[nH]c(=O)c(C(=O)[N-]c2cccc(C(=O)c3cn(C)c(=O)c4c(F)cccc34)c2)c1)c1ccccc1 (protonated)
C[C@@H](Oc1c[nH]c(=O)c(C(=O)[N-]c2cccc(C(=O)c3cn(C)c(=O)c4c(F)cccc34)c2)c1)c1ccccc1 (chirality)
C[C@@H](Oc1c[nH]c(=O)c(C(=O)[N-]c2cccc(C(=O)c3cn(C)c(=O)c4c(F)cccc34)c2)c1)c1ccccc1 (3D coordinates assigned)
C[C@@H](Oc1c[nH]c(=O)c(C(=O)[N-]c2cccc(C(=O)c3cn(C)c(=O)c4c(F)cccc34)c2)c1)c1ccccc1 (optimized conformer: 93.38365577449466 kcal/mol)

>  <smiles>  (51) 
CC(Oc1c[nH]c(=O)c(C(=O)Nc2cccc(C(=O)c3cn(C)c(=O)c4c(F)cccc34)c2)c1)c1ccccc1

>  <score_type>  (51) 
oracle

>  <origin>  (51) 
adg

>  <m_score__min__energy>  (51) 
-11.960000000000001

>  <m_primary>  (51) 
energy

$$$$
51:0
     RDKit          3D

 28 29  0  0  0  0  0  0  0  0999 V2000
   58.1640   21.2000   43.9480 N   0  0  0  0  0  0  0  0  0  0  0  0
   56.5820   21.8940   43.9900 S   0  0  0  0  0  0  0  0  0  0  0  0
   55.9640   21.8180   42.6220 O   0  0  0  0  0  0  0  0  0  0  0  0
   55.7210   21.1210   44.9490 O   0  0  0  0  0  0  0  0  0  0  0  0
   56.6860   23.5750   44.5040 C   0  0  0  0  0  0  0  0  0  0  0  0
   57.6580   24.4210   43.9540 C   0  0  0  0  0  0  0  0  0  0  0  0
   57.7500   25.7520   44.3720 C   0  0  0  0  0  0  0  0  0  0  0  0
   56.8710   26.2520   45.3480 C   0  0  0  0  0  0  0  0  0  0  0  0
   56.9230   27.6120   45.8010 N   0  0  0  0  0  0  0  0  0  0  0  0
   56.6420   29.0060   44.8080 S   0  0  0  0  0  0  0  0  0  0  0  0
   55.1850   29.3690   44.8620 O   0  0  0  0  0  0  0  0  0  0  0  0
   57.0180   28.6840   43.3890 O   0  0  0  0  0  0  0  0  0  0  0  0
   57.6250   30.3450   45.3680 C   0  0  0  0  0  0  0  0  0  0  0  0
   58.6700   30.2550   46.2770 C   0  0  0  0  0  0  0  0  0  0  0  0
   59.2600   31.4930   46.5540 C   0  0  0  0  0  0  0  0  0  0  0  0
   58.6740   32.5440   45.8620 C   0  0  0  0  0  0  0  0  0  0  0  0
   59.1890   34.3760   45.9730 Br  0  0  0  0  0  0  0  0  0  0  0  0
   57.4240   31.9490   44.9070 S   0  0  0  0  0  0  0  0  0  0  0  0
   55.9080   25.3980   45.9030 C   0  0  0  0  0  0  0  0  0  0  0  0
   55.8170   24.0670   45.4860 C   0  0  0  0  0  0  0  0  0  0  0  0
   58.3630   20.8370   44.9070 H   0  0  0  0  0  0  0  0  0  0  0  0
   58.1160   20.3700   43.3160 H   0  0  0  0  0  0  0  0  0  0  0  0
   58.3509   24.0368   43.1909 H   0  0  0  0  0  0  0  0  0  0  0  0
   58.5143   26.4113   43.9347 H   0  0  0  0  0  0  0  0  0  0  0  0
   58.9998   29.3094   46.7320 H   0  0  0  0  0  0  0  0  0  0  0  0
   60.1026   31.6205   47.2495 H   0  0  0  0  0  0  0  0  0  0  0  0
   55.2192   25.7778   46.6719 H   0  0  0  0  0  0  0  0  0  0  0  0
   55.0604   23.4038   45.9306 H   0  0  0  0  0  0  0  0  0  0  0  0
  1  2  1  0
  2  3  2  0
  2  4  2  0
  2  5  1  0
  5  6  2  0
  6  7  1  0
  7  8  2  0
  8  9  1  0
  9 10  1  0
 10 11  2  0
 10 12  2  0
 10 13  1  0
 13 14  2  0
 14 15  1  0
 15 16  2  0
 16 17  1  0
 16 18  1  0
  8 19  1  0
 19 20  2  0
 20  5  1  0
 18 13  1  0
  1 21  1  0
  1 22  1  0
  6 23  1  0
  7 24  1  0
 14 25  1  0
 15 26  1  0
 19 27  1  0
 20 28  1  0
M  CHG  1   9  -1
M  END
>  <UniqueID>  (52) 
44

>  <SMILES>  (52) 
NS(=O)(=O)c1ccc([N-]S(=O)(=O)c2ccc(Br)s2)cc1

>  <Energy>  (52) 
56.25924350876166

>  <Genealogy>  (52) 
NS(=O)(=O)c1ccc([N-]S(=O)(=O)c2ccc(Br)s2)cc1 (protonated)
NS(=O)(=O)c1ccc([N-]S(=O)(=O)c2ccc(Br)s2)cc1 (3D coordinates assigned)
NS(=O)(=O)c1ccc([N-]S(=O)(=O)c2ccc(Br)s2)cc1 (optimized conformer: 56.25924350876166 kcal/mol)

>  <smiles>  (52) 
NS(=O)(=O)c1ccc(NS(=O)(=O)c2ccc(Br)s2)cc1

>  <score_type>  (52) 
oracle

>  <origin>  (52) 
adg

>  <m_score__min__energy>  (52) 
-9.75

>  <m_primary>  (52) 
energy

$$$$
52:0
     RDKit          3D

 47 49  0  0  0  0  0  0  0  0999 V2000
   58.9850   29.8540   48.5800 C   0  0  0  0  0  0  0  0  0  0  0  0
   58.5680   31.1270   49.0630 O   0  0  0  0  0  0  0  0  0  0  0  0
   58.7910   32.3390   48.3920 C   0  0  0  0  0  0  0  0  0  0  0  0
   59.6090   33.2960   49.0040 C   0  0  0  0  0  0  0  0  0  0  0  0
   59.8570   34.5210   48.3800 C   0  0  0  0  0  0  0  0  0  0  0  0
   59.2910   34.8000   47.1340 C   0  0  0  0  0  0  0  0  0  0  0  0
   58.4740   33.8510   46.5010 C   0  0  0  0  0  0  0  0  0  0  0  0
   57.8420   34.1520   45.1690 C   0  0  0  0  0  0  0  0  0  0  0  0
   58.6240   33.5570   44.0910 N   0  0  0  0  0  0  0  0  0  0  0  0
   58.1380   32.5120   43.2420 C   0  0  0  0  0  0  0  0  0  0  0  0
   58.1520   32.6650   41.9890 O   0  0  0  0  0  0  0  0  0  0  0  0
   57.6230   31.2520   43.8290 C   0  0  0  0  0  0  0  0  0  0  0  0
   58.4560   30.4380   44.6160 C   0  0  0  0  0  0  0  0  0  0  0  0
   57.9720   29.2500   45.1700 C   0  0  0  0  0  0  0  0  0  0  0  0
   56.6400   28.8560   44.9560 C   0  0  0  0  0  0  0  0  0  0  0  0
   56.1230   27.6260   45.4920 N   0  0  0  0  0  0  0  0  0  0  0  0
   56.8210   26.8010   46.4350 C   0  0  0  0  0  0  0  0  0  0  0  0
   57.8360   27.2410   47.0400 O   0  0  0  0  0  0  0  0  0  0  0  0
   56.2950   25.5060   46.7500 N   0  0  0  0  0  0  0  0  0  0  0  0
   56.4530   24.3090   45.9760 C   0  0  0  0  0  0  0  0  0  0  0  0
   57.1740   23.2410   46.5280 C   0  0  0  0  0  0  0  0  0  0  0  0
   57.3360   22.0500   45.8140 C   0  0  0  0  0  0  0  0  0  0  0  0
   56.7640   21.9110   44.5460 C   0  0  0  0  0  0  0  0  0  0  0  0
   56.0220   22.9600   43.9960 C   0  0  0  0  0  0  0  0  0  0  0  0
   55.4490   22.8160   42.7760 F   0  0  0  0  0  0  0  0  0  0  0  0
   55.8600   24.1540   44.7080 C   0  0  0  0  0  0  0  0  0  0  0  0
   55.8150   29.6540   44.1510 C   0  0  0  0  0  0  0  0  0  0  0  0
   56.2980   30.8440   43.5980 C   0  0  0  0  0  0  0  0  0  0  0  0
   58.2220   32.6240   47.1340 C   0  0  0  0  0  0  0  0  0  0  0  0
   59.2019   29.1919   49.4312 H   0  0  0  0  0  0  0  0  0  0  0  0
   58.1841   29.4138   47.9678 H   0  0  0  0  0  0  0  0  0  0  0  0
   59.8911   29.9729   47.9678 H   0  0  0  0  0  0  0  0  0  0  0  0
   60.0601   33.0817   49.9841 H   0  0  0  0  0  0  0  0  0  0  0  0
   60.4992   35.2671   48.8708 H   0  0  0  0  0  0  0  0  0  0  0  0
   59.4864   35.7669   46.6473 H   0  0  0  0  0  0  0  0  0  0  0  0
   56.8230   33.7381   45.1491 H   0  0  0  0  0  0  0  0  0  0  0  0
   57.8090   35.2423   45.0271 H   0  0  0  0  0  0  0  0  0  0  0  0
   59.4984   30.7390   44.7974 H   0  0  0  0  0  0  0  0  0  0  0  0
   58.6377   28.6192   45.7774 H   0  0  0  0  0  0  0  0  0  0  0  0
   55.1480   27.3480   45.2400 H   0  0  0  0  0  0  0  0  0  0  0  0
   57.6156   23.3408   47.5305 H   0  0  0  0  0  0  0  0  0  0  0  0
   57.9138   21.2218   46.2502 H   0  0  0  0  0  0  0  0  0  0  0  0
   56.8978   20.9765   43.9814 H   0  0  0  0  0  0  0  0  0  0  0  0
   55.2676   24.9740   44.2759 H   0  0  0  0  0  0  0  0  0  0  0  0
   54.7791   29.3414   43.9528 H   0  0  0  0  0  0  0  0  0  0  0  0
   55.6359   31.4656   42.9774 H   0  0  0  0  0  0  0  0  0  0  0  0
   57.5762   31.8797   46.6453 H   0  0  0  0  0  0  0  0  0  0  0  0
  1  2  1  0
  2  3  1  0
  3  4  2  0
  4  5  1  0
  5  6  2  0
  6  7  1  0
  7  8  1  0
  8  9  1  0
  9 10  1  0
 10 11  2  0
 10 12  1  0
 12 13  2  0
 13 14  1  0
 14 15  2  0
 15 16  1  0
 16 17  1  0
 17 18  2  0
 17 19  1  0
 19 20  1  0
 20 21  2  0
 21 22  1  0
 22 23  2  0
 23 24  1  0
 24 25  1  0
 24 26  2  0
 15 27  1  0
 27 28  2  0
  7 29  2  0
 29  3  1  0
 28 12  1  0
 26 20  1  0
  1 30  1  0
  1 31  1  0
  1 32  1  0
  4 33  1  0
  5 34  1  0
  6 35  1  0
  8 36  1  0
  8 37  1  0
 13 38  1  0
 14 39  1  0
 16 40  1  0
 21 41  1  0
 22 42  1  0
 23 43  1  0
 26 44  1  0
 27 45  1  0
 28 46  1  0
 29 47  1  0
M  CHG  2   9  -1  19  -1
M  END
>  <UniqueID>  (53) 
45

>  <SMILES>  (53) 
COc1cccc(C[N-]C(=O)c2ccc(NC(=O)[N-]c3cccc(F)c3)cc2)c1

>  <Energy>  (53) 
53.94628039610337

>  <Genealogy>  (53) 
COc1cccc(C[N-]C(=O)c2ccc(NC(=O)[N-]c3cccc(F)c3)cc2)c1 (protonated)
COc1cccc(C[N-]C(=O)c2ccc(NC(=O)[N-]c3cccc(F)c3)cc2)c1 (3D coordinates assigned)
COc1cccc(C[N-]C(=O)c2ccc(NC(=O)[N-]c3cccc(F)c3)cc2)c1 (optimized conformer: 53.94628039610337 kcal/mol)

>  <smiles>  (53) 
COc1cccc(CNC(=O)c2ccc(NC(=O)Nc3cccc(F)c3)cc2)c1

>  <score_type>  (53) 
oracle

>  <origin>  (53) 
adg

>  <m_score__min__energy>  (53) 
-11.09

>  <m_primary>  (53) 
energy

$$$$
53:0
     RDKit          3D

 50 52  0  0  0  0  0  0  0  0999 V2000
   64.1090   34.1950   51.8670 C   0  0  0  0  0  0  0  0  0  0  0  0
   63.5080   34.4980   50.6100 O   0  0  0  0  0  0  0  0  0  0  0  0
   63.1890   33.5800   49.6130 N   0  0  0  0  0  0  0  0  0  0  0  0
   61.8560   33.3470   49.3880 C   0  0  0  0  0  0  0  0  0  0  0  0
   60.8640   34.0430   50.1600 N   0  0  0  0  0  0  0  0  0  0  0  0
   61.4560   32.4350   48.3940 C   0  0  0  0  0  0  0  0  0  0  0  0
   60.0660   32.1610   48.1460 N   0  0  0  0  0  0  0  0  0  0  0  0
   59.4660   30.9740   48.7610 C   0  0  0  0  0  0  0  0  0  0  0  0
   59.2830   33.1140   47.3950 C   0  0  0  0  0  0  0  0  0  0  0  0
   59.0510   34.2480   47.8950 O   0  0  0  0  0  0  0  0  0  0  0  0
   58.7390   32.8060   46.0500 C   0  0  0  0  0  0  0  0  0  0  0  0
   58.8610   33.7480   45.0150 C   0  0  0  0  0  0  0  0  0  0  0  0
   58.3740   33.4600   43.7370 C   0  0  0  0  0  0  0  0  0  0  0  0
   57.7770   32.2260   43.4750 C   0  0  0  0  0  0  0  0  0  0  0  0
   57.6700   31.2660   44.4890 C   0  0  0  0  0  0  0  0  0  0  0  0
   56.9270   29.6970   44.1580 S   0  0  0  0  0  0  0  0  0  0  0  0
   56.6960   29.5670   42.6770 O   0  0  0  0  0  0  0  0  0  0  0  0
   55.5900   29.6350   44.8430 O   0  0  0  0  0  0  0  0  0  0  0  0
   57.9060   28.3540   44.6980 N   0  0  0  0  0  0  0  0  0  0  0  0
   59.3330   28.5960   44.4930 C   0  0  0  0  0  0  0  0  0  0  0  0
   60.0650   27.7400   45.5160 C   0  0  0  0  0  0  0  0  0  0  0  0
   59.0280   27.4050   46.5790 C   0  0  0  0  0  0  0  0  0  0  0  0
   57.7540   28.1020   46.1290 C   0  0  0  0  0  0  0  0  0  0  0  0
   58.1480   31.5610   45.7730 C   0  0  0  0  0  0  0  0  0  0  0  0
   62.4420   31.7750   47.6580 C   0  0  0  0  0  0  0  0  0  0  0  0
   62.1220   30.9370   46.7710 O   0  0  0  0  0  0  0  0  0  0  0  0
   63.7510   32.0290   47.9030 N   0  0  0  0  0  0  0  0  0  0  0  0
   64.1330   32.9140   48.8610 C   0  0  0  0  0  0  0  0  0  0  0  0
   65.3660   33.1060   49.0420 O   0  0  0  0  0  0  0  0  0  0  0  0
   63.4472   34.5287   52.6798 H   0  0  0  0  0  0  0  0  0  0  0  0
   64.2674   33.1093   51.9455 H   0  0  0  0  0  0  0  0  0  0  0  0
   65.0761   34.7133   51.9455 H   0  0  0  0  0  0  0  0  0  0  0  0
   59.8600   34.0520   49.8810 H   0  0  0  0  0  0  0  0  0  0  0  0
   61.1140   34.5710   51.0240 H   0  0  0  0  0  0  0  0  0  0  0  0
   59.5122   31.0654   49.8562 H   0  0  0  0  0  0  0  0  0  0  0  0
   58.4161   30.8879   48.4442 H   0  0  0  0  0  0  0  0  0  0  0  0
   60.0192   30.0776   48.4442 H   0  0  0  0  0  0  0  0  0  0  0  0
   59.3424   34.7174   45.2114 H   0  0  0  0  0  0  0  0  0  0  0  0
   58.4615   34.2081   42.9353 H   0  0  0  0  0  0  0  0  0  0  0  0
   57.3894   32.0068   42.4692 H   0  0  0  0  0  0  0  0  0  0  0  0
   59.6258   28.3043   43.4736 H   0  0  0  0  0  0  0  0  0  0  0  0
   59.5785   29.6612   44.6154 H   0  0  0  0  0  0  0  0  0  0  0  0
   60.4459   26.8209   45.0468 H   0  0  0  0  0  0  0  0  0  0  0  0
   60.9330   28.2644   45.9422 H   0  0  0  0  0  0  0  0  0  0  0  0
   58.8726   26.3176   46.6368 H   0  0  0  0  0  0  0  0  0  0  0  0
   59.3447   27.7345   47.5796 H   0  0  0  0  0  0  0  0  0  0  0  0
   56.8823   27.4564   46.3112 H   0  0  0  0  0  0  0  0  0  0  0  0
   57.5937   29.0380   46.6842 H   0  0  0  0  0  0  0  0  0  0  0  0
   58.0598   30.8105   46.5723 H   0  0  0  0  0  0  0  0  0  0  0  0
   64.4800   31.5290   47.3440 H   0  0  0  0  0  0  0  0  0  0  0  0
  1  2  1  0
  2  3  1  0
  3  4  1  0
  4  5  1  0
  4  6  2  0
  6  7  1  0
  7  8  1  0
  7  9  1  0
  9 10  2  0
  9 11  1  0
 11 12  2  0
 12 13  1  0
 13 14  2  0
 14 15  1  0
 15 16  1  0
 16 17  2  0
 16 18  2  0
 16 19  1  0
 19 20  1  0
 20 21  1  0
 21 22  1  0
 22 23  1  0
 15 24  2  0
  6 25  1  0
 25 26  2  0
 25 27  1  0
 27 28  1  0
 28 29  2  0
 28  3  1  0
 24 11  1  0
 23 19  1  0
  1 30  1  0
  1 31  1  0
  1 32  1  0
  5 33  1  0
  5 34  1  0
  8 35  1  0
  8 36  1  0
  8 37  1  0
 12 38  1  0
 13 39  1  0
 14 40  1  0
 20 41  1  0
 20 42  1  0
 21 43  1  0
 21 44  1  0
 22 45  1  0
 22 46  1  0
 23 47  1  0
 23 48  1  0
 24 49  1  0
 27 50  1  0
M  END
>  <UniqueID>  (54) 
46

>  <SMILES>  (54) 
COn1c(N)c(N(C)C(=O)c2cccc(S(=O)(=O)N3CCCC3)c2)c(=O)[nH]c1=O

>  <Energy>  (54) 
69.19251008468648

>  <Genealogy>  (54) 
COn1c(N)c(N(C)C(=O)c2cccc(S(=O)(=O)N3CCCC3)c2)c(=O)[nH]c1=O (3D coordinates assigned)
COn1c(N)c(N(C)C(=O)c2cccc(S(=O)(=O)N3CCCC3)c2)c(=O)[nH]c1=O (nonaromatic ring conformer: 69.19251008468648 kcal/mol)

>  <smiles>  (54) 
COn1c(N)c(N(C)C(=O)c2cccc(S(=O)(=O)N3CCCC3)c2)c(=O)[nH]c1=O

>  <score_type>  (54) 
oracle

>  <origin>  (54) 
adg

>  <m_score__min__energy>  (54) 
-9.2300000000000004

>  <m_primary>  (54) 
energy

$$$$
54:0
     RDKit          3D

 53 56  0  0  0  0  0  0  0  0999 V2000
   57.4750   32.1780   42.9240 C   0  0  0  0  0  0  0  0  0  0  0  0
   57.3670   30.9070   43.7130 C   0  0  0  0  0  0  0  0  0  0  0  0
   56.1150   30.3480   43.9830 C   0  0  0  0  0  0  0  0  0  0  0  0
   56.0170   29.1460   44.6840 C   0  0  0  0  0  0  0  0  0  0  0  0
   57.1710   28.4780   45.1260 C   0  0  0  0  0  0  0  0  0  0  0  0
   56.9880   26.9830   46.0550 S   0  0  0  0  0  0  0  0  0  0  0  0
   55.3490   26.4420   45.9780 N   0  0  0  0  0  0  0  0  0  0  0  0
   57.3730   27.2290   47.4870 O   0  0  0  0  0  0  0  0  0  0  0  0
   57.8720   25.9070   45.4920 O   0  0  0  0  0  0  0  0  0  0  0  0
   58.4460   29.0280   44.8450 C   0  0  0  0  0  0  0  0  0  0  0  0
   59.6500   28.3560   45.2670 N   0  0  0  0  0  0  0  0  0  0  0  0
   60.8410   29.0590   45.7460 C   0  0  0  0  0  0  0  0  0  0  0  0
   60.7760   29.2400   47.2410 C   0  0  0  0  0  0  0  0  0  0  0  0
   61.1070   30.4800   47.8120 C   0  0  0  0  0  0  0  0  0  0  0  0
   61.0000   30.6830   49.1960 C   0  0  0  0  0  0  0  0  0  0  0  0
   61.3280   32.0020   49.7730 C   0  0  0  0  0  0  0  0  0  0  0  0
   60.4260   32.8830   49.8290 O   0  0  0  0  0  0  0  0  0  0  0  0
   62.6480   32.3080   50.2540 N   0  0  0  0  0  0  0  0  0  0  0  0
   63.8690   31.6340   49.7970 C   0  0  0  0  0  0  0  0  0  0  0  0
   64.9500   32.4790   50.3550 C   0  0  0  0  0  0  0  0  0  0  0  0
   66.3290   32.2980   50.2340 C   0  0  0  0  0  0  0  0  0  0  0  0
   67.1840   33.2250   50.8530 C   0  0  0  0  0  0  0  0  0  0  0  0
   66.6500   34.3090   51.5760 C   0  0  0  0  0  0  0  0  0  0  0  0
   65.2590   34.4720   51.6840 C   0  0  0  0  0  0  0  0  0  0  0  0
   64.4290   33.5380   51.0630 C   0  0  0  0  0  0  0  0  0  0  0  0
   62.9470   33.5110   51.0370 C   0  0  0  0  0  0  0  0  0  0  0  0
   60.5290   29.6420   50.0090 C   0  0  0  0  0  0  0  0  0  0  0  0
   60.1990   28.4060   49.4500 C   0  0  0  0  0  0  0  0  0  0  0  0
   60.3190   28.1980   48.0700 C   0  0  0  0  0  0  0  0  0  0  0  0
   59.9800   26.9620   47.5200 O   0  0  0  0  0  0  0  0  0  0  0  0
   58.5250   30.2330   44.1220 C   0  0  0  0  0  0  0  0  0  0  0  0
   57.5476   33.0323   43.6131 H   0  0  0  0  0  0  0  0  0  0  0  0
   58.3732   32.1409   42.2901 H   0  0  0  0  0  0  0  0  0  0  0  0
   56.5834   32.2930   42.2901 H   0  0  0  0  0  0  0  0  0  0  0  0
   55.2025   30.8583   43.6411 H   0  0  0  0  0  0  0  0  0  0  0  0
   55.0259   28.7168   44.8928 H   0  0  0  0  0  0  0  0  0  0  0  0
   54.7860   27.0860   46.5790 H   0  0  0  0  0  0  0  0  0  0  0  0
   59.6640   27.3130   45.3210 H   0  0  0  0  0  0  0  0  0  0  0  0
   61.7359   28.4727   45.4901 H   0  0  0  0  0  0  0  0  0  0  0  0
   60.8890   30.0484   45.2676 H   0  0  0  0  0  0  0  0  0  0  0  0
   61.4539   31.3007   47.1670 H   0  0  0  0  0  0  0  0  0  0  0  0
   63.9255   30.6090   50.1923 H   0  0  0  0  0  0  0  0  0  0  0  0
   63.9221   31.5317   48.7031 H   0  0  0  0  0  0  0  0  0  0  0  0
   66.7370   31.4485   49.6666 H   0  0  0  0  0  0  0  0  0  0  0  0
   68.2743   33.1037   50.7726 H   0  0  0  0  0  0  0  0  0  0  0  0
   67.3251   35.0313   52.0583 H   0  0  0  0  0  0  0  0  0  0  0  0
   64.8337   35.3169   52.2455 H   0  0  0  0  0  0  0  0  0  0  0  0
   62.5359   33.4319   52.0542 H   0  0  0  0  0  0  0  0  0  0  0  0
   62.5061   34.4241   50.6105 H   0  0  0  0  0  0  0  0  0  0  0  0
   60.4191   29.8000   51.0920 H   0  0  0  0  0  0  0  0  0  0  0  0
   59.8427   27.5908   50.0970 H   0  0  0  0  0  0  0  0  0  0  0  0
   59.0910   26.8130   47.0560 H   0  0  0  0  0  0  0  0  0  0  0  0
   59.5114   30.6521   43.8742 H   0  0  0  0  0  0  0  0  0  0  0  0
  1  2  1  0
  2  3  2  0
  3  4  1  0
  4  5  2  0
  5  6  1  0
  6  7  1  0
  6  8  2  0
  6  9  2  0
  5 10  1  0
 10 11  1  0
 11 12  1  0
 12 13  1  0
 13 14  2  0
 14 15  1  0
 15 16  1  0
 16 17  2  0
 16 18  1  0
 18 19  1  0
 19 20  1  0
 20 21  2  0
 21 22  1  0
 22 23  2  0
 23 24  1  0
 24 25  2  0
 25 26  1  0
 15 27  2  0
 27 28  1  0
 28 29  2  0
 29 30  1  0
 10 31  2  0
 31  2  1  0
 29 13  1  0
 26 18  1  0
 25 20  1  0
  1 32  1  0
  1 33  1  0
  1 34  1  0
  3 35  1  0
  4 36  1  0
  7 37  1  0
 11 38  1  0
 12 39  1  0
 12 40  1  0
 14 41  1  0
 19 42  1  0
 19 43  1  0
 21 44  1  0
 22 45  1  0
 23 46  1  0
 24 47  1  0
 26 48  1  0
 26 49  1  0
 27 50  1  0
 28 51  1  0
 30 52  1  0
 31 53  1  0
M  CHG  1   7  -1
M  END
>  <UniqueID>  (55) 
47

>  <SMILES>  (55) 
Cc1ccc(S([NH-])(=O)=O)c(NCc2cc(C(=O)N3Cc4ccccc4C3)ccc2O)c1

>  <Energy>  (55) 
71.36764732531111

>  <Genealogy>  (55) 
Cc1ccc(S([NH-])(=O)=O)c(NCc2cc(C(=O)N3Cc4ccccc4C3)ccc2O)c1 (protonated)
Cc1ccc(S([NH-])(=O)=O)c(NCc2cc(C(=O)N3Cc4ccccc4C3)ccc2O)c1 (3D coordinates assigned)
Cc1ccc(S([NH-])(=O)=O)c(NCc2cc(C(=O)N3Cc4ccccc4C3)ccc2O)c1 (nonaromatic ring conformer: 71.36764732531111 kcal/mol)

>  <smiles>  (55) 
Cc1ccc(S(N)(=O)=O)c(NCc2cc(C(=O)N3Cc4ccccc4C3)ccc2O)c1

>  <score_type>  (55) 
oracle

>  <origin>  (55) 
adg

>  <m_score__min__energy>  (55) 
-13.550000000000001

>  <m_primary>  (55) 
energy

$$$$
55:0
     RDKit          3D

 34 36  0  0  0  0  0  0  0  0999 V2000
   59.6530   35.4210   45.9230 C   0  0  0  0  0  0  0  0  0  0  0  0
   59.0510   34.1060   45.5430 C   0  0  0  0  0  0  0  0  0  0  0  0
   58.6470   33.8100   44.2840 N   0  0  0  0  0  0  0  0  0  0  0  0
   58.2610   32.5160   44.3670 C   0  0  0  0  0  0  0  0  0  0  0  0
   57.7700   31.7400   43.3120 C   0  0  0  0  0  0  0  0  0  0  0  0
   57.5700   32.3220   41.9430 C   0  0  0  0  0  0  0  0  0  0  0  0
   57.4340   30.4010   43.5940 C   0  0  0  0  0  0  0  0  0  0  0  0
   57.6210   29.8760   44.8860 C   0  0  0  0  0  0  0  0  0  0  0  0
   57.1860   28.0540   45.2570 Br  0  0  0  0  0  0  0  0  0  0  0  0
   58.1300   30.6980   45.9010 C   0  0  0  0  0  0  0  0  0  0  0  0
   58.4150   31.9920   45.5990 N   0  0  0  0  0  0  0  0  0  0  0  0
   58.9040   32.9900   46.3580 C   0  0  0  0  0  0  0  0  0  0  0  0
   59.2520   32.8840   47.7530 N   0  0  0  0  0  0  0  0  0  0  0  0
   60.6810   32.9910   47.9430 C   0  0  0  0  0  0  0  0  0  0  0  0
   61.5620   32.2740   47.1100 C   0  0  0  0  0  0  0  0  0  0  0  0
   62.9450   32.3830   47.2760 C   0  0  0  0  0  0  0  0  0  0  0  0
   63.4690   33.2200   48.2640 C   0  0  0  0  0  0  0  0  0  0  0  0
   64.8110   33.3250   48.4220 F   0  0  0  0  0  0  0  0  0  0  0  0
   62.6100   33.9550   49.0820 C   0  0  0  0  0  0  0  0  0  0  0  0
   61.2240   33.8510   48.9230 C   0  0  0  0  0  0  0  0  0  0  0  0
   60.4140   34.5900   49.7210 F   0  0  0  0  0  0  0  0  0  0  0  0
   59.6909   35.5038   47.0192 H   0  0  0  0  0  0  0  0  0  0  0  0
   60.6721   35.4894   45.5147 H   0  0  0  0  0  0  0  0  0  0  0  0
   59.0388   36.2371   45.5147 H   0  0  0  0  0  0  0  0  0  0  0  0
   57.2137   33.3587   42.0338 H   0  0  0  0  0  0  0  0  0  0  0  0
   58.5242   32.3088   41.3960 H   0  0  0  0  0  0  0  0  0  0  0  0
   56.8255   31.7250   41.3960 H   0  0  0  0  0  0  0  0  0  0  0  0
   57.0228   29.7618   42.7988 H   0  0  0  0  0  0  0  0  0  0  0  0
   58.2945   30.3059   46.9155 H   0  0  0  0  0  0  0  0  0  0  0  0
   58.7450   33.6380   48.2710 H   0  0  0  0  0  0  0  0  0  0  0  0
   58.9320   31.9680   48.1420 H   0  0  0  0  0  0  0  0  0  0  0  0
   61.1575   31.6223   46.3216 H   0  0  0  0  0  0  0  0  0  0  0  0
   63.6226   31.8085   46.6273 H   0  0  0  0  0  0  0  0  0  0  0  0
   63.0244   34.6189   49.8550 H   0  0  0  0  0  0  0  0  0  0  0  0
  1  2  1  0
  2  3  1  0
  3  4  2  0
  4  5  1  0
  5  6  1  0
  5  7  2  0
  7  8  1  0
  8  9  1  0
  8 10  2  0
 10 11  1  0
 11 12  1  0
 12 13  1  0
 13 14  1  0
 14 15  2  0
 15 16  1  0
 16 17  2  0
 17 18  1  0
 17 19  1  0
 19 20  2  0
 20 21  1  0
 12  2  2  0
 20 14  1  0
 11  4  1  0
  1 22  1  0
  1 23  1  0
  1 24  1  0
  6 25  1  0
  6 26  1  0
  6 27  1  0
  7 28  1  0
 10 29  1  0
 13 30  1  0
 13 31  1  0
 15 32  1  0
 16 33  1  0
 19 34  1  0
M  CHG  1  13   1
M  END
>  <UniqueID>  (56) 
48

>  <SMILES>  (56) 
Cc1nc2c(C)cc(Br)cn2c1[NH2+]c1ccc(F)cc1F

>  <Energy>  (56) 
73.15977827972458

>  <Genealogy>  (56) 
Cc1nc2c(C)cc(Br)cn2c1[NH2+]c1ccc(F)cc1F (protonated)
Cc1nc2c(C)cc(Br)cn2c1[NH2+]c1ccc(F)cc1F (3D coordinates assigned)
Cc1nc2c(C)cc(Br)cn2c1[NH2+]c1ccc(F)cc1F (optimized conformer: 73.15977827972458 kcal/mol)

>  <smiles>  (56) 
Cc1nc2c(C)cc(Br)cn2c1Nc1ccc(F)cc1F

>  <score_type>  (56) 
oracle

>  <origin>  (56) 
adg

>  <m_score__min__energy>  (56) 
-5.6699999999999999

>  <m_primary>  (56) 
energy

$$$$
56:0
     RDKit          3D

 66 68  0  0  0  0  0  0  0  0999 V2000
   55.9460   28.3530   53.9610 C   0  0  0  0  0  0  0  0  0  0  0  0
   56.6550   29.5830   54.0610 O   0  0  0  0  0  0  0  0  0  0  0  0
   57.2740   30.2300   52.9810 C   0  0  0  0  0  0  0  0  0  0  0  0
   58.4890   29.7210   52.5070 C   0  0  0  0  0  0  0  0  0  0  0  0
   59.1480   30.3340   51.4360 C   0  0  0  0  0  0  0  0  0  0  0  0
   58.5840   31.4590   50.8060 C   0  0  0  0  0  0  0  0  0  0  0  0
   59.2250   32.1180   49.6990 N   0  0  0  0  0  0  0  0  0  0  0  0
   60.2920   33.0750   49.8240 C   0  0  0  0  0  0  0  0  0  0  0  0
   60.4070   33.7820   50.8570 O   0  0  0  0  0  0  0  0  0  0  0  0
   61.2800   33.2280   48.7340 C   0  0  0  0  0  0  0  0  0  0  0  0
   62.5990   32.7860   48.9300 C   0  0  0  0  0  0  0  0  0  0  0  0
   63.5450   32.9170   47.9120 C   0  0  0  0  0  0  0  0  0  0  0  0
   63.1830   33.4840   46.6880 C   0  0  0  0  0  0  0  0  0  0  0  0
   61.8680   33.9000   46.4710 C   0  0  0  0  0  0  0  0  0  0  0  0
   60.9020   33.7570   47.4820 C   0  0  0  0  0  0  0  0  0  0  0  0
   59.5270   34.0940   47.2430 N   0  0  0  0  0  0  0  0  0  0  0  0
   58.4390   33.1770   47.0750 C   0  0  0  0  0  0  0  0  0  0  0  0
   57.5660   33.1190   47.9770 O   0  0  0  0  0  0  0  0  0  0  0  0
   58.3150   32.2920   45.8840 C   0  0  0  0  0  0  0  0  0  0  0  0
   57.5410   32.7350   44.7980 C   0  0  0  0  0  0  0  0  0  0  0  0
   57.3950   31.9440   43.6590 C   0  0  0  0  0  0  0  0  0  0  0  0
   58.0260   30.7050   43.5810 C   0  0  0  0  0  0  0  0  0  0  0  0
   58.8070   30.2340   44.6460 C   0  0  0  0  0  0  0  0  0  0  0  0
   59.5090   28.9090   44.5000 C   0  0  0  0  0  0  0  0  0  0  0  0
   58.9080   31.0060   45.8290 C   0  0  0  0  0  0  0  0  0  0  0  0
   59.6400   30.5100   46.9580 N   0  0  0  0  0  0  0  0  0  0  0  0
   59.2620   29.3910   47.7710 C   0  0  0  0  0  0  0  0  0  0  0  0
   58.4800   29.5850   48.7440 O   0  0  0  0  0  0  0  0  0  0  0  0
   59.7800   28.0050   47.5090 C   0  0  0  0  0  0  0  0  0  0  0  0
   58.7520   27.0120   47.8570 N   0  0  0  0  0  0  0  0  0  0  0  0
   58.1330   26.3020   46.7090 C   0  0  0  0  0  0  0  0  0  0  0  0
   57.1280   27.2030   45.9570 C   0  0  0  0  0  0  0  0  0  0  0  0
   59.2100   25.7840   45.7270 C   0  0  0  0  0  0  0  0  0  0  0  0
   57.3760   25.0790   47.2670 C   0  0  0  0  0  0  0  0  0  0  0  0
   57.3740   31.9780   51.2950 C   0  0  0  0  0  0  0  0  0  0  0  0
   56.7210   31.3710   52.3700 C   0  0  0  0  0  0  0  0  0  0  0  0
   55.7270   27.9730   54.9698 H   0  0  0  0  0  0  0  0  0  0  0  0
   55.0034   28.5162   53.4180 H   0  0  0  0  0  0  0  0  0  0  0  0
   56.5597   27.6191   53.4180 H   0  0  0  0  0  0  0  0  0  0  0  0
   58.9293   28.8313   52.9808 H   0  0  0  0  0  0  0  0  0  0  0  0
   60.1111   29.9350   51.0848 H   0  0  0  0  0  0  0  0  0  0  0  0
   59.0740   31.7020   48.7520 H   0  0  0  0  0  0  0  0  0  0  0  0
   62.8878   32.3344   49.8906 H   0  0  0  0  0  0  0  0  0  0  0  0
   64.5772   32.5731   48.0740 H   0  0  0  0  0  0  0  0  0  0  0  0
   63.9349   33.6030   45.8939 H   0  0  0  0  0  0  0  0  0  0  0  0
   61.5865   34.3420   45.5038 H   0  0  0  0  0  0  0  0  0  0  0  0
   57.0453   33.7157   44.8469 H   0  0  0  0  0  0  0  0  0  0  0  0
   56.7796   32.2997   42.8196 H   0  0  0  0  0  0  0  0  0  0  0  0
   57.9107   30.0905   42.6760 H   0  0  0  0  0  0  0  0  0  0  0  0
   59.7269   28.4977   45.4967 H   0  0  0  0  0  0  0  0  0  0  0  0
   58.8627   28.2104   43.9484 H   0  0  0  0  0  0  0  0  0  0  0  0
   60.4500   29.0514   43.9484 H   0  0  0  0  0  0  0  0  0  0  0  0
   60.0362   27.9067   46.4438 H   0  0  0  0  0  0  0  0  0  0  0  0
   60.6749   27.8306   48.1244 H   0  0  0  0  0  0  0  0  0  0  0  0
   58.0010   27.5080   48.3930 H   0  0  0  0  0  0  0  0  0  0  0  0
   56.5137   27.7537   46.6845 H   0  0  0  0  0  0  0  0  0  0  0  0
   57.6770   27.9171   45.3256 H   0  0  0  0  0  0  0  0  0  0  0  0
   56.4779   26.5796   45.3256 H   0  0  0  0  0  0  0  0  0  0  0  0
   60.0586   25.3758   46.2955 H   0  0  0  0  0  0  0  0  0  0  0  0
   58.7793   24.9945   45.0936 H   0  0  0  0  0  0  0  0  0  0  0  0
   59.5579   26.6133   45.0936 H   0  0  0  0  0  0  0  0  0  0  0  0
   57.3935   25.1073   48.3665 H   0  0  0  0  0  0  0  0  0  0  0  0
   56.3337   25.1016   46.9162 H   0  0  0  0  0  0  0  0  0  0  0  0
   57.8611   24.1562   46.9162 H   0  0  0  0  0  0  0  0  0  0  0  0
   56.9362   32.8717   50.8265 H   0  0  0  0  0  0  0  0  0  0  0  0
   55.7719   31.7858   52.7402 H   0  0  0  0  0  0  0  0  0  0  0  0
  1  2  1  0
  2  3  1  0
  3  4  2  0
  4  5  1  0
  5  6  2  0
  6  7  1  0
  7  8  1  0
  8  9  2  0
  8 10  1  0
 10 11  2  0
 11 12  1  0
 12 13  2  0
 13 14  1  0
 14 15  2  0
 15 16  1  0
 16 17  1  0
 17 18  2  0
 17 19  1  0
 19 20  2  0
 20 21  1  0
 21 22  2  0
 22 23  1  0
 23 24  1  0
 23 25  2  0
 25 26  1  0
 26 27  1  0
 27 28  2  0
 27 29  1  0
 29 30  1  0
 30 31  1  0
 31 32  1  0
 31 33  1  0
 31 34  1  0
  6 35  1  0
 35 36  2  0
 36  3  1  0
 15 10  1  0
 25 19  1  0
  1 37  1  0
  1 38  1  0
  1 39  1  0
  4 40  1  0
  5 41  1  0
  7 42  1  0
 11 43  1  0
 12 44  1  0
 13 45  1  0
 14 46  1  0
 20 47  1  0
 21 48  1  0
 22 49  1  0
 24 50  1  0
 24 51  1  0
 24 52  1  0
 29 53  1  0
 29 54  1  0
 30 55  1  0
 32 56  1  0
 32 57  1  0
 32 58  1  0
 33 59  1  0
 33 60  1  0
 33 61  1  0
 34 62  1  0
 34 63  1  0
 34 64  1  0
 35 65  1  0
 36 66  1  0
M  CHG  2  16  -1  26  -1
M  END
>  <UniqueID>  (57) 
49

>  <SMILES>  (57) 
COc1ccc(NC(=O)c2ccccc2[N-]C(=O)c2cccc(C)c2[N-]C(=O)CNC(C)(C)C)cc1

>  <Energy>  (57) 
90.38568888234023

>  <Genealogy>  (57) 
COc1ccc(NC(=O)c2ccccc2[N-]C(=O)c2cccc(C)c2[N-]C(=O)CNC(C)(C)C)cc1 (protonated)
COc1ccc(NC(=O)c2ccccc2[N-]C(=O)c2cccc(C)c2[N-]C(=O)CNC(C)(C)C)cc1 (3D coordinates assigned)
COc1ccc(NC(=O)c2ccccc2[N-]C(=O)c2cccc(C)c2[N-]C(=O)CNC(C)(C)C)cc1 (optimized conformer: 90.38568888234023 kcal/mol)

>  <smiles>  (57) 
COc1ccc(NC(=O)c2ccccc2NC(=O)c2cccc(C)c2NC(=O)CNC(C)(C)C)cc1

>  <score_type>  (57) 
oracle

>  <origin>  (57) 
adg

>  <m_score__min__energy>  (57) 
-10.75

>  <m_primary>  (57) 
energy

$$$$
57:0
     RDKit          3D

 53 56  0  0  0  0  0  0  0  0999 V2000
   60.5140   27.9450   50.1390 C   0  0  0  0  0  0  0  0  0  0  0  0
   60.3080   28.1610   48.6650 C   0  0  0  0  0  0  0  0  0  0  0  0
   59.8360   27.1100   47.8630 C   0  0  0  0  0  0  0  0  0  0  0  0
   59.6700   27.2840   46.4830 C   0  0  0  0  0  0  0  0  0  0  0  0
   59.1410   26.1590   45.6370 C   0  0  0  0  0  0  0  0  0  0  0  0
   57.7250   25.8550   46.0150 C   0  0  0  0  0  0  0  0  0  0  0  0
   57.3050   24.9670   46.9810 C   0  0  0  0  0  0  0  0  0  0  0  0
   55.9570   24.9100   46.9810 N   0  0  0  0  0  0  0  0  0  0  0  0
   55.6040   25.7640   45.9980 C   0  0  0  0  0  0  0  0  0  0  0  0
   54.4060   25.9880   45.6820 O   0  0  0  0  0  0  0  0  0  0  0  0
   56.6470   26.3500   45.3840 N   0  0  0  0  0  0  0  0  0  0  0  0
   59.9550   28.5290   45.9090 C   0  0  0  0  0  0  0  0  0  0  0  0
   60.4290   29.5840   46.6930 C   0  0  0  0  0  0  0  0  0  0  0  0
   60.7060   30.7600   46.0790 F   0  0  0  0  0  0  0  0  0  0  0  0
   60.6170   29.4080   48.0840 C   0  0  0  0  0  0  0  0  0  0  0  0
   61.1000   30.4230   48.9280 O   0  0  0  0  0  0  0  0  0  0  0  0
   60.3880   31.5810   49.3420 C   0  0  0  0  0  0  0  0  0  0  0  0
   60.3580   32.5640   48.2010 C   0  0  0  0  0  0  0  0  0  0  0  0
   59.1780   32.6890   47.4460 C   0  0  0  0  0  0  0  0  0  0  0  0
   59.1240   33.5500   46.3340 C   0  0  0  0  0  0  0  0  0  0  0  0
   57.9730   33.6890   45.5450 O   0  0  0  0  0  0  0  0  0  0  0  0
   57.8950   33.3400   44.1670 C   0  0  0  0  0  0  0  0  0  0  0  0
   57.4750   31.9050   44.0420 C   0  0  0  0  0  0  0  0  0  0  0  0
   57.0510   31.4020   42.8010 C   0  0  0  0  0  0  0  0  0  0  0  0
   56.6380   30.0720   42.6840 C   0  0  0  0  0  0  0  0  0  0  0  0
   56.6370   29.2370   43.8040 C   0  0  0  0  0  0  0  0  0  0  0  0
   57.0430   29.7330   45.0470 C   0  0  0  0  0  0  0  0  0  0  0  0
   57.4560   31.0650   45.1680 C   0  0  0  0  0  0  0  0  0  0  0  0
   60.2580   34.2900   45.9880 C   0  0  0  0  0  0  0  0  0  0  0  0
   61.4400   34.1590   46.7170 C   0  0  0  0  0  0  0  0  0  0  0  0
   61.5040   33.2900   47.8130 C   0  0  0  0  0  0  0  0  0  0  0  0
   63.0420   33.1310   48.6550 Cl  0  0  0  0  0  0  0  0  0  0  0  0
   59.8627   28.6279   50.7042 H   0  0  0  0  0  0  0  0  0  0  0  0
   60.2650   26.9047   50.3955 H   0  0  0  0  0  0  0  0  0  0  0  0
   61.5649   28.1444   50.3955 H   0  0  0  0  0  0  0  0  0  0  0  0
   59.5941   26.1404   48.3227 H   0  0  0  0  0  0  0  0  0  0  0  0
   59.1803   26.4509   44.5772 H   0  0  0  0  0  0  0  0  0  0  0  0
   59.7583   25.2634   45.8009 H   0  0  0  0  0  0  0  0  0  0  0  0
   57.9656   24.3939   47.6482 H   0  0  0  0  0  0  0  0  0  0  0  0
   56.6240   27.0290   44.5910 H   0  0  0  0  0  0  0  0  0  0  0  0
   59.8042   28.6780   44.8296 H   0  0  0  0  0  0  0  0  0  0  0  0
   59.3601   31.3040   49.6189 H   0  0  0  0  0  0  0  0  0  0  0  0
   60.8836   32.0337   50.2134 H   0  0  0  0  0  0  0  0  0  0  0  0
   58.2877   32.1076   47.7276 H   0  0  0  0  0  0  0  0  0  0  0  0
   57.1571   33.9838   43.6661 H   0  0  0  0  0  0  0  0  0  0  0  0
   58.8792   33.4783   43.6955 H   0  0  0  0  0  0  0  0  0  0  0  0
   57.0440   32.0575   41.9177 H   0  0  0  0  0  0  0  0  0  0  0  0
   56.3131   29.6819   41.7082 H   0  0  0  0  0  0  0  0  0  0  0  0
   56.3168   28.1890   43.7082 H   0  0  0  0  0  0  0  0  0  0  0  0
   57.0378   29.0764   45.9295 H   0  0  0  0  0  0  0  0  0  0  0  0
   57.7668   31.4555   46.1483 H   0  0  0  0  0  0  0  0  0  0  0  0
   60.2181   34.9816   45.1335 H   0  0  0  0  0  0  0  0  0  0  0  0
   62.3273   34.7420   46.4291 H   0  0  0  0  0  0  0  0  0  0  0  0
  1  2  1  0
  2  3  2  0
  3  4  1  0
  4  5  1  0
  5  6  1  0
  6  7  2  0
  7  8  1  0
  8  9  1  0
  9 10  2  0
  9 11  1  0
  4 12  2  0
 12 13  1  0
 13 14  1  0
 13 15  2  0
 15 16  1  0
 16 17  1  0
 17 18  1  0
 18 19  2  0
 19 20  1  0
 20 21  1  0
 21 22  1  0
 22 23  1  0
 23 24  2  0
 24 25  1  0
 25 26  2  0
 26 27  1  0
 27 28  2  0
 20 29  2  0
 29 30  1  0
 30 31  2  0
 31 32  1  0
 15  2  1  0
 31 18  1  0
 11  6  1  0
 28 23  1  0
  1 33  1  0
  1 34  1  0
  1 35  1  0
  3 36  1  0
  5 37  1  0
  5 38  1  0
  7 39  1  0
 11 40  1  0
 12 41  1  0
 17 42  1  0
 17 43  1  0
 19 44  1  0
 22 45  1  0
 22 46  1  0
 24 47  1  0
 25 48  1  0
 26 49  1  0
 27 50  1  0
 28 51  1  0
 29 52  1  0
 30 53  1  0
M  CHG  1   8  -1
M  END
>  <UniqueID>  (58) 
50

>  <SMILES>  (58) 
Cc1cc(Cc2c[n-]c(=O)[nH]2)cc(F)c1OCc1cc(OCc2ccccc2)ccc1Cl

>  <Energy>  (58) 
86.4923376006943

>  <Genealogy>  (58) 
Cc1cc(Cc2c[n-]c(=O)[nH]2)cc(F)c1OCc1cc(OCc2ccccc2)ccc1Cl (protonated)
Cc1cc(Cc2c[n-]c(=O)[nH]2)cc(F)c1OCc1cc(OCc2ccccc2)ccc1Cl (3D coordinates assigned)
Cc1cc(Cc2c[n-]c(=O)[nH]2)cc(F)c1OCc1cc(OCc2ccccc2)ccc1Cl (optimized conformer: 86.4923376006943 kcal/mol)

>  <smiles>  (58) 
Cc1cc(Cc2c[nH]c(=O)[nH]2)cc(F)c1OCc1cc(OCc2ccccc2)ccc1Cl

>  <score_type>  (58) 
oracle

>  <origin>  (58) 
adg

>  <m_score__min__energy>  (58) 
-11.15

>  <m_primary>  (58) 
energy

$$$$
58:0
     RDKit          3D

 45 48  0  0  0  0  0  0  0  0999 V2000
   59.8980   30.7130   49.0830 O   0  0  0  0  0  0  0  0  0  0  0  0
   59.2970   31.7780   49.3920 C   0  0  0  0  0  0  0  0  0  0  0  0
   59.3480   32.9130   48.5160 N   0  0  0  0  0  0  0  0  0  0  0  0
   58.7900   33.0090   47.1960 C   0  0  0  0  0  0  0  0  0  0  0  0
   58.8040   34.2100   46.4650 C   0  0  0  0  0  0  0  0  0  0  0  0
   58.2690   34.2510   45.1760 C   0  0  0  0  0  0  0  0  0  0  0  0
   57.7390   33.0970   44.5960 C   0  0  0  0  0  0  0  0  0  0  0  0
   57.7550   31.8800   45.2970 C   0  0  0  0  0  0  0  0  0  0  0  0
   57.2100   30.6520   44.6690 C   0  0  0  0  0  0  0  0  0  0  0  0
   55.9620   30.4990   44.5930 O   0  0  0  0  0  0  0  0  0  0  0  0
   58.0590   29.6030   44.1880 N   0  0  0  0  0  0  0  0  0  0  0  0
   58.7200   28.6110   44.9930 C   0  0  0  0  0  0  0  0  0  0  0  0
   60.1140   28.6590   45.1830 C   0  0  0  0  0  0  0  0  0  0  0  0
   60.7590   27.6960   45.9590 C   0  0  0  0  0  0  0  0  0  0  0  0
   60.0310   26.6610   46.5450 C   0  0  0  0  0  0  0  0  0  0  0  0
   58.6450   26.5770   46.3520 C   0  0  0  0  0  0  0  0  0  0  0  0
   57.9140   25.5310   46.9360 C   0  0  0  0  0  0  0  0  0  0  0  0
   56.5330   25.4480   46.7460 C   0  0  0  0  0  0  0  0  0  0  0  0
   55.8680   26.4030   45.9750 C   0  0  0  0  0  0  0  0  0  0  0  0
   54.4890   26.3010   45.7990 O   0  0  0  0  0  0  0  0  0  0  0  0
   56.5860   27.4530   45.3870 C   0  0  0  0  0  0  0  0  0  0  0  0
   57.9790   27.5530   45.5660 C   0  0  0  0  0  0  0  0  0  0  0  0
   58.2760   31.8500   46.6030 C   0  0  0  0  0  0  0  0  0  0  0  0
   58.5840   31.8750   50.6870 C   0  0  0  0  0  0  0  0  0  0  0  0
   58.8200   32.9600   51.5530 C   0  0  0  0  0  0  0  0  0  0  0  0
   58.1480   33.0480   52.7760 C   0  0  0  0  0  0  0  0  0  0  0  0
   57.2350   32.0590   53.1490 C   0  0  0  0  0  0  0  0  0  0  0  0
   56.9920   30.9770   52.2980 C   0  0  0  0  0  0  0  0  0  0  0  0
   55.8460   29.7340   52.7680 Cl  0  0  0  0  0  0  0  0  0  0  0  0
   57.6620   30.8830   51.0730 C   0  0  0  0  0  0  0  0  0  0  0  0
   59.2370   35.1184   46.9092 H   0  0  0  0  0  0  0  0  0  0  0  0
   58.2651   35.1971   44.6148 H   0  0  0  0  0  0  0  0  0  0  0  0
   57.3069   33.1411   43.5854 H   0  0  0  0  0  0  0  0  0  0  0  0
   60.7002   29.4636   44.7150 H   0  0  0  0  0  0  0  0  0  0  0  0
   61.8472   27.7533   46.1094 H   0  0  0  0  0  0  0  0  0  0  0  0
   60.5457   25.9084   47.1604 H   0  0  0  0  0  0  0  0  0  0  0  0
   58.4303   24.7744   47.5451 H   0  0  0  0  0  0  0  0  0  0  0  0
   55.9660   24.6255   47.2065 H   0  0  0  0  0  0  0  0  0  0  0  0
   53.9250   25.6860   46.3720 H   0  0  0  0  0  0  0  0  0  0  0  0
   56.0577   28.2042   44.7815 H   0  0  0  0  0  0  0  0  0  0  0  0
   58.2796   30.9045   47.1651 H   0  0  0  0  0  0  0  0  0  0  0  0
   59.5372   33.7429   51.2657 H   0  0  0  0  0  0  0  0  0  0  0  0
   58.3390   33.8988   53.4465 H   0  0  0  0  0  0  0  0  0  0  0  0
   56.7076   32.1315   54.1116 H   0  0  0  0  0  0  0  0  0  0  0  0
   57.4673   30.0290   50.4076 H   0  0  0  0  0  0  0  0  0  0  0  0
  1  2  2  0
  2  3  1  0
  3  4  1  0
  4  5  2  0
  5  6  1  0
  6  7  2  0
  7  8  1  0
  8  9  1  0
  9 10  2  0
  9 11  1  0
 11 12  1  0
 12 13  2  0
 13 14  1  0
 14 15  2  0
 15 16  1  0
 16 17  2  0
 17 18  1  0
 18 19  2  0
 19 20  1  0
 19 21  1  0
 21 22  2  0
  8 23  2  0
  2 24  1  0
 24 25  2  0
 25 26  1  0
 26 27  2  0
 27 28  1  0
 28 29  1  0
 28 30  2  0
 23  4  1  0
 30 24  1  0
 22 12  1  0
 22 16  1  0
  5 31  1  0
  6 32  1  0
  7 33  1  0
 13 34  1  0
 14 35  1  0
 15 36  1  0
 17 37  1  0
 18 38  1  0
 20 39  1  0
 21 40  1  0
 23 41  1  0
 25 42  1  0
 26 43  1  0
 27 44  1  0
 30 45  1  0
M  CHG  2   3  -1  11  -1
M  END
>  <UniqueID>  (59) 
51

>  <SMILES>  (59) 
O=C([N-]c1cccc(C(=O)[N-]c2cccc3ccc(O)cc23)c1)c1cccc(Cl)c1

>  <Energy>  (59) 
64.79962557102256

>  <Genealogy>  (59) 
O=C([N-]c1cccc(C(=O)[N-]c2cccc3ccc(O)cc23)c1)c1cccc(Cl)c1 (protonated)
O=C([N-]c1cccc(C(=O)[N-]c2cccc3ccc(O)cc23)c1)c1cccc(Cl)c1 (3D coordinates assigned)
O=C([N-]c1cccc(C(=O)[N-]c2cccc3ccc(O)cc23)c1)c1cccc(Cl)c1 (optimized conformer: 64.79962557102256 kcal/mol)

>  <smiles>  (59) 
O=C(Nc1cccc(C(=O)Nc2cccc3ccc(O)cc23)c1)c1cccc(Cl)c1

>  <score_type>  (59) 
oracle

>  <origin>  (59) 
adg

>  <m_score__min__energy>  (59) 
-12.800000000000001

>  <m_primary>  (59) 
energy

$$$$
59:0
     RDKit          3D

 46 48  0  0  0  0  0  0  0  0999 V2000
   60.0240   33.9580   49.5600 C   0  0  0  0  0  0  0  0  0  0  0  0
   61.1900   33.7930   48.6190 C   0  0  0  0  0  0  0  0  0  0  0  0
   62.4220   33.3640   49.1470 C   0  0  0  0  0  0  0  0  0  0  0  0
   63.5210   33.1550   48.3140 C   0  0  0  0  0  0  0  0  0  0  0  0
   63.4070   33.3720   46.9420 C   0  0  0  0  0  0  0  0  0  0  0  0
   62.2000   33.8140   46.4000 C   0  0  0  0  0  0  0  0  0  0  0  0
   61.0820   34.0470   47.2240 C   0  0  0  0  0  0  0  0  0  0  0  0
   59.8360   34.5500   46.5930 C   0  0  0  0  0  0  0  0  0  0  0  0
   59.7820   35.7440   46.1900 O   0  0  0  0  0  0  0  0  0  0  0  0
   58.6690   33.7190   46.5320 N   0  0  0  0  0  0  0  0  0  0  0  0
   58.2530   32.9090   45.4230 C   0  0  0  0  0  0  0  0  0  0  0  0
   58.3990   33.3370   44.0930 C   0  0  0  0  0  0  0  0  0  0  0  0
   58.0160   32.5020   43.0420 C   0  0  0  0  0  0  0  0  0  0  0  0
   57.4940   31.2330   43.3050 C   0  0  0  0  0  0  0  0  0  0  0  0
   57.3530   30.7810   44.6290 C   0  0  0  0  0  0  0  0  0  0  0  0
   56.8180   29.4250   44.9010 C   0  0  0  0  0  0  0  0  0  0  0  0
   55.5700   29.2480   44.9410 O   0  0  0  0  0  0  0  0  0  0  0  0
   57.7030   28.3230   45.1680 N   0  0  0  0  0  0  0  0  0  0  0  0
   57.3230   26.9430   45.0340 C   0  0  0  0  0  0  0  0  0  0  0  0
   56.4680   26.3230   45.9640 C   0  0  0  0  0  0  0  0  0  0  0  0
   56.0940   24.9860   45.7970 C   0  0  0  0  0  0  0  0  0  0  0  0
   56.5620   24.2540   44.6990 C   0  0  0  0  0  0  0  0  0  0  0  0
   56.0760   22.5740   44.4850 S   0  0  0  0  0  0  0  0  0  0  0  0
   54.5420   22.3180   45.2370 N   0  0  0  0  0  0  0  0  0  0  0  0
   55.9740   22.2560   43.0210 O   0  0  0  0  0  0  0  0  0  0  0  0
   57.0990   21.6660   45.1070 O   0  0  0  0  0  0  0  0  0  0  0  0
   57.3900   24.8750   43.7560 C   0  0  0  0  0  0  0  0  0  0  0  0
   57.7640   26.2120   43.9200 C   0  0  0  0  0  0  0  0  0  0  0  0
   57.7540   31.6260   45.6810 C   0  0  0  0  0  0  0  0  0  0  0  0
   60.3814   33.9074   50.5991 H   0  0  0  0  0  0  0  0  0  0  0  0
   59.5457   34.9328   49.3838 H   0  0  0  0  0  0  0  0  0  0  0  0
   59.2940   33.1542   49.3838 H   0  0  0  0  0  0  0  0  0  0  0  0
   62.5193   33.1915   50.2290 H   0  0  0  0  0  0  0  0  0  0  0  0
   64.4779   32.8189   48.7400 H   0  0  0  0  0  0  0  0  0  0  0  0
   64.2710   33.1943   46.2848 H   0  0  0  0  0  0  0  0  0  0  0  0
   62.1206   33.9826   45.3159 H   0  0  0  0  0  0  0  0  0  0  0  0
   58.8160   34.3322   43.8793 H   0  0  0  0  0  0  0  0  0  0  0  0
   58.1256   32.8445   42.0024 H   0  0  0  0  0  0  0  0  0  0  0  0
   57.1913   30.5831   42.4707 H   0  0  0  0  0  0  0  0  0  0  0  0
   58.6350   28.5350   45.5900 H   0  0  0  0  0  0  0  0  0  0  0  0
   56.0921   26.8929   46.8265 H   0  0  0  0  0  0  0  0  0  0  0  0
   55.4294   24.5073   46.5313 H   0  0  0  0  0  0  0  0  0  0  0  0
   53.8440   22.8880   44.7070 H   0  0  0  0  0  0  0  0  0  0  0  0
   57.7474   24.3089   42.8832 H   0  0  0  0  0  0  0  0  0  0  0  0
   58.4086   26.6946   43.1705 H   0  0  0  0  0  0  0  0  0  0  0  0
   57.6744   31.2738   46.7200 H   0  0  0  0  0  0  0  0  0  0  0  0
  1  2  1  0
  2  3  2  0
  3  4  1  0
  4  5  2  0
  5  6  1  0
  6  7  2  0
  7  8  1  0
  8  9  2  0
  8 10  1  0
 10 11  1  0
 11 12  2  0
 12 13  1  0
 13 14  2  0
 14 15  1  0
 15 16  1  0
 16 17  2  0
 16 18  1  0
 18 19  1  0
 19 20  2  0
 20 21  1  0
 21 22  2  0
 22 23  1  0
 23 24  1  0
 23 25  2  0
 23 26  2  0
 22 27  1  0
 27 28  2  0
 15 29  2  0
  7  2  1  0
 29 11  1  0
 28 19  1  0
  1 30  1  0
  1 31  1  0
  1 32  1  0
  3 33  1  0
  4 34  1  0
  5 35  1  0
  6 36  1  0
 12 37  1  0
 13 38  1  0
 14 39  1  0
 18 40  1  0
 20 41  1  0
 21 42  1  0
 24 43  1  0
 27 44  1  0
 28 45  1  0
 29 46  1  0
M  CHG  2  10  -1  24  -1
M  END
>  <UniqueID>  (60) 
52

>  <SMILES>  (60) 
Cc1ccccc1C(=O)[N-]c1cccc(C(=O)Nc2ccc(S([NH-])(=O)=O)cc2)c1

>  <Energy>  (60) 
62.13837305741967

>  <Genealogy>  (60) 
Cc1ccccc1C(=O)[N-]c1cccc(C(=O)Nc2ccc(S([NH-])(=O)=O)cc2)c1 (protonated)
Cc1ccccc1C(=O)[N-]c1cccc(C(=O)Nc2ccc(S([NH-])(=O)=O)cc2)c1 (3D coordinates assigned)
Cc1ccccc1C(=O)[N-]c1cccc(C(=O)Nc2ccc(S([NH-])(=O)=O)cc2)c1 (optimized conformer: 62.13837305741967 kcal/mol)

>  <smiles>  (60) 
Cc1ccccc1C(=O)Nc1cccc(C(=O)Nc2ccc(S(N)(=O)=O)cc2)c1

>  <score_type>  (60) 
oracle

>  <origin>  (60) 
adg

>  <m_score__min__energy>  (60) 
-12.380000000000001

>  <m_primary>  (60) 
energy

$$$$
60:0
     RDKit          3D

 46 48  0  0  0  0  0  0  0  0999 V2000
   59.8180   35.6480   46.1190 O   0  0  0  0  0  0  0  0  0  0  0  0
   59.5370   34.4290   46.2830 C   0  0  0  0  0  0  0  0  0  0  0  0
   58.1100   34.0140   46.4310 C   0  0  0  0  0  0  0  0  0  0  0  0
   57.4200   33.6610   44.7830 S   0  0  0  0  0  0  0  0  0  0  0  0
   57.5890   31.8910   44.9660 C   0  0  0  0  0  0  0  0  0  0  0  0
   56.4980   31.0900   44.8510 N   0  0  0  0  0  0  0  0  0  0  0  0
   56.5920   29.7410   44.9880 C   0  0  0  0  0  0  0  0  0  0  0  0
   55.5560   29.0350   44.8740 O   0  0  0  0  0  0  0  0  0  0  0  0
   57.8420   29.1560   45.2520 C   0  0  0  0  0  0  0  0  0  0  0  0
   58.0090   27.7670   45.4050 C   0  0  0  0  0  0  0  0  0  0  0  0
   59.2770   27.2410   45.6670 C   0  0  0  0  0  0  0  0  0  0  0  0
   60.3840   28.0890   45.7780 C   0  0  0  0  0  0  0  0  0  0  0  0
   60.2270   29.4710   45.6270 C   0  0  0  0  0  0  0  0  0  0  0  0
   58.9620   30.0080   45.3660 C   0  0  0  0  0  0  0  0  0  0  0  0
   58.8090   31.3490   45.2190 N   0  0  0  0  0  0  0  0  0  0  0  0
   60.5820   33.4510   46.3810 N   0  0  0  0  0  0  0  0  0  0  0  0
   61.9940   33.8130   46.4900 C   0  0  0  0  0  0  0  0  0  0  0  0
   62.8110   32.6710   47.1090 C   0  0  0  0  0  0  0  0  0  0  0  0
   62.2650   32.2560   48.4850 C   0  0  0  0  0  0  0  0  0  0  0  0
   60.9110   31.6740   48.3680 N   0  0  0  0  0  0  0  0  0  0  0  0
   60.8980   30.2430   48.7570 C   0  0  0  0  0  0  0  0  0  0  0  0
   59.4640   29.7410   49.0130 C   0  0  0  0  0  0  0  0  0  0  0  0
   58.5230   30.5940   48.3970 O   0  0  0  0  0  0  0  0  0  0  0  0
   58.5320   31.8590   49.0350 C   0  0  0  0  0  0  0  0  0  0  0  0
   59.9570   32.4320   49.1990 C   0  0  0  0  0  0  0  0  0  0  0  0
   58.0517   33.1108   47.0562 H   0  0  0  0  0  0  0  0  0  0  0  0
   57.5361   34.8218   46.9085 H   0  0  0  0  0  0  0  0  0  0  0  0
   57.1419   27.0957   45.3184 H   0  0  0  0  0  0  0  0  0  0  0  0
   59.4052   26.1550   45.7865 H   0  0  0  0  0  0  0  0  0  0  0  0
   61.3794   27.6686   45.9843 H   0  0  0  0  0  0  0  0  0  0  0  0
   61.0991   30.1359   45.7136 H   0  0  0  0  0  0  0  0  0  0  0  0
   60.3260   32.4370   46.3950 H   0  0  0  0  0  0  0  0  0  0  0  0
   62.3870   34.0329   45.4864 H   0  0  0  0  0  0  0  0  0  0  0  0
   62.0791   34.6959   47.1406 H   0  0  0  0  0  0  0  0  0  0  0  0
   62.7750   31.8022   46.4353 H   0  0  0  0  0  0  0  0  0  0  0  0
   63.8436   33.0251   47.2446 H   0  0  0  0  0  0  0  0  0  0  0  0
   62.9398   31.5091   48.9287 H   0  0  0  0  0  0  0  0  0  0  0  0
   62.2062   33.1512   49.1215 H   0  0  0  0  0  0  0  0  0  0  0  0
   61.3458   29.6483   47.9472 H   0  0  0  0  0  0  0  0  0  0  0  0
   61.4738   30.1329   49.6878 H   0  0  0  0  0  0  0  0  0  0  0  0
   59.3569   28.7267   48.6011 H   0  0  0  0  0  0  0  0  0  0  0  0
   59.2790   29.7321   50.0973 H   0  0  0  0  0  0  0  0  0  0  0  0
   57.9371   32.5614   48.4328 H   0  0  0  0  0  0  0  0  0  0  0  0
   58.1082   31.7273   50.0415 H   0  0  0  0  0  0  0  0  0  0  0  0
   59.9623   33.4869   48.8873 H   0  0  0  0  0  0  0  0  0  0  0  0
   60.2570   32.3500   50.2541 H   0  0  0  0  0  0  0  0  0  0  0  0
  1  2  2  0
  2  3  1  0
  3  4  1  0
  4  5  1  0
  5  6  2  0
  6  7  1  0
  7  8  2  0
  7  9  1  0
  9 10  2  0
 10 11  1  0
 11 12  2  0
 12 13  1  0
 13 14  2  0
 14 15  1  0
  2 16  1  0
 16 17  1  0
 17 18  1  0
 18 19  1  0
 19 20  1  0
 20 21  1  0
 21 22  1  0
 22 23  1  0
 23 24  1  0
 24 25  1  0
 15  5  1  0
 25 20  1  0
 14  9  1  0
  3 26  1  0
  3 27  1  0
 10 28  1  0
 11 29  1  0
 12 30  1  0
 13 31  1  0
 16 32  1  0
 17 33  1  0
 17 34  1  0
 18 35  1  0
 18 36  1  0
 19 37  1  0
 19 38  1  0
 21 39  1  0
 21 40  1  0
 22 41  1  0
 22 42  1  0
 24 43  1  0
 24 44  1  0
 25 45  1  0
 25 46  1  0
M  CHG  1  15  -1
M  END
>  <UniqueID>  (61) 
53

>  <SMILES>  (61) 
O=C(CSc1nc(=O)c2ccccc2[n-]1)NCCCN1CCOCC1

>  <Energy>  (61) 
49.56239922318218

>  <Genealogy>  (61) 
O=C(CSc1nc(=O)c2ccccc2[n-]1)NCCCN1CCOCC1 (protonated)
O=C(CSc1nc(=O)c2ccccc2[n-]1)NCCCN1CCOCC1 (3D coordinates assigned)
O=C(CSc1nc(=O)c2ccccc2[n-]1)NCCCN1CCOCC1 (nonaromatic ring conformer: 49.56239922318218 kcal/mol)

>  <smiles>  (61) 
O=C(CSc1nc(=O)c2ccccc2[nH]1)NCCCN1CCOCC1

>  <score_type>  (61) 
oracle

>  <origin>  (61) 
adg

>  <m_score__min__energy>  (61) 
-9.2899999999999991

>  <m_primary>  (61) 
energy

$$$$
61:0
     RDKit          3D

 55 58  0  0  1  0  0  0  0  0999 V2000
   65.8560   32.7620   50.1370 C   0  0  0  0  0  0  0  0  0  0  0  0
   64.6580   33.3630   49.6930 O   0  0  0  0  0  0  0  0  0  0  0  0
   63.6510   32.6630   49.0610 C   0  0  0  0  0  0  0  0  0  0  0  0
   62.8820   31.7850   49.7980 C   0  0  0  0  0  0  0  0  0  0  0  0
   61.8660   31.0690   49.2070 C   0  0  0  0  0  0  0  0  0  0  0  0
   61.6150   31.2380   47.8460 C   0  0  0  0  0  0  0  0  0  0  0  0
   60.4860   30.4370   47.2690 C   0  0  0  0  0  0  0  0  0  0  0  0
   60.9550   29.5530   46.1290 C   0  0  0  0  0  0  0  0  0  0  0  0
   60.1040   28.5490   45.7160 N   0  0  0  0  0  0  0  0  0  0  0  0
   58.8870   28.4970   45.5740 C   0  0  0  0  0  0  0  0  0  0  0  0
   58.2180   29.5960   45.1660 N   0  0  0  0  0  0  0  0  0  0  0  0
   56.8840   29.6620   45.0330 C   0  0  0  0  0  0  0  0  0  0  0  0
   56.3460   30.7390   44.6390 N   0  0  0  0  0  0  0  0  0  0  0  0
   57.0880   31.9350   44.4930 C   0  0  0  0  0  0  0  0  0  0  0  0
   58.0720   31.9840   43.7080 O   0  0  0  0  0  0  0  0  0  0  0  0
   56.7620   33.1760   45.2350 C   0  0  0  0  0  0  0  0  0  0  0  0
   57.9050   33.6240   46.0920 C   0  0  0  0  0  0  0  0  0  0  0  0
   58.7720   34.5430   45.5040 C   0  0  0  0  0  0  0  0  0  0  0  0
   59.8530   35.0140   46.2160 C   0  0  0  0  0  0  0  0  0  0  0  0
   60.0590   34.5640   47.5080 C   0  0  0  0  0  0  0  0  0  0  0  0
   59.1840   33.6470   48.0750 C   0  0  0  0  0  0  0  0  0  0  0  0
   58.0930   33.1630   47.3780 C   0  0  0  0  0  0  0  0  0  0  0  0
   56.1800   28.5610   45.3240 N   0  0  0  0  0  0  0  0  0  0  0  0
   56.8100   27.4500   45.7290 C   0  0  0  0  0  0  0  0  0  0  0  0
   56.0230   26.3510   46.0060 C   0  0  0  0  0  0  0  0  0  0  0  0
   56.6920   25.2190   46.4120 C   0  0  0  0  0  0  0  0  0  0  0  0
   58.0390   25.1090   46.5530 C   0  0  0  0  0  0  0  0  0  0  0  0
   58.8410   26.2380   46.2680 C   0  0  0  0  0  0  0  0  0  0  0  0
   58.1840   27.3560   45.8740 C   0  0  0  0  0  0  0  0  0  0  0  0
   62.3740   32.1030   47.1240 C   0  0  0  0  0  0  0  0  0  0  0  0
   63.4090   32.8340   47.7180 C   0  0  0  0  0  0  0  0  0  0  0  0
   65.8756   32.7522   51.2368 H   0  0  0  0  0  0  0  0  0  0  0  0
   65.9101   31.7300   49.7601 H   0  0  0  0  0  0  0  0  0  0  0  0
   66.7156   33.3356   49.7601 H   0  0  0  0  0  0  0  0  0  0  0  0
   63.0838   31.6559   50.8716 H   0  0  0  0  0  0  0  0  0  0  0  0
   61.2586   30.3710   49.8019 H   0  0  0  0  0  0  0  0  0  0  0  0
   60.0574   29.8032   48.0593 H   0  0  0  0  0  0  0  0  0  0  0  0
   59.7336   31.1363   46.8754 H   0  0  0  0  0  0  0  0  0  0  0  0
   61.1437   30.2036   45.2624 H   0  0  0  0  0  0  0  0  0  0  0  0
   61.8391   29.0300   46.5224 H   0  0  0  0  0  0  0  0  0  0  0  0
   58.7500   30.4660   44.9340 H   0  0  0  0  0  0  0  0  0  0  0  0
   56.5244   33.9712   44.5131 H   0  0  0  0  0  0  0  0  0  0  0  0
   55.9026   32.9689   45.8896 H   0  0  0  0  0  0  0  0  0  0  0  0
   58.5939   34.8908   44.4757 H   0  0  0  0  0  0  0  0  0  0  0  0
   60.5445   35.7395   45.7626 H   0  0  0  0  0  0  0  0  0  0  0  0
   60.9179   34.9335   48.0874 H   0  0  0  0  0  0  0  0  0  0  0  0
   59.3632   33.2977   49.1026 H   0  0  0  0  0  0  0  0  0  0  0  0
   57.4013   32.4379   47.8317 H   0  0  0  0  0  0  0  0  0  0  0  0
   55.1640   28.5900   45.2330 H   0  0  0  0  0  0  0  0  0  0  0  0
   54.9277   26.3781   45.9083 H   0  0  0  0  0  0  0  0  0  0  0  0
   56.0863   24.3298   46.6413 H   0  0  0  0  0  0  0  0  0  0  0  0
   58.4950   24.1633   46.8813 H   0  0  0  0  0  0  0  0  0  0  0  0
   59.9367   26.2105   46.3608 H   0  0  0  0  0  0  0  0  0  0  0  0
   62.1709   32.2314   46.0506 H   0  0  0  0  0  0  0  0  0  0  0  0
   64.0168   33.5313   47.1227 H   0  0  0  0  0  0  0  0  0  0  0  0
  1  2  1  0
  2  3  1  0
  3  4  2  0
  4  5  1  0
  5  6  2  0
  6  7  1  0
  7  8  1  0
  8  9  1  0
  9 10  2  0
 10 11  1  0
 11 12  1  0
 12 13  2  0
 13 14  1  0
 14 15  2  0
 14 16  1  0
 16 17  1  0
 17 18  2  0
 18 19  1  0
 19 20  2  0
 20 21  1  0
 21 22  2  0
 12 23  1  0
 23 24  1  0
 24 25  2  0
 25 26  1  0
 26 27  2  0
 27 28  1  0
 28 29  2  0
  6 30  1  0
 30 31  2  0
 31  3  1  0
 29 10  1  0
 22 17  1  0
 29 24  1  0
  1 32  1  0
  1 33  1  0
  1 34  1  0
  4 35  1  0
  5 36  1  0
  7 37  1  0
  7 38  1  0
  8 39  1  0
  8 40  1  0
 11 41  1  0
 16 42  1  0
 16 43  1  0
 18 44  1  0
 19 45  1  0
 20 46  1  0
 21 47  1  0
 22 48  1  0
 23 49  1  0
 25 50  1  0
 26 51  1  0
 27 52  1  0
 28 53  1  0
 30 54  1  0
 31 55  1  0
M  END
>  <smiles>  (62) 
COc1ccc(CCN=c2[nH]c(=NC(=O)Cc3ccccc3)[nH]c3ccccc23)cc1

>  <score_type>  (62) 
oracle

>  <origin>  (62) 
adg

>  <m_score__min__energy>  (62) 
-9.5

>  <m_primary>  (62) 
energy

$$$$
62:0
     RDKit          3D

 65 69  0  0  0  0  0  0  0  0999 V2000
   58.5368   31.8090   50.7054 H   0  0  0  0  0  0  0  0  0  0  0  0
   58.8760   32.5160   49.9340 C   0  0  0  0  0  0  0  0  0  0  0  0
   58.5870   32.2840   48.6270 N   0  0  0  0  0  0  0  0  0  0  0  0
   58.9830   33.1300   47.6350 C   0  0  0  0  0  0  0  0  0  0  0  0
   58.6180   32.8150   46.2360 C   0  0  0  0  0  0  0  0  0  0  0  0
   59.0310   33.6330   45.1740 C   0  0  0  0  0  0  0  0  0  0  0  0
   59.6682   34.5072   45.3732 H   0  0  0  0  0  0  0  0  0  0  0  0
   58.6390   33.3450   43.8680 C   0  0  0  0  0  0  0  0  0  0  0  0
   58.9699   33.9952   43.0447 H   0  0  0  0  0  0  0  0  0  0  0  0
   57.8300   32.2390   43.5930 C   0  0  0  0  0  0  0  0  0  0  0  0
   57.4020   31.9490   41.9100 Cl  0  0  0  0  0  0  0  0  0  0  0  0
   57.4140   31.3920   44.6480 C   0  0  0  0  0  0  0  0  0  0  0  0
   56.5940   30.1730   44.4120 C   0  0  0  0  0  0  0  0  0  0  0  0
   55.3470   30.2720   44.2740 O   0  0  0  0  0  0  0  0  0  0  0  0
   57.1620   28.8610   44.4920 N   0  0  0  0  0  0  0  0  0  0  0  0
   57.8770   28.3390   45.4490 C   0  0  0  0  0  0  0  0  0  0  0  0
   58.6720   29.0860   46.2850 C   0  0  0  0  0  0  0  0  0  0  0  0
   58.7685   30.1809   46.3280 H   0  0  0  0  0  0  0  0  0  0  0  0
   59.3220   28.1440   47.0590 C   0  0  0  0  0  0  0  0  0  0  0  0
   60.2720   28.4190   48.1470 C   0  0  0  0  0  0  0  0  0  0  0  0
   61.0060   27.4930   48.5880 O   0  0  0  0  0  0  0  0  0  0  0  0
   60.3760   29.7430   48.6920 N   0  0  0  0  0  0  0  0  0  0  0  0
   59.6790   30.4730   48.4130 H   0  0  0  0  0  0  0  0  0  0  0  0
   61.4850   30.1440   49.5550 C   0  0  0  0  0  0  0  0  0  0  0  0
   62.1654   29.2900   49.6879 H   0  0  0  0  0  0  0  0  0  0  0  0
   61.0782   30.4644   50.5255 H   0  0  0  0  0  0  0  0  0  0  0  0
   62.2500   31.2970   48.9460 C   0  0  0  0  0  0  0  0  0  0  0  0
   62.0140   31.6530   47.6060 C   0  0  0  0  0  0  0  0  0  0  0  0
   61.2745   31.0920   47.0158 H   0  0  0  0  0  0  0  0  0  0  0  0
   62.7080   32.7100   47.0180 C   0  0  0  0  0  0  0  0  0  0  0  0
   62.5219   32.9719   45.9660 H   0  0  0  0  0  0  0  0  0  0  0  0
   63.6360   33.4340   47.7610 C   0  0  0  0  0  0  0  0  0  0  0  0
   64.1927   34.2585   47.2916 H   0  0  0  0  0  0  0  0  0  0  0  0
   63.8610   33.1150   49.1010 C   0  0  0  0  0  0  0  0  0  0  0  0
   64.5892   33.6976   49.6844 H   0  0  0  0  0  0  0  0  0  0  0  0
   63.1640   32.0530   49.7150 C   0  0  0  0  0  0  0  0  0  0  0  0
   63.3500   31.7230   51.0710 O   0  0  0  0  0  0  0  0  0  0  0  0
   64.3620   30.8600   51.5900 C   0  0  0  0  0  0  0  0  0  0  0  0
   64.1220   29.8203   51.3226 H   0  0  0  0  0  0  0  0  0  0  0  0
   64.3977   30.9741   52.6835 H   0  0  0  0  0  0  0  0  0  0  0  0
   65.7270   31.2230   51.0140 C   0  0  0  0  0  0  0  0  0  0  0  0
   66.4336   31.4109   51.8359 H   0  0  0  0  0  0  0  0  0  0  0  0
   66.0967   30.3920   50.3954 H   0  0  0  0  0  0  0  0  0  0  0  0
   65.6351   32.1279   50.3954 H   0  0  0  0  0  0  0  0  0  0  0  0
   58.9080   26.9070   46.7210 N   0  0  0  0  0  0  0  0  0  0  0  0
   58.0270   27.0210   45.7410 N   0  0  0  0  0  0  0  0  0  0  0  0
   57.2560   25.8930   45.3030 C   0  0  0  0  0  0  0  0  0  0  0  0
   56.0650   25.5700   45.9680 C   0  0  0  0  0  0  0  0  0  0  0  0
   55.7528   26.1521   46.8476 H   0  0  0  0  0  0  0  0  0  0  0  0
   55.2720   24.5090   45.5160 C   0  0  0  0  0  0  0  0  0  0  0  0
   54.3491   24.2454   46.0534 H   0  0  0  0  0  0  0  0  0  0  0  0
   55.6510   23.7840   44.3830 C   0  0  0  0  0  0  0  0  0  0  0  0
   55.0275   22.9491   44.0306 H   0  0  0  0  0  0  0  0  0  0  0  0
   56.8210   24.1190   43.6980 C   0  0  0  0  0  0  0  0  0  0  0  0
   57.1130   23.5550   42.7998 H   0  0  0  0  0  0  0  0  0  0  0  0
   57.6220   25.1720   44.1540 C   0  0  0  0  0  0  0  0  0  0  0  0
   58.5414   25.4362   43.6109 H   0  0  0  0  0  0  0  0  0  0  0  0
   57.7950   31.7120   45.9640 C   0  0  0  0  0  0  0  0  0  0  0  0
   57.4407   31.0852   46.7956 H   0  0  0  0  0  0  0  0  0  0  0  0
   59.7410   34.2700   47.9680 C   0  0  0  0  0  0  0  0  0  0  0  0
   60.2260   35.1000   47.0110 F   0  0  0  0  0  0  0  0  0  0  0  0
   60.0380   34.5260   49.3090 C   0  0  0  0  0  0  0  0  0  0  0  0
   60.6164   35.4206   49.5829 H   0  0  0  0  0  0  0  0  0  0  0  0
   59.6020   33.6490   50.2990 C   0  0  0  0  0  0  0  0  0  0  0  0
   59.8278   33.8479   51.3570 H   0  0  0  0  0  0  0  0  0  0  0  0
  1  2  1  0
  2  3  2  0
  3  4  1  0
  4  5  1  0
  5  6  2  0
  6  7  1  0
  6  8  1  0
  8  9  1  0
  8 10  2  0
 10 11  1  0
 10 12  1  0
 12 13  1  0
 13 14  2  0
 13 15  1  0
 15 16  2  0
 16 17  1  0
 17 18  1  0
 17 19  2  0
 19 20  1  0
 20 21  2  0
 20 22  1  0
 22 23  1  0
 22 24  1  0
 24 25  1  0
 24 26  1  0
 24 27  1  0
 27 28  2  0
 28 29  1  0
 28 30  1  0
 30 31  1  0
 30 32  2  0
 32 33  1  0
 32 34  1  0
 34 35  1  0
 34 36  2  0
 36 37  1  0
 37 38  1  0
 38 39  1  0
 38 40  1  0
 38 41  1  0
 41 42  1  0
 41 43  1  0
 41 44  1  0
 19 45  1  0
 45 46  1  0
 46 47  1  0
 47 48  2  0
 48 49  1  0
 48 50  1  0
 50 51  1  0
 50 52  2  0
 52 53  1  0
 52 54  1  0
 54 55  1  0
 54 56  2  0
 56 57  1  0
 12 58  2  0
 58 59  1  0
  4 60  2  0
 60 61  1  0
 60 62  1  0
 62 63  1  0
 62 64  2  0
 64 65  1  0
 64  2  1  0
 58  5  1  0
 46 16  1  0
 56 47  1  0
 36 27  1  0
M  CHG  1  45  -1
M  END
>  <UniqueID>  (63) 
54

>  <SMILES>  (63) 
CCOc1ccccc1CNC(=O)c1c/c(=N/C(=O)c2cc(-c3ncccc3F)ccc2Cl)n(-c2ccccc2)[n-]1

>  <Energy>  (63) 
122.95520830655602

>  <Genealogy>  (63) 
CCOc1ccccc1CNC(=O)c1cc(=NC(=O)c2cc(-c3ncccc3F)ccc2Cl)n(-c2ccccc2)[n-]1 (protonated)
CCOc1ccccc1CNC(=O)c1c/c(=N/C(=O)c2cc(-c3ncccc3F)ccc2Cl)n(-c2ccccc2)[n-]1 (cis-trans isomerization)
CCOc1ccccc1CNC(=O)c1c/c(=N/C(=O)c2cc(-c3ncccc3F)ccc2Cl)n(-c2ccccc2)[n-]1 (3D coordinates assigned)
CCOc1ccccc1CNC(=O)c1c/c(=N/C(=O)c2cc(-c3ncccc3F)ccc2Cl)n(-c2ccccc2)[n-]1 (optimized conformer: 122.95520830655602 kcal/mol)

>  <smiles>  (63) 
CCOc1ccccc1CNC(=O)c1cc(=NC(=O)c2cc(-c3ncccc3F)ccc2Cl)n(-c2ccccc2)[nH]1

>  <score_type>  (63) 
oracle

>  <origin>  (63) 
adg

>  <m_score__min__energy>  (63) 
-11.51

>  <m_primary>  (63) 
energy

$$$$
63:0
     RDKit          3D

 47 49  0  0  0  0  0  0  0  0999 V2000
   55.7700   25.6026   46.2739 H   0  0  0  0  0  0  0  0  0  0  0  0
   56.8670   25.5260   46.2470 C   0  0  0  0  0  0  0  0  0  0  0  0
   57.5710   26.5270   46.7980 C   0  0  0  0  0  0  0  0  0  0  0  0
   58.0277   26.3507   47.7830 H   0  0  0  0  0  0  0  0  0  0  0  0
   57.7740   27.8470   46.1730 C   0  0  0  0  0  0  0  0  0  0  0  0
   58.4870   28.8760   46.7150 N   0  0  0  0  0  0  0  0  0  0  0  0
   59.2700   28.8900   47.9520 C   0  0  0  0  0  0  0  0  0  0  0  0
   58.5900   28.8778   48.8165 H   0  0  0  0  0  0  0  0  0  0  0  0
   59.9202   28.0033   47.9844 H   0  0  0  0  0  0  0  0  0  0  0  0
   59.8881   29.7993   47.9844 H   0  0  0  0  0  0  0  0  0  0  0  0
   58.3380   29.8810   45.8260 C   0  0  0  0  0  0  0  0  0  0  0  0
   58.7880   31.1940   45.8680 C   0  0  0  0  0  0  0  0  0  0  0  0
   59.4690   31.6060   46.8480 O   0  0  0  0  0  0  0  0  0  0  0  0
   58.4590   32.0330   44.8250 N   0  0  0  0  0  0  0  0  0  0  0  0
   58.8910   33.4470   44.8460 C   0  0  0  0  0  0  0  0  0  0  0  0
   58.6064   33.9218   43.8954 H   0  0  0  0  0  0  0  0  0  0  0  0
   59.9818   33.4725   44.9854 H   0  0  0  0  0  0  0  0  0  0  0  0
   58.2390   34.2180   46.0040 C   0  0  0  0  0  0  0  0  0  0  0  0
   57.6277   33.5188   46.5934 H   0  0  0  0  0  0  0  0  0  0  0  0
   57.6272   35.0215   45.5681 H   0  0  0  0  0  0  0  0  0  0  0  0
   59.2680   34.8670   46.9270 C   0  0  0  0  0  0  0  0  0  0  0  0
   58.9849   34.6884   47.9748 H   0  0  0  0  0  0  0  0  0  0  0  0
   60.2593   34.4304   46.7355 H   0  0  0  0  0  0  0  0  0  0  0  0
   59.3010   35.9497   46.7355 H   0  0  0  0  0  0  0  0  0  0  0  0
   57.6930   31.5640   43.7680 C   0  0  0  0  0  0  0  0  0  0  0  0
   57.3850   32.3470   42.8260 O   0  0  0  0  0  0  0  0  0  0  0  0
   57.2580   30.2550   43.7360 N   0  0  0  0  0  0  0  0  0  0  0  0
   56.4270   29.7330   42.6430 C   0  0  0  0  0  0  0  0  0  0  0  0
   55.5661   29.1922   43.0630 H   0  0  0  0  0  0  0  0  0  0  0  0
   56.0686   30.5685   42.0237 H   0  0  0  0  0  0  0  0  0  0  0  0
   57.0240   29.0474   42.0237 H   0  0  0  0  0  0  0  0  0  0  0  0
   57.5910   29.4500   44.7830 C   0  0  0  0  0  0  0  0  0  0  0  0
   57.2310   28.1680   44.9730 N   0  0  0  0  0  0  0  0  0  0  0  0
   56.6340   27.5620   44.3660 H   0  0  0  0  0  0  0  0  0  0  0  0
   57.4520   24.3270   45.6060 C   0  0  0  0  0  0  0  0  0  0  0  0
   58.7740   23.9240   45.8620 C   0  0  0  0  0  0  0  0  0  0  0  0
   59.3995   24.5050   46.5557 H   0  0  0  0  0  0  0  0  0  0  0  0
   59.2960   22.7890   45.2390 C   0  0  0  0  0  0  0  0  0  0  0  0
   60.3365   22.4883   45.4313 H   0  0  0  0  0  0  0  0  0  0  0  0
   58.5030   22.0340   44.3730 C   0  0  0  0  0  0  0  0  0  0  0  0
   58.9251   21.1462   43.8794 H   0  0  0  0  0  0  0  0  0  0  0  0
   57.1690   22.4010   44.1280 C   0  0  0  0  0  0  0  0  0  0  0  0
   56.3490   21.6140   43.2440 N   0  0  0  0  0  0  0  0  0  0  0  0
   56.2840   20.3730   43.3680 O   0  0  0  0  0  0  0  0  0  0  0  0
   55.6200   22.2190   42.2460 O   0  0  0  0  0  0  0  0  0  0  0  0
   56.6490   23.5470   44.7600 C   0  0  0  0  0  0  0  0  0  0  0  0
   55.6011   23.8341   44.5885 H   0  0  0  0  0  0  0  0  0  0  0  0
  1  2  1  0
  2  3  2  0
  3  4  1  0
  3  5  1  0
  5  6  1  0
  6  7  1  0
  7  8  1  0
  7  9  1  0
  7 10  1  0
  6 11  1  0
 11 12  1  0
 12 13  2  0
 12 14  1  0
 14 15  1  0
 15 16  1  0
 15 17  1  0
 15 18  1  0
 18 19  1  0
 18 20  1  0
 18 21  1  0
 21 22  1  0
 21 23  1  0
 21 24  1  0
 14 25  1  0
 25 26  2  0
 25 27  1  0
 27 28  1  0
 28 29  1  0
 28 30  1  0
 28 31  1  0
 27 32  1  0
 32 33  1  0
 33 34  1  0
  2 35  1  0
 35 36  2  0
 36 37  1  0
 36 38  1  0
 38 39  1  0
 38 40  2  0
 40 41  1  0
 40 42  1  0
 42 43  1  0
 43 44  2  0
 43 45  1  0
 42 46  2  0
 46 47  1  0
 33  5  2  0
 46 35  1  0
 32 11  2  0
M  CHG  3  33   1  43   1  45  -1
M  END
>  <UniqueID>  (64) 
55

>  <SMILES>  (64) 
CCCn1c(=O)c2c([nH+]c(/C=C\c3cccc([N+](=O)[O-])c3)n2C)n(C)c1=O

>  <Energy>  (64) 
102.37061443620085

>  <Genealogy>  (64) 
CCCn1c(=O)c2c([nH+]c(C=Cc3cccc([N+](=O)[O-])c3)n2C)n(C)c1=O (protonated)
CCCn1c(=O)c2c([nH+]c(/C=C\c3cccc([N+](=O)[O-])c3)n2C)n(C)c1=O (cis-trans isomerization)
CCCn1c(=O)c2c([nH+]c(/C=C\c3cccc([N+](=O)[O-])c3)n2C)n(C)c1=O (3D coordinates assigned)
CCCn1c(=O)c2c([nH+]c(/C=C\c3cccc([N+](=O)[O-])c3)n2C)n(C)c1=O (optimized conformer: 102.37061443620085 kcal/mol)

>  <smiles>  (64) 
CCCn1c(=O)c2c(nc(C=Cc3cccc([N+](=O)[O-])c3)n2C)n(C)c1=O

>  <score_type>  (64) 
oracle

>  <origin>  (64) 
adg

>  <m_score__min__energy>  (64) 
-7.0300000000000002

>  <m_primary>  (64) 
energy

$$$$
64:0
     RDKit          3D

 60 63  0  0  0  0  0  0  0  0999 V2000
   55.0480   26.2370   45.9930 N   0  0  0  0  0  0  0  0  0  0  0  0
   56.7750   26.2030   45.9710 S   0  0  0  0  0  0  0  0  0  0  0  0
   57.2420   25.4270   44.7720 O   0  0  0  0  0  0  0  0  0  0  0  0
   57.2810   25.5300   47.2140 O   0  0  0  0  0  0  0  0  0  0  0  0
   57.3880   27.8530   45.9100 C   0  0  0  0  0  0  0  0  0  0  0  0
   57.1320   28.6730   44.8040 C   0  0  0  0  0  0  0  0  0  0  0  0
   57.5910   29.9920   44.7900 C   0  0  0  0  0  0  0  0  0  0  0  0
   58.3110   30.5050   45.8790 C   0  0  0  0  0  0  0  0  0  0  0  0
   58.7320   31.8790   45.8590 N   0  0  0  0  0  0  0  0  0  0  0  0
   57.8480   32.9160   45.3160 C   0  0  0  0  0  0  0  0  0  0  0  0
   57.8530   34.1700   46.2240 C   0  0  0  0  0  0  0  0  0  0  0  0
   58.8840   34.1770   47.2000 O   0  0  0  0  0  0  0  0  0  0  0  0
   60.1080   33.7550   46.6320 C   0  0  0  0  0  0  0  0  0  0  0  0
   60.0530   32.2480   46.3810 C   0  0  0  0  0  0  0  0  0  0  0  0
   58.6080   29.6720   46.9740 C   0  0  0  0  0  0  0  0  0  0  0  0
   59.3600   30.1910   48.0810 N   0  0  0  0  0  0  0  0  0  0  0  0
   58.8110   30.7410   49.2840 C   0  0  0  0  0  0  0  0  0  0  0  0
   58.4080   29.9560   50.1810 O   0  0  0  0  0  0  0  0  0  0  0  0
   58.5840   32.2170   49.4500 C   0  0  0  0  0  0  0  0  0  0  0  0
   59.5920   32.7770   50.3540 N   0  0  0  0  0  0  0  0  0  0  0  0
   60.9580   32.9100   49.9310 C   0  0  0  0  0  0  0  0  0  0  0  0
   61.5000   34.1790   49.6580 C   0  0  0  0  0  0  0  0  0  0  0  0
   62.8300   34.3000   49.2460 C   0  0  0  0  0  0  0  0  0  0  0  0
   63.6290   33.1590   49.1120 C   0  0  0  0  0  0  0  0  0  0  0  0
   63.0980   31.8950   49.3900 C   0  0  0  0  0  0  0  0  0  0  0  0
   61.7670   31.7700   49.7970 C   0  0  0  0  0  0  0  0  0  0  0  0
   59.1530   33.1380   51.9970 S   0  0  0  0  0  0  0  0  0  0  0  0
   60.3760   33.1750   52.8720 O   0  0  0  0  0  0  0  0  0  0  0  0
   58.4850   34.4860   52.0540 O   0  0  0  0  0  0  0  0  0  0  0  0
   58.0690   31.8820   52.5800 C   0  0  0  0  0  0  0  0  0  0  0  0
   58.5050   30.9400   53.5250 C   0  0  0  0  0  0  0  0  0  0  0  0
   57.6240   29.9630   53.9990 C   0  0  0  0  0  0  0  0  0  0  0  0
   56.3050   29.9250   53.5350 C   0  0  0  0  0  0  0  0  0  0  0  0
   55.8640   30.8690   52.6030 C   0  0  0  0  0  0  0  0  0  0  0  0
   56.7420   31.8470   52.1260 C   0  0  0  0  0  0  0  0  0  0  0  0
   58.1160   28.3570   46.9940 C   0  0  0  0  0  0  0  0  0  0  0  0
   54.7670   27.0680   46.5600 H   0  0  0  0  0  0  0  0  0  0  0  0
   56.5689   28.2779   43.9456 H   0  0  0  0  0  0  0  0  0  0  0  0
   57.3866   30.6326   43.9195 H   0  0  0  0  0  0  0  0  0  0  0  0
   58.1956   33.1967   44.3108 H   0  0  0  0  0  0  0  0  0  0  0  0
   56.8236   32.5180   45.2684 H   0  0  0  0  0  0  0  0  0  0  0  0
   57.9758   35.0576   45.5859 H   0  0  0  0  0  0  0  0  0  0  0  0
   56.8990   34.1679   46.7716 H   0  0  0  0  0  0  0  0  0  0  0  0
   60.2723   34.2807   45.6798 H   0  0  0  0  0  0  0  0  0  0  0  0
   60.9338   33.9848   47.3214 H   0  0  0  0  0  0  0  0  0  0  0  0
   60.8255   31.9714   45.6484 H   0  0  0  0  0  0  0  0  0  0  0  0
   60.2316   31.7155   47.3268 H   0  0  0  0  0  0  0  0  0  0  0  0
   58.6588   32.7102   48.4696 H   0  0  0  0  0  0  0  0  0  0  0  0
   57.5831   32.3844   49.8746 H   0  0  0  0  0  0  0  0  0  0  0  0
   60.8758   35.0779   49.7690 H   0  0  0  0  0  0  0  0  0  0  0  0
   63.2491   35.2931   49.0268 H   0  0  0  0  0  0  0  0  0  0  0  0
   64.6756   33.2561   48.7878 H   0  0  0  0  0  0  0  0  0  0  0  0
   63.7283   30.9993   49.2882 H   0  0  0  0  0  0  0  0  0  0  0  0
   61.3514   30.7748   50.0133 H   0  0  0  0  0  0  0  0  0  0  0  0
   59.5411   30.9704   53.8932 H   0  0  0  0  0  0  0  0  0  0  0  0
   57.9685   29.2239   54.7372 H   0  0  0  0  0  0  0  0  0  0  0  0
   55.6145   29.1521   53.9036 H   0  0  0  0  0  0  0  0  0  0  0  0
   54.8245   30.8423   52.2443 H   0  0  0  0  0  0  0  0  0  0  0  0
   56.3920   32.5897   51.3940 H   0  0  0  0  0  0  0  0  0  0  0  0
   58.3043   27.7175   47.8690 H   0  0  0  0  0  0  0  0  0  0  0  0
  1  2  1  0
  2  3  2  0
  2  4  2  0
  2  5  1  0
  5  6  2  0
  6  7  1  0
  7  8  2  0
  8  9  1  0
  9 10  1  0
 10 11  1  0
 11 12  1  0
 12 13  1  0
 13 14  1  0
  8 15  1  0
 15 16  1  0
 16 17  1  0
 17 18  2  0
 17 19  1  0
 19 20  1  0
 20 21  1  0
 21 22  2  0
 22 23  1  0
 23 24  2  0
 24 25  1  0
 25 26  2  0
 20 27  1  0
 27 28  2  0
 27 29  2  0
 27 30  1  0
 30 31  2  0
 31 32  1  0
 32 33  2  0
 33 34  1  0
 34 35  2  0
 15 36  2  0
 36  5  1  0
 14  9  1  0
 26 21  1  0
 35 30  1  0
  1 37  1  0
  6 38  1  0
  7 39  1  0
 10 40  1  0
 10 41  1  0
 11 42  1  0
 11 43  1  0
 13 44  1  0
 13 45  1  0
 14 46  1  0
 14 47  1  0
 19 48  1  0
 19 49  1  0
 22 50  1  0
 23 51  1  0
 24 52  1  0
 25 53  1  0
 26 54  1  0
 31 55  1  0
 32 56  1  0
 33 57  1  0
 34 58  1  0
 35 59  1  0
 36 60  1  0
M  CHG  2   1  -1  16  -1
M  END
>  <UniqueID>  (65) 
56

>  <SMILES>  (65) 
[NH-]S(=O)(=O)c1ccc(N2CCOCC2)c([N-]C(=O)CN(c2ccccc2)S(=O)(=O)c2ccccc2)c1

>  <Energy>  (65) 
81.89555590773885

>  <Genealogy>  (65) 
[NH-]S(=O)(=O)c1ccc(N2CCOCC2)c([N-]C(=O)CN(c2ccccc2)S(=O)(=O)c2ccccc2)c1 (protonated)
[NH-]S(=O)(=O)c1ccc(N2CCOCC2)c([N-]C(=O)CN(c2ccccc2)S(=O)(=O)c2ccccc2)c1 (3D coordinates assigned)
[NH-]S(=O)(=O)c1ccc(N2CCOCC2)c([N-]C(=O)CN(c2ccccc2)S(=O)(=O)c2ccccc2)c1 (nonaromatic ring conformer: 81.89555590773885 kcal/mol)

>  <smiles>  (65) 
NS(=O)(=O)c1ccc(N2CCOCC2)c(NC(=O)CN(c2ccccc2)S(=O)(=O)c2ccccc2)c1

>  <score_type>  (65) 
oracle

>  <origin>  (65) 
adg

>  <m_score__min__energy>  (65) 
-13.26

>  <m_primary>  (65) 
energy

$$$$
65:0
     RDKit          3D

 40 43  0  0  0  0  0  0  0  0999 V2000
   55.1220   24.3340   44.4740 O   0  0  0  0  0  0  0  0  0  0  0  0
   54.8230   24.7890   45.6090 C   0  0  0  0  0  0  0  0  0  0  0  0
   54.2560   23.9310   46.6100 N   0  0  0  0  0  0  0  0  0  0  0  0
   54.9760   23.1430   47.5680 C   0  0  0  0  0  0  0  0  0  0  0  0
   54.3640   22.6080   48.7140 C   0  0  0  0  0  0  0  0  0  0  0  0
   55.1200   21.8690   49.6270 C   0  0  0  0  0  0  0  0  0  0  0  0
   56.4850   21.6830   49.3940 C   0  0  0  0  0  0  0  0  0  0  0  0
   57.4560   20.7630   50.5250 Cl  0  0  0  0  0  0  0  0  0  0  0  0
   57.0660   22.2270   48.2920 N   0  0  0  0  0  0  0  0  0  0  0  0
   56.3510   22.9500   47.3900 C   0  0  0  0  0  0  0  0  0  0  0  0
   55.1600   26.1440   45.9220 N   0  0  0  0  0  0  0  0  0  0  0  0
   56.4840   26.6970   45.9640 C   0  0  0  0  0  0  0  0  0  0  0  0
   57.5930   25.9340   46.3640 C   0  0  0  0  0  0  0  0  0  0  0  0
   58.8640   26.5120   46.4030 C   0  0  0  0  0  0  0  0  0  0  0  0
   59.0360   27.8550   46.0630 C   0  0  0  0  0  0  0  0  0  0  0  0
   57.9340   28.6470   45.6990 C   0  0  0  0  0  0  0  0  0  0  0  0
   58.1360   30.0770   45.3490 C   0  0  0  0  0  0  0  0  0  0  0  0
   57.8440   30.5710   44.0650 C   0  0  0  0  0  0  0  0  0  0  0  0
   58.0440   31.9240   43.7750 C   0  0  0  0  0  0  0  0  0  0  0  0
   57.7790   32.3550   42.6210 O   0  0  0  0  0  0  0  0  0  0  0  0
   58.5330   32.7860   44.7730 C   0  0  0  0  0  0  0  0  0  0  0  0
   58.7540   34.1560   44.5340 C   0  0  0  0  0  0  0  0  0  0  0  0
   59.2370   34.9770   45.5580 C   0  0  0  0  0  0  0  0  0  0  0  0
   59.5020   34.4450   46.8220 C   0  0  0  0  0  0  0  0  0  0  0  0
   59.2870   33.0860   47.0710 C   0  0  0  0  0  0  0  0  0  0  0  0
   58.8050   32.2550   46.0550 C   0  0  0  0  0  0  0  0  0  0  0  0
   58.5990   30.9340   46.3000 N   0  0  0  0  0  0  0  0  0  0  0  0
   56.6570   28.0520   45.6530 C   0  0  0  0  0  0  0  0  0  0  0  0
   53.2908   22.7709   48.8920 H   0  0  0  0  0  0  0  0  0  0  0  0
   54.6453   21.4377   50.5207 H   0  0  0  0  0  0  0  0  0  0  0  0
   56.8557   23.3859   46.5152 H   0  0  0  0  0  0  0  0  0  0  0  0
   57.4605   24.8793   46.6471 H   0  0  0  0  0  0  0  0  0  0  0  0
   59.7324   25.9069   46.7026 H   0  0  0  0  0  0  0  0  0  0  0  0
   60.0431   28.2971   46.0802 H   0  0  0  0  0  0  0  0  0  0  0  0
   57.4584   29.8931   43.2892 H   0  0  0  0  0  0  0  0  0  0  0  0
   58.5465   34.5809   43.5408 H   0  0  0  0  0  0  0  0  0  0  0  0
   59.4090   36.0466   45.3671 H   0  0  0  0  0  0  0  0  0  0  0  0
   59.8807   35.0966   47.6233 H   0  0  0  0  0  0  0  0  0  0  0  0
   59.4973   32.6701   48.0674 H   0  0  0  0  0  0  0  0  0  0  0  0
   55.7850   28.6595   45.3692 H   0  0  0  0  0  0  0  0  0  0  0  0
  1  2  2  0
  2  3  1  0
  3  4  1  0
  4  5  2  0
  5  6  1  0
  6  7  2  0
  7  8  1  0
  7  9  1  0
  9 10  2  0
  2 11  1  0
 11 12  1  0
 12 13  2  0
 13 14  1  0
 14 15  2  0
 15 16  1  0
 16 17  1  0
 17 18  2  0
 18 19  1  0
 19 20  2  0
 19 21  1  0
 21 22  2  0
 22 23  1  0
 23 24  2  0
 24 25  1  0
 25 26  2  0
 26 27  1  0
 16 28  2  0
 10  4  1  0
 28 12  1  0
 27 17  1  0
 26 21  1  0
  5 29  1  0
  6 30  1  0
 10 31  1  0
 13 32  1  0
 14 33  1  0
 15 34  1  0
 18 35  1  0
 22 36  1  0
 23 37  1  0
 24 38  1  0
 25 39  1  0
 28 40  1  0
M  CHG  3   3  -1  11  -1  27  -1
M  END
>  <UniqueID>  (66) 
57

>  <SMILES>  (66) 
O=C([N-]c1ccc(Cl)nc1)[N-]c1cccc(-c2cc(=O)c3ccccc3[n-]2)c1

>  <Energy>  (66) 
60.97990512599421

>  <Genealogy>  (66) 
O=C([N-]c1ccc(Cl)nc1)[N-]c1cccc(-c2cc(=O)c3ccccc3[n-]2)c1 (protonated)
O=C([N-]c1ccc(Cl)nc1)[N-]c1cccc(-c2cc(=O)c3ccccc3[n-]2)c1 (3D coordinates assigned)
O=C([N-]c1ccc(Cl)nc1)[N-]c1cccc(-c2cc(=O)c3ccccc3[n-]2)c1 (optimized conformer: 60.97990512599421 kcal/mol)

>  <smiles>  (66) 
O=C(Nc1ccc(Cl)nc1)Nc1cccc(-c2cc(=O)c3ccccc3[nH]2)c1

>  <score_type>  (66) 
oracle

>  <origin>  (66) 
adg

>  <m_score__min__energy>  (66) 
-12.65

>  <m_primary>  (66) 
energy

$$$$
66:0
     RDKit          3D

 37 38  0  0  0  0  0  0  0  0999 V2000
   61.1471   28.3644   45.5494 H   0  0  0  0  0  0  0  0  0  0  0  0
   60.0950   28.0680   45.4260 C   0  0  0  0  0  0  0  0  0  0  0  0
   59.5710   27.0210   46.1880 C   0  0  0  0  0  0  0  0  0  0  0  0
   60.2115   26.4918   46.9088 H   0  0  0  0  0  0  0  0  0  0  0  0
   58.2320   26.6450   46.0350 C   0  0  0  0  0  0  0  0  0  0  0  0
   57.5730   25.3360   47.0000 Cl  0  0  0  0  0  0  0  0  0  0  0  0
   57.4170   27.3140   45.1150 C   0  0  0  0  0  0  0  0  0  0  0  0
   56.3633   27.0198   45.0003 H   0  0  0  0  0  0  0  0  0  0  0  0
   57.9410   28.3610   44.3370 C   0  0  0  0  0  0  0  0  0  0  0  0
   57.0600   29.1050   43.3680 C   0  0  0  0  0  0  0  0  0  0  0  0
   56.0378   28.7036   43.4311 H   0  0  0  0  0  0  0  0  0  0  0  0
   57.4662   28.9722   42.3544 H   0  0  0  0  0  0  0  0  0  0  0  0
   57.0300   30.5800   43.6820 C   0  0  0  0  0  0  0  0  0  0  0  0
   57.0090   31.4130   42.7380 O   0  0  0  0  0  0  0  0  0  0  0  0
   56.9850   31.0690   45.0320 N   0  0  0  0  0  0  0  0  0  0  0  0
   57.6870   32.0420   45.5370 C   0  0  0  0  0  0  0  0  0  0  0  0
   58.3770   32.0910   47.0740 S   0  0  0  0  0  0  0  0  0  0  0  0
   59.1030   33.5920   46.8240 C   0  0  0  0  0  0  0  0  0  0  0  0
   59.9190   34.2870   47.8350 C   0  0  0  0  0  0  0  0  0  0  0  0
   59.3700   34.9280   48.7720 O   0  0  0  0  0  0  0  0  0  0  0  0
   61.3140   34.2310   47.7390 O   0  0  0  0  0  0  0  0  0  0  0  0
   62.0050   33.4710   46.7480 C   0  0  0  0  0  0  0  0  0  0  0  0
   61.8973   33.9670   45.7721 H   0  0  0  0  0  0  0  0  0  0  0  0
   61.5725   32.4602   46.7116 H   0  0  0  0  0  0  0  0  0  0  0  0
   63.4860   33.3590   47.0920 C   0  0  0  0  0  0  0  0  0  0  0  0
   63.6088   33.3497   48.1851 H   0  0  0  0  0  0  0  0  0  0  0  0
   63.8911   32.4277   46.6696 H   0  0  0  0  0  0  0  0  0  0  0  0
   64.0266   34.2188   46.6696 H   0  0  0  0  0  0  0  0  0  0  0  0
   58.7880   34.0140   45.5230 C   0  0  0  0  0  0  0  0  0  0  0  0
   59.2570   35.3030   44.9190 C   0  0  0  0  0  0  0  0  0  0  0  0
   59.5146   36.0111   45.7204 H   0  0  0  0  0  0  0  0  0  0  0  0
   60.1443   35.1149   44.2967 H   0  0  0  0  0  0  0  0  0  0  0  0
   58.4563   35.7291   44.2967 H   0  0  0  0  0  0  0  0  0  0  0  0
   58.0110   33.1420   44.8240 N   0  0  0  0  0  0  0  0  0  0  0  0
   57.6960   33.3010   43.8390 H   0  0  0  0  0  0  0  0  0  0  0  0
   59.2830   28.7400   44.5060 C   0  0  0  0  0  0  0  0  0  0  0  0
   59.6971   29.5685   43.9126 H   0  0  0  0  0  0  0  0  0  0  0  0
  1  2  1  0
  2  3  2  0
  3  4  1  0
  3  5  1  0
  5  6  1  0
  5  7  2  0
  7  8  1  0
  7  9  1  0
  9 10  1  0
 10 11  1  0
 10 12  1  0
 10 13  1  0
 13 14  2  0
 13 15  1  0
 15 16  2  0
 16 17  1  0
 17 18  1  0
 18 19  1  0
 19 20  2  0
 19 21  1  0
 21 22  1  0
 22 23  1  0
 22 24  1  0
 22 25  1  0
 25 26  1  0
 25 27  1  0
 25 28  1  0
 18 29  2  0
 29 30  1  0
 30 31  1  0
 30 32  1  0
 30 33  1  0
 29 34  1  0
 34 35  1  0
  9 36  2  0
 36 37  1  0
 36  2  1  0
 34 16  1  0
M  END
>  <UniqueID>  (67) 
58

>  <SMILES>  (67) 
CCOC(=O)c1s/c(=N\C(=O)Cc2cccc(Cl)c2)[nH]c1C

>  <Energy>  (67) 
67.71309276091688

>  <Genealogy>  (67) 
CCOC(=O)c1s/c(=N\C(=O)Cc2cccc(Cl)c2)[nH]c1C (cis-trans isomerization)
CCOC(=O)c1s/c(=N\C(=O)Cc2cccc(Cl)c2)[nH]c1C (3D coordinates assigned)
CCOC(=O)c1s/c(=N\C(=O)Cc2cccc(Cl)c2)[nH]c1C (optimized conformer: 67.71309276091688 kcal/mol)

>  <smiles>  (67) 
CCOC(=O)c1sc(=NC(=O)Cc2cccc(Cl)c2)[nH]c1C

>  <score_type>  (67) 
oracle

>  <origin>  (67) 
adg

>  <m_score__min__energy>  (67) 
-7.7999999999999998

>  <m_primary>  (67) 
energy

$$$$
67:0
     RDKit          3D

 74 78  0  0  0  0  0  0  0  0999 V2000
   63.6800   33.8410   49.0520 C   0  0  0  0  0  0  0  0  0  0  0  0
   62.9040   33.0030   48.0290 C   0  0  0  0  0  0  0  0  0  0  0  0
   63.7240   32.7980   46.7460 C   0  0  0  0  0  0  0  0  0  0  0  0
   61.5480   33.6310   47.7300 C   0  0  0  0  0  0  0  0  0  0  0  0
   61.1710   33.8620   46.3900 C   0  0  0  0  0  0  0  0  0  0  0  0
   59.9380   34.4380   46.0820 C   0  0  0  0  0  0  0  0  0  0  0  0
   59.0650   34.8110   47.1010 C   0  0  0  0  0  0  0  0  0  0  0  0
   59.4210   34.6050   48.4320 C   0  0  0  0  0  0  0  0  0  0  0  0
   60.6470   34.0100   48.7610 C   0  0  0  0  0  0  0  0  0  0  0  0
   61.0100   33.7670   50.5120 S   0  0  0  0  0  0  0  0  0  0  0  0
   59.4170   32.9560   50.8890 C   0  0  0  0  0  0  0  0  0  0  0  0
   59.6270   31.5270   51.3220 C   0  0  0  0  0  0  0  0  0  0  0  0
   59.9320   31.3270   52.4900 O   0  0  0  0  0  0  0  0  0  0  0  0
   59.4950   30.3330   50.3520 C   0  0  1  0  0  0  0  0  0  0  0  0
   58.9410   29.2240   51.0280 O   0  0  0  0  0  0  0  0  0  0  0  0
   58.5000   30.7110   49.2430 C   0  0  0  0  0  0  0  0  0  0  0  0
   59.3390   31.2370   48.1030 C   0  0  0  0  0  0  0  0  0  0  0  0
   60.5780   30.3390   48.0630 C   0  0  2  0  0  0  0  0  0  0  0  0
   60.4690   29.0880   47.1030 C   0  0  2  0  0  0  0  0  0  0  0  0
   59.9170   29.4050   45.6990 C   0  0  0  0  0  0  0  0  0  0  0  0
   58.4410   29.0380   45.5810 C   0  0  0  0  0  0  0  0  0  0  0  0
   58.2450   27.5190   45.6810 C   0  0  2  0  0  0  0  0  0  0  0  0
   56.7270   27.2320   45.6060 C   0  0  0  0  0  0  0  0  0  0  0  0
   56.4440   25.7870   45.8620 C   0  0  0  0  0  0  0  0  0  0  0  0
   55.6830   25.1690   45.1320 O   0  0  0  0  0  0  0  0  0  0  0  0
   57.0530   25.1170   47.0520 C   0  0  0  0  0  0  0  0  0  0  0  0
   57.9650   26.0780   47.8300 C   0  0  0  0  0  0  0  0  0  0  0  0
   58.9920   26.8480   46.9240 C   0  0  1  0  0  0  0  0  0  0  0  0
   60.0270   25.8300   46.3860 C   0  0  0  0  0  0  0  0  0  0  0  0
   59.8060   27.8750   47.7580 C   0  0  0  0  0  0  0  0  0  0  0  0
   60.2300   27.5840   49.0090 C   0  0  0  0  0  0  0  0  0  0  0  0
   61.2310   28.4670   49.6980 C   0  0  0  0  0  0  0  0  0  0  0  0
   60.8440   29.9690   49.5720 C   0  0  2  0  0  0  0  0  0  0  0  0
   62.0670   30.7780   50.0850 C   0  0  0  0  0  0  0  0  0  0  0  0
   63.3954   33.5337   50.0691 H   0  0  0  0  0  0  0  0  0  0  0  0
   64.7596   33.6850   48.9104 H   0  0  0  0  0  0  0  0  0  0  0  0
   63.4416   34.9055   48.9104 H   0  0  0  0  0  0  0  0  0  0  0  0
   62.7235   32.0102   48.4670 H   0  0  0  0  0  0  0  0  0  0  0  0
   64.7599   32.5390   47.0104 H   0  0  0  0  0  0  0  0  0  0  0  0
   63.2818   31.9828   46.1545 H   0  0  0  0  0  0  0  0  0  0  0  0
   63.7174   33.7254   46.1545 H   0  0  0  0  0  0  0  0  0  0  0  0
   61.8583   33.5843   45.5773 H   0  0  0  0  0  0  0  0  0  0  0  0
   59.6546   34.5980   45.0312 H   0  0  0  0  0  0  0  0  0  0  0  0
   58.0951   35.2679   46.8551 H   0  0  0  0  0  0  0  0  0  0  0  0
   58.7329   34.9124   49.2332 H   0  0  0  0  0  0  0  0  0  0  0  0
   58.9155   33.5070   51.6982 H   0  0  0  0  0  0  0  0  0  0  0  0
   58.7984   32.9592   49.9795 H   0  0  0  0  0  0  0  0  0  0  0  0
   59.0420   29.3590   52.0020 H   0  0  0  0  0  0  0  0  0  0  0  0
   57.9287   29.8272   48.9228 H   0  0  0  0  0  0  0  0  0  0  0  0
   57.7711   31.4585   49.5891 H   0  0  0  0  0  0  0  0  0  0  0  0
   58.7850   31.1711   47.1550 H   0  0  0  0  0  0  0  0  0  0  0  0
   59.6047   32.2950   48.2445 H   0  0  0  0  0  0  0  0  0  0  0  0
   61.4306   30.8671   47.6111 H   0  0  0  0  0  0  0  0  0  0  0  0
   61.5133   28.7930   46.9227 H   0  0  0  0  0  0  0  0  0  0  0  0
   60.0342   30.4812   45.5038 H   0  0  0  0  0  0  0  0  0  0  0  0
   60.4798   28.8096   44.9650 H   0  0  0  0  0  0  0  0  0  0  0  0
   57.8821   29.5275   46.3922 H   0  0  0  0  0  0  0  0  0  0  0  0
   58.0717   29.3764   44.6017 H   0  0  0  0  0  0  0  0  0  0  0  0
   58.7396   27.0271   44.8305 H   0  0  0  0  0  0  0  0  0  0  0  0
   56.2078   27.8400   46.3615 H   0  0  0  0  0  0  0  0  0  0  0  0
   56.3707   27.4864   44.5969 H   0  0  0  0  0  0  0  0  0  0  0  0
   56.2491   24.7690   47.7173 H   0  0  0  0  0  0  0  0  0  0  0  0
   57.6614   24.2710   46.6996 H   0  0  0  0  0  0  0  0  0  0  0  0
   57.3327   26.8173   48.3435 H   0  0  0  0  0  0  0  0  0  0  0  0
   58.5513   25.4667   48.5319 H   0  0  0  0  0  0  0  0  0  0  0  0
   60.5290   25.3362   47.2311 H   0  0  0  0  0  0  0  0  0  0  0  0
   59.5139   25.0749   45.7724 H   0  0  0  0  0  0  0  0  0  0  0  0
   60.7735   26.3556   45.7724 H   0  0  0  0  0  0  0  0  0  0  0  0
   59.8392   26.6948   49.5253 H   0  0  0  0  0  0  0  0  0  0  0  0
   61.2736   28.1964   50.7634 H   0  0  0  0  0  0  0  0  0  0  0  0
   62.2102   28.3202   49.2188 H   0  0  0  0  0  0  0  0  0  0  0  0
   62.0700   30.7800   51.1850 H   0  0  0  0  0  0  0  0  0  0  0  0
   62.9940   30.3143   49.7166 H   0  0  0  0  0  0  0  0  0  0  0  0
   62.0030   31.8125   49.7166 H   0  0  0  0  0  0  0  0  0  0  0  0
  1  2  1  0
  2  3  1  0
  2  4  1  0
  4  5  2  0
  5  6  1  0
  6  7  2  0
  7  8  1  0
  8  9  2  0
  9 10  1  0
 10 11  1  0
 11 12  1  0
 12 13  2  0
 12 14  1  0
 14 15  1  1
 14 16  1  0
 16 17  1  0
 17 18  1  0
 18 19  1  0
 19 20  1  0
 20 21  1  0
 21 22  1  0
 22 23  1  0
 23 24  1  0
 24 25  2  0
 24 26  1  0
 26 27  1  0
 27 28  1  0
 28 29  1  6
 28 30  1  0
 30 31  2  0
 31 32  1  0
 32 33  1  0
 33 34  1  1
  9  4  1  0
 33 14  1  0
 33 18  1  0
 30 19  1  0
 28 22  1  0
  1 35  1  0
  1 36  1  0
  1 37  1  0
  2 38  1  0
  3 39  1  0
  3 40  1  0
  3 41  1  0
  5 42  1  0
  6 43  1  0
  7 44  1  0
  8 45  1  0
 11 46  1  0
 11 47  1  0
 15 48  1  0
 16 49  1  0
 16 50  1  0
 17 51  1  0
 17 52  1  0
 18 53  1  6
 19 54  1  6
 20 55  1  0
 20 56  1  0
 21 57  1  0
 21 58  1  0
 22 59  1  6
 23 60  1  0
 23 61  1  0
 26 62  1  0
 26 63  1  0
 27 64  1  0
 27 65  1  0
 29 66  1  0
 29 67  1  0
 29 68  1  0
 31 69  1  0
 32 70  1  0
 32 71  1  0
 34 72  1  0
 34 73  1  0
 34 74  1  0
M  END
>  <UniqueID>  (68) 
59

>  <SMILES>  (68) 
CC(C)c1ccccc1SCC(=O)[C@@]1(O)CC[C@@H]2C3CCC4CC(=O)CCC4(C)C3=CCC21C

>  <Energy>  (68) 
104.73701975641055

>  <Genealogy>  (68) 
CC(C)c1ccccc1SCC(=O)[C@@]1(O)CC[C@@H]2C3CCC4CC(=O)CCC4(C)C3=CCC21C (chirality)
CC(C)c1ccccc1SCC(=O)[C@@]1(O)CC[C@@H]2C3CCC4CC(=O)CCC4(C)C3=CCC21C (3D coordinates assigned)
CC(C)c1ccccc1SCC(=O)[C@@]1(O)CC[C@@H]2C3CCC4CC(=O)CCC4(C)C3=CCC21C (nonaromatic ring conformer: 104.73701975641055 kcal/mol)

>  <smiles>  (68) 
CC(C)c1ccccc1SCC(=O)C1(O)CCC2C3CCC4CC(=O)CCC4(C)C3=CCC21C

>  <score_type>  (68) 
oracle

>  <origin>  (68) 
adg

>  <m_score__min__energy>  (68) 
-9.4399999999999995

>  <m_primary>  (68) 
energy

$$$$
68:0
     RDKit          3D

 39 41  0  0  0  0  0  0  0  0999 V2000
   58.7940   32.4965   45.6575 H   0  0  0  0  0  0  0  0  0  0  0  0
   58.3070   31.6870   45.0940 C   0  0  0  0  0  0  0  0  0  0  0  0
   58.0240   30.4700   45.7220 C   0  0  0  0  0  0  0  0  0  0  0  0
   58.3000   30.3218   46.7764 H   0  0  0  0  0  0  0  0  0  0  0  0
   57.3890   29.4350   45.0140 C   0  0  0  0  0  0  0  0  0  0  0  0
   57.1200   28.1430   45.6860 C   0  0  0  0  0  0  0  0  0  0  0  0
   55.8840   27.5890   45.5450 N   0  0  0  0  0  0  0  0  0  0  0  0
   55.5580   26.4100   46.1300 C   0  0  0  0  0  0  0  0  0  0  0  0
   54.3620   25.9270   45.9660 N   0  0  0  0  0  0  0  0  0  0  0  0
   54.0610   24.5380   45.6200 C   0  0  0  0  0  0  0  0  0  0  0  0
   53.3014   24.5197   44.8246 H   0  0  0  0  0  0  0  0  0  0  0  0
   53.6852   24.0221   46.5159 H   0  0  0  0  0  0  0  0  0  0  0  0
   55.3010   23.8330   45.1370 C   0  0  0  0  0  0  0  0  0  0  0  0
   55.6220   23.8050   43.7710 C   0  0  0  0  0  0  0  0  0  0  0  0
   54.9735   24.3181   43.0456 H   0  0  0  0  0  0  0  0  0  0  0  0
   56.7620   23.1280   43.3280 C   0  0  0  0  0  0  0  0  0  0  0  0
   57.0045   23.1119   42.2552 H   0  0  0  0  0  0  0  0  0  0  0  0
   57.5980   22.4700   44.2390 C   0  0  0  0  0  0  0  0  0  0  0  0
   58.7300   21.8050   43.7450 O   0  0  0  0  0  0  0  0  0  0  0  0
   60.0160   21.8490   44.3520 C   0  0  0  0  0  0  0  0  0  0  0  0
   59.9052   21.8452   45.4464 H   0  0  0  0  0  0  0  0  0  0  0  0
   60.5992   20.9703   44.0395 H   0  0  0  0  0  0  0  0  0  0  0  0
   60.5378   22.7655   44.0395 H   0  0  0  0  0  0  0  0  0  0  0  0
   57.2750   22.4970   45.6100 C   0  0  0  0  0  0  0  0  0  0  0  0
   57.9237   21.9846   46.3357 H   0  0  0  0  0  0  0  0  0  0  0  0
   56.1340   23.1720   46.0520 C   0  0  0  0  0  0  0  0  0  0  0  0
   55.8875   23.1851   47.1239 H   0  0  0  0  0  0  0  0  0  0  0  0
   56.4820   25.7520   46.8800 N   0  0  0  0  0  0  0  0  0  0  0  0
   57.7360   26.2440   47.0450 C   0  0  0  0  0  0  0  0  0  0  0  0
   58.5660   25.5940   47.7350 O   0  0  0  0  0  0  0  0  0  0  0  0
   58.0960   27.4600   46.4440 C   0  0  0  0  0  0  0  0  0  0  0  0
   59.4530   27.9460   46.5580 C   0  0  0  0  0  0  0  0  0  0  0  0
   60.5400   28.3360   46.6500 N   0  0  0  0  0  0  0  0  0  0  0  0
   57.0740   29.6280   43.6560 C   0  0  0  0  0  0  0  0  0  0  0  0
   56.6012   28.8166   43.0833 H   0  0  0  0  0  0  0  0  0  0  0  0
   57.3590   30.8460   43.0310 C   0  0  0  0  0  0  0  0  0  0  0  0
   57.1009   30.9938   41.9720 H   0  0  0  0  0  0  0  0  0  0  0  0
   57.9710   31.8750   43.7500 C   0  0  0  0  0  0  0  0  0  0  0  0
   58.2480   33.0550   43.1420 F   0  0  0  0  0  0  0  0  0  0  0  0
  1  2  1  0
  2  3  2  0
  3  4  1  0
  3  5  1  0
  5  6  1  0
  6  7  1  0
  7  8  1  0
  8  9  2  0
  9 10  1  0
 10 11  1  0
 10 12  1  0
 10 13  1  0
 13 14  2  0
 14 15  1  0
 14 16  1  0
 16 17  1  0
 16 18  2  0
 18 19  1  0
 19 20  1  0
 20 21  1  0
 20 22  1  0
 20 23  1  0
 18 24  1  0
 24 25  1  0
 24 26  2  0
 26 27  1  0
  8 28  1  0
 28 29  1  0
 29 30  2  0
 29 31  1  0
 31 32  1  0
 32 33  3  0
  5 34  2  0
 34 35  1  0
 34 36  1  0
 36 37  1  0
 36 38  2  0
 38 39  1  0
 38  2  1  0
 31  6  2  0
 26 13  1  0
M  CHG  2   7  -1  28  -1
M  END
>  <UniqueID>  (69) 
60

>  <SMILES>  (69) 
COc1ccc(C/N=c2/[n-]c(-c3ccc(F)cc3)c(C#N)c(=O)[n-]2)cc1

>  <Energy>  (69) 
48.370792343034076

>  <Genealogy>  (69) 
COc1ccc(CN=c2[n-]c(-c3ccc(F)cc3)c(C#N)c(=O)[n-]2)cc1 (protonated)
COc1ccc(C/N=c2/[n-]c(-c3ccc(F)cc3)c(C#N)c(=O)[n-]2)cc1 (cis-trans isomerization)
COc1ccc(C/N=c2/[n-]c(-c3ccc(F)cc3)c(C#N)c(=O)[n-]2)cc1 (3D coordinates assigned)
COc1ccc(C/N=c2/[n-]c(-c3ccc(F)cc3)c(C#N)c(=O)[n-]2)cc1 (optimized conformer: 48.370792343034076 kcal/mol)

>  <smiles>  (69) 
COc1ccc(CN=c2[nH]c(-c3ccc(F)cc3)c(C#N)c(=O)[nH]2)cc1

>  <score_type>  (69) 
oracle

>  <origin>  (69) 
adg

>  <m_score__min__energy>  (69) 
-10.85

>  <m_primary>  (69) 
energy

$$$$
69:0
     RDKit          3D

 40 43  0  0  0  0  0  0  0  0999 V2000
   53.7360   26.2520   46.4080 H   0  0  0  0  0  0  0  0  0  0  0  0
   54.3150   25.8860   45.6200 N   0  0  0  0  0  0  0  0  0  0  0  0
   54.5730   24.6240   45.5110 C   0  0  0  0  0  0  0  0  0  0  0  0
   53.6520   23.6500   45.6820 N   0  0  0  0  0  0  0  0  0  0  0  0
   54.2580   22.5150   45.4500 O   0  0  0  0  0  0  0  0  0  0  0  0
   55.5160   22.7230   45.1390 C   0  0  0  0  0  0  0  0  0  0  0  0
   56.4820   21.7820   44.7980 C   0  0  0  0  0  0  0  0  0  0  0  0
   56.2505   20.7067   44.7883 H   0  0  0  0  0  0  0  0  0  0  0  0
   57.7650   22.2530   44.4660 C   0  0  0  0  0  0  0  0  0  0  0  0
   58.5523   21.5385   44.1838 H   0  0  0  0  0  0  0  0  0  0  0  0
   58.0510   23.6370   44.4920 C   0  0  0  0  0  0  0  0  0  0  0  0
   59.0581   23.9886   44.2233 H   0  0  0  0  0  0  0  0  0  0  0  0
   57.0590   24.5750   44.8590 C   0  0  0  0  0  0  0  0  0  0  0  0
   57.3780   26.0160   44.9160 C   0  0  0  0  0  0  0  0  0  0  0  0
   57.8000   26.6920   43.7610 C   0  0  0  0  0  0  0  0  0  0  0  0
   57.8778   26.1495   42.8073 H   0  0  0  0  0  0  0  0  0  0  0  0
   58.1220   28.0510   43.8160 C   0  0  0  0  0  0  0  0  0  0  0  0
   58.4586   28.5697   42.9063 H   0  0  0  0  0  0  0  0  0  0  0  0
   58.0190   28.7580   45.0230 C   0  0  0  0  0  0  0  0  0  0  0  0
   58.3780   30.1490   45.0550 N   0  0  0  0  0  0  0  0  0  0  0  0
   59.3830   30.3800   45.2210 H   0  0  0  0  0  0  0  0  0  0  0  0
   57.4630   31.2240   44.7790 C   0  0  0  0  0  0  0  0  0  0  0  0
   56.2490   30.9860   44.5430 O   0  0  0  0  0  0  0  0  0  0  0  0
   57.9040   32.5870   44.7980 N   0  0  0  0  0  0  0  0  0  0  0  0
   58.4620   33.2740   45.9270 C   0  0  0  0  0  0  0  0  0  0  0  0
   58.4740   32.6910   47.2070 C   0  0  0  0  0  0  0  0  0  0  0  0
   58.0254   31.6987   47.3622 H   0  0  0  0  0  0  0  0  0  0  0  0
   59.0550   33.3700   48.2830 C   0  0  0  0  0  0  0  0  0  0  0  0
   59.0496   32.9171   49.2854 H   0  0  0  0  0  0  0  0  0  0  0  0
   59.6420   34.6220   48.0870 C   0  0  0  0  0  0  0  0  0  0  0  0
   60.0918   35.1575   48.9361 H   0  0  0  0  0  0  0  0  0  0  0  0
   59.6580   35.1950   46.8110 C   0  0  0  0  0  0  0  0  0  0  0  0
   60.1270   36.1778   46.6558 H   0  0  0  0  0  0  0  0  0  0  0  0
   59.0780   34.5190   45.7320 C   0  0  0  0  0  0  0  0  0  0  0  0
   59.1040   35.0830   44.4980 F   0  0  0  0  0  0  0  0  0  0  0  0
   57.6360   28.0720   46.1880 C   0  0  0  0  0  0  0  0  0  0  0  0
   57.5885   28.6073   47.1478 H   0  0  0  0  0  0  0  0  0  0  0  0
   57.3150   26.7120   46.1330 C   0  0  0  0  0  0  0  0  0  0  0  0
   57.0113   26.1846   47.0493 H   0  0  0  0  0  0  0  0  0  0  0  0
   55.7880   24.0650   45.1720 C   0  0  0  0  0  0  0  0  0  0  0  0
  1  2  1  0
  2  3  2  0
  3  4  1  0
  4  5  1  0
  5  6  1  0
  6  7  2  0
  7  8  1  0
  7  9  1  0
  9 10  1  0
  9 11  2  0
 11 12  1  0
 11 13  1  0
 13 14  1  0
 14 15  2  0
 15 16  1  0
 15 17  1  0
 17 18  1  0
 17 19  2  0
 19 20  1  0
 20 21  1  0
 20 22  1  0
 22 23  2  0
 22 24  1  0
 24 25  1  0
 25 26  2  0
 26 27  1  0
 26 28  1  0
 28 29  1  0
 28 30  2  0
 30 31  1  0
 30 32  1  0
 32 33  1  0
 32 34  2  0
 34 35  1  0
 19 36  1  0
 36 37  1  0
 36 38  2  0
 38 39  1  0
 13 40  2  0
 40  3  1  0
 40  6  1  0
 38 14  1  0
 34 25  1  0
M  CHG  2   4  -1  24  -1
M  END
>  <UniqueID>  (70) 
61

>  <SMILES>  (70) 
[H]/N=c1\[n-]oc2cccc(-c3ccc(NC(=O)[N-]c4ccccc4F)cc3)c12

>  <Energy>  (70) 
101.07182458024332

>  <Genealogy>  (70) 
N=c1[n-]oc2cccc(-c3ccc(NC(=O)[N-]c4ccccc4F)cc3)c12 (protonated)
[H]/N=c1\[n-]oc2cccc(-c3ccc(NC(=O)[N-]c4ccccc4F)cc3)c12 (cis-trans isomerization)
[H]/N=c1\[n-]oc2cccc(-c3ccc(NC(=O)[N-]c4ccccc4F)cc3)c12 (3D coordinates assigned)
[H]/N=c1\[n-]oc2cccc(-c3ccc(NC(=O)[N-]c4ccccc4F)cc3)c12 (optimized conformer: 101.07182458024332 kcal/mol)

>  <smiles>  (70) 
N=c1[nH]oc2cccc(-c3ccc(NC(=O)Nc4ccccc4F)cc3)c12

>  <score_type>  (70) 
oracle

>  <origin>  (70) 
adg

>  <m_score__min__energy>  (70) 
-12.279999999999999

>  <m_primary>  (70) 
energy

$$$$
70:0
     RDKit          3D

 49 52  0  0  0  0  0  0  0  0999 V2000
   50.9880   32.9620   51.8380 O   0  0  0  0  0  0  0  0  0  0  0  0
   51.4130   32.3290   50.8350 C   0  0  0  0  0  0  0  0  0  0  0  0
   50.6570   32.2970   49.6700 O   0  0  0  0  0  0  0  0  0  0  0  0
   52.7480   31.6660   50.8790 C   0  0  0  0  0  0  0  0  0  0  0  0
   52.8320   30.8560   52.0490 O   0  0  0  0  0  0  0  0  0  0  0  0
   54.0210   30.5780   52.7390 C   0  0  0  0  0  0  0  0  0  0  0  0
   54.0440   29.7870   53.9020 C   0  0  0  0  0  0  0  0  0  0  0  0
   55.2580   29.5420   54.5430 C   0  0  0  0  0  0  0  0  0  0  0  0
   56.4360   30.0810   54.0300 C   0  0  0  0  0  0  0  0  0  0  0  0
   56.3880   30.8670   52.8720 C   0  0  0  0  0  0  0  0  0  0  0  0
   57.5910   31.4390   52.3330 N   0  0  0  0  0  0  0  0  0  0  0  0
   58.3970   32.3290   53.1900 C   0  0  0  0  0  0  0  0  0  0  0  0
   59.4800   33.0770   52.4020 C   0  0  0  0  0  0  0  0  0  0  0  0
   60.1970   32.1450   51.4780 C   0  0  0  0  0  0  0  0  0  0  0  0
   61.5360   32.2710   51.2790 N   0  0  0  0  0  0  0  0  0  0  0  0
   62.1870   31.4690   50.3960 C   0  0  0  0  0  0  0  0  0  0  0  0
   63.9460   31.6720   50.1330 S   0  0  0  0  0  0  0  0  0  0  0  0
   63.8020   33.3480   49.4190 C   0  0  0  0  0  0  0  0  0  0  0  0
   62.5340   33.4920   48.6190 C   0  0  0  0  0  0  0  0  0  0  0  0
   61.4920   34.3090   49.0890 C   0  0  0  0  0  0  0  0  0  0  0  0
   60.2990   34.4160   48.3680 C   0  0  0  0  0  0  0  0  0  0  0  0
   60.1370   33.7110   47.1730 C   0  0  0  0  0  0  0  0  0  0  0  0
   58.9800   33.8150   46.4760 F   0  0  0  0  0  0  0  0  0  0  0  0
   61.1670   32.8930   46.6990 C   0  0  0  0  0  0  0  0  0  0  0  0
   62.3620   32.7800   47.4180 C   0  0  0  0  0  0  0  0  0  0  0  0
   63.3470   31.9740   46.9460 F   0  0  0  0  0  0  0  0  0  0  0  0
   61.4990   30.5360   49.6880 N   0  0  0  0  0  0  0  0  0  0  0  0
   60.1590   30.3840   49.8420 C   0  0  0  0  0  0  0  0  0  0  0  0
   59.5500   29.5220   49.1530 O   0  0  0  0  0  0  0  0  0  0  0  0
   59.4680   31.1900   50.7610 C   0  0  0  0  0  0  0  0  0  0  0  0
   57.9740   31.1120   50.9490 C   0  0  0  0  0  0  0  0  0  0  0  0
   55.1890   31.0960   52.2600 N   0  0  0  0  0  0  0  0  0  0  0  0
   52.8755   31.0365   49.9860 H   0  0  0  0  0  0  0  0  0  0  0  0
   53.5390   32.4301   50.9016 H   0  0  0  0  0  0  0  0  0  0  0  0
   53.1108   29.3646   54.3030 H   0  0  0  0  0  0  0  0  0  0  0  0
   55.2856   28.9240   55.4525 H   0  0  0  0  0  0  0  0  0  0  0  0
   57.3966   29.8905   54.5309 H   0  0  0  0  0  0  0  0  0  0  0  0
   57.7295   33.0663   53.6600 H   0  0  0  0  0  0  0  0  0  0  0  0
   58.9010   31.7041   53.9420 H   0  0  0  0  0  0  0  0  0  0  0  0
   59.0101   33.8789   51.8136 H   0  0  0  0  0  0  0  0  0  0  0  0
   60.2058   33.5009   53.1116 H   0  0  0  0  0  0  0  0  0  0  0  0
   63.7976   34.0863   50.2344 H   0  0  0  0  0  0  0  0  0  0  0  0
   64.6578   33.5158   48.7486 H   0  0  0  0  0  0  0  0  0  0  0  0
   61.6155   34.8671   50.0288 H   0  0  0  0  0  0  0  0  0  0  0  0
   59.4867   35.0563   48.7423 H   0  0  0  0  0  0  0  0  0  0  0  0
   61.0376   32.3370   45.7587 H   0  0  0  0  0  0  0  0  0  0  0  0
   57.4891   31.8243   50.2652 H   0  0  0  0  0  0  0  0  0  0  0  0
   57.6501   30.0832   50.7330 H   0  0  0  0  0  0  0  0  0  0  0  0
   55.1610   31.6690   51.3880 H   0  0  0  0  0  0  0  0  0  0  0  0
  1  2  2  0
  2  3  1  0
  2  4  1  0
  4  5  1  0
  5  6  1  0
  6  7  2  0
  7  8  1  0
  8  9  2  0
  9 10  1  0
 10 11  1  0
 11 12  1  0
 12 13  1  0
 13 14  1  0
 14 15  1  0
 15 16  1  0
 16 17  1  0
 17 18  1  0
 18 19  1  0
 19 20  2  0
 20 21  1  0
 21 22  2  0
 22 23  1  0
 22 24  1  0
 24 25  2  0
 25 26  1  0
 16 27  2  0
 27 28  1  0
 28 29  2  0
 28 30  1  0
 30 31  1  0
 10 32  2  0
 32  6  1  0
 31 11  1  0
 30 14  2  0
 25 19  1  0
  4 33  1  0
  4 34  1  0
  7 35  1  0
  8 36  1  0
  9 37  1  0
 12 38  1  0
 12 39  1  0
 13 40  1  0
 13 41  1  0
 18 42  1  0
 18 43  1  0
 20 44  1  0
 21 45  1  0
 24 46  1  0
 31 47  1  0
 31 48  1  0
 32 49  1  0
M  CHG  3   3  -1  15  -1  32   1
M  END
>  <UniqueID>  (71) 
62

>  <SMILES>  (71) 
O=C([O-])COc1cccc(N2CCc3[n-]c(SCc4ccc(F)cc4F)nc(=O)c3C2)[nH+]1

>  <Energy>  (71) 
55.90607118935957

>  <Genealogy>  (71) 
O=C([O-])COc1cccc(N2CCc3[n-]c(SCc4ccc(F)cc4F)nc(=O)c3C2)[nH+]1 (protonated)
O=C([O-])COc1cccc(N2CCc3[n-]c(SCc4ccc(F)cc4F)nc(=O)c3C2)[nH+]1 (3D coordinates assigned)
O=C([O-])COc1cccc(N2CCc3[n-]c(SCc4ccc(F)cc4F)nc(=O)c3C2)[nH+]1 (nonaromatic ring conformer: 55.90607118935957 kcal/mol)

>  <smiles>  (71) 
O=C(O)COc1cccc(N2CCc3[nH]c(SCc4ccc(F)cc4F)nc(=O)c3C2)n1

>  <score_type>  (71) 
oracle

>  <origin>  (71) 
adg

>  <m_score__min__energy>  (71) 
-11.65

>  <m_primary>  (71) 
energy

$$$$
71:0
     RDKit          3D

 38 40  0  0  0  0  0  0  0  0999 V2000
   57.4290   27.7860   43.8960 N   0  0  0  0  0  0  0  0  0  0  0  0
   56.8420   29.1180   44.8290 S   0  0  0  0  0  0  0  0  0  0  0  0
   55.3400   29.0710   44.8810 O   0  0  0  0  0  0  0  0  0  0  0  0
   57.3750   29.0200   46.2310 O   0  0  0  0  0  0  0  0  0  0  0  0
   57.3660   30.6300   44.0940 C   0  0  0  0  0  0  0  0  0  0  0  0
   57.2130   30.8340   42.7170 C   0  0  0  0  0  0  0  0  0  0  0  0
   57.6200   32.0370   42.1370 C   0  0  0  0  0  0  0  0  0  0  0  0
   58.1740   33.0470   42.9290 C   0  0  0  0  0  0  0  0  0  0  0  0
   58.3150   32.8660   44.3170 C   0  0  0  0  0  0  0  0  0  0  0  0
   58.9050   33.9310   45.1600 C   0  0  0  0  0  0  0  0  0  0  0  0
   58.6780   35.1420   44.8850 O   0  0  0  0  0  0  0  0  0  0  0  0
   59.7180   33.6090   46.3000 N   0  0  0  0  0  0  0  0  0  0  0  0
   59.0900   33.0800   47.5110 C   0  0  0  0  0  0  0  0  0  0  0  0
   59.9600   31.9680   48.0890 C   0  0  0  0  0  0  0  0  0  0  0  0
   61.4080   32.3780   48.1830 C   0  0  0  0  0  0  0  0  0  0  0  0
   62.2630   31.6780   49.0500 C   0  0  0  0  0  0  0  0  0  0  0  0
   63.6210   31.9960   49.1140 C   0  0  0  0  0  0  0  0  0  0  0  0
   64.1420   33.0070   48.3060 C   0  0  0  0  0  0  0  0  0  0  0  0
   63.3070   33.7010   47.4270 C   0  0  0  0  0  0  0  0  0  0  0  0
   61.9410   33.3870   47.3460 C   0  0  0  0  0  0  0  0  0  0  0  0
   61.0630   34.1870   46.4150 C   0  0  0  0  0  0  0  0  0  0  0  0
   57.9130   31.6460   44.8900 C   0  0  0  0  0  0  0  0  0  0  0  0
   57.0170   27.8780   42.9410 H   0  0  0  0  0  0  0  0  0  0  0  0
   57.0260   26.9180   44.3170 H   0  0  0  0  0  0  0  0  0  0  0  0
   56.7712   30.0447   42.0910 H   0  0  0  0  0  0  0  0  0  0  0  0
   57.5044   32.1905   41.0539 H   0  0  0  0  0  0  0  0  0  0  0  0
   58.5016   33.9887   42.4643 H   0  0  0  0  0  0  0  0  0  0  0  0
   58.9847   33.8862   48.2519 H   0  0  0  0  0  0  0  0  0  0  0  0
   58.0963   32.6781   47.2639 H   0  0  0  0  0  0  0  0  0  0  0  0
   59.5951   31.7182   49.0962 H   0  0  0  0  0  0  0  0  0  0  0  0
   59.8946   31.0998   47.4167 H   0  0  0  0  0  0  0  0  0  0  0  0
   61.8599   30.8737   49.6830 H   0  0  0  0  0  0  0  0  0  0  0  0
   64.2813   31.4485   49.8027 H   0  0  0  0  0  0  0  0  0  0  0  0
   65.2116   33.2580   48.3611 H   0  0  0  0  0  0  0  0  0  0  0  0
   63.7226   34.4989   46.7940 H   0  0  0  0  0  0  0  0  0  0  0  0
   60.9773   35.2134   46.8012 H   0  0  0  0  0  0  0  0  0  0  0  0
   61.5253   34.1765   45.4169 H   0  0  0  0  0  0  0  0  0  0  0  0
   58.0289   31.4877   45.9724 H   0  0  0  0  0  0  0  0  0  0  0  0
  1  2  1  0
  2  3  2  0
  2  4  2  0
  2  5  1  0
  5  6  2  0
  6  7  1  0
  7  8  2  0
  8  9  1  0
  9 10  1  0
 10 11  2  0
 10 12  1  0
 12 13  1  0
 13 14  1  0
 14 15  1  0
 15 16  2  0
 16 17  1  0
 17 18  2  0
 18 19  1  0
 19 20  2  0
 20 21  1  0
  9 22  2  0
 22  5  1  0
 21 12  1  0
 20 15  1  0
  1 23  1  0
  1 24  1  0
  6 25  1  0
  7 26  1  0
  8 27  1  0
 13 28  1  0
 13 29  1  0
 14 30  1  0
 14 31  1  0
 16 32  1  0
 17 33  1  0
 18 34  1  0
 19 35  1  0
 21 36  1  0
 21 37  1  0
 22 38  1  0
M  END
>  <UniqueID>  (72) 
63

>  <SMILES>  (72) 
NS(=O)(=O)c1cccc(C(=O)N2CCc3ccccc3C2)c1

>  <Energy>  (72) 
44.88106792250122

>  <Genealogy>  (72) 
NS(=O)(=O)c1cccc(C(=O)N2CCc3ccccc3C2)c1 (3D coordinates assigned)
NS(=O)(=O)c1cccc(C(=O)N2CCc3ccccc3C2)c1 (nonaromatic ring conformer: 44.88106792250122 kcal/mol)

>  <smiles>  (72) 
NS(=O)(=O)c1cccc(C(=O)N2CCc3ccccc3C2)c1

>  <score_type>  (72) 
oracle

>  <origin>  (72) 
adg

>  <m_score__min__energy>  (72) 
-8.8800000000000008

>  <m_primary>  (72) 
energy

$$$$
72:0
     RDKit          3D

 41 43  0  0  0  0  0  0  0  0999 V2000
   55.1490   26.4670   45.9940 N   0  0  0  0  0  0  0  0  0  0  0  0
   56.8360   26.8390   45.9560 S   0  0  0  0  0  0  0  0  0  0  0  0
   57.5510   25.8420   45.0860 O   0  0  0  0  0  0  0  0  0  0  0  0
   57.3970   26.7550   47.3460 O   0  0  0  0  0  0  0  0  0  0  0  0
   57.0660   28.4620   45.3140 C   0  0  0  0  0  0  0  0  0  0  0  0
   58.3030   29.1040   45.4450 C   0  0  0  0  0  0  0  0  0  0  0  0
   58.4810   30.3960   44.9420 C   0  0  0  0  0  0  0  0  0  0  0  0
   57.4270   31.0660   44.3010 C   0  0  0  0  0  0  0  0  0  0  0  0
   57.6480   32.3920   43.7830 N   0  0  0  0  0  0  0  0  0  0  0  0
   57.3370   33.6250   44.5090 C   0  0  0  0  0  0  0  0  0  0  0  0
   58.1850   33.7410   45.7480 C   0  0  0  0  0  0  0  0  0  0  0  0
   59.3250   34.5630   45.7580 C   0  0  0  0  0  0  0  0  0  0  0  0
   60.1180   34.6550   46.9060 C   0  0  0  0  0  0  0  0  0  0  0  0
   59.7730   33.9410   48.0630 C   0  0  0  0  0  0  0  0  0  0  0  0
   60.6600   33.9920   49.2760 C   0  0  0  0  0  0  0  0  0  0  0  0
   62.0060   33.5560   48.9220 N   0  0  0  0  0  0  0  0  0  0  0  0
   62.3180   32.5250   48.1160 C   0  0  0  0  0  0  0  0  0  0  0  0
   63.6890   32.3910   48.0970 C   0  0  0  0  0  0  0  0  0  0  0  0
   64.1520   33.3850   48.9370 C   0  0  0  0  0  0  0  0  0  0  0  0
   63.1080   34.0780   49.4350 N   0  0  0  0  0  0  0  0  0  0  0  0
   58.6350   33.1220   48.0550 C   0  0  0  0  0  0  0  0  0  0  0  0
   57.8410   33.0300   46.9080 C   0  0  0  0  0  0  0  0  0  0  0  0
   56.1800   30.4220   44.1900 C   0  0  0  0  0  0  0  0  0  0  0  0
   56.0040   29.1290   44.6920 C   0  0  0  0  0  0  0  0  0  0  0  0
   54.7190   27.0790   46.7230 H   0  0  0  0  0  0  0  0  0  0  0  0
   59.1373   28.5904   45.9451 H   0  0  0  0  0  0  0  0  0  0  0  0
   59.4566   30.8926   45.0495 H   0  0  0  0  0  0  0  0  0  0  0  0
   57.9970   32.4920   42.8030 H   0  0  0  0  0  0  0  0  0  0  0  0
   57.5324   34.4880   43.8555 H   0  0  0  0  0  0  0  0  0  0  0  0
   56.2780   33.6033   44.8058 H   0  0  0  0  0  0  0  0  0  0  0  0
   59.5946   35.1364   44.8588 H   0  0  0  0  0  0  0  0  0  0  0  0
   61.0162   35.2900   46.9017 H   0  0  0  0  0  0  0  0  0  0  0  0
   60.6985   35.0231   49.6572 H   0  0  0  0  0  0  0  0  0  0  0  0
   60.2542   33.3253   50.0512 H   0  0  0  0  0  0  0  0  0  0  0  0
   61.6014   31.8968   47.5665 H   0  0  0  0  0  0  0  0  0  0  0  0
   64.2838   31.6548   47.5365 H   0  0  0  0  0  0  0  0  0  0  0  0
   65.2101   33.5812   49.1648 H   0  0  0  0  0  0  0  0  0  0  0  0
   58.3658   32.5495   48.9549 H   0  0  0  0  0  0  0  0  0  0  0  0
   56.9416   32.3968   46.9148 H   0  0  0  0  0  0  0  0  0  0  0  0
   55.3389   30.9393   43.7053 H   0  0  0  0  0  0  0  0  0  0  0  0
   55.0264   28.6335   44.5978 H   0  0  0  0  0  0  0  0  0  0  0  0
  1  2  1  0
  2  3  2  0
  2  4  2  0
  2  5  1  0
  5  6  2  0
  6  7  1  0
  7  8  2  0
  8  9  1  0
  9 10  1  0
 10 11  1  0
 11 12  2  0
 12 13  1  0
 13 14  2  0
 14 15  1  0
 15 16  1  0
 16 17  1  0
 17 18  2  0
 18 19  1  0
 19 20  2  0
 14 21  1  0
 21 22  2  0
  8 23  1  0
 23 24  2  0
 24  5  1  0
 22 11  1  0
 20 16  1  0
  1 25  1  0
  6 26  1  0
  7 27  1  0
  9 28  1  0
 10 29  1  0
 10 30  1  0
 12 31  1  0
 13 32  1  0
 15 33  1  0
 15 34  1  0
 17 35  1  0
 18 36  1  0
 19 37  1  0
 21 38  1  0
 22 39  1  0
 23 40  1  0
 24 41  1  0
M  CHG  1   1  -1
M  END
>  <UniqueID>  (73) 
64

>  <SMILES>  (73) 
[NH-]S(=O)(=O)c1ccc(NCc2ccc(Cn3cccn3)cc2)cc1

>  <Energy>  (73) 
69.50852936439517

>  <Genealogy>  (73) 
[NH-]S(=O)(=O)c1ccc(NCc2ccc(Cn3cccn3)cc2)cc1 (protonated)
[NH-]S(=O)(=O)c1ccc(NCc2ccc(Cn3cccn3)cc2)cc1 (3D coordinates assigned)
[NH-]S(=O)(=O)c1ccc(NCc2ccc(Cn3cccn3)cc2)cc1 (optimized conformer: 69.50852936439517 kcal/mol)

>  <smiles>  (73) 
NS(=O)(=O)c1ccc(NCc2ccc(Cn3cccn3)cc2)cc1

>  <score_type>  (73) 
oracle

>  <origin>  (73) 
adg

>  <m_score__min__energy>  (73) 
-11.34

>  <m_primary>  (73) 
energy

$$$$
73:0
     RDKit          3D

 35 38  0  0  0  0  0  0  0  0999 V2000
   54.4720   29.3380   45.1940 H   0  0  0  0  0  0  0  0  0  0  0  0
   55.3980   28.9810   44.8700 N   0  0  0  0  0  0  0  0  0  0  0  0
   56.2050   29.7450   43.9750 C   0  0  0  0  0  0  0  0  0  0  0  0
   55.9650   29.7170   42.7390 O   0  0  0  0  0  0  0  0  0  0  0  0
   57.2440   30.6470   44.4950 C   0  0  0  0  0  0  0  0  0  0  0  0
   58.1000   30.3880   45.5210 N   0  0  0  0  0  0  0  0  0  0  0  0
   58.6170   31.5900   45.8710 C   0  0  0  0  0  0  0  0  0  0  0  0
   58.0810   32.5600   45.0380 C   0  0  0  0  0  0  0  0  0  0  0  0
   58.3007   33.6371   45.0777 H   0  0  0  0  0  0  0  0  0  0  0  0
   57.2460   31.9570   44.1730 N   0  0  0  0  0  0  0  0  0  0  0  0
   56.6290   32.4330   43.4780 H   0  0  0  0  0  0  0  0  0  0  0  0
   59.4520   31.7080   47.0090 C   0  0  0  0  0  0  0  0  0  0  0  0
   60.0150   32.8140   47.4130 N   0  0  0  0  0  0  0  0  0  0  0  0
   61.3510   33.0180   47.8850 C   0  0  0  0  0  0  0  0  0  0  0  0
   61.5650   33.7430   49.0640 C   0  0  0  0  0  0  0  0  0  0  0  0
   60.7126   34.1930   49.5939 H   0  0  0  0  0  0  0  0  0  0  0  0
   62.8600   33.8960   49.5690 C   0  0  0  0  0  0  0  0  0  0  0  0
   63.0269   34.4819   50.4849 H   0  0  0  0  0  0  0  0  0  0  0  0
   63.9430   33.3050   48.9110 C   0  0  0  0  0  0  0  0  0  0  0  0
   65.1990   33.4530   49.4030 F   0  0  0  0  0  0  0  0  0  0  0  0
   63.7310   32.5500   47.7530 C   0  0  0  0  0  0  0  0  0  0  0  0
   64.5823   32.0782   47.2404 H   0  0  0  0  0  0  0  0  0  0  0  0
   62.4370   32.3950   47.2470 C   0  0  0  0  0  0  0  0  0  0  0  0
   62.2687   31.7842   46.3478 H   0  0  0  0  0  0  0  0  0  0  0  0
   59.6750   30.5800   47.7390 N   0  0  0  0  0  0  0  0  0  0  0  0
   59.2030   29.3580   47.3640 C   0  0  0  0  0  0  0  0  0  0  0  0
   59.5290   28.2260   48.1190 C   0  0  0  0  0  0  0  0  0  0  0  0
   60.0945   28.3339   49.0563 H   0  0  0  0  0  0  0  0  0  0  0  0
   59.1360   26.9590   47.6820 C   0  0  0  0  0  0  0  0  0  0  0  0
   59.3739   26.0712   48.2863 H   0  0  0  0  0  0  0  0  0  0  0  0
   58.4410   26.8180   46.4780 C   0  0  0  0  0  0  0  0  0  0  0  0
   58.1591   25.8158   46.1230 H   0  0  0  0  0  0  0  0  0  0  0  0
   58.1020   27.9450   45.7220 C   0  0  0  0  0  0  0  0  0  0  0  0
   57.5791   27.8238   44.7619 H   0  0  0  0  0  0  0  0  0  0  0  0
   58.4280   29.2350   46.1860 C   0  0  0  0  0  0  0  0  0  0  0  0
  1  2  1  0
  2  3  1  0
  3  4  2  0
  3  5  1  0
  5  6  1  0
  6  7  1  0
  7  8  2  0
  8  9  1  0
  8 10  1  0
 10 11  1  0
  7 12  1  0
 12 13  2  0
 13 14  1  0
 14 15  2  0
 15 16  1  0
 15 17  1  0
 17 18  1  0
 17 19  2  0
 19 20  1  0
 19 21  1  0
 21 22  1  0
 21 23  2  0
 23 24  1  0
 12 25  1  0
 25 26  1  0
 26 27  2  0
 27 28  1  0
 27 29  1  0
 29 30  1  0
 29 31  2  0
 31 32  1  0
 31 33  1  0
 33 34  1  0
 33 35  2  0
 10  5  2  0
 23 14  1  0
 35 26  1  0
 35  6  1  0
M  CHG  3   2  -1  10   1  25  -1
M  END
>  <UniqueID>  (74) 
65

>  <SMILES>  (74) 
[NH-]C(=O)c1[nH+]cc2/c(=N\c3ccc(F)cc3)[n-]c3ccccc3n12

>  <Energy>  (74) 
105.49067992549863

>  <Genealogy>  (74) 
[NH-]C(=O)c1[nH+]cc2c(=Nc3ccc(F)cc3)[n-]c3ccccc3n12 (protonated)
[NH-]C(=O)c1[nH+]cc2/c(=N\c3ccc(F)cc3)[n-]c3ccccc3n12 (cis-trans isomerization)
[NH-]C(=O)c1[nH+]cc2/c(=N\c3ccc(F)cc3)[n-]c3ccccc3n12 (3D coordinates assigned)
[NH-]C(=O)c1[nH+]cc2/c(=N\c3ccc(F)cc3)[n-]c3ccccc3n12 (optimized conformer: 105.49067992549863 kcal/mol)

>  <smiles>  (74) 
NC(=O)c1ncc2c(=Nc3ccc(F)cc3)[nH]c3ccccc3n12

>  <score_type>  (74) 
oracle

>  <origin>  (74) 
adg

>  <m_score__min__energy>  (74) 
-9.6799999999999997

>  <m_primary>  (74) 
energy

$$$$
74:0
     RDKit          3D

 49 51  0  0  0  0  0  0  0  0999 V2000
   57.3830   32.1860   41.4920 C   0  0  0  0  0  0  0  0  0  0  0  0
   57.7720   31.9980   42.9240 C   0  0  0  0  0  0  0  0  0  0  0  0
   58.2310   33.0760   43.6820 C   0  0  0  0  0  0  0  0  0  0  0  0
   58.6080   32.8590   45.0160 C   0  0  0  0  0  0  0  0  0  0  0  0
   59.1000   33.9540   45.8290 N   0  0  0  0  0  0  0  0  0  0  0  0
   59.2410   35.2930   45.2440 C   0  0  0  0  0  0  0  0  0  0  0  0
   59.4780   33.7410   47.2370 C   0  0  0  0  0  0  0  0  0  0  0  0
   60.8520   33.1300   47.3360 C   0  0  0  0  0  0  0  0  0  0  0  0
   61.0120   31.8420   47.8740 C   0  0  0  0  0  0  0  0  0  0  0  0
   62.2870   31.2800   47.9870 C   0  0  0  0  0  0  0  0  0  0  0  0
   63.4090   31.9960   47.5620 C   0  0  0  0  0  0  0  0  0  0  0  0
   63.2570   33.2750   47.0190 C   0  0  0  0  0  0  0  0  0  0  0  0
   61.9850   33.8400   46.9030 C   0  0  0  0  0  0  0  0  0  0  0  0
   58.5260   31.5960   45.5300 N   0  0  0  0  0  0  0  0  0  0  0  0
   58.1040   30.5440   44.7660 C   0  0  0  0  0  0  0  0  0  0  0  0
   58.0400   29.1680   45.3190 C   0  0  0  0  0  0  0  0  0  0  0  0
   59.2050   28.4950   45.7280 C   0  0  0  0  0  0  0  0  0  0  0  0
   59.1280   27.1980   46.2370 C   0  0  0  0  0  0  0  0  0  0  0  0
   57.8940   26.5530   46.3390 C   0  0  0  0  0  0  0  0  0  0  0  0
   56.7190   27.2040   45.9220 C   0  0  0  0  0  0  0  0  0  0  0  0
   55.4290   26.5830   46.0030 N   0  0  0  0  0  0  0  0  0  0  0  0
   55.1070   24.8860   45.8500 S   0  0  0  0  0  0  0  0  0  0  0  0
   55.9960   24.2160   44.4610 C   0  0  0  0  0  0  0  0  0  0  0  0
   55.4950   24.1710   47.1140 O   0  0  0  0  0  0  0  0  0  0  0  0
   53.6350   24.6930   45.6190 O   0  0  0  0  0  0  0  0  0  0  0  0
   56.8030   28.5060   45.4130 C   0  0  0  0  0  0  0  0  0  0  0  0
   57.7300   30.7600   43.4770 N   0  0  0  0  0  0  0  0  0  0  0  0
   56.3937   32.6641   41.4405 H   0  0  0  0  0  0  0  0  0  0  0  0
   58.1254   32.8247   40.9912 H   0  0  0  0  0  0  0  0  0  0  0  0
   57.3438   31.2074   40.9912 H   0  0  0  0  0  0  0  0  0  0  0  0
   58.2963   34.0812   43.2401 H   0  0  0  0  0  0  0  0  0  0  0  0
   59.3195   36.0385   46.0491 H   0  0  0  0  0  0  0  0  0  0  0  0
   60.1478   35.3279   44.6223 H   0  0  0  0  0  0  0  0  0  0  0  0
   58.3614   35.5160   44.6223 H   0  0  0  0  0  0  0  0  0  0  0  0
   59.4747   34.7079   47.7615 H   0  0  0  0  0  0  0  0  0  0  0  0
   58.7526   33.0535   47.6965 H   0  0  0  0  0  0  0  0  0  0  0  0
   60.1310   31.2739   48.2074 H   0  0  0  0  0  0  0  0  0  0  0  0
   62.4071   30.2723   48.4113 H   0  0  0  0  0  0  0  0  0  0  0  0
   64.4117   31.5533   47.6547 H   0  0  0  0  0  0  0  0  0  0  0  0
   64.1405   33.8374   46.6826 H   0  0  0  0  0  0  0  0  0  0  0  0
   61.8695   34.8450   46.4709 H   0  0  0  0  0  0  0  0  0  0  0  0
   58.7490   31.4380   46.5360 H   0  0  0  0  0  0  0  0  0  0  0  0
   60.1821   28.9936   45.6463 H   0  0  0  0  0  0  0  0  0  0  0  0
   60.0440   26.6813   46.5594 H   0  0  0  0  0  0  0  0  0  0  0  0
   57.8405   25.5327   46.7467 H   0  0  0  0  0  0  0  0  0  0  0  0
   56.8254   23.5909   44.8235 H   0  0  0  0  0  0  0  0  0  0  0  0
   55.3154   23.6043   43.8506 H   0  0  0  0  0  0  0  0  0  0  0  0
   56.3965   25.0388   43.8506 H   0  0  0  0  0  0  0  0  0  0  0  0
   55.8877   29.0184   45.0818 H   0  0  0  0  0  0  0  0  0  0  0  0
  1  2  1  0
  2  3  2  0
  3  4  1  0
  4  5  1  0
  5  6  1  0
  5  7  1  0
  7  8  1  0
  8  9  2  0
  9 10  1  0
 10 11  2  0
 11 12  1  0
 12 13  2  0
  4 14  2  0
 14 15  1  0
 15 16  1  0
 16 17  2  0
 17 18  1  0
 18 19  2  0
 19 20  1  0
 20 21  1  0
 21 22  1  0
 22 23  1  0
 22 24  2  0
 22 25  2  0
 20 26  2  0
 15 27  2  0
 27  2  1  0
 13  8  1  0
 26 16  1  0
  1 28  1  0
  1 29  1  0
  1 30  1  0
  3 31  1  0
  6 32  1  0
  6 33  1  0
  6 34  1  0
  7 35  1  0
  7 36  1  0
  9 37  1  0
 10 38  1  0
 11 39  1  0
 12 40  1  0
 13 41  1  0
 14 42  1  0
 17 43  1  0
 18 44  1  0
 19 45  1  0
 23 46  1  0
 23 47  1  0
 23 48  1  0
 26 49  1  0
M  CHG  2  14   1  21  -1
M  END
>  <UniqueID>  (75) 
66

>  <SMILES>  (75) 
Cc1cc(N(C)Cc2ccccc2)[nH+]c(-c2cccc([N-]S(C)(=O)=O)c2)n1

>  <Energy>  (75) 
53.02990722048548

>  <Genealogy>  (75) 
Cc1cc(N(C)Cc2ccccc2)[nH+]c(-c2cccc([N-]S(C)(=O)=O)c2)n1 (protonated)
Cc1cc(N(C)Cc2ccccc2)[nH+]c(-c2cccc([N-]S(C)(=O)=O)c2)n1 (3D coordinates assigned)
Cc1cc(N(C)Cc2ccccc2)[nH+]c(-c2cccc([N-]S(C)(=O)=O)c2)n1 (optimized conformer: 53.02990722048548 kcal/mol)

>  <smiles>  (75) 
Cc1cc(N(C)Cc2ccccc2)nc(-c2cccc(NS(C)(=O)=O)c2)n1

>  <score_type>  (75) 
oracle

>  <origin>  (75) 
adg

>  <m_score__min__energy>  (75) 
-10.19

>  <m_primary>  (75) 
energy

$$$$
75:0
     RDKit          3D

 71 74  0  0  0  0  0  0  0  0999 V2000
   55.7240   29.2610   53.0450 C   0  0  0  0  0  0  0  0  0  0  0  0
   56.6760   29.4280   52.0000 O   0  0  0  0  0  0  0  0  0  0  0  0
   57.3960   30.6090   51.7670 C   0  0  0  0  0  0  0  0  0  0  0  0
   57.4190   31.6740   52.6870 C   0  0  0  0  0  0  0  0  0  0  0  0
   58.1530   32.8310   52.4080 C   0  0  0  0  0  0  0  0  0  0  0  0
   58.8750   32.9430   51.2100 C   0  0  0  0  0  0  0  0  0  0  0  0
   59.6350   34.2030   50.8870 C   0  0  0  0  0  0  0  0  0  0  0  0
   60.5350   33.9790   49.7340 N   0  0  0  0  0  0  0  0  0  0  0  0
   61.8320   33.5760   49.9340 C   0  0  0  0  0  0  0  0  0  0  0  0
   62.2450   33.3170   51.1490 N   0  0  0  0  0  0  0  0  0  0  0  0
   62.0510   32.1010   51.9440 C   0  0  0  0  0  0  0  0  0  0  0  0
   62.7770   30.9020   51.3160 C   0  0  0  0  0  0  0  0  0  0  0  0
   61.8660   30.0620   50.4590 C   0  0  0  0  0  0  0  0  0  0  0  0
   61.5310   30.4800   49.1610 C   0  0  0  0  0  0  0  0  0  0  0  0
   60.7680   29.6560   48.3290 C   0  0  0  0  0  0  0  0  0  0  0  0
   60.3220   28.4100   48.7880 C   0  0  0  0  0  0  0  0  0  0  0  0
   59.4030   27.3580   47.7180 S   0  0  0  0  0  0  0  0  0  0  0  0
   57.8360   28.0340   47.4500 N   0  0  0  0  0  0  0  0  0  0  0  0
   60.1180   27.2110   46.4030 O   0  0  0  0  0  0  0  0  0  0  0  0
   59.2630   25.9980   48.3430 O   0  0  0  0  0  0  0  0  0  0  0  0
   60.6440   27.9940   50.0870 C   0  0  0  0  0  0  0  0  0  0  0  0
   61.4100   28.8160   50.9200 C   0  0  0  0  0  0  0  0  0  0  0  0
   62.6630   33.4390   48.8620 N   0  0  0  0  0  0  0  0  0  0  0  0
   62.2220   33.6710   47.6030 C   0  0  0  0  0  0  0  0  0  0  0  0
   63.0240   33.5320   46.6380 O   0  0  0  0  0  0  0  0  0  0  0  0
   60.9280   34.0500   47.3850 N   0  0  0  0  0  0  0  0  0  0  0  0
   60.4590   34.3500   46.0150 C   0  0  0  0  0  0  0  0  0  0  0  0
   59.2950   33.4620   45.6550 C   0  0  0  0  0  0  0  0  0  0  0  0
   58.1110   34.0180   45.1500 C   0  0  0  0  0  0  0  0  0  0  0  0
   57.0510   33.1950   44.7670 C   0  0  0  0  0  0  0  0  0  0  0  0
   57.1580   31.7960   44.8800 C   0  0  0  0  0  0  0  0  0  0  0  0
   56.1150   30.9370   44.5010 O   0  0  0  0  0  0  0  0  0  0  0  0
   56.1260   30.1190   43.3350 C   0  0  0  0  0  0  0  0  0  0  0  0
   58.3390   31.2300   45.3840 C   0  0  0  0  0  0  0  0  0  0  0  0
   58.4170   29.8320   45.4870 O   0  0  0  0  0  0  0  0  0  0  0  0
   58.9620   28.9780   44.4870 C   0  0  0  0  0  0  0  0  0  0  0  0
   59.4040   32.0680   45.7690 C   0  0  0  0  0  0  0  0  0  0  0  0
   60.0900   34.2090   48.4560 C   0  0  0  0  0  0  0  0  0  0  0  0
   58.8930   34.5670   48.2640 O   0  0  0  0  0  0  0  0  0  0  0  0
   58.8480   31.8810   50.2920 C   0  0  0  0  0  0  0  0  0  0  0  0
   58.1150   30.7250   50.5710 C   0  0  0  0  0  0  0  0  0  0  0  0
   56.2287   29.3495   54.0184 H   0  0  0  0  0  0  0  0  0  0  0  0
   54.9486   30.0368   52.9621 H   0  0  0  0  0  0  0  0  0  0  0  0
   55.2590   28.2676   52.9621 H   0  0  0  0  0  0  0  0  0  0  0  0
   56.8572   31.5958   53.6295 H   0  0  0  0  0  0  0  0  0  0  0  0
   58.1645   33.6588   53.1324 H   0  0  0  0  0  0  0  0  0  0  0  0
   58.9221   35.0036   50.6406 H   0  0  0  0  0  0  0  0  0  0  0  0
   60.2380   34.4909   51.7608 H   0  0  0  0  0  0  0  0  0  0  0  0
   62.4457   32.2684   52.9570 H   0  0  0  0  0  0  0  0  0  0  0  0
   60.9747   31.8763   51.9779 H   0  0  0  0  0  0  0  0  0  0  0  0
   63.6024   31.2761   50.6925 H   0  0  0  0  0  0  0  0  0  0  0  0
   63.1456   30.2671   52.1352 H   0  0  0  0  0  0  0  0  0  0  0  0
   61.8708   31.4609   48.7972 H   0  0  0  0  0  0  0  0  0  0  0  0
   60.5169   29.9870   47.3105 H   0  0  0  0  0  0  0  0  0  0  0  0
   57.9420   29.0720   47.4840 H   0  0  0  0  0  0  0  0  0  0  0  0
   60.2931   27.0177   50.4527 H   0  0  0  0  0  0  0  0  0  0  0  0
   61.6562   28.4855   51.9399 H   0  0  0  0  0  0  0  0  0  0  0  0
   63.6610   33.1610   48.9730 H   0  0  0  0  0  0  0  0  0  0  0  0
   60.1429   35.4023   45.9618 H   0  0  0  0  0  0  0  0  0  0  0  0
   61.2810   34.1676   45.3071 H   0  0  0  0  0  0  0  0  0  0  0  0
   58.0170   35.1099   45.0551 H   0  0  0  0  0  0  0  0  0  0  0  0
   56.1260   33.6424   44.3743 H   0  0  0  0  0  0  0  0  0  0  0  0
   56.1402   29.0595   43.6305 H   0  0  0  0  0  0  0  0  0  0  0  0
   55.2251   30.3208   42.7370 H   0  0  0  0  0  0  0  0  0  0  0  0
   57.0212   30.3449   42.7370 H   0  0  0  0  0  0  0  0  0  0  0  0
   59.4943   28.1439   44.9675 H   0  0  0  0  0  0  0  0  0  0  0  0
   58.1493   28.5819   43.8604 H   0  0  0  0  0  0  0  0  0  0  0  0
   59.6635   29.5483   43.8604 H   0  0  0  0  0  0  0  0  0  0  0  0
   60.3305   31.6248   46.1630 H   0  0  0  0  0  0  0  0  0  0  0  0
   59.4071   31.9597   49.3479 H   0  0  0  0  0  0  0  0  0  0  0  0
   58.1025   29.8988   49.8449 H   0  0  0  0  0  0  0  0  0  0  0  0
  1  2  1  0
  2  3  1  0
  3  4  2  0
  4  5  1  0
  5  6  2  0
  6  7  1  0
  7  8  1  0
  8  9  1  0
  9 10  2  3
 10 11  1  0
 11 12  1  0
 12 13  1  0
 13 14  2  0
 14 15  1  0
 15 16  2  0
 16 17  1  0
 17 18  1  0
 17 19  2  0
 17 20  2  0
 16 21  1  0
 21 22  2  0
  9 23  1  0
 23 24  1  0
 24 25  2  0
 24 26  1  0
 26 27  1  0
 27 28  1  0
 28 29  2  0
 29 30  1  0
 30 31  2  0
 31 32  1  0
 32 33  1  0
 31 34  1  0
 34 35  1  0
 35 36  1  0
 34 37  2  0
 26 38  1  0
 38 39  2  0
  6 40  1  0
 40 41  2  0
 41  3  1  0
 38  8  1  0
 22 13  1  0
 37 28  1  0
  1 42  1  0
  1 43  1  0
  1 44  1  0
  4 45  1  0
  5 46  1  0
  7 47  1  0
  7 48  1  0
 11 49  1  0
 11 50  1  0
 12 51  1  0
 12 52  1  0
 14 53  1  0
 15 54  1  0
 18 55  1  0
 21 56  1  0
 22 57  1  0
 23 58  1  0
 27 59  1  0
 27 60  1  0
 29 61  1  0
 30 62  1  0
 33 63  1  0
 33 64  1  0
 33 65  1  0
 36 66  1  0
 36 67  1  0
 36 68  1  0
 37 69  1  0
 40 70  1  0
 41 71  1  0
M  CHG  1  18  -1
M  END
>  <UniqueID>  (76) 
67

>  <SMILES>  (76) 
COc1ccc(Cn2c(=NCCc3ccc(S([NH-])(=O)=O)cc3)[nH]c(=O)n(Cc3ccc(OC)c(OC)c3)c2=O)cc1

>  <Energy>  (76) 
76.7264131348756

>  <Genealogy>  (76) 
COc1ccc(Cn2c(=NCCc3ccc(S([NH-])(=O)=O)cc3)[nH]c(=O)n(Cc3ccc(OC)c(OC)c3)c2=O)cc1 (protonated)
COc1ccc(Cn2c(=NCCc3ccc(S([NH-])(=O)=O)cc3)[nH]c(=O)n(Cc3ccc(OC)c(OC)c3)c2=O)cc1 (3D coordinates assigned)
COc1ccc(Cn2c(=NCCc3ccc(S([NH-])(=O)=O)cc3)[nH]c(=O)n(Cc3ccc(OC)c(OC)c3)c2=O)cc1 (optimized conformer: 76.7264131348756 kcal/mol)

>  <smiles>  (76) 
COc1ccc(Cn2c(=NCCc3ccc(S(N)(=O)=O)cc3)[nH]c(=O)n(Cc3ccc(OC)c(OC)c3)c2=O)cc1

>  <score_type>  (76) 
oracle

>  <origin>  (76) 
adg

>  <m_score__min__energy>  (76) 
-11.800000000000001

>  <m_primary>  (76) 
energy

$$$$
76:0
     RDKit          3D

 49 52  0  0  1  0  0  0  0  0999 V2000
   66.4510   32.8230   49.7240 N   0  0  0  0  0  0  0  0  0  0  0  0
   65.4370   32.1340   50.4570 C   0  0  0  0  0  0  0  0  0  0  0  0
   65.7690   31.0700   51.0470 O   0  0  0  0  0  0  0  0  0  0  0  0
   64.0870   32.6810   50.4890 C   0  0  0  0  0  0  0  0  0  0  0  0
   63.3530   32.8180   51.6480 C   0  0  0  0  0  0  0  0  0  0  0  0
   62.0920   33.3210   51.7080 C   0  0  0  0  0  0  0  0  0  0  0  0
   61.4540   33.7480   50.5110 C   0  0  0  0  0  0  0  0  0  0  0  0
   62.1890   33.6120   49.3800 C   0  0  0  0  0  0  0  0  0  0  0  0
   61.6520   33.9910   48.1820 C   0  0  0  0  0  0  0  0  0  0  0  0
   60.5770   34.6200   48.0880 N   0  0  0  0  0  0  0  0  0  0  0  0
   59.2680   34.1240   48.2680 C   0  0  0  0  0  0  0  0  0  0  0  0
   58.9510   33.6210   46.8540 C   0  0  0  0  0  0  0  0  0  0  0  0
   58.7390   34.5840   45.8920 C   0  0  0  0  0  0  0  0  0  0  0  0
   58.4370   34.1460   44.6250 C   0  0  0  0  0  0  0  0  0  0  0  0
   58.3580   32.7820   44.3590 C   0  0  0  0  0  0  0  0  0  0  0  0
   58.5660   31.8150   45.3020 C   0  0  0  0  0  0  0  0  0  0  0  0
   58.5040   30.4270   45.1140 N   0  0  0  0  0  0  0  0  0  0  0  0
   57.3420   29.6530   44.9030 C   0  0  0  0  0  0  0  0  0  0  0  0
   56.2200   30.1960   44.8670 O   0  0  0  0  0  0  0  0  0  0  0  0
   57.3670   28.1960   44.7140 C   0  0  0  0  0  0  0  0  0  0  0  0
   57.7810   27.7040   43.4900 C   0  0  0  0  0  0  0  0  0  0  0  0
   57.8300   26.3360   43.2360 C   0  0  0  0  0  0  0  0  0  0  0  0
   57.4620   25.4250   44.2140 C   0  0  0  0  0  0  0  0  0  0  0  0
   57.5040   24.0870   43.9800 F   0  0  0  0  0  0  0  0  0  0  0  0
   57.0530   25.9370   45.4220 C   0  0  0  0  0  0  0  0  0  0  0  0
   57.0060   27.2970   45.6690 C   0  0  0  0  0  0  0  0  0  0  0  0
   58.8710   32.2840   46.5830 C   0  0  0  0  0  0  0  0  0  0  0  0
   62.3780   33.8330   47.0510 N   0  0  0  0  0  0  0  0  0  0  0  0
   63.6180   33.3230   47.0250 C   0  0  0  0  0  0  0  0  0  0  0  0
   64.1680   32.9510   48.1900 N   0  0  0  0  0  0  0  0  0  0  0  0
   63.4750   33.0930   49.3300 C   0  0  0  0  0  0  0  0  0  0  0  0
   66.4300   32.8820   48.6660 H   0  0  0  0  0  0  0  0  0  0  0  0
   67.2440   33.2870   50.2310 H   0  0  0  0  0  0  0  0  0  0  0  0
   63.8210   32.4976   52.5905 H   0  0  0  0  0  0  0  0  0  0  0  0
   61.5698   33.3971   52.6732 H   0  0  0  0  0  0  0  0  0  0  0  0
   60.4342   34.1603   50.5033 H   0  0  0  0  0  0  0  0  0  0  0  0
   59.2431   33.3061   49.0032 H   0  0  0  0  0  0  0  0  0  0  0  0
   58.5522   34.8622   48.6587 H   0  0  0  0  0  0  0  0  0  0  0  0
   58.8084   35.6562   46.1277 H   0  0  0  0  0  0  0  0  0  0  0  0
   58.2575   34.8740   43.8202 H   0  0  0  0  0  0  0  0  0  0  0  0
   58.1149   32.4652   43.3340 H   0  0  0  0  0  0  0  0  0  0  0  0
   59.4100   29.8840   45.1290 H   0  0  0  0  0  0  0  0  0  0  0  0
   58.0782   28.4089   42.6995 H   0  0  0  0  0  0  0  0  0  0  0  0
   58.1633   25.9752   42.2517 H   0  0  0  0  0  0  0  0  0  0  0  0
   56.7528   25.2415   46.2196 H   0  0  0  0  0  0  0  0  0  0  0  0
   56.6715   27.6573   46.6530 H   0  0  0  0  0  0  0  0  0  0  0  0
   59.0508   31.5602   47.3915 H   0  0  0  0  0  0  0  0  0  0  0  0
   61.9740   34.1140   46.1310 H   0  0  0  0  0  0  0  0  0  0  0  0
   64.1666   33.2133   46.0779 H   0  0  0  0  0  0  0  0  0  0  0  0
  1  2  1  0
  2  3  2  0
  2  4  1  0
  4  5  2  0
  5  6  1  0
  6  7  2  0
  7  8  1  0
  8  9  1  0
  9 10  2  0
 10 11  1  0
 11 12  1  0
 12 13  2  0
 13 14  1  0
 14 15  2  0
 15 16  1  0
 16 17  1  0
 17 18  1  0
 18 19  2  0
 18 20  1  0
 20 21  2  0
 21 22  1  0
 22 23  2  0
 23 24  1  0
 23 25  1  0
 25 26  2  0
 16 27  2  0
  9 28  1  0
 28 29  1  0
 29 30  2  0
 30 31  1  0
 31  4  1  0
 31  8  2  0
 27 12  1  0
 26 20  1  0
  1 32  1  0
  1 33  1  0
  5 34  1  0
  6 35  1  0
  7 36  1  0
 11 37  1  0
 11 38  1  0
 13 39  1  0
 14 40  1  0
 15 41  1  0
 17 42  1  0
 21 43  1  0
 22 44  1  0
 25 45  1  0
 26 46  1  0
 27 47  1  0
 28 48  1  0
 29 49  1  0
M  END
>  <smiles>  (77) 
NC(=O)c1cccc2c(=NCc3cccc(NC(=O)c4ccc(F)cc4)c3)[nH]cnc12

>  <score_type>  (77) 
oracle

>  <origin>  (77) 
adg

>  <m_score__min__energy>  (77) 
-9.5399999999999991

>  <m_primary>  (77) 
energy

$$$$
77:0
     RDKit          3D

 57 62  0  0  0  0  0  0  0  0999 V2000
   58.0438   26.8934   43.7243 H   0  0  0  0  0  0  0  0  0  0  0  0
   57.5340   27.2330   44.6380 C   0  0  0  0  0  0  0  0  0  0  0  0
   57.1860   26.2230   45.6520 C   0  0  0  0  0  0  0  0  0  0  0  0
   58.0400   25.2730   46.0670 N   0  0  0  0  0  0  0  0  0  0  0  0
   57.2980   24.5310   46.9170 C   0  0  0  0  0  0  0  0  0  0  0  0
   57.7620   23.5360   47.5310 O   0  0  0  0  0  0  0  0  0  0  0  0
   56.0180   24.9360   47.0510 N   0  0  0  0  0  0  0  0  0  0  0  0
   55.9570   26.0000   46.2340 C   0  0  0  0  0  0  0  0  0  0  0  0
   54.7910   26.7150   45.9910 O   0  0  0  0  0  0  0  0  0  0  0  0
   57.2670   28.5420   44.7610 C   0  0  0  0  0  0  0  0  0  0  0  0
   56.2550   29.3000   44.1640 C   0  0  0  0  0  0  0  0  0  0  0  0
   55.5155   28.9145   43.4467 H   0  0  0  0  0  0  0  0  0  0  0  0
   56.3220   30.5820   44.6020 N   0  0  0  0  0  0  0  0  0  0  0  0
   57.3360   30.6430   45.4480 N   0  0  0  0  0  0  0  0  0  0  0  0
   57.7850   31.7170   46.1380 C   0  0  0  0  0  0  0  0  0  0  0  0
   57.2080   32.8750   46.0130 N   0  0  0  0  0  0  0  0  0  0  0  0
   57.8180   33.9970   45.3060 C   0  0  0  0  0  0  0  0  0  0  0  0
   56.9087   34.3715   44.8131 H   0  0  0  0  0  0  0  0  0  0  0  0
   58.9690   34.6240   46.0670 C   0  0  0  0  0  0  0  0  0  0  0  0
   59.1460   35.7077   46.0019 H   0  0  0  0  0  0  0  0  0  0  0  0
   59.2929   34.6344   47.1182 H   0  0  0  0  0  0  0  0  0  0  0  0
   59.2460   33.7340   44.8640 C   0  0  0  0  0  0  0  0  0  0  0  0
   59.6227   34.1740   43.9288 H   0  0  0  0  0  0  0  0  0  0  0  0
   59.8524   32.8341   44.6841 H   0  0  0  0  0  0  0  0  0  0  0  0
   58.8510   31.5430   46.9690 N   0  0  0  0  0  0  0  0  0  0  0  0
   59.4400   30.3140   47.1110 C   0  0  0  0  0  0  0  0  0  0  0  0
   60.4660   30.1480   47.8940 N   0  0  0  0  0  0  0  0  0  0  0  0
   60.6250   29.1260   48.8920 C   0  0  0  0  0  0  0  0  0  0  0  0
   60.7260   29.4310   50.2630 C   0  0  0  0  0  0  0  0  0  0  0  0
   60.7001   30.4798   50.5938 H   0  0  0  0  0  0  0  0  0  0  0  0
   60.8590   28.4080   51.2050 C   0  0  0  0  0  0  0  0  0  0  0  0
   60.9534   28.6573   52.2722 H   0  0  0  0  0  0  0  0  0  0  0  0
   60.8730   27.0630   50.7990 C   0  0  0  0  0  0  0  0  0  0  0  0
   61.0080   26.0030   51.7640 N   0  0  0  0  0  0  0  0  0  0  0  0
   62.2990   25.3300   51.9300 C   0  0  0  0  0  0  0  0  0  0  0  0
   62.8649   25.8220   52.7348 H   0  0  0  0  0  0  0  0  0  0  0  0
   62.8607   25.3909   50.9862 H   0  0  0  0  0  0  0  0  0  0  0  0
   62.0820   23.8540   52.2910 C   0  0  0  0  0  0  0  0  0  0  0  0
   63.0505   23.4138   52.5707 H   0  0  0  0  0  0  0  0  0  0  0  0
   61.6488   23.3562   51.4109 H   0  0  0  0  0  0  0  0  0  0  0  0
   61.1390   23.6760   53.4150 N   0  0  0  0  0  0  0  0  0  0  0  0
   61.7280   24.0480   54.7120 C   0  0  0  0  0  0  0  0  0  0  0  0
   61.1022   23.6528   55.5257 H   0  0  0  0  0  0  0  0  0  0  0  0
   62.7405   23.6252   54.7897 H   0  0  0  0  0  0  0  0  0  0  0  0
   61.7813   25.1440   54.7897 H   0  0  0  0  0  0  0  0  0  0  0  0
   59.8460   24.3470   53.1650 C   0  0  0  0  0  0  0  0  0  0  0  0
   59.2241   24.2599   54.0681 H   0  0  0  0  0  0  0  0  0  0  0  0
   59.3786   23.8546   52.2995 H   0  0  0  0  0  0  0  0  0  0  0  0
   60.0060   25.8340   52.8210 C   0  0  0  0  0  0  0  0  0  0  0  0
   60.3283   26.3822   53.7185 H   0  0  0  0  0  0  0  0  0  0  0  0
   59.0412   26.2271   52.4679 H   0  0  0  0  0  0  0  0  0  0  0  0
   60.7340   26.7610   49.4350 C   0  0  0  0  0  0  0  0  0  0  0  0
   60.7297   25.7115   49.1055 H   0  0  0  0  0  0  0  0  0  0  0  0
   60.6010   27.7850   48.4930 C   0  0  0  0  0  0  0  0  0  0  0  0
   60.4764   27.5346   47.4291 H   0  0  0  0  0  0  0  0  0  0  0  0
   58.9720   29.2500   46.3950 N   0  0  0  0  0  0  0  0  0  0  0  0
   57.9130   29.4470   45.5710 C   0  0  0  0  0  0  0  0  0  0  0  0
  1  2  1  0
  2  3  1  0
  3  4  1  0
  4  5  1  0
  5  6  2  0
  5  7  1  0
  7  8  1  0
  8  9  1  0
  2 10  2  3
 10 11  1  0
 11 12  1  0
 11 13  2  0
 13 14  1  0
 14 15  1  0
 15 16  2  0
 16 17  1  0
 17 18  1  0
 17 19  1  0
 19 20  1  0
 19 21  1  0
 19 22  1  0
 22 23  1  0
 22 24  1  0
 15 25  1  0
 25 26  1  0
 26 27  2  3
 27 28  1  0
 28 29  2  0
 29 30  1  0
 29 31  1  0
 31 32  1  0
 31 33  2  0
 33 34  1  0
 34 35  1  0
 35 36  1  0
 35 37  1  0
 35 38  1  0
 38 39  1  0
 38 40  1  0
 38 41  1  0
 41 42  1  0
 42 43  1  0
 42 44  1  0
 42 45  1  0
 41 46  1  0
 46 47  1  0
 46 48  1  0
 46 49  1  0
 49 50  1  0
 49 51  1  0
 33 52  1  0
 52 53  1  0
 52 54  2  0
 54 55  1  0
 26 56  1  0
 56 57  2  0
  8  3  2  0
 57 10  1  0
 57 14  1  0
 22 17  1  0
 54 28  1  0
 49 34  1  0
M  CHG  4   4  -1   7  -1   9  -1  25  -1
M  END
>  <UniqueID>  (78) 
68

>  <SMILES>  (78) 
CN1CCN(c2ccc(N=c3nc4c(=Cc5[n-]c(=O)[n-]c5[O-])cnn4/c(=N/C4CC4)[n-]3)cc2)CC1

>  <Energy>  (78) 
413.21909172327986

>  <Genealogy>  (78) 
CN1CCN(c2ccc(N=c3nc4c(=Cc5[n-]c(=O)[n-]c5[O-])cnn4c(=NC4CC4)[n-]3)cc2)CC1 (protonated)
CN1CCN(c2ccc(N=c3nc4c(=Cc5[n-]c(=O)[n-]c5[O-])cnn4/c(=N/C4CC4)[n-]3)cc2)CC1 (cis-trans isomerization)
CN1CCN(c2ccc(N=c3nc4c(=Cc5[n-]c(=O)[n-]c5[O-])cnn4/c(=N/C4CC4)[n-]3)cc2)CC1 (3D coordinates assigned)
CN1CCN(c2ccc(N=c3nc4c(=Cc5[n-]c(=O)[n-]c5[O-])cnn4/c(=N/C4CC4)[n-]3)cc2)CC1 (nonaromatic ring conformer: 413.21909172327986 kcal/mol)

>  <smiles>  (78) 
CN1CCN(c2ccc(N=c3nc4c(=Cc5[nH]c(=O)[nH]c5O)cnn4c(=NC4CC4)[nH]3)cc2)CC1

>  <score_type>  (78) 
oracle

>  <origin>  (78) 
adg

>  <m_score__min__energy>  (78) 
-18.289999999999999

>  <m_primary>  (78) 
energy

$$$$
78:0
     RDKit          3D

 33 34  0  0  0  0  0  0  0  0999 V2000
   61.5060   32.8960   47.1140 C   0  0  0  0  0  0  0  0  0  0  0  0
   62.2020   31.2630   47.5030 S   0  0  0  0  0  0  0  0  0  0  0  0
   60.7730   30.3730   46.8810 C   0  0  0  0  0  0  0  0  0  0  0  0
   59.5730   30.3920   47.5960 C   0  0  0  0  0  0  0  0  0  0  0  0
   58.4760   29.6800   47.1110 C   0  0  0  0  0  0  0  0  0  0  0  0
   58.5840   28.9570   45.9200 C   0  0  0  0  0  0  0  0  0  0  0  0
   57.1960   28.0670   45.3030 S   0  0  0  0  0  0  0  0  0  0  0  0
   56.9090   26.9220   46.2320 O   0  0  0  0  0  0  0  0  0  0  0  0
   57.4920   27.5140   43.9350 O   0  0  0  0  0  0  0  0  0  0  0  0
   55.7980   29.1050   45.2360 N   0  0  0  0  0  0  0  0  0  0  0  0
   55.6570   29.7320   43.9190 C   0  0  0  0  0  0  0  0  0  0  0  0
   56.6260   30.8740   43.7550 C   0  0  0  0  0  0  0  0  0  0  0  0
   57.1350   31.2030   42.4880 C   0  0  0  0  0  0  0  0  0  0  0  0
   58.0440   32.2540   42.3460 C   0  0  0  0  0  0  0  0  0  0  0  0
   58.4460   32.9880   43.4650 C   0  0  0  0  0  0  0  0  0  0  0  0
   57.9450   32.6670   44.7290 C   0  0  0  0  0  0  0  0  0  0  0  0
   57.0360   31.6150   44.8760 C   0  0  0  0  0  0  0  0  0  0  0  0
   59.8050   28.9610   45.2320 C   0  0  0  0  0  0  0  0  0  0  0  0
   60.8640   29.6640   45.7200 N   0  0  0  0  0  0  0  0  0  0  0  0
   61.2785   33.4297   48.0486 H   0  0  0  0  0  0  0  0  0  0  0  0
   62.2353   33.4755   46.5290 H   0  0  0  0  0  0  0  0  0  0  0  0
   60.5829   32.7712   46.5290 H   0  0  0  0  0  0  0  0  0  0  0  0
   59.4940   30.9632   48.5328 H   0  0  0  0  0  0  0  0  0  0  0  0
   57.5262   29.6876   47.6658 H   0  0  0  0  0  0  0  0  0  0  0  0
   55.8529   28.9801   43.1404 H   0  0  0  0  0  0  0  0  0  0  0  0
   54.6341   30.1261   43.8275 H   0  0  0  0  0  0  0  0  0  0  0  0
   56.8166   30.6308   41.6041 H   0  0  0  0  0  0  0  0  0  0  0  0
   58.4438   32.5041   41.3522 H   0  0  0  0  0  0  0  0  0  0  0  0
   59.1574   33.8191   43.3506 H   0  0  0  0  0  0  0  0  0  0  0  0
   58.2661   33.2427   45.6096 H   0  0  0  0  0  0  0  0  0  0  0  0
   56.6407   31.3668   45.8721 H   0  0  0  0  0  0  0  0  0  0  0  0
   59.9081   28.3944   44.2948 H   0  0  0  0  0  0  0  0  0  0  0  0
   61.7650   29.6550   45.1910 H   0  0  0  0  0  0  0  0  0  0  0  0
  1  2  1  0
  2  3  1  0
  3  4  2  0
  4  5  1  0
  5  6  2  0
  6  7  1  0
  7  8  2  0
  7  9  2  0
  7 10  1  0
 10 11  1  0
 11 12  1  0
 12 13  2  0
 13 14  1  0
 14 15  2  0
 15 16  1  0
 16 17  2  0
  6 18  1  0
 18 19  2  0
 19  3  1  0
 17 12  1  0
  1 20  1  0
  1 21  1  0
  1 22  1  0
  4 23  1  0
  5 24  1  0
 11 25  1  0
 11 26  1  0
 13 27  1  0
 14 28  1  0
 15 29  1  0
 16 30  1  0
 17 31  1  0
 18 32  1  0
 19 33  1  0
M  CHG  2  10  -1  19   1
M  END
>  <UniqueID>  (79) 
69

>  <SMILES>  (79) 
CSc1ccc(S(=O)(=O)[N-]Cc2ccccc2)c[nH+]1

>  <Energy>  (79) 
24.12577017095138

>  <Genealogy>  (79) 
CSc1ccc(S(=O)(=O)[N-]Cc2ccccc2)c[nH+]1 (protonated)
CSc1ccc(S(=O)(=O)[N-]Cc2ccccc2)c[nH+]1 (3D coordinates assigned)
CSc1ccc(S(=O)(=O)[N-]Cc2ccccc2)c[nH+]1 (optimized conformer: 24.12577017095138 kcal/mol)

>  <smiles>  (79) 
CSc1ccc(S(=O)(=O)NCc2ccccc2)cn1

>  <score_type>  (79) 
oracle

>  <origin>  (79) 
adg

>  <m_score__min__energy>  (79) 
-7.4400000000000004

>  <m_primary>  (79) 
energy

$$$$
79:0
     RDKit          3D

 49 51  0  0  0  0  0  0  0  0999 V2000
   54.7900   26.3240   45.9900 N   0  0  0  0  0  0  0  0  0  0  0  0
   56.4660   25.9220   45.8770 S   0  0  0  0  0  0  0  0  0  0  0  0
   56.9530   25.4190   47.2070 O   0  0  0  0  0  0  0  0  0  0  0  0
   56.6510   24.8360   44.8540 O   0  0  0  0  0  0  0  0  0  0  0  0
   57.3850   27.3480   45.4060 C   0  0  0  0  0  0  0  0  0  0  0  0
   58.7080   27.2210   44.9640 C   0  0  0  0  0  0  0  0  0  0  0  0
   59.4250   28.3500   44.5590 C   0  0  0  0  0  0  0  0  0  0  0  0
   58.8190   29.6080   44.5780 C   0  0  0  0  0  0  0  0  0  0  0  0
   57.5000   29.7530   45.0210 C   0  0  0  0  0  0  0  0  0  0  0  0
   56.8880   31.0490   44.9500 N   0  0  0  0  0  0  0  0  0  0  0  0
   57.4590   32.2170   44.3520 C   0  0  0  0  0  0  0  0  0  0  0  0
   58.1570   32.1280   43.3050 O   0  0  0  0  0  0  0  0  0  0  0  0
   57.2130   33.5570   44.9680 C   0  0  0  0  0  0  0  0  0  0  0  0
   58.2800   34.4910   44.6090 N   0  0  0  0  0  0  0  0  0  0  0  0
   59.2670   35.0310   45.5010 C   0  0  0  0  0  0  0  0  0  0  0  0
   59.6840   36.2030   45.3020 O   0  0  0  0  0  0  0  0  0  0  0  0
   59.8410   34.2460   46.6120 C   0  0  0  0  0  0  0  0  0  0  0  0
   59.2040   34.2320   47.8600 C   0  0  0  0  0  0  0  0  0  0  0  0
   59.7570   33.5160   48.9260 C   0  0  0  0  0  0  0  0  0  0  0  0
   60.9350   32.7820   48.7570 C   0  0  0  0  0  0  0  0  0  0  0  0
   61.4450   32.0780   49.8600 O   0  0  0  0  0  0  0  0  0  0  0  0
   60.7280   31.1180   50.6390 C   0  0  0  0  0  0  0  0  0  0  0  0
   60.3200   29.9440   49.7910 C   0  0  0  0  0  0  0  0  0  0  0  0
   61.0090   28.7210   49.8730 C   0  0  0  0  0  0  0  0  0  0  0  0
   60.6240   27.6400   49.0740 C   0  0  0  0  0  0  0  0  0  0  0  0
   59.5600   27.7760   48.1780 C   0  0  0  0  0  0  0  0  0  0  0  0
   58.8780   28.9930   48.0810 C   0  0  0  0  0  0  0  0  0  0  0  0
   59.2520   30.0700   48.8870 C   0  0  0  0  0  0  0  0  0  0  0  0
   61.5520   32.7630   47.4910 C   0  0  0  0  0  0  0  0  0  0  0  0
   61.0040   33.4860   46.4270 C   0  0  0  0  0  0  0  0  0  0  0  0
   56.7820   28.6140   45.4310 C   0  0  0  0  0  0  0  0  0  0  0  0
   54.7100   27.0960   46.6880 H   0  0  0  0  0  0  0  0  0  0  0  0
   59.1840   26.2297   44.9356 H   0  0  0  0  0  0  0  0  0  0  0  0
   60.4680   28.2477   44.2248 H   0  0  0  0  0  0  0  0  0  0  0  0
   59.3827   30.4910   44.2423 H   0  0  0  0  0  0  0  0  0  0  0  0
   56.2513   33.9502   44.6067 H   0  0  0  0  0  0  0  0  0  0  0  0
   57.1911   33.4463   46.0622 H   0  0  0  0  0  0  0  0  0  0  0  0
   58.2648   34.7868   48.0016 H   0  0  0  0  0  0  0  0  0  0  0  0
   59.2604   33.5303   49.9074 H   0  0  0  0  0  0  0  0  0  0  0  0
   61.3710   30.7653   51.4589 H   0  0  0  0  0  0  0  0  0  0  0  0
   59.8226   31.5948   51.0426 H   0  0  0  0  0  0  0  0  0  0  0  0
   61.8544   28.6142   50.5686 H   0  0  0  0  0  0  0  0  0  0  0  0
   61.1589   26.6819   49.1507 H   0  0  0  0  0  0  0  0  0  0  0  0
   59.2589   26.9254   47.5489 H   0  0  0  0  0  0  0  0  0  0  0  0
   58.0464   29.1018   47.3693 H   0  0  0  0  0  0  0  0  0  0  0  0
   58.7072   31.0228   48.8138 H   0  0  0  0  0  0  0  0  0  0  0  0
   62.4699   32.1763   47.3385 H   0  0  0  0  0  0  0  0  0  0  0  0
   61.4882   33.4582   45.4397 H   0  0  0  0  0  0  0  0  0  0  0  0
   55.7417   28.7174   45.7731 H   0  0  0  0  0  0  0  0  0  0  0  0
  1  2  1  0
  2  3  2  0
  2  4  2  0
  2  5  1  0
  5  6  2  0
  6  7  1  0
  7  8  2  0
  8  9  1  0
  9 10  1  0
 10 11  1  0
 11 12  2  0
 11 13  1  0
 13 14  1  0
 14 15  1  0
 15 16  2  0
 15 17  1  0
 17 18  2  0
 18 19  1  0
 19 20  2  0
 20 21  1  0
 21 22  1  0
 22 23  1  0
 23 24  2  0
 24 25  1  0
 25 26  2  0
 26 27  1  0
 27 28  2  0
 20 29  1  0
 29 30  2  0
  9 31  2  0
 31  5  1  0
 30 17  1  0
 28 23  1  0
  1 32  1  0
  6 33  1  0
  7 34  1  0
  8 35  1  0
 13 36  1  0
 13 37  1  0
 18 38  1  0
 19 39  1  0
 22 40  1  0
 22 41  1  0
 24 42  1  0
 25 43  1  0
 26 44  1  0
 27 45  1  0
 28 46  1  0
 29 47  1  0
 30 48  1  0
 31 49  1  0
M  CHG  3   1  -1  10  -1  14  -1
M  END
>  <UniqueID>  (80) 
70

>  <SMILES>  (80) 
[NH-]S(=O)(=O)c1cccc([N-]C(=O)C[N-]C(=O)c2ccc(OCc3ccccc3)cc2)c1

>  <Energy>  (80) 
50.85590593364167

>  <Genealogy>  (80) 
[NH-]S(=O)(=O)c1cccc([N-]C(=O)C[N-]C(=O)c2ccc(OCc3ccccc3)cc2)c1 (protonated)
[NH-]S(=O)(=O)c1cccc([N-]C(=O)C[N-]C(=O)c2ccc(OCc3ccccc3)cc2)c1 (3D coordinates assigned)
[NH-]S(=O)(=O)c1cccc([N-]C(=O)C[N-]C(=O)c2ccc(OCc3ccccc3)cc2)c1 (optimized conformer: 50.85590593364167 kcal/mol)

>  <smiles>  (80) 
NS(=O)(=O)c1cccc(NC(=O)CNC(=O)c2ccc(OCc3ccccc3)cc2)c1

>  <score_type>  (80) 
oracle

>  <origin>  (80) 
adg

>  <m_score__min__energy>  (80) 
-14.67

>  <m_primary>  (80) 
energy

$$$$
80:0
     RDKit          3D

 38 39  0  0  0  0  0  0  0  0999 V2000
   54.5040   29.3988   44.7997 H   0  0  0  0  0  0  0  0  0  0  0  0
   55.6040   29.3890   44.7980 C   0  0  0  0  0  0  0  0  0  0  0  0
   56.2910   30.4750   44.3580 N   0  0  0  0  0  0  0  0  0  0  0  0
   57.6520   30.5130   44.3360 C   0  0  0  0  0  0  0  0  0  0  0  0
   58.2860   31.5700   43.9200 N   0  0  0  0  0  0  0  0  0  0  0  0
   57.8190   32.9460   44.0940 C   0  0  0  0  0  0  0  0  0  0  0  0
   58.1621   33.5547   43.2444 H   0  0  0  0  0  0  0  0  0  0  0  0
   56.7200   32.9449   44.1411 H   0  0  0  0  0  0  0  0  0  0  0  0
   58.3600   33.5300   45.3720 C   0  0  0  0  0  0  0  0  0  0  0  0
   59.1560   34.6870   45.3350 C   0  0  0  0  0  0  0  0  0  0  0  0
   59.3647   35.1773   44.3727 H   0  0  0  0  0  0  0  0  0  0  0  0
   59.6840   35.2180   46.5150 C   0  0  0  0  0  0  0  0  0  0  0  0
   60.3030   36.1267   46.4801 H   0  0  0  0  0  0  0  0  0  0  0  0
   59.4260   34.5950   47.7400 C   0  0  0  0  0  0  0  0  0  0  0  0
   59.8425   35.0132   48.6682 H   0  0  0  0  0  0  0  0  0  0  0  0
   58.6390   33.4410   47.7850 C   0  0  0  0  0  0  0  0  0  0  0  0
   58.4375   32.9510   48.7490 H   0  0  0  0  0  0  0  0  0  0  0  0
   58.1070   32.9080   46.6060 C   0  0  0  0  0  0  0  0  0  0  0  0
   57.4887   31.9991   46.6453 H   0  0  0  0  0  0  0  0  0  0  0  0
   58.3780   29.4030   44.7760 C   0  0  0  0  0  0  0  0  0  0  0  0
   59.4778   29.4163   44.7585 H   0  0  0  0  0  0  0  0  0  0  0  0
   57.6940   28.2770   45.2380 C   0  0  0  0  0  0  0  0  0  0  0  0
   58.2587   27.4028   45.5942 H   0  0  0  0  0  0  0  0  0  0  0  0
   56.2960   28.2530   45.2510 C   0  0  0  0  0  0  0  0  0  0  0  0
   55.6350   27.0850   45.7610 N   0  0  0  0  0  0  0  0  0  0  0  0
   56.2830   25.4800   45.9130 S   0  0  0  0  0  0  0  0  0  0  0  0
   55.1320   24.5390   46.1260 O   0  0  0  0  0  0  0  0  0  0  0  0
   57.1880   25.3780   47.1080 O   0  0  0  0  0  0  0  0  0  0  0  0
   57.1430   24.9650   44.4260 C   0  0  0  0  0  0  0  0  0  0  0  0
   58.1857   25.3096   44.4893 H   0  0  0  0  0  0  0  0  0  0  0  0
   56.6094   25.4085   43.5724 H   0  0  0  0  0  0  0  0  0  0  0  0
   57.1450   23.4430   44.2180 C   0  0  0  0  0  0  0  0  0  0  0  0
   56.7979   22.9599   45.1433 H   0  0  0  0  0  0  0  0  0  0  0  0
   58.1722   23.1412   43.9654 H   0  0  0  0  0  0  0  0  0  0  0  0
   56.2370   23.0090   43.0680 C   0  0  0  0  0  0  0  0  0  0  0  0
   55.3150   22.5683   43.4751 H   0  0  0  0  0  0  0  0  0  0  0  0
   55.9839   23.8835   42.4506 H   0  0  0  0  0  0  0  0  0  0  0  0
   56.7585   22.2628   42.4506 H   0  0  0  0  0  0  0  0  0  0  0  0
  1  2  1  0
  2  3  1  0
  3  4  1  0
  4  5  2  0
  5  6  1  0
  6  7  1  0
  6  8  1  0
  6  9  1  0
  9 10  2  0
 10 11  1  0
 10 12  1  0
 12 13  1  0
 12 14  2  0
 14 15  1  0
 14 16  1  0
 16 17  1  0
 16 18  2  0
 18 19  1  0
  4 20  1  0
 20 21  1  0
 20 22  2  0
 22 23  1  0
 22 24  1  0
 24 25  1  0
 25 26  1  0
 26 27  2  0
 26 28  2  0
 26 29  1  0
 29 30  1  0
 29 31  1  0
 29 32  1  0
 32 33  1  0
 32 34  1  0
 32 35  1  0
 35 36  1  0
 35 37  1  0
 35 38  1  0
 24  2  2  0
 18  9  1  0
M  CHG  2   3  -1  25  -1
M  END
>  <UniqueID>  (81) 
71

>  <SMILES>  (81) 
CCCS(=O)(=O)[N-]c1cc/c(=N/Cc2ccccc2)[n-]c1

>  <Energy>  (81) 
35.593436537786054

>  <Genealogy>  (81) 
CCCS(=O)(=O)[N-]c1ccc(=NCc2ccccc2)[n-]c1 (protonated)
CCCS(=O)(=O)[N-]c1cc/c(=N/Cc2ccccc2)[n-]c1 (cis-trans isomerization)
CCCS(=O)(=O)[N-]c1cc/c(=N/Cc2ccccc2)[n-]c1 (3D coordinates assigned)
CCCS(=O)(=O)[N-]c1cc/c(=N/Cc2ccccc2)[n-]c1 (optimized conformer: 35.593436537786054 kcal/mol)

>  <smiles>  (81) 
CCCS(=O)(=O)Nc1ccc(=NCc2ccccc2)[nH]c1

>  <score_type>  (81) 
oracle

>  <origin>  (81) 
adg

>  <m_score__min__energy>  (81) 
-10.92

>  <m_primary>  (81) 
energy

$$$$
81:0
     RDKit          3D

 36 38  0  0  0  0  0  0  0  0999 V2000
   57.8340   27.1770   43.3440 O   0  0  0  0  0  0  0  0  0  0  0  0
   57.9310   27.6860   44.4910 C   0  0  0  0  0  0  0  0  0  0  0  0
   58.4940   26.8870   45.5430 N   0  0  0  0  0  0  0  0  0  0  0  0
   57.8490   26.4400   46.7760 C   0  0  0  0  0  0  0  0  0  0  0  0
   56.4530   25.9640   46.5200 C   0  0  0  0  0  0  0  0  0  0  0  0
   55.4770   26.7280   45.9990 N   0  0  0  0  0  0  0  0  0  0  0  0
   54.4330   25.9220   45.9100 N   0  0  0  0  0  0  0  0  0  0  0  0
   54.7600   24.7160   46.3470 N   0  0  0  0  0  0  0  0  0  0  0  0
   56.0260   24.7070   46.7330 N   0  0  0  0  0  0  0  0  0  0  0  0
   57.5120   29.0910   44.6710 C   0  0  0  0  0  0  0  0  0  0  0  0
   56.3780   29.6750   44.1360 C   0  0  0  0  0  0  0  0  0  0  0  0
   56.3300   30.9710   44.4950 N   0  0  0  0  0  0  0  0  0  0  0  0
   57.3820   31.2160   45.2610 N   0  0  0  0  0  0  0  0  0  0  0  0
   57.7000   32.5170   45.7720 C   0  0  0  0  0  0  0  0  0  0  0  0
   56.8860   33.4650   45.6030 O   0  0  0  0  0  0  0  0  0  0  0  0
   58.9410   32.7570   46.4530 N   0  0  0  0  0  0  0  0  0  0  0  0
   59.5660   34.0760   46.4750 C   0  0  0  0  0  0  0  0  0  0  0  0
   60.9100   33.9890   47.1460 C   0  0  0  0  0  0  0  0  0  0  0  0
   62.0740   33.7700   46.3900 C   0  0  0  0  0  0  0  0  0  0  0  0
   63.3110   33.6380   47.0280 C   0  0  0  0  0  0  0  0  0  0  0  0
   63.3950   33.7150   48.4210 C   0  0  0  0  0  0  0  0  0  0  0  0
   62.2400   33.9240   49.1790 C   0  0  0  0  0  0  0  0  0  0  0  0
   61.0010   34.0560   48.5460 C   0  0  0  0  0  0  0  0  0  0  0  0
   58.1180   30.0960   45.3980 C   0  0  0  0  0  0  0  0  0  0  0  0
   58.4349   25.6152   47.2078 H   0  0  0  0  0  0  0  0  0  0  0  0
   57.8027   27.2913   47.4711 H   0  0  0  0  0  0  0  0  0  0  0  0
   55.6313   29.1600   43.5137 H   0  0  0  0  0  0  0  0  0  0  0  0
   59.4580   31.9590   46.8850 H   0  0  0  0  0  0  0  0  0  0  0  0
   59.6947   34.4369   45.4439 H   0  0  0  0  0  0  0  0  0  0  0  0
   58.9246   34.7739   47.0331 H   0  0  0  0  0  0  0  0  0  0  0  0
   62.0118   33.7023   45.2938 H   0  0  0  0  0  0  0  0  0  0  0  0
   64.2207   33.4731   46.4320 H   0  0  0  0  0  0  0  0  0  0  0  0
   64.3697   33.6111   48.9202 H   0  0  0  0  0  0  0  0  0  0  0  0
   62.3060   33.9847   50.2753 H   0  0  0  0  0  0  0  0  0  0  0  0
   60.0931   34.2131   49.1469 H   0  0  0  0  0  0  0  0  0  0  0  0
   59.0419   29.9991   45.9871 H   0  0  0  0  0  0  0  0  0  0  0  0
  1  2  2  0
  2  3  1  0
  3  4  1  0
  4  5  1  0
  5  6  1  0
  6  7  2  0
  7  8  1  0
  8  9  1  0
  2 10  1  0
 10 11  1  0
 11 12  2  0
 12 13  1  0
 13 14  1  0
 14 15  2  0
 14 16  1  0
 16 17  1  0
 17 18  1  0
 18 19  2  0
 19 20  1  0
 20 21  2  0
 21 22  1  0
 22 23  2  0
 13 24  1  0
  9  5  2  0
 24 10  2  0
 23 18  1  0
  4 25  1  0
  4 26  1  0
 11 27  1  0
 16 28  1  0
 17 29  1  0
 17 30  1  0
 19 31  1  0
 20 32  1  0
 21 33  1  0
 22 34  1  0
 23 35  1  0
 24 36  1  0
M  CHG  2   3  -1   8  -1
M  END
>  <UniqueID>  (82) 
72

>  <SMILES>  (82) 
O=C([N-]Cc1nn[n-]n1)c1cnn(C(=O)NCc2ccccc2)c1

>  <Energy>  (82) 
104.92581746830237

>  <Genealogy>  (82) 
O=C([N-]Cc1nn[n-]n1)c1cnn(C(=O)NCc2ccccc2)c1 (protonated)
O=C([N-]Cc1nn[n-]n1)c1cnn(C(=O)NCc2ccccc2)c1 (3D coordinates assigned)
O=C([N-]Cc1nn[n-]n1)c1cnn(C(=O)NCc2ccccc2)c1 (optimized conformer: 104.92581746830237 kcal/mol)

>  <smiles>  (82) 
O=C(NCc1nn[nH]n1)c1cnn(C(=O)NCc2ccccc2)c1

>  <score_type>  (82) 
oracle

>  <origin>  (82) 
adg

>  <m_score__min__energy>  (82) 
-12.51

>  <m_primary>  (82) 
energy

$$$$
82:0
     RDKit          3D

 55 58  0  0  0  0  0  0  0  0999 V2000
   58.8010   28.2740   52.5390 O   0  0  0  0  0  0  0  0  0  0  0  0
   57.8650   29.1090   52.3950 C   0  0  0  0  0  0  0  0  0  0  0  0
   57.7690   29.8870   51.1940 N   0  0  0  0  0  0  0  0  0  0  0  0
   58.8150   29.9460   50.2110 C   0  0  0  0  0  0  0  0  0  0  0  0
   59.4300   28.7550   49.8010 C   0  0  0  0  0  0  0  0  0  0  0  0
   60.4450   28.7750   48.8420 C   0  0  0  0  0  0  0  0  0  0  0  0
   60.8430   29.9850   48.2730 C   0  0  0  0  0  0  0  0  0  0  0  0
   60.2200   31.1770   48.6510 C   0  0  0  0  0  0  0  0  0  0  0  0
   59.1870   31.1690   49.6120 C   0  0  0  0  0  0  0  0  0  0  0  0
   58.4990   32.3410   49.9730 O   0  0  0  0  0  0  0  0  0  0  0  0
   59.1050   33.6050   50.2420 C   0  0  0  0  0  0  0  0  0  0  0  0
   59.8110   34.1270   49.0190 C   0  0  0  0  0  0  0  0  0  0  0  0
   61.0120   34.4990   49.1310 O   0  0  0  0  0  0  0  0  0  0  0  0
   59.1650   34.1790   47.7290 N   0  0  0  0  0  0  0  0  0  0  0  0
   59.5620   35.2230   46.7740 C   0  0  0  0  0  0  0  0  0  0  0  0
   59.2610   34.7750   45.3400 C   0  0  0  0  0  0  0  0  0  0  0  0
   57.9230   34.3340   45.2220 O   0  0  0  0  0  0  0  0  0  0  0  0
   57.7440   33.1620   45.9930 C   0  0  0  0  0  0  0  0  0  0  0  0
   57.9080   33.4610   47.4870 C   0  0  0  0  0  0  0  0  0  0  0  0
   56.8700   29.3110   53.5030 C   0  0  2  0  0  0  0  0  0  0  0  0
   56.0390   28.0400   53.7670 C   0  0  0  0  0  0  0  0  0  0  0  0
   54.7090   28.4630   53.5320 O   0  0  0  0  0  0  0  0  0  0  0  0
   54.7070   29.7960   53.1660 C   0  0  0  0  0  0  0  0  0  0  0  0
   53.4760   30.5460   52.8400 C   0  0  0  0  0  0  0  0  0  0  0  0
   52.7690   31.2010   53.8570 C   0  0  0  0  0  0  0  0  0  0  0  0
   51.6050   31.9100   53.5620 C   0  0  0  0  0  0  0  0  0  0  0  0
   51.1290   31.9780   52.2500 C   0  0  0  0  0  0  0  0  0  0  0  0
   49.9650   32.6980   52.0010 O   0  0  0  0  0  0  0  0  0  0  0  0
   51.8250   31.3250   51.2060 C   0  0  0  0  0  0  0  0  0  0  0  0
   51.3620   31.3730   49.8390 N   0  0  0  0  0  0  0  0  0  0  0  0
   50.9120   32.4270   49.3460 O   0  0  0  0  0  0  0  0  0  0  0  0
   51.4110   30.2480   49.0480 O   0  0  0  0  0  0  0  0  0  0  0  0
   52.9980   30.6120   51.5200 C   0  0  0  0  0  0  0  0  0  0  0  0
   55.8850   30.3190   53.1290 N   0  0  0  0  0  0  0  0  0  0  0  0
   56.8520   30.3340   50.9660 H   0  0  0  0  0  0  0  0  0  0  0  0
   59.1107   27.7973   50.2379 H   0  0  0  0  0  0  0  0  0  0  0  0
   60.9306   27.8368   48.5353 H   0  0  0  0  0  0  0  0  0  0  0  0
   61.6493   30.0006   47.5249 H   0  0  0  0  0  0  0  0  0  0  0  0
   60.5367   32.1274   48.1967 H   0  0  0  0  0  0  0  0  0  0  0  0
   58.3269   34.3218   50.5434 H   0  0  0  0  0  0  0  0  0  0  0  0
   59.8415   33.4797   51.0494 H   0  0  0  0  0  0  0  0  0  0  0  0
   59.0026   36.1449   46.9910 H   0  0  0  0  0  0  0  0  0  0  0  0
   60.6423   35.4055   46.8723 H   0  0  0  0  0  0  0  0  0  0  0  0
   59.4234   35.6212   44.6563 H   0  0  0  0  0  0  0  0  0  0  0  0
   59.9309   33.9412   45.0833 H   0  0  0  0  0  0  0  0  0  0  0  0
   56.7344   32.7636   45.8140 H   0  0  0  0  0  0  0  0  0  0  0  0
   58.5053   32.4257   45.6959 H   0  0  0  0  0  0  0  0  0  0  0  0
   57.0652   34.0804   47.8275 H   0  0  0  0  0  0  0  0  0  0  0  0
   57.9266   32.5112   48.0415 H   0  0  0  0  0  0  0  0  0  0  0  0
   57.4622   29.5979   54.3845 H   0  0  0  0  0  0  0  0  0  0  0  0
   56.3234   27.2331   53.0756 H   0  0  0  0  0  0  0  0  0  0  0  0
   56.1876   27.6320   54.7776 H   0  0  0  0  0  0  0  0  0  0  0  0
   53.1341   31.1557   54.8937 H   0  0  0  0  0  0  0  0  0  0  0  0
   51.0573   32.4197   54.3684 H   0  0  0  0  0  0  0  0  0  0  0  0
   53.5494   30.0981   50.7188 H   0  0  0  0  0  0  0  0  0  0  0  0
  1  2  2  0
  2  3  1  0
  3  4  1  0
  4  5  2  0
  5  6  1  0
  6  7  2  0
  7  8  1  0
  8  9  2  0
  9 10  1  0
 10 11  1  0
 11 12  1  0
 12 13  2  0
 12 14  1  0
 14 15  1  0
 15 16  1  0
 16 17  1  0
 17 18  1  0
 18 19  1  0
  2 20  1  0
 20 21  1  0
 21 22  1  0
 22 23  1  0
 23 24  1  0
 24 25  2  0
 25 26  1  0
 26 27  2  0
 27 28  1  0
 27 29  1  0
 29 30  1  0
 30 31  2  0
 30 32  1  0
 29 33  2  0
 23 34  2  0
  9  4  1  0
 19 14  1  0
 34 20  1  0
 33 24  1  0
  3 35  1  0
  5 36  1  0
  6 37  1  0
  7 38  1  0
  8 39  1  0
 11 40  1  0
 11 41  1  0
 15 42  1  0
 15 43  1  0
 16 44  1  0
 16 45  1  0
 18 46  1  0
 18 47  1  0
 19 48  1  0
 19 49  1  0
 20 50  1  1
 21 51  1  0
 21 52  1  0
 25 53  1  0
 26 54  1  0
 33 55  1  0
M  CHG  3  28  -1  30   1  32  -1
M  END
>  <UniqueID>  (83) 
73

>  <SMILES>  (83) 
O=C(Nc1ccccc1OCC(=O)N1CCOCC1)[C@@H]1COC(c2ccc([O-])c([N+](=O)[O-])c2)=N1

>  <Energy>  (83) 
81.07821024336256

>  <Genealogy>  (83) 
O=C(Nc1ccccc1OCC(=O)N1CCOCC1)C1COC(c2ccc([O-])c([N+](=O)[O-])c2)=N1 (protonated)
O=C(Nc1ccccc1OCC(=O)N1CCOCC1)[C@@H]1COC(c2ccc([O-])c([N+](=O)[O-])c2)=N1 (chirality)
O=C(Nc1ccccc1OCC(=O)N1CCOCC1)[C@@H]1COC(c2ccc([O-])c([N+](=O)[O-])c2)=N1 (3D coordinates assigned)
O=C(Nc1ccccc1OCC(=O)N1CCOCC1)[C@@H]1COC(c2ccc([O-])c([N+](=O)[O-])c2)=N1 (nonaromatic ring conformer: 81.07821024336256 kcal/mol)

>  <smiles>  (83) 
O=C(Nc1ccccc1OCC(=O)N1CCOCC1)C1COC(c2ccc(O)c([N+](=O)[O-])c2)=N1

>  <score_type>  (83) 
oracle

>  <origin>  (83) 
adg

>  <m_score__min__energy>  (83) 
-12.210000000000001

>  <m_primary>  (83) 
energy

$$$$
83:0
     RDKit          3D

 44 46  0  0  0  0  0  0  0  0999 V2000
   59.7567   35.4377   46.6990 H   0  0  0  0  0  0  0  0  0  0  0  0
   59.1420   34.6280   46.2790 C   0  0  0  0  0  0  0  0  0  0  0  0
   58.9390   34.5480   44.9000 C   0  0  0  0  0  0  0  0  0  0  0  0
   59.4040   35.2875   44.2315 H   0  0  0  0  0  0  0  0  0  0  0  0
   58.1440   33.5270   44.3690 C   0  0  0  0  0  0  0  0  0  0  0  0
   58.0010   33.4586   43.2805 H   0  0  0  0  0  0  0  0  0  0  0  0
   57.5270   32.5890   45.2110 C   0  0  0  0  0  0  0  0  0  0  0  0
   56.7210   31.5570   44.6140 N   0  0  0  0  0  0  0  0  0  0  0  0
   56.9420   30.2760   44.6580 C   0  0  0  0  0  0  0  0  0  0  0  0
   56.4220   29.4370   45.5770 N   0  0  0  0  0  0  0  0  0  0  0  0
   56.9060   28.2490   45.1570 C   0  0  0  0  0  0  0  0  0  0  0  0
   56.5780   26.7040   45.9980 S   0  0  0  0  0  0  0  0  0  0  0  0
   58.0340   26.8540   47.0870 C   0  0  0  0  0  0  0  0  0  0  0  0
   57.9833   26.0774   47.8644 H   0  0  0  0  0  0  0  0  0  0  0  0
   58.0298   27.8555   47.5420 H   0  0  0  0  0  0  0  0  0  0  0  0
   59.3330   26.6840   46.2930 C   0  0  0  0  0  0  0  0  0  0  0  0
   60.1538   27.1326   46.8719 H   0  0  0  0  0  0  0  0  0  0  0  0
   59.1805   27.1787   45.3224 H   0  0  0  0  0  0  0  0  0  0  0  0
   59.6950   25.2200   45.9950 C   0  0  0  0  0  0  0  0  0  0  0  0
   60.6083   24.9562   46.5484 H   0  0  0  0  0  0  0  0  0  0  0  0
   59.8541   25.1136   44.9118 H   0  0  0  0  0  0  0  0  0  0  0  0
   58.6410   24.3380   46.3870 O   0  0  0  0  0  0  0  0  0  0  0  0
   57.8740   23.5140   45.5410 C   0  0  0  0  0  0  0  0  0  0  0  0
   57.7510   23.7460   44.1550 C   0  0  0  0  0  0  0  0  0  0  0  0
   58.2568   24.6090   43.6974 H   0  0  0  0  0  0  0  0  0  0  0  0
   56.9900   22.8850   43.3610 C   0  0  0  0  0  0  0  0  0  0  0  0
   56.8948   23.0735   42.2815 H   0  0  0  0  0  0  0  0  0  0  0  0
   56.3510   21.7870   43.9350 C   0  0  0  0  0  0  0  0  0  0  0  0
   55.7568   21.1077   43.3061 H   0  0  0  0  0  0  0  0  0  0  0  0
   56.4630   21.5470   45.3060 C   0  0  0  0  0  0  0  0  0  0  0  0
   55.9482   20.6851   45.7556 H   0  0  0  0  0  0  0  0  0  0  0  0
   57.2330   22.4050   46.1150 C   0  0  0  0  0  0  0  0  0  0  0  0
   57.3860   22.1880   47.4920 O   0  0  0  0  0  0  0  0  0  0  0  0
   56.6450   22.8590   48.5080 C   0  0  0  0  0  0  0  0  0  0  0  0
   57.0024   22.5354   49.4967 H   0  0  0  0  0  0  0  0  0  0  0  0
   56.7832   23.9455   48.4057 H   0  0  0  0  0  0  0  0  0  0  0  0
   55.5775   22.6140   48.4057 H   0  0  0  0  0  0  0  0  0  0  0  0
   57.6660   28.3480   44.0470 N   0  0  0  0  0  0  0  0  0  0  0  0
   57.6790   29.6320   43.7400 N   0  0  0  0  0  0  0  0  0  0  0  0
   58.1760   30.0450   42.9180 H   0  0  0  0  0  0  0  0  0  0  0  0
   57.7670   32.6540   46.5980 C   0  0  0  0  0  0  0  0  0  0  0  0
   57.3279   31.8989   47.2666 H   0  0  0  0  0  0  0  0  0  0  0  0
   58.5620   33.6760   47.1270 C   0  0  0  0  0  0  0  0  0  0  0  0
   58.7322   33.7323   48.2123 H   0  0  0  0  0  0  0  0  0  0  0  0
  1  2  1  0
  2  3  2  0
  3  4  1  0
  3  5  1  0
  5  6  1  0
  5  7  2  0
  7  8  1  0
  8  9  2  0
  9 10  1  0
 10 11  2  0
 11 12  1  0
 12 13  1  0
 13 14  1  0
 13 15  1  0
 13 16  1  0
 16 17  1  0
 16 18  1  0
 16 19  1  0
 19 20  1  0
 19 21  1  0
 19 22  1  0
 22 23  1  0
 23 24  2  0
 24 25  1  0
 24 26  1  0
 26 27  1  0
 26 28  2  0
 28 29  1  0
 28 30  1  0
 30 31  1  0
 30 32  2  0
 32 33  1  0
 33 34  1  0
 34 35  1  0
 34 36  1  0
 34 37  1  0
 11 38  1  0
 38 39  1  0
 39 40  1  0
  7 41  1  0
 41 42  1  0
 41 43  2  0
 43 44  1  0
 43  2  1  0
 39  9  1  0
 32 23  1  0
M  CHG  1  38  -1
M  END
>  <UniqueID>  (84) 
74

>  <SMILES>  (84) 
COc1ccccc1OCCCSc1n/c(=N\c2ccccc2)[nH][n-]1

>  <Energy>  (84) 
79.89810048042881

>  <Genealogy>  (84) 
COc1ccccc1OCCCSc1nc(=Nc2ccccc2)[nH][n-]1 (protonated)
COc1ccccc1OCCCSc1n/c(=N\c2ccccc2)[nH][n-]1 (cis-trans isomerization)
COc1ccccc1OCCCSc1n/c(=N\c2ccccc2)[nH][n-]1 (3D coordinates assigned)
COc1ccccc1OCCCSc1n/c(=N\c2ccccc2)[nH][n-]1 (optimized conformer: 79.89810048042881 kcal/mol)

>  <smiles>  (84) 
COc1ccccc1OCCCSc1nc(=Nc2ccccc2)[nH][nH]1

>  <score_type>  (84) 
oracle

>  <origin>  (84) 
adg

>  <m_score__min__energy>  (84) 
-9.1699999999999999

>  <m_primary>  (84) 
energy

$$$$
84:0
     RDKit          3D

 30 31  0  0  0  0  0  0  0  0999 V2000
   60.0496   31.0382   49.8244 H   0  0  0  0  0  0  0  0  0  0  0  0
   60.0750   30.7030   48.7770 C   0  0  0  0  0  0  0  0  0  0  0  0
   61.0120   31.1480   47.8550 C   0  0  0  0  0  0  0  0  0  0  0  0
   62.4250   32.3770   48.2050 Br  0  0  0  0  0  0  0  0  0  0  0  0
   60.7240   30.4020   46.3770 S   0  0  0  0  0  0  0  0  0  0  0  0
   59.3860   29.5210   46.8930 C   0  0  0  0  0  0  0  0  0  0  0  0
   58.6510   28.5070   46.0720 C   0  0  0  0  0  0  0  0  0  0  0  0
   58.1786   27.7699   46.7379 H   0  0  0  0  0  0  0  0  0  0  0  0
   59.3590   27.9978   45.4016 H   0  0  0  0  0  0  0  0  0  0  0  0
   57.5930   29.1910   45.2530 C   0  0  0  0  0  0  0  0  0  0  0  0
   57.9200   30.3100   44.6640 N   0  0  0  0  0  0  0  0  0  0  0  0
   57.1520   31.5530   44.5860 C   0  0  0  0  0  0  0  0  0  0  0  0
   57.0160   31.8267   43.5293 H   0  0  0  0  0  0  0  0  0  0  0  0
   56.1771   31.3949   45.0703 H   0  0  0  0  0  0  0  0  0  0  0  0
   57.8680   32.6730   45.2980 C   0  0  0  0  0  0  0  0  0  0  0  0
   58.5980   33.6270   44.5700 C   0  0  0  0  0  0  0  0  0  0  0  0
   58.6420   33.5628   43.4728 H   0  0  0  0  0  0  0  0  0  0  0  0
   59.2690   34.6580   45.2350 C   0  0  0  0  0  0  0  0  0  0  0  0
   59.8312   35.4078   44.6591 H   0  0  0  0  0  0  0  0  0  0  0  0
   59.2270   34.7380   46.6290 C   0  0  0  0  0  0  0  0  0  0  0  0
   59.7506   35.5537   47.1490 H   0  0  0  0  0  0  0  0  0  0  0  0
   58.5200   33.7820   47.3630 C   0  0  0  0  0  0  0  0  0  0  0  0
   58.4913   33.8429   48.4609 H   0  0  0  0  0  0  0  0  0  0  0  0
   57.8490   32.7480   46.7030 C   0  0  0  0  0  0  0  0  0  0  0  0
   57.3039   31.9899   47.2846 H   0  0  0  0  0  0  0  0  0  0  0  0
   56.2150   28.6330   45.2490 C   0  0  0  0  0  0  0  0  0  0  0  0
   55.9800   27.4610   45.6410 O   0  0  0  0  0  0  0  0  0  0  0  0
   55.1490   29.4290   44.8480 O   0  0  0  0  0  0  0  0  0  0  0  0
   59.1660   29.7850   48.2400 C   0  0  0  0  0  0  0  0  0  0  0  0
   58.3589   29.3193   48.8245 H   0  0  0  0  0  0  0  0  0  0  0  0
  1  2  1  0
  2  3  2  0
  3  4  1  0
  3  5  1  0
  5  6  1  0
  6  7  1  0
  7  8  1  0
  7  9  1  0
  7 10  1  0
 10 11  2  0
 11 12  1  0
 12 13  1  0
 12 14  1  0
 12 15  1  0
 15 16  2  0
 16 17  1  0
 16 18  1  0
 18 19  1  0
 18 20  2  0
 20 21  1  0
 20 22  1  0
 22 23  1  0
 22 24  2  0
 24 25  1  0
 10 26  1  0
 26 27  2  0
 26 28  1  0
  6 29  2  0
 29 30  1  0
 29  2  1  0
 24 15  1  0
M  CHG  1  28  -1
M  END
>  <UniqueID>  (85) 
75

>  <SMILES>  (85) 
O=C([O-])/C(Cc1ccc(Br)s1)=N\Cc1ccccc1

>  <Energy>  (85) 
56.055060096627614

>  <Genealogy>  (85) 
O=C([O-])C(Cc1ccc(Br)s1)=NCc1ccccc1 (protonated)
O=C([O-])/C(Cc1ccc(Br)s1)=N\Cc1ccccc1 (cis-trans isomerization)
O=C([O-])/C(Cc1ccc(Br)s1)=N\Cc1ccccc1 (3D coordinates assigned)
O=C([O-])/C(Cc1ccc(Br)s1)=N\Cc1ccccc1 (optimized conformer: 56.055060096627614 kcal/mol)

>  <smiles>  (85) 
O=C(O)C(Cc1ccc(Br)s1)=NCc1ccccc1

>  <score_type>  (85) 
oracle

>  <origin>  (85) 
adg

>  <m_score__min__energy>  (85) 
-9.9600000000000009

>  <m_primary>  (85) 
energy

$$$$
85:0
     RDKit          3D

 50 52  0  0  0  0  0  0  0  0999 V2000
   55.4418   28.8401   44.1763 H   0  0  0  0  0  0  0  0  0  0  0  0
   56.1050   29.7010   44.0060 C   0  0  0  0  0  0  0  0  0  0  0  0
   56.6740   30.3400   45.0630 N   0  0  0  0  0  0  0  0  0  0  0  0
   57.4990   31.4110   44.9070 C   0  0  0  0  0  0  0  0  0  0  0  0
   58.0040   31.9640   45.9750 N   0  0  0  0  0  0  0  0  0  0  0  0
   58.5610   31.2870   47.1480 C   0  0  0  0  0  0  0  0  0  0  0  0
   57.8904   30.4667   47.4437 H   0  0  0  0  0  0  0  0  0  0  0  0
   58.6553   32.0167   47.9657 H   0  0  0  0  0  0  0  0  0  0  0  0
   59.9480   30.7150   46.8360 C   0  0  0  0  0  0  0  0  0  0  0  0
   60.7016   31.2589   47.4245 H   0  0  0  0  0  0  0  0  0  0  0  0
   60.1401   30.8320   45.7592 H   0  0  0  0  0  0  0  0  0  0  0  0
   60.0210   29.2260   47.1840 C   0  0  0  0  0  0  0  0  0  0  0  0
   59.6051   29.0674   48.1899 H   0  0  0  0  0  0  0  0  0  0  0  0
   61.0720   28.9027   47.1560 H   0  0  0  0  0  0  0  0  0  0  0  0
   59.2530   28.4390   46.2130 N   0  0  0  0  0  0  0  0  0  0  0  0
   58.1880   27.7610   46.6510 N   0  0  0  0  0  0  0  0  0  0  0  0
   57.4300   26.9830   45.8310 C   0  0  0  0  0  0  0  0  0  0  0  0
   56.2670   26.2650   46.3820 C   0  0  0  0  0  0  0  0  0  0  0  0
   55.1090   26.5470   45.9720 O   0  0  0  0  0  0  0  0  0  0  0  0
   56.4460   25.2530   47.3770 N   0  0  0  0  0  0  0  0  0  0  0  0
   56.8350   23.8870   47.0560 C   0  0  0  0  0  0  0  0  0  0  0  0
   56.2978   23.1883   47.7142 H   0  0  0  0  0  0  0  0  0  0  0  0
   57.9187   23.7695   47.2038 H   0  0  0  0  0  0  0  0  0  0  0  0
   56.4890   23.5920   45.6220 C   0  0  0  0  0  0  0  0  0  0  0  0
   55.1520   23.6590   45.1980 C   0  0  0  0  0  0  0  0  0  0  0  0
   54.3661   23.9437   45.9130 H   0  0  0  0  0  0  0  0  0  0  0  0
   54.8130   23.3670   43.8760 C   0  0  0  0  0  0  0  0  0  0  0  0
   53.7639   23.4284   43.5510 H   0  0  0  0  0  0  0  0  0  0  0  0
   55.8050   22.9970   42.9660 C   0  0  0  0  0  0  0  0  0  0  0  0
   55.5370   22.7713   41.9233 H   0  0  0  0  0  0  0  0  0  0  0  0
   57.1360   22.9130   43.3770 C   0  0  0  0  0  0  0  0  0  0  0  0
   57.9123   22.6174   42.6559 H   0  0  0  0  0  0  0  0  0  0  0  0
   57.4930   23.2040   44.7090 C   0  0  0  0  0  0  0  0  0  0  0  0
   58.8220   23.1150   45.1560 O   0  0  0  0  0  0  0  0  0  0  0  0
   59.7770   22.1770   44.6720 C   0  0  0  0  0  0  0  0  0  0  0  0
   60.2746   21.6883   45.5226 H   0  0  0  0  0  0  0  0  0  0  0  0
   59.2679   21.4182   44.0597 H   0  0  0  0  0  0  0  0  0  0  0  0
   60.5266   22.6997   44.0597 H   0  0  0  0  0  0  0  0  0  0  0  0
   57.7810   26.8830   44.4800 C   0  0  0  0  0  0  0  0  0  0  0  0
   57.1839   26.2640   43.7942 H   0  0  0  0  0  0  0  0  0  0  0  0
   58.8930   27.5750   44.0150 C   0  0  0  0  0  0  0  0  0  0  0  0
   59.1857   27.5065   42.9569 H   0  0  0  0  0  0  0  0  0  0  0  0
   59.6350   28.3570   44.9000 C   0  0  0  0  0  0  0  0  0  0  0  0
   60.6510   28.9750   44.4790 O   0  0  0  0  0  0  0  0  0  0  0  0
   57.7810   31.8740   43.6050 C   0  0  0  0  0  0  0  0  0  0  0  0
   58.4489   32.7350   43.4550 H   0  0  0  0  0  0  0  0  0  0  0  0
   57.2050   31.2300   42.5080 C   0  0  0  0  0  0  0  0  0  0  0  0
   57.4163   31.5850   41.4885 H   0  0  0  0  0  0  0  0  0  0  0  0
   56.3620   30.1370   42.7050 C   0  0  0  0  0  0  0  0  0  0  0  0
   55.9050   29.6245   41.8457 H   0  0  0  0  0  0  0  0  0  0  0  0
  1  2  1  0
  2  3  1  0
  3  4  1  0
  4  5  2  0
  5  6  1  0
  6  7  1  0
  6  8  1  0
  6  9  1  0
  9 10  1  0
  9 11  1  0
  9 12  1  0
 12 13  1  0
 12 14  1  0
 12 15  1  0
 15 16  1  0
 16 17  2  0
 17 18  1  0
 18 19  2  0
 18 20  1  0
 20 21  1  0
 21 22  1  0
 21 23  1  0
 21 24  1  0
 24 25  2  0
 25 26  1  0
 25 27  1  0
 27 28  1  0
 27 29  2  0
 29 30  1  0
 29 31  1  0
 31 32  1  0
 31 33  2  0
 33 34  1  0
 34 35  1  0
 35 36  1  0
 35 37  1  0
 35 38  1  0
 17 39  1  0
 39 40  1  0
 39 41  2  0
 41 42  1  0
 41 43  1  0
 43 44  2  0
  4 45  1  0
 45 46  1  0
 45 47  2  0
 47 48  1  0
 47 49  1  0
 49 50  1  0
 49  2  2  0
 43 15  1  0
 33 24  1  0
M  CHG  2   3  -1  20  -1
M  END
>  <UniqueID>  (86) 
76

>  <SMILES>  (86) 
COc1ccccc1C[N-]C(=O)c1ccc(=O)n(CCC/N=c2\cccc[n-]2)n1

>  <Energy>  (86) 
49.346544068119826

>  <Genealogy>  (86) 
COc1ccccc1C[N-]C(=O)c1ccc(=O)n(CCCN=c2cccc[n-]2)n1 (protonated)
COc1ccccc1C[N-]C(=O)c1ccc(=O)n(CCC/N=c2\cccc[n-]2)n1 (cis-trans isomerization)
COc1ccccc1C[N-]C(=O)c1ccc(=O)n(CCC/N=c2\cccc[n-]2)n1 (3D coordinates assigned)
COc1ccccc1C[N-]C(=O)c1ccc(=O)n(CCC/N=c2\cccc[n-]2)n1 (optimized conformer: 49.346544068119826 kcal/mol)

>  <smiles>  (86) 
COc1ccccc1CNC(=O)c1ccc(=O)n(CCCN=c2cccc[nH]2)n1

>  <score_type>  (86) 
oracle

>  <origin>  (86) 
adg

>  <m_score__min__energy>  (86) 
-11.19

>  <m_primary>  (86) 
energy

$$$$
86:0
     RDKit          3D

 40 41  0  0  0  0  0  0  0  0999 V2000
   63.5380   33.4030   47.2820 C   0  0  0  0  0  0  0  0  0  0  0  0
   62.2860   33.8020   46.5030 C   0  0  0  0  0  0  0  0  0  0  0  0
   61.0670   33.4630   47.2560 N   0  0  0  0  0  0  0  0  0  0  0  0
   61.1630   32.9440   48.6000 C   0  0  0  0  0  0  0  0  0  0  0  0
   61.1990   33.7440   49.5750 O   0  0  0  0  0  0  0  0  0  0  0  0
   61.2490   31.4670   48.8610 C   0  0  0  0  0  0  0  0  0  0  0  0
   61.1660   30.7440   47.6360 O   0  0  0  0  0  0  0  0  0  0  0  0
   60.1760   29.7900   47.3900 C   0  0  0  0  0  0  0  0  0  0  0  0
   59.3790   29.4390   48.3010 O   0  0  0  0  0  0  0  0  0  0  0  0
   60.0380   29.2170   46.0160 C   0  0  0  0  0  0  0  0  0  0  0  0
   58.6020   29.2930   45.5700 C   0  0  0  0  0  0  0  0  0  0  0  0
   57.7830   28.1580   45.6270 C   0  0  0  0  0  0  0  0  0  0  0  0
   56.4970   28.2170   45.1920 N   0  0  0  0  0  0  0  0  0  0  0  0
   55.9860   29.3720   44.6870 C   0  0  0  0  0  0  0  0  0  0  0  0
   54.7920   29.4150   44.2890 O   0  0  0  0  0  0  0  0  0  0  0  0
   56.7630   30.4820   44.6080 N   0  0  0  0  0  0  0  0  0  0  0  0
   58.0540   30.4700   45.0300 C   0  0  0  0  0  0  0  0  0  0  0  0
   58.7460   31.5170   44.9290 O   0  0  0  0  0  0  0  0  0  0  0  0
   59.7620   33.6860   46.6700 C   0  0  0  0  0  0  0  0  0  0  0  0
   58.5900   33.2490   47.3190 C   0  0  0  0  0  0  0  0  0  0  0  0
   57.3360   33.4760   46.7450 C   0  0  0  0  0  0  0  0  0  0  0  0
   57.2350   34.1430   45.5210 C   0  0  0  0  0  0  0  0  0  0  0  0
   58.3880   34.5840   44.8700 C   0  0  0  0  0  0  0  0  0  0  0  0
   59.6450   34.3600   45.4400 C   0  0  0  0  0  0  0  0  0  0  0  0
   63.3346   33.4678   48.3611 H   0  0  0  0  0  0  0  0  0  0  0  0
   63.8178   32.3712   47.0229 H   0  0  0  0  0  0  0  0  0  0  0  0
   64.3632   34.0827   47.0229 H   0  0  0  0  0  0  0  0  0  0  0  0
   62.3062   34.8865   46.3202 H   0  0  0  0  0  0  0  0  0  0  0  0
   62.2748   33.2514   45.5508 H   0  0  0  0  0  0  0  0  0  0  0  0
   62.2067   31.2402   49.3523 H   0  0  0  0  0  0  0  0  0  0  0  0
   60.4130   31.1686   49.5106 H   0  0  0  0  0  0  0  0  0  0  0  0
   60.6673   29.7884   45.3178 H   0  0  0  0  0  0  0  0  0  0  0  0
   60.3575   28.1645   46.0292 H   0  0  0  0  0  0  0  0  0  0  0  0
   58.1829   27.2141   46.0259 H   0  0  0  0  0  0  0  0  0  0  0  0
   55.8990   27.3610   45.2470 H   0  0  0  0  0  0  0  0  0  0  0  0
   58.6625   32.7257   48.2838 H   0  0  0  0  0  0  0  0  0  0  0  0
   56.4267   33.1290   47.2577 H   0  0  0  0  0  0  0  0  0  0  0  0
   56.2471   34.3203   45.0709 H   0  0  0  0  0  0  0  0  0  0  0  0
   58.3078   35.1088   43.9066 H   0  0  0  0  0  0  0  0  0  0  0  0
   60.5494   34.7133   44.9231 H   0  0  0  0  0  0  0  0  0  0  0  0
  1  2  1  0
  2  3  1  0
  3  4  1  0
  4  5  2  0
  4  6  1  0
  6  7  1  0
  7  8  1  0
  8  9  2  0
  8 10  1  0
 10 11  1  0
 11 12  2  0
 12 13  1  0
 13 14  1  0
 14 15  2  0
 14 16  1  0
 16 17  1  0
 17 18  2  0
  3 19  1  0
 19 20  2  0
 20 21  1  0
 21 22  2  0
 22 23  1  0
 23 24  2  0
 17 11  1  0
 24 19  1  0
  1 25  1  0
  1 26  1  0
  1 27  1  0
  2 28  1  0
  2 29  1  0
  6 30  1  0
  6 31  1  0
 10 32  1  0
 10 33  1  0
 12 34  1  0
 13 35  1  0
 20 36  1  0
 21 37  1  0
 22 38  1  0
 23 39  1  0
 24 40  1  0
M  CHG  1  16  -1
M  END
>  <UniqueID>  (87) 
77

>  <SMILES>  (87) 
CCN(C(=O)COC(=O)Cc1c[nH]c(=O)[n-]c1=O)c1ccccc1

>  <Energy>  (87) 
41.50227933988397

>  <Genealogy>  (87) 
CCN(C(=O)COC(=O)Cc1c[nH]c(=O)[n-]c1=O)c1ccccc1 (protonated)
CCN(C(=O)COC(=O)Cc1c[nH]c(=O)[n-]c1=O)c1ccccc1 (3D coordinates assigned)
CCN(C(=O)COC(=O)Cc1c[nH]c(=O)[n-]c1=O)c1ccccc1 (optimized conformer: 41.50227933988397 kcal/mol)

>  <smiles>  (87) 
CCN(C(=O)COC(=O)Cc1c[nH]c(=O)[nH]c1=O)c1ccccc1

>  <score_type>  (87) 
oracle

>  <origin>  (87) 
adg

>  <m_score__min__energy>  (87) 
-9.75

>  <m_primary>  (87) 
energy

$$$$
87:0
     RDKit          3D

 54 57  0  0  0  0  0  0  0  0999 V2000
   57.8440   32.1620   42.6900 C   0  0  0  0  0  0  0  0  0  0  0  0
   57.9900   32.3580   44.1730 C   0  0  0  0  0  0  0  0  0  0  0  0
   57.8170   33.6350   44.7280 C   0  0  0  0  0  0  0  0  0  0  0  0
   57.9750   33.8340   46.0970 C   0  0  0  0  0  0  0  0  0  0  0  0
   58.2900   32.7620   46.9290 C   0  0  0  0  0  0  0  0  0  0  0  0
   58.4590   31.4690   46.4040 C   0  0  0  0  0  0  0  0  0  0  0  0
   58.3490   31.2730   45.0000 C   0  0  0  0  0  0  0  0  0  0  0  0
   58.5690   30.0290   44.3900 O   0  0  0  0  0  0  0  0  0  0  0  0
   59.6080   29.1260   44.7450 C   0  0  0  0  0  0  0  0  0  0  0  0
   60.5570   29.7400   45.7800 C   0  0  0  0  0  0  0  0  0  0  0  0
   60.0530   29.6940   47.1720 N   0  0  0  0  0  0  0  0  0  0  0  0
   60.1950   28.3740   47.8270 C   0  0  0  0  0  0  0  0  0  0  0  0
   59.7900   28.4820   49.2990 C   0  0  0  0  0  0  0  0  0  0  0  0
   60.9830   28.8060   50.1960 C   0  0  0  0  0  0  0  0  0  0  0  0
   60.5440   29.4310   51.4440 N   0  0  0  0  0  0  0  0  0  0  0  0
   59.5230   30.4310   51.4520 C   0  0  0  0  0  0  0  0  0  0  0  0
   59.4520   31.7990   51.2210 C   0  0  0  0  0  0  0  0  0  0  0  0
   60.3580   32.8390   50.8340 N   0  0  0  0  0  0  0  0  0  0  0  0
   61.0660   32.8490   49.5870 C   0  0  0  0  0  0  0  0  0  0  0  0
   61.9780   31.8210   49.3010 C   0  0  0  0  0  0  0  0  0  0  0  0
   62.6540   31.7970   48.0780 C   0  0  0  0  0  0  0  0  0  0  0  0
   62.4430   32.8110   47.1400 C   0  0  0  0  0  0  0  0  0  0  0  0
   61.5600   33.8560   47.4280 C   0  0  0  0  0  0  0  0  0  0  0  0
   60.8750   33.8780   48.6460 C   0  0  0  0  0  0  0  0  0  0  0  0
   58.1070   31.7760   51.5340 C   0  0  0  0  0  0  0  0  0  0  0  0
   57.1980   32.6430   51.6130 O   0  0  0  0  0  0  0  0  0  0  0  0
   58.1650   30.4070   51.6930 C   0  0  0  0  0  0  0  0  0  0  0  0
   57.3280   29.5090   51.9710 O   0  0  0  0  0  0  0  0  0  0  0  0
   58.7360   30.3340   47.3740 C   0  0  0  0  0  0  0  0  0  0  0  0
   57.1971   31.2935   42.4969 H   0  0  0  0  0  0  0  0  0  0  0  0
   57.3937   33.0610   42.2439 H   0  0  0  0  0  0  0  0  0  0  0  0
   58.8343   31.9880   42.2439 H   0  0  0  0  0  0  0  0  0  0  0  0
   57.5552   34.4832   44.0783 H   0  0  0  0  0  0  0  0  0  0  0  0
   57.8507   34.8406   46.5228 H   0  0  0  0  0  0  0  0  0  0  0  0
   58.4079   32.9293   48.0098 H   0  0  0  0  0  0  0  0  0  0  0  0
   59.1603   28.2142   45.1672 H   0  0  0  0  0  0  0  0  0  0  0  0
   60.1882   28.8945   43.8396 H   0  0  0  0  0  0  0  0  0  0  0  0
   61.5104   29.1928   45.7406 H   0  0  0  0  0  0  0  0  0  0  0  0
   60.6631   30.8032   45.5184 H   0  0  0  0  0  0  0  0  0  0  0  0
   59.5460   27.6435   47.3219 H   0  0  0  0  0  0  0  0  0  0  0  0
   61.2427   28.0454   47.7607 H   0  0  0  0  0  0  0  0  0  0  0  0
   59.0395   29.2794   49.4037 H   0  0  0  0  0  0  0  0  0  0  0  0
   59.3822   27.5097   49.6124 H   0  0  0  0  0  0  0  0  0  0  0  0
   61.5213   27.8755   50.4292 H   0  0  0  0  0  0  0  0  0  0  0  0
   61.6418   29.5083   49.6642 H   0  0  0  0  0  0  0  0  0  0  0  0
   61.2180   29.4340   52.2410 H   0  0  0  0  0  0  0  0  0  0  0  0
   60.5070   33.6280   51.5030 H   0  0  0  0  0  0  0  0  0  0  0  0
   62.1616   31.0302   50.0433 H   0  0  0  0  0  0  0  0  0  0  0  0
   63.3535   30.9783   47.8534 H   0  0  0  0  0  0  0  0  0  0  0  0
   62.9714   32.7871   46.1755 H   0  0  0  0  0  0  0  0  0  0  0  0
   61.4043   34.6616   46.6953 H   0  0  0  0  0  0  0  0  0  0  0  0
   60.1833   34.7034   48.8702 H   0  0  0  0  0  0  0  0  0  0  0  0
   57.9547   29.5700   47.2482 H   0  0  0  0  0  0  0  0  0  0  0  0
   58.7380   30.7661   48.3856 H   0  0  0  0  0  0  0  0  0  0  0  0
  1  2  1  0
  2  3  2  0
  3  4  1  0
  4  5  2  0
  5  6  1  0
  6  7  2  0
  7  8  1  0
  8  9  1  0
  9 10  1  0
 10 11  1  0
 11 12  1  0
 12 13  1  0
 13 14  1  0
 14 15  1  0
 15 16  1  0
 16 17  2  0
 17 18  1  0
 18 19  1  0
 19 20  2  0
 20 21  1  0
 21 22  2  0
 22 23  1  0
 23 24  2  0
 17 25  1  0
 25 26  2  0
 25 27  1  0
 27 28  2  0
 11 29  1  0
  7  2  1  0
 27 16  1  0
 29  6  1  0
 24 19  1  0
  1 30  1  0
  1 31  1  0
  1 32  1  0
  3 33  1  0
  4 34  1  0
  5 35  1  0
  9 36  1  0
  9 37  1  0
 10 38  1  0
 10 39  1  0
 12 40  1  0
 12 41  1  0
 13 42  1  0
 13 43  1  0
 14 44  1  0
 14 45  1  0
 15 46  1  0
 18 47  1  0
 20 48  1  0
 21 49  1  0
 22 50  1  0
 23 51  1  0
 24 52  1  0
 29 53  1  0
 29 54  1  0
M  END
>  <UniqueID>  (88) 
78

>  <SMILES>  (88) 
Cc1cccc2c1OCCN(CCCNc1c(Nc3ccccc3)c(=O)c1=O)C2

>  <Energy>  (88) 
63.61918877361913

>  <Genealogy>  (88) 
Cc1cccc2c1OCCN(CCCNc1c(Nc3ccccc3)c(=O)c1=O)C2 (3D coordinates assigned)
Cc1cccc2c1OCCN(CCCNc1c(Nc3ccccc3)c(=O)c1=O)C2 (nonaromatic ring conformer: 63.61918877361913 kcal/mol)

>  <smiles>  (88) 
Cc1cccc2c1OCCN(CCCNc1c(Nc3ccccc3)c(=O)c1=O)C2

>  <score_type>  (88) 
oracle

>  <origin>  (88) 
adg

>  <m_score__min__energy>  (88) 
-6.5899999999999999

>  <m_primary>  (88) 
energy

$$$$
88:0
     RDKit          3D

 25 26  0  0  0  0  0  0  0  0999 V2000
   54.6700   26.3380   45.9650 O   0  0  0  0  0  0  0  0  0  0  0  0
   55.8830   26.0540   46.1500 C   0  0  0  0  0  0  0  0  0  0  0  0
   56.2310   25.1520   47.1470 O   0  0  0  0  0  0  0  0  0  0  0  0
   56.9490   26.7220   45.3360 C   0  0  0  0  0  0  0  0  0  0  0  0
   57.6640   27.7870   46.1400 C   0  0  0  0  0  0  0  0  0  0  0  0
   58.6320   27.3640   47.0690 C   0  0  0  0  0  0  0  0  0  0  0  0
   59.3670   28.2890   47.8190 C   0  0  0  0  0  0  0  0  0  0  0  0
   60.3350   27.8490   48.7360 C   0  0  0  0  0  0  0  0  0  0  0  0
   61.0690   28.7740   49.4790 C   0  0  0  0  0  0  0  0  0  0  0  0
   60.8460   30.1420   49.3150 C   0  0  0  0  0  0  0  0  0  0  0  0
   59.8860   30.5970   48.4060 C   0  0  0  0  0  0  0  0  0  0  0  0
   59.6860   31.9670   48.2640 O   0  0  0  0  0  0  0  0  0  0  0  0
   59.1380   29.6720   47.6490 C   0  0  0  0  0  0  0  0  0  0  0  0
   58.1620   30.1010   46.7350 C   0  0  0  0  0  0  0  0  0  0  0  0
   57.4060   29.1780   45.9880 C   0  0  0  0  0  0  0  0  0  0  0  0
   56.3720   29.7160   45.0710 C   0  0  0  0  0  0  0  0  0  0  0  0
   56.5640   30.7780   44.4240 O   0  0  0  0  0  0  0  0  0  0  0  0
   55.1860   29.0180   44.8720 O   0  0  0  0  0  0  0  0  0  0  0  0
   57.6795   25.9662   45.0116 H   0  0  0  0  0  0  0  0  0  0  0  0
   56.4750   27.2010   44.4666 H   0  0  0  0  0  0  0  0  0  0  0  0
   58.8142   26.2882   47.2082 H   0  0  0  0  0  0  0  0  0  0  0  0
   60.5151   26.7720   48.8689 H   0  0  0  0  0  0  0  0  0  0  0  0
   61.8259   28.4240   50.1964 H   0  0  0  0  0  0  0  0  0  0  0  0
   61.4285   30.8659   49.9039 H   0  0  0  0  0  0  0  0  0  0  0  0
   57.9850   31.1783   46.6003 H   0  0  0  0  0  0  0  0  0  0  0  0
  1  2  2  0
  2  3  1  0
  2  4  1  0
  4  5  1  0
  5  6  2  0
  6  7  1  0
  7  8  2  0
  8  9  1  0
  9 10  2  0
 10 11  1  0
 11 12  1  0
 11 13  2  0
 13 14  1  0
 14 15  2  0
 15 16  1  0
 16 17  2  0
 16 18  1  0
 15  5  1  0
 13  7  1  0
  4 19  1  0
  4 20  1  0
  6 21  1  0
  8 22  1  0
  9 23  1  0
 10 24  1  0
 14 25  1  0
M  CHG  3   3  -1  12  -1  18  -1
M  END
>  <UniqueID>  (89) 
79

>  <SMILES>  (89) 
O=C([O-])Cc1cc2cccc([O-])c2cc1C(=O)[O-]

>  <Energy>  (89) 
34.706790334671155

>  <Genealogy>  (89) 
O=C([O-])Cc1cc2cccc([O-])c2cc1C(=O)[O-] (protonated)
O=C([O-])Cc1cc2cccc([O-])c2cc1C(=O)[O-] (3D coordinates assigned)
O=C([O-])Cc1cc2cccc([O-])c2cc1C(=O)[O-] (optimized conformer: 34.706790334671155 kcal/mol)

>  <smiles>  (89) 
O=C(O)Cc1cc2cccc(O)c2cc1C(=O)O

>  <score_type>  (89) 
oracle

>  <origin>  (89) 
adg

>  <m_score__min__energy>  (89) 
-12.220000000000001

>  <m_primary>  (89) 
energy

$$$$
89:0
     RDKit          3D

 40 42  0  0  0  0  0  0  0  0999 V2000
   57.8810   22.2430   45.3500 C   0  0  0  0  0  0  0  0  0  0  0  0
   57.7300   23.1120   46.4680 O   0  0  0  0  0  0  0  0  0  0  0  0
   57.7700   24.5130   46.3980 C   0  0  0  0  0  0  0  0  0  0  0  0
   58.9820   25.2240   46.3400 C   0  0  0  0  0  0  0  0  0  0  0  0
   58.9840   26.6180   46.2710 C   0  0  0  0  0  0  0  0  0  0  0  0
   57.7730   27.3320   46.2620 C   0  0  0  0  0  0  0  0  0  0  0  0
   57.7380   28.7710   46.2050 N   0  0  0  0  0  0  0  0  0  0  0  0
   57.1800   29.6770   44.8330 S   0  0  0  0  0  0  0  0  0  0  0  0
   57.6190   28.9540   43.5910 O   0  0  0  0  0  0  0  0  0  0  0  0
   55.6790   29.7300   44.8600 O   0  0  0  0  0  0  0  0  0  0  0  0
   57.8050   31.3450   44.8830 C   0  0  0  0  0  0  0  0  0  0  0  0
   57.8660   32.1670   43.7220 C   0  0  0  0  0  0  0  0  0  0  0  0
   57.3900   31.7020   42.3790 C   0  0  0  0  0  0  0  0  0  0  0  0
   58.3830   33.4250   43.8110 N   0  0  0  0  0  0  0  0  0  0  0  0
   58.8130   33.8990   45.0010 C   0  0  0  0  0  0  0  0  0  0  0  0
   59.4650   35.4190   45.2760 S   0  0  0  0  0  0  0  0  0  0  0  0
   59.6640   35.1250   46.9310 C   0  0  0  0  0  0  0  0  0  0  0  0
   59.2080   33.8380   47.2130 C   0  0  0  0  0  0  0  0  0  0  0  0
   58.7370   33.1640   46.1270 N   0  0  0  0  0  0  0  0  0  0  0  0
   58.2330   31.9000   46.1110 C   0  0  0  0  0  0  0  0  0  0  0  0
   58.1450   31.2410   47.1830 O   0  0  0  0  0  0  0  0  0  0  0  0
   56.5650   26.6220   46.3170 C   0  0  0  0  0  0  0  0  0  0  0  0
   56.5560   25.2160   46.3850 C   0  0  0  0  0  0  0  0  0  0  0  0
   55.3610   24.4800   46.4450 O   0  0  0  0  0  0  0  0  0  0  0  0
   54.6020   24.0800   45.3080 C   0  0  0  0  0  0  0  0  0  0  0  0
   58.0593   21.2171   45.7045 H   0  0  0  0  0  0  0  0  0  0  0  0
   56.9653   22.2666   44.7410 H   0  0  0  0  0  0  0  0  0  0  0  0
   58.7351   22.5741   44.7410 H   0  0  0  0  0  0  0  0  0  0  0  0
   59.9363   24.6770   46.3491 H   0  0  0  0  0  0  0  0  0  0  0  0
   59.9392   27.1614   46.2234 H   0  0  0  0  0  0  0  0  0  0  0  0
   58.0910   29.3200   47.0210 H   0  0  0  0  0  0  0  0  0  0  0  0
   56.6088   30.9389   42.5109 H   0  0  0  0  0  0  0  0  0  0  0  0
   56.9783   32.5554   41.8202 H   0  0  0  0  0  0  0  0  0  0  0  0
   58.2335   31.2705   41.8202 H   0  0  0  0  0  0  0  0  0  0  0  0
   60.0833   35.8317   47.6623 H   0  0  0  0  0  0  0  0  0  0  0  0
   59.2269   33.4048   48.2239 H   0  0  0  0  0  0  0  0  0  0  0  0
   55.6118   27.1710   46.3069 H   0  0  0  0  0  0  0  0  0  0  0  0
   53.6742   23.5911   45.6400 H   0  0  0  0  0  0  0  0  0  0  0  0
   54.3541   24.9646   44.7030 H   0  0  0  0  0  0  0  0  0  0  0  0
   55.1915   23.3755   44.7030 H   0  0  0  0  0  0  0  0  0  0  0  0
  1  2  1  0
  2  3  1  0
  3  4  2  0
  4  5  1  0
  5  6  2  0
  6  7  1  0
  7  8  1  0
  8  9  2  0
  8 10  2  0
  8 11  1  0
 11 12  2  0
 12 13  1  0
 12 14  1  0
 14 15  2  0
 15 16  1  0
 16 17  1  0
 17 18  2  0
 18 19  1  0
 19 20  1  0
 20 21  2  0
  6 22  1  0
 22 23  2  0
 23 24  1  0
 24 25  1  0
 23  3  1  0
 20 11  1  0
 19 15  1  0
  1 26  1  0
  1 27  1  0
  1 28  1  0
  4 29  1  0
  5 30  1  0
  7 31  1  0
 13 32  1  0
 13 33  1  0
 13 34  1  0
 17 35  1  0
 18 36  1  0
 22 37  1  0
 25 38  1  0
 25 39  1  0
 25 40  1  0
M  END
>  <UniqueID>  (90) 
80

>  <SMILES>  (90) 
COc1ccc(NS(=O)(=O)c2c(C)nc3sccn3c2=O)cc1OC

>  <Energy>  (90) 
81.60235107964164

>  <Genealogy>  (90) 
COc1ccc(NS(=O)(=O)c2c(C)nc3sccn3c2=O)cc1OC (3D coordinates assigned)
COc1ccc(NS(=O)(=O)c2c(C)nc3sccn3c2=O)cc1OC (optimized conformer: 81.60235107964164 kcal/mol)

>  <smiles>  (90) 
COc1ccc(NS(=O)(=O)c2c(C)nc3sccn3c2=O)cc1OC

>  <score_type>  (90) 
oracle

>  <origin>  (90) 
adg

>  <m_score__min__energy>  (90) 
-8.1799999999999997

>  <m_primary>  (90) 
energy

$$$$
90:0
     RDKit          3D

 48 51  0  0  0  0  0  0  0  0999 V2000
   55.5950   30.0790   44.0730 C   0  0  0  0  0  0  0  0  0  0  0  0
   56.8550   30.7150   43.4920 C   0  0  0  0  0  0  0  0  0  0  0  0
   58.0550   30.1120   44.0710 N   0  0  0  0  0  0  0  0  0  0  0  0
   58.3360   30.0310   45.4820 C   0  0  0  0  0  0  0  0  0  0  0  0
   58.3460   28.8060   46.1730 C   0  0  0  0  0  0  0  0  0  0  0  0
   58.6230   28.7720   47.5400 C   0  0  0  0  0  0  0  0  0  0  0  0
   58.8770   29.9500   48.2490 C   0  0  0  0  0  0  0  0  0  0  0  0
   58.8810   31.1820   47.5670 C   0  0  0  0  0  0  0  0  0  0  0  0
   58.6270   31.2060   46.1890 C   0  0  0  0  0  0  0  0  0  0  0  0
   59.2660   32.4080   48.1890 N   0  0  0  0  0  0  0  0  0  0  0  0
   59.1900   32.7820   49.5670 C   0  0  0  0  0  0  0  0  0  0  0  0
   59.7170   33.8700   49.9170 O   0  0  0  0  0  0  0  0  0  0  0  0
   58.4540   31.9930   50.5750 C   0  0  0  0  0  0  0  0  0  0  0  0
   57.7870   32.6720   51.6120 C   0  0  0  0  0  0  0  0  0  0  0  0
   57.1810   31.9660   52.6530 C   0  0  0  0  0  0  0  0  0  0  0  0
   57.2530   30.5710   52.6870 C   0  0  0  0  0  0  0  0  0  0  0  0
   56.5800   29.6650   54.0380 S   0  0  0  0  0  0  0  0  0  0  0  0
   57.3310   30.0250   55.2850 O   0  0  0  0  0  0  0  0  0  0  0  0
   56.6940   28.1870   53.8030 O   0  0  0  0  0  0  0  0  0  0  0  0
   54.9070   30.0850   54.2380 N   0  0  0  0  0  0  0  0  0  0  0  0
   54.0080   30.3890   53.1650 C   0  0  0  0  0  0  0  0  0  0  0  0
   54.4440   30.2020   51.8500 C   0  0  0  0  0  0  0  0  0  0  0  0
   53.5890   30.4440   50.7750 C   0  0  0  0  0  0  0  0  0  0  0  0
   52.2760   30.8890   50.9970 C   0  0  0  0  0  0  0  0  0  0  0  0
   51.3550   31.1220   49.8620 C   0  0  0  0  0  0  0  0  0  0  0  0
   51.1870   30.2350   48.9820 O   0  0  0  0  0  0  0  0  0  0  0  0
   50.6550   32.3170   49.7550 O   0  0  0  0  0  0  0  0  0  0  0  0
   51.8440   31.1020   52.3180 C   0  0  0  0  0  0  0  0  0  0  0  0
   52.7020   30.8560   53.3930 C   0  0  0  0  0  0  0  0  0  0  0  0
   57.9110   29.8900   51.6580 C   0  0  0  0  0  0  0  0  0  0  0  0
   58.4980   30.5860   50.5960 C   0  0  0  0  0  0  0  0  0  0  0  0
   59.1440   29.8370   49.6130 O   0  0  0  0  0  0  0  0  0  0  0  0
   55.6447   30.1041   45.1716 H   0  0  0  0  0  0  0  0  0  0  0  0
   54.7114   30.6391   43.7331 H   0  0  0  0  0  0  0  0  0  0  0  0
   55.5208   29.0355   43.7331 H   0  0  0  0  0  0  0  0  0  0  0  0
   56.8655   30.5645   42.4024 H   0  0  0  0  0  0  0  0  0  0  0  0
   56.8499   31.7889   43.7299 H   0  0  0  0  0  0  0  0  0  0  0  0
   58.7480   29.7050   43.4020 H   0  0  0  0  0  0  0  0  0  0  0  0
   58.1346   27.8710   45.6335 H   0  0  0  0  0  0  0  0  0  0  0  0
   58.6418   27.8064   48.0665 H   0  0  0  0  0  0  0  0  0  0  0  0
   58.6565   32.1654   45.6517 H   0  0  0  0  0  0  0  0  0  0  0  0
   57.7427   33.7711   51.6021 H   0  0  0  0  0  0  0  0  0  0  0  0
   56.6465   32.5083   53.4469 H   0  0  0  0  0  0  0  0  0  0  0  0
   55.4724   29.8603   51.6611 H   0  0  0  0  0  0  0  0  0  0  0  0
   53.9456   30.2852   49.7466 H   0  0  0  0  0  0  0  0  0  0  0  0
   50.8229   31.4650   52.5066 H   0  0  0  0  0  0  0  0  0  0  0  0
   52.3539   31.0285   54.4221 H   0  0  0  0  0  0  0  0  0  0  0  0
   57.9678   28.7918   51.6841 H   0  0  0  0  0  0  0  0  0  0  0  0
  1  2  1  0
  2  3  1  0
  3  4  1  0
  4  5  2  0
  5  6  1  0
  6  7  2  0
  7  8  1  0
  8  9  2  0
  8 10  1  0
 10 11  1  0
 11 12  2  0
 11 13  1  0
 13 14  2  0
 14 15  1  0
 15 16  2  0
 16 17  1  0
 17 18  2  0
 17 19  2  0
 17 20  1  0
 20 21  1  0
 21 22  2  0
 22 23  1  0
 23 24  2  0
 24 25  1  0
 25 26  2  0
 25 27  1  0
 24 28  1  0
 28 29  2  0
 16 30  1  0
 30 31  2  0
 31 32  1  0
  9  4  1  0
 31 13  1  0
 32  7  1  0
 29 21  1  0
  1 33  1  0
  1 34  1  0
  1 35  1  0
  2 36  1  0
  2 37  1  0
  3 38  1  0
  5 39  1  0
  6 40  1  0
  9 41  1  0
 14 42  1  0
 15 43  1  0
 22 44  1  0
 23 45  1  0
 28 46  1  0
 29 47  1  0
 30 48  1  0
M  CHG  3  10  -1  20  -1  27  -1
M  END
>  <UniqueID>  (91) 
81

>  <SMILES>  (91) 
CCNc1ccc2c(c1)[N-]C(=O)c1ccc(S(=O)(=O)[N-]c3ccc(C(=O)[O-])cc3)cc1O2

>  <Energy>  (91) 
75.56200423047686

>  <Genealogy>  (91) 
CCNc1ccc2c(c1)[N-]C(=O)c1ccc(S(=O)(=O)[N-]c3ccc(C(=O)[O-])cc3)cc1O2 (protonated)
CCNc1ccc2c(c1)[N-]C(=O)c1ccc(S(=O)(=O)[N-]c3ccc(C(=O)[O-])cc3)cc1O2 (3D coordinates assigned)
CCNc1ccc2c(c1)[N-]C(=O)c1ccc(S(=O)(=O)[N-]c3ccc(C(=O)[O-])cc3)cc1O2 (nonaromatic ring conformer: 75.56200423047686 kcal/mol)

>  <smiles>  (91) 
CCNc1ccc2c(c1)NC(=O)c1ccc(S(=O)(=O)Nc3ccc(C(=O)O)cc3)cc1O2

>  <score_type>  (91) 
oracle

>  <origin>  (91) 
adg

>  <m_score__min__energy>  (91) 
-14.300000000000001

>  <m_primary>  (91) 
energy

$$$$
91:0
     RDKit          3D

 47 49  0  0  0  0  0  0  0  0999 V2000
   55.6290   29.0520   45.1960 N   0  0  0  0  0  0  0  0  0  0  0  0
   56.8330   29.7010   44.1410 S   0  0  0  0  0  0  0  0  0  0  0  0
   57.8960   28.6660   43.8930 O   0  0  0  0  0  0  0  0  0  0  0  0
   56.2030   30.0680   42.8270 O   0  0  0  0  0  0  0  0  0  0  0  0
   57.5510   31.1260   44.8820 C   0  0  0  0  0  0  0  0  0  0  0  0
   56.9070   32.3660   44.7950 C   0  0  0  0  0  0  0  0  0  0  0  0
   57.4570   33.4870   45.4190 C   0  0  0  0  0  0  0  0  0  0  0  0
   58.6440   33.3730   46.1460 C   0  0  0  0  0  0  0  0  0  0  0  0
   59.2950   32.1310   46.2600 C   0  0  0  0  0  0  0  0  0  0  0  0
   60.5480   32.0150   47.0520 C   0  0  0  0  0  0  0  0  0  0  0  0
   61.6110   32.8920   46.7620 C   0  0  0  0  0  0  0  0  0  0  0  0
   62.8230   32.7990   47.4490 C   0  0  0  0  0  0  0  0  0  0  0  0
   62.9960   31.8260   48.4310 C   0  0  0  0  0  0  0  0  0  0  0  0
   61.9550   30.9490   48.7390 C   0  0  0  0  0  0  0  0  0  0  0  0
   60.7220   31.0410   48.0740 C   0  0  0  0  0  0  0  0  0  0  0  0
   59.6530   30.0970   48.4630 C   0  0  0  0  0  0  0  0  0  0  0  0
   58.5770   30.5530   48.9310 O   0  0  0  0  0  0  0  0  0  0  0  0
   59.7990   28.6810   48.3190 N   0  0  0  0  0  0  0  0  0  0  0  0
   60.2210   28.0120   47.0930 C   0  0  0  0  0  0  0  0  0  0  0  0
   58.9900   27.5310   46.3090 C   0  0  0  0  0  0  0  0  0  0  0  0
   57.7470   27.4100   47.2240 C   0  0  0  0  0  0  0  0  0  0  0  0
   56.7260   26.3770   46.7070 C   0  0  0  0  0  0  0  0  0  0  0  0
   56.7770   26.2540   45.2440 N   0  0  0  0  0  0  0  0  0  0  0  0
   58.0690   25.7130   44.7810 C   0  0  0  0  0  0  0  0  0  0  0  0
   59.2780   26.1880   45.6190 C   0  0  0  0  0  0  0  0  0  0  0  0
   58.7480   31.0140   45.6040 C   0  0  0  0  0  0  0  0  0  0  0  0
   55.5270   28.0400   44.9570 H   0  0  0  0  0  0  0  0  0  0  0  0
   55.9654   32.4571   44.2336 H   0  0  0  0  0  0  0  0  0  0  0  0
   56.9545   34.4621   45.3380 H   0  0  0  0  0  0  0  0  0  0  0  0
   59.0732   34.2610   46.6331 H   0  0  0  0  0  0  0  0  0  0  0  0
   61.4849   33.6599   45.9845 H   0  0  0  0  0  0  0  0  0  0  0  0
   63.6422   33.4947   47.2146 H   0  0  0  0  0  0  0  0  0  0  0  0
   63.9548   31.7489   48.9645 H   0  0  0  0  0  0  0  0  0  0  0  0
   62.1020   30.1784   49.5101 H   0  0  0  0  0  0  0  0  0  0  0  0
   60.7962   28.7155   46.4731 H   0  0  0  0  0  0  0  0  0  0  0  0
   60.8474   27.1453   47.3507 H   0  0  0  0  0  0  0  0  0  0  0  0
   58.7709   28.2853   45.5389 H   0  0  0  0  0  0  0  0  0  0  0  0
   58.0775   27.1060   48.2282 H   0  0  0  0  0  0  0  0  0  0  0  0
   57.2489   28.3906   47.2392 H   0  0  0  0  0  0  0  0  0  0  0  0
   56.9498   25.3980   47.1559 H   0  0  0  0  0  0  0  0  0  0  0  0
   55.7186   26.7168   46.9895 H   0  0  0  0  0  0  0  0  0  0  0  0
   56.6270   27.2010   44.8210 H   0  0  0  0  0  0  0  0  0  0  0  0
   58.0230   24.6150   44.8292 H   0  0  0  0  0  0  0  0  0  0  0  0
   58.2233   26.0821   43.7563 H   0  0  0  0  0  0  0  0  0  0  0  0
   59.5006   25.4320   46.3864 H   0  0  0  0  0  0  0  0  0  0  0  0
   60.1355   26.3231   44.9434 H   0  0  0  0  0  0  0  0  0  0  0  0
   59.2636   30.0438   45.6576 H   0  0  0  0  0  0  0  0  0  0  0  0
  1  2  1  0
  2  3  2  0
  2  4  2  0
  2  5  1  0
  5  6  2  0
  6  7  1  0
  7  8  2  0
  8  9  1  0
  9 10  1  0
 10 11  2  0
 11 12  1  0
 12 13  2  0
 13 14  1  0
 14 15  2  0
 15 16  1  0
 16 17  2  0
 16 18  1  0
 18 19  1  0
 19 20  1  0
 20 21  1  0
 21 22  1  0
 22 23  1  0
 23 24  1  0
 24 25  1  0
  9 26  2  0
 26  5  1  0
 15 10  1  0
 25 20  1  0
  1 27  1  0
  6 28  1  0
  7 29  1  0
  8 30  1  0
 11 31  1  0
 12 32  1  0
 13 33  1  0
 14 34  1  0
 19 35  1  0
 19 36  1  0
 20 37  1  0
 21 38  1  0
 21 39  1  0
 22 40  1  0
 22 41  1  0
 23 42  1  0
 24 43  1  0
 24 44  1  0
 25 45  1  0
 25 46  1  0
 26 47  1  0
M  CHG  2   1  -1  18  -1
M  END
>  <UniqueID>  (92) 
82

>  <SMILES>  (92) 
[NH-]S(=O)(=O)c1cccc(-c2ccccc2C(=O)[N-]CC2CCNCC2)c1

>  <Energy>  (92) 
59.5338270827714

>  <Genealogy>  (92) 
[NH-]S(=O)(=O)c1cccc(-c2ccccc2C(=O)[N-]CC2CCNCC2)c1 (protonated)
[NH-]S(=O)(=O)c1cccc(-c2ccccc2C(=O)[N-]CC2CCNCC2)c1 (3D coordinates assigned)
[NH-]S(=O)(=O)c1cccc(-c2ccccc2C(=O)[N-]CC2CCNCC2)c1 (nonaromatic ring conformer: 59.5338270827714 kcal/mol)

>  <smiles>  (92) 
NS(=O)(=O)c1cccc(-c2ccccc2C(=O)NCC2CCNCC2)c1

>  <score_type>  (92) 
oracle

>  <origin>  (92) 
adg

>  <m_score__min__energy>  (92) 
-13.119999999999999

>  <m_primary>  (92) 
energy

$$$$
92:0
     RDKit          3D

 47 49  0  0  0  0  0  0  0  0999 V2000
   59.6920   35.4550   47.0490 O   0  0  0  0  0  0  0  0  0  0  0  0
   60.0260   34.6210   46.1660 C   0  0  0  0  0  0  0  0  0  0  0  0
   59.1950   34.4650   45.0100 N   0  0  0  0  0  0  0  0  0  0  0  0
   58.4620   33.2770   44.6860 C   0  0  0  0  0  0  0  0  0  0  0  0
   58.1120   32.3880   45.7070 C   0  0  0  0  0  0  0  0  0  0  0  0
   57.4050   31.2170   45.4130 C   0  0  0  0  0  0  0  0  0  0  0  0
   57.0540   30.9100   44.0860 C   0  0  0  0  0  0  0  0  0  0  0  0
   56.3230   29.7080   43.7860 N   0  0  0  0  0  0  0  0  0  0  0  0
   56.6370   28.9980   42.8080 O   0  0  0  0  0  0  0  0  0  0  0  0
   55.2600   29.3220   44.5700 O   0  0  0  0  0  0  0  0  0  0  0  0
   57.4370   31.7920   43.0590 C   0  0  0  0  0  0  0  0  0  0  0  0
   58.1450   32.9590   43.3570 C   0  0  0  0  0  0  0  0  0  0  0  0
   61.2570   33.8900   46.2870 N   0  0  0  0  0  0  0  0  0  0  0  0
   62.0280   33.8470   47.5370 C   0  0  0  0  0  0  0  0  0  0  0  0
   63.0400   32.6900   47.5110 C   0  0  0  0  0  0  0  0  0  0  0  0
   62.3670   31.3100   47.6540 C   0  0  0  0  0  0  0  0  0  0  0  0
   61.2620   31.2610   48.6500 N   0  0  0  0  0  0  0  0  0  0  0  0
   59.9620   30.9440   48.0190 C   0  0  0  0  0  0  0  0  0  0  0  0
   60.0030   29.6240   47.2940 C   0  0  0  0  0  0  0  0  0  0  0  0
   59.7950   28.4270   47.9990 C   0  0  0  0  0  0  0  0  0  0  0  0
   59.8230   27.2010   47.3280 C   0  0  0  0  0  0  0  0  0  0  0  0
   60.0560   27.1620   45.9510 C   0  0  0  0  0  0  0  0  0  0  0  0
   60.2610   28.3480   45.2420 C   0  0  0  0  0  0  0  0  0  0  0  0
   60.2340   29.5770   45.9090 C   0  0  0  0  0  0  0  0  0  0  0  0
   61.2130   32.4470   49.5370 C   0  0  0  0  0  0  0  0  0  0  0  0
   61.0790   33.7640   48.7550 C   0  0  0  0  0  0  0  0  0  0  0  0
   58.3940   32.6105   46.7467 H   0  0  0  0  0  0  0  0  0  0  0  0
   57.1217   30.5316   46.2254 H   0  0  0  0  0  0  0  0  0  0  0  0
   57.1775   31.5614   42.0152 H   0  0  0  0  0  0  0  0  0  0  0  0
   58.4557   33.6325   42.5447 H   0  0  0  0  0  0  0  0  0  0  0  0
   61.5860   33.3350   45.4670 H   0  0  0  0  0  0  0  0  0  0  0  0
   62.6041   34.7792   47.6329 H   0  0  0  0  0  0  0  0  0  0  0  0
   63.5841   32.7193   46.5554 H   0  0  0  0  0  0  0  0  0  0  0  0
   63.7174   32.8206   48.3678 H   0  0  0  0  0  0  0  0  0  0  0  0
   61.9584   31.0240   46.6736 H   0  0  0  0  0  0  0  0  0  0  0  0
   63.1436   30.6197   48.0150 H   0  0  0  0  0  0  0  0  0  0  0  0
   59.1883   30.8983   48.7996 H   0  0  0  0  0  0  0  0  0  0  0  0
   59.7351   31.7318   47.2855 H   0  0  0  0  0  0  0  0  0  0  0  0
   59.6094   28.4545   49.0829 H   0  0  0  0  0  0  0  0  0  0  0  0
   59.6614   26.2661   47.8847 H   0  0  0  0  0  0  0  0  0  0  0  0
   60.0780   26.1964   45.4246 H   0  0  0  0  0  0  0  0  0  0  0  0
   60.4439   28.3153   44.1578 H   0  0  0  0  0  0  0  0  0  0  0  0
   60.3941   30.5094   45.3477 H   0  0  0  0  0  0  0  0  0  0  0  0
   60.3492   32.3477   50.2108 H   0  0  0  0  0  0  0  0  0  0  0  0
   62.1601   32.4854   50.0951 H   0  0  0  0  0  0  0  0  0  0  0  0
   60.0426   33.8549   48.3978 H   0  0  0  0  0  0  0  0  0  0  0  0
   61.3525   34.5805   49.4395 H   0  0  0  0  0  0  0  0  0  0  0  0
  1  2  2  0
  2  3  1  0
  3  4  1  0
  4  5  2  0
  5  6  1  0
  6  7  2  0
  7  8  1  0
  8  9  2  0
  8 10  1  0
  7 11  1  0
 11 12  2  0
  2 13  1  0
 13 14  1  0
 14 15  1  0
 15 16  1  0
 16 17  1  0
 17 18  1  0
 18 19  1  0
 19 20  2  0
 20 21  1  0
 21 22  2  0
 22 23  1  0
 23 24  2  0
 17 25  1  0
 25 26  1  0
 12  4  1  0
 26 14  1  0
 24 19  1  0
  5 27  1  0
  6 28  1  0
 11 29  1  0
 12 30  1  0
 13 31  1  0
 14 32  1  0
 15 33  1  0
 15 34  1  0
 16 35  1  0
 16 36  1  0
 18 37  1  0
 18 38  1  0
 20 39  1  0
 21 40  1  0
 22 41  1  0
 23 42  1  0
 24 43  1  0
 25 44  1  0
 25 45  1  0
 26 46  1  0
 26 47  1  0
M  CHG  3   3  -1   8   1  10  -1
M  END
>  <UniqueID>  (93) 
83

>  <SMILES>  (93) 
O=C([N-]c1ccc([N+](=O)[O-])cc1)NC1CCN(Cc2ccccc2)CC1

>  <Energy>  (93) 
61.067363699156424

>  <Genealogy>  (93) 
O=C([N-]c1ccc([N+](=O)[O-])cc1)NC1CCN(Cc2ccccc2)CC1 (protonated)
O=C([N-]c1ccc([N+](=O)[O-])cc1)NC1CCN(Cc2ccccc2)CC1 (3D coordinates assigned)
O=C([N-]c1ccc([N+](=O)[O-])cc1)NC1CCN(Cc2ccccc2)CC1 (nonaromatic ring conformer: 61.067363699156424 kcal/mol)

>  <smiles>  (93) 
O=C(Nc1ccc([N+](=O)[O-])cc1)NC1CCN(Cc2ccccc2)CC1

>  <score_type>  (93) 
oracle

>  <origin>  (93) 
adg

>  <m_score__min__energy>  (93) 
-9.7300000000000004

>  <m_primary>  (93) 
energy

$$$$
93:0
     RDKit          3D

 61 62  0  0  0  0  0  0  0  0999 V2000
   56.7990   30.8840   52.0020 C   0  0  0  0  0  0  0  0  0  0  0  0
   56.9510   32.3780   52.3100 C   0  0  0  0  0  0  0  0  0  0  0  0
   58.3600   32.8100   52.8060 C   0  0  0  0  0  0  0  0  0  0  0  0
   58.6350   32.3000   54.2370 C   0  0  0  0  0  0  0  0  0  0  0  0
   58.4920   34.3460   52.7930 C   0  0  0  0  0  0  0  0  0  0  0  0
   59.3850   32.3050   51.8780 N   0  0  0  0  0  0  0  0  0  0  0  0
   59.4860   32.4010   50.4480 C   0  0  0  0  0  0  0  0  0  0  0  0
   59.2820   33.5180   49.9050 O   0  0  0  0  0  0  0  0  0  0  0  0
   59.8410   31.2620   49.5870 C   0  0  0  0  0  0  0  0  0  0  0  0
   59.2230   30.0200   49.7970 C   0  0  0  0  0  0  0  0  0  0  0  0
   59.5150   28.9390   48.9620 C   0  0  0  0  0  0  0  0  0  0  0  0
   60.3970   29.0980   47.8930 C   0  0  0  0  0  0  0  0  0  0  0  0
   60.9870   30.3420   47.6530 C   0  0  0  0  0  0  0  0  0  0  0  0
   60.6930   31.4380   48.4780 C   0  0  0  0  0  0  0  0  0  0  0  0
   61.3580   32.6920   48.2790 N   0  0  0  0  0  0  0  0  0  0  0  0
   61.1230   33.5980   47.1910 C   0  0  0  0  0  0  0  0  0  0  0  0
   61.8510   33.5200   46.1670 O   0  0  0  0  0  0  0  0  0  0  0  0
   60.1150   34.7140   47.2940 C   0  0  0  0  0  0  0  0  0  0  0  0
   58.8350   34.3860   46.6240 N   0  0  0  0  0  0  0  0  0  0  0  0
   58.2550   33.1530   47.1890 C   0  0  0  0  0  0  0  0  0  0  0  0
   59.0400   34.1970   45.1700 C   0  0  0  0  0  0  0  0  0  0  0  0
   57.7560   33.8240   44.4920 C   0  0  0  0  0  0  0  0  0  0  0  0
   56.7700   34.6080   44.5420 O   0  0  0  0  0  0  0  0  0  0  0  0
   57.6650   32.5870   43.7760 N   0  0  0  0  0  0  0  0  0  0  0  0
   57.4650   31.2990   44.3750 C   0  0  0  0  0  0  0  0  0  0  0  0
   56.2370   30.6520   44.1920 C   0  0  0  0  0  0  0  0  0  0  0  0
   56.0470   29.3490   44.6620 C   0  0  0  0  0  0  0  0  0  0  0  0
   57.0860   28.6780   45.3210 C   0  0  0  0  0  0  0  0  0  0  0  0
   56.9010   27.0050   45.8270 S   0  0  0  0  0  0  0  0  0  0  0  0
   55.2210   26.6450   46.0240 N   0  0  0  0  0  0  0  0  0  0  0  0
   57.4910   26.0970   44.7890 O   0  0  0  0  0  0  0  0  0  0  0  0
   57.6090   26.7770   47.1340 O   0  0  0  0  0  0  0  0  0  0  0  0
   58.3110   29.3280   45.5220 C   0  0  0  0  0  0  0  0  0  0  0  0
   58.5020   30.6280   45.0480 C   0  0  0  0  0  0  0  0  0  0  0  0
   56.7416   30.3194   52.9443 H   0  0  0  0  0  0  0  0  0  0  0  0
   55.8797   30.7212   51.4204 H   0  0  0  0  0  0  0  0  0  0  0  0
   57.6667   30.5394   51.4204 H   0  0  0  0  0  0  0  0  0  0  0  0
   56.7262   32.9398   51.3914 H   0  0  0  0  0  0  0  0  0  0  0  0
   56.2568   32.5923   53.1360 H   0  0  0  0  0  0  0  0  0  0  0  0
   58.2441   33.0250   54.9661 H   0  0  0  0  0  0  0  0  0  0  0  0
   58.1379   31.3295   54.3823 H   0  0  0  0  0  0  0  0  0  0  0  0
   59.7190   32.1821   54.3823 H   0  0  0  0  0  0  0  0  0  0  0  0
   58.5241   34.7200   53.8270 H   0  0  0  0  0  0  0  0  0  0  0  0
   59.4179   34.6301   52.2714 H   0  0  0  0  0  0  0  0  0  0  0  0
   57.6282   34.7839   52.2714 H   0  0  0  0  0  0  0  0  0  0  0  0
   58.5060   29.8971   50.6221 H   0  0  0  0  0  0  0  0  0  0  0  0
   59.0485   27.9603   49.1478 H   0  0  0  0  0  0  0  0  0  0  0  0
   60.6281   28.2443   47.2390 H   0  0  0  0  0  0  0  0  0  0  0  0
   61.6860   30.4625   46.8123 H   0  0  0  0  0  0  0  0  0  0  0  0
   59.9158   34.9124   48.3575 H   0  0  0  0  0  0  0  0  0  0  0  0
   60.5394   35.5953   46.7908 H   0  0  0  0  0  0  0  0  0  0  0  0
   58.2799   33.2060   48.2874 H   0  0  0  0  0  0  0  0  0  0  0  0
   57.2136   33.0491   46.8504 H   0  0  0  0  0  0  0  0  0  0  0  0
   58.8390   32.2845   46.8504 H   0  0  0  0  0  0  0  0  0  0  0  0
   59.4179   35.1340   44.7349 H   0  0  0  0  0  0  0  0  0  0  0  0
   59.7652   33.3836   45.0205 H   0  0  0  0  0  0  0  0  0  0  0  0
   55.4168   31.1719   43.6754 H   0  0  0  0  0  0  0  0  0  0  0  0
   55.0786   28.8488   44.5140 H   0  0  0  0  0  0  0  0  0  0  0  0
   54.7780   26.7060   45.0800 H   0  0  0  0  0  0  0  0  0  0  0  0
   59.1243   28.8132   46.0544 H   0  0  0  0  0  0  0  0  0  0  0  0
   59.4687   31.1298   45.2019 H   0  0  0  0  0  0  0  0  0  0  0  0
  1  2  1  0
  2  3  1  0
  3  4  1  0
  3  5  1  0
  3  6  1  0
  6  7  1  0
  7  8  2  0
  7  9  1  0
  9 10  2  0
 10 11  1  0
 11 12  2  0
 12 13  1  0
 13 14  2  0
 14 15  1  0
 15 16  1  0
 16 17  2  0
 16 18  1  0
 18 19  1  0
 19 20  1  0
 19 21  1  0
 21 22  1  0
 22 23  2  0
 22 24  1  0
 24 25  1  0
 25 26  2  0
 26 27  1  0
 27 28  2  0
 28 29  1  0
 29 30  1  0
 29 31  2  0
 29 32  2  0
 28 33  1  0
 33 34  2  0
 14  9  1  0
 34 25  1  0
  1 35  1  0
  1 36  1  0
  1 37  1  0
  2 38  1  0
  2 39  1  0
  4 40  1  0
  4 41  1  0
  4 42  1  0
  5 43  1  0
  5 44  1  0
  5 45  1  0
 10 46  1  0
 11 47  1  0
 12 48  1  0
 13 49  1  0
 18 50  1  0
 18 51  1  0
 20 52  1  0
 20 53  1  0
 20 54  1  0
 21 55  1  0
 21 56  1  0
 26 57  1  0
 27 58  1  0
 30 59  1  0
 33 60  1  0
 34 61  1  0
M  CHG  4   6  -1  15  -1  24  -1  30  -1
M  END
>  <UniqueID>  (94) 
84

>  <SMILES>  (94) 
CCC(C)(C)[N-]C(=O)c1ccccc1[N-]C(=O)CN(C)CC(=O)[N-]c1ccc(S([NH-])(=O)=O)cc1

>  <Energy>  (94) 
68.79896126100203

>  <Genealogy>  (94) 
CCC(C)(C)[N-]C(=O)c1ccccc1[N-]C(=O)CN(C)CC(=O)[N-]c1ccc(S([NH-])(=O)=O)cc1 (protonated)
CCC(C)(C)[N-]C(=O)c1ccccc1[N-]C(=O)CN(C)CC(=O)[N-]c1ccc(S([NH-])(=O)=O)cc1 (3D coordinates assigned)
CCC(C)(C)[N-]C(=O)c1ccccc1[N-]C(=O)CN(C)CC(=O)[N-]c1ccc(S([NH-])(=O)=O)cc1 (optimized conformer: 68.79896126100203 kcal/mol)

>  <smiles>  (94) 
CCC(C)(C)NC(=O)c1ccccc1NC(=O)CN(C)CC(=O)Nc1ccc(S(N)(=O)=O)cc1

>  <score_type>  (94) 
oracle

>  <origin>  (94) 
adg

>  <m_score__min__energy>  (94) 
-15.08

>  <m_primary>  (94) 
energy

$$$$
