0:0
     RDKit          3D

 53 55  0  0  0  0  0  0  0  0999 V2000
   63.1340   32.7320   48.3230 C   0  0  0  0  0  0  0  0  0  0  0  0
   62.1090   32.0850   47.4490 C   0  0  0  0  0  0  0  0  0  0  0  0
   61.6200   32.7340   46.4870 O   0  0  0  0  0  0  0  0  0  0  0  0
   61.7570   30.7100   47.6650 N   0  0  0  0  0  0  0  0  0  0  0  0
   60.7040   30.0160   46.9740 C   0  0  0  0  0  0  0  0  0  0  0  0
   59.5170   29.6350   47.6260 C   0  0  0  0  0  0  0  0  0  0  0  0
   58.5280   28.9270   46.9360 C   0  0  0  0  0  0  0  0  0  0  0  0
   58.7150   28.5800   45.5900 C   0  0  0  0  0  0  0  0  0  0  0  0
   57.4780   27.7010   44.6990 S   0  0  0  0  0  0  0  0  0  0  0  0
   56.1490   27.8430   45.3910 O   0  0  0  0  0  0  0  0  0  0  0  0
   57.8490   26.2460   44.6550 O   0  0  0  0  0  0  0  0  0  0  0  0
   57.4160   28.3290   43.0740 N   0  0  0  0  0  0  0  0  0  0  0  0
   56.5330   29.4910   42.9680 C   0  0  0  0  0  0  0  0  0  0  0  0
   57.0210   30.6330   43.8140 C   0  0  0  0  0  0  0  0  0  0  0  0
   56.8060   30.7330   45.1420 N   0  0  0  0  0  0  0  0  0  0  0  0
   57.3630   31.8670   45.5410 N   0  0  0  0  0  0  0  0  0  0  0  0
   57.9180   32.4330   44.4540 C   0  0  0  0  0  0  0  0  0  0  0  0
   58.7540   34.0220   44.4930 S   0  0  0  0  0  0  0  0  0  0  0  0
   58.1010   34.5190   46.1270 C   0  0  0  0  0  0  0  0  0  0  0  0
   59.2010   34.7330   47.1270 C   0  0  0  0  0  0  0  0  0  0  0  0
   60.0030   35.6880   46.9480 O   0  0  0  0  0  0  0  0  0  0  0  0
   59.3440   33.8930   48.2890 N   0  0  0  0  0  0  0  0  0  0  0  0
   58.5090   32.7370   48.5770 C   0  0  0  0  0  0  0  0  0  0  0  0
   59.1280   32.0850   49.8050 C   0  0  0  0  0  0  0  0  0  0  0  0
   60.0430   33.1400   50.4250 C   0  0  0  0  0  0  0  0  0  0  0  0
   60.3330   34.1470   49.3200 C   0  0  0  0  0  0  0  0  0  0  0  0
   57.7480   31.6730   43.3570 N   0  0  0  0  0  0  0  0  0  0  0  0
   58.1360   31.9660   41.9800 C   0  0  0  0  0  0  0  0  0  0  0  0
   59.9060   28.9370   44.9440 C   0  0  0  0  0  0  0  0  0  0  0  0
   60.8950   29.6420   45.6330 C   0  0  0  0  0  0  0  0  0  0  0  0
   62.8726   32.5670   49.3787 H   0  0  0  0  0  0  0  0  0  0  0  0
   64.1214   32.2931   48.1168 H   0  0  0  0  0  0  0  0  0  0  0  0
   63.1626   33.8121   48.1168 H   0  0  0  0  0  0  0  0  0  0  0  0
   62.3770   30.1510   48.2930 H   0  0  0  0  0  0  0  0  0  0  0  0
   59.3661   29.8954   48.6840 H   0  0  0  0  0  0  0  0  0  0  0  0
   57.5992   28.6409   47.4512 H   0  0  0  0  0  0  0  0  0  0  0  0
   56.4940   29.8155   41.9177 H   0  0  0  0  0  0  0  0  0  0  0  0
   55.5344   29.1992   43.3253 H   0  0  0  0  0  0  0  0  0  0  0  0
   57.5354   35.4557   46.0142 H   0  0  0  0  0  0  0  0  0  0  0  0
   57.4556   33.7089   46.4975 H   0  0  0  0  0  0  0  0  0  0  0  0
   57.4763   33.0516   48.7880 H   0  0  0  0  0  0  0  0  0  0  0  0
   58.4645   32.0429   47.7248 H   0  0  0  0  0  0  0  0  0  0  0  0
   58.3438   31.7920   50.5186 H   0  0  0  0  0  0  0  0  0  0  0  0
   59.6846   31.1739   49.5404 H   0  0  0  0  0  0  0  0  0  0  0  0
   59.5397   33.6337   51.2693 H   0  0  0  0  0  0  0  0  0  0  0  0
   60.9690   32.6914   50.8140 H   0  0  0  0  0  0  0  0  0  0  0  0
   60.2346   35.1741   49.7014 H   0  0  0  0  0  0  0  0  0  0  0  0
   61.3579   34.0432   48.9343 H   0  0  0  0  0  0  0  0  0  0  0  0
   59.0138   32.6289   41.9795 H   0  0  0  0  0  0  0  0  0  0  0  0
   58.3845   31.0282   41.4616 H   0  0  0  0  0  0  0  0  0  0  0  0
   57.3020   32.4616   41.4616 H   0  0  0  0  0  0  0  0  0  0  0  0
   60.0624   28.6610   43.8907 H   0  0  0  0  0  0  0  0  0  0  0  0
   61.8321   29.9070   45.1214 H   0  0  0  0  0  0  0  0  0  0  0  0
  1  2  1  0
  2  3  2  0
  2  4  1  0
  4  5  1  0
  5  6  2  0
  6  7  1  0
  7  8  2  0
  8  9  1  0
  9 10  2  0
  9 11  2  0
  9 12  1  0
 12 13  1  0
 13 14  1  0
 14 15  2  0
 15 16  1  0
 16 17  2  0
 17 18  1  0
 18 19  1  0
 19 20  1  0
 20 21  2  0
 20 22  1  0
 22 23  1  0
 23 24  1  0
 24 25  1  0
 25 26  1  0
 17 27  1  0
 27 28  1  0
  8 29  1  0
 29 30  2  0
 30  5  1  0
 27 14  1  0
 26 22  1  0
  1 31  1  0
  1 32  1  0
  1 33  1  0
  4 34  1  0
  6 35  1  0
  7 36  1  0
 13 37  1  0
 13 38  1  0
 19 39  1  0
 19 40  1  0
 23 41  1  0
 23 42  1  0
 24 43  1  0
 24 44  1  0
 25 45  1  0
 25 46  1  0
 26 47  1  0
 26 48  1  0
 28 49  1  0
 28 50  1  0
 28 51  1  0
 29 52  1  0
 30 53  1  0
M  CHG  1  12  -1
M  END
>  <UniqueID>  (1) 
1

>  <SMILES>  (1) 
CC(=O)Nc1ccc(S(=O)(=O)[N-]Cc2nnc(SCC(=O)N3CCCC3)n2C)cc1

>  <Energy>  (1) 
81.2245772988132

>  <Genealogy>  (1) 
CC(=O)Nc1ccc(S(=O)(=O)[N-]Cc2nnc(SCC(=O)N3CCCC3)n2C)cc1 (protonated)
CC(=O)Nc1ccc(S(=O)(=O)[N-]Cc2nnc(SCC(=O)N3CCCC3)n2C)cc1 (3D coordinates assigned)
CC(=O)Nc1ccc(S(=O)(=O)[N-]Cc2nnc(SCC(=O)N3CCCC3)n2C)cc1 (nonaromatic ring conformer: 81.2245772988132 kcal/mol)

>  <smiles>  (1) 
CC(=O)Nc1ccc(S(=O)(=O)NCc2nnc(SCC(=O)N3CCCC3)n2C)cc1

>  <score_type>  (1) 
oracle

>  <origin>  (1) 
adg

>  <m_score__min__energy>  (1) 
-11

>  <m_primary>  (1) 
energy

$$$$
1:0
     RDKit          3D

 45 47  0  0  0  0  0  0  0  0999 V2000
   54.3980   28.2890   54.3670 C   0  0  0  0  0  0  0  0  0  0  0  0
   55.3090   29.2050   53.6040 C   0  0  0  0  0  0  0  0  0  0  0  0
   54.7760   30.1720   52.7390 C   0  0  0  0  0  0  0  0  0  0  0  0
   55.6250   31.0020   52.0000 C   0  0  0  0  0  0  0  0  0  0  0  0
   57.0180   30.8660   52.1070 C   0  0  0  0  0  0  0  0  0  0  0  0
   57.8940   31.7210   51.3440 N   0  0  0  0  0  0  0  0  0  0  0  0
   58.5350   31.2430   50.2320 C   0  0  0  0  0  0  0  0  0  0  0  0
   58.3840   30.0460   49.8650 O   0  0  0  0  0  0  0  0  0  0  0  0
   59.3530   32.0520   49.5170 N   0  0  0  0  0  0  0  0  0  0  0  0
   59.5500   33.3420   49.8900 C   0  0  0  0  0  0  0  0  0  0  0  0
   60.3300   34.1240   49.2020 N   0  0  0  0  0  0  0  0  0  0  0  0
   60.4880   34.0870   47.7470 C   0  0  0  0  0  0  0  0  0  0  0  0
   59.1790   34.4360   47.0290 C   0  0  0  0  0  0  0  0  0  0  0  0
   58.6020   33.2400   46.3170 C   0  0  0  0  0  0  0  0  0  0  0  0
   58.9880   31.9410   46.6840 C   0  0  0  0  0  0  0  0  0  0  0  0
   58.4250   30.8320   46.0460 C   0  0  0  0  0  0  0  0  0  0  0  0
   57.4690   31.0070   45.0380 C   0  0  0  0  0  0  0  0  0  0  0  0
   56.7460   29.6100   44.2470 S   0  0  0  0  0  0  0  0  0  0  0  0
   55.1560   29.3520   44.8730 N   0  0  0  0  0  0  0  0  0  0  0  0
   57.5860   28.3900   44.5000 O   0  0  0  0  0  0  0  0  0  0  0  0
   56.6700   29.8460   42.7650 O   0  0  0  0  0  0  0  0  0  0  0  0
   57.0690   32.3030   44.6810 C   0  0  0  0  0  0  0  0  0  0  0  0
   57.6310   33.4130   45.3180 C   0  0  0  0  0  0  0  0  0  0  0  0
   58.9240   33.8210   50.9950 N   0  0  0  0  0  0  0  0  0  0  0  0
   58.0970   33.0220   51.7200 C   0  0  0  0  0  0  0  0  0  0  0  0
   57.5100   33.4970   52.7310 O   0  0  0  0  0  0  0  0  0  0  0  0
   57.5500   29.8860   52.9590 C   0  0  0  0  0  0  0  0  0  0  0  0
   56.7010   29.0560   53.6980 C   0  0  0  0  0  0  0  0  0  0  0  0
   54.5473   28.4391   55.4464 H   0  0  0  0  0  0  0  0  0  0  0  0
   53.3526   28.5115   54.1070 H   0  0  0  0  0  0  0  0  0  0  0  0
   54.6262   27.2448   54.1070 H   0  0  0  0  0  0  0  0  0  0  0  0
   53.6855   30.2780   52.6415 H   0  0  0  0  0  0  0  0  0  0  0  0
   55.1992   31.7650   51.3318 H   0  0  0  0  0  0  0  0  0  0  0  0
   61.2609   34.8124   47.4531 H   0  0  0  0  0  0  0  0  0  0  0  0
   60.7778   33.0660   47.4579 H   0  0  0  0  0  0  0  0  0  0  0  0
   58.4503   34.7963   47.7700 H   0  0  0  0  0  0  0  0  0  0  0  0
   59.3935   35.2124   46.2799 H   0  0  0  0  0  0  0  0  0  0  0  0
   59.7365   31.7954   47.4768 H   0  0  0  0  0  0  0  0  0  0  0  0
   58.7343   29.8173   46.3371 H   0  0  0  0  0  0  0  0  0  0  0  0
   55.2360   28.6260   45.6190 H   0  0  0  0  0  0  0  0  0  0  0  0
   56.3106   32.4464   43.8972 H   0  0  0  0  0  0  0  0  0  0  0  0
   57.3110   34.4267   45.0352 H   0  0  0  0  0  0  0  0  0  0  0  0
   59.0700   34.8160   51.2870 H   0  0  0  0  0  0  0  0  0  0  0  0
   58.6404   29.7701   53.0460 H   0  0  0  0  0  0  0  0  0  0  0  0
   57.1261   28.2834   54.3555 H   0  0  0  0  0  0  0  0  0  0  0  0
  1  2  1  0
  2  3  2  0
  3  4  1  0
  4  5  2  0
  5  6  1  0
  6  7  1  0
  7  8  2  0
  7  9  1  0
  9 10  1  0
 10 11  2  3
 11 12  1  0
 12 13  1  0
 13 14  1  0
 14 15  2  0
 15 16  1  0
 16 17  2  0
 17 18  1  0
 18 19  1  0
 18 20  2  0
 18 21  2  0
 17 22  1  0
 22 23  2  0
 10 24  1  0
 24 25  1  0
 25 26  2  0
  5 27  1  0
 27 28  2  0
 28  2  1  0
 25  6  1  0
 23 14  1  0
  1 29  1  0
  1 30  1  0
  1 31  1  0
  3 32  1  0
  4 33  1  0
 12 34  1  0
 12 35  1  0
 13 36  1  0
 13 37  1  0
 15 38  1  0
 16 39  1  0
 19 40  1  0
 22 41  1  0
 23 42  1  0
 24 43  1  0
 27 44  1  0
 28 45  1  0
M  CHG  2   9  -1  19  -1
M  END
>  <UniqueID>  (2) 
2

>  <SMILES>  (2) 
Cc1ccc(-n2c(=O)[n-]c(=NCCc3ccc(S([NH-])(=O)=O)cc3)[nH]c2=O)cc1

>  <Energy>  (2) 
53.632060105487085

>  <Genealogy>  (2) 
Cc1ccc(-n2c(=O)[n-]c(=NCCc3ccc(S([NH-])(=O)=O)cc3)[nH]c2=O)cc1 (protonated)
Cc1ccc(-n2c(=O)[n-]c(=NCCc3ccc(S([NH-])(=O)=O)cc3)[nH]c2=O)cc1 (3D coordinates assigned)
Cc1ccc(-n2c(=O)[n-]c(=NCCc3ccc(S([NH-])(=O)=O)cc3)[nH]c2=O)cc1 (optimized conformer: 53.632060105487085 kcal/mol)

>  <smiles>  (2) 
Cc1ccc(-n2c(=O)[nH]c(=NCCc3ccc(S(N)(=O)=O)cc3)[nH]c2=O)cc1

>  <score_type>  (2) 
oracle

>  <origin>  (2) 
adg

>  <m_score__min__energy>  (2) 
-12.52

>  <m_primary>  (2) 
energy

$$$$
2:0
     RDKit          3D

 48 50  0  0  0  0  0  0  0  0999 V2000
   55.7963   32.7833   52.3148 H   0  0  0  0  0  0  0  0  0  0  0  0
   56.3980   31.8990   52.0580 C   0  0  0  0  0  0  0  0  0  0  0  0
   57.3560   31.9200   51.0920 N   0  0  0  0  0  0  0  0  0  0  0  0
   57.9610   30.7200   50.9610 C   0  0  0  0  0  0  0  0  0  0  0  0
   58.8780   30.5080   50.0640 N   0  0  0  0  0  0  0  0  0  0  0  0
   58.9950   31.1700   48.7960 C   0  0  0  0  0  0  0  0  0  0  0  0
   59.7260   30.6570   47.9090 O   0  0  0  0  0  0  0  0  0  0  0  0
   58.2090   32.3340   48.4940 N   0  0  0  0  0  0  0  0  0  0  0  0
   57.3290   32.4710   49.0380 H   0  0  0  0  0  0  0  0  0  0  0  0
   58.4910   33.2090   47.3880 C   0  0  0  0  0  0  0  0  0  0  0  0
   57.7490   33.1070   46.1960 C   0  0  0  0  0  0  0  0  0  0  0  0
   56.9411   32.3645   46.1178 H   0  0  0  0  0  0  0  0  0  0  0  0
   58.0310   33.9420   45.1110 C   0  0  0  0  0  0  0  0  0  0  0  0
   57.4380   33.8622   44.1880 H   0  0  0  0  0  0  0  0  0  0  0  0
   59.0640   34.8770   45.1970 C   0  0  0  0  0  0  0  0  0  0  0  0
   59.2856   35.5319   44.3414 H   0  0  0  0  0  0  0  0  0  0  0  0
   59.8160   34.9810   46.3690 C   0  0  0  0  0  0  0  0  0  0  0  0
   60.6341   35.7138   46.4303 H   0  0  0  0  0  0  0  0  0  0  0  0
   59.5350   34.1580   47.4670 C   0  0  0  0  0  0  0  0  0  0  0  0
   60.5260   34.3410   48.9590 S   0  0  0  0  0  0  0  0  0  0  0  0
   62.1120   33.8680   48.1750 C   0  0  0  0  0  0  0  0  0  0  0  0
   62.9071   33.9110   48.9339 H   0  0  0  0  0  0  0  0  0  0  0  0
   62.3001   34.5721   47.3511 H   0  0  0  0  0  0  0  0  0  0  0  0
   62.0760   32.4540   47.5800 C   0  0  0  0  0  0  0  0  0  0  0  0
   61.4058   32.4549   46.7078 H   0  0  0  0  0  0  0  0  0  0  0  0
   61.7178   31.7699   48.3634 H   0  0  0  0  0  0  0  0  0  0  0  0
   63.4570   31.9720   47.1370 C   0  0  0  0  0  0  0  0  0  0  0  0
   64.0721   31.7573   48.0233 H   0  0  0  0  0  0  0  0  0  0  0  0
   63.3505   31.0579   46.5344 H   0  0  0  0  0  0  0  0  0  0  0  0
   63.9424   32.7539   46.5344 H   0  0  0  0  0  0  0  0  0  0  0  0
   57.3130   29.5710   52.0180 S   0  0  0  0  0  0  0  0  0  0  0  0
   56.2380   30.6730   52.6960 C   0  0  0  0  0  0  0  0  0  0  0  0
   55.2220   30.3570   53.7470 C   0  0  0  0  0  0  0  0  0  0  0  0
   55.5240   29.4442   54.2813 H   0  0  0  0  0  0  0  0  0  0  0  0
   55.1590   31.2006   54.4501 H   0  0  0  0  0  0  0  0  0  0  0  0
   53.8730   30.1410   53.1180 C   0  0  0  0  0  0  0  0  0  0  0  0
   53.3200   28.8530   53.0560 C   0  0  0  0  0  0  0  0  0  0  0  0
   53.8644   28.0015   53.4903 H   0  0  0  0  0  0  0  0  0  0  0  0
   52.0810   28.6480   52.4450 C   0  0  0  0  0  0  0  0  0  0  0  0
   51.6491   27.6371   52.4066 H   0  0  0  0  0  0  0  0  0  0  0  0
   51.3880   29.7240   51.8820 C   0  0  0  0  0  0  0  0  0  0  0  0
   50.4112   29.5552   51.4053 H   0  0  0  0  0  0  0  0  0  0  0  0
   51.9310   31.0200   51.9210 C   0  0  0  0  0  0  0  0  0  0  0  0
   51.1990   32.1540   51.3160 C   0  0  0  0  0  0  0  0  0  0  0  0
   50.7050   33.0590   52.0430 O   0  0  0  0  0  0  0  0  0  0  0  0
   51.0470   32.2400   49.9370 O   0  0  0  0  0  0  0  0  0  0  0  0
   53.1800   31.2190   52.5390 C   0  0  0  0  0  0  0  0  0  0  0  0
   53.6182   32.2275   52.5693 H   0  0  0  0  0  0  0  0  0  0  0  0
  1  2  1  0
  2  3  1  0
  3  4  1  0
  4  5  2  0
  5  6  1  0
  6  7  2  0
  6  8  1  0
  8  9  1  0
  8 10  1  0
 10 11  2  0
 11 12  1  0
 11 13  1  0
 13 14  1  0
 13 15  2  0
 15 16  1  0
 15 17  1  0
 17 18  1  0
 17 19  2  0
 19 20  1  0
 20 21  1  0
 21 22  1  0
 21 23  1  0
 21 24  1  0
 24 25  1  0
 24 26  1  0
 24 27  1  0
 27 28  1  0
 27 29  1  0
 27 30  1  0
  4 31  1  0
 31 32  1  0
 32 33  1  0
 33 34  1  0
 33 35  1  0
 33 36  1  0
 36 37  2  0
 37 38  1  0
 37 39  1  0
 39 40  1  0
 39 41  2  0
 41 42  1  0
 41 43  1  0
 43 44  1  0
 44 45  2  0
 44 46  1  0
 43 47  2  0
 47 48  1  0
 32  2  2  0
 47 36  1  0
 19 10  1  0
M  CHG  2   3  -1  46  -1
M  END
>  <UniqueID>  (3) 
3

>  <SMILES>  (3) 
CCCSc1ccccc1NC(=O)/N=c1/[n-]cc(Cc2cccc(C(=O)[O-])c2)s1

>  <Energy>  (3) 
80.49792328678225

>  <Genealogy>  (3) 
CCCSc1ccccc1NC(=O)N=c1[n-]cc(Cc2cccc(C(=O)[O-])c2)s1 (protonated)
CCCSc1ccccc1NC(=O)/N=c1/[n-]cc(Cc2cccc(C(=O)[O-])c2)s1 (cis-trans isomerization)
CCCSc1ccccc1NC(=O)/N=c1/[n-]cc(Cc2cccc(C(=O)[O-])c2)s1 (3D coordinates assigned)
CCCSc1ccccc1NC(=O)/N=c1/[n-]cc(Cc2cccc(C(=O)[O-])c2)s1 (optimized conformer: 80.49792328678225 kcal/mol)

>  <smiles>  (3) 
CCCSc1ccccc1NC(=O)N=c1[nH]cc(Cc2cccc(C(=O)O)c2)s1

>  <score_type>  (3) 
oracle

>  <origin>  (3) 
adg

>  <m_score__min__energy>  (3) 
-13.19

>  <m_primary>  (3) 
energy

$$$$
3:0
     RDKit          3D

 33 34  0  0  0  0  0  0  0  0999 V2000
   58.4540   32.3730   43.4660 O   0  0  0  0  0  0  0  0  0  0  0  0
   57.4360   31.7510   43.8760 C   0  0  0  0  0  0  0  0  0  0  0  0
   56.6580   30.8850   42.9340 C   0  0  0  0  0  0  0  0  0  0  0  0
   56.7080   29.4830   43.3410 N   0  0  0  0  0  0  0  0  0  0  0  0
   56.2990   28.9580   44.6120 C   0  0  0  0  0  0  0  0  0  0  0  0
   55.1860   29.3140   45.0820 O   0  0  0  0  0  0  0  0  0  0  0  0
   57.1260   28.0010   45.3760 C   0  0  0  0  0  0  0  0  0  0  0  0
   58.5150   28.1870   45.4750 C   0  0  0  0  0  0  0  0  0  0  0  0
   59.2940   27.3000   46.2250 C   0  0  0  0  0  0  0  0  0  0  0  0
   58.6920   26.2380   46.9010 C   0  0  0  0  0  0  0  0  0  0  0  0
   57.3080   26.0610   46.8320 C   0  0  0  0  0  0  0  0  0  0  0  0
   56.5230   26.9320   46.0680 C   0  0  0  0  0  0  0  0  0  0  0  0
   55.1500   26.7250   45.9970 O   0  0  0  0  0  0  0  0  0  0  0  0
   56.9720   31.9240   45.2180 N   0  0  0  0  0  0  0  0  0  0  0  0
   57.1200   33.1630   45.9720 C   0  0  0  0  0  0  0  0  0  0  0  0
   58.5130   33.2790   46.5240 C   0  0  0  0  0  0  0  0  0  0  0  0
   59.2980   32.1340   46.7290 C   0  0  0  0  0  0  0  0  0  0  0  0
   60.5930   32.2710   47.2330 C   0  0  0  0  0  0  0  0  0  0  0  0
   61.0870   33.5040   47.5230 N   0  0  0  0  0  0  0  0  0  0  0  0
   60.3440   34.6290   47.3440 C   0  0  0  0  0  0  0  0  0  0  0  0
   59.0400   34.5360   46.8510 C   0  0  0  0  0  0  0  0  0  0  0  0
   55.6097   31.2182   42.9232 H   0  0  0  0  0  0  0  0  0  0  0  0
   57.1035   30.9727   41.9321 H   0  0  0  0  0  0  0  0  0  0  0  0
   58.9920   29.0341   44.9603 H   0  0  0  0  0  0  0  0  0  0  0  0
   60.3836   27.4398   46.2821 H   0  0  0  0  0  0  0  0  0  0  0  0
   59.3072   25.5403   47.4882 H   0  0  0  0  0  0  0  0  0  0  0  0
   56.8334   25.2339   47.3803 H   0  0  0  0  0  0  0  0  0  0  0  0
   56.9213   34.0171   45.3078 H   0  0  0  0  0  0  0  0  0  0  0  0
   56.4049   33.1588   46.8078 H   0  0  0  0  0  0  0  0  0  0  0  0
   58.8966   31.1370   46.4947 H   0  0  0  0  0  0  0  0  0  0  0  0
   61.2153   31.3787   47.3959 H   0  0  0  0  0  0  0  0  0  0  0  0
   60.7702   35.6134   47.5877 H   0  0  0  0  0  0  0  0  0  0  0  0
   58.4312   35.4428   46.7204 H   0  0  0  0  0  0  0  0  0  0  0  0
  1  2  2  0
  2  3  1  0
  3  4  1  0
  4  5  1  0
  5  6  2  0
  5  7  1  0
  7  8  2  0
  8  9  1  0
  9 10  2  0
 10 11  1  0
 11 12  2  0
 12 13  1  0
  2 14  1  0
 14 15  1  0
 15 16  1  0
 16 17  2  0
 17 18  1  0
 18 19  2  0
 19 20  1  0
 20 21  2  0
 12  7  1  0
 21 16  1  0
  3 22  1  0
  3 23  1  0
  8 24  1  0
  9 25  1  0
 10 26  1  0
 11 27  1  0
 15 28  1  0
 15 29  1  0
 17 30  1  0
 18 31  1  0
 20 32  1  0
 21 33  1  0
M  CHG  3   4  -1  13  -1  14  -1
M  END
>  <UniqueID>  (4) 
4

>  <SMILES>  (4) 
O=C(C[N-]C(=O)c1ccccc1[O-])[N-]Cc1ccncc1

>  <Energy>  (4) 
32.452107864501144

>  <Genealogy>  (4) 
O=C(C[N-]C(=O)c1ccccc1[O-])[N-]Cc1ccncc1 (protonated)
O=C(C[N-]C(=O)c1ccccc1[O-])[N-]Cc1ccncc1 (3D coordinates assigned)
O=C(C[N-]C(=O)c1ccccc1[O-])[N-]Cc1ccncc1 (optimized conformer: 32.452107864501144 kcal/mol)

>  <smiles>  (4) 
O=C(CNC(=O)c1ccccc1O)NCc1ccncc1

>  <score_type>  (4) 
oracle

>  <origin>  (4) 
adg

>  <m_score__min__energy>  (4) 
-13.800000000000001

>  <m_primary>  (4) 
energy

$$$$
4:0
     RDKit          3D

 45 47  0  0  0  0  0  0  0  0999 V2000
   59.8810   34.2100   49.6440 N   0  0  0  0  0  0  0  0  0  0  0  0
   60.8980   33.9490   48.6680 C   0  0  0  0  0  0  0  0  0  0  0  0
   62.1800   33.5690   49.0960 C   0  0  0  0  0  0  0  0  0  0  0  0
   63.1910   33.3210   48.1650 C   0  0  0  0  0  0  0  0  0  0  0  0
   62.9330   33.4580   46.8020 C   0  0  0  0  0  0  0  0  0  0  0  0
   61.6630   33.8390   46.3640 C   0  0  0  0  0  0  0  0  0  0  0  0
   60.6280   34.0690   47.2890 C   0  0  0  0  0  0  0  0  0  0  0  0
   59.3220   34.4950   46.8620 N   0  0  0  0  0  0  0  0  0  0  0  0
   58.1020   33.7470   46.9380 C   0  0  0  0  0  0  0  0  0  0  0  0
   57.8220   33.0810   47.9700 O   0  0  0  0  0  0  0  0  0  0  0  0
   57.0870   33.8290   45.8360 C   0  0  0  0  0  0  0  0  0  0  0  0
   57.7780   33.4120   44.1940 S   0  0  0  0  0  0  0  0  0  0  0  0
   57.3620   31.6720   44.2850 C   0  0  0  0  0  0  0  0  0  0  0  0
   58.2110   30.6960   43.8890 N   0  0  0  0  0  0  0  0  0  0  0  0
   57.5100   29.5680   44.0890 C   0  0  0  0  0  0  0  0  0  0  0  0
   58.0420   28.1920   43.8300 C   0  0  0  0  0  0  0  0  0  0  0  0
   59.1440   27.8690   44.7980 C   0  0  0  0  0  0  0  0  0  0  0  0
   60.3050   28.0860   44.4800 O   0  0  0  0  0  0  0  0  0  0  0  0
   58.8390   27.2940   46.1550 C   0  0  0  0  0  0  0  0  0  0  0  0
   57.7250   26.2850   46.0710 C   0  0  0  0  0  0  0  0  0  0  0  0
   58.0110   24.9100   46.0630 C   0  0  0  0  0  0  0  0  0  0  0  0
   56.9730   23.9740   46.0100 C   0  0  0  0  0  0  0  0  0  0  0  0
   55.6440   24.4020   45.9740 C   0  0  0  0  0  0  0  0  0  0  0  0
   55.3490   25.7690   45.9920 C   0  0  0  0  0  0  0  0  0  0  0  0
   54.0270   26.1960   45.9650 O   0  0  0  0  0  0  0  0  0  0  0  0
   56.3850   26.7080   46.0420 C   0  0  0  0  0  0  0  0  0  0  0  0
   56.2770   29.8940   44.5970 C   0  0  0  0  0  0  0  0  0  0  0  0
   55.2800   28.9960   44.9540 O   0  0  0  0  0  0  0  0  0  0  0  0
   56.1650   31.2250   44.7240 N   0  0  0  0  0  0  0  0  0  0  0  0
   58.8910   34.3710   49.3500 H   0  0  0  0  0  0  0  0  0  0  0  0
   60.0950   34.2320   50.6650 H   0  0  0  0  0  0  0  0  0  0  0  0
   62.3894   33.4660   50.1710 H   0  0  0  0  0  0  0  0  0  0  0  0
   64.1913   33.0174   48.5074 H   0  0  0  0  0  0  0  0  0  0  0  0
   63.7313   33.2656   46.0701 H   0  0  0  0  0  0  0  0  0  0  0  0
   61.4703   33.9602   45.2878 H   0  0  0  0  0  0  0  0  0  0  0  0
   56.2691   33.1285   46.0601 H   0  0  0  0  0  0  0  0  0  0  0  0
   56.7353   34.8702   45.7898 H   0  0  0  0  0  0  0  0  0  0  0  0
   57.2291   27.4604   43.9481 H   0  0  0  0  0  0  0  0  0  0  0  0
   58.4412   28.1494   42.8059 H   0  0  0  0  0  0  0  0  0  0  0  0
   59.7409   26.8032   46.5495 H   0  0  0  0  0  0  0  0  0  0  0  0
   58.5247   28.1110   46.8211 H   0  0  0  0  0  0  0  0  0  0  0  0
   59.0558   24.5677   46.0986 H   0  0  0  0  0  0  0  0  0  0  0  0
   57.2038   22.8986   45.9966 H   0  0  0  0  0  0  0  0  0  0  0  0
   54.8294   23.6640   45.9315 H   0  0  0  0  0  0  0  0  0  0  0  0
   56.1496   27.7824   46.0587 H   0  0  0  0  0  0  0  0  0  0  0  0
  1  2  1  0
  2  3  2  0
  3  4  1  0
  4  5  2  0
  5  6  1  0
  6  7  2  0
  7  8  1  0
  8  9  1  0
  9 10  2  0
  9 11  1  0
 11 12  1  0
 12 13  1  0
 13 14  2  0
 14 15  1  0
 15 16  1  0
 16 17  1  0
 17 18  2  0
 17 19  1  0
 19 20  1  0
 20 21  2  0
 21 22  1  0
 22 23  2  0
 23 24  1  0
 24 25  1  0
 24 26  2  0
 15 27  2  0
 27 28  1  0
 27 29  1  0
  7  2  1  0
 29 13  1  0
 26 20  1  0
  1 30  1  0
  1 31  1  0
  3 32  1  0
  4 33  1  0
  5 34  1  0
  6 35  1  0
 11 36  1  0
 11 37  1  0
 16 38  1  0
 16 39  1  0
 19 40  1  0
 19 41  1  0
 21 42  1  0
 22 43  1  0
 23 44  1  0
 26 45  1  0
M  CHG  4   8  -1  25  -1  28  -1  29  -1
M  END
>  <UniqueID>  (5) 
5

>  <SMILES>  (5) 
Nc1ccccc1[N-]C(=O)CSc1nc(CC(=O)Cc2cccc([O-])c2)c([O-])[n-]1

>  <Energy>  (5) 
65.0656144163661

>  <Genealogy>  (5) 
Nc1ccccc1[N-]C(=O)CSc1nc(CC(=O)Cc2cccc([O-])c2)c([O-])[n-]1 (protonated)
Nc1ccccc1[N-]C(=O)CSc1nc(CC(=O)Cc2cccc([O-])c2)c([O-])[n-]1 (3D coordinates assigned)
Nc1ccccc1[N-]C(=O)CSc1nc(CC(=O)Cc2cccc([O-])c2)c([O-])[n-]1 (optimized conformer: 65.0656144163661 kcal/mol)

>  <smiles>  (5) 
Nc1ccccc1NC(=O)CSc1nc(CC(=O)Cc2cccc(O)c2)c(O)[nH]1

>  <score_type>  (5) 
oracle

>  <origin>  (5) 
adg

>  <m_score__min__energy>  (5) 
-17.91

>  <m_primary>  (5) 
energy

$$$$
5:0
     RDKit          3D

 45 48  0  0  0  0  0  0  0  0999 V2000
   59.9530   27.2920   48.0570 C   0  0  0  0  0  0  0  0  0  0  0  0
   59.2840   28.3460   47.5490 C   0  0  0  0  0  0  0  0  0  0  0  0
   58.4790   28.2560   46.3840 C   0  0  0  0  0  0  0  0  0  0  0  0
   58.2790   27.1780   45.6000 C   0  0  0  0  0  0  0  0  0  0  0  0
   57.2030   26.1900   45.8390 C   0  0  0  0  0  0  0  0  0  0  0  0
   55.8590   26.5910   45.7940 C   0  0  0  0  0  0  0  0  0  0  0  0
   55.5240   27.9180   45.5550 O   0  0  0  0  0  0  0  0  0  0  0  0
   54.8720   25.6800   45.9940 N   0  0  0  0  0  0  0  0  0  0  0  0
   55.1610   24.3740   46.2280 C   0  0  0  0  0  0  0  0  0  0  0  0
   53.9520   23.3030   46.4690 S   0  0  0  0  0  0  0  0  0  0  0  0
   56.4510   23.9560   46.2500 N   0  0  0  0  0  0  0  0  0  0  0  0
   57.4750   24.8270   46.0530 C   0  0  0  0  0  0  0  0  0  0  0  0
   58.6590   24.3960   46.0450 O   0  0  0  0  0  0  0  0  0  0  0  0
   57.8350   29.7820   46.0780 S   0  0  0  0  0  0  0  0  0  0  0  0
   58.5570   30.4980   47.4130 C   0  0  0  0  0  0  0  0  0  0  0  0
   58.4750   31.7610   47.7260 N   0  0  0  0  0  0  0  0  0  0  0  0
   58.7630   32.8790   46.8730 C   0  0  0  0  0  0  0  0  0  0  0  0
   58.0360   33.1130   45.6930 C   0  0  0  0  0  0  0  0  0  0  0  0
   58.3090   34.2390   44.9090 C   0  0  0  0  0  0  0  0  0  0  0  0
   59.2910   35.1500   45.3100 C   0  0  0  0  0  0  0  0  0  0  0  0
   59.5630   36.2670   44.5300 O   0  0  0  0  0  0  0  0  0  0  0  0
   59.9930   34.9390   46.5010 C   0  0  0  0  0  0  0  0  0  0  0  0
   59.7220   33.8150   47.2860 C   0  0  0  0  0  0  0  0  0  0  0  0
   59.3160   29.6100   48.1110 N   0  0  0  0  0  0  0  0  0  0  0  0
   60.0480   30.0210   49.3290 C   0  0  0  0  0  0  0  0  0  0  0  0
   61.1370   31.0160   48.9920 C   0  0  0  0  0  0  0  0  0  0  0  0
   61.8120   30.9230   47.7620 C   0  0  0  0  0  0  0  0  0  0  0  0
   62.8010   31.8510   47.4220 C   0  0  0  0  0  0  0  0  0  0  0  0
   63.1270   32.8810   48.3070 C   0  0  0  0  0  0  0  0  0  0  0  0
   64.1080   33.8040   47.9680 O   0  0  0  0  0  0  0  0  0  0  0  0
   62.4640   32.9830   49.5330 C   0  0  0  0  0  0  0  0  0  0  0  0
   61.4740   32.0580   49.8790 C   0  0  0  0  0  0  0  0  0  0  0  0
   60.8350   32.1820   51.1070 O   0  0  0  0  0  0  0  0  0  0  0  0
   60.5643   27.4136   48.9634 H   0  0  0  0  0  0  0  0  0  0  0  0
   59.8877   26.3102   47.5652 H   0  0  0  0  0  0  0  0  0  0  0  0
   58.9482   27.0250   44.7405 H   0  0  0  0  0  0  0  0  0  0  0  0
   57.2496   32.4082   45.3849 H   0  0  0  0  0  0  0  0  0  0  0  0
   57.7507   34.4078   43.9764 H   0  0  0  0  0  0  0  0  0  0  0  0
   60.7603   35.6595   46.8207 H   0  0  0  0  0  0  0  0  0  0  0  0
   60.2632   33.6639   48.2317 H   0  0  0  0  0  0  0  0  0  0  0  0
   59.3425   30.4839   50.0347 H   0  0  0  0  0  0  0  0  0  0  0  0
   60.5113   29.1306   49.7790 H   0  0  0  0  0  0  0  0  0  0  0  0
   61.5598   30.1133   47.0614 H   0  0  0  0  0  0  0  0  0  0  0  0
   63.3226   31.7698   46.4569 H   0  0  0  0  0  0  0  0  0  0  0  0
   62.7221   33.7947   50.2291 H   0  0  0  0  0  0  0  0  0  0  0  0
  1  2  2  0
  2  3  1  0
  3  4  2  3
  4  5  1  0
  5  6  2  0
  6  7  1  0
  6  8  1  0
  8  9  1  0
  9 10  2  0
  9 11  1  0
 11 12  1  0
 12 13  2  0
  3 14  1  0
 14 15  1  0
 15 16  2  3
 16 17  1  0
 17 18  2  0
 18 19  1  0
 19 20  2  0
 20 21  1  0
 20 22  1  0
 22 23  2  0
 15 24  1  0
 24 25  1  0
 25 26  1  0
 26 27  2  0
 27 28  1  0
 28 29  2  0
 29 30  1  0
 29 31  1  0
 31 32  2  0
 32 33  1  0
 24  2  1  0
 32 26  1  0
 12  5  1  0
 23 17  1  0
  1 34  1  0
  1 35  1  0
  4 36  1  0
 18 37  1  0
 19 38  1  0
 22 39  1  0
 23 40  1  0
 25 41  1  0
 25 42  1  0
 27 43  1  0
 28 44  1  0
 31 45  1  0
M  CHG  6   7  -1   8  -1  11  -1  21  -1  30  -1  33  -1
M  END
>  <UniqueID>  (6) 
6

>  <SMILES>  (6) 
C=c1c(=Cc2c([O-])[n-]c(=S)[n-]c2=O)sc(=Nc2ccc([O-])cc2)n1Cc1ccc([O-])cc1[O-]

>  <Energy>  (6) 
105.07686725484132

>  <Genealogy>  (6) 
C=c1c(=Cc2c([O-])[n-]c(=S)[n-]c2=O)sc(=Nc2ccc([O-])cc2)n1Cc1ccc([O-])cc1[O-] (protonated)
C=c1c(=Cc2c([O-])[n-]c(=S)[n-]c2=O)sc(=Nc2ccc([O-])cc2)n1Cc1ccc([O-])cc1[O-] (3D coordinates assigned)
C=c1c(=Cc2c([O-])[n-]c(=S)[n-]c2=O)sc(=Nc2ccc([O-])cc2)n1Cc1ccc([O-])cc1[O-] (optimized conformer: 105.07686725484132 kcal/mol)

>  <smiles>  (6) 
C=c1c(=Cc2c(O)[nH]c(=S)[nH]c2=O)sc(=Nc2ccc(O)cc2)n1Cc1ccc(O)cc1O

>  <score_type>  (6) 
oracle

>  <origin>  (6) 
adg

>  <m_score__min__energy>  (6) 
-17.059999999999999

>  <m_primary>  (6) 
energy

$$$$
6:0
     RDKit          3D

 51 53  0  0  0  0  0  0  0  0999 V2000
   59.7158   36.1840   46.7915 H   0  0  0  0  0  0  0  0  0  0  0  0
   59.3380   35.1900   46.5100 C   0  0  0  0  0  0  0  0  0  0  0  0
   58.9240   34.2940   47.4990 C   0  0  0  0  0  0  0  0  0  0  0  0
   58.9782   34.5829   48.5590 H   0  0  0  0  0  0  0  0  0  0  0  0
   58.4410   33.0310   47.1440 C   0  0  0  0  0  0  0  0  0  0  0  0
   58.1212   32.3284   47.9277 H   0  0  0  0  0  0  0  0  0  0  0  0
   58.3610   32.6520   45.7900 C   0  0  0  0  0  0  0  0  0  0  0  0
   57.8280   31.3240   45.4090 C   0  0  0  0  0  0  0  0  0  0  0  0
   56.6880   31.2300   44.8770 O   0  0  0  0  0  0  0  0  0  0  0  0
   58.6610   30.1600   45.5140 N   0  0  0  0  0  0  0  0  0  0  0  0
   58.9970   29.4460   46.5550 C   0  0  0  0  0  0  0  0  0  0  0  0
   58.5180   29.8630   47.7560 N   0  0  0  0  0  0  0  0  0  0  0  0
   58.9010   29.2970   48.9270 C   0  0  0  0  0  0  0  0  0  0  0  0
   58.4150   29.7740   50.1510 O   0  0  0  0  0  0  0  0  0  0  0  0
   58.5940   31.0800   50.6250 C   0  0  0  0  0  0  0  0  0  0  0  0
   57.7900   31.6120   51.6490 C   0  0  0  0  0  0  0  0  0  0  0  0
   56.9861   31.0026   52.0876 H   0  0  0  0  0  0  0  0  0  0  0  0
   58.0090   32.9100   52.1100 C   0  0  0  0  0  0  0  0  0  0  0  0
   57.3800   33.3206   52.9136 H   0  0  0  0  0  0  0  0  0  0  0  0
   59.0260   33.6900   51.5530 C   0  0  0  0  0  0  0  0  0  0  0  0
   59.1901   34.7149   51.9172 H   0  0  0  0  0  0  0  0  0  0  0  0
   59.8370   33.1760   50.5350 C   0  0  0  0  0  0  0  0  0  0  0  0
   60.8550   34.0170   49.9760 N   0  0  0  0  0  0  0  0  0  0  0  0
   62.3510   33.4610   49.2990 S   0  0  0  0  0  0  0  0  0  0  0  0
   62.8110   32.2310   50.0290 O   0  0  0  0  0  0  0  0  0  0  0  0
   63.3920   34.5390   49.4220 O   0  0  0  0  0  0  0  0  0  0  0  0
   62.1070   33.0590   47.5700 C   0  0  0  0  0  0  0  0  0  0  0  0
   61.2033   33.5733   47.2110 H   0  0  0  0  0  0  0  0  0  0  0  0
   61.9050   31.5500   47.4000 C   0  0  0  0  0  0  0  0  0  0  0  0
   61.8414   31.0748   48.3900 H   0  0  0  0  0  0  0  0  0  0  0  0
   60.9741   31.3650   46.8440 H   0  0  0  0  0  0  0  0  0  0  0  0
   62.7545   31.1267   46.8440 H   0  0  0  0  0  0  0  0  0  0  0  0
   63.2990   33.5420   46.7380 C   0  0  0  0  0  0  0  0  0  0  0  0
   64.1064   33.8692   47.4096 H   0  0  0  0  0  0  0  0  0  0  0  0
   63.6606   32.7194   46.1035 H   0  0  0  0  0  0  0  0  0  0  0  0
   62.9860   34.3843   46.1035 H   0  0  0  0  0  0  0  0  0  0  0  0
   59.6290   31.8570   50.0880 C   0  0  0  0  0  0  0  0  0  0  0  0
   60.2836   31.4337   49.3119 H   0  0  0  0  0  0  0  0  0  0  0  0
   59.8360   28.2740   48.9100 C   0  0  0  0  0  0  0  0  0  0  0  0
   60.2760   27.7260   50.0710 F   0  0  0  0  0  0  0  0  0  0  0  0
   60.2840   27.7910   47.6800 C   0  0  0  0  0  0  0  0  0  0  0  0
   61.1130   26.8390   47.6700 O   0  0  0  0  0  0  0  0  0  0  0  0
   59.8140   28.3270   46.5030 N   0  0  0  0  0  0  0  0  0  0  0  0
   60.0840   27.5870   45.2550 C   0  0  0  0  0  0  0  0  0  0  0  0
   60.4517   26.5793   45.4985 H   0  0  0  0  0  0  0  0  0  0  0  0
   59.1570   27.5072   44.6682 H   0  0  0  0  0  0  0  0  0  0  0  0
   60.8445   28.1229   44.6682 H   0  0  0  0  0  0  0  0  0  0  0  0
   58.7850   33.5600   44.8020 C   0  0  0  0  0  0  0  0  0  0  0  0
   58.7338   33.2765   43.7404 H   0  0  0  0  0  0  0  0  0  0  0  0
   59.2720   34.8230   45.1630 C   0  0  0  0  0  0  0  0  0  0  0  0
   59.6029   35.5269   44.3852 H   0  0  0  0  0  0  0  0  0  0  0  0
  1  2  1  0
  2  3  2  0
  3  4  1  0
  3  5  1  0
  5  6  1  0
  5  7  2  0
  7  8  1  0
  8  9  2  0
  8 10  1  0
 10 11  2  0
 11 12  1  0
 12 13  1  0
 13 14  1  0
 14 15  1  0
 15 16  2  0
 16 17  1  0
 16 18  1  0
 18 19  1  0
 18 20  2  0
 20 21  1  0
 20 22  1  0
 22 23  1  0
 23 24  1  0
 24 25  2  0
 24 26  2  0
 24 27  1  0
 27 28  1  0
 27 29  1  0
 29 30  1  0
 29 31  1  0
 29 32  1  0
 27 33  1  0
 33 34  1  0
 33 35  1  0
 33 36  1  0
 22 37  2  0
 37 38  1  0
 13 39  2  0
 39 40  1  0
 39 41  1  0
 41 42  2  0
 41 43  1  0
 43 44  1  0
 44 45  1  0
 44 46  1  0
 44 47  1  0
  7 48  1  0
 48 49  1  0
 48 50  2  0
 50 51  1  0
 50  2  1  0
 43 11  1  0
 37 15  1  0
M  CHG  2  12  -1  23  -1
M  END
>  <UniqueID>  (7) 
7

>  <SMILES>  (7) 
CC(C)S(=O)(=O)[N-]c1cccc(Oc2[n-]/c(=N/C(=O)c3ccccc3)n(C)c(=O)c2F)c1

>  <Energy>  (7) 
76.0806346952246

>  <Genealogy>  (7) 
CC(C)S(=O)(=O)[N-]c1cccc(Oc2[n-]c(=NC(=O)c3ccccc3)n(C)c(=O)c2F)c1 (protonated)
CC(C)S(=O)(=O)[N-]c1cccc(Oc2[n-]/c(=N/C(=O)c3ccccc3)n(C)c(=O)c2F)c1 (cis-trans isomerization)
CC(C)S(=O)(=O)[N-]c1cccc(Oc2[n-]/c(=N/C(=O)c3ccccc3)n(C)c(=O)c2F)c1 (3D coordinates assigned)
CC(C)S(=O)(=O)[N-]c1cccc(Oc2[n-]/c(=N/C(=O)c3ccccc3)n(C)c(=O)c2F)c1 (optimized conformer: 76.0806346952246 kcal/mol)

>  <smiles>  (7) 
CC(C)S(=O)(=O)Nc1cccc(Oc2[nH]c(=NC(=O)c3ccccc3)n(C)c(=O)c2F)c1

>  <score_type>  (7) 
oracle

>  <origin>  (7) 
adg

>  <m_score__min__energy>  (7) 
-11.92

>  <m_primary>  (7) 
energy

$$$$
7:0
     RDKit          3D

 42 44  0  0  0  0  0  0  0  0999 V2000
   55.6752   29.3413   45.2693 H   0  0  0  0  0  0  0  0  0  0  0  0
   56.1710   29.9640   44.5100 C   0  0  0  0  0  0  0  0  0  0  0  0
   56.9290   31.0270   44.8920 N   0  0  0  0  0  0  0  0  0  0  0  0
   57.5700   31.8240   43.9940 C   0  0  0  0  0  0  0  0  0  0  0  0
   58.2700   32.8270   44.4460 N   0  0  0  0  0  0  0  0  0  0  0  0
   58.0620   33.5620   45.6620 C   0  0  0  0  0  0  0  0  0  0  0  0
   56.9920   34.2140   45.7960 O   0  0  0  0  0  0  0  0  0  0  0  0
   59.0110   33.4680   46.8020 C   0  0  0  0  0  0  0  0  0  0  0  0
   59.3390   34.6340   47.5170 C   0  0  0  0  0  0  0  0  0  0  0  0
   58.8739   35.5917   47.2405 H   0  0  0  0  0  0  0  0  0  0  0  0
   60.2500   34.5870   48.5750 C   0  0  0  0  0  0  0  0  0  0  0  0
   60.5009   35.5056   49.1257 H   0  0  0  0  0  0  0  0  0  0  0  0
   60.8410   33.3770   48.9330 C   0  0  0  0  0  0  0  0  0  0  0  0
   61.5579   33.3422   49.7666 H   0  0  0  0  0  0  0  0  0  0  0  0
   60.5260   32.2090   48.2370 C   0  0  0  0  0  0  0  0  0  0  0  0
   60.9900   31.2561   48.5316 H   0  0  0  0  0  0  0  0  0  0  0  0
   59.6200   32.2410   47.1620 C   0  0  0  0  0  0  0  0  0  0  0  0
   59.2420   31.0170   46.5080 N   0  0  0  0  0  0  0  0  0  0  0  0
   59.0190   31.0680   45.4900 H   0  0  0  0  0  0  0  0  0  0  0  0
   59.1760   29.7500   47.1870 C   0  0  0  0  0  0  0  0  0  0  0  0
   59.4460   29.6820   48.4180 O   0  0  0  0  0  0  0  0  0  0  0  0
   58.8010   28.5120   46.4640 C   0  0  0  0  0  0  0  0  0  0  0  0
   58.2010   27.4300   47.1310 C   0  0  0  0  0  0  0  0  0  0  0  0
   58.0069   27.4955   48.2118 H   0  0  0  0  0  0  0  0  0  0  0  0
   57.8490   26.2720   46.4330 C   0  0  0  0  0  0  0  0  0  0  0  0
   57.3883   25.4304   46.9711 H   0  0  0  0  0  0  0  0  0  0  0  0
   58.0780   26.1720   45.0490 C   0  0  0  0  0  0  0  0  0  0  0  0
   57.7050   24.9450   44.3000 C   0  0  0  0  0  0  0  0  0  0  0  0
   57.9800   23.4590   44.9420 S   0  0  0  0  0  0  0  0  0  0  0  0
   57.1220   25.0340   42.9960 N   0  0  0  0  0  0  0  0  0  0  0  0
   56.9150   24.1700   42.4480 H   0  0  0  0  0  0  0  0  0  0  0  0
   56.8270   25.9520   42.5960 H   0  0  0  0  0  0  0  0  0  0  0  0
   58.6680   27.2590   44.3810 C   0  0  0  0  0  0  0  0  0  0  0  0
   58.8541   27.1980   43.2986 H   0  0  0  0  0  0  0  0  0  0  0  0
   59.0200   28.4160   45.0800 C   0  0  0  0  0  0  0  0  0  0  0  0
   59.4735   29.2608   44.5409 H   0  0  0  0  0  0  0  0  0  0  0  0
   57.4220   31.5570   42.6160 C   0  0  0  0  0  0  0  0  0  0  0  0
   57.9110   32.2017   41.8708 H   0  0  0  0  0  0  0  0  0  0  0  0
   56.6500   30.4680   42.2060 C   0  0  0  0  0  0  0  0  0  0  0  0
   56.5373   30.2453   41.1347 H   0  0  0  0  0  0  0  0  0  0  0  0
   56.0220   29.6630   43.1560 C   0  0  0  0  0  0  0  0  0  0  0  0
   55.4161   28.8006   42.8413 H   0  0  0  0  0  0  0  0  0  0  0  0
  1  2  1  0
  2  3  1  0
  3  4  1  0
  4  5  2  0
  5  6  1  0
  6  7  2  0
  6  8  1  0
  8  9  2  0
  9 10  1  0
  9 11  1  0
 11 12  1  0
 11 13  2  0
 13 14  1  0
 13 15  1  0
 15 16  1  0
 15 17  2  0
 17 18  1  0
 18 19  1  0
 18 20  1  0
 20 21  2  0
 20 22  1  0
 22 23  2  0
 23 24  1  0
 23 25  1  0
 25 26  1  0
 25 27  2  0
 27 28  1  0
 28 29  2  0
 28 30  1  0
 30 31  1  0
 30 32  1  0
 27 33  1  0
 33 34  1  0
 33 35  2  0
 35 36  1  0
  4 37  1  0
 37 38  1  0
 37 39  2  0
 39 40  1  0
 39 41  1  0
 41 42  1  0
 41  2  2  0
 17  8  1  0
 35 22  1  0
M  CHG  1   3  -1
M  END
>  <UniqueID>  (8) 
8

>  <SMILES>  (8) 
NC(=S)c1ccc(C(=O)Nc2ccccc2C(=O)/N=c2\cccc[n-]2)cc1

>  <Energy>  (8) 
67.74772422901276

>  <Genealogy>  (8) 
NC(=S)c1ccc(C(=O)Nc2ccccc2C(=O)N=c2cccc[n-]2)cc1 (protonated)
NC(=S)c1ccc(C(=O)Nc2ccccc2C(=O)/N=c2\cccc[n-]2)cc1 (cis-trans isomerization)
NC(=S)c1ccc(C(=O)Nc2ccccc2C(=O)/N=c2\cccc[n-]2)cc1 (3D coordinates assigned)
NC(=S)c1ccc(C(=O)Nc2ccccc2C(=O)/N=c2\cccc[n-]2)cc1 (optimized conformer: 67.74772422901276 kcal/mol)

>  <smiles>  (8) 
NC(=S)c1ccc(C(=O)Nc2ccccc2C(=O)N=c2cccc[nH]2)cc1

>  <score_type>  (8) 
oracle

>  <origin>  (8) 
adg

>  <m_score__min__energy>  (8) 
-9.9000000000000004

>  <m_primary>  (8) 
energy

$$$$
8:0
     RDKit          3D

 38 40  0  0  0  0  0  0  0  0999 V2000
   58.4310   30.4780   47.2470 C   0  0  0  0  0  0  0  0  0  0  0  0
   58.3760   31.2500   46.1500 C   0  0  0  0  0  0  0  0  0  0  0  0
   58.0860   30.8600   44.8340 C   0  0  0  0  0  0  0  0  0  0  0  0
   57.9130   29.6410   44.2830 C   0  0  0  0  0  0  0  0  0  0  0  0
   57.4760   28.4310   45.0040 C   0  0  0  0  0  0  0  0  0  0  0  0
   56.1150   28.1780   45.2440 C   0  0  0  0  0  0  0  0  0  0  0  0
   55.1380   29.0480   44.7740 O   0  0  0  0  0  0  0  0  0  0  0  0
   55.7450   27.0770   45.9470 N   0  0  0  0  0  0  0  0  0  0  0  0
   56.6710   26.2170   46.4410 C   0  0  0  0  0  0  0  0  0  0  0  0
   56.3040   25.2010   47.0860 O   0  0  0  0  0  0  0  0  0  0  0  0
   57.9940   26.4530   46.2450 N   0  0  0  0  0  0  0  0  0  0  0  0
   58.4160   27.5410   45.5480 C   0  0  0  0  0  0  0  0  0  0  0  0
   59.6500   27.7340   45.3900 O   0  0  0  0  0  0  0  0  0  0  0  0
   58.0110   32.0630   44.1380 C   0  0  0  0  0  0  0  0  0  0  0  0
   57.7220   32.2410   42.6800 C   0  0  0  0  0  0  0  0  0  0  0  0
   58.2760   33.0910   44.9630 N   0  0  0  0  0  0  0  0  0  0  0  0
   58.5070   32.6010   46.1710 N   0  0  0  0  0  0  0  0  0  0  0  0
   58.7580   33.4660   47.3270 C   0  0  0  0  0  0  0  0  0  0  0  0
   60.1960   33.3580   47.7630 C   0  0  0  0  0  0  0  0  0  0  0  0
   60.5840   33.8270   49.0290 C   0  0  0  0  0  0  0  0  0  0  0  0
   61.9160   33.7230   49.4430 C   0  0  0  0  0  0  0  0  0  0  0  0
   62.8730   33.1540   48.5940 C   0  0  0  0  0  0  0  0  0  0  0  0
   64.2440   33.0470   49.0200 C   0  0  0  0  0  0  0  0  0  0  0  0
   65.3440   32.9610   49.3630 N   0  0  0  0  0  0  0  0  0  0  0  0
   62.4940   32.6920   47.3270 C   0  0  0  0  0  0  0  0  0  0  0  0
   61.1610   32.7950   46.9130 C   0  0  0  0  0  0  0  0  0  0  0  0
   58.6729   30.9250   48.2226 H   0  0  0  0  0  0  0  0  0  0  0  0
   58.2342   29.3985   47.1703 H   0  0  0  0  0  0  0  0  0  0  0  0
   58.1147   29.5411   43.2063 H   0  0  0  0  0  0  0  0  0  0  0  0
   56.7912   32.8143   42.5580 H   0  0  0  0  0  0  0  0  0  0  0  0
   58.5522   32.7845   42.2053 H   0  0  0  0  0  0  0  0  0  0  0  0
   57.6102   31.2550   42.2053 H   0  0  0  0  0  0  0  0  0  0  0  0
   58.5399   34.5088   47.0532 H   0  0  0  0  0  0  0  0  0  0  0  0
   58.1093   33.1488   48.1568 H   0  0  0  0  0  0  0  0  0  0  0  0
   59.8366   34.2783   49.6981 H   0  0  0  0  0  0  0  0  0  0  0  0
   62.2122   34.0888   50.4372 H   0  0  0  0  0  0  0  0  0  0  0  0
   63.2448   32.2479   46.6568 H   0  0  0  0  0  0  0  0  0  0  0  0
   60.8680   32.4329   45.9165 H   0  0  0  0  0  0  0  0  0  0  0  0
  1  2  2  0
  2  3  1  0
  3  4  2  3
  4  5  1  0
  5  6  2  0
  6  7  1  0
  6  8  1  0
  8  9  1  0
  9 10  2  0
  9 11  1  0
 11 12  1  0
 12 13  2  0
  3 14  1  0
 14 15  1  0
 14 16  2  0
 16 17  1  0
 17 18  1  0
 18 19  1  0
 19 20  2  0
 20 21  1  0
 21 22  2  0
 22 23  1  0
 23 24  3  0
 22 25  1  0
 25 26  2  0
 17  2  1  0
 26 19  1  0
 12  5  1  0
  1 27  1  0
  1 28  1  0
  4 29  1  0
 15 30  1  0
 15 31  1  0
 15 32  1  0
 18 33  1  0
 18 34  1  0
 20 35  1  0
 21 36  1  0
 25 37  1  0
 26 38  1  0
M  CHG  3   7  -1   8  -1  11  -1
M  END
>  <UniqueID>  (9) 
9

>  <SMILES>  (9) 
C=c1c(=Cc2c([O-])[n-]c(=O)[n-]c2=O)c(C)nn1Cc1ccc(C#N)cc1

>  <Energy>  (9) 
85.12248469826805

>  <Genealogy>  (9) 
C=c1c(=Cc2c([O-])[n-]c(=O)[n-]c2=O)c(C)nn1Cc1ccc(C#N)cc1 (protonated)
C=c1c(=Cc2c([O-])[n-]c(=O)[n-]c2=O)c(C)nn1Cc1ccc(C#N)cc1 (3D coordinates assigned)
C=c1c(=Cc2c([O-])[n-]c(=O)[n-]c2=O)c(C)nn1Cc1ccc(C#N)cc1 (optimized conformer: 85.12248469826805 kcal/mol)

>  <smiles>  (9) 
C=c1c(=Cc2c(O)[nH]c(=O)[nH]c2=O)c(C)nn1Cc1ccc(C#N)cc1

>  <score_type>  (9) 
oracle

>  <origin>  (9) 
adg

>  <m_score__min__energy>  (9) 
-15.69

>  <m_primary>  (9) 
energy

$$$$
9:0
     RDKit          3D

 41 43  0  0  0  0  0  0  0  0999 V2000
   59.8660   30.1790   45.1760 O   0  0  0  0  0  0  0  0  0  0  0  0
   59.2640   29.9590   46.2620 C   0  0  0  0  0  0  0  0  0  0  0  0
   58.8050   31.0580   47.0620 N   0  0  0  0  0  0  0  0  0  0  0  0
   59.0560   32.4210   46.6960 C   0  0  0  0  0  0  0  0  0  0  0  0
   60.0870   33.1150   47.3470 C   0  0  0  0  0  0  0  0  0  0  0  0
   60.3730   34.4390   47.0070 C   0  0  0  0  0  0  0  0  0  0  0  0
   59.6420   35.0760   46.0050 C   0  0  0  0  0  0  0  0  0  0  0  0
   58.6280   34.3890   45.3310 C   0  0  0  0  0  0  0  0  0  0  0  0
   58.3190   33.0590   45.6680 C   0  0  0  0  0  0  0  0  0  0  0  0
   57.2860   32.3170   44.8490 C   0  0  0  0  0  0  0  0  0  0  0  0
   57.8740   31.8690   43.5120 C   0  0  0  0  0  0  0  0  0  0  0  0
   57.7270   30.4810   43.3780 O   0  0  0  0  0  0  0  0  0  0  0  0
   59.0290   28.5720   46.7030 C   0  0  0  0  0  0  0  0  0  0  0  0
   59.8500   27.9050   47.5380 N   0  0  0  0  0  0  0  0  0  0  0  0
   59.3680   26.6850   47.7230 N   0  0  0  0  0  0  0  0  0  0  0  0
   58.2290   26.5670   47.0150 C   0  0  0  0  0  0  0  0  0  0  0  0
   57.4320   25.3070   46.9230 C   0  0  0  0  0  0  0  0  0  0  0  0
   57.6670   24.6780   45.6320 N   0  0  0  0  0  0  0  0  0  0  0  0
   56.6380   24.5110   44.6540 C   0  0  0  0  0  0  0  0  0  0  0  0
   56.8910   24.6780   43.4300 O   0  0  0  0  0  0  0  0  0  0  0  0
   55.2830   24.1410   45.0850 C   0  0  0  0  0  0  0  0  0  0  0  0
   54.7900   22.8900   45.0240 N   0  0  0  0  0  0  0  0  0  0  0  0
   53.5420   23.0200   45.5230 C   0  0  0  0  0  0  0  0  0  0  0  0
   52.7500   22.0480   45.6320 O   0  0  0  0  0  0  0  0  0  0  0  0
   53.2090   24.2740   45.8970 N   0  0  0  0  0  0  0  0  0  0  0  0
   54.3210   24.9710   45.6140 C   0  0  0  0  0  0  0  0  0  0  0  0
   54.4520   26.3360   45.8360 O   0  0  0  0  0  0  0  0  0  0  0  0
   57.9820   27.7440   46.3390 C   0  0  0  0  0  0  0  0  0  0  0  0
   56.6510   28.0780   45.2410 Cl  0  0  0  0  0  0  0  0  0  0  0  0
   58.1140   30.8770   47.8250 H   0  0  0  0  0  0  0  0  0  0  0  0
   60.6739   32.6130   48.1303 H   0  0  0  0  0  0  0  0  0  0  0  0
   61.1755   34.9797   47.5301 H   0  0  0  0  0  0  0  0  0  0  0  0
   59.8636   36.1214   45.7443 H   0  0  0  0  0  0  0  0  0  0  0  0
   58.0670   34.8930   44.5302 H   0  0  0  0  0  0  0  0  0  0  0  0
   56.9489   31.4325   45.4093 H   0  0  0  0  0  0  0  0  0  0  0  0
   56.4395   32.9918   44.6537 H   0  0  0  0  0  0  0  0  0  0  0  0
   57.3448   32.3747   42.6909 H   0  0  0  0  0  0  0  0  0  0  0  0
   58.9420   32.1297   43.4756 H   0  0  0  0  0  0  0  0  0  0  0  0
   58.6460   30.1060   43.3750 H   0  0  0  0  0  0  0  0  0  0  0  0
   57.7373   24.6205   47.7264 H   0  0  0  0  0  0  0  0  0  0  0  0
   56.3623   25.5411   47.0277 H   0  0  0  0  0  0  0  0  0  0  0  0
  1  2  2  0
  2  3  1  0
  3  4  1  0
  4  5  2  0
  5  6  1  0
  6  7  2  0
  7  8  1  0
  8  9  2  0
  9 10  1  0
 10 11  1  0
 11 12  1  0
  2 13  1  0
 13 14  2  0
 14 15  1  0
 15 16  1  0
 16 17  1  0
 17 18  1  0
 18 19  1  0
 19 20  2  0
 19 21  1  0
 21 22  1  0
 22 23  1  0
 23 24  2  0
 23 25  1  0
 25 26  1  0
 26 27  1  0
 16 28  2  0
 28 29  1  0
  9  4  1  0
 28 13  1  0
 26 21  2  0
  3 30  1  0
  5 31  1  0
  6 32  1  0
  7 33  1  0
  8 34  1  0
 10 35  1  0
 10 36  1  0
 11 37  1  0
 11 38  1  0
 12 39  1  0
 17 40  1  0
 17 41  1  0
M  CHG  5  15  -1  18  -1  22  -1  25  -1  27  -1
M  END
>  <UniqueID>  (10) 
10

>  <SMILES>  (10) 
O=C(Nc1ccccc1CCO)c1n[n-]c(C[N-]C(=O)c2[n-]c(=O)[n-]c2[O-])c1Cl

>  <Energy>  (10) 
102.84852274499121

>  <Genealogy>  (10) 
O=C(Nc1ccccc1CCO)c1n[n-]c(C[N-]C(=O)c2[n-]c(=O)[n-]c2[O-])c1Cl (protonated)
O=C(Nc1ccccc1CCO)c1n[n-]c(C[N-]C(=O)c2[n-]c(=O)[n-]c2[O-])c1Cl (3D coordinates assigned)
O=C(Nc1ccccc1CCO)c1n[n-]c(C[N-]C(=O)c2[n-]c(=O)[n-]c2[O-])c1Cl (optimized conformer: 102.84852274499121 kcal/mol)

>  <smiles>  (10) 
O=C(Nc1ccccc1CCO)c1n[nH]c(CNC(=O)c2[nH]c(=O)[nH]c2O)c1Cl

>  <score_type>  (10) 
oracle

>  <origin>  (10) 
adg

>  <m_score__min__energy>  (10) 
-18.91

>  <m_primary>  (10) 
energy

$$$$
10:0
     RDKit          3D

 29 30  0  0  0  0  0  0  0  0999 V2000
   62.6530   33.5150   47.0110 C   0  0  0  0  0  0  0  0  0  0  0  0
   61.4380   33.8510   47.8170 C   0  0  0  0  0  0  0  0  0  0  0  0
   61.3740   33.7620   49.1540 N   0  0  0  0  0  0  0  0  0  0  0  0
   60.0950   34.0580   49.4530 C   0  0  0  0  0  0  0  0  0  0  0  0
   59.6500   34.0760   50.6310 O   0  0  0  0  0  0  0  0  0  0  0  0
   59.3280   34.3240   48.3750 N   0  0  0  0  0  0  0  0  0  0  0  0
   60.1840   34.1950   47.3400 C   0  0  0  0  0  0  0  0  0  0  0  0
   59.7680   34.3210   45.9050 C   0  0  0  0  0  0  0  0  0  0  0  0
   58.9850   33.1100   45.4770 C   0  0  0  0  0  0  0  0  0  0  0  0
   59.1660   31.8830   46.1360 C   0  0  0  0  0  0  0  0  0  0  0  0
   58.4620   30.7490   45.7230 C   0  0  0  0  0  0  0  0  0  0  0  0
   57.5670   30.8270   44.6480 C   0  0  0  0  0  0  0  0  0  0  0  0
   56.6940   29.3930   44.1180 S   0  0  0  0  0  0  0  0  0  0  0  0
   55.1460   29.3430   44.8830 N   0  0  0  0  0  0  0  0  0  0  0  0
   56.5160   29.4280   42.6260 O   0  0  0  0  0  0  0  0  0  0  0  0
   57.4710   28.1590   44.4810 O   0  0  0  0  0  0  0  0  0  0  0  0
   57.3920   32.0470   43.9800 C   0  0  0  0  0  0  0  0  0  0  0  0
   58.0960   33.1820   44.3930 C   0  0  0  0  0  0  0  0  0  0  0  0
   63.4892   33.2838   47.6872 H   0  0  0  0  0  0  0  0  0  0  0  0
   62.4421   32.6415   46.3766 H   0  0  0  0  0  0  0  0  0  0  0  0
   62.9209   34.3728   46.3766 H   0  0  0  0  0  0  0  0  0  0  0  0
   62.1380   33.5020   49.8160 H   0  0  0  0  0  0  0  0  0  0  0  0
   59.1419   35.2177   45.7867 H   0  0  0  0  0  0  0  0  0  0  0  0
   60.6685   34.4030   45.2786 H   0  0  0  0  0  0  0  0  0  0  0  0
   59.8658   31.8144   46.9819 H   0  0  0  0  0  0  0  0  0  0  0  0
   58.6110   29.7916   46.2437 H   0  0  0  0  0  0  0  0  0  0  0  0
   55.2080   28.6360   45.6490 H   0  0  0  0  0  0  0  0  0  0  0  0
   56.6987   32.1114   43.1284 H   0  0  0  0  0  0  0  0  0  0  0  0
   57.9525   34.1366   43.8657 H   0  0  0  0  0  0  0  0  0  0  0  0
  1  2  1  0
  2  3  1  0
  3  4  1  0
  4  5  2  0
  4  6  1  0
  6  7  1  0
  7  8  1  0
  8  9  1  0
  9 10  2  0
 10 11  1  0
 11 12  2  0
 12 13  1  0
 13 14  1  0
 13 15  2  0
 13 16  2  0
 12 17  1  0
 17 18  2  0
  7  2  2  0
 18  9  1  0
  1 19  1  0
  1 20  1  0
  1 21  1  0
  3 22  1  0
  8 23  1  0
  8 24  1  0
 10 25  1  0
 11 26  1  0
 14 27  1  0
 17 28  1  0
 18 29  1  0
M  CHG  2   6  -1  14  -1
M  END
>  <UniqueID>  (11) 
11

>  <SMILES>  (11) 
Cc1[nH]c(=O)[n-]c1Cc1ccc(S([NH-])(=O)=O)cc1

>  <Energy>  (11) 
55.436679765789506

>  <Genealogy>  (11) 
Cc1[nH]c(=O)[n-]c1Cc1ccc(S([NH-])(=O)=O)cc1 (protonated)
Cc1[nH]c(=O)[n-]c1Cc1ccc(S([NH-])(=O)=O)cc1 (3D coordinates assigned)
Cc1[nH]c(=O)[n-]c1Cc1ccc(S([NH-])(=O)=O)cc1 (optimized conformer: 55.436679765789506 kcal/mol)

>  <smiles>  (11) 
Cc1[nH]c(=O)[nH]c1Cc1ccc(S(N)(=O)=O)cc1

>  <score_type>  (11) 
oracle

>  <origin>  (11) 
adg

>  <m_score__min__energy>  (11) 
-10.67

>  <m_primary>  (11) 
energy

$$$$
11:0
     RDKit          3D

 41 42  0  0  0  0  0  0  0  0999 V2000
   58.3440   26.9380   43.4630 C   0  0  0  0  0  0  0  0  0  0  0  0
   58.4870   26.6830   44.7740 C   0  0  0  0  0  0  0  0  0  0  0  0
   57.9020   25.6210   45.4770 C   0  0  0  0  0  0  0  0  0  0  0  0
   57.1540   24.6210   44.9630 C   0  0  0  0  0  0  0  0  0  0  0  0
   55.6910   24.4810   45.1420 C   0  0  0  0  0  0  0  0  0  0  0  0
   54.9880   23.3550   44.9180 N   0  0  0  0  0  0  0  0  0  0  0  0
   53.7330   23.6840   45.2850 C   0  0  0  0  0  0  0  0  0  0  0  0
   52.7700   22.8770   45.2120 O   0  0  0  0  0  0  0  0  0  0  0  0
   53.5900   24.9460   45.7410 N   0  0  0  0  0  0  0  0  0  0  0  0
   54.8360   25.4380   45.6510 C   0  0  0  0  0  0  0  0  0  0  0  0
   55.1690   26.7390   46.0230 O   0  0  0  0  0  0  0  0  0  0  0  0
   58.2730   25.7880   46.8040 C   0  0  0  0  0  0  0  0  0  0  0  0
   59.0620   26.9180   46.8590 C   0  0  0  0  0  0  0  0  0  0  0  0
   59.6210   27.4910   48.1270 C   0  0  0  0  0  0  0  0  0  0  0  0
   59.2050   27.4610   45.6270 N   0  0  0  0  0  0  0  0  0  0  0  0
   60.0060   28.6510   45.2940 C   0  0  0  0  0  0  0  0  0  0  0  0
   59.1390   29.9190   45.1630 C   0  0  0  0  0  0  0  0  0  0  0  0
   57.8420   29.7130   44.3590 C   0  0  0  0  0  0  0  0  0  0  0  0
   56.7160   30.5190   44.8840 N   0  0  0  0  0  0  0  0  0  0  0  0
   56.9860   31.9640   44.7680 C   0  0  0  0  0  0  0  0  0  0  0  0
   55.4840   30.1990   44.1450 C   0  0  0  0  0  0  0  0  0  0  0  0
   58.8514   27.8038   43.0126 H   0  0  0  0  0  0  0  0  0  0  0  0
   57.7195   26.2810   42.8398 H   0  0  0  0  0  0  0  0  0  0  0  0
   57.6699   23.8536   44.3672 H   0  0  0  0  0  0  0  0  0  0  0  0
   55.1460   27.5060   45.3620 H   0  0  0  0  0  0  0  0  0  0  0  0
   57.9918   25.1430   47.6495 H   0  0  0  0  0  0  0  0  0  0  0  0
   59.1453   27.0034   48.9907 H   0  0  0  0  0  0  0  0  0  0  0  0
   60.7068   27.3178   48.1602 H   0  0  0  0  0  0  0  0  0  0  0  0
   59.4210   28.5722   48.1602 H   0  0  0  0  0  0  0  0  0  0  0  0
   60.7497   28.8110   46.0885 H   0  0  0  0  0  0  0  0  0  0  0  0
   60.4899   28.4712   44.3227 H   0  0  0  0  0  0  0  0  0  0  0  0
   58.8687   30.2587   46.1737 H   0  0  0  0  0  0  0  0  0  0  0  0
   59.7394   30.6585   44.6128 H   0  0  0  0  0  0  0  0  0  0  0  0
   58.0253   30.0017   43.3135 H   0  0  0  0  0  0  0  0  0  0  0  0
   57.5617   28.6526   44.4422 H   0  0  0  0  0  0  0  0  0  0  0  0
   57.0681   32.4035   45.7730 H   0  0  0  0  0  0  0  0  0  0  0  0
   57.9285   32.1183   44.2222 H   0  0  0  0  0  0  0  0  0  0  0  0
   56.1628   32.4482   44.2222 H   0  0  0  0  0  0  0  0  0  0  0  0
   54.6731   29.9884   44.8578 H   0  0  0  0  0  0  0  0  0  0  0  0
   55.2033   31.0540   43.5125 H   0  0  0  0  0  0  0  0  0  0  0  0
   55.6549   29.3154   43.5125 H   0  0  0  0  0  0  0  0  0  0  0  0
  1  2  2  0
  2  3  1  0
  3  4  2  3
  4  5  1  0
  5  6  1  0
  6  7  1  0
  7  8  2  0
  7  9  1  0
  9 10  1  0
 10 11  1  0
  3 12  1  0
 12 13  2  0
 13 14  1  0
 13 15  1  0
 15 16  1  0
 16 17  1  0
 17 18  1  0
 18 19  1  0
 19 20  1  0
 19 21  1  0
 15  2  1  0
 10  5  2  0
  1 22  1  0
  1 23  1  0
  4 24  1  0
 11 25  1  0
 12 26  1  0
 14 27  1  0
 14 28  1  0
 14 29  1  0
 16 30  1  0
 16 31  1  0
 17 32  1  0
 17 33  1  0
 18 34  1  0
 18 35  1  0
 20 36  1  0
 20 37  1  0
 20 38  1  0
 21 39  1  0
 21 40  1  0
 21 41  1  0
M  CHG  2   6  -1   9  -1
M  END
>  <UniqueID>  (12) 
12

>  <SMILES>  (12) 
C=c1c(=Cc2[n-]c(=O)[n-]c2O)cc(C)n1CCCN(C)C

>  <Energy>  (12) 
98.2594441396675

>  <Genealogy>  (12) 
C=c1c(=Cc2[n-]c(=O)[n-]c2O)cc(C)n1CCCN(C)C (protonated)
C=c1c(=Cc2[n-]c(=O)[n-]c2O)cc(C)n1CCCN(C)C (3D coordinates assigned)
C=c1c(=Cc2[n-]c(=O)[n-]c2O)cc(C)n1CCCN(C)C (optimized conformer: 98.2594441396675 kcal/mol)

>  <smiles>  (12) 
C=c1c(=Cc2[nH]c(=O)[nH]c2O)cc(C)n1CCCN(C)C

>  <score_type>  (12) 
oracle

>  <origin>  (12) 
adg

>  <m_score__min__energy>  (12) 
-11.640000000000001

>  <m_primary>  (12) 
energy

$$$$
12:0
     RDKit          3D

 36 38  0  0  0  0  0  0  0  0999 V2000
   61.0410   33.1870   46.3320 O   0  0  0  0  0  0  0  0  0  0  0  0
   60.1060   32.6690   46.9980 C   0  0  0  0  0  0  0  0  0  0  0  0
   58.8630   33.3830   47.1000 N   0  0  0  0  0  0  0  0  0  0  0  0
   57.9900   33.5960   46.1570 C   0  0  0  0  0  0  0  0  0  0  0  0
   57.7090   32.6600   45.0530 C   0  0  0  0  0  0  0  0  0  0  0  0
   58.1530   32.7560   43.7470 C   0  0  0  0  0  0  0  0  0  0  0  0
   57.6600   31.6430   43.1040 C   0  0  0  0  0  0  0  0  0  0  0  0
   56.9620   30.9290   44.0540 C   0  0  0  0  0  0  0  0  0  0  0  0
   57.0150   31.5570   45.2070 O   0  0  0  0  0  0  0  0  0  0  0  0
   60.2890   31.3110   47.5780 C   0  0  0  0  0  0  0  0  0  0  0  0
   60.6210   31.1590   48.9350 C   0  0  0  0  0  0  0  0  0  0  0  0
   60.7830   32.2680   49.7600 O   0  0  0  0  0  0  0  0  0  0  0  0
   60.7710   29.8790   49.4620 C   0  0  0  0  0  0  0  0  0  0  0  0
   61.0650   29.7160   50.6760 O   0  0  0  0  0  0  0  0  0  0  0  0
   60.5950   28.7980   48.6620 N   0  0  0  0  0  0  0  0  0  0  0  0
   60.2820   28.9140   47.3690 N   0  0  0  0  0  0  0  0  0  0  0  0
   60.1460   27.6840   46.5810 C   0  0  0  0  0  0  0  0  0  0  0  0
   58.6910   27.3450   46.3960 C   0  0  0  0  0  0  0  0  0  0  0  0
   58.1730   26.1560   46.9340 C   0  0  0  0  0  0  0  0  0  0  0  0
   56.8280   25.8220   46.7390 C   0  0  0  0  0  0  0  0  0  0  0  0
   55.9950   26.6690   46.0020 C   0  0  0  0  0  0  0  0  0  0  0  0
   54.6600   26.3350   45.8100 O   0  0  0  0  0  0  0  0  0  0  0  0
   56.5060   27.8500   45.4580 C   0  0  0  0  0  0  0  0  0  0  0  0
   57.8500   28.1880   45.6500 C   0  0  0  0  0  0  0  0  0  0  0  0
   60.1420   30.1500   46.7920 C   0  0  0  0  0  0  0  0  0  0  0  0
   59.9020   30.2480   45.5570 O   0  0  0  0  0  0  0  0  0  0  0  0
   57.4237   34.5386   46.1863 H   0  0  0  0  0  0  0  0  0  0  0  0
   58.7713   33.5552   43.3124 H   0  0  0  0  0  0  0  0  0  0  0  0
   57.7958   31.3771   42.0453 H   0  0  0  0  0  0  0  0  0  0  0  0
   56.4398   29.9777   43.8743 H   0  0  0  0  0  0  0  0  0  0  0  0
   60.6135   27.8297   45.5960 H   0  0  0  0  0  0  0  0  0  0  0  0
   60.6425   26.8593   47.1133 H   0  0  0  0  0  0  0  0  0  0  0  0
   58.8265   25.4848   47.5106 H   0  0  0  0  0  0  0  0  0  0  0  0
   56.4257   24.8916   47.1663 H   0  0  0  0  0  0  0  0  0  0  0  0
   55.8502   28.5156   44.8775 H   0  0  0  0  0  0  0  0  0  0  0  0
   58.2495   29.1163   45.2157 H   0  0  0  0  0  0  0  0  0  0  0  0
  1  2  2  0
  2  3  1  0
  3  4  2  3
  4  5  1  0
  5  6  2  0
  6  7  1  0
  7  8  2  0
  8  9  1  0
  2 10  1  0
 10 11  2  0
 11 12  1  0
 11 13  1  0
 13 14  2  0
 13 15  1  0
 15 16  1  0
 16 17  1  0
 17 18  1  0
 18 19  2  0
 19 20  1  0
 20 21  2  0
 21 22  1  0
 21 23  1  0
 23 24  2  0
 16 25  1  0
 25 26  2  0
  9  5  1  0
 25 10  1  0
 24 18  1  0
  4 27  1  0
  6 28  1  0
  7 29  1  0
  8 30  1  0
 17 31  1  0
 17 32  1  0
 19 33  1  0
 20 34  1  0
 23 35  1  0
 24 36  1  0
M  CHG  3  12  -1  15  -1  22  -1
M  END
>  <UniqueID>  (13) 
13

>  <SMILES>  (13) 
O=C(N=Cc1ccco1)c1c([O-])c(=O)[n-]n(Cc2ccc([O-])cc2)c1=O

>  <Energy>  (13) 
79.87158683564576

>  <Genealogy>  (13) 
O=C(N=Cc1ccco1)c1c([O-])c(=O)[n-]n(Cc2ccc([O-])cc2)c1=O (protonated)
O=C(N=Cc1ccco1)c1c([O-])c(=O)[n-]n(Cc2ccc([O-])cc2)c1=O (3D coordinates assigned)
O=C(N=Cc1ccco1)c1c([O-])c(=O)[n-]n(Cc2ccc([O-])cc2)c1=O (optimized conformer: 79.87158683564576 kcal/mol)

>  <smiles>  (13) 
O=C(N=Cc1ccco1)c1c(O)c(=O)[nH]n(Cc2ccc(O)cc2)c1=O

>  <score_type>  (13) 
oracle

>  <origin>  (13) 
adg

>  <m_score__min__energy>  (13) 
-13.210000000000001

>  <m_primary>  (13) 
energy

$$$$
13:0
     RDKit          3D

 39 41  0  0  0  0  0  0  0  0999 V2000
   59.5914   30.6428   47.9126 H   0  0  0  0  0  0  0  0  0  0  0  0
   59.1480   30.3030   46.9650 C   0  0  0  0  0  0  0  0  0  0  0  0
   59.1382   29.2318   46.7153 H   0  0  0  0  0  0  0  0  0  0  0  0
   58.6180   31.1970   46.1120 C   0  0  0  0  0  0  0  0  0  0  0  0
   58.0260   30.8970   44.8800 C   0  0  0  0  0  0  0  0  0  0  0  0
   57.9030   29.6870   44.3000 C   0  0  0  0  0  0  0  0  0  0  0  0
   58.1186   29.6007   43.2248 H   0  0  0  0  0  0  0  0  0  0  0  0
   57.4930   28.4670   45.0330 C   0  0  0  0  0  0  0  0  0  0  0  0
   56.1350   28.2210   45.2810 C   0  0  0  0  0  0  0  0  0  0  0  0
   55.1680   29.1340   44.8720 O   0  0  0  0  0  0  0  0  0  0  0  0
   55.7550   27.0890   45.9330 N   0  0  0  0  0  0  0  0  0  0  0  0
   54.7410   26.9210   46.1210 H   0  0  0  0  0  0  0  0  0  0  0  0
   56.6770   26.1760   46.3410 C   0  0  0  0  0  0  0  0  0  0  0  0
   56.3110   25.1350   46.9480 O   0  0  0  0  0  0  0  0  0  0  0  0
   57.9950   26.3810   46.0880 N   0  0  0  0  0  0  0  0  0  0  0  0
   58.4230   27.4930   45.4390 C   0  0  0  0  0  0  0  0  0  0  0  0
   59.6510   27.6300   45.1930 O   0  0  0  0  0  0  0  0  0  0  0  0
   57.6300   32.1070   44.3320 C   0  0  0  0  0  0  0  0  0  0  0  0
   57.1369   32.2575   43.3603 H   0  0  0  0  0  0  0  0  0  0  0  0
   57.9740   33.0860   45.2410 C   0  0  0  0  0  0  0  0  0  0  0  0
   57.7800   34.5540   45.0060 C   0  0  0  0  0  0  0  0  0  0  0  0
   57.7113   35.0742   45.9728 H   0  0  0  0  0  0  0  0  0  0  0  0
   58.6336   34.9501   44.4364 H   0  0  0  0  0  0  0  0  0  0  0  0
   56.8528   34.7148   44.4364 H   0  0  0  0  0  0  0  0  0  0  0  0
   58.5760   32.5410   46.3260 N   0  0  0  0  0  0  0  0  0  0  0  0
   59.1260   33.2990   47.4620 C   0  0  0  0  0  0  0  0  0  0  0  0
   58.7844   34.3427   47.3986 H   0  0  0  0  0  0  0  0  0  0  0  0
   58.7751   32.8380   48.3971 H   0  0  0  0  0  0  0  0  0  0  0  0
   60.6330   33.2700   47.4440 C   0  0  0  0  0  0  0  0  0  0  0  0
   61.3410   33.8870   46.3990 C   0  0  0  0  0  0  0  0  0  0  0  0
   60.7933   34.3854   45.5856 H   0  0  0  0  0  0  0  0  0  0  0  0
   62.7400   33.8700   46.3890 C   0  0  0  0  0  0  0  0  0  0  0  0
   63.2893   34.3561   45.5692 H   0  0  0  0  0  0  0  0  0  0  0  0
   63.4400   33.2370   47.4180 C   0  0  0  0  0  0  0  0  0  0  0  0
   64.5399   33.2249   47.4083 H   0  0  0  0  0  0  0  0  0  0  0  0
   62.7440   32.6190   48.4600 C   0  0  0  0  0  0  0  0  0  0  0  0
   63.2966   32.1209   49.2703 H   0  0  0  0  0  0  0  0  0  0  0  0
   61.3460   32.6330   48.4740 C   0  0  0  0  0  0  0  0  0  0  0  0
   60.8017   32.1432   49.2949 H   0  0  0  0  0  0  0  0  0  0  0  0
  1  2  1  0
  2  3  1  0
  2  4  2  0
  4  5  1  0
  5  6  2  0
  6  7  1  0
  6  8  1  0
  8  9  2  0
  9 10  1  0
  9 11  1  0
 11 12  1  0
 11 13  1  0
 13 14  2  0
 13 15  1  0
 15 16  1  0
 16 17  2  0
  5 18  1  0
 18 19  1  0
 18 20  2  0
 20 21  1  0
 21 22  1  0
 21 23  1  0
 21 24  1  0
 20 25  1  0
 25 26  1  0
 26 27  1  0
 26 28  1  0
 26 29  1  0
 29 30  2  0
 30 31  1  0
 30 32  1  0
 32 33  1  0
 32 34  2  0
 34 35  1  0
 34 36  1  0
 36 37  1  0
 36 38  2  0
 38 39  1  0
 25  4  1  0
 38 29  1  0
 16  8  1  0
M  CHG  2  10  -1  15  -1
M  END
>  <UniqueID>  (14) 
14

>  <SMILES>  (14) 
C=c1/c(=C/c2c([O-])[nH]c(=O)[n-]c2=O)cc(C)n1Cc1ccccc1

>  <Energy>  (14) 
79.5796887918317

>  <Genealogy>  (14) 
C=c1c(=Cc2c([O-])[nH]c(=O)[n-]c2=O)cc(C)n1Cc1ccccc1 (protonated)
C=c1/c(=C/c2c([O-])[nH]c(=O)[n-]c2=O)cc(C)n1Cc1ccccc1 (cis-trans isomerization)
C=c1/c(=C/c2c([O-])[nH]c(=O)[n-]c2=O)cc(C)n1Cc1ccccc1 (3D coordinates assigned)
C=c1/c(=C/c2c([O-])[nH]c(=O)[n-]c2=O)cc(C)n1Cc1ccccc1 (optimized conformer: 79.5796887918317 kcal/mol)

>  <smiles>  (14) 
C=c1c(=Cc2c(O)[nH]c(=O)[nH]c2=O)cc(C)n1Cc1ccccc1

>  <score_type>  (14) 
oracle

>  <origin>  (14) 
adg

>  <m_score__min__energy>  (14) 
-13.789999999999999

>  <m_primary>  (14) 
energy

$$$$
14:0
     RDKit          3D

 33 34  0  0  0  0  0  0  0  0999 V2000
   54.7620   29.1630   44.8770 H   0  0  0  0  0  0  0  0  0  0  0  0
   54.8190   29.5740   43.9180 N   0  0  0  0  0  0  0  0  0  0  0  0
   56.3070   30.4490   43.8340 S   0  0  0  0  0  0  0  0  0  0  0  0
   56.1970   31.7090   44.6450 O   0  0  0  0  0  0  0  0  0  0  0  0
   56.5880   30.8200   42.4050 O   0  0  0  0  0  0  0  0  0  0  0  0
   57.6140   29.4490   44.4590 C   0  0  0  0  0  0  0  0  0  0  0  0
   58.3340   29.8580   45.5900 C   0  0  0  0  0  0  0  0  0  0  0  0
   58.0892   30.8118   46.0802 H   0  0  0  0  0  0  0  0  0  0  0  0
   59.3620   29.0580   46.0970 C   0  0  0  0  0  0  0  0  0  0  0  0
   59.9222   29.3847   46.9855 H   0  0  0  0  0  0  0  0  0  0  0  0
   59.6830   27.8400   45.4780 C   0  0  0  0  0  0  0  0  0  0  0  0
   60.7660   26.9620   46.0490 C   0  0  0  0  0  0  0  0  0  0  0  0
   61.2433   26.4031   45.2306 H   0  0  0  0  0  0  0  0  0  0  0  0
   61.4992   27.6024   46.5611 H   0  0  0  0  0  0  0  0  0  0  0  0
   60.1970   25.9700   47.0650 C   0  0  0  0  0  0  0  0  0  0  0  0
   60.8962   25.1291   47.1831 H   0  0  0  0  0  0  0  0  0  0  0  0
   60.0598   26.4814   48.0292 H   0  0  0  0  0  0  0  0  0  0  0  0
   58.9040   25.4630   46.6040 N   0  0  0  0  0  0  0  0  0  0  0  0
   57.7440   25.9250   46.9680 C   0  0  0  0  0  0  0  0  0  0  0  0
   57.7099   26.8528   47.5579 H   0  0  0  0  0  0  0  0  0  0  0  0
   56.4700   25.2600   46.6250 C   0  0  0  0  0  0  0  0  0  0  0  0
   55.4440   25.9810   45.9980 C   0  0  0  0  0  0  0  0  0  0  0  0
   55.6020   27.3320   45.7110 O   0  0  0  0  0  0  0  0  0  0  0  0
   54.2790   25.3600   45.6750 N   0  0  0  0  0  0  0  0  0  0  0  0
   54.0910   24.0430   45.9400 C   0  0  0  0  0  0  0  0  0  0  0  0
   53.0030   23.4900   45.6360 O   0  0  0  0  0  0  0  0  0  0  0  0
   55.0780   23.3190   46.5270 N   0  0  0  0  0  0  0  0  0  0  0  0
   56.2620   23.8920   46.8670 C   0  0  0  0  0  0  0  0  0  0  0  0
   57.1670   23.1830   47.3830 O   0  0  0  0  0  0  0  0  0  0  0  0
   58.9490   27.4250   44.3550 C   0  0  0  0  0  0  0  0  0  0  0  0
   59.1840   26.4654   43.8713 H   0  0  0  0  0  0  0  0  0  0  0  0
   57.9210   28.2260   43.8490 C   0  0  0  0  0  0  0  0  0  0  0  0
   57.3511   27.8946   42.9685 H   0  0  0  0  0  0  0  0  0  0  0  0
  1  2  1  0
  2  3  1  0
  3  4  2  0
  3  5  2  0
  3  6  1  0
  6  7  2  0
  7  8  1  0
  7  9  1  0
  9 10  1  0
  9 11  2  0
 11 12  1  0
 12 13  1  0
 12 14  1  0
 12 15  1  0
 15 16  1  0
 15 17  1  0
 15 18  1  0
 18 19  2  0
 19 20  1  0
 19 21  1  0
 21 22  2  0
 22 23  1  0
 22 24  1  0
 24 25  1  0
 25 26  2  0
 25 27  1  0
 27 28  1  0
 28 29  2  0
 11 30  1  0
 30 31  1  0
 30 32  2  0
 32 33  1  0
 32  6  1  0
 28 21  1  0
M  CHG  4   2  -1  23  -1  24  -1  27  -1
M  END
>  <UniqueID>  (15) 
15

>  <SMILES>  (15) 
[NH-]S(=O)(=O)c1ccc(CC/N=C\c2c([O-])[n-]c(=O)[n-]c2=O)cc1

>  <Energy>  (15) 
39.641949692535555

>  <Genealogy>  (15) 
[NH-]S(=O)(=O)c1ccc(CCN=Cc2c([O-])[n-]c(=O)[n-]c2=O)cc1 (protonated)
[NH-]S(=O)(=O)c1ccc(CC/N=C\c2c([O-])[n-]c(=O)[n-]c2=O)cc1 (cis-trans isomerization)
[NH-]S(=O)(=O)c1ccc(CC/N=C\c2c([O-])[n-]c(=O)[n-]c2=O)cc1 (3D coordinates assigned)
[NH-]S(=O)(=O)c1ccc(CC/N=C\c2c([O-])[n-]c(=O)[n-]c2=O)cc1 (optimized conformer: 39.641949692535555 kcal/mol)

>  <smiles>  (15) 
NS(=O)(=O)c1ccc(CCN=Cc2c(O)[nH]c(=O)[nH]c2=O)cc1

>  <score_type>  (15) 
oracle

>  <origin>  (15) 
adg

>  <m_score__min__energy>  (15) 
-16.5

>  <m_primary>  (15) 
energy

$$$$
15:0
     RDKit          3D

 25 25  0  0  0  0  0  0  0  0999 V2000
   55.1670   26.3790   45.9860 N   0  0  0  0  0  0  0  0  0  0  0  0
   56.4040   25.9340   46.5380 C   0  0  0  0  0  0  0  0  0  0  0  0
   56.4910   24.7580   46.9790 O   0  0  0  0  0  0  0  0  0  0  0  0
   57.5480   26.8720   46.6380 C   0  0  0  0  0  0  0  0  0  0  0  0
   58.2370   26.9230   47.8620 C   0  0  0  0  0  0  0  0  0  0  0  0
   59.3240   27.7770   48.0410 C   0  0  0  0  0  0  0  0  0  0  0  0
   59.7490   28.6160   47.0040 C   0  0  0  0  0  0  0  0  0  0  0  0
   60.8680   29.5020   47.1970 N   0  0  0  0  0  0  0  0  0  0  0  0
   61.4290   30.0420   46.2220 O   0  0  0  0  0  0  0  0  0  0  0  0
   61.3430   29.7630   48.4620 O   0  0  0  0  0  0  0  0  0  0  0  0
   59.0590   28.5870   45.7830 C   0  0  0  0  0  0  0  0  0  0  0  0
   57.9650   27.7230   45.5730 C   0  0  0  0  0  0  0  0  0  0  0  0
   57.2670   27.7870   44.3030 N   0  0  0  0  0  0  0  0  0  0  0  0
   57.2140   29.1590   43.7670 C   0  0  0  0  0  0  0  0  0  0  0  0
   56.1230   29.9720   44.3950 C   0  0  0  0  0  0  0  0  0  0  0  0
   56.2230   31.2260   44.4560 O   0  0  0  0  0  0  0  0  0  0  0  0
   55.0110   29.3430   44.9400 O   0  0  0  0  0  0  0  0  0  0  0  0
   55.1450   27.0920   45.2240 H   0  0  0  0  0  0  0  0  0  0  0  0
   57.9131   26.2783   48.6924 H   0  0  0  0  0  0  0  0  0  0  0  0
   59.8525   27.7918   49.0056 H   0  0  0  0  0  0  0  0  0  0  0  0
   59.3793   29.2547   44.9696 H   0  0  0  0  0  0  0  0  0  0  0  0
   57.6620   27.1350   43.5900 H   0  0  0  0  0  0  0  0  0  0  0  0
   56.2840   27.4660   44.4600 H   0  0  0  0  0  0  0  0  0  0  0  0
   58.1784   29.6518   43.9598 H   0  0  0  0  0  0  0  0  0  0  0  0
   57.0062   29.0918   42.6889 H   0  0  0  0  0  0  0  0  0  0  0  0
  1  2  1  0
  2  3  2  0
  2  4  1  0
  4  5  2  0
  5  6  1  0
  6  7  2  0
  7  8  1  0
  8  9  2  0
  8 10  1  0
  7 11  1  0
 11 12  2  0
 12 13  1  0
 13 14  1  0
 14 15  1  0
 15 16  2  0
 15 17  1  0
 12  4  1  0
  1 18  1  0
  5 19  1  0
  6 20  1  0
 11 21  1  0
 13 22  1  0
 13 23  1  0
 14 24  1  0
 14 25  1  0
M  CHG  5   1  -1   8   1  10  -1  13   1  17  -1
M  END
>  <UniqueID>  (16) 
16

>  <SMILES>  (16) 
[NH-]C(=O)c1ccc([N+](=O)[O-])cc1[NH2+]CC(=O)[O-]

>  <Energy>  (16) 
32.44666365821722

>  <Genealogy>  (16) 
[NH-]C(=O)c1ccc([N+](=O)[O-])cc1[NH2+]CC(=O)[O-] (protonated)
[NH-]C(=O)c1ccc([N+](=O)[O-])cc1[NH2+]CC(=O)[O-] (3D coordinates assigned)
[NH-]C(=O)c1ccc([N+](=O)[O-])cc1[NH2+]CC(=O)[O-] (optimized conformer: 32.44666365821722 kcal/mol)

>  <smiles>  (16) 
NC(=O)c1ccc([N+](=O)[O-])cc1NCC(=O)O

>  <score_type>  (16) 
oracle

>  <origin>  (16) 
adg

>  <m_score__min__energy>  (16) 
-9.6400000000000006

>  <m_primary>  (16) 
energy

$$$$
16:0
     RDKit          3D

 71 75  0  0  0  0  0  0  0  0999 V2000
   60.3850   26.2680   47.0320 O   0  0  0  0  0  0  0  0  0  0  0  0
   59.6120   27.0680   47.6240 C   0  0  0  0  0  0  0  0  0  0  0  0
   58.2660   27.2000   47.1480 N   0  0  0  0  0  0  0  0  0  0  0  0
   57.8690   27.2770   45.7430 C   0  0  2  0  0  0  0  0  0  0  0  0
   58.5710   28.4790   45.0830 C   0  0  0  0  0  0  0  0  0  0  0  0
   58.2810   29.7970   45.7560 C   0  0  0  0  0  0  0  0  0  0  0  0
   57.8550   29.8100   46.9420 O   0  0  0  0  0  0  0  0  0  0  0  0
   58.3680   31.0240   45.0090 N   0  0  0  0  0  0  0  0  0  0  0  0
   57.8490   31.1910   43.6470 C   0  0  0  0  0  0  0  0  0  0  0  0
   57.7940   32.7140   43.3840 C   0  0  0  0  0  0  0  0  0  0  0  0
   58.3740   33.2970   44.6220 C   0  0  0  0  0  0  0  0  0  0  0  0
   58.6080   34.6450   44.9020 C   0  0  0  0  0  0  0  0  0  0  0  0
   59.1920   34.9800   46.1340 C   0  0  0  0  0  0  0  0  0  0  0  0
   59.5370   33.9700   47.0520 C   0  0  0  0  0  0  0  0  0  0  0  0
   59.2910   32.6210   46.7480 C   0  0  0  0  0  0  0  0  0  0  0  0
   58.6850   32.3130   45.5230 C   0  0  0  0  0  0  0  0  0  0  0  0
   56.3620   27.3610   45.6160 C   0  0  0  0  0  0  0  0  0  0  0  0
   55.8580   28.4290   45.1760 O   0  0  0  0  0  0  0  0  0  0  0  0
   55.4720   26.3090   46.0160 N   0  0  0  0  0  0  0  0  0  0  0  0
   55.8430   24.9800   46.4890 C   0  0  0  0  0  0  0  0  0  0  0  0
   56.2040   24.1200   45.3130 C   0  0  0  0  0  0  0  0  0  0  0  0
   55.3030   23.9800   44.2450 C   0  0  0  0  0  0  0  0  0  0  0  0
   55.6450   23.2050   43.1320 C   0  0  0  0  0  0  0  0  0  0  0  0
   56.8870   22.5670   43.0780 C   0  0  0  0  0  0  0  0  0  0  0  0
   57.7940   22.7100   44.1320 C   0  0  0  0  0  0  0  0  0  0  0  0
   57.4580   23.4880   45.2460 C   0  0  0  0  0  0  0  0  0  0  0  0
   60.1070   27.8050   48.8080 C   0  0  0  0  0  0  0  0  0  0  0  0
   60.7700   27.1300   49.8470 C   0  0  0  0  0  0  0  0  0  0  0  0
   61.2840   27.8390   50.9360 C   0  0  0  0  0  0  0  0  0  0  0  0
   61.1660   29.2300   50.9840 C   0  0  0  0  0  0  0  0  0  0  0  0
   60.5360   29.9220   49.9390 C   0  0  0  0  0  0  0  0  0  0  0  0
   60.4440   31.6850   49.9650 S   0  0  0  0  0  0  0  0  0  0  0  0
   60.8000   32.1790   51.3400 O   0  0  0  0  0  0  0  0  0  0  0  0
   59.0330   32.1100   49.6690 O   0  0  0  0  0  0  0  0  0  0  0  0
   61.5220   32.4040   48.7920 N   0  0  0  0  0  0  0  0  0  0  0  0
   62.3110   33.4820   49.4140 C   0  0  0  0  0  0  0  0  0  0  0  0
   63.4230   33.9670   48.4610 C   0  0  0  0  0  0  0  0  0  0  0  0
   63.2490   33.4400   47.1610 O   0  0  0  0  0  0  0  0  0  0  0  0
   63.3700   32.0280   47.1960 C   0  0  0  0  0  0  0  0  0  0  0  0
   62.4150   31.3840   48.2230 C   0  0  0  0  0  0  0  0  0  0  0  0
   60.0050   29.2050   48.8560 C   0  0  0  0  0  0  0  0  0  0  0  0
   58.1818   26.3620   45.2187 H   0  0  0  0  0  0  0  0  0  0  0  0
   59.6569   28.3058   45.1127 H   0  0  0  0  0  0  0  0  0  0  0  0
   58.1846   28.5516   44.0557 H   0  0  0  0  0  0  0  0  0  0  0  0
   58.5182   30.7038   42.9225 H   0  0  0  0  0  0  0  0  0  0  0  0
   56.8551   30.7318   43.5400 H   0  0  0  0  0  0  0  0  0  0  0  0
   58.3947   32.9835   42.5028 H   0  0  0  0  0  0  0  0  0  0  0  0
   56.7775   33.0775   43.1728 H   0  0  0  0  0  0  0  0  0  0  0  0
   58.3411   35.4258   44.1746 H   0  0  0  0  0  0  0  0  0  0  0  0
   59.3806   36.0348   46.3827 H   0  0  0  0  0  0  0  0  0  0  0  0
   60.0016   34.2387   48.0122 H   0  0  0  0  0  0  0  0  0  0  0  0
   59.5676   31.8251   47.4551 H   0  0  0  0  0  0  0  0  0  0  0  0
   56.7063   25.0583   47.1662 H   0  0  0  0  0  0  0  0  0  0  0  0
   54.9967   24.5306   47.0292 H   0  0  0  0  0  0  0  0  0  0  0  0
   54.3248   24.4816   44.2839 H   0  0  0  0  0  0  0  0  0  0  0  0
   54.9355   23.0976   42.2983 H   0  0  0  0  0  0  0  0  0  0  0  0
   57.1512   21.9517   42.2053 H   0  0  0  0  0  0  0  0  0  0  0  0
   58.7730   22.2105   44.0859 H   0  0  0  0  0  0  0  0  0  0  0  0
   58.1765   23.6051   46.0706 H   0  0  0  0  0  0  0  0  0  0  0  0
   60.8851   26.0369   49.8028 H   0  0  0  0  0  0  0  0  0  0  0  0
   61.7820   27.3012   51.7562 H   0  0  0  0  0  0  0  0  0  0  0  0
   61.5685   29.7848   51.8443 H   0  0  0  0  0  0  0  0  0  0  0  0
   61.6456   34.3254   49.6506 H   0  0  0  0  0  0  0  0  0  0  0  0
   62.7775   33.0932   50.3312 H   0  0  0  0  0  0  0  0  0  0  0  0
   63.3970   35.0655   48.4091 H   0  0  0  0  0  0  0  0  0  0  0  0
   64.3912   33.6195   48.8506 H   0  0  0  0  0  0  0  0  0  0  0  0
   63.1380   31.6282   46.1979 H   0  0  0  0  0  0  0  0  0  0  0  0
   64.4002   31.7857   47.4961 H   0  0  0  0  0  0  0  0  0  0  0  0
   61.8126   30.6105   47.7243 H   0  0  0  0  0  0  0  0  0  0  0  0
   63.0080   30.9330   49.0323 H   0  0  0  0  0  0  0  0  0  0  0  0
   59.5047   29.7438   48.0378 H   0  0  0  0  0  0  0  0  0  0  0  0
  1  2  2  0
  2  3  1  0
  3  4  1  0
  4  5  1  0
  5  6  1  0
  6  7  2  0
  6  8  1  0
  8  9  1  0
  9 10  1  0
 10 11  1  0
 11 12  2  0
 12 13  1  0
 13 14  2  0
 14 15  1  0
 15 16  2  0
  4 17  1  0
 17 18  2  0
 17 19  1  0
 19 20  1  0
 20 21  1  0
 21 22  2  0
 22 23  1  0
 23 24  2  0
 24 25  1  0
 25 26  2  0
  2 27  1  0
 27 28  2  0
 28 29  1  0
 29 30  2  0
 30 31  1  0
 31 32  1  0
 32 33  2  0
 32 34  2  0
 32 35  1  0
 35 36  1  0
 36 37  1  0
 37 38  1  0
 38 39  1  0
 39 40  1  0
 31 41  2  0
 16  8  1  0
 26 21  1  0
 41 27  1  0
 16 11  1  0
 40 35  1  0
  4 42  1  6
  5 43  1  0
  5 44  1  0
  9 45  1  0
  9 46  1  0
 10 47  1  0
 10 48  1  0
 12 49  1  0
 13 50  1  0
 14 51  1  0
 15 52  1  0
 20 53  1  0
 20 54  1  0
 22 55  1  0
 23 56  1  0
 24 57  1  0
 25 58  1  0
 26 59  1  0
 28 60  1  0
 29 61  1  0
 30 62  1  0
 36 63  1  0
 36 64  1  0
 37 65  1  0
 37 66  1  0
 39 67  1  0
 39 68  1  0
 40 69  1  0
 40 70  1  0
 41 71  1  0
M  CHG  2   3  -1  19  -1
M  END
>  <UniqueID>  (17) 
17

>  <SMILES>  (17) 
O=C([N-][C@H](CC(=O)N1CCc2ccccc21)C(=O)[N-]Cc1ccccc1)c1cccc(S(=O)(=O)N2CCOCC2)c1

>  <Energy>  (17) 
102.14182670482911

>  <Genealogy>  (17) 
O=C([N-]C(CC(=O)N1CCc2ccccc21)C(=O)[N-]Cc1ccccc1)c1cccc(S(=O)(=O)N2CCOCC2)c1 (protonated)
O=C([N-][C@H](CC(=O)N1CCc2ccccc21)C(=O)[N-]Cc1ccccc1)c1cccc(S(=O)(=O)N2CCOCC2)c1 (chirality)
O=C([N-][C@H](CC(=O)N1CCc2ccccc21)C(=O)[N-]Cc1ccccc1)c1cccc(S(=O)(=O)N2CCOCC2)c1 (3D coordinates assigned)
O=C([N-][C@H](CC(=O)N1CCc2ccccc21)C(=O)[N-]Cc1ccccc1)c1cccc(S(=O)(=O)N2CCOCC2)c1 (nonaromatic ring conformer: 102.14182670482911 kcal/mol)

>  <smiles>  (17) 
O=C(NC(CC(=O)N1CCc2ccccc21)C(=O)NCc1ccccc1)c1cccc(S(=O)(=O)N2CCOCC2)c1

>  <score_type>  (17) 
oracle

>  <origin>  (17) 
adg

>  <m_score__min__energy>  (17) 
-14.77

>  <m_primary>  (17) 
energy

$$$$
17:0
     RDKit          3D

 49 52  0  0  0  0  0  0  0  0999 V2000
   58.1430   30.7620   42.7170 H   0  0  0  0  0  0  0  0  0  0  0  0
   57.4340   31.2430   43.2600 O   0  0  0  0  0  0  0  0  0  0  0  0
   57.7730   32.1510   44.2630 C   0  0  0  0  0  0  0  0  0  0  0  0
   57.3890   31.9230   45.5900 C   0  0  0  0  0  0  0  0  0  0  0  0
   56.7833   31.0400   45.8419 H   0  0  0  0  0  0  0  0  0  0  0  0
   57.7740   32.8160   46.5970 C   0  0  0  0  0  0  0  0  0  0  0  0
   57.4573   32.6410   47.6358 H   0  0  0  0  0  0  0  0  0  0  0  0
   58.5650   33.9370   46.2840 C   0  0  0  0  0  0  0  0  0  0  0  0
   59.0460   34.8520   47.3420 C   0  0  0  0  0  0  0  0  0  0  0  0
   58.6069   35.8597   47.3838 H   0  0  0  0  0  0  0  0  0  0  0  0
   59.9830   34.5400   48.2580 C   0  0  0  0  0  0  0  0  0  0  0  0
   60.0027   35.1325   49.1846 H   0  0  0  0  0  0  0  0  0  0  0  0
   60.9900   33.4610   48.1160 C   0  0  0  0  0  0  0  0  0  0  0  0
   62.2100   33.7720   48.1500 O   0  0  0  0  0  0  0  0  0  0  0  0
   60.6110   32.0440   47.9280 C   0  0  0  0  0  0  0  0  0  0  0  0
   59.8450   31.3890   48.9020 C   0  0  0  0  0  0  0  0  0  0  0  0
   59.6573   31.8757   49.8705 H   0  0  0  0  0  0  0  0  0  0  0  0
   59.3190   30.1200   48.6470 C   0  0  0  0  0  0  0  0  0  0  0  0
   58.6986   29.6229   49.4072 H   0  0  0  0  0  0  0  0  0  0  0  0
   59.5770   29.4750   47.4270 C   0  0  0  0  0  0  0  0  0  0  0  0
   58.9330   28.2290   47.1130 N   0  0  0  0  0  0  0  0  0  0  0  0
   58.9000   27.1240   47.8860 C   0  0  0  0  0  0  0  0  0  0  0  0
   59.2984   27.0472   48.9085 H   0  0  0  0  0  0  0  0  0  0  0  0
   58.2870   26.1080   47.1880 C   0  0  0  0  0  0  0  0  0  0  0  0
   58.0980   24.8110   47.6490 O   0  0  0  0  0  0  0  0  0  0  0  0
   57.9290   26.5990   45.9470 C   0  0  0  0  0  0  0  0  0  0  0  0
   57.3430   25.8360   44.8250 C   0  0  0  0  0  0  0  0  0  0  0  0
   57.7800   26.0230   43.6580 O   0  0  0  0  0  0  0  0  0  0  0  0
   56.2240   24.8870   45.0290 C   0  0  0  0  0  0  0  0  0  0  0  0
   56.3480   23.5460   44.6260 C   0  0  0  0  0  0  0  0  0  0  0  0
   57.2796   23.2013   44.1535 H   0  0  0  0  0  0  0  0  0  0  0  0
   55.2940   22.6470   44.8220 C   0  0  0  0  0  0  0  0  0  0  0  0
   55.4017   21.5976   44.5104 H   0  0  0  0  0  0  0  0  0  0  0  0
   54.1050   23.0810   45.4130 C   0  0  0  0  0  0  0  0  0  0  0  0
   53.0600   22.1860   45.6120 O   0  0  0  0  0  0  0  0  0  0  0  0
   53.9660   24.4160   45.8030 C   0  0  0  0  0  0  0  0  0  0  0  0
   53.0272   24.7575   46.2634 H   0  0  0  0  0  0  0  0  0  0  0  0
   55.0160   25.3190   45.6100 C   0  0  0  0  0  0  0  0  0  0  0  0
   54.8580   26.6400   46.0150 O   0  0  0  0  0  0  0  0  0  0  0  0
   58.3500   27.9200   45.9330 C   0  0  0  0  0  0  0  0  0  0  0  0
   58.2278   28.6133   45.0878 H   0  0  0  0  0  0  0  0  0  0  0  0
   60.4180   30.0950   46.4900 C   0  0  0  0  0  0  0  0  0  0  0  0
   60.6753   29.5735   45.5563 H   0  0  0  0  0  0  0  0  0  0  0  0
   60.9300   31.3710   46.7370 C   0  0  0  0  0  0  0  0  0  0  0  0
   61.5858   31.8509   45.9956 H   0  0  0  0  0  0  0  0  0  0  0  0
   58.8980   34.1910   44.9440 C   0  0  0  0  0  0  0  0  0  0  0  0
   59.4627   35.0977   44.6811 H   0  0  0  0  0  0  0  0  0  0  0  0
   58.5130   33.2930   43.9420 C   0  0  0  0  0  0  0  0  0  0  0  0
   58.7941   33.4867   42.8963 H   0  0  0  0  0  0  0  0  0  0  0  0
  1  2  1  0
  2  3  1  0
  3  4  2  0
  4  5  1  0
  4  6  1  0
  6  7  1  0
  6  8  2  0
  8  9  1  0
  9 10  1  0
  9 11  2  0
 11 12  1  0
 11 13  1  0
 13 14  2  0
 13 15  1  0
 15 16  2  0
 16 17  1  0
 16 18  1  0
 18 19  1  0
 18 20  2  0
 20 21  1  0
 21 22  1  0
 22 23  1  0
 22 24  2  0
 24 25  1  0
 24 26  1  0
 26 27  1  0
 27 28  2  0
 27 29  1  0
 29 30  2  0
 30 31  1  0
 30 32  1  0
 32 33  1  0
 32 34  2  0
 34 35  1  0
 34 36  1  0
 36 37  1  0
 36 38  2  0
 38 39  1  0
 26 40  2  0
 40 41  1  0
 20 42  1  0
 42 43  1  0
 42 44  2  0
 44 45  1  0
  8 46  1  0
 46 47  1  0
 46 48  2  0
 48 49  1  0
 48  3  1  0
 44 15  1  0
 40 21  1  0
 38 29  1  0
M  CHG  3  25  -1  35  -1  39  -1
M  END
>  <UniqueID>  (18) 
18

>  <SMILES>  (18) 
O=C(/C=C\c1ccc(O)cc1)c1ccc(-n2cc([O-])c(C(=O)c3ccc([O-])cc3[O-])c2)cc1

>  <Energy>  (18) 
101.12577328051712

>  <Genealogy>  (18) 
O=C(C=Cc1ccc(O)cc1)c1ccc(-n2cc([O-])c(C(=O)c3ccc([O-])cc3[O-])c2)cc1 (protonated)
O=C(/C=C\c1ccc(O)cc1)c1ccc(-n2cc([O-])c(C(=O)c3ccc([O-])cc3[O-])c2)cc1 (cis-trans isomerization)
O=C(/C=C\c1ccc(O)cc1)c1ccc(-n2cc([O-])c(C(=O)c3ccc([O-])cc3[O-])c2)cc1 (3D coordinates assigned)
O=C(/C=C\c1ccc(O)cc1)c1ccc(-n2cc([O-])c(C(=O)c3ccc([O-])cc3[O-])c2)cc1 (optimized conformer: 101.12577328051712 kcal/mol)

>  <smiles>  (18) 
O=C(C=Cc1ccc(O)cc1)c1ccc(-n2cc(O)c(C(=O)c3ccc(O)cc3O)c2)cc1

>  <score_type>  (18) 
oracle

>  <origin>  (18) 
adg

>  <m_score__min__energy>  (18) 
-17.170000000000002

>  <m_primary>  (18) 
energy

$$$$
18:0
     RDKit          3D

 39 40  0  0  0  0  0  0  0  0999 V2000
   55.7180   30.8240   45.2310 H   0  0  0  0  0  0  0  0  0  0  0  0
   56.1630   31.6410   44.8300 O   0  0  0  0  0  0  0  0  0  0  0  0
   57.3860   32.1110   45.3030 C   0  0  0  0  0  0  0  0  0  0  0  0
   57.7460   33.4430   45.0810 C   0  0  0  0  0  0  0  0  0  0  0  0
   57.0699   34.1086   44.5244 H   0  0  0  0  0  0  0  0  0  0  0  0
   58.9620   33.9310   45.5640 C   0  0  0  0  0  0  0  0  0  0  0  0
   59.2378   34.9825   45.3957 H   0  0  0  0  0  0  0  0  0  0  0  0
   57.6730   28.3230   45.9070 C   0  0  0  0  0  0  0  0  0  0  0  0
   58.0430   29.3156   45.6105 H   0  0  0  0  0  0  0  0  0  0  0  0
   59.4960   31.7370   46.4680 C   0  0  0  0  0  0  0  0  0  0  0  0
   60.4360   30.8820   47.2320 C   0  0  0  0  0  0  0  0  0  0  0  0
   61.5082   30.9916   47.0120 H   0  0  0  0  0  0  0  0  0  0  0  0
   60.0890   29.9830   48.1720 C   0  0  0  0  0  0  0  0  0  0  0  0
   60.2820   28.5200   48.0120 C   0  0  0  0  0  0  0  0  0  0  0  0
   60.7920   27.7320   49.1540 C   0  0  0  0  0  0  0  0  0  0  0  0
   61.6023   27.0057   48.9931 H   0  0  0  0  0  0  0  0  0  0  0  0
   60.3110   27.8810   50.3100 O   0  0  0  0  0  0  0  0  0  0  0  0
   59.9080   27.8650   46.8940 C   0  0  0  0  0  0  0  0  0  0  0  0
   60.6912   27.6330   46.1573 H   0  0  0  0  0  0  0  0  0  0  0  0
   58.5260   27.4330   46.5790 C   0  0  0  0  0  0  0  0  0  0  0  0
   58.0230   26.1850   46.9940 C   0  0  0  0  0  0  0  0  0  0  0  0
   58.6697   25.4931   47.5534 H   0  0  0  0  0  0  0  0  0  0  0  0
   56.7070   25.8210   46.6990 C   0  0  0  0  0  0  0  0  0  0  0  0
   56.3254   24.8386   47.0141 H   0  0  0  0  0  0  0  0  0  0  0  0
   55.8740   26.7030   46.0040 C   0  0  0  0  0  0  0  0  0  0  0  0
   54.5660   26.3320   45.7110 O   0  0  0  0  0  0  0  0  0  0  0  0
   56.3560   27.9560   45.6120 C   0  0  0  0  0  0  0  0  0  0  0  0
   55.5300   28.8410   44.9290 O   0  0  0  0  0  0  0  0  0  0  0  0
   59.8290   33.0850   46.2610 C   0  0  0  0  0  0  0  0  0  0  0  0
   60.7796   33.4784   46.6504 H   0  0  0  0  0  0  0  0  0  0  0  0
   59.5210   30.5710   49.7290 S   0  0  0  0  0  0  0  0  0  0  0  0
   58.1680   29.7160   50.2400 O   0  0  0  0  0  0  0  0  0  0  0  0
   58.5350   28.9770   50.7870 H   0  0  0  0  0  0  0  0  0  0  0  0
   59.2130   32.3210   49.7030 C   0  0  0  0  0  0  0  0  0  0  0  0
   59.1468   32.6970   50.7346 H   0  0  0  0  0  0  0  0  0  0  0  0
   60.0353   32.8303   49.1791 H   0  0  0  0  0  0  0  0  0  0  0  0
   58.2662   32.5189   49.1791 H   0  0  0  0  0  0  0  0  0  0  0  0
   58.2550   31.2610   46.0020 C   0  0  0  0  0  0  0  0  0  0  0  0
   57.9657   30.2161   46.1875 H   0  0  0  0  0  0  0  0  0  0  0  0
  1  2  1  0
  2  3  1  0
  3  4  2  0
  4  5  1  0
  4  6  1  0
  6  7  1  0
  6  8  2  0
  8  9  1  0
  8 10  1  0
 10 11  1  0
 11 12  1  0
 11 13  2  0
 13 14  1  0
 14 15  1  0
 15 16  1  0
 15 17  2  0
 14 18  2  0
 18 19  1  0
 18 20  1  0
 20 21  2  0
 21 22  1  0
 21 23  1  0
 23 24  1  0
 23 25  2  0
 25 26  1  0
 25 27  1  0
 27 28  1  0
 27 29  2  0
 29 30  1  0
 13 31  1  0
 31 32  1  6
 32 33  1  0
 31 34  1  0
 34 35  1  0
 34 36  1  0
 34 37  1  0
 10 38  2  0
 38 39  1  0
 38  3  1  0
 29 20  1  0
M  CHG  3  26  -1  28  -1  31   1
M  END
>  <UniqueID>  (19) 
19

>  <SMILES>  (19) 
C[S@@+](O)C(=C/c1cccc(O)c1)/C(C=O)=C\c1ccc([O-])c([O-])c1

>  <Energy>  (19) 
49.23188519901076

>  <Genealogy>  (19) 
C[S+](O)C(=Cc1cccc(O)c1)C(C=O)=Cc1ccc([O-])c([O-])c1 (protonated)
C[S@@+](O)C(=Cc1cccc(O)c1)C(C=O)=Cc1ccc([O-])c([O-])c1 (chirality)
C[S@@+](O)C(=C/c1cccc(O)c1)/C(C=O)=C\c1ccc([O-])c([O-])c1 (cis-trans isomerization)
C[S@@+](O)C(=C/c1cccc(O)c1)/C(C=O)=C\c1ccc([O-])c([O-])c1 (3D coordinates assigned)
C[S@@+](O)C(=C/c1cccc(O)c1)/C(C=O)=C\c1ccc([O-])c([O-])c1 (optimized conformer: 49.23188519901076 kcal/mol)

>  <smiles>  (19) 
C[S+]([O-])C(=Cc1cccc(O)c1)C(C=O)=Cc1ccc(O)c(O)c1

>  <score_type>  (19) 
oracle

>  <origin>  (19) 
adg

>  <m_score__min__energy>  (19) 
-12.779999999999999

>  <m_primary>  (19) 
energy

$$$$
19:0
     RDKit          3D

 31 33  0  0  0  0  0  0  0  0999 V2000
   57.2110   27.9640   45.1180 O   0  0  0  0  0  0  0  0  0  0  0  0
   56.5700   29.0360   44.9610 C   0  0  0  0  0  0  0  0  0  0  0  0
   55.1830   28.9860   44.8740 O   0  0  0  0  0  0  0  0  0  0  0  0
   57.2800   30.3320   44.8690 C   0  0  0  0  0  0  0  0  0  0  0  0
   57.0050   31.2150   43.8170 C   0  0  0  0  0  0  0  0  0  0  0  0
   57.6650   32.4420   43.7350 C   0  0  0  0  0  0  0  0  0  0  0  0
   58.6290   32.8050   44.6820 C   0  0  0  0  0  0  0  0  0  0  0  0
   58.9160   31.9190   45.7540 C   0  0  0  0  0  0  0  0  0  0  0  0
   58.2270   30.7010   45.8380 C   0  0  0  0  0  0  0  0  0  0  0  0
   59.8100   32.2430   46.8320 N   0  0  0  0  0  0  0  0  0  0  0  0
   60.0740   33.4210   47.3200 C   0  0  0  0  0  0  0  0  0  0  0  0
   61.2520   33.5670   48.2090 C   0  0  0  0  0  0  0  0  0  0  0  0
   62.5600   33.3780   47.7230 C   0  0  0  0  0  0  0  0  0  0  0  0
   63.6580   33.5110   48.5790 C   0  0  0  0  0  0  0  0  0  0  0  0
   63.4640   33.8250   49.9270 C   0  0  0  0  0  0  0  0  0  0  0  0
   64.5580   33.9570   50.7740 O   0  0  0  0  0  0  0  0  0  0  0  0
   62.1710   34.0020   50.4220 C   0  0  0  0  0  0  0  0  0  0  0  0
   61.0690   33.8690   49.5710 C   0  0  0  0  0  0  0  0  0  0  0  0
   59.2240   34.6080   46.9640 C   0  0  0  0  0  0  0  0  0  0  0  0
   59.4330   34.9530   45.5280 C   0  0  0  0  0  0  0  0  0  0  0  0
   59.2090   34.1150   44.5640 N   0  0  0  0  0  0  0  0  0  0  0  0
   56.2648   30.9398   43.0513 H   0  0  0  0  0  0  0  0  0  0  0  0
   57.4239   33.1335   42.9142 H   0  0  0  0  0  0  0  0  0  0  0  0
   58.4320   30.0217   46.6786 H   0  0  0  0  0  0  0  0  0  0  0  0
   62.7190   33.1244   46.6645 H   0  0  0  0  0  0  0  0  0  0  0  0
   64.6770   33.3681   48.1902 H   0  0  0  0  0  0  0  0  0  0  0  0
   62.0184   34.2466   51.4835 H   0  0  0  0  0  0  0  0  0  0  0  0
   60.0522   34.0014   49.9693 H   0  0  0  0  0  0  0  0  0  0  0  0
   58.1646   34.3648   47.1328 H   0  0  0  0  0  0  0  0  0  0  0  0
   59.5068   35.4649   47.5931 H   0  0  0  0  0  0  0  0  0  0  0  0
   59.7926   35.9615   45.2759 H   0  0  0  0  0  0  0  0  0  0  0  0
  1  2  2  0
  2  3  1  0
  2  4  1  0
  4  5  2  0
  5  6  1  0
  6  7  2  0
  7  8  1  0
  8  9  2  0
  8 10  1  0
 10 11  2  0
 11 12  1  0
 12 13  2  0
 13 14  1  0
 14 15  2  0
 15 16  1  0
 15 17  1  0
 17 18  2  0
 11 19  1  0
 19 20  1  0
 20 21  2  0
  9  4  1  0
 18 12  1  0
 21  7  1  0
  5 22  1  0
  6 23  1  0
  9 24  1  0
 13 25  1  0
 14 26  1  0
 17 27  1  0
 18 28  1  0
 19 29  1  0
 19 30  1  0
 20 31  1  0
M  CHG  2   3  -1  16  -1
M  END
>  <UniqueID>  (20) 
20

>  <SMILES>  (20) 
O=C([O-])c1ccc2c(c1)N=C(c1ccc([O-])cc1)CC=N2

>  <Energy>  (20) 
49.26247904066182

>  <Genealogy>  (20) 
O=C([O-])c1ccc2c(c1)N=C(c1ccc([O-])cc1)CC=N2 (protonated)
O=C([O-])c1ccc2c(c1)N=C(c1ccc([O-])cc1)CC=N2 (3D coordinates assigned)
O=C([O-])c1ccc2c(c1)N=C(c1ccc([O-])cc1)CC=N2 (nonaromatic ring conformer: 49.26247904066182 kcal/mol)

>  <smiles>  (20) 
O=C(O)c1ccc2c(c1)N=C(c1ccc(O)cc1)CC=N2

>  <score_type>  (20) 
oracle

>  <origin>  (20) 
adg

>  <m_score__min__energy>  (20) 
-8.75

>  <m_primary>  (20) 
energy

$$$$
20:0
     RDKit          3D

 55 57  0  0  0  0  0  0  0  0999 V2000
   56.7130   24.0940   42.9960 C   0  0  0  0  0  0  0  0  0  0  0  0
   55.5110   23.1570   43.0070 C   0  0  0  0  0  0  0  0  0  0  0  0
   55.9350   21.7970   43.0750 O   0  0  0  0  0  0  0  0  0  0  0  0
   56.6280   21.2610   44.1670 C   0  0  0  0  0  0  0  0  0  0  0  0
   56.0400   20.5370   45.0150 O   0  0  0  0  0  0  0  0  0  0  0  0
   58.0750   21.5900   44.3460 C   0  0  0  0  0  0  0  0  0  0  0  0
   58.2790   22.4570   45.5940 C   0  0  0  0  0  0  0  0  0  0  0  0
   56.9500   22.9860   46.1570 C   0  0  0  0  0  0  0  0  0  0  0  0
   56.8140   24.4350   45.9280 N   0  0  0  0  0  0  0  0  0  0  0  0
   57.9290   25.1570   45.6070 C   0  0  0  0  0  0  0  0  0  0  0  0
   57.8750   26.5500   45.4820 C   0  0  0  0  0  0  0  0  0  0  0  0
   59.1400   27.3280   45.2070 C   0  0  0  0  0  0  0  0  0  0  0  0
   59.2890   28.4490   46.2030 C   0  0  0  0  0  0  0  0  0  0  0  0
   59.8000   29.6920   45.8060 C   0  0  0  0  0  0  0  0  0  0  0  0
   59.8910   30.7380   46.7270 C   0  0  0  0  0  0  0  0  0  0  0  0
   59.4690   30.5340   48.0430 C   0  0  0  0  0  0  0  0  0  0  0  0
   59.5650   31.5810   48.9680 O   0  0  0  0  0  0  0  0  0  0  0  0
   58.6780   32.6990   48.9860 C   0  0  0  0  0  0  0  0  0  0  0  0
   58.6260   33.3560   47.6330 C   0  0  0  0  0  0  0  0  0  0  0  0
   57.5370   33.1170   46.7770 C   0  0  0  0  0  0  0  0  0  0  0  0
   57.4770   33.7360   45.5230 C   0  0  0  0  0  0  0  0  0  0  0  0
   58.4950   34.6090   45.1240 C   0  0  0  0  0  0  0  0  0  0  0  0
   59.5780   34.8590   45.9740 C   0  0  0  0  0  0  0  0  0  0  0  0
   59.6470   34.2320   47.2220 C   0  0  0  0  0  0  0  0  0  0  0  0
   58.9730   29.3200   48.4090 N   0  0  0  0  0  0  0  0  0  0  0  0
   58.8680   28.2890   47.5310 C   0  0  0  0  0  0  0  0  0  0  0  0
   56.6370   27.1770   45.6780 C   0  0  0  0  0  0  0  0  0  0  0  0
   56.5240   28.4290   45.5990 O   0  0  0  0  0  0  0  0  0  0  0  0
   55.5420   26.4300   45.9650 N   0  0  0  0  0  0  0  0  0  0  0  0
   55.6150   25.0800   46.0930 C   0  0  0  0  0  0  0  0  0  0  0  0
   54.5680   24.4380   46.3770 O   0  0  0  0  0  0  0  0  0  0  0  0
   57.0081   24.3240   44.0304 H   0  0  0  0  0  0  0  0  0  0  0  0
   57.5514   23.6088   42.4748 H   0  0  0  0  0  0  0  0  0  0  0  0
   56.4470   25.0255   42.4748 H   0  0  0  0  0  0  0  0  0  0  0  0
   54.8836   23.3842   43.8815 H   0  0  0  0  0  0  0  0  0  0  0  0
   54.9385   23.3039   42.0793 H   0  0  0  0  0  0  0  0  0  0  0  0
   58.6473   20.6571   44.4560 H   0  0  0  0  0  0  0  0  0  0  0  0
   58.4243   22.1479   43.4647 H   0  0  0  0  0  0  0  0  0  0  0  0
   58.7761   21.8531   46.3675 H   0  0  0  0  0  0  0  0  0  0  0  0
   58.8928   23.3234   45.3067 H   0  0  0  0  0  0  0  0  0  0  0  0
   56.1176   22.4647   45.6617 H   0  0  0  0  0  0  0  0  0  0  0  0
   56.9327   22.8014   47.2413 H   0  0  0  0  0  0  0  0  0  0  0  0
   58.8837   24.6353   45.4443 H   0  0  0  0  0  0  0  0  0  0  0  0
   60.0056   26.6539   45.2866 H   0  0  0  0  0  0  0  0  0  0  0  0
   59.0866   27.7531   44.1938 H   0  0  0  0  0  0  0  0  0  0  0  0
   60.1299   29.8441   44.7677 H   0  0  0  0  0  0  0  0  0  0  0  0
   60.2918   31.7148   46.4186 H   0  0  0  0  0  0  0  0  0  0  0  0
   57.6695   32.3559   49.2602 H   0  0  0  0  0  0  0  0  0  0  0  0
   59.0443   33.4304   49.7214 H   0  0  0  0  0  0  0  0  0  0  0  0
   56.7290   32.4411   47.0937 H   0  0  0  0  0  0  0  0  0  0  0  0
   56.6293   33.5361   44.8511 H   0  0  0  0  0  0  0  0  0  0  0  0
   58.4439   35.0995   44.1407 H   0  0  0  0  0  0  0  0  0  0  0  0
   60.3753   35.5489   45.6604 H   0  0  0  0  0  0  0  0  0  0  0  0
   60.5033   34.4246   47.8851 H   0  0  0  0  0  0  0  0  0  0  0  0
   58.4517   27.3263   47.8624 H   0  0  0  0  0  0  0  0  0  0  0  0
  1  2  1  0
  2  3  1  0
  3  4  1  0
  4  5  2  0
  4  6  1  0
  6  7  1  0
  7  8  1  0
  8  9  1  0
  9 10  1  0
 10 11  2  0
 11 12  1  0
 12 13  1  0
 13 14  2  0
 14 15  1  0
 15 16  2  0
 16 17  1  0
 17 18  1  0
 18 19  1  0
 19 20  2  0
 20 21  1  0
 21 22  2  0
 22 23  1  0
 23 24  2  0
 16 25  1  0
 25 26  2  0
 11 27  1  0
 27 28  2  0
 27 29  1  0
 29 30  1  0
 30 31  2  0
 30  9  1  0
 26 13  1  0
 24 19  1  0
  1 32  1  0
  1 33  1  0
  1 34  1  0
  2 35  1  0
  2 36  1  0
  6 37  1  0
  6 38  1  0
  7 39  1  0
  7 40  1  0
  8 41  1  0
  8 42  1  0
 10 43  1  0
 12 44  1  0
 12 45  1  0
 14 46  1  0
 15 47  1  0
 18 48  1  0
 18 49  1  0
 20 50  1  0
 21 51  1  0
 22 52  1  0
 23 53  1  0
 24 54  1  0
 26 55  1  0
M  CHG  1  29  -1
M  END
>  <UniqueID>  (21) 
21

>  <SMILES>  (21) 
CCOC(=O)CCCn1cc(Cc2ccc(OCc3ccccc3)nc2)c(=O)[n-]c1=O

>  <Energy>  (21) 
46.211078338752515

>  <Genealogy>  (21) 
CCOC(=O)CCCn1cc(Cc2ccc(OCc3ccccc3)nc2)c(=O)[n-]c1=O (protonated)
CCOC(=O)CCCn1cc(Cc2ccc(OCc3ccccc3)nc2)c(=O)[n-]c1=O (3D coordinates assigned)
CCOC(=O)CCCn1cc(Cc2ccc(OCc3ccccc3)nc2)c(=O)[n-]c1=O (optimized conformer: 46.211078338752515 kcal/mol)

>  <smiles>  (21) 
CCOC(=O)CCCn1cc(Cc2ccc(OCc3ccccc3)nc2)c(=O)[nH]c1=O

>  <score_type>  (21) 
oracle

>  <origin>  (21) 
adg

>  <m_score__min__energy>  (21) 
-10.27

>  <m_primary>  (21) 
energy

$$$$
21:0
     RDKit          3D

 47 49  0  0  0  0  0  0  0  0999 V2000
   57.4580   22.9450   46.0320 C   0  0  0  0  0  0  0  0  0  0  0  0
   56.7140   23.5090   47.2320 C   0  0  0  0  0  0  0  0  0  0  0  0
   55.6120   24.3490   46.7750 N   0  0  0  0  0  0  0  0  0  0  0  0
   55.7450   25.6080   46.1000 C   0  0  0  0  0  0  0  0  0  0  0  0
   54.7280   26.3370   45.9730 O   0  0  0  0  0  0  0  0  0  0  0  0
   57.0050   26.0930   45.6170 N   0  0  0  0  0  0  0  0  0  0  0  0
   57.7010   27.2390   46.1200 C   0  0  0  0  0  0  0  0  0  0  0  0
   58.8810   27.0370   46.8430 C   0  0  0  0  0  0  0  0  0  0  0  0
   59.6640   28.1230   47.2340 C   0  0  0  0  0  0  0  0  0  0  0  0
   59.2750   29.4280   46.9070 C   0  0  0  0  0  0  0  0  0  0  0  0
   60.3110   30.7970   47.3220 S   0  0  0  0  0  0  0  0  0  0  0  0
   61.7010   30.5340   46.8130 O   0  0  0  0  0  0  0  0  0  0  0  0
   60.3810   30.9260   48.8180 O   0  0  0  0  0  0  0  0  0  0  0  0
   59.7340   32.3030   46.6470 N   0  0  0  0  0  0  0  0  0  0  0  0
   58.7910   32.9790   47.5360 C   0  0  0  0  0  0  0  0  0  0  0  0
   58.8640   34.4600   47.1960 C   0  0  0  0  0  0  0  0  0  0  0  0
   60.1910   34.6420   46.4740 C   0  0  0  0  0  0  0  0  0  0  0  0
   60.8180   33.2580   46.4260 C   0  0  0  0  0  0  0  0  0  0  0  0
   58.0580   29.6400   46.2480 C   0  0  0  0  0  0  0  0  0  0  0  0
   57.2480   28.5580   45.8790 C   0  0  0  0  0  0  0  0  0  0  0  0
   55.9950   28.8370   45.2360 N   0  0  0  0  0  0  0  0  0  0  0  0
   55.7650   29.8270   44.2250 C   0  0  0  0  0  0  0  0  0  0  0  0
   54.7750   29.6910   43.4600 O   0  0  0  0  0  0  0  0  0  0  0  0
   56.6580   30.9840   44.0280 C   0  0  0  0  0  0  0  0  0  0  0  0
   57.5020   31.2120   42.9550 C   0  0  0  0  0  0  0  0  0  0  0  0
   58.1130   32.4190   43.2120 C   0  0  0  0  0  0  0  0  0  0  0  0
   57.6030   32.8590   44.4150 C   0  0  0  0  0  0  0  0  0  0  0  0
   56.7370   31.9850   44.8740 O   0  0  0  0  0  0  0  0  0  0  0  0
   58.2897   22.3145   46.3794 H   0  0  0  0  0  0  0  0  0  0  0  0
   56.7687   22.3405   45.4242 H   0  0  0  0  0  0  0  0  0  0  0  0
   57.8539   23.7720   45.4242 H   0  0  0  0  0  0  0  0  0  0  0  0
   56.3165   22.6816   47.8381 H   0  0  0  0  0  0  0  0  0  0  0  0
   57.4050   24.1120   47.8394 H   0  0  0  0  0  0  0  0  0  0  0  0
   59.1935   26.0154   47.1049 H   0  0  0  0  0  0  0  0  0  0  0  0
   60.5909   27.9538   47.8016 H   0  0  0  0  0  0  0  0  0  0  0  0
   57.7720   32.6002   47.3682 H   0  0  0  0  0  0  0  0  0  0  0  0
   59.0413   32.8001   48.5921 H   0  0  0  0  0  0  0  0  0  0  0  0
   58.0272   34.7468   46.5421 H   0  0  0  0  0  0  0  0  0  0  0  0
   58.7966   35.0906   48.0948 H   0  0  0  0  0  0  0  0  0  0  0  0
   60.0259   35.0252   45.4562 H   0  0  0  0  0  0  0  0  0  0  0  0
   60.8396   35.3672   46.9871 H   0  0  0  0  0  0  0  0  0  0  0  0
   61.2823   33.0851   45.4439 H   0  0  0  0  0  0  0  0  0  0  0  0
   61.6039   33.1509   47.1882 H   0  0  0  0  0  0  0  0  0  0  0  0
   57.7347   30.6659   46.0178 H   0  0  0  0  0  0  0  0  0  0  0  0
   57.6532   30.5639   42.0792 H   0  0  0  0  0  0  0  0  0  0  0  0
   58.8580   32.9294   42.5839 H   0  0  0  0  0  0  0  0  0  0  0  0
   57.8795   33.7993   44.9144 H   0  0  0  0  0  0  0  0  0  0  0  0
  1  2  1  0
  2  3  1  0
  3  4  1  0
  4  5  2  0
  4  6  1  0
  6  7  1  0
  7  8  2  0
  8  9  1  0
  9 10  2  0
 10 11  1  0
 11 12  2  0
 11 13  2  0
 11 14  1  0
 14 15  1  0
 15 16  1  0
 16 17  1  0
 17 18  1  0
 10 19  1  0
 19 20  2  0
 20 21  1  0
 21 22  1  0
 22 23  2  0
 22 24  1  0
 24 25  2  0
 25 26  1  0
 26 27  2  0
 27 28  1  0
 20  7  1  0
 28 24  1  0
 18 14  1  0
  1 29  1  0
  1 30  1  0
  1 31  1  0
  2 32  1  0
  2 33  1  0
  8 34  1  0
  9 35  1  0
 15 36  1  0
 15 37  1  0
 16 38  1  0
 16 39  1  0
 17 40  1  0
 17 41  1  0
 18 42  1  0
 18 43  1  0
 19 44  1  0
 25 45  1  0
 26 46  1  0
 27 47  1  0
M  CHG  3   3  -1   6  -1  21  -1
M  END
>  <UniqueID>  (22) 
22

>  <SMILES>  (22) 
CC[N-]C(=O)[N-]c1ccc(S(=O)(=O)N2CCCC2)cc1[N-]C(=O)c1ccco1

>  <Energy>  (22) 
83.99037373513613

>  <Genealogy>  (22) 
CC[N-]C(=O)[N-]c1ccc(S(=O)(=O)N2CCCC2)cc1[N-]C(=O)c1ccco1 (protonated)
CC[N-]C(=O)[N-]c1ccc(S(=O)(=O)N2CCCC2)cc1[N-]C(=O)c1ccco1 (3D coordinates assigned)
CC[N-]C(=O)[N-]c1ccc(S(=O)(=O)N2CCCC2)cc1[N-]C(=O)c1ccco1 (nonaromatic ring conformer: 83.99037373513613 kcal/mol)

>  <smiles>  (22) 
CCNC(=O)Nc1ccc(S(=O)(=O)N2CCCC2)cc1NC(=O)c1ccco1

>  <score_type>  (22) 
oracle

>  <origin>  (22) 
adg

>  <m_score__min__energy>  (22) 
-13.880000000000001

>  <m_primary>  (22) 
energy

$$$$
22:0
     RDKit          3D

 56 58  0  0  0  0  0  0  0  0999 V2000
   60.4360   29.3130   48.3200 C   0  0  0  0  0  0  0  0  0  0  0  0
   59.6000   30.4750   47.7970 C   0  0  0  0  0  0  0  0  0  0  0  0
   60.4650   31.6850   47.5350 C   0  0  0  0  0  0  0  0  0  0  0  0
   61.8540   31.5100   47.4030 C   0  0  0  0  0  0  0  0  0  0  0  0
   62.6870   32.5960   47.1050 C   0  0  0  0  0  0  0  0  0  0  0  0
   64.1010   32.4080   46.9940 N   0  0  0  0  0  0  0  0  0  0  0  0
   62.1290   33.8660   46.9210 C   0  0  0  0  0  0  0  0  0  0  0  0
   60.7510   34.0520   47.0420 C   0  0  0  0  0  0  0  0  0  0  0  0
   59.9120   32.9760   47.3570 C   0  0  0  0  0  0  0  0  0  0  0  0
   58.1430   33.2830   47.4960 S   0  0  0  0  0  0  0  0  0  0  0  0
   58.0130   34.2080   45.9250 C   0  0  0  0  0  0  0  0  0  0  0  0
   58.0580   33.2750   44.7530 C   0  0  0  0  0  0  0  0  0  0  0  0
   58.8870   33.4850   43.8280 O   0  0  0  0  0  0  0  0  0  0  0  0
   57.1800   32.1410   44.7040 N   0  0  0  0  0  0  0  0  0  0  0  0
   57.3050   31.0770   43.7110 C   0  0  0  0  0  0  0  0  0  0  0  0
   57.6520   29.7830   44.3920 C   0  0  0  0  0  0  0  0  0  0  0  0
   56.6380   28.9770   44.9280 C   0  0  0  0  0  0  0  0  0  0  0  0
   56.9550   27.7850   45.5860 C   0  0  0  0  0  0  0  0  0  0  0  0
   58.2970   27.3820   45.7250 C   0  0  0  0  0  0  0  0  0  0  0  0
   58.6350   26.1200   46.4230 C   0  0  0  0  0  0  0  0  0  0  0  0
   58.9420   26.1390   47.6470 O   0  0  0  0  0  0  0  0  0  0  0  0
   58.5510   24.8710   45.7250 N   0  0  0  0  0  0  0  0  0  0  0  0
   57.3760   24.3280   45.1020 C   0  0  0  0  0  0  0  0  0  0  0  0
   57.4140   23.8460   43.7800 C   0  0  0  0  0  0  0  0  0  0  0  0
   56.2530   23.3650   43.1690 C   0  0  0  0  0  0  0  0  0  0  0  0
   55.0420   23.3710   43.8660 C   0  0  0  0  0  0  0  0  0  0  0  0
   54.9890   23.8580   45.1750 C   0  0  0  0  0  0  0  0  0  0  0  0
   56.1480   24.3500   45.7970 C   0  0  0  0  0  0  0  0  0  0  0  0
   56.0650   24.8560   47.1360 N   0  0  0  0  0  0  0  0  0  0  0  0
   59.3120   28.1990   45.1920 C   0  0  0  0  0  0  0  0  0  0  0  0
   58.9920   29.3920   44.5370 C   0  0  0  0  0  0  0  0  0  0  0  0
   60.4293   29.3223   49.4199 H   0  0  0  0  0  0  0  0  0  0  0  0
   60.0120   28.3645   47.9588 H   0  0  0  0  0  0  0  0  0  0  0  0
   61.4701   29.4135   47.9588 H   0  0  0  0  0  0  0  0  0  0  0  0
   59.1096   30.1729   46.8599 H   0  0  0  0  0  0  0  0  0  0  0  0
   58.8485   30.7375   48.5561 H   0  0  0  0  0  0  0  0  0  0  0  0
   62.2912   30.5093   47.5352 H   0  0  0  0  0  0  0  0  0  0  0  0
   64.4970   31.6160   46.4350 H   0  0  0  0  0  0  0  0  0  0  0  0
   64.7650   33.0650   47.4640 H   0  0  0  0  0  0  0  0  0  0  0  0
   62.7785   34.7205   46.6802 H   0  0  0  0  0  0  0  0  0  0  0  0
   60.3203   35.0525   46.8886 H   0  0  0  0  0  0  0  0  0  0  0  0
   57.0621   34.7608   45.9096 H   0  0  0  0  0  0  0  0  0  0  0  0
   58.8617   34.9042   45.8544 H   0  0  0  0  0  0  0  0  0  0  0  0
   56.4350   32.0520   45.4290 H   0  0  0  0  0  0  0  0  0  0  0  0
   56.3509   30.9634   43.1755 H   0  0  0  0  0  0  0  0  0  0  0  0
   58.1015   31.3372   42.9983 H   0  0  0  0  0  0  0  0  0  0  0  0
   55.5864   29.2844   44.8302 H   0  0  0  0  0  0  0  0  0  0  0  0
   56.1507   27.1577   45.9979 H   0  0  0  0  0  0  0  0  0  0  0  0
   58.3634   23.8480   43.2245 H   0  0  0  0  0  0  0  0  0  0  0  0
   56.2924   22.9814   42.1388 H   0  0  0  0  0  0  0  0  0  0  0  0
   54.1289   22.9919   43.3837 H   0  0  0  0  0  0  0  0  0  0  0  0
   54.0341   23.8559   45.7211 H   0  0  0  0  0  0  0  0  0  0  0  0
   55.1560   24.8400   47.6550 H   0  0  0  0  0  0  0  0  0  0  0  0
   56.8990   25.2540   47.6230 H   0  0  0  0  0  0  0  0  0  0  0  0
   60.3649   27.8965   45.2916 H   0  0  0  0  0  0  0  0  0  0  0  0
   59.7943   30.0271   44.1334 H   0  0  0  0  0  0  0  0  0  0  0  0
  1  2  1  0
  2  3  1  0
  3  4  2  0
  4  5  1  0
  5  6  1  0
  5  7  2  0
  7  8  1  0
  8  9  2  0
  9 10  1  0
 10 11  1  0
 11 12  1  0
 12 13  2  0
 12 14  1  0
 14 15  1  0
 15 16  1  0
 16 17  2  0
 17 18  1  0
 18 19  2  0
 19 20  1  0
 20 21  2  0
 20 22  1  0
 22 23  1  0
 23 24  2  0
 24 25  1  0
 25 26  2  0
 26 27  1  0
 27 28  2  0
 28 29  1  0
 19 30  1  0
 30 31  2  0
  9  3  1  0
 31 16  1  0
 28 23  1  0
  1 32  1  0
  1 33  1  0
  1 34  1  0
  2 35  1  0
  2 36  1  0
  4 37  1  0
  6 38  1  0
  6 39  1  0
  7 40  1  0
  8 41  1  0
 11 42  1  0
 11 43  1  0
 14 44  1  0
 15 45  1  0
 15 46  1  0
 17 47  1  0
 18 48  1  0
 24 49  1  0
 25 50  1  0
 26 51  1  0
 27 52  1  0
 29 53  1  0
 29 54  1  0
 30 55  1  0
 31 56  1  0
M  CHG  1  22  -1
M  END
>  <UniqueID>  (23) 
23

>  <SMILES>  (23) 
CCc1cc(N)ccc1SCC(=O)NCc1ccc(C(=O)[N-]c2ccccc2N)cc1

>  <Energy>  (23) 
52.837048016155705

>  <Genealogy>  (23) 
CCc1cc(N)ccc1SCC(=O)NCc1ccc(C(=O)[N-]c2ccccc2N)cc1 (protonated)
CCc1cc(N)ccc1SCC(=O)NCc1ccc(C(=O)[N-]c2ccccc2N)cc1 (3D coordinates assigned)
CCc1cc(N)ccc1SCC(=O)NCc1ccc(C(=O)[N-]c2ccccc2N)cc1 (optimized conformer: 52.837048016155705 kcal/mol)

>  <smiles>  (23) 
CCc1cc(N)ccc1SCC(=O)NCc1ccc(C(=O)Nc2ccccc2N)cc1

>  <score_type>  (23) 
oracle

>  <origin>  (23) 
adg

>  <m_score__min__energy>  (23) 
-10.449999999999999

>  <m_primary>  (23) 
energy

$$$$
23:0
     RDKit          3D

 43 45  0  0  0  0  0  0  0  0999 V2000
   59.5020   29.8620   47.1470 C   0  0  0  0  0  0  0  0  0  0  0  0
   58.9350   30.8170   46.3940 C   0  0  0  0  0  0  0  0  0  0  0  0
   58.3000   30.6630   45.1500 C   0  0  0  0  0  0  0  0  0  0  0  0
   57.9540   29.5570   44.4620 C   0  0  0  0  0  0  0  0  0  0  0  0
   57.4200   28.3120   45.0490 C   0  0  0  0  0  0  0  0  0  0  0  0
   56.0420   28.1580   45.2480 C   0  0  0  0  0  0  0  0  0  0  0  0
   55.1540   29.1500   44.8500 O   0  0  0  0  0  0  0  0  0  0  0  0
   55.5620   27.0270   45.8280 N   0  0  0  0  0  0  0  0  0  0  0  0
   56.4000   26.0390   46.2360 C   0  0  0  0  0  0  0  0  0  0  0  0
   55.9330   24.9980   46.7660 O   0  0  0  0  0  0  0  0  0  0  0  0
   57.7410   26.1770   46.0790 N   0  0  0  0  0  0  0  0  0  0  0  0
   58.2710   27.2890   45.5060 C   0  0  0  0  0  0  0  0  0  0  0  0
   59.5220   27.3930   45.3960 O   0  0  0  0  0  0  0  0  0  0  0  0
   58.0390   31.9430   44.6860 C   0  0  0  0  0  0  0  0  0  0  0  0
   58.4610   32.8180   45.6640 C   0  0  0  0  0  0  0  0  0  0  0  0
   58.3630   34.3110   45.5730 C   0  0  0  0  0  0  0  0  0  0  0  0
   59.0090   32.1390   46.6970 N   0  0  0  0  0  0  0  0  0  0  0  0
   59.5780   32.7260   47.8790 C   0  0  0  0  0  0  0  0  0  0  0  0
   58.9280   32.5660   49.1110 C   0  0  0  0  0  0  0  0  0  0  0  0
   59.4630   33.1390   50.2790 C   0  0  0  0  0  0  0  0  0  0  0  0
   58.8470   33.0040   51.5330 O   0  0  0  0  0  0  0  0  0  0  0  0
   57.6390   32.2870   51.7610 C   0  0  0  0  0  0  0  0  0  0  0  0
   60.6510   33.8710   50.1980 C   0  0  0  0  0  0  0  0  0  0  0  0
   61.3060   34.0310   48.9750 C   0  0  0  0  0  0  0  0  0  0  0  0
   60.7780   33.4550   47.8040 C   0  0  0  0  0  0  0  0  0  0  0  0
   61.4170   33.5750   46.5610 O   0  0  0  0  0  0  0  0  0  0  0  0
   62.8160   33.7800   46.3880 C   0  0  0  0  0  0  0  0  0  0  0  0
   59.9679   30.1239   48.1084 H   0  0  0  0  0  0  0  0  0  0  0  0
   59.5009   28.8172   46.8028 H   0  0  0  0  0  0  0  0  0  0  0  0
   58.0803   29.5842   43.3696 H   0  0  0  0  0  0  0  0  0  0  0  0
   57.5823   32.2096   43.7214 H   0  0  0  0  0  0  0  0  0  0  0  0
   58.3349   34.7390   46.5859 H   0  0  0  0  0  0  0  0  0  0  0  0
   59.2373   34.7036   45.0332 H   0  0  0  0  0  0  0  0  0  0  0  0
   57.4449   34.5860   45.0332 H   0  0  0  0  0  0  0  0  0  0  0  0
   57.9933   31.9885   49.1646 H   0  0  0  0  0  0  0  0  0  0  0  0
   57.4706   32.1871   52.8434 H   0  0  0  0  0  0  0  0  0  0  0  0
   56.7979   32.8322   51.3079 H   0  0  0  0  0  0  0  0  0  0  0  0
   57.7147   31.2875   51.3079 H   0  0  0  0  0  0  0  0  0  0  0  0
   61.0740   34.3253   51.1061 H   0  0  0  0  0  0  0  0  0  0  0  0
   62.2398   34.6104   48.9264 H   0  0  0  0  0  0  0  0  0  0  0  0
   63.3007   33.8510   47.3729 H   0  0  0  0  0  0  0  0  0  0  0  0
   63.2440   32.9350   45.8288 H   0  0  0  0  0  0  0  0  0  0  0  0
   62.9836   34.7123   45.8288 H   0  0  0  0  0  0  0  0  0  0  0  0
  1  2  2  0
  2  3  1  0
  3  4  2  3
  4  5  1  0
  5  6  2  0
  6  7  1  0
  6  8  1  0
  8  9  1  0
  9 10  2  0
  9 11  1  0
 11 12  1  0
 12 13  2  0
  3 14  1  0
 14 15  2  0
 15 16  1  0
 15 17  1  0
 17 18  1  0
 18 19  2  0
 19 20  1  0
 20 21  1  0
 21 22  1  0
 20 23  2  0
 23 24  1  0
 24 25  2  0
 25 26  1  0
 26 27  1  0
 17  2  1  0
 25 18  1  0
 12  5  1  0
  1 28  1  0
  1 29  1  0
  4 30  1  0
 14 31  1  0
 16 32  1  0
 16 33  1  0
 16 34  1  0
 19 35  1  0
 22 36  1  0
 22 37  1  0
 22 38  1  0
 23 39  1  0
 24 40  1  0
 27 41  1  0
 27 42  1  0
 27 43  1  0
M  CHG  3   7  -1   8  -1  11  -1
M  END
>  <UniqueID>  (24) 
24

>  <SMILES>  (24) 
C=c1c(=Cc2c([O-])[n-]c(=O)[n-]c2=O)cc(C)n1-c1cc(OC)ccc1OC

>  <Energy>  (24) 
93.06574091037177

>  <Genealogy>  (24) 
C=c1c(=Cc2c([O-])[n-]c(=O)[n-]c2=O)cc(C)n1-c1cc(OC)ccc1OC (protonated)
C=c1c(=Cc2c([O-])[n-]c(=O)[n-]c2=O)cc(C)n1-c1cc(OC)ccc1OC (3D coordinates assigned)
C=c1c(=Cc2c([O-])[n-]c(=O)[n-]c2=O)cc(C)n1-c1cc(OC)ccc1OC (optimized conformer: 93.06574091037177 kcal/mol)

>  <smiles>  (24) 
C=c1c(=Cc2c(O)[nH]c(=O)[nH]c2=O)cc(C)n1-c1cc(OC)ccc1OC

>  <score_type>  (24) 
oracle

>  <origin>  (24) 
adg

>  <m_score__min__energy>  (24) 
-15.039999999999999

>  <m_primary>  (24) 
energy

$$$$
24:0
     RDKit          3D

 52 55  0  0  0  0  0  0  0  0999 V2000
   59.2580   35.2650   48.5520 O   0  0  0  0  0  0  0  0  0  0  0  0
   59.7500   34.2040   48.0810 C   0  0  0  0  0  0  0  0  0  0  0  0
   60.7900   33.5220   48.7990 N   0  0  0  0  0  0  0  0  0  0  0  0
   61.0030   33.7140   50.2300 C   0  0  0  0  0  0  0  0  0  0  0  0
   59.7930   33.2460   50.9910 C   0  0  0  0  0  0  0  0  0  0  0  0
   59.2530   34.0290   52.0250 C   0  0  0  0  0  0  0  0  0  0  0  0
   58.0970   33.6120   52.6920 C   0  0  0  0  0  0  0  0  0  0  0  0
   57.4680   32.4180   52.3270 C   0  0  0  0  0  0  0  0  0  0  0  0
   57.9940   31.6390   51.2930 C   0  0  0  0  0  0  0  0  0  0  0  0
   57.3790   30.4860   50.9330 F   0  0  0  0  0  0  0  0  0  0  0  0
   59.1520   32.0520   50.6250 C   0  0  0  0  0  0  0  0  0  0  0  0
   59.2560   33.6790   46.7890 C   0  0  0  0  0  0  0  0  0  0  0  0
   59.6420   34.2890   45.5830 C   0  0  0  0  0  0  0  0  0  0  0  0
   59.1740   33.8020   44.3580 C   0  0  0  0  0  0  0  0  0  0  0  0
   58.2980   32.7030   44.3210 C   0  0  0  0  0  0  0  0  0  0  0  0
   57.8030   32.1820   43.1110 C   0  0  0  0  0  0  0  0  0  0  0  0
   58.1420   32.6810   42.0030 O   0  0  0  0  0  0  0  0  0  0  0  0
   56.9250   31.0940   43.1320 C   0  0  0  0  0  0  0  0  0  0  0  0
   56.5310   30.5400   44.3610 C   0  0  0  0  0  0  0  0  0  0  0  0
   55.6240   29.3780   44.4120 C   0  0  0  0  0  0  0  0  0  0  0  0
   54.6090   29.3440   43.6670 O   0  0  0  0  0  0  0  0  0  0  0  0
   55.9050   28.2470   45.2450 N   0  0  0  0  0  0  0  0  0  0  0  0
   57.2460   27.8300   45.6460 C   0  0  0  0  0  0  0  0  0  0  0  0
   57.1670   26.7740   46.7540 C   0  0  0  0  0  0  0  0  0  0  0  0
   55.8930   26.0520   46.7130 N   0  0  0  0  0  0  0  0  0  0  0  0
   55.5430   25.1820   45.8140 C   0  0  0  0  0  0  0  0  0  0  0  0
   54.2310   24.8530   45.6820 N   0  0  0  0  0  0  0  0  0  0  0  0
   53.8250   23.9420   44.7600 C   0  0  0  0  0  0  0  0  0  0  0  0
   54.7620   23.3240   43.9340 C   0  0  0  0  0  0  0  0  0  0  0  0
   56.1040   23.6750   44.0740 C   0  0  0  0  0  0  0  0  0  0  0  0
   56.4680   24.5960   45.0040 N   0  0  0  0  0  0  0  0  0  0  0  0
   57.0320   31.0520   45.5160 N   0  0  0  0  0  0  0  0  0  0  0  0
   57.8940   32.1020   45.5330 C   0  0  0  0  0  0  0  0  0  0  0  0
   58.3730   32.5880   46.7530 C   0  0  0  0  0  0  0  0  0  0  0  0
   61.4030   32.8440   48.2940 H   0  0  0  0  0  0  0  0  0  0  0  0
   61.8821   33.1352   50.5495 H   0  0  0  0  0  0  0  0  0  0  0  0
   61.1697   34.7822   50.4329 H   0  0  0  0  0  0  0  0  0  0  0  0
   59.7409   34.9726   52.3106 H   0  0  0  0  0  0  0  0  0  0  0  0
   57.6816   34.2247   53.5057 H   0  0  0  0  0  0  0  0  0  0  0  0
   56.5591   32.0918   52.8537 H   0  0  0  0  0  0  0  0  0  0  0  0
   59.5619   31.4383   49.8093 H   0  0  0  0  0  0  0  0  0  0  0  0
   60.3178   35.1567   45.6026 H   0  0  0  0  0  0  0  0  0  0  0  0
   59.4926   34.2807   43.4202 H   0  0  0  0  0  0  0  0  0  0  0  0
   56.5443   30.6735   42.1895 H   0  0  0  0  0  0  0  0  0  0  0  0
   57.7688   27.4049   44.7765 H   0  0  0  0  0  0  0  0  0  0  0  0
   57.7939   28.7053   46.0251 H   0  0  0  0  0  0  0  0  0  0  0  0
   57.9899   26.0558   46.6236 H   0  0  0  0  0  0  0  0  0  0  0  0
   57.2452   27.2842   47.7254 H   0  0  0  0  0  0  0  0  0  0  0  0
   52.7579   23.6923   44.6654 H   0  0  0  0  0  0  0  0  0  0  0  0
   54.4502   22.5770   43.1892 H   0  0  0  0  0  0  0  0  0  0  0  0
   56.8661   23.2075   43.4332 H   0  0  0  0  0  0  0  0  0  0  0  0
   58.0556   32.1118   47.6924 H   0  0  0  0  0  0  0  0  0  0  0  0
  1  2  2  0
  2  3  1  0
  3  4  1  0
  4  5  1  0
  5  6  2  0
  6  7  1  0
  7  8  2  0
  8  9  1  0
  9 10  1  0
  9 11  2  0
  2 12  1  0
 12 13  2  0
 13 14  1  0
 14 15  2  0
 15 16  1  0
 16 17  2  0
 16 18  1  0
 18 19  2  0
 19 20  1  0
 20 21  2  0
 20 22  1  0
 22 23  1  0
 23 24  1  0
 24 25  1  0
 25 26  2  3
 26 27  1  0
 27 28  2  0
 28 29  1  0
 29 30  2  0
 30 31  1  0
 19 32  1  0
 32 33  1  0
 33 34  2  0
 11  5  1  0
 34 12  1  0
 33 15  1  0
 31 26  1  0
  3 35  1  0
  4 36  1  0
  4 37  1  0
  6 38  1  0
  7 39  1  0
  8 40  1  0
 11 41  1  0
 13 42  1  0
 14 43  1  0
 18 44  1  0
 23 45  1  0
 23 46  1  0
 24 47  1  0
 24 48  1  0
 28 49  1  0
 29 50  1  0
 30 51  1  0
 34 52  1  0
M  CHG  3  22  -1  31  -1  32  -1
M  END
>  <UniqueID>  (25) 
25

>  <SMILES>  (25) 
O=C(NCc1cccc(F)c1)c1ccc2c(=O)cc(C(=O)[N-]CCN=c3nccc[n-]3)[n-]c2c1

>  <Energy>  (25) 
61.84982144339831

>  <Genealogy>  (25) 
O=C(NCc1cccc(F)c1)c1ccc2c(=O)cc(C(=O)[N-]CCN=c3nccc[n-]3)[n-]c2c1 (protonated)
O=C(NCc1cccc(F)c1)c1ccc2c(=O)cc(C(=O)[N-]CCN=c3nccc[n-]3)[n-]c2c1 (3D coordinates assigned)
O=C(NCc1cccc(F)c1)c1ccc2c(=O)cc(C(=O)[N-]CCN=c3nccc[n-]3)[n-]c2c1 (optimized conformer: 61.84982144339831 kcal/mol)

>  <smiles>  (25) 
O=C(NCc1cccc(F)c1)c1ccc2c(=O)cc(C(=O)NCCN=c3nccc[nH]3)[nH]c2c1

>  <score_type>  (25) 
oracle

>  <origin>  (25) 
adg

>  <m_score__min__energy>  (25) 
-14.609999999999999

>  <m_primary>  (25) 
energy

$$$$
25:0
     RDKit          3D

 52 54  0  0  0  0  0  0  0  0999 V2000
   60.6740   31.1810   46.4290 O   0  0  0  0  0  0  0  0  0  0  0  0
   61.0300   30.7510   47.5570 C   0  0  0  0  0  0  0  0  0  0  0  0
   60.3000   31.1300   48.7940 C   0  0  0  0  0  0  0  0  0  0  0  0
   60.6190   32.3280   49.4990 C   0  0  0  0  0  0  0  0  0  0  0  0
   61.6490   33.3270   49.0070 C   0  0  0  0  0  0  0  0  0  0  0  0
   60.9750   34.5740   48.4190 C   0  0  0  0  0  0  0  0  0  0  0  0
   59.9730   34.1830   47.3660 C   0  0  0  0  0  0  0  0  0  0  0  0
   60.3190   34.2320   46.0060 C   0  0  0  0  0  0  0  0  0  0  0  0
   59.3740   33.9070   45.0280 C   0  0  0  0  0  0  0  0  0  0  0  0
   58.0780   33.5390   45.3990 C   0  0  0  0  0  0  0  0  0  0  0  0
   57.7230   33.5000   46.7500 C   0  0  0  0  0  0  0  0  0  0  0  0
   58.6640   33.8250   47.7320 C   0  0  0  0  0  0  0  0  0  0  0  0
   59.9000   32.6560   50.6580 C   0  0  0  0  0  0  0  0  0  0  0  0
   58.8950   31.8260   51.1350 C   0  0  0  0  0  0  0  0  0  0  0  0
   58.5670   30.6490   50.4600 C   0  0  0  0  0  0  0  0  0  0  0  0
   57.5540   29.8350   50.9640 O   0  0  0  0  0  0  0  0  0  0  0  0
   59.2510   30.2920   49.2790 C   0  0  0  0  0  0  0  0  0  0  0  0
   58.8880   28.9890   48.5840 C   0  0  0  0  0  0  0  0  0  0  0  0
   58.5670   29.2200   47.0990 C   0  0  0  0  0  0  0  0  0  0  0  0
   58.3070   27.9040   46.3940 C   0  0  0  0  0  0  0  0  0  0  0  0
   58.5410   26.7190   47.1160 C   0  0  0  0  0  0  0  0  0  0  0  0
   58.3830   25.4700   46.5150 C   0  0  0  0  0  0  0  0  0  0  0  0
   57.9960   25.3830   45.1810 C   0  0  0  0  0  0  0  0  0  0  0  0
   57.7490   26.5440   44.4460 C   0  0  0  0  0  0  0  0  0  0  0  0
   57.8840   27.8150   45.0370 C   0  0  0  0  0  0  0  0  0  0  0  0
   57.5670   29.0330   44.1940 C   0  0  0  0  0  0  0  0  0  0  0  0
   56.3200   29.7180   44.6610 C   0  0  0  0  0  0  0  0  0  0  0  0
   56.2990   30.9690   44.8180 O   0  0  0  0  0  0  0  0  0  0  0  0
   55.1630   28.9780   44.8710 O   0  0  0  0  0  0  0  0  0  0  0  0
   61.8994   30.0809   47.6283 H   0  0  0  0  0  0  0  0  0  0  0  0
   62.2881   33.6283   49.8501 H   0  0  0  0  0  0  0  0  0  0  0  0
   62.2483   32.8497   48.2176 H   0  0  0  0  0  0  0  0  0  0  0  0
   60.4608   35.1210   49.2230 H   0  0  0  0  0  0  0  0  0  0  0  0
   61.7445   35.2117   47.9594 H   0  0  0  0  0  0  0  0  0  0  0  0
   61.3363   34.5269   45.7092 H   0  0  0  0  0  0  0  0  0  0  0  0
   59.6514   33.9411   43.9641 H   0  0  0  0  0  0  0  0  0  0  0  0
   57.3375   33.2801   44.6279 H   0  0  0  0  0  0  0  0  0  0  0  0
   56.7018   33.2132   47.0414 H   0  0  0  0  0  0  0  0  0  0  0  0
   58.3789   33.8004   48.7941 H   0  0  0  0  0  0  0  0  0  0  0  0
   60.1363   33.5853   51.1971 H   0  0  0  0  0  0  0  0  0  0  0  0
   58.3525   32.0979   52.0525 H   0  0  0  0  0  0  0  0  0  0  0  0
   56.5730   30.0780   50.8680 H   0  0  0  0  0  0  0  0  0  0  0  0
   59.7354   28.2922   48.6634 H   0  0  0  0  0  0  0  0  0  0  0  0
   57.9947   28.5719   49.0719 H   0  0  0  0  0  0  0  0  0  0  0  0
   57.6728   29.8555   47.0179 H   0  0  0  0  0  0  0  0  0  0  0  0
   59.4294   29.7104   46.6238 H   0  0  0  0  0  0  0  0  0  0  0  0
   58.8529   26.7784   48.1692 H   0  0  0  0  0  0  0  0  0  0  0  0
   58.5644   24.5536   47.0957 H   0  0  0  0  0  0  0  0  0  0  0  0
   57.8845   24.3977   44.7049 H   0  0  0  0  0  0  0  0  0  0  0  0
   57.4451   26.4649   43.3918 H   0  0  0  0  0  0  0  0  0  0  0  0
   58.4076   29.7397   44.2577 H   0  0  0  0  0  0  0  0  0  0  0  0
   57.4095   28.7018   43.1569 H   0  0  0  0  0  0  0  0  0  0  0  0
  1  2  2  0
  2  3  1  0
  3  4  2  0
  4  5  1  0
  5  6  1  0
  6  7  1  0
  7  8  2  0
  8  9  1  0
  9 10  2  0
 10 11  1  0
 11 12  2  0
  4 13  1  0
 13 14  2  0
 14 15  1  0
 15 16  1  0
 15 17  2  0
 17 18  1  0
 18 19  1  0
 19 20  1  0
 20 21  2  0
 21 22  1  0
 22 23  2  0
 23 24  1  0
 24 25  2  0
 25 26  1  0
 26 27  1  0
 27 28  2  0
 27 29  1  0
 17  3  1  0
 25 20  1  0
 12  7  1  0
  2 30  1  0
  5 31  1  0
  5 32  1  0
  6 33  1  0
  6 34  1  0
  8 35  1  0
  9 36  1  0
 10 37  1  0
 11 38  1  0
 12 39  1  0
 13 40  1  0
 14 41  1  0
 16 42  1  0
 18 43  1  0
 18 44  1  0
 19 45  1  0
 19 46  1  0
 21 47  1  0
 22 48  1  0
 23 49  1  0
 24 50  1  0
 26 51  1  0
 26 52  1  0
M  CHG  1  29  -1
M  END
>  <UniqueID>  (26) 
26

>  <SMILES>  (26) 
O=Cc1c(CCc2ccccc2)ccc(O)c1CCc1ccccc1CC(=O)[O-]

>  <Energy>  (26) 
59.722665946857454

>  <Genealogy>  (26) 
O=Cc1c(CCc2ccccc2)ccc(O)c1CCc1ccccc1CC(=O)[O-] (protonated)
O=Cc1c(CCc2ccccc2)ccc(O)c1CCc1ccccc1CC(=O)[O-] (3D coordinates assigned)
O=Cc1c(CCc2ccccc2)ccc(O)c1CCc1ccccc1CC(=O)[O-] (optimized conformer: 59.722665946857454 kcal/mol)

>  <smiles>  (26) 
O=Cc1c(CCc2ccccc2)ccc(O)c1CCc1ccccc1CC(=O)O

>  <score_type>  (26) 
oracle

>  <origin>  (26) 
adg

>  <m_score__min__energy>  (26) 
-11.529999999999999

>  <m_primary>  (26) 
energy

$$$$
26:0
     RDKit          3D

 78 82  0  0  0  0  0  0  0  0999 V2000
   57.5800   31.8790   42.8570 N   0  0  0  0  0  0  0  0  0  0  0  0
   57.5250   32.4740   44.1970 C   0  0  2  0  0  0  0  0  0  0  0  0
   58.8790   33.1290   44.5670 C   0  0  0  0  0  0  0  0  0  0  0  0
   59.0030   33.6060   45.9990 C   0  0  0  0  0  0  0  0  0  0  0  0
   58.1760   34.4370   46.4650 O   0  0  0  0  0  0  0  0  0  0  0  0
   60.0390   33.0930   46.8600 N   0  0  0  0  0  0  0  0  0  0  0  0
   61.4460   33.3880   46.6440 C   0  0  0  0  0  0  0  0  0  0  0  0
   62.1870   32.7500   47.8090 C   0  0  0  0  0  0  0  0  0  0  0  0
   61.2120   31.7550   48.4310 C   0  0  0  0  0  0  0  0  0  0  0  0
   59.8160   32.2150   48.0050 C   0  0  1  0  0  0  0  0  0  0  0  0
   59.1230   32.9590   49.1250 C   0  0  0  0  0  0  0  0  0  0  0  0
   58.9150   34.1960   49.0110 O   0  0  0  0  0  0  0  0  0  0  0  0
   58.6960   32.3040   50.3280 N   0  0  0  0  0  0  0  0  0  0  0  0
   58.2700   30.9100   50.4620 C   0  0  1  0  0  0  0  0  0  0  0  0
   59.5090   29.9980   50.5870 C   0  0  0  0  0  0  0  0  0  0  0  0
   59.5750   28.9400   49.5110 C   0  0  0  0  0  0  0  0  0  0  0  0
   58.5540   28.8430   48.5520 C   0  0  0  0  0  0  0  0  0  0  0  0
   58.6100   27.8650   47.5570 C   0  0  0  0  0  0  0  0  0  0  0  0
   59.6840   26.9730   47.5150 C   0  0  0  0  0  0  0  0  0  0  0  0
   60.6990   27.0530   48.4740 C   0  0  0  0  0  0  0  0  0  0  0  0
   60.6460   28.0310   49.4710 C   0  0  0  0  0  0  0  0  0  0  0  0
   57.3570   30.7660   51.6580 C   0  0  0  0  0  0  0  0  0  0  0  0
   57.8460   30.8010   52.8190 O   0  0  0  0  0  0  0  0  0  0  0  0
   55.9550   30.5010   51.5160 N   0  0  0  0  0  0  0  0  0  0  0  0
   54.8680   31.3330   52.0270 C   0  0  0  0  0  0  0  0  0  0  0  0
   53.6130   31.1240   51.1820 C   0  0  0  0  0  0  0  0  0  0  0  0
   52.3920   31.6210   51.9050 C   0  0  0  0  0  0  0  0  0  0  0  0
   51.3990   32.4520   51.3990 C   0  0  0  0  0  0  0  0  0  0  0  0
   51.4260   33.0400   50.1430 O   0  0  0  0  0  0  0  0  0  0  0  0
   50.3720   32.6140   52.2660 N   0  0  0  0  0  0  0  0  0  0  0  0
   50.7170   31.8610   53.3270 C   0  0  0  0  0  0  0  0  0  0  0  0
   49.9600   31.6540   54.4810 C   0  0  0  0  0  0  0  0  0  0  0  0
   50.4730   30.7840   55.4610 C   0  0  0  0  0  0  0  0  0  0  0  0
   51.7160   30.1410   55.2690 C   0  0  0  0  0  0  0  0  0  0  0  0
   52.4570   30.3610   54.0940 C   0  0  0  0  0  0  0  0  0  0  0  0
   51.9280   31.2360   53.1430 C   0  0  0  0  0  0  0  0  0  0  0  0
   57.0960   31.4270   45.2500 C   0  0  0  0  0  0  0  0  0  0  0  0
   57.6540   30.0570   44.9400 C   0  0  0  0  0  0  0  0  0  0  0  0
   59.0380   29.8980   44.7620 C   0  0  0  0  0  0  0  0  0  0  0  0
   59.5780   28.6360   44.5040 C   0  0  0  0  0  0  0  0  0  0  0  0
   58.7420   27.5190   44.4280 C   0  0  0  0  0  0  0  0  0  0  0  0
   57.3660   27.6610   44.6120 C   0  0  0  0  0  0  0  0  0  0  0  0
   56.8160   28.9230   44.8690 C   0  0  0  0  0  0  0  0  0  0  0  0
   55.4440   29.0400   45.0580 O   0  0  0  0  0  0  0  0  0  0  0  0
   58.0710   32.5450   42.2190 H   0  0  0  0  0  0  0  0  0  0  0  0
   58.1840   31.0260   42.8890 H   0  0  0  0  0  0  0  0  0  0  0  0
   56.7630   33.2672   44.1888 H   0  0  0  0  0  0  0  0  0  0  0  0
   59.6735   32.3901   44.3860 H   0  0  0  0  0  0  0  0  0  0  0  0
   58.9598   34.0297   43.9407 H   0  0  0  0  0  0  0  0  0  0  0  0
   61.7860   32.9561   45.6912 H   0  0  0  0  0  0  0  0  0  0  0  0
   61.6291   34.4714   46.5924 H   0  0  0  0  0  0  0  0  0  0  0  0
   63.0877   32.2300   47.4507 H   0  0  0  0  0  0  0  0  0  0  0  0
   62.5155   33.5037   48.5397 H   0  0  0  0  0  0  0  0  0  0  0  0
   61.4110   30.7396   48.0576 H   0  0  0  0  0  0  0  0  0  0  0  0
   61.3105   31.7233   49.5261 H   0  0  0  0  0  0  0  0  0  0  0  0
   59.1650   31.3647   47.7534 H   0  0  0  0  0  0  0  0  0  0  0  0
   57.7084   30.6047   49.5668 H   0  0  0  0  0  0  0  0  0  0  0  0
   60.4120   30.6226   50.5201 H   0  0  0  0  0  0  0  0  0  0  0  0
   59.4389   29.4791   51.5544 H   0  0  0  0  0  0  0  0  0  0  0  0
   57.7050   29.5416   48.5848 H   0  0  0  0  0  0  0  0  0  0  0  0
   57.8086   27.7971   46.8065 H   0  0  0  0  0  0  0  0  0  0  0  0
   59.7316   26.2069   46.7270 H   0  0  0  0  0  0  0  0  0  0  0  0
   61.5403   26.3450   48.4435 H   0  0  0  0  0  0  0  0  0  0  0  0
   61.4441   28.0893   50.2258 H   0  0  0  0  0  0  0  0  0  0  0  0
   54.6558   31.0559   53.0702 H   0  0  0  0  0  0  0  0  0  0  0  0
   55.1667   32.3905   51.9770 H   0  0  0  0  0  0  0  0  0  0  0  0
   53.7202   31.6740   50.2354 H   0  0  0  0  0  0  0  0  0  0  0  0
   53.4939   30.0477   50.9888 H   0  0  0  0  0  0  0  0  0  0  0  0
   48.9912   32.1559   54.6204 H   0  0  0  0  0  0  0  0  0  0  0  0
   49.9017   30.6033   56.3835 H   0  0  0  0  0  0  0  0  0  0  0  0
   52.1067   29.4642   56.0431 H   0  0  0  0  0  0  0  0  0  0  0  0
   53.4223   29.8599   53.9295 H   0  0  0  0  0  0  0  0  0  0  0  0
   57.4614   31.7450   46.2376 H   0  0  0  0  0  0  0  0  0  0  0  0
   55.9981   31.3596   45.2372 H   0  0  0  0  0  0  0  0  0  0  0  0
   59.7012   30.7733   44.8262 H   0  0  0  0  0  0  0  0  0  0  0  0
   60.6626   28.5213   44.3605 H   0  0  0  0  0  0  0  0  0  0  0  0
   59.1691   26.5263   44.2228 H   0  0  0  0  0  0  0  0  0  0  0  0
   56.7113   26.7789   44.5550 H   0  0  0  0  0  0  0  0  0  0  0  0
  1  2  1  0
  2  3  1  0
  3  4  1  0
  4  5  2  0
  4  6  1  0
  6  7  1  0
  7  8  1  0
  8  9  1  0
  9 10  1  0
 10 11  1  0
 11 12  2  0
 11 13  1  0
 13 14  1  0
 14 15  1  0
 15 16  1  0
 16 17  2  0
 17 18  1  0
 18 19  2  0
 19 20  1  0
 20 21  2  0
 14 22  1  0
 22 23  2  0
 22 24  1  0
 24 25  1  0
 25 26  1  0
 26 27  1  0
 27 28  2  0
 28 29  1  0
 28 30  1  0
 30 31  1  0
 31 32  2  0
 32 33  1  0
 33 34  2  0
 34 35  1  0
 35 36  2  0
  2 37  1  0
 37 38  1  0
 38 39  2  0
 39 40  1  0
 40 41  2  0
 41 42  1  0
 42 43  2  0
 43 44  1  0
 10  6  1  0
 21 16  1  0
 36 27  1  0
 43 38  1  0
 36 31  1  0
  1 45  1  0
  1 46  1  0
  2 47  1  6
  3 48  1  0
  3 49  1  0
  7 50  1  0
  7 51  1  0
  8 52  1  0
  8 53  1  0
  9 54  1  0
  9 55  1  0
 10 56  1  6
 14 57  1  6
 15 58  1  0
 15 59  1  0
 17 60  1  0
 18 61  1  0
 19 62  1  0
 20 63  1  0
 21 64  1  0
 25 65  1  0
 25 66  1  0
 26 67  1  0
 26 68  1  0
 32 69  1  0
 33 70  1  0
 34 71  1  0
 35 72  1  0
 37 73  1  0
 37 74  1  0
 39 75  1  0
 40 76  1  0
 41 77  1  0
 42 78  1  0
M  CHG  5  13  -1  24  -1  29  -1  30  -1  44  -1
M  END
>  <UniqueID>  (27) 
27

>  <SMILES>  (27) 
N[C@H](CC(=O)N1CCC[C@H]1C(=O)[N-]C(Cc1ccccc1)C(=O)[N-]CCc1c([O-])[n-]c2ccccc12)Cc1ccccc1[O-]

>  <Energy>  (27) 
107.04442250079668

>  <Genealogy>  (27) 
NC(CC(=O)N1CCCC1C(=O)[N-]C(Cc1ccccc1)C(=O)[N-]CCc1c([O-])[n-]c2ccccc12)Cc1ccccc1[O-] (protonated)
N[C@H](CC(=O)N1CCC[C@H]1C(=O)[N-]C(Cc1ccccc1)C(=O)[N-]CCc1c([O-])[n-]c2ccccc12)Cc1ccccc1[O-] (chirality)
N[C@H](CC(=O)N1CCC[C@H]1C(=O)[N-]C(Cc1ccccc1)C(=O)[N-]CCc1c([O-])[n-]c2ccccc12)Cc1ccccc1[O-] (3D coordinates assigned)
N[C@H](CC(=O)N1CCC[C@H]1C(=O)[N-]C(Cc1ccccc1)C(=O)[N-]CCc1c([O-])[n-]c2ccccc12)Cc1ccccc1[O-] (nonaromatic ring conformer: 107.04442250079668 kcal/mol)

>  <smiles>  (27) 
NC(CC(=O)N1CCCC1C(=O)NC(Cc1ccccc1)C(=O)NCCc1c(O)[nH]c2ccccc12)Cc1ccccc1O

>  <score_type>  (27) 
oracle

>  <origin>  (27) 
adg

>  <m_score__min__energy>  (27) 
-22.170000000000002

>  <m_primary>  (27) 
energy

$$$$
27:0
     RDKit          3D

 41 42  0  0  0  0  0  0  0  0999 V2000
   56.5380   25.5950   45.8510 C   0  0  0  0  0  0  0  0  0  0  0  0
   56.3570   26.9410   46.2760 O   0  0  0  0  0  0  0  0  0  0  0  0
   57.1330   28.0240   45.8340 C   0  0  0  0  0  0  0  0  0  0  0  0
   58.5160   28.1140   46.0890 C   0  0  0  0  0  0  0  0  0  0  0  0
   59.2570   29.2120   45.6230 C   0  0  0  0  0  0  0  0  0  0  0  0
   60.7250   29.3240   45.9310 C   0  0  0  0  0  0  0  0  0  0  0  0
   60.9630   30.4430   46.8980 C   0  0  0  0  0  0  0  0  0  0  0  0
   62.0340   31.1060   46.8280 O   0  0  0  0  0  0  0  0  0  0  0  0
   59.9600   30.7840   47.8650 N   0  0  0  0  0  0  0  0  0  0  0  0
   60.1210   31.9010   48.7940 C   0  0  0  0  0  0  0  0  0  0  0  0
   60.2360   33.2120   48.0580 C   0  0  0  0  0  0  0  0  0  0  0  0
   61.1750   34.0000   48.3540 O   0  0  0  0  0  0  0  0  0  0  0  0
   59.2740   33.5920   47.0510 N   0  0  0  0  0  0  0  0  0  0  0  0
   59.5700   34.7360   46.1790 C   0  0  0  0  0  0  0  0  0  0  0  0
   58.7830   34.6230   44.8710 C   0  0  0  0  0  0  0  0  0  0  0  0
   57.4070   34.4200   45.1300 O   0  0  0  0  0  0  0  0  0  0  0  0
   57.2230   33.1680   45.7610 C   0  0  0  0  0  0  0  0  0  0  0  0
   57.8750   33.1550   47.1460 C   0  0  0  0  0  0  0  0  0  0  0  0
   58.6060   30.2340   44.9170 C   0  0  0  0  0  0  0  0  0  0  0  0
   57.2350   30.1500   44.6620 C   0  0  0  0  0  0  0  0  0  0  0  0
   56.5010   29.0520   45.1170 C   0  0  0  0  0  0  0  0  0  0  0  0
   55.1380   28.9810   44.8550 O   0  0  0  0  0  0  0  0  0  0  0  0
   56.6259   24.9412   46.7313 H   0  0  0  0  0  0  0  0  0  0  0  0
   55.6739   25.2820   45.2466 H   0  0  0  0  0  0  0  0  0  0  0  0
   57.4541   25.5214   45.2466 H   0  0  0  0  0  0  0  0  0  0  0  0
   59.0190   27.3179   46.6575 H   0  0  0  0  0  0  0  0  0  0  0  0
   61.0774   28.3801   46.3726 H   0  0  0  0  0  0  0  0  0  0  0  0
   61.2741   29.5290   45.0001 H   0  0  0  0  0  0  0  0  0  0  0  0
   59.0690   30.2390   47.8880 H   0  0  0  0  0  0  0  0  0  0  0  0
   59.2481   31.9403   49.4622 H   0  0  0  0  0  0  0  0  0  0  0  0
   61.0447   31.7436   49.3703 H   0  0  0  0  0  0  0  0  0  0  0  0
   59.2883   35.6668   46.6930 H   0  0  0  0  0  0  0  0  0  0  0  0
   60.6459   34.7433   45.9503 H   0  0  0  0  0  0  0  0  0  0  0  0
   58.9084   35.5505   44.2931 H   0  0  0  0  0  0  0  0  0  0  0  0
   59.1658   33.7632   44.3017 H   0  0  0  0  0  0  0  0  0  0  0  0
   56.1457   32.9731   45.8679 H   0  0  0  0  0  0  0  0  0  0  0  0
   57.6940   32.3895   45.1428 H   0  0  0  0  0  0  0  0  0  0  0  0
   57.3259   33.8361   47.8127 H   0  0  0  0  0  0  0  0  0  0  0  0
   57.8447   32.1315   47.5479 H   0  0  0  0  0  0  0  0  0  0  0  0
   59.1769   31.1049   44.5627 H   0  0  0  0  0  0  0  0  0  0  0  0
   56.7317   30.9512   44.1010 H   0  0  0  0  0  0  0  0  0  0  0  0
  1  2  1  0
  2  3  1  0
  3  4  2  0
  4  5  1  0
  5  6  1  0
  6  7  1  0
  7  8  2  0
  7  9  1  0
  9 10  1  0
 10 11  1  0
 11 12  2  0
 11 13  1  0
 13 14  1  0
 14 15  1  0
 15 16  1  0
 16 17  1  0
 17 18  1  0
  5 19  2  0
 19 20  1  0
 20 21  2  0
 21 22  1  0
 21  3  1  0
 18 13  1  0
  1 23  1  0
  1 24  1  0
  1 25  1  0
  4 26  1  0
  6 27  1  0
  6 28  1  0
  9 29  1  0
 10 30  1  0
 10 31  1  0
 14 32  1  0
 14 33  1  0
 15 34  1  0
 15 35  1  0
 17 36  1  0
 17 37  1  0
 18 38  1  0
 18 39  1  0
 19 40  1  0
 20 41  1  0
M  CHG  1  22  -1
M  END
>  <UniqueID>  (28) 
28

>  <SMILES>  (28) 
COc1cc(CC(=O)NCC(=O)N2CCOCC2)ccc1[O-]

>  <Energy>  (28) 
37.66887803081862

>  <Genealogy>  (28) 
COc1cc(CC(=O)NCC(=O)N2CCOCC2)ccc1[O-] (protonated)
COc1cc(CC(=O)NCC(=O)N2CCOCC2)ccc1[O-] (3D coordinates assigned)
COc1cc(CC(=O)NCC(=O)N2CCOCC2)ccc1[O-] (nonaromatic ring conformer: 37.66887803081862 kcal/mol)

>  <smiles>  (28) 
COc1cc(CC(=O)NCC(=O)N2CCOCC2)ccc1O

>  <score_type>  (28) 
oracle

>  <origin>  (28) 
adg

>  <m_score__min__energy>  (28) 
-10.800000000000001

>  <m_primary>  (28) 
energy

$$$$
28:0
     RDKit          3D

 53 55  0  0  0  0  0  0  0  0999 V2000
   60.7450   29.6530   50.0350 C   0  0  0  0  0  0  0  0  0  0  0  0
   60.1050   29.0390   48.9240 O   0  0  0  0  0  0  0  0  0  0  0  0
   59.9310   29.6880   47.6970 C   0  0  0  0  0  0  0  0  0  0  0  0
   60.6350   30.6960   47.4200 O   0  0  0  0  0  0  0  0  0  0  0  0
   58.8880   29.2200   46.7500 C   0  0  0  0  0  0  0  0  0  0  0  0
   58.2420   30.0630   45.8380 C   0  0  0  0  0  0  0  0  0  0  0  0
   58.5160   31.4480   45.6130 N   0  0  0  0  0  0  0  0  0  0  0  0
   57.5130   32.3410   45.1060 C   0  0  0  0  0  0  0  0  0  0  0  0
   56.3590   31.9090   44.8380 O   0  0  0  0  0  0  0  0  0  0  0  0
   57.8150   33.7660   44.8990 C   0  0  0  0  0  0  0  0  0  0  0  0
   56.9030   34.5550   44.5360 O   0  0  0  0  0  0  0  0  0  0  0  0
   59.1360   34.2530   45.1700 N   0  0  0  0  0  0  0  0  0  0  0  0
   59.8710   34.0990   46.3930 C   0  0  0  0  0  0  0  0  0  0  0  0
   59.3230   34.4460   47.6420 C   0  0  0  0  0  0  0  0  0  0  0  0
   60.0810   34.2990   48.8080 C   0  0  0  0  0  0  0  0  0  0  0  0
   61.3960   33.8210   48.7390 C   0  0  0  0  0  0  0  0  0  0  0  0
   62.3490   33.6050   50.2070 S   0  0  0  0  0  0  0  0  0  0  0  0
   61.4460   33.2430   51.3550 O   0  0  0  0  0  0  0  0  0  0  0  0
   63.0390   34.9000   50.5310 O   0  0  0  0  0  0  0  0  0  0  0  0
   63.5400   32.3500   49.9640 N   0  0  0  0  0  0  0  0  0  0  0  0
   63.8810   31.7240   51.2560 C   0  0  0  0  0  0  0  0  0  0  0  0
   65.2460   31.0200   51.1730 C   0  0  0  0  0  0  0  0  0  0  0  0
   66.3280   31.8830   50.8440 O   0  0  0  0  0  0  0  0  0  0  0  0
   65.9300   33.0730   50.1790 C   0  0  0  0  0  0  0  0  0  0  0  0
   64.7230   32.8710   49.2440 C   0  0  0  0  0  0  0  0  0  0  0  0
   61.9480   33.4910   47.4950 C   0  0  0  0  0  0  0  0  0  0  0  0
   61.1920   33.6400   46.3290 C   0  0  0  0  0  0  0  0  0  0  0  0
   56.9640   29.2500   45.1240 S   0  0  0  0  0  0  0  0  0  0  0  0
   57.2240   27.7830   45.9020 C   0  0  0  0  0  0  0  0  0  0  0  0
   56.3470   26.6090   45.7220 C   0  0  0  0  0  0  0  0  0  0  0  0
   55.1210   26.6990   45.9910 O   0  0  0  0  0  0  0  0  0  0  0  0
   56.8570   25.3880   45.3010 O   0  0  0  0  0  0  0  0  0  0  0  0
   58.3430   27.9090   46.7450 C   0  0  0  0  0  0  0  0  0  0  0  0
   58.9130   26.7620   47.5360 C   0  0  0  0  0  0  0  0  0  0  0  0
   60.3252   29.2503   50.9686 H   0  0  0  0  0  0  0  0  0  0  0  0
   61.8243   29.4438   49.9980 H   0  0  0  0  0  0  0  0  0  0  0  0
   60.5807   30.7400   49.9980 H   0  0  0  0  0  0  0  0  0  0  0  0
   59.3760   31.8480   46.0520 H   0  0  0  0  0  0  0  0  0  0  0  0
   58.2954   34.8340   47.7012 H   0  0  0  0  0  0  0  0  0  0  0  0
   59.6431   34.5596   49.7828 H   0  0  0  0  0  0  0  0  0  0  0  0
   63.9213   32.5003   52.0343 H   0  0  0  0  0  0  0  0  0  0  0  0
   63.1115   30.9776   51.5025 H   0  0  0  0  0  0  0  0  0  0  0  0
   65.4566   30.5595   52.1495 H   0  0  0  0  0  0  0  0  0  0  0  0
   65.1721   30.2818   50.3608 H   0  0  0  0  0  0  0  0  0  0  0  0
   65.6633   33.8244   50.9368 H   0  0  0  0  0  0  0  0  0  0  0  0
   66.7760   33.3974   49.5552 H   0  0  0  0  0  0  0  0  0  0  0  0
   64.4628   33.8374   48.7875 H   0  0  0  0  0  0  0  0  0  0  0  0
   65.0068   32.1315   48.4807 H   0  0  0  0  0  0  0  0  0  0  0  0
   62.9795   33.1135   47.4354 H   0  0  0  0  0  0  0  0  0  0  0  0
   61.6382   33.3948   45.3539 H   0  0  0  0  0  0  0  0  0  0  0  0
   58.8093   26.9706   48.6110 H   0  0  0  0  0  0  0  0  0  0  0  0
   58.3688   25.8389   47.2875 H   0  0  0  0  0  0  0  0  0  0  0  0
   59.9774   26.6383   47.2875 H   0  0  0  0  0  0  0  0  0  0  0  0
  1  2  1  0
  2  3  1  0
  3  4  2  0
  3  5  1  0
  5  6  2  0
  6  7  1  0
  7  8  1  0
  8  9  2  0
  8 10  1  0
 10 11  2  0
 10 12  1  0
 12 13  1  0
 13 14  2  0
 14 15  1  0
 15 16  2  0
 16 17  1  0
 17 18  2  0
 17 19  2  0
 17 20  1  0
 20 21  1  0
 21 22  1  0
 22 23  1  0
 23 24  1  0
 24 25  1  0
 16 26  1  0
 26 27  2  0
  6 28  1  0
 28 29  1  0
 29 30  1  0
 30 31  2  0
 30 32  1  0
 29 33  2  0
 33 34  1  0
 33  5  1  0
 27 13  1  0
 25 20  1  0
  1 35  1  0
  1 36  1  0
  1 37  1  0
  7 38  1  0
 14 39  1  0
 15 40  1  0
 21 41  1  0
 21 42  1  0
 22 43  1  0
 22 44  1  0
 24 45  1  0
 24 46  1  0
 25 47  1  0
 25 48  1  0
 26 49  1  0
 27 50  1  0
 34 51  1  0
 34 52  1  0
 34 53  1  0
M  CHG  2  12  -1  32  -1
M  END
>  <UniqueID>  (29) 
29

>  <SMILES>  (29) 
COC(=O)c1c(NC(=O)C(=O)[N-]c2ccc(S(=O)(=O)N3CCOCC3)cc2)sc(C(=O)[O-])c1C

>  <Energy>  (29) 
104.38496557774525

>  <Genealogy>  (29) 
COC(=O)c1c(NC(=O)C(=O)[N-]c2ccc(S(=O)(=O)N3CCOCC3)cc2)sc(C(=O)[O-])c1C (protonated)
COC(=O)c1c(NC(=O)C(=O)[N-]c2ccc(S(=O)(=O)N3CCOCC3)cc2)sc(C(=O)[O-])c1C (3D coordinates assigned)
COC(=O)c1c(NC(=O)C(=O)[N-]c2ccc(S(=O)(=O)N3CCOCC3)cc2)sc(C(=O)[O-])c1C (nonaromatic ring conformer: 104.38496557774525 kcal/mol)

>  <smiles>  (29) 
COC(=O)c1c(NC(=O)C(=O)Nc2ccc(S(=O)(=O)N3CCOCC3)cc2)sc(C(=O)O)c1C

>  <score_type>  (29) 
oracle

>  <origin>  (29) 
adg

>  <m_score__min__energy>  (29) 
-12.56

>  <m_primary>  (29) 
energy

$$$$
29:0
     RDKit          3D

 26 27  0  0  1  0  0  0  0  0999 V2000
   57.5240   29.3840   44.3880 N   0  0  0  0  0  0  0  0  0  0  0  0
   56.2980   30.0860   44.5080 C   0  0  0  0  0  0  0  0  0  0  0  0
   56.3280   31.4960   44.6640 N   0  0  0  0  0  0  0  0  0  0  0  0
   57.2930   32.1730   45.1290 C   0  0  0  0  0  0  0  0  0  0  0  0
   57.3830   33.5250   44.8850 C   0  0  0  0  0  0  0  0  0  0  0  0
   58.4470   34.1990   45.4120 C   0  0  0  0  0  0  0  0  0  0  0  0
   59.4350   33.5850   46.1780 C   0  0  0  0  0  0  0  0  0  0  0  0
   59.2830   32.2230   46.3860 C   0  0  0  0  0  0  0  0  0  0  0  0
   58.2400   31.5500   45.8710 N   0  0  0  0  0  0  0  0  0  0  0  0
   55.2160   29.3870   44.4590 N   0  0  0  0  0  0  0  0  0  0  0  0
   57.9270   28.4060   45.0990 C   0  0  0  0  0  0  0  0  0  0  0  0
   59.0910   28.5920   45.7870 N   0  0  0  0  0  0  0  0  0  0  0  0
   59.5960   27.6180   46.5650 C   0  0  0  0  0  0  0  0  0  0  0  0
   58.9650   26.3930   46.7050 C   0  0  0  0  0  0  0  0  0  0  0  0
   57.7840   26.2250   45.9990 C   0  0  0  0  0  0  0  0  0  0  0  0
   57.3050   27.2250   45.2260 N   0  0  0  0  0  0  0  0  0  0  0  0
   54.7580   28.9590   45.3010 H   0  0  0  0  0  0  0  0  0  0  0  0
   56.6222   34.0454   44.2848 H   0  0  0  0  0  0  0  0  0  0  0  0
   58.5279   35.2795   45.2224 H   0  0  0  0  0  0  0  0  0  0  0  0
   60.2847   34.1470   46.5929 H   0  0  0  0  0  0  0  0  0  0  0  0
   60.0310   31.6823   46.9845 H   0  0  0  0  0  0  0  0  0  0  0  0
   58.1420   30.5420   46.0330 H   0  0  0  0  0  0  0  0  0  0  0  0
   60.5368   27.7994   47.1054 H   0  0  0  0  0  0  0  0  0  0  0  0
   59.3785   25.5969   47.3417 H   0  0  0  0  0  0  0  0  0  0  0  0
   57.2347   25.2745   46.0681 H   0  0  0  0  0  0  0  0  0  0  0  0
   56.4220   27.0620   44.7150 H   0  0  0  0  0  0  0  0  0  0  0  0
  1  2  2  0
  2  3  1  0
  3  4  2  0
  4  5  1  0
  5  6  2  0
  6  7  1  0
  7  8  2  0
  8  9  1  0
  2 10  1  0
 10 11  2  3
 11 12  1  0
 12 13  2  0
 13 14  1  0
 14 15  2  0
 15 16  1  0
  9  4  1  0
 16 11  1  0
  1 17  1  0
  5 18  1  0
  6 19  1  0
  7 20  1  0
  8 21  1  0
  9 22  1  0
 13 23  1  0
 14 24  1  0
 15 25  1  0
 16 26  1  0
M  END
>  <smiles>  (30) 
N=C(N=c1cccc[nH]1)N=c1nccc[nH]1

>  <score_type>  (30) 
oracle

>  <origin>  (30) 
adg

>  <m_score__min__energy>  (30) 
-5.9900000000000002

>  <m_primary>  (30) 
energy

$$$$
30:0
     RDKit          3D

 59 62  0  0  0  0  0  0  0  0999 V2000
   55.1240   30.0900   43.3830 O   0  0  0  0  0  0  0  0  0  0  0  0
   56.0600   29.6840   44.1220 C   0  0  0  0  0  0  0  0  0  0  0  0
   57.4590   30.1980   43.8870 C   0  0  0  0  0  0  0  0  0  0  0  0
   57.8490   31.2540   44.8920 C   0  0  0  0  0  0  0  0  0  0  0  0
   57.0560   32.3990   45.0680 C   0  0  0  0  0  0  0  0  0  0  0  0
   57.4130   33.3670   46.0120 C   0  0  0  0  0  0  0  0  0  0  0  0
   58.5710   33.2110   46.7880 C   0  0  0  0  0  0  0  0  0  0  0  0
   58.9080   34.1790   47.7330 O   0  0  0  0  0  0  0  0  0  0  0  0
   59.3870   32.0740   46.6080 C   0  0  0  0  0  0  0  0  0  0  0  0
   60.6350   31.8540   47.4320 C   0  0  0  0  0  0  0  0  0  0  0  0
   61.2320   33.1580   47.8020 N   0  0  0  0  0  0  0  0  0  0  0  0
   62.1120   33.0460   48.9830 C   0  0  0  0  0  0  0  0  0  0  0  0
   63.4390   32.3240   48.6490 C   0  0  0  0  0  0  0  0  0  0  0  0
   63.7030   32.2520   47.2580 O   0  0  0  0  0  0  0  0  0  0  0  0
   63.4430   33.5010   46.6530 C   0  0  0  0  0  0  0  0  0  0  0  0
   61.9330   33.8040   46.6670 C   0  0  0  0  0  0  0  0  0  0  0  0
   59.0220   31.1070   45.6560 C   0  0  0  0  0  0  0  0  0  0  0  0
   55.7390   28.8500   45.2450 N   0  0  0  0  0  0  0  0  0  0  0  0
   56.5380   27.7670   45.7320 C   0  0  0  0  0  0  0  0  0  0  0  0
   57.9010   27.9810   45.9670 C   0  0  0  0  0  0  0  0  0  0  0  0
   58.7020   26.9510   46.4810 C   0  0  0  0  0  0  0  0  0  0  0  0
   60.4170   27.2140   46.8000 S   0  0  0  0  0  0  0  0  0  0  0  0
   60.9350   28.3980   46.0220 O   0  0  0  0  0  0  0  0  0  0  0  0
   61.1810   25.9880   46.3830 O   0  0  0  0  0  0  0  0  0  0  0  0
   60.6630   27.4870   48.5010 N   0  0  0  0  0  0  0  0  0  0  0  0
   60.1650   28.6140   49.2380 C   0  0  0  0  0  0  0  0  0  0  0  0
   59.0490   29.3550   48.7980 C   0  0  0  0  0  0  0  0  0  0  0  0
   58.5810   30.4360   49.5500 C   0  0  0  0  0  0  0  0  0  0  0  0
   59.2220   30.7940   50.7400 C   0  0  0  0  0  0  0  0  0  0  0  0
   60.3290   30.0650   51.1840 C   0  0  0  0  0  0  0  0  0  0  0  0
   60.8040   28.9820   50.4360 C   0  0  0  0  0  0  0  0  0  0  0  0
   61.9180   28.2800   50.8790 O   0  0  0  0  0  0  0  0  0  0  0  0
   58.1310   25.7020   46.7660 C   0  0  0  0  0  0  0  0  0  0  0  0
   56.7640   25.4920   46.5600 C   0  0  0  0  0  0  0  0  0  0  0  0
   55.9620   26.5270   46.0640 C   0  0  0  0  0  0  0  0  0  0  0  0
   54.5900   26.3300   45.9430 O   0  0  0  0  0  0  0  0  0  0  0  0
   58.1640   29.3571   43.9636 H   0  0  0  0  0  0  0  0  0  0  0  0
   57.4903   30.6532   42.8861 H   0  0  0  0  0  0  0  0  0  0  0  0
   56.1493   32.5354   44.4603 H   0  0  0  0  0  0  0  0  0  0  0  0
   56.7811   34.2572   46.1470 H   0  0  0  0  0  0  0  0  0  0  0  0
   59.8170   34.1920   48.1810 H   0  0  0  0  0  0  0  0  0  0  0  0
   60.3755   31.2994   48.3458 H   0  0  0  0  0  0  0  0  0  0  0  0
   61.3620   31.2779   46.8408 H   0  0  0  0  0  0  0  0  0  0  0  0
   62.3405   34.0564   49.3530 H   0  0  0  0  0  0  0  0  0  0  0  0
   61.5848   32.4536   49.7453 H   0  0  0  0  0  0  0  0  0  0  0  0
   64.2637   32.8674   49.1333 H   0  0  0  0  0  0  0  0  0  0  0  0
   63.3502   31.2915   49.0178 H   0  0  0  0  0  0  0  0  0  0  0  0
   63.9753   34.2888   47.2061 H   0  0  0  0  0  0  0  0  0  0  0  0
   63.7896   33.4695   45.6095 H   0  0  0  0  0  0  0  0  0  0  0  0
   61.7929   34.8926   46.7401 H   0  0  0  0  0  0  0  0  0  0  0  0
   61.5039   33.4009   45.7378 H   0  0  0  0  0  0  0  0  0  0  0  0
   59.6609   30.2242   45.5060 H   0  0  0  0  0  0  0  0  0  0  0  0
   58.3464   28.9625   45.7473 H   0  0  0  0  0  0  0  0  0  0  0  0
   58.5449   29.0812   47.8594 H   0  0  0  0  0  0  0  0  0  0  0  0
   57.7062   31.0066   49.2049 H   0  0  0  0  0  0  0  0  0  0  0  0
   58.8552   31.6492   51.3267 H   0  0  0  0  0  0  0  0  0  0  0  0
   60.8280   30.3434   52.1239 H   0  0  0  0  0  0  0  0  0  0  0  0
   58.7597   24.8862   47.1523 H   0  0  0  0  0  0  0  0  0  0  0  0
   56.3182   24.5126   46.7879 H   0  0  0  0  0  0  0  0  0  0  0  0
  1  2  2  0
  2  3  1  0
  3  4  1  0
  4  5  2  0
  5  6  1  0
  6  7  2  0
  7  8  1  0
  7  9  1  0
  9 10  1  0
 10 11  1  0
 11 12  1  0
 12 13  1  0
 13 14  1  0
 14 15  1  0
 15 16  1  0
  9 17  2  0
  2 18  1  0
 18 19  1  0
 19 20  2  0
 20 21  1  0
 21 22  1  0
 22 23  2  0
 22 24  2  0
 22 25  1  0
 25 26  1  0
 26 27  2  0
 27 28  1  0
 28 29  2  0
 29 30  1  0
 30 31  2  0
 31 32  1  0
 21 33  2  0
 33 34  1  0
 34 35  2  0
 35 36  1  0
 17  4  1  0
 35 19  1  0
 16 11  1  0
 31 26  1  0
  3 37  1  0
  3 38  1  0
  5 39  1  0
  6 40  1  0
  8 41  1  0
 10 42  1  0
 10 43  1  0
 12 44  1  0
 12 45  1  0
 13 46  1  0
 13 47  1  0
 15 48  1  0
 15 49  1  0
 16 50  1  0
 16 51  1  0
 17 52  1  0
 20 53  1  0
 27 54  1  0
 28 55  1  0
 29 56  1  0
 30 57  1  0
 33 58  1  0
 34 59  1  0
M  CHG  4  18  -1  25  -1  32  -1  36  -1
M  END
>  <UniqueID>  (31) 
30

>  <SMILES>  (31) 
O=C(Cc1ccc(O)c(CN2CCOCC2)c1)[N-]c1cc(S(=O)(=O)[N-]c2ccccc2[O-])ccc1[O-]

>  <Energy>  (31) 
84.69744617581277

>  <Genealogy>  (31) 
O=C(Cc1ccc(O)c(CN2CCOCC2)c1)[N-]c1cc(S(=O)(=O)[N-]c2ccccc2[O-])ccc1[O-] (protonated)
O=C(Cc1ccc(O)c(CN2CCOCC2)c1)[N-]c1cc(S(=O)(=O)[N-]c2ccccc2[O-])ccc1[O-] (3D coordinates assigned)
O=C(Cc1ccc(O)c(CN2CCOCC2)c1)[N-]c1cc(S(=O)(=O)[N-]c2ccccc2[O-])ccc1[O-] (nonaromatic ring conformer: 84.69744617581277 kcal/mol)

>  <smiles>  (31) 
O=C(Cc1ccc(O)c(CN2CCOCC2)c1)Nc1cc(S(=O)(=O)Nc2ccccc2O)ccc1O

>  <score_type>  (31) 
oracle

>  <origin>  (31) 
adg

>  <m_score__min__energy>  (31) 
-17.84

>  <m_primary>  (31) 
energy

$$$$
31:0
     RDKit          3D

 47 50  0  0  0  0  0  0  0  0999 V2000
   57.0115   30.1420   43.0641 H   0  0  0  0  0  0  0  0  0  0  0  0
   57.0240   31.1950   43.3820 C   0  0  0  0  0  0  0  0  0  0  0  0
   56.3162   31.9115   42.9397 H   0  0  0  0  0  0  0  0  0  0  0  0
   57.9080   31.6080   44.3150 C   0  0  0  0  0  0  0  0  0  0  0  0
   58.8260   30.7300   44.9790 C   0  0  0  0  0  0  0  0  0  0  0  0
   58.9450   29.4190   44.6200 C   0  0  0  0  0  0  0  0  0  0  0  0
   59.5696   29.1989   43.7417 H   0  0  0  0  0  0  0  0  0  0  0  0
   58.3170   28.2690   45.2960 C   0  0  0  0  0  0  0  0  0  0  0  0
   56.6570   27.9770   45.4130 S   0  0  0  0  0  0  0  0  0  0  0  0
   56.8160   26.4320   46.0650 C   0  0  0  0  0  0  0  0  0  0  0  0
   55.7490   25.5970   46.5310 N   0  0  0  0  0  0  0  0  0  0  0  0
   54.8750   24.8190   45.7060 C   0  0  0  0  0  0  0  0  0  0  0  0
   53.6650   25.1640   45.6080 O   0  0  0  0  0  0  0  0  0  0  0  0
   55.3250   23.5330   45.0590 C   0  0  2  0  0  0  0  0  0  0  0  0
   54.5197   22.7961   45.1948 H   0  0  0  0  0  0  0  0  0  0  0  0
   56.5150   23.0780   45.6620 O   0  0  0  0  0  0  0  0  0  0  0  0
   57.3100   22.5100   44.6420 C   0  0  0  0  0  0  0  0  0  0  0  0
   57.4554   21.4389   44.8459 H   0  0  0  0  0  0  0  0  0  0  0  0
   58.2855   23.0177   44.6162 H   0  0  0  0  0  0  0  0  0  0  0  0
   56.6200   22.6790   43.2980 C   0  0  0  0  0  0  0  0  0  0  0  0
   56.1544   21.7370   42.9726 H   0  0  0  0  0  0  0  0  0  0  0  0
   57.3118   22.9613   42.4907 H   0  0  0  0  0  0  0  0  0  0  0  0
   55.5830   23.7230   43.5740 C   0  0  0  0  0  0  0  0  0  0  0  0
   54.6713   23.5454   42.9847 H   0  0  0  0  0  0  0  0  0  0  0  0
   55.8999   24.7420   43.3074 H   0  0  0  0  0  0  0  0  0  0  0  0
   58.1600   26.1260   46.2040 C   0  0  0  0  0  0  0  0  0  0  0  0
   58.5268   25.1829   46.6353 H   0  0  0  0  0  0  0  0  0  0  0  0
   59.0030   27.1430   45.7380 C   0  0  0  0  0  0  0  0  0  0  0  0
   60.0997   27.0592   45.7231 H   0  0  0  0  0  0  0  0  0  0  0  0
   59.6560   31.3080   45.9840 C   0  0  0  0  0  0  0  0  0  0  0  0
   60.5440   30.6180   46.5550 O   0  0  0  0  0  0  0  0  0  0  0  0
   59.5380   32.6330   46.3120 N   0  0  0  0  0  0  0  0  0  0  0  0
   60.3780   33.1980   47.3400 C   0  0  0  0  0  0  0  0  0  0  0  0
   59.8190   33.6380   48.5520 C   0  0  0  0  0  0  0  0  0  0  0  0
   58.7342   33.5586   48.7157 H   0  0  0  0  0  0  0  0  0  0  0  0
   60.6360   34.1760   49.5500 C   0  0  0  0  0  0  0  0  0  0  0  0
   60.1939   34.5185   50.4972 H   0  0  0  0  0  0  0  0  0  0  0  0
   62.0150   34.2790   49.3450 C   0  0  0  0  0  0  0  0  0  0  0  0
   62.8070   34.7970   50.3160 F   0  0  0  0  0  0  0  0  0  0  0  0
   62.5780   33.8430   48.1410 C   0  0  0  0  0  0  0  0  0  0  0  0
   63.6631   33.9254   47.9805 H   0  0  0  0  0  0  0  0  0  0  0  0
   61.7640   33.3030   47.1420 C   0  0  0  0  0  0  0  0  0  0  0  0
   62.2105   32.9590   46.1974 H   0  0  0  0  0  0  0  0  0  0  0  0
   58.6540   33.4330   45.6510 C   0  0  0  0  0  0  0  0  0  0  0  0
   58.5650   34.6600   45.9350 O   0  0  0  0  0  0  0  0  0  0  0  0
   57.8740   32.9250   44.6670 N   0  0  0  0  0  0  0  0  0  0  0  0
   57.2150   33.5830   44.1860 H   0  0  0  0  0  0  0  0  0  0  0  0
  1  2  1  0
  2  3  1  0
  2  4  2  0
  4  5  1  0
  5  6  2  0
  6  7  1  0
  6  8  1  0
  8  9  1  0
  9 10  1  0
 10 11  1  0
 11 12  1  0
 12 13  2  0
 12 14  1  0
 14 15  1  6
 14 16  1  0
 16 17  1  0
 17 18  1  0
 17 19  1  0
 17 20  1  0
 20 21  1  0
 20 22  1  0
 20 23  1  0
 23 24  1  0
 23 25  1  0
 10 26  2  0
 26 27  1  0
 26 28  1  0
 28 29  1  0
  5 30  1  0
 30 31  2  0
 30 32  1  0
 32 33  1  0
 33 34  2  0
 34 35  1  0
 34 36  1  0
 36 37  1  0
 36 38  2  0
 38 39  1  0
 38 40  1  0
 40 41  1  0
 40 42  2  0
 42 43  1  0
 32 44  1  0
 44 45  2  0
 44 46  1  0
 46 47  1  0
 46  4  1  0
 28  8  2  0
 42 33  1  0
 23 14  1  0
M  CHG  1  11  -1
M  END
>  <UniqueID>  (32) 
31

>  <SMILES>  (32) 
C=c1[nH]c(=O)n(-c2ccc(F)cc2)c(=O)/c1=C\c1ccc([N-]C(=O)[C@H]2CCCO2)s1

>  <Energy>  (32) 
114.26105775019265

>  <Genealogy>  (32) 
C=c1[nH]c(=O)n(-c2ccc(F)cc2)c(=O)c1=Cc1ccc([N-]C(=O)C2CCCO2)s1 (protonated)
C=c1[nH]c(=O)n(-c2ccc(F)cc2)c(=O)c1=Cc1ccc([N-]C(=O)[C@H]2CCCO2)s1 (chirality)
C=c1[nH]c(=O)n(-c2ccc(F)cc2)c(=O)/c1=C\c1ccc([N-]C(=O)[C@H]2CCCO2)s1 (cis-trans isomerization)
C=c1[nH]c(=O)n(-c2ccc(F)cc2)c(=O)/c1=C\c1ccc([N-]C(=O)[C@H]2CCCO2)s1 (3D coordinates assigned)
C=c1[nH]c(=O)n(-c2ccc(F)cc2)c(=O)/c1=C\c1ccc([N-]C(=O)[C@H]2CCCO2)s1 (nonaromatic ring conformer: 114.26105775019265 kcal/mol)

>  <smiles>  (32) 
C=c1[nH]c(=O)n(-c2ccc(F)cc2)c(=O)c1=Cc1ccc(NC(=O)C2CCCO2)s1

>  <score_type>  (32) 
oracle

>  <origin>  (32) 
adg

>  <m_score__min__energy>  (32) 
-11.01

>  <m_primary>  (32) 
energy

$$$$
32:0
     RDKit          3D

 40 42  0  0  0  0  0  0  0  0999 V2000
   57.4070   34.0800   45.9520 C   0  0  0  0  0  0  0  0  0  0  0  0
   58.7890   33.7170   46.2310 N   0  0  0  0  0  0  0  0  0  0  0  0
   59.2110   32.5190   46.6760 C   0  0  0  0  0  0  0  0  0  0  0  0
   60.5830   32.5790   46.8090 C   0  0  0  0  0  0  0  0  0  0  0  0
   61.5060   31.5050   47.3040 C   0  0  0  0  0  0  0  0  0  0  0  0
   60.8360   30.1960   47.3310 N   0  0  0  0  0  0  0  0  0  0  0  0
   60.6920   29.4280   46.0830 C   0  0  0  0  0  0  0  0  0  0  0  0
   59.2390   29.2760   45.7150 C   0  0  0  0  0  0  0  0  0  0  0  0
   58.6350   30.1830   44.8280 C   0  0  0  0  0  0  0  0  0  0  0  0
   57.2720   30.0830   44.5360 C   0  0  0  0  0  0  0  0  0  0  0  0
   56.5010   29.0730   45.1220 C   0  0  0  0  0  0  0  0  0  0  0  0
   55.1450   28.9800   44.8360 O   0  0  0  0  0  0  0  0  0  0  0  0
   57.0970   28.1590   45.9950 C   0  0  0  0  0  0  0  0  0  0  0  0
   58.4600   28.2560   46.2880 C   0  0  0  0  0  0  0  0  0  0  0  0
   60.4880   29.6100   48.6010 C   0  0  0  0  0  0  0  0  0  0  0  0
   61.0380   28.5340   48.9620 O   0  0  0  0  0  0  0  0  0  0  0  0
   59.5260   30.2580   49.5110 C   0  0  0  0  0  0  0  0  0  0  0  0
   59.4890   31.6120   49.7960 C   0  0  0  0  0  0  0  0  0  0  0  0
   58.4240   31.7990   50.6480 C   0  0  0  0  0  0  0  0  0  0  0  0
   57.8670   30.5520   50.8270 C   0  0  0  0  0  0  0  0  0  0  0  0
   56.7570   30.2920   51.6210 O   0  0  0  0  0  0  0  0  0  0  0  0
   58.5250   29.6020   50.1340 N   0  0  0  0  0  0  0  0  0  0  0  0
   60.9340   33.8500   46.3950 C   0  0  0  0  0  0  0  0  0  0  0  0
   59.8210   34.5260   46.0460 N   0  0  0  0  0  0  0  0  0  0  0  0
   56.8667   34.2219   46.8996 H   0  0  0  0  0  0  0  0  0  0  0  0
   57.3832   35.0149   45.3728 H   0  0  0  0  0  0  0  0  0  0  0  0
   56.9269   33.2775   45.3728 H   0  0  0  0  0  0  0  0  0  0  0  0
   58.5758   31.6479   46.8946 H   0  0  0  0  0  0  0  0  0  0  0  0
   62.3789   31.4472   46.6371 H   0  0  0  0  0  0  0  0  0  0  0  0
   61.8156   31.7581   48.3288 H   0  0  0  0  0  0  0  0  0  0  0  0
   61.2164   29.9550   45.2723 H   0  0  0  0  0  0  0  0  0  0  0  0
   61.1253   28.4279   46.2316 H   0  0  0  0  0  0  0  0  0  0  0  0
   59.2380   30.9757   44.3611 H   0  0  0  0  0  0  0  0  0  0  0  0
   56.8045   30.7994   43.8444 H   0  0  0  0  0  0  0  0  0  0  0  0
   56.4924   27.3619   46.4523 H   0  0  0  0  0  0  0  0  0  0  0  0
   58.9257   27.5301   46.9708 H   0  0  0  0  0  0  0  0  0  0  0  0
   60.1741   32.3847   49.4172 H   0  0  0  0  0  0  0  0  0  0  0  0
   58.0878   32.7470   51.0932 H   0  0  0  0  0  0  0  0  0  0  0  0
   55.9790   29.7540   51.2600 H   0  0  0  0  0  0  0  0  0  0  0  0
   61.9591   34.2471   46.3564 H   0  0  0  0  0  0  0  0  0  0  0  0
  1  2  1  0
  2  3  1  0
  3  4  2  0
  4  5  1  0
  5  6  1  0
  6  7  1  0
  7  8  1  0
  8  9  2  0
  9 10  1  0
 10 11  2  0
 11 12  1  0
 11 13  1  0
 13 14  2  0
  6 15  1  0
 15 16  2  0
 15 17  1  0
 17 18  2  0
 18 19  1  0
 19 20  2  0
 20 21  1  0
 20 22  1  0
  4 23  1  0
 23 24  2  0
 24  2  1  0
 14  8  1  0
 22 17  1  0
  1 25  1  0
  1 26  1  0
  1 27  1  0
  3 28  1  0
  5 29  1  0
  5 30  1  0
  7 31  1  0
  7 32  1  0
  9 33  1  0
 10 34  1  0
 13 35  1  0
 14 36  1  0
 18 37  1  0
 19 38  1  0
 21 39  1  0
 23 40  1  0
M  CHG  2  12  -1  22  -1
M  END
>  <UniqueID>  (33) 
32

>  <SMILES>  (33) 
Cn1cc(CN(Cc2ccc([O-])cc2)C(=O)c2ccc(O)[n-]2)cn1

>  <Energy>  (33) 
94.01550251685885

>  <Genealogy>  (33) 
Cn1cc(CN(Cc2ccc([O-])cc2)C(=O)c2ccc(O)[n-]2)cn1 (protonated)
Cn1cc(CN(Cc2ccc([O-])cc2)C(=O)c2ccc(O)[n-]2)cn1 (3D coordinates assigned)
Cn1cc(CN(Cc2ccc([O-])cc2)C(=O)c2ccc(O)[n-]2)cn1 (optimized conformer: 94.01550251685885 kcal/mol)

>  <smiles>  (33) 
Cn1cc(CN(Cc2ccc(O)cc2)C(=O)c2ccc(O)[nH]2)cn1

>  <score_type>  (33) 
oracle

>  <origin>  (33) 
adg

>  <m_score__min__energy>  (33) 
-11.359999999999999

>  <m_primary>  (33) 
energy

$$$$
33:0
     RDKit          3D

 40 42  0  0  0  0  0  0  0  0999 V2000
   55.2950   30.0760   45.6140 H   0  0  0  0  0  0  0  0  0  0  0  0
   55.4630   29.3480   44.9290 O   0  0  0  0  0  0  0  0  0  0  0  0
   56.2030   28.2140   45.2570 C   0  0  0  0  0  0  0  0  0  0  0  0
   55.5640   27.1110   45.7270 N   0  0  0  0  0  0  0  0  0  0  0  0
   56.2490   25.9750   46.0200 C   0  0  0  0  0  0  0  0  0  0  0  0
   55.6360   24.9680   46.4580 O   0  0  0  0  0  0  0  0  0  0  0  0
   57.5920   25.9240   45.8360 N   0  0  0  0  0  0  0  0  0  0  0  0
   58.2780   27.0000   45.3700 C   0  0  0  0  0  0  0  0  0  0  0  0
   59.5240   26.9150   45.2080 O   0  0  0  0  0  0  0  0  0  0  0  0
   57.5990   28.1960   45.0850 C   0  0  0  0  0  0  0  0  0  0  0  0
   58.3310   29.3670   44.5550 C   0  0  0  0  0  0  0  0  0  0  0  0
   58.6877   29.3311   43.5151 H   0  0  0  0  0  0  0  0  0  0  0  0
   58.5840   30.4750   45.2780 C   0  0  0  0  0  0  0  0  0  0  0  0
   57.7810   31.6060   45.3540 C   0  0  0  0  0  0  0  0  0  0  0  0
   56.8327   31.7755   44.8229 H   0  0  0  0  0  0  0  0  0  0  0  0
   58.4050   32.4760   46.2260 C   0  0  0  0  0  0  0  0  0  0  0  0
   57.8650   33.8160   46.6230 C   0  0  0  0  0  0  0  0  0  0  0  0
   57.8356   33.8890   47.7202 H   0  0  0  0  0  0  0  0  0  0  0  0
   58.5145   34.6071   46.2201 H   0  0  0  0  0  0  0  0  0  0  0  0
   56.8484   33.9357   46.2201 H   0  0  0  0  0  0  0  0  0  0  0  0
   59.5410   31.9250   46.7070 N   0  0  0  0  0  0  0  0  0  0  0  0
   60.4420   32.5410   47.6430 C   0  0  0  0  0  0  0  0  0  0  0  0
   61.5970   33.1830   47.1740 C   0  0  0  0  0  0  0  0  0  0  0  0
   61.8126   33.2023   46.0955 H   0  0  0  0  0  0  0  0  0  0  0  0
   62.4750   33.7980   48.0690 C   0  0  0  0  0  0  0  0  0  0  0  0
   63.3795   34.2999   47.6948 H   0  0  0  0  0  0  0  0  0  0  0  0
   62.2050   33.7760   49.4390 C   0  0  0  0  0  0  0  0  0  0  0  0
   63.3080   34.5500   50.5620 Cl  0  0  0  0  0  0  0  0  0  0  0  0
   61.0570   33.1350   49.9170 C   0  0  0  0  0  0  0  0  0  0  0  0
   60.8484   33.1201   50.9969 H   0  0  0  0  0  0  0  0  0  0  0  0
   60.1660   32.5080   49.0220 C   0  0  0  0  0  0  0  0  0  0  0  0
   59.0130   31.8410   49.4630 O   0  0  0  0  0  0  0  0  0  0  0  0
   58.8930   30.4280   49.5850 C   0  0  0  0  0  0  0  0  0  0  0  0
   58.8696   30.1526   50.6497 H   0  0  0  0  0  0  0  0  0  0  0  0
   57.9634   30.0957   49.0998 H   0  0  0  0  0  0  0  0  0  0  0  0
   59.7533   29.9437   49.0998 H   0  0  0  0  0  0  0  0  0  0  0  0
   59.6670   30.7040   46.1340 C   0  0  0  0  0  0  0  0  0  0  0  0
   60.6790   29.8590   46.3830 C   0  0  0  0  0  0  0  0  0  0  0  0
   61.4797   30.1497   47.0790 H   0  0  0  0  0  0  0  0  0  0  0  0
   60.7080   28.8755   45.8911 H   0  0  0  0  0  0  0  0  0  0  0  0
  1  2  1  0
  2  3  1  0
  3  4  1  0
  4  5  1  0
  5  6  2  0
  5  7  1  0
  7  8  1  0
  8  9  2  0
  8 10  1  0
 10 11  1  0
 11 12  1  0
 11 13  2  0
 13 14  1  0
 14 15  1  0
 14 16  2  0
 16 17  1  0
 17 18  1  0
 17 19  1  0
 17 20  1  0
 16 21  1  0
 21 22  1  0
 22 23  2  0
 23 24  1  0
 23 25  1  0
 25 26  1  0
 25 27  2  0
 27 28  1  0
 27 29  1  0
 29 30  1  0
 29 31  2  0
 31 32  1  0
 32 33  1  0
 33 34  1  0
 33 35  1  0
 33 36  1  0
 21 37  1  0
 37 38  2  0
 38 39  1  0
 38 40  1  0
 10  3  2  0
 37 13  1  0
 31 22  1  0
M  CHG  2   4  -1   7  -1
M  END
>  <UniqueID>  (34) 
33

>  <SMILES>  (34) 
C=c1/c(=C/c2c(O)[n-]c(=O)[n-]c2=O)cc(C)n1-c1ccc(Cl)cc1OC

>  <Energy>  (34) 
85.94949564958054

>  <Genealogy>  (34) 
C=c1c(=Cc2c(O)[n-]c(=O)[n-]c2=O)cc(C)n1-c1ccc(Cl)cc1OC (protonated)
C=c1/c(=C/c2c(O)[n-]c(=O)[n-]c2=O)cc(C)n1-c1ccc(Cl)cc1OC (cis-trans isomerization)
C=c1/c(=C/c2c(O)[n-]c(=O)[n-]c2=O)cc(C)n1-c1ccc(Cl)cc1OC (3D coordinates assigned)
C=c1/c(=C/c2c(O)[n-]c(=O)[n-]c2=O)cc(C)n1-c1ccc(Cl)cc1OC (optimized conformer: 85.94949564958054 kcal/mol)

>  <smiles>  (34) 
C=c1c(=Cc2c(O)[nH]c(=O)[nH]c2=O)cc(C)n1-c1ccc(Cl)cc1OC

>  <score_type>  (34) 
oracle

>  <origin>  (34) 
adg

>  <m_score__min__energy>  (34) 
-13.49

>  <m_primary>  (34) 
energy

$$$$
34:0
     RDKit          3D

 49 52  0  0  0  0  0  0  0  0999 V2000
   59.6885   28.6023   47.5048 H   0  0  0  0  0  0  0  0  0  0  0  0
   59.1340   28.0240   46.7510 C   0  0  0  0  0  0  0  0  0  0  0  0
   59.1581   26.9245   46.7741 H   0  0  0  0  0  0  0  0  0  0  0  0
   58.4280   28.6600   45.8030 C   0  0  0  0  0  0  0  0  0  0  0  0
   57.6780   28.0610   44.7850 C   0  0  0  0  0  0  0  0  0  0  0  0
   57.5320   26.7440   44.5440 C   0  0  0  0  0  0  0  0  0  0  0  0
   57.8014   26.3700   43.5452 H   0  0  0  0  0  0  0  0  0  0  0  0
   57.0340   25.7720   45.5340 C   0  0  0  0  0  0  0  0  0  0  0  0
   57.7880   24.7830   46.0410 N   0  0  0  0  0  0  0  0  0  0  0  0
   56.9770   24.2030   46.9520 C   0  0  0  0  0  0  0  0  0  0  0  0
   57.3310   23.2110   47.6410 O   0  0  0  0  0  0  0  0  0  0  0  0
   55.7620   24.7780   47.0760 N   0  0  0  0  0  0  0  0  0  0  0  0
   55.8160   25.7780   46.1800 C   0  0  0  0  0  0  0  0  0  0  0  0
   54.7940   26.6990   45.9960 O   0  0  0  0  0  0  0  0  0  0  0  0
   57.1590   29.1000   44.0220 C   0  0  0  0  0  0  0  0  0  0  0  0
   56.5285   29.0051   43.1256 H   0  0  0  0  0  0  0  0  0  0  0  0
   57.5880   30.2740   44.6070 C   0  0  0  0  0  0  0  0  0  0  0  0
   57.2780   31.6450   44.0870 C   0  0  0  0  0  0  0  0  0  0  0  0
   57.1228   32.3314   44.9325 H   0  0  0  0  0  0  0  0  0  0  0  0
   58.1179   32.0030   43.4734 H   0  0  0  0  0  0  0  0  0  0  0  0
   56.3658   31.6069   43.4734 H   0  0  0  0  0  0  0  0  0  0  0  0
   58.3620   30.0100   45.6830 N   0  0  0  0  0  0  0  0  0  0  0  0
   58.9840   30.9910   46.5330 C   0  0  0  0  0  0  0  0  0  0  0  0
   58.9280   30.8540   47.9250 C   0  0  0  0  0  0  0  0  0  0  0  0
   58.4162   29.9878   48.3696 H   0  0  0  0  0  0  0  0  0  0  0  0
   59.5190   31.8120   48.7520 C   0  0  0  0  0  0  0  0  0  0  0  0
   59.4678   31.6938   49.8444 H   0  0  0  0  0  0  0  0  0  0  0  0
   60.1800   32.9280   48.2020 C   0  0  0  0  0  0  0  0  0  0  0  0
   60.7980   33.9380   49.1080 C   0  0  0  0  0  0  0  0  0  0  0  0
   60.0440   34.5960   49.8780 O   0  0  0  0  0  0  0  0  0  0  0  0
   62.2290   34.2010   49.1030 N   0  0  0  0  0  0  0  0  0  0  0  0
   62.3710   35.2320   49.2080 H   0  0  0  0  0  0  0  0  0  0  0  0
   62.8900   33.5340   50.2440 C   0  0  0  0  0  0  0  0  0  0  0  0
   63.9042   33.9453   50.3547 H   0  0  0  0  0  0  0  0  0  0  0  0
   62.2804   33.7195   51.1407 H   0  0  0  0  0  0  0  0  0  0  0  0
   62.9930   32.0010   50.0510 C   0  0  0  0  0  0  0  0  0  0  0  0
   63.9997   31.6786   50.3552 H   0  0  0  0  0  0  0  0  0  0  0  0
   62.2048   31.5435   50.6669 H   0  0  0  0  0  0  0  0  0  0  0  0
   62.7730   31.5840   48.7150 O   0  0  0  0  0  0  0  0  0  0  0  0
   63.4780   32.4190   47.8250 C   0  0  0  0  0  0  0  0  0  0  0  0
   64.5288   32.4823   48.1441 H   0  0  0  0  0  0  0  0  0  0  0  0
   63.4129   31.9937   46.8126 H   0  0  0  0  0  0  0  0  0  0  0  0
   62.8670   33.8340   47.8100 C   0  0  0  0  0  0  0  0  0  0  0  0
   63.6654   34.5592   47.5939 H   0  0  0  0  0  0  0  0  0  0  0  0
   62.0830   33.8477   47.0385 H   0  0  0  0  0  0  0  0  0  0  0  0
   60.2220   33.0620   46.7990 C   0  0  0  0  0  0  0  0  0  0  0  0
   60.7257   33.9302   46.3490 H   0  0  0  0  0  0  0  0  0  0  0  0
   59.6290   32.1010   45.9750 C   0  0  0  0  0  0  0  0  0  0  0  0
   59.6695   32.2177   44.8820 H   0  0  0  0  0  0  0  0  0  0  0  0
  1  2  1  0
  2  3  1  0
  2  4  2  0
  4  5  1  0
  5  6  2  0
  6  7  1  0
  6  8  1  0
  8  9  1  0
  9 10  1  0
 10 11  2  0
 10 12  1  0
 12 13  1  0
 13 14  1  0
  5 15  1  0
 15 16  1  0
 15 17  2  0
 17 18  1  0
 18 19  1  0
 18 20  1  0
 18 21  1  0
 17 22  1  0
 22 23  1  0
 23 24  2  0
 24 25  1  0
 24 26  1  0
 26 27  1  0
 26 28  2  0
 28 29  1  0
 29 30  2  0
 29 31  1  0
 31 32  1  0
 31 33  1  0
 33 34  1  0
 33 35  1  0
 33 36  1  0
 36 37  1  0
 36 38  1  0
 36 39  1  0
 39 40  1  0
 40 41  1  0
 40 42  1  0
 40 43  1  0
 43 44  1  0
 43 45  1  0
 28 46  1  0
 46 47  1  0
 46 48  2  0
 48 49  1  0
 22  4  1  0
 48 23  1  0
 13  8  2  0
 43 31  1  0
M  CHG  4   9  -1  12  -1  14  -1  31   1
M  END
>  <UniqueID>  (35) 
34

>  <SMILES>  (35) 
C=c1/c(=C/c2[n-]c(=O)[n-]c2[O-])cc(C)n1-c1ccc(C(=O)[NH+]2CCOCC2)cc1

>  <Energy>  (35) 
139.85604176936752

>  <Genealogy>  (35) 
C=c1c(=Cc2[n-]c(=O)[n-]c2[O-])cc(C)n1-c1ccc(C(=O)[NH+]2CCOCC2)cc1 (protonated)
C=c1/c(=C/c2[n-]c(=O)[n-]c2[O-])cc(C)n1-c1ccc(C(=O)[NH+]2CCOCC2)cc1 (cis-trans isomerization)
C=c1/c(=C/c2[n-]c(=O)[n-]c2[O-])cc(C)n1-c1ccc(C(=O)[NH+]2CCOCC2)cc1 (3D coordinates assigned)
C=c1/c(=C/c2[n-]c(=O)[n-]c2[O-])cc(C)n1-c1ccc(C(=O)[NH+]2CCOCC2)cc1 (nonaromatic ring conformer: 139.85604176936752 kcal/mol)

>  <smiles>  (35) 
C=c1c(=Cc2[nH]c(=O)[nH]c2O)cc(C)n1-c1ccc(C(=O)N2CCOCC2)cc1

>  <score_type>  (35) 
oracle

>  <origin>  (35) 
adg

>  <m_score__min__energy>  (35) 
-14.710000000000001

>  <m_primary>  (35) 
energy

$$$$
35:0
     RDKit          3D

 40 42  0  0  0  0  0  0  0  0999 V2000
   65.7300   31.5760   50.8490 C   0  0  0  0  0  0  0  0  0  0  0  0
   64.7150   32.1220   49.9030 C   0  0  0  0  0  0  0  0  0  0  0  0
   63.3800   31.7630   49.8440 C   0  0  0  0  0  0  0  0  0  0  0  0
   62.8990   32.5290   48.8040 C   0  0  0  0  0  0  0  0  0  0  0  0
   61.6710   32.5180   48.3860 N   0  0  0  0  0  0  0  0  0  0  0  0
   60.9770   33.7400   47.3710 S   0  0  0  0  0  0  0  0  0  0  0  0
   60.5210   34.9020   48.2080 O   0  0  0  0  0  0  0  0  0  0  0  0
   61.9950   34.2160   46.3730 O   0  0  0  0  0  0  0  0  0  0  0  0
   59.5980   33.0550   46.5200 C   0  0  0  0  0  0  0  0  0  0  0  0
   58.6580   33.8960   45.9080 C   0  0  0  0  0  0  0  0  0  0  0  0
   57.5540   33.3520   45.2450 C   0  0  0  0  0  0  0  0  0  0  0  0
   57.3840   31.9580   45.1770 C   0  0  0  0  0  0  0  0  0  0  0  0
   56.2500   31.3660   44.5280 N   0  0  0  0  0  0  0  0  0  0  0  0
   56.0670   29.9720   44.2480 C   0  0  0  0  0  0  0  0  0  0  0  0
   55.1790   29.3400   44.8770 O   0  0  0  0  0  0  0  0  0  0  0  0
   56.9940   29.2500   43.3510 C   0  0  0  0  0  0  0  0  0  0  0  0
   57.7130   28.1700   43.6900 C   0  0  0  0  0  0  0  0  0  0  0  0
   58.4340   27.9870   44.9640 C   0  0  0  0  0  0  0  0  0  0  0  0
   57.8220   27.7030   46.1790 C   0  0  0  0  0  0  0  0  0  0  0  0
   58.7060   27.7130   47.2630 C   0  0  0  0  0  0  0  0  0  0  0  0
   60.0120   28.0330   46.9170 C   0  0  0  0  0  0  0  0  0  0  0  0
   60.0610   28.3100   45.2600 S   0  0  0  0  0  0  0  0  0  0  0  0
   58.3060   31.1230   45.8190 C   0  0  0  0  0  0  0  0  0  0  0  0
   59.4100   31.6660   46.4830 C   0  0  0  0  0  0  0  0  0  0  0  0
   63.8930   33.2820   48.2920 N   0  0  0  0  0  0  0  0  0  0  0  0
   64.9700   33.0140   48.9700 O   0  0  0  0  0  0  0  0  0  0  0  0
   65.4001   31.7534   51.8833 H   0  0  0  0  0  0  0  0  0  0  0  0
   65.8439   30.4949   50.6808 H   0  0  0  0  0  0  0  0  0  0  0  0
   66.6948   32.0768   50.6808 H   0  0  0  0  0  0  0  0  0  0  0  0
   62.8360   31.0429   50.4729 H   0  0  0  0  0  0  0  0  0  0  0  0
   58.7895   34.9873   45.9496 H   0  0  0  0  0  0  0  0  0  0  0  0
   56.8152   34.0174   44.7745 H   0  0  0  0  0  0  0  0  0  0  0  0
   57.1026   29.6287   42.3240 H   0  0  0  0  0  0  0  0  0  0  0  0
   57.7700   27.3520   42.9567 H   0  0  0  0  0  0  0  0  0  0  0  0
   56.7472   27.4910   46.2785 H   0  0  0  0  0  0  0  0  0  0  0  0
   58.3953   27.4882   48.2940 H   0  0  0  0  0  0  0  0  0  0  0  0
   60.8662   28.0945   47.6074 H   0  0  0  0  0  0  0  0  0  0  0  0
   58.1610   30.0328   45.8009 H   0  0  0  0  0  0  0  0  0  0  0  0
   60.1334   31.0014   46.9780 H   0  0  0  0  0  0  0  0  0  0  0  0
   63.8470   33.9600   47.5010 H   0  0  0  0  0  0  0  0  0  0  0  0
  1  2  1  0
  2  3  2  0
  3  4  1  0
  4  5  2  3
  5  6  1  0
  6  7  2  0
  6  8  2  0
  6  9  1  0
  9 10  2  0
 10 11  1  0
 11 12  2  0
 12 13  1  0
 13 14  1  0
 14 15  2  0
 14 16  1  0
 16 17  2  3
 17 18  1  0
 18 19  2  0
 19 20  1  0
 20 21  2  0
 21 22  1  0
 12 23  1  0
 23 24  2  0
  4 25  1  0
 25 26  1  0
 26  2  1  0
 24  9  1  0
 22 18  1  0
  1 27  1  0
  1 28  1  0
  1 29  1  0
  3 30  1  0
 10 31  1  0
 11 32  1  0
 16 33  1  0
 17 34  1  0
 19 35  1  0
 20 36  1  0
 21 37  1  0
 23 38  1  0
 24 39  1  0
 25 40  1  0
M  CHG  1  13  -1
M  END
>  <UniqueID>  (36) 
35

>  <SMILES>  (36) 
Cc1cc(=NS(=O)(=O)c2ccc([N-]C(=O)C=Cc3cccs3)cc2)[nH]o1

>  <Energy>  (36) 
113.55207716374969

>  <Genealogy>  (36) 
Cc1cc(=NS(=O)(=O)c2ccc([N-]C(=O)C=Cc3cccs3)cc2)[nH]o1 (protonated)
Cc1cc(=NS(=O)(=O)c2ccc([N-]C(=O)C=Cc3cccs3)cc2)[nH]o1 (3D coordinates assigned)
Cc1cc(=NS(=O)(=O)c2ccc([N-]C(=O)C=Cc3cccs3)cc2)[nH]o1 (optimized conformer: 113.55207716374969 kcal/mol)

>  <smiles>  (36) 
Cc1cc(=NS(=O)(=O)c2ccc(NC(=O)C=Cc3cccs3)cc2)[nH]o1

>  <score_type>  (36) 
oracle

>  <origin>  (36) 
adg

>  <m_score__min__energy>  (36) 
-10.02

>  <m_primary>  (36) 
energy

$$$$
36:0
     RDKit          3D

 39 40  0  0  0  0  0  0  0  0999 V2000
   57.0694   33.5815   44.8216 H   0  0  0  0  0  0  0  0  0  0  0  0
   57.3250   32.5960   45.2380 C   0  0  0  0  0  0  0  0  0  0  0  0
   57.0890   31.3950   44.4120 C   0  0  0  0  0  0  0  0  0  0  0  0
   57.3450   31.4460   43.1810 O   0  0  0  0  0  0  0  0  0  0  0  0
   56.6380   30.1550   44.9750 N   0  0  0  0  0  0  0  0  0  0  0  0
   57.0920   28.9780   44.6600 C   0  0  0  0  0  0  0  0  0  0  0  0
   56.9500   27.6340   45.6540 S   0  0  0  0  0  0  0  0  0  0  0  0
   57.7650   26.6240   44.5780 C   0  0  0  0  0  0  0  0  0  0  0  0
   57.9683   25.5531   44.7260 H   0  0  0  0  0  0  0  0  0  0  0  0
   58.1360   27.3800   43.4700 C   0  0  0  0  0  0  0  0  0  0  0  0
   58.6865   26.9534   42.6186 H   0  0  0  0  0  0  0  0  0  0  0  0
   57.7650   28.6870   43.5220 N   0  0  0  0  0  0  0  0  0  0  0  0
   58.0100   29.3740   42.7770 H   0  0  0  0  0  0  0  0  0  0  0  0
   57.8370   32.5340   46.4720 C   0  0  0  0  0  0  0  0  0  0  0  0
   57.1585   32.4624   47.3348 H   0  0  0  0  0  0  0  0  0  0  0  0
   59.3030   32.5600   46.6990 C   0  0  0  0  0  0  0  0  0  0  0  0
   59.9780   31.3960   46.9130 C   0  0  0  0  0  0  0  0  0  0  0  0
   59.2870   30.0600   46.7820 C   0  0  0  0  0  0  0  0  0  0  0  0
   59.0778   29.6556   47.7834 H   0  0  0  0  0  0  0  0  0  0  0  0
   58.3421   30.1881   46.2336 H   0  0  0  0  0  0  0  0  0  0  0  0
   59.9376   29.3629   46.2336 H   0  0  0  0  0  0  0  0  0  0  0  0
   61.4730   31.3620   47.1400 C   0  0  0  0  0  0  0  0  0  0  0  0
   61.9655   31.1078   46.1898 H   0  0  0  0  0  0  0  0  0  0  0  0
   61.6689   30.6113   47.9198 H   0  0  0  0  0  0  0  0  0  0  0  0
   62.0340   32.6900   47.6370 C   0  0  0  0  0  0  0  0  0  0  0  0
   63.1331   32.6586   47.6040 H   0  0  0  0  0  0  0  0  0  0  0  0
   61.7018   32.8630   48.6713 H   0  0  0  0  0  0  0  0  0  0  0  0
   61.5320   33.8210   46.7480 C   0  0  0  0  0  0  0  0  0  0  0  0
   61.8535   33.6302   45.7135 H   0  0  0  0  0  0  0  0  0  0  0  0
   61.9528   34.7648   47.1252 H   0  0  0  0  0  0  0  0  0  0  0  0
   59.9840   33.9360   46.7800 C   0  0  0  0  0  0  0  0  0  0  0  0
   59.5400   34.6340   48.0860 C   0  0  0  0  0  0  0  0  0  0  0  0
   59.9049   34.0603   48.9507 H   0  0  0  0  0  0  0  0  0  0  0  0
   59.9574   35.6512   48.1183 H   0  0  0  0  0  0  0  0  0  0  0  0
   58.4418   34.6871   48.1183 H   0  0  0  0  0  0  0  0  0  0  0  0
   59.5550   34.8150   45.5840 C   0  0  0  0  0  0  0  0  0  0  0  0
   59.1011   35.7451   45.9567 H   0  0  0  0  0  0  0  0  0  0  0  0
   60.4364   35.0568   44.9719 H   0  0  0  0  0  0  0  0  0  0  0  0
   58.8221   34.2689   44.9719 H   0  0  0  0  0  0  0  0  0  0  0  0
  1  2  1  0
  2  3  1  0
  3  4  2  0
  3  5  1  0
  5  6  2  0
  6  7  1  0
  7  8  1  0
  8  9  1  0
  8 10  2  0
 10 11  1  0
 10 12  1  0
 12 13  1  0
  2 14  2  0
 14 15  1  0
 14 16  1  0
 16 17  2  0
 17 18  1  0
 18 19  1  0
 18 20  1  0
 18 21  1  0
 17 22  1  0
 22 23  1  0
 22 24  1  0
 22 25  1  0
 25 26  1  0
 25 27  1  0
 25 28  1  0
 28 29  1  0
 28 30  1  0
 28 31  1  0
 31 32  1  0
 32 33  1  0
 32 34  1  0
 32 35  1  0
 31 36  1  0
 36 37  1  0
 36 38  1  0
 36 39  1  0
 12  6  1  0
 31 16  1  0
M  END
>  <UniqueID>  (37) 
36

>  <SMILES>  (37) 
CC1=C(/C=C/C(=O)/N=c2\[nH]ccs2)C(C)(C)CCC1

>  <Energy>  (37) 
78.97152691443593

>  <Genealogy>  (37) 
CC1=C(/C=C/C(=O)/N=c2\[nH]ccs2)C(C)(C)CCC1 (cis-trans isomerization)
CC1=C(/C=C/C(=O)/N=c2\[nH]ccs2)C(C)(C)CCC1 (3D coordinates assigned)
CC1=C(/C=C/C(=O)/N=c2\[nH]ccs2)C(C)(C)CCC1 (nonaromatic ring conformer: 78.97152691443593 kcal/mol)

>  <smiles>  (37) 
CC1=C(C=CC(=O)N=c2[nH]ccs2)C(C)(C)CCC1

>  <score_type>  (37) 
oracle

>  <origin>  (37) 
adg

>  <m_score__min__energy>  (37) 
-7.8600000000000003

>  <m_primary>  (37) 
energy

$$$$
37:0
     RDKit          3D

 42 44  0  0  0  0  0  0  0  0999 V2000
   59.0753   27.3505   47.0808 H   0  0  0  0  0  0  0  0  0  0  0  0
   58.2830   27.2260   46.3280 C   0  0  0  0  0  0  0  0  0  0  0  0
   58.2250   28.1250   45.3260 C   0  0  0  0  0  0  0  0  0  0  0  0
   58.2550   27.7100   43.9400 C   0  0  0  0  0  0  0  0  0  0  0  0
   58.2800   27.3810   42.8310 N   0  0  0  0  0  0  0  0  0  0  0  0
   58.1020   29.5720   45.6330 C   0  0  0  0  0  0  0  0  0  0  0  0
   56.9920   30.1470   45.4840 O   0  0  0  0  0  0  0  0  0  0  0  0
   59.1990   30.3280   46.1650 N   0  0  0  0  0  0  0  0  0  0  0  0
   59.2580   30.9290   47.4670 C   0  0  0  0  0  0  0  0  0  0  0  0
   59.1570   30.1100   48.5960 C   0  0  0  0  0  0  0  0  0  0  0  0
   59.0463   29.0224   48.4745 H   0  0  0  0  0  0  0  0  0  0  0  0
   59.1960   30.6660   49.8790 C   0  0  0  0  0  0  0  0  0  0  0  0
   59.1307   30.0112   50.7605 H   0  0  0  0  0  0  0  0  0  0  0  0
   59.3180   32.0550   50.0490 C   0  0  0  0  0  0  0  0  0  0  0  0
   59.3650   32.6330   51.3680 N   0  0  0  0  0  0  0  0  0  0  0  0
   58.1360   33.1330   51.9940 C   0  0  0  0  0  0  0  0  0  0  0  0
   57.4619   33.5224   51.2169 H   0  0  0  0  0  0  0  0  0  0  0  0
   57.6415   32.3119   52.5337 H   0  0  0  0  0  0  0  0  0  0  0  0
   58.4790   34.2540   52.9790 C   0  0  0  0  0  0  0  0  0  0  0  0
   58.8496   35.1253   52.4191 H   0  0  0  0  0  0  0  0  0  0  0  0
   57.5719   34.5188   53.5421 H   0  0  0  0  0  0  0  0  0  0  0  0
   59.4740   33.8320   53.8930 O   0  0  0  0  0  0  0  0  0  0  0  0
   60.6840   33.5790   53.2030 C   0  0  0  0  0  0  0  0  0  0  0  0
   60.9700   34.4769   52.6356 H   0  0  0  0  0  0  0  0  0  0  0  0
   61.4624   33.3260   53.9379 H   0  0  0  0  0  0  0  0  0  0  0  0
   60.5230   32.4040   52.2350 C   0  0  0  0  0  0  0  0  0  0  0  0
   61.4290   32.3119   51.6180 H   0  0  0  0  0  0  0  0  0  0  0  0
   60.3707   31.4779   52.8088 H   0  0  0  0  0  0  0  0  0  0  0  0
   59.3980   32.8770   48.9130 C   0  0  0  0  0  0  0  0  0  0  0  0
   59.4920   33.9664   49.0330 H   0  0  0  0  0  0  0  0  0  0  0  0
   59.3590   32.3210   47.6310 C   0  0  0  0  0  0  0  0  0  0  0  0
   59.4075   32.9751   46.7479 H   0  0  0  0  0  0  0  0  0  0  0  0
   57.3550   26.0810   46.4880 C   0  0  0  0  0  0  0  0  0  0  0  0
   55.9970   26.2240   46.1570 C   0  0  0  0  0  0  0  0  0  0  0  0
   55.5190   27.4210   45.6330 O   0  0  0  0  0  0  0  0  0  0  0  0
   55.1370   25.1850   46.3360 N   0  0  0  0  0  0  0  0  0  0  0  0
   55.5450   23.9940   46.8460 C   0  0  0  0  0  0  0  0  0  0  0  0
   54.7120   23.0590   46.9920 O   0  0  0  0  0  0  0  0  0  0  0  0
   56.8810   23.8130   47.2140 C   0  0  0  0  0  0  0  0  0  0  0  0
   57.3120   22.6050   47.7510 O   0  0  0  0  0  0  0  0  0  0  0  0
   57.7860   24.8630   47.0400 C   0  0  0  0  0  0  0  0  0  0  0  0
   58.8379   24.7359   47.3357 H   0  0  0  0  0  0  0  0  0  0  0  0
  1  2  1  0
  2  3  2  0
  3  4  1  0
  4  5  3  0
  3  6  1  0
  6  7  2  0
  6  8  1  0
  8  9  1  0
  9 10  2  0
 10 11  1  0
 10 12  1  0
 12 13  1  0
 12 14  2  0
 14 15  1  0
 15 16  1  0
 16 17  1  0
 16 18  1  0
 16 19  1  0
 19 20  1  0
 19 21  1  0
 19 22  1  0
 22 23  1  0
 23 24  1  0
 23 25  1  0
 23 26  1  0
 26 27  1  0
 26 28  1  0
 14 29  1  0
 29 30  1  0
 29 31  2  0
 31 32  1  0
  2 33  1  0
 33 34  2  0
 34 35  1  0
 34 36  1  0
 36 37  1  0
 37 38  2  0
 37 39  1  0
 39 40  1  0
 39 41  2  0
 41 42  1  0
 31  9  1  0
 41 33  1  0
 26 15  1  0
M  CHG  4   8  -1  35  -1  36  -1  40  -1
M  END
>  <UniqueID>  (38) 
37

>  <SMILES>  (38) 
N#C/C(=C\c1cc([O-])c(=O)[n-]c1[O-])C(=O)[N-]c1ccc(N2CCOCC2)cc1

>  <Energy>  (38) 
62.58354695135562

>  <Genealogy>  (38) 
N#CC(=Cc1cc([O-])c(=O)[n-]c1[O-])C(=O)[N-]c1ccc(N2CCOCC2)cc1 (protonated)
N#C/C(=C\c1cc([O-])c(=O)[n-]c1[O-])C(=O)[N-]c1ccc(N2CCOCC2)cc1 (cis-trans isomerization)
N#C/C(=C\c1cc([O-])c(=O)[n-]c1[O-])C(=O)[N-]c1ccc(N2CCOCC2)cc1 (3D coordinates assigned)
N#C/C(=C\c1cc([O-])c(=O)[n-]c1[O-])C(=O)[N-]c1ccc(N2CCOCC2)cc1 (nonaromatic ring conformer: 62.58354695135562 kcal/mol)

>  <smiles>  (38) 
N#CC(=Cc1cc(O)c(=O)[nH]c1O)C(=O)Nc1ccc(N2CCOCC2)cc1

>  <score_type>  (38) 
oracle

>  <origin>  (38) 
adg

>  <m_score__min__energy>  (38) 
-16.93

>  <m_primary>  (38) 
energy

$$$$
38:0
     RDKit          3D

 51 53  0  0  0  0  0  0  0  0999 V2000
   57.4850   31.8300   43.1440 C   0  0  0  0  0  0  0  0  0  0  0  0
   56.9160   30.3310   43.9130 S   0  0  0  0  0  0  0  0  0  0  0  0
   56.9350   29.2210   42.9010 O   0  0  0  0  0  0  0  0  0  0  0  0
   55.5170   30.5510   44.4180 O   0  0  0  0  0  0  0  0  0  0  0  0
   57.9800   29.9540   45.2300 N   0  0  0  0  0  0  0  0  0  0  0  0
   58.0830   28.7300   45.9760 C   0  0  0  0  0  0  0  0  0  0  0  0
   59.2550   28.5320   46.7160 C   0  0  0  0  0  0  0  0  0  0  0  0
   59.4510   27.3630   47.4660 C   0  0  0  0  0  0  0  0  0  0  0  0
   60.7420   27.1450   48.2130 C   0  0  0  0  0  0  0  0  0  0  0  0
   60.5020   26.6460   49.5630 N   0  0  0  0  0  0  0  0  0  0  0  0
   61.1640   27.1460   50.7280 C   0  0  0  0  0  0  0  0  0  0  0  0
   61.7540   26.3340   51.4900 O   0  0  0  0  0  0  0  0  0  0  0  0
   61.1090   28.5470   51.0460 N   0  0  0  0  0  0  0  0  0  0  0  0
   60.0630   29.3180   50.9710 C   0  0  0  0  0  0  0  0  0  0  0  0
   58.9540   29.0690   51.7250 N   0  0  0  0  0  0  0  0  0  0  0  0
   57.8600   29.8730   51.6880 C   0  0  0  0  0  0  0  0  0  0  0  0
   57.8490   30.9980   50.8640 C   0  0  0  0  0  0  0  0  0  0  0  0
   58.9640   31.2770   50.0750 C   0  0  0  0  0  0  0  0  0  0  0  0
   60.0870   30.4310   50.1140 C   0  0  0  0  0  0  0  0  0  0  0  0
   61.2210   30.6450   49.3110 O   0  0  0  0  0  0  0  0  0  0  0  0
   61.2360   30.6230   47.8840 C   0  0  0  0  0  0  0  0  0  0  0  0
   60.8290   31.9580   47.3220 C   0  0  0  0  0  0  0  0  0  0  0  0
   61.7880   32.9660   47.1350 C   0  0  0  0  0  0  0  0  0  0  0  0
   61.4210   34.1930   46.5750 C   0  0  0  0  0  0  0  0  0  0  0  0
   60.0970   34.4200   46.1900 C   0  0  0  0  0  0  0  0  0  0  0  0
   59.1350   33.4160   46.3600 C   0  0  0  0  0  0  0  0  0  0  0  0
   57.7740   33.6460   45.9520 C   0  0  0  0  0  0  0  0  0  0  0  0
   56.6790   33.8290   45.6230 N   0  0  0  0  0  0  0  0  0  0  0  0
   59.5020   32.1850   46.9200 C   0  0  0  0  0  0  0  0  0  0  0  0
   58.4580   26.3760   47.4690 C   0  0  0  0  0  0  0  0  0  0  0  0
   57.2830   26.5600   46.7400 C   0  0  0  0  0  0  0  0  0  0  0  0
   57.0850   27.7280   45.9860 C   0  0  0  0  0  0  0  0  0  0  0  0
   55.9080   27.8680   45.2550 O   0  0  0  0  0  0  0  0  0  0  0  0
   57.7615   32.5584   43.9205 H   0  0  0  0  0  0  0  0  0  0  0  0
   58.3624   31.6107   42.5179 H   0  0  0  0  0  0  0  0  0  0  0  0
   56.6831   32.2482   42.5179 H   0  0  0  0  0  0  0  0  0  0  0  0
   60.0358   29.3068   46.7091 H   0  0  0  0  0  0  0  0  0  0  0  0
   61.3527   26.4126   47.6647 H   0  0  0  0  0  0  0  0  0  0  0  0
   61.2630   28.1107   48.2900 H   0  0  0  0  0  0  0  0  0  0  0  0
   56.9826   29.6368   52.3080 H   0  0  0  0  0  0  0  0  0  0  0  0
   56.9697   31.6584   50.8369 H   0  0  0  0  0  0  0  0  0  0  0  0
   58.9655   32.1610   49.4203 H   0  0  0  0  0  0  0  0  0  0  0  0
   62.2519   30.3813   47.5382 H   0  0  0  0  0  0  0  0  0  0  0  0
   60.5208   29.8628   47.5368 H   0  0  0  0  0  0  0  0  0  0  0  0
   62.8328   32.7895   47.4304 H   0  0  0  0  0  0  0  0  0  0  0  0
   62.1757   34.9813   46.4371 H   0  0  0  0  0  0  0  0  0  0  0  0
   59.8100   35.3878   45.7531 H   0  0  0  0  0  0  0  0  0  0  0  0
   58.7484   31.3935   47.0453 H   0  0  0  0  0  0  0  0  0  0  0  0
   58.6049   25.4524   48.0481 H   0  0  0  0  0  0  0  0  0  0  0  0
   56.5045   25.7831   46.7559 H   0  0  0  0  0  0  0  0  0  0  0  0
   55.8760   28.3910   44.3880 H   0  0  0  0  0  0  0  0  0  0  0  0
  1  2  1  0
  2  3  2  0
  2  4  2  0
  2  5  1  0
  5  6  1  0
  6  7  2  0
  7  8  1  0
  8  9  1  0
  9 10  1  0
 10 11  1  0
 11 12  2  0
 11 13  1  0
 13 14  2  3
 14 15  1  0
 15 16  1  0
 16 17  2  0
 17 18  1  0
 18 19  2  0
 19 20  1  0
 20 21  1  0
 21 22  1  0
 22 23  2  0
 23 24  1  0
 24 25  2  0
 25 26  1  0
 26 27  1  0
 27 28  3  0
 26 29  2  0
  8 30  2  0
 30 31  1  0
 31 32  2  0
 32 33  1  0
 32  6  1  0
 19 14  1  0
 29 22  1  0
  1 34  1  0
  1 35  1  0
  1 36  1  0
  7 37  1  0
  9 38  1  0
  9 39  1  0
 16 40  1  0
 17 41  1  0
 18 42  1  0
 21 43  1  0
 21 44  1  0
 23 45  1  0
 24 46  1  0
 25 47  1  0
 29 48  1  0
 30 49  1  0
 31 50  1  0
 33 51  1  0
M  CHG  3   5  -1  10  -1  15  -1
M  END
>  <UniqueID>  (39) 
38

>  <SMILES>  (39) 
CS(=O)(=O)[N-]c1cc(C[N-]C(=O)N=c2[n-]cccc2OCc2cccc(C#N)c2)ccc1O

>  <Energy>  (39) 
51.892403581058474

>  <Genealogy>  (39) 
CS(=O)(=O)[N-]c1cc(C[N-]C(=O)N=c2[n-]cccc2OCc2cccc(C#N)c2)ccc1O (protonated)
CS(=O)(=O)[N-]c1cc(C[N-]C(=O)N=c2[n-]cccc2OCc2cccc(C#N)c2)ccc1O (3D coordinates assigned)
CS(=O)(=O)[N-]c1cc(C[N-]C(=O)N=c2[n-]cccc2OCc2cccc(C#N)c2)ccc1O (optimized conformer: 51.892403581058474 kcal/mol)

>  <smiles>  (39) 
CS(=O)(=O)Nc1cc(CNC(=O)N=c2[nH]cccc2OCc2cccc(C#N)c2)ccc1O

>  <score_type>  (39) 
oracle

>  <origin>  (39) 
adg

>  <m_score__min__energy>  (39) 
-13.5

>  <m_primary>  (39) 
energy

$$$$
39:0
     RDKit          3D

 44 46  0  0  0  0  0  0  0  0999 V2000
   55.9870   21.7940   42.2950 N   0  0  0  0  0  0  0  0  0  0  0  0
   56.2720   21.9200   43.6880 C   0  0  0  0  0  0  0  0  0  0  0  0
   56.4930   20.8810   44.3660 O   0  0  0  0  0  0  0  0  0  0  0  0
   56.3060   23.2550   44.3310 C   0  0  0  0  0  0  0  0  0  0  0  0
   55.2940   23.6400   45.2280 C   0  0  0  0  0  0  0  0  0  0  0  0
   55.3260   24.8990   45.8350 C   0  0  0  0  0  0  0  0  0  0  0  0
   56.3550   25.8030   45.5470 C   0  0  0  0  0  0  0  0  0  0  0  0
   56.3570   27.0760   46.2080 N   0  0  0  0  0  0  0  0  0  0  0  0
   56.6270   28.3490   45.6090 C   0  0  0  0  0  0  0  0  0  0  0  0
   55.7560   28.9250   44.9030 O   0  0  0  0  0  0  0  0  0  0  0  0
   57.9010   28.9610   45.8280 N   0  0  0  0  0  0  0  0  0  0  0  0
   58.1740   30.3640   45.7050 C   0  0  0  0  0  0  0  0  0  0  0  0
   58.0040   30.9680   44.4590 C   0  0  0  0  0  0  0  0  0  0  0  0
   58.2490   32.3290   44.2960 C   0  0  0  0  0  0  0  0  0  0  0  0
   58.6770   33.1100   45.3730 C   0  0  0  0  0  0  0  0  0  0  0  0
   58.9400   34.8200   45.0540 Cl  0  0  0  0  0  0  0  0  0  0  0  0
   58.8850   32.5140   46.6430 C   0  0  0  0  0  0  0  0  0  0  0  0
   59.4160   33.4690   48.0550 S   0  0  0  0  0  0  0  0  0  0  0  0
   59.0700   34.9150   47.8350 O   0  0  0  0  0  0  0  0  0  0  0  0
   58.6890   33.0260   49.2930 O   0  0  0  0  0  0  0  0  0  0  0  0
   61.1920   33.3500   48.3490 C   0  0  2  0  0  0  0  0  0  0  0  0
   61.9530   32.9210   47.1120 C   0  0  0  0  0  0  0  0  0  0  0  0
   62.1220   31.4140   47.2540 C   0  0  0  0  0  0  0  0  0  0  0  0
   61.8420   31.0430   48.6440 N   0  0  0  0  0  0  0  0  0  0  0  0
   61.5400   32.2770   49.3690 C   0  0  0  0  0  0  0  0  0  0  0  0
   58.6580   31.1260   46.7870 C   0  0  0  0  0  0  0  0  0  0  0  0
   58.9380   30.4920   47.9930 O   0  0  0  0  0  0  0  0  0  0  0  0
   57.3820   25.4130   44.6690 C   0  0  0  0  0  0  0  0  0  0  0  0
   57.3530   24.1550   44.0620 C   0  0  0  0  0  0  0  0  0  0  0  0
   56.6150   22.2200   41.5770 H   0  0  0  0  0  0  0  0  0  0  0  0
   54.4712   22.9457   45.4538 H   0  0  0  0  0  0  0  0  0  0  0  0
   54.5352   25.1817   46.5454 H   0  0  0  0  0  0  0  0  0  0  0  0
   57.6743   30.3653   43.5999 H   0  0  0  0  0  0  0  0  0  0  0  0
   58.1042   32.7940   43.3097 H   0  0  0  0  0  0  0  0  0  0  0  0
   61.4688   34.3595   48.6871 H   0  0  0  0  0  0  0  0  0  0  0  0
   61.3811   33.1617   46.2037 H   0  0  0  0  0  0  0  0  0  0  0  0
   62.9198   33.4379   47.0225 H   0  0  0  0  0  0  0  0  0  0  0  0
   61.4197   30.8971   46.5834 H   0  0  0  0  0  0  0  0  0  0  0  0
   63.1485   31.1232   46.9860 H   0  0  0  0  0  0  0  0  0  0  0  0
   60.9910   30.4340   48.6610 H   0  0  0  0  0  0  0  0  0  0  0  0
   60.6872   32.1137   50.0443 H   0  0  0  0  0  0  0  0  0  0  0  0
   62.4073   32.5886   49.9696 H   0  0  0  0  0  0  0  0  0  0  0  0
   58.2130   26.1025   44.4589 H   0  0  0  0  0  0  0  0  0  0  0  0
   58.1558   23.8659   43.3678 H   0  0  0  0  0  0  0  0  0  0  0  0
  1  2  1  0
  2  3  2  0
  2  4  1  0
  4  5  2  0
  5  6  1  0
  6  7  2  0
  7  8  1  0
  8  9  1  0
  9 10  2  0
  9 11  1  0
 11 12  1  0
 12 13  2  0
 13 14  1  0
 14 15  2  0
 15 16  1  0
 15 17  1  0
 17 18  1  0
 18 19  2  0
 18 20  2  0
 18 21  1  0
 21 22  1  0
 22 23  1  0
 23 24  1  0
 24 25  1  0
 17 26  2  0
 26 27  1  0
  7 28  1  0
 28 29  2  0
 29  4  1  0
 26 12  1  0
 25 21  1  0
  1 30  1  0
  5 31  1  0
  6 32  1  0
 13 33  1  0
 14 34  1  0
 21 35  1  1
 22 36  1  0
 22 37  1  0
 23 38  1  0
 23 39  1  0
 24 40  1  0
 25 41  1  0
 25 42  1  0
 28 43  1  0
 29 44  1  0
M  CHG  4   1  -1   8  -1  11  -1  27  -1
M  END
>  <UniqueID>  (40) 
39

>  <SMILES>  (40) 
[NH-]C(=O)c1ccc([N-]C(=O)[N-]c2ccc(Cl)c(S(=O)(=O)[C@@H]3CCNC3)c2[O-])cc1

>  <Energy>  (40) 
56.62816507221963

>  <Genealogy>  (40) 
[NH-]C(=O)c1ccc([N-]C(=O)[N-]c2ccc(Cl)c(S(=O)(=O)C3CCNC3)c2[O-])cc1 (protonated)
[NH-]C(=O)c1ccc([N-]C(=O)[N-]c2ccc(Cl)c(S(=O)(=O)[C@@H]3CCNC3)c2[O-])cc1 (chirality)
[NH-]C(=O)c1ccc([N-]C(=O)[N-]c2ccc(Cl)c(S(=O)(=O)[C@@H]3CCNC3)c2[O-])cc1 (3D coordinates assigned)
[NH-]C(=O)c1ccc([N-]C(=O)[N-]c2ccc(Cl)c(S(=O)(=O)[C@@H]3CCNC3)c2[O-])cc1 (nonaromatic ring conformer: 56.62816507221963 kcal/mol)

>  <smiles>  (40) 
NC(=O)c1ccc(NC(=O)Nc2ccc(Cl)c(S(=O)(=O)C3CCNC3)c2O)cc1

>  <score_type>  (40) 
oracle

>  <origin>  (40) 
adg

>  <m_score__min__energy>  (40) 
-16.800000000000001

>  <m_primary>  (40) 
energy

$$$$
40:0
     RDKit          3D

 48 51  0  0  0  0  0  0  0  0999 V2000
   59.2230   28.1040   46.9070 C   0  0  0  0  0  0  0  0  0  0  0  0
   58.4150   28.6970   46.0150 C   0  0  0  0  0  0  0  0  0  0  0  0
   57.6820   28.0650   45.0050 C   0  0  0  0  0  0  0  0  0  0  0  0
   57.6530   26.7500   44.7160 C   0  0  0  0  0  0  0  0  0  0  0  0
   57.2480   25.7090   45.6890 C   0  0  0  0  0  0  0  0  0  0  0  0
   55.9740   25.7110   46.2830 C   0  0  0  0  0  0  0  0  0  0  0  0
   55.0450   26.6960   45.9730 O   0  0  0  0  0  0  0  0  0  0  0  0
   55.6490   24.7510   47.1880 N   0  0  0  0  0  0  0  0  0  0  0  0
   56.5400   23.7940   47.5470 C   0  0  0  0  0  0  0  0  0  0  0  0
   56.2140   22.9140   48.3850 O   0  0  0  0  0  0  0  0  0  0  0  0
   57.7860   23.7880   47.0100 N   0  0  0  0  0  0  0  0  0  0  0  0
   58.1620   24.7240   46.0990 C   0  0  0  0  0  0  0  0  0  0  0  0
   59.3280   24.6900   45.6220 O   0  0  0  0  0  0  0  0  0  0  0  0
   57.0150   29.0710   44.3170 C   0  0  0  0  0  0  0  0  0  0  0  0
   57.3480   30.2600   44.9360 C   0  0  0  0  0  0  0  0  0  0  0  0
   56.8640   31.6100   44.5030 C   0  0  0  0  0  0  0  0  0  0  0  0
   58.2040   30.0360   45.9570 N   0  0  0  0  0  0  0  0  0  0  0  0
   58.7600   31.0400   46.8230 C   0  0  0  0  0  0  0  0  0  0  0  0
   58.8020   30.8270   48.2060 C   0  0  0  0  0  0  0  0  0  0  0  0
   59.3260   31.8060   49.0550 C   0  0  0  0  0  0  0  0  0  0  0  0
   59.8040   33.0160   48.5290 C   0  0  0  0  0  0  0  0  0  0  0  0
   60.3670   34.0530   49.4160 C   0  0  0  0  0  0  0  0  0  0  0  0
   59.6330   34.5640   50.3030 O   0  0  0  0  0  0  0  0  0  0  0  0
   61.7250   34.4960   49.3100 N   0  0  0  0  0  0  0  0  0  0  0  0
   63.1200   33.5020   49.5880 S   0  0  0  0  0  0  0  0  0  0  0  0
   62.6950   32.1870   50.1810 O   0  0  0  0  0  0  0  0  0  0  0  0
   64.0630   34.1960   50.5320 O   0  0  0  0  0  0  0  0  0  0  0  0
   63.9660   33.2700   48.0280 C   0  0  0  0  0  0  0  0  0  0  0  0
   63.1630   33.6720   46.8020 C   0  0  0  0  0  0  0  0  0  0  0  0
   63.3720   32.2000   47.1280 C   0  0  0  0  0  0  0  0  0  0  0  0
   59.7860   33.2170   47.1400 C   0  0  0  0  0  0  0  0  0  0  0  0
   59.2600   32.2380   46.2910 C   0  0  0  0  0  0  0  0  0  0  0  0
   59.2530   32.4480   44.9500 F   0  0  0  0  0  0  0  0  0  0  0  0
   59.7501   28.7093   47.6592 H   0  0  0  0  0  0  0  0  0  0  0  0
   59.3583   27.0126   46.8861 H   0  0  0  0  0  0  0  0  0  0  0  0
   57.9454   26.4322   43.7043 H   0  0  0  0  0  0  0  0  0  0  0  0
   56.3513   28.9452   43.4489 H   0  0  0  0  0  0  0  0  0  0  0  0
   56.6444   32.2226   45.3898 H   0  0  0  0  0  0  0  0  0  0  0  0
   57.6416   32.1024   43.9006 H   0  0  0  0  0  0  0  0  0  0  0  0
   55.9507   31.4962   43.9006 H   0  0  0  0  0  0  0  0  0  0  0  0
   58.4208   29.8847   48.6266 H   0  0  0  0  0  0  0  0  0  0  0  0
   59.3638   31.6272   50.1397 H   0  0  0  0  0  0  0  0  0  0  0  0
   64.9730   33.4944   48.4096 H   0  0  0  0  0  0  0  0  0  0  0  0
   62.1680   34.1259   46.9205 H   0  0  0  0  0  0  0  0  0  0  0  0
   63.3487   34.3088   45.9245 H   0  0  0  0  0  0  0  0  0  0  0  0
   62.5280   31.5897   47.4820 H   0  0  0  0  0  0  0  0  0  0  0  0
   63.7714   31.3316   46.5836 H   0  0  0  0  0  0  0  0  0  0  0  0
   60.1878   34.1495   46.7169 H   0  0  0  0  0  0  0  0  0  0  0  0
  1  2  2  0
  2  3  1  0
  3  4  2  3
  4  5  1  0
  5  6  2  0
  6  7  1  0
  6  8  1  0
  8  9  1  0
  9 10  2  0
  9 11  1  0
 11 12  1  0
 12 13  2  0
  3 14  1  0
 14 15  2  0
 15 16  1  0
 15 17  1  0
 17 18  1  0
 18 19  2  0
 19 20  1  0
 20 21  2  0
 21 22  1  0
 22 23  2  0
 22 24  1  0
 24 25  1  0
 25 26  2  0
 25 27  2  0
 25 28  1  0
 28 29  1  0
 29 30  1  0
 21 31  1  0
 31 32  2  0
 32 33  1  0
 17  2  1  0
 32 18  1  0
 12  5  1  0
 30 28  1  0
  1 34  1  0
  1 35  1  0
  4 36  1  0
 14 37  1  0
 16 38  1  0
 16 39  1  0
 16 40  1  0
 19 41  1  0
 20 42  1  0
 28 43  1  0
 29 44  1  0
 29 45  1  0
 30 46  1  0
 30 47  1  0
 31 48  1  0
M  CHG  4   7  -1   8  -1  11  -1  24  -1
M  END
>  <UniqueID>  (41) 
40

>  <SMILES>  (41) 
C=c1c(=Cc2c([O-])[n-]c(=O)[n-]c2=O)cc(C)n1-c1ccc(C(=O)[N-]S(=O)(=O)C2CC2)cc1F

>  <Energy>  (41) 
365.70024206518195

>  <Genealogy>  (41) 
C=c1c(=Cc2c([O-])[n-]c(=O)[n-]c2=O)cc(C)n1-c1ccc(C(=O)[N-]S(=O)(=O)C2CC2)cc1F (protonated)
C=c1c(=Cc2c([O-])[n-]c(=O)[n-]c2=O)cc(C)n1-c1ccc(C(=O)[N-]S(=O)(=O)C2CC2)cc1F (3D coordinates assigned)
C=c1c(=Cc2c([O-])[n-]c(=O)[n-]c2=O)cc(C)n1-c1ccc(C(=O)[N-]S(=O)(=O)C2CC2)cc1F (nonaromatic ring conformer: 365.70024206518195 kcal/mol)

>  <smiles>  (41) 
C=c1c(=Cc2c(O)[nH]c(=O)[nH]c2=O)cc(C)n1-c1ccc(C(=O)NS(=O)(=O)C2CC2)cc1F

>  <score_type>  (41) 
oracle

>  <origin>  (41) 
adg

>  <m_score__min__energy>  (41) 
-16.91

>  <m_primary>  (41) 
energy

$$$$
41:0
     RDKit          3D

 30 31  0  0  0  0  0  0  0  0999 V2000
   54.4825   23.5450   46.3947 H   0  0  0  0  0  0  0  0  0  0  0  0
   55.2260   24.3550   46.3620 C   0  0  0  0  0  0  0  0  0  0  0  0
   54.9150   25.6100   45.9390 N   0  0  0  0  0  0  0  0  0  0  0  0
   55.9770   26.4420   45.9960 C   0  0  0  0  0  0  0  0  0  0  0  0
   55.8980   27.6850   45.6180 N   0  0  0  0  0  0  0  0  0  0  0  0
   56.9660   28.5860   45.2760 C   0  0  0  0  0  0  0  0  0  0  0  0
   58.0780   28.4420   45.8550 O   0  0  0  0  0  0  0  0  0  0  0  0
   56.8180   29.6660   44.2360 C   0  0  0  0  0  0  0  0  0  0  0  0
   57.6682   29.6111   43.5402 H   0  0  0  0  0  0  0  0  0  0  0  0
   55.8673   29.5067   43.7062 H   0  0  0  0  0  0  0  0  0  0  0  0
   56.7870   30.9930   44.8430 N   0  0  0  0  0  0  0  0  0  0  0  0
   57.4780   32.1860   44.4300 C   0  0  0  0  0  0  0  0  0  0  0  0
   57.5520   32.4180   43.1950 O   0  0  0  0  0  0  0  0  0  0  0  0
   58.1020   33.1580   45.3600 C   0  0  0  0  0  0  0  0  0  0  0  0
   57.9580   33.2420   47.0390 S   0  0  0  0  0  0  0  0  0  0  0  0
   58.9670   34.5610   47.2700 C   0  0  0  0  0  0  0  0  0  0  0  0
   59.2048   35.0329   48.2348 H   0  0  0  0  0  0  0  0  0  0  0  0
   59.4490   34.9520   46.0290 C   0  0  0  0  0  0  0  0  0  0  0  0
   60.1395   35.7972   45.8915 H   0  0  0  0  0  0  0  0  0  0  0  0
   58.9750   34.1710   44.9680 C   0  0  0  0  0  0  0  0  0  0  0  0
   59.2652   34.3415   43.9207 H   0  0  0  0  0  0  0  0  0  0  0  0
   57.3520   25.6380   46.5470 S   0  0  0  0  0  0  0  0  0  0  0  0
   56.5540   24.1650   46.7520 C   0  0  0  0  0  0  0  0  0  0  0  0
   57.1070   22.8880   47.2680 C   0  0  0  0  0  0  0  0  0  0  0  0
   57.0100   22.6510   48.5030 O   0  0  0  0  0  0  0  0  0  0  0  0
   57.7590   21.9030   46.4500 N   0  0  0  0  0  0  0  0  0  0  0  0
   58.5640   22.1320   45.2590 C   0  0  0  0  0  0  0  0  0  0  0  0
   59.5829   22.4219   45.5553 H   0  0  0  0  0  0  0  0  0  0  0  0
   58.6044   21.2097   44.6609 H   0  0  0  0  0  0  0  0  0  0  0  0
   58.1129   22.9375   44.6609 H   0  0  0  0  0  0  0  0  0  0  0  0
  1  2  1  0
  2  3  1  0
  3  4  1  0
  4  5  2  0
  5  6  1  0
  6  7  2  0
  6  8  1  0
  8  9  1  0
  8 10  1  0
  8 11  1  0
 11 12  1  0
 12 13  2  0
 12 14  1  0
 14 15  1  0
 15 16  1  0
 16 17  1  0
 16 18  2  0
 18 19  1  0
 18 20  1  0
 20 21  1  0
  4 22  1  0
 22 23  1  0
 23 24  1  0
 24 25  2  0
 24 26  1  0
 26 27  1  0
 27 28  1  0
 27 29  1  0
 27 30  1  0
 23  2  2  0
 20 14  2  0
M  CHG  3   3  -1  11  -1  26  -1
M  END
>  <UniqueID>  (42) 
41

>  <SMILES>  (42) 
C[N-]C(=O)c1c[n-]/c(=N/C(=O)C[N-]C(=O)c2cccs2)s1

>  <Energy>  (42) 
95.05147830212

>  <Genealogy>  (42) 
C[N-]C(=O)c1c[n-]c(=NC(=O)C[N-]C(=O)c2cccs2)s1 (protonated)
C[N-]C(=O)c1c[n-]/c(=N/C(=O)C[N-]C(=O)c2cccs2)s1 (cis-trans isomerization)
C[N-]C(=O)c1c[n-]/c(=N/C(=O)C[N-]C(=O)c2cccs2)s1 (3D coordinates assigned)
C[N-]C(=O)c1c[n-]/c(=N/C(=O)C[N-]C(=O)c2cccs2)s1 (optimized conformer: 95.05147830212 kcal/mol)

>  <smiles>  (42) 
CNC(=O)c1c[nH]c(=NC(=O)CNC(=O)c2cccs2)s1

>  <score_type>  (42) 
oracle

>  <origin>  (42) 
adg

>  <m_score__min__energy>  (42) 
-12.17

>  <m_primary>  (42) 
energy

$$$$
42:0
     RDKit          3D

 32 33  0  0  0  0  0  0  0  0999 V2000
   58.5360   30.7210   47.3760 C   0  0  0  0  0  0  0  0  0  0  0  0
   58.2730   31.2530   46.1720 C   0  0  0  0  0  0  0  0  0  0  0  0
   58.1560   30.5840   44.9440 C   0  0  0  0  0  0  0  0  0  0  0  0
   58.3980   29.3010   44.6010 C   0  0  0  0  0  0  0  0  0  0  0  0
   57.6370   28.1300   45.0750 C   0  0  0  0  0  0  0  0  0  0  0  0
   56.2450   28.1900   45.2530 C   0  0  0  0  0  0  0  0  0  0  0  0
   55.5420   29.3510   44.9440 O   0  0  0  0  0  0  0  0  0  0  0  0
   55.5780   27.1060   45.7320 N   0  0  0  0  0  0  0  0  0  0  0  0
   56.2360   25.9660   46.0630 C   0  0  0  0  0  0  0  0  0  0  0  0
   55.5970   24.9760   46.5010 O   0  0  0  0  0  0  0  0  0  0  0  0
   57.5860   25.8970   45.9270 N   0  0  0  0  0  0  0  0  0  0  0  0
   58.2980   26.9500   45.4510 C   0  0  0  0  0  0  0  0  0  0  0  0
   59.5510   26.8530   45.3440 O   0  0  0  0  0  0  0  0  0  0  0  0
   57.7170   31.5690   44.0650 C   0  0  0  0  0  0  0  0  0  0  0  0
   57.4250   31.4080   42.6060 C   0  0  0  0  0  0  0  0  0  0  0  0
   57.6230   32.7490   44.7050 N   0  0  0  0  0  0  0  0  0  0  0  0
   57.9690   32.5620   45.9680 N   0  0  0  0  0  0  0  0  0  0  0  0
   57.9160   33.6490   46.9520 C   0  0  0  0  0  0  0  0  0  0  0  0
   59.1510   34.5410   46.8420 C   0  0  0  0  0  0  0  0  0  0  0  0
   59.3960   34.8690   45.5030 O   0  0  0  0  0  0  0  0  0  0  0  0
   58.5997   31.3698   48.2620 H   0  0  0  0  0  0  0  0  0  0  0  0
   58.6879   29.6362   47.4767 H   0  0  0  0  0  0  0  0  0  0  0  0
   59.2329   29.1132   43.9099 H   0  0  0  0  0  0  0  0  0  0  0  0
   55.4430   30.0960   45.6230 H   0  0  0  0  0  0  0  0  0  0  0  0
   56.4681   30.8804   42.4796 H   0  0  0  0  0  0  0  0  0  0  0  0
   57.3625   32.3992   42.1330 H   0  0  0  0  0  0  0  0  0  0  0  0
   58.2298   30.8261   42.1330 H   0  0  0  0  0  0  0  0  0  0  0  0
   57.0161   34.2552   46.7715 H   0  0  0  0  0  0  0  0  0  0  0  0
   57.8865   33.2106   47.9604 H   0  0  0  0  0  0  0  0  0  0  0  0
   58.9844   35.4638   47.4170 H   0  0  0  0  0  0  0  0  0  0  0  0
   60.0205   33.9991   47.2425 H   0  0  0  0  0  0  0  0  0  0  0  0
   58.7590   34.3290   44.9670 H   0  0  0  0  0  0  0  0  0  0  0  0
  1  2  2  0
  2  3  1  0
  3  4  2  3
  4  5  1  0
  5  6  2  0
  6  7  1  0
  6  8  1  0
  8  9  1  0
  9 10  2  0
  9 11  1  0
 11 12  1  0
 12 13  2  0
  3 14  1  0
 14 15  1  0
 14 16  2  0
 16 17  1  0
 17 18  1  0
 18 19  1  0
 19 20  1  0
 17  2  1  0
 12  5  1  0
  1 21  1  0
  1 22  1  0
  4 23  1  0
  7 24  1  0
 15 25  1  0
 15 26  1  0
 15 27  1  0
 18 28  1  0
 18 29  1  0
 19 30  1  0
 19 31  1  0
 20 32  1  0
M  CHG  2   8  -1  11  -1
M  END
>  <UniqueID>  (43) 
42

>  <SMILES>  (43) 
C=c1c(=Cc2c(O)[n-]c(=O)[n-]c2=O)c(C)nn1CCO

>  <Energy>  (43) 
75.01415327024958

>  <Genealogy>  (43) 
C=c1c(=Cc2c(O)[n-]c(=O)[n-]c2=O)c(C)nn1CCO (protonated)
C=c1c(=Cc2c(O)[n-]c(=O)[n-]c2=O)c(C)nn1CCO (3D coordinates assigned)
C=c1c(=Cc2c(O)[n-]c(=O)[n-]c2=O)c(C)nn1CCO (optimized conformer: 75.01415327024958 kcal/mol)

>  <smiles>  (43) 
C=c1c(=Cc2c(O)[nH]c(=O)[nH]c2=O)c(C)nn1CCO

>  <score_type>  (43) 
oracle

>  <origin>  (43) 
adg

>  <m_score__min__energy>  (43) 
-11.09

>  <m_primary>  (43) 
energy

$$$$
43:0
     RDKit          3D

 55 58  0  0  0  0  0  0  0  0999 V2000
   56.1060   26.5520   45.9050 O   0  0  0  0  0  0  0  0  0  0  0  0
   56.9790   27.4590   45.9360 C   0  0  0  0  0  0  0  0  0  0  0  0
   58.1890   27.2310   46.6750 N   0  0  0  0  0  0  0  0  0  0  0  0
   59.1940   28.2140   46.9580 C   0  0  0  0  0  0  0  0  0  0  0  0
   59.2840   28.7480   48.2480 C   0  0  0  0  0  0  0  0  0  0  0  0
   60.2240   29.7430   48.5380 C   0  0  0  0  0  0  0  0  0  0  0  0
   61.0990   30.1960   47.5400 C   0  0  0  0  0  0  0  0  0  0  0  0
   62.2610   31.4770   47.8710 S   0  0  0  0  0  0  0  0  0  0  0  0
   63.4470   31.3020   46.9680 O   0  0  0  0  0  0  0  0  0  0  0  0
   62.7300   31.4020   49.2970 O   0  0  0  0  0  0  0  0  0  0  0  0
   61.5330   33.0260   47.5680 N   0  0  0  0  0  0  0  0  0  0  0  0
   61.6650   33.8780   48.7550 C   0  0  0  0  0  0  0  0  0  0  0  0
   60.2940   34.1310   49.3900 C   0  0  0  0  0  0  0  0  0  0  0  0
   59.8010   32.9330   50.1600 C   0  0  0  0  0  0  0  0  0  0  0  0
   58.5550   32.3560   49.8610 C   0  0  0  0  0  0  0  0  0  0  0  0
   58.0910   31.2600   50.5960 C   0  0  0  0  0  0  0  0  0  0  0  0
   58.8610   30.7360   51.6350 C   0  0  0  0  0  0  0  0  0  0  0  0
   60.0980   31.3080   51.9430 C   0  0  0  0  0  0  0  0  0  0  0  0
   60.5680   32.4020   51.2100 C   0  0  0  0  0  0  0  0  0  0  0  0
   61.0350   29.6360   46.2570 C   0  0  0  0  0  0  0  0  0  0  0  0
   60.0970   28.6420   45.9700 C   0  0  0  0  0  0  0  0  0  0  0  0
   56.7040   28.7410   45.2590 C   0  0  0  0  0  0  0  0  0  0  0  0
   57.6240   29.7130   44.9240 C   0  0  0  0  0  0  0  0  0  0  0  0
   56.8690   30.6980   44.3230 C   0  0  0  0  0  0  0  0  0  0  0  0
   57.3940   31.9290   43.6470 C   0  0  0  0  0  0  0  0  0  0  0  0
   57.9910   32.8890   44.6410 C   0  0  0  0  0  0  0  0  0  0  0  0
   57.5560   32.8870   45.9750 C   0  0  0  0  0  0  0  0  0  0  0  0
   58.0800   33.8050   46.8890 C   0  0  0  0  0  0  0  0  0  0  0  0
   59.0430   34.7300   46.4780 C   0  0  0  0  0  0  0  0  0  0  0  0
   59.4770   34.7440   45.1510 C   0  0  0  0  0  0  0  0  0  0  0  0
   58.9490   33.8310   44.2320 C   0  0  0  0  0  0  0  0  0  0  0  0
   55.5730   30.3290   44.3120 N   0  0  0  0  0  0  0  0  0  0  0  0
   55.4710   29.1450   44.8950 N   0  0  0  0  0  0  0  0  0  0  0  0
   58.6119   28.3835   49.0388 H   0  0  0  0  0  0  0  0  0  0  0  0
   60.2768   30.1705   49.5501 H   0  0  0  0  0  0  0  0  0  0  0  0
   62.0820   33.4600   46.7910 H   0  0  0  0  0  0  0  0  0  0  0  0
   62.3166   33.3794   49.4876 H   0  0  0  0  0  0  0  0  0  0  0  0
   62.1005   34.8421   48.4538 H   0  0  0  0  0  0  0  0  0  0  0  0
   60.3726   34.9870   50.0763 H   0  0  0  0  0  0  0  0  0  0  0  0
   59.5766   34.3351   48.5815 H   0  0  0  0  0  0  0  0  0  0  0  0
   57.9421   32.7679   49.0457 H   0  0  0  0  0  0  0  0  0  0  0  0
   57.1167   30.8101   50.3543 H   0  0  0  0  0  0  0  0  0  0  0  0
   58.4945   29.8735   52.2110 H   0  0  0  0  0  0  0  0  0  0  0  0
   60.7035   30.8967   52.7641 H   0  0  0  0  0  0  0  0  0  0  0  0
   61.5425   32.8487   51.4567 H   0  0  0  0  0  0  0  0  0  0  0  0
   61.7259   29.9805   45.4734 H   0  0  0  0  0  0  0  0  0  0  0  0
   60.0649   28.1923   44.9666 H   0  0  0  0  0  0  0  0  0  0  0  0
   58.7103   29.7042   45.0967 H   0  0  0  0  0  0  0  0  0  0  0  0
   58.1682   31.6368   42.9222 H   0  0  0  0  0  0  0  0  0  0  0  0
   56.5557   32.4307   43.1416 H   0  0  0  0  0  0  0  0  0  0  0  0
   56.7990   32.1594   46.3028 H   0  0  0  0  0  0  0  0  0  0  0  0
   57.7339   33.7993   47.9331 H   0  0  0  0  0  0  0  0  0  0  0  0
   59.4595   35.4476   47.2002 H   0  0  0  0  0  0  0  0  0  0  0  0
   60.2345   35.4733   44.8280 H   0  0  0  0  0  0  0  0  0  0  0  0
   59.2855   33.8510   43.1849 H   0  0  0  0  0  0  0  0  0  0  0  0
  1  2  2  0
  2  3  1  0
  3  4  1  0
  4  5  2  0
  5  6  1  0
  6  7  2  0
  7  8  1  0
  8  9  2  0
  8 10  2  0
  8 11  1  0
 11 12  1  0
 12 13  1  0
 13 14  1  0
 14 15  2  0
 15 16  1  0
 16 17  2  0
 17 18  1  0
 18 19  2  0
  7 20  1  0
 20 21  2  0
  2 22  1  0
 22 23  2  0
 23 24  1  0
 24 25  1  0
 25 26  1  0
 26 27  2  0
 27 28  1  0
 28 29  2  0
 29 30  1  0
 30 31  2  0
 24 32  2  0
 32 33  1  0
 21  4  1  0
 33 22  1  0
 19 14  1  0
 31 26  1  0
  5 34  1  0
  6 35  1  0
 11 36  1  0
 12 37  1  0
 12 38  1  0
 13 39  1  0
 13 40  1  0
 15 41  1  0
 16 42  1  0
 17 43  1  0
 18 44  1  0
 19 45  1  0
 20 46  1  0
 21 47  1  0
 23 48  1  0
 25 49  1  0
 25 50  1  0
 27 51  1  0
 28 52  1  0
 29 53  1  0
 30 54  1  0
 31 55  1  0
M  CHG  2   3  -1  33  -1
M  END
>  <UniqueID>  (44) 
43

>  <SMILES>  (44) 
O=C([N-]c1ccc(S(=O)(=O)NCCc2ccccc2)cc1)c1cc(Cc2ccccc2)n[n-]1

>  <Energy>  (44) 
85.46183799410785

>  <Genealogy>  (44) 
O=C([N-]c1ccc(S(=O)(=O)NCCc2ccccc2)cc1)c1cc(Cc2ccccc2)n[n-]1 (protonated)
O=C([N-]c1ccc(S(=O)(=O)NCCc2ccccc2)cc1)c1cc(Cc2ccccc2)n[n-]1 (3D coordinates assigned)
O=C([N-]c1ccc(S(=O)(=O)NCCc2ccccc2)cc1)c1cc(Cc2ccccc2)n[n-]1 (optimized conformer: 85.46183799410785 kcal/mol)

>  <smiles>  (44) 
O=C(Nc1ccc(S(=O)(=O)NCCc2ccccc2)cc1)c1cc(Cc2ccccc2)n[nH]1

>  <score_type>  (44) 
oracle

>  <origin>  (44) 
adg

>  <m_score__min__energy>  (44) 
-13.449999999999999

>  <m_primary>  (44) 
energy

$$$$
44:0
     RDKit          3D

 54 57  0  0  0  0  0  0  0  0999 V2000
   58.1880   30.5800   47.3450 O   0  0  0  0  0  0  0  0  0  0  0  0
   59.3940   30.6190   46.9880 C   0  0  0  0  0  0  0  0  0  0  0  0
   59.9640   29.5150   46.2640 N   0  0  0  0  0  0  0  0  0  0  0  0
   59.3250   28.2360   46.1130 C   0  0  0  0  0  0  0  0  0  0  0  0
   60.1060   27.0700   46.1400 C   0  0  0  0  0  0  0  0  0  0  0  0
   59.5080   25.8130   46.0040 C   0  0  0  0  0  0  0  0  0  0  0  0
   58.1200   25.7050   45.8490 C   0  0  0  0  0  0  0  0  0  0  0  0
   57.3720   24.1210   45.6430 S   0  0  0  0  0  0  0  0  0  0  0  0
   55.8760   24.2730   45.6770 O   0  0  0  0  0  0  0  0  0  0  0  0
   57.7690   23.2450   46.8000 O   0  0  0  0  0  0  0  0  0  0  0  0
   57.8450   23.3420   44.1460 N   0  0  0  0  0  0  0  0  0  0  0  0
   58.0450   21.8880   44.3010 C   0  0  0  0  0  0  0  0  0  0  0  0
   56.7230   21.0870   44.2480 C   0  0  0  0  0  0  0  0  0  0  0  0
   55.6130   21.8610   43.8340 O   0  0  0  0  0  0  0  0  0  0  0  0
   55.9460   22.5920   42.6780 C   0  0  0  0  0  0  0  0  0  0  0  0
   56.9640   23.6950   43.0120 C   0  0  0  0  0  0  0  0  0  0  0  0
   57.3330   26.8640   45.8600 C   0  0  0  0  0  0  0  0  0  0  0  0
   57.9290   28.1210   45.9950 C   0  0  0  0  0  0  0  0  0  0  0  0
   60.2180   31.8170   47.2860 C   0  0  0  0  0  0  0  0  0  0  0  0
   61.6000   31.6570   47.4970 C   0  0  0  0  0  0  0  0  0  0  0  0
   62.4180   32.7640   47.7330 C   0  0  0  0  0  0  0  0  0  0  0  0
   61.8710   34.0460   47.7570 C   0  0  0  0  0  0  0  0  0  0  0  0
   60.5030   34.2260   47.5480 C   0  0  0  0  0  0  0  0  0  0  0  0
   59.6650   33.1220   47.3180 C   0  0  0  0  0  0  0  0  0  0  0  0
   58.2660   33.3410   47.0850 N   0  0  0  0  0  0  0  0  0  0  0  0
   57.7750   33.9400   45.8480 C   0  0  0  0  0  0  0  0  0  0  0  0
   57.7940   32.9200   44.7560 C   0  0  0  0  0  0  0  0  0  0  0  0
   58.3610   33.0830   43.4990 C   0  0  0  0  0  0  0  0  0  0  0  0
   58.1450   31.9870   42.6520 C   0  0  0  0  0  0  0  0  0  0  0  0
   57.3970   30.9710   43.2340 C   0  0  0  0  0  0  0  0  0  0  0  0
   57.0000   31.4380   44.8010 S   0  0  0  0  0  0  0  0  0  0  0  0
   60.8500   29.6830   45.7320 H   0  0  0  0  0  0  0  0  0  0  0  0
   61.1958   27.1454   46.2690 H   0  0  0  0  0  0  0  0  0  0  0  0
   60.1299   24.9058   46.0188 H   0  0  0  0  0  0  0  0  0  0  0  0
   58.7008   21.5361   43.4910 H   0  0  0  0  0  0  0  0  0  0  0  0
   58.4912   21.7211   45.2925 H   0  0  0  0  0  0  0  0  0  0  0  0
   56.8489   20.2527   43.5423 H   0  0  0  0  0  0  0  0  0  0  0  0
   56.5130   20.7390   45.2702 H   0  0  0  0  0  0  0  0  0  0  0  0
   56.3820   21.9109   41.9323 H   0  0  0  0  0  0  0  0  0  0  0  0
   55.0341   23.0593   42.2780 H   0  0  0  0  0  0  0  0  0  0  0  0
   57.5891   23.8757   42.1251 H   0  0  0  0  0  0  0  0  0  0  0  0
   56.3959   24.5910   43.3024 H   0  0  0  0  0  0  0  0  0  0  0  0
   56.2403   26.7843   45.7619 H   0  0  0  0  0  0  0  0  0  0  0  0
   57.3024   29.0250   46.0090 H   0  0  0  0  0  0  0  0  0  0  0  0
   62.0407   30.6494   47.4758 H   0  0  0  0  0  0  0  0  0  0  0  0
   63.4962   32.6241   47.9003 H   0  0  0  0  0  0  0  0  0  0  0  0
   62.5181   34.9163   47.9408 H   0  0  0  0  0  0  0  0  0  0  0  0
   60.0774   35.2402   47.5635 H   0  0  0  0  0  0  0  0  0  0  0  0
   57.5890   33.1730   47.8630 H   0  0  0  0  0  0  0  0  0  0  0  0
   56.7454   34.2973   45.9976 H   0  0  0  0  0  0  0  0  0  0  0  0
   58.4210   34.7857   45.5697 H   0  0  0  0  0  0  0  0  0  0  0  0
   58.9221   33.9802   43.1986 H   0  0  0  0  0  0  0  0  0  0  0  0
   58.5314   31.9362   41.6233 H   0  0  0  0  0  0  0  0  0  0  0  0
   57.1130   30.0235   42.7527 H   0  0  0  0  0  0  0  0  0  0  0  0
  1  2  2  0
  2  3  1  0
  3  4  1  0
  4  5  2  0
  5  6  1  0
  6  7  2  0
  7  8  1  0
  8  9  2  0
  8 10  2  0
  8 11  1  0
 11 12  1  0
 12 13  1  0
 13 14  1  0
 14 15  1  0
 15 16  1  0
  7 17  1  0
 17 18  2  0
  2 19  1  0
 19 20  2  0
 20 21  1  0
 21 22  2  0
 22 23  1  0
 23 24  2  0
 24 25  1  0
 25 26  1  0
 26 27  1  0
 27 28  2  0
 28 29  1  0
 29 30  2  0
 30 31  1  0
 18  4  1  0
 24 19  1  0
 31 27  1  0
 16 11  1  0
  3 32  1  0
  5 33  1  0
  6 34  1  0
 12 35  1  0
 12 36  1  0
 13 37  1  0
 13 38  1  0
 15 39  1  0
 15 40  1  0
 16 41  1  0
 16 42  1  0
 17 43  1  0
 18 44  1  0
 20 45  1  0
 21 46  1  0
 22 47  1  0
 23 48  1  0
 25 49  1  0
 26 50  1  0
 26 51  1  0
 28 52  1  0
 29 53  1  0
 30 54  1  0
M  END
>  <UniqueID>  (45) 
44

>  <SMILES>  (45) 
O=C(Nc1ccc(S(=O)(=O)N2CCOCC2)cc1)c1ccccc1NCc1cccs1

>  <Energy>  (45) 
103.96419589235367

>  <Genealogy>  (45) 
O=C(Nc1ccc(S(=O)(=O)N2CCOCC2)cc1)c1ccccc1NCc1cccs1 (3D coordinates assigned)
O=C(Nc1ccc(S(=O)(=O)N2CCOCC2)cc1)c1ccccc1NCc1cccs1 (nonaromatic ring conformer: 103.96419589235367 kcal/mol)

>  <smiles>  (45) 
O=C(Nc1ccc(S(=O)(=O)N2CCOCC2)cc1)c1ccccc1NCc1cccs1

>  <score_type>  (45) 
oracle

>  <origin>  (45) 
adg

>  <m_score__min__energy>  (45) 
-9.6199999999999992

>  <m_primary>  (45) 
energy

$$$$
45:0
     RDKit          3D

 36 38  0  0  0  0  0  0  0  0999 V2000
   55.1470   27.5460   45.4830 H   0  0  0  0  0  0  0  0  0  0  0  0
   55.0020   26.6820   45.9930 O   0  0  0  0  0  0  0  0  0  0  0  0
   56.0650   25.8270   46.2700 C   0  0  0  0  0  0  0  0  0  0  0  0
   55.8750   24.7700   47.1030 N   0  0  0  0  0  0  0  0  0  0  0  0
   56.8970   23.9360   47.4240 C   0  0  0  0  0  0  0  0  0  0  0  0
   56.6350   22.6760   48.4270 S   0  0  0  0  0  0  0  0  0  0  0  0
   58.1390   24.1580   46.9230 N   0  0  0  0  0  0  0  0  0  0  0  0
   58.3810   25.1980   46.0850 C   0  0  0  0  0  0  0  0  0  0  0  0
   59.5470   25.3750   45.6410 O   0  0  0  0  0  0  0  0  0  0  0  0
   57.3350   26.0580   45.7130 C   0  0  0  0  0  0  0  0  0  0  0  0
   57.5920   27.2100   44.8200 C   0  0  0  0  0  0  0  0  0  0  0  0
   57.2150   27.1637   43.7876 H   0  0  0  0  0  0  0  0  0  0  0  0
   58.2640   28.3130   45.2060 C   0  0  0  0  0  0  0  0  0  0  0  0
   59.5420   28.3470   45.7480 C   0  0  0  0  0  0  0  0  0  0  0  0
   60.2044   27.4866   45.9239 H   0  0  0  0  0  0  0  0  0  0  0  0
   59.8190   29.6710   46.0230 C   0  0  0  0  0  0  0  0  0  0  0  0
   61.0900   30.1640   46.6470 C   0  0  0  0  0  0  0  0  0  0  0  0
   60.9984   30.1285   47.7426 H   0  0  0  0  0  0  0  0  0  0  0  0
   61.9268   29.5253   46.3281 H   0  0  0  0  0  0  0  0  0  0  0  0
   61.2773   31.2000   46.3281 H   0  0  0  0  0  0  0  0  0  0  0  0
   58.7670   30.4520   45.6920 N   0  0  0  0  0  0  0  0  0  0  0  0
   58.6990   31.8790   45.8530 C   0  0  0  0  0  0  0  0  0  0  0  0
   58.8520   32.4520   47.1250 C   0  0  0  0  0  0  0  0  0  0  0  0
   59.0182   31.8067   48.0002 H   0  0  0  0  0  0  0  0  0  0  0  0
   58.7940   33.8390   47.2840 C   0  0  0  0  0  0  0  0  0  0  0  0
   58.9106   34.2828   48.2837 H   0  0  0  0  0  0  0  0  0  0  0  0
   58.5880   34.6630   46.1740 C   0  0  0  0  0  0  0  0  0  0  0  0
   58.5423   35.7547   46.3005 H   0  0  0  0  0  0  0  0  0  0  0  0
   58.4400   34.1000   44.9030 C   0  0  0  0  0  0  0  0  0  0  0  0
   58.2792   34.7498   44.0301 H   0  0  0  0  0  0  0  0  0  0  0  0
   58.4960   32.7120   44.7390 C   0  0  0  0  0  0  0  0  0  0  0  0
   58.3700   32.1780   43.4980 F   0  0  0  0  0  0  0  0  0  0  0  0
   57.8060   29.6350   45.1930 C   0  0  0  0  0  0  0  0  0  0  0  0
   56.6000   30.0570   44.7820 C   0  0  0  0  0  0  0  0  0  0  0  0
   56.3503   31.1277   44.8180 H   0  0  0  0  0  0  0  0  0  0  0  0
   55.8613   29.3322   44.4092 H   0  0  0  0  0  0  0  0  0  0  0  0
  1  2  1  0
  2  3  1  0
  3  4  1  0
  4  5  1  0
  5  6  2  0
  5  7  1  0
  7  8  1  0
  8  9  2  0
  8 10  1  0
 10 11  1  0
 11 12  1  0
 11 13  2  0
 13 14  1  0
 14 15  1  0
 14 16  2  0
 16 17  1  0
 17 18  1  0
 17 19  1  0
 17 20  1  0
 16 21  1  0
 21 22  1  0
 22 23  2  0
 23 24  1  0
 23 25  1  0
 25 26  1  0
 25 27  2  0
 27 28  1  0
 27 29  1  0
 29 30  1  0
 29 31  2  0
 31 32  1  0
 21 33  1  0
 33 34  2  0
 34 35  1  0
 34 36  1  0
 10  3  2  0
 33 13  1  0
 31 22  1  0
M  CHG  2   4  -1   7  -1
M  END
>  <UniqueID>  (46) 
45

>  <SMILES>  (46) 
C=c1/c(=C/c2c(O)[n-]c(=S)[n-]c2=O)cc(C)n1-c1ccccc1F

>  <Energy>  (46) 
82.77827604250554

>  <Genealogy>  (46) 
C=c1c(=Cc2c(O)[n-]c(=S)[n-]c2=O)cc(C)n1-c1ccccc1F (protonated)
C=c1/c(=C/c2c(O)[n-]c(=S)[n-]c2=O)cc(C)n1-c1ccccc1F (cis-trans isomerization)
C=c1/c(=C/c2c(O)[n-]c(=S)[n-]c2=O)cc(C)n1-c1ccccc1F (3D coordinates assigned)
C=c1/c(=C/c2c(O)[n-]c(=S)[n-]c2=O)cc(C)n1-c1ccccc1F (optimized conformer: 82.77827604250554 kcal/mol)

>  <smiles>  (46) 
C=c1c(=Cc2c(O)[nH]c(=S)[nH]c2=O)cc(C)n1-c1ccccc1F

>  <score_type>  (46) 
oracle

>  <origin>  (46) 
adg

>  <m_score__min__energy>  (46) 
-12.32

>  <m_primary>  (46) 
energy

$$$$
46:0
     RDKit          3D

 25 26  0  0  0  0  0  0  0  0999 V2000
   55.1430   27.6060   45.2580 H   0  0  0  0  0  0  0  0  0  0  0  0
   55.5630   27.0960   46.0250 O   0  0  0  0  0  0  0  0  0  0  0  0
   55.5930   25.7020   46.0770 C   0  0  0  0  0  0  0  0  0  0  0  0
   54.4930   25.0130   45.6800 N   0  0  0  0  0  0  0  0  0  0  0  0
   54.4490   23.6580   45.7370 C   0  0  0  0  0  0  0  0  0  0  0  0
   53.4170   23.0450   45.3590 O   0  0  0  0  0  0  0  0  0  0  0  0
   55.5150   22.9620   46.2070 N   0  0  0  0  0  0  0  0  0  0  0  0
   56.6430   23.5980   46.6130 C   0  0  0  0  0  0  0  0  0  0  0  0
   57.6160   22.9200   47.0400 O   0  0  0  0  0  0  0  0  0  0  0  0
   56.7230   24.9980   46.5430 C   0  0  0  0  0  0  0  0  0  0  0  0
   57.9580   25.6920   46.9630 C   0  0  0  0  0  0  0  0  0  0  0  0
   58.0540   25.9931   48.0166 H   0  0  0  0  0  0  0  0  0  0  0  0
   58.9680   25.9740   46.1270 C   0  0  0  0  0  0  0  0  0  0  0  0
   59.5030   25.1322   45.6632 H   0  0  0  0  0  0  0  0  0  0  0  0
   59.4160   27.3690   45.7830 C   0  0  0  0  0  0  0  0  0  0  0  0
   59.8259   27.8463   46.6853 H   0  0  0  0  0  0  0  0  0  0  0  0
   60.1810   27.3034   44.9953 H   0  0  0  0  0  0  0  0  0  0  0  0
   58.2770   28.1960   45.2680 C   0  0  0  0  0  0  0  0  0  0  0  0
   57.4600   29.0260   46.0080 C   0  0  0  0  0  0  0  0  0  0  0  0
   57.5441   29.2031   47.0904 H   0  0  0  0  0  0  0  0  0  0  0  0
   56.5660   29.5710   45.2150 O   0  0  0  0  0  0  0  0  0  0  0  0
   56.7600   29.1360   43.9900 C   0  0  0  0  0  0  0  0  0  0  0  0
   56.1588   29.4235   43.1148 H   0  0  0  0  0  0  0  0  0  0  0  0
   57.8300   28.2650   43.9650 C   0  0  0  0  0  0  0  0  0  0  0  0
   58.2397   27.7375   43.0910 H   0  0  0  0  0  0  0  0  0  0  0  0
  1  2  1  0
  2  3  1  0
  3  4  1  0
  4  5  1  0
  5  6  2  0
  5  7  1  0
  7  8  1  0
  8  9  2  0
  8 10  1  0
 10 11  1  0
 11 12  1  0
 11 13  2  0
 13 14  1  0
 13 15  1  0
 15 16  1  0
 15 17  1  0
 15 18  1  0
 18 19  2  0
 19 20  1  0
 19 21  1  0
 21 22  1  0
 22 23  1  0
 22 24  2  0
 24 25  1  0
 10  3  2  0
 24 18  1  0
M  CHG  2   4  -1   7  -1
M  END
>  <UniqueID>  (47) 
46

>  <SMILES>  (47) 
O=c1[n-]c(O)c(/C=C\Cc2ccoc2)c(=O)[n-]1

>  <Energy>  (47) 
58.001896834787104

>  <Genealogy>  (47) 
O=c1[n-]c(O)c(C=CCc2ccoc2)c(=O)[n-]1 (protonated)
O=c1[n-]c(O)c(/C=C\Cc2ccoc2)c(=O)[n-]1 (cis-trans isomerization)
O=c1[n-]c(O)c(/C=C\Cc2ccoc2)c(=O)[n-]1 (3D coordinates assigned)
O=c1[n-]c(O)c(/C=C\Cc2ccoc2)c(=O)[n-]1 (optimized conformer: 58.001896834787104 kcal/mol)

>  <smiles>  (47) 
O=c1[nH]c(O)c(C=CCc2ccoc2)c(=O)[nH]1

>  <score_type>  (47) 
oracle

>  <origin>  (47) 
adg

>  <m_score__min__energy>  (47) 
-10.77

>  <m_primary>  (47) 
energy

$$$$
47:0
     RDKit          3D

 41 43  0  0  0  0  0  0  0  0999 V2000
   56.6140   29.9210   42.6210 C   0  0  0  0  0  0  0  0  0  0  0  0
   56.2570   29.5760   44.3310 S   0  0  0  0  0  0  0  0  0  0  0  0
   54.7790   29.3480   44.4680 O   0  0  0  0  0  0  0  0  0  0  0  0
   56.6500   30.7560   45.1730 O   0  0  0  0  0  0  0  0  0  0  0  0
   57.0920   28.1660   44.8950 N   0  0  0  0  0  0  0  0  0  0  0  0
   58.0860   28.2180   45.9210 C   0  0  0  0  0  0  0  0  0  0  0  0
   58.9520   29.3360   45.9850 C   0  0  0  0  0  0  0  0  0  0  0  0
   59.9570   29.4120   46.9630 C   0  0  0  0  0  0  0  0  0  0  0  0
   61.0290   30.8470   47.0770 S   0  0  0  0  0  0  0  0  0  0  0  0
   60.7390   31.1130   48.8610 C   0  0  0  0  0  0  0  0  0  0  0  0
   59.2890   31.4170   49.1170 C   0  0  0  0  0  0  0  0  0  0  0  0
   58.5220   30.4790   49.4590 O   0  0  0  0  0  0  0  0  0  0  0  0
   58.7230   32.7090   48.8560 N   0  0  0  0  0  0  0  0  0  0  0  0
   58.6330   33.3500   47.5770 C   0  0  0  0  0  0  0  0  0  0  0  0
   57.5540   33.1050   46.7110 C   0  0  0  0  0  0  0  0  0  0  0  0
   57.5090   33.7180   45.4550 C   0  0  0  0  0  0  0  0  0  0  0  0
   58.5440   34.5660   45.0530 C   0  0  0  0  0  0  0  0  0  0  0  0
   59.6320   34.7930   45.9010 C   0  0  0  0  0  0  0  0  0  0  0  0
   59.6830   34.1730   47.1530 C   0  0  0  0  0  0  0  0  0  0  0  0
   60.0990   28.3380   47.8330 C   0  0  0  0  0  0  0  0  0  0  0  0
   59.2930   27.2460   47.7660 C   0  0  0  0  0  0  0  0  0  0  0  0
   58.2620   27.1280   46.8220 C   0  0  0  0  0  0  0  0  0  0  0  0
   57.4190   25.9570   46.7950 N   0  0  0  0  0  0  0  0  0  0  0  0
   56.1770   26.0760   46.7440 O   0  0  0  0  0  0  0  0  0  0  0  0
   57.9550   24.6910   46.7840 O   0  0  0  0  0  0  0  0  0  0  0  0
   59.6600   26.3560   48.7600 O   0  0  0  0  0  0  0  0  0  0  0  0
   60.7530   26.9220   49.4930 C   0  0  0  0  0  0  0  0  0  0  0  0
   61.0050   28.1840   48.8650 O   0  0  0  0  0  0  0  0  0  0  0  0
   57.4037   30.6842   42.5580 H   0  0  0  0  0  0  0  0  0  0  0  0
   56.9536   29.0001   42.1243 H   0  0  0  0  0  0  0  0  0  0  0  0
   55.7053   30.2918   42.1243 H   0  0  0  0  0  0  0  0  0  0  0  0
   58.8363   30.1551   45.2599 H   0  0  0  0  0  0  0  0  0  0  0  0
   61.0219   30.2049   49.4135 H   0  0  0  0  0  0  0  0  0  0  0  0
   61.3471   31.9655   49.1980 H   0  0  0  0  0  0  0  0  0  0  0  0
   56.7432   32.4297   47.0216 H   0  0  0  0  0  0  0  0  0  0  0  0
   56.6581   33.5324   44.7830 H   0  0  0  0  0  0  0  0  0  0  0  0
   58.5028   35.0553   44.0687 H   0  0  0  0  0  0  0  0  0  0  0  0
   60.4476   35.4592   45.5833 H   0  0  0  0  0  0  0  0  0  0  0  0
   60.5522   34.3326   47.8080 H   0  0  0  0  0  0  0  0  0  0  0  0
   60.4787   27.0633   50.5489 H   0  0  0  0  0  0  0  0  0  0  0  0
   61.6393   26.2706   49.4828 H   0  0  0  0  0  0  0  0  0  0  0  0
  1  2  1  0
  2  3  2  0
  2  4  2  0
  2  5  1  0
  5  6  1  0
  6  7  2  0
  7  8  1  0
  8  9  1  0
  9 10  1  0
 10 11  1  0
 11 12  2  0
 11 13  1  0
 13 14  1  0
 14 15  2  0
 15 16  1  0
 16 17  2  0
 17 18  1  0
 18 19  2  0
  8 20  2  0
 20 21  1  0
 21 22  2  0
 22 23  1  0
 23 24  2  0
 23 25  1  0
 21 26  1  0
 26 27  1  0
 27 28  1  0
 22  6  1  0
 19 14  1  0
 28 20  1  0
  1 29  1  0
  1 30  1  0
  1 31  1  0
  7 32  1  0
 10 33  1  0
 10 34  1  0
 15 35  1  0
 16 36  1  0
 17 37  1  0
 18 38  1  0
 19 39  1  0
 27 40  1  0
 27 41  1  0
M  CHG  4   5  -1  13  -1  23   1  25  -1
M  END
>  <UniqueID>  (48) 
47

>  <SMILES>  (48) 
CS(=O)(=O)[N-]c1cc(SCC(=O)[N-]c2ccccc2)c2c(c1[N+](=O)[O-])OCO2

>  <Energy>  (48) 
72.83437558550216

>  <Genealogy>  (48) 
CS(=O)(=O)[N-]c1cc(SCC(=O)[N-]c2ccccc2)c2c(c1[N+](=O)[O-])OCO2 (protonated)
CS(=O)(=O)[N-]c1cc(SCC(=O)[N-]c2ccccc2)c2c(c1[N+](=O)[O-])OCO2 (3D coordinates assigned)
CS(=O)(=O)[N-]c1cc(SCC(=O)[N-]c2ccccc2)c2c(c1[N+](=O)[O-])OCO2 (nonaromatic ring conformer: 72.83437558550216 kcal/mol)

>  <smiles>  (48) 
CS(=O)(=O)Nc1cc(SCC(=O)Nc2ccccc2)c2c(c1[N+](=O)[O-])OCO2

>  <score_type>  (48) 
oracle

>  <origin>  (48) 
adg

>  <m_score__min__energy>  (48) 
-11.85

>  <m_primary>  (48) 
energy

$$$$
48:0
     RDKit          3D

 49 51  0  0  0  0  0  0  0  0999 V2000
   61.2560   28.4740   50.7720 C   0  0  0  0  0  0  0  0  0  0  0  0
   60.8670   29.8650   50.4790 N   0  0  0  0  0  0  0  0  0  0  0  0
   61.5720   30.3830   49.2830 C   0  0  0  0  0  0  0  0  0  0  0  0
   60.8440   30.0480   47.9730 C   0  0  0  0  0  0  0  0  0  0  0  0
   59.4300   30.4180   48.0570 N   0  0  0  0  0  0  0  0  0  0  0  0
   58.6320   30.4390   46.8640 C   0  0  0  0  0  0  0  0  0  0  0  0
   58.4790   31.6490   46.1790 C   0  0  0  0  0  0  0  0  0  0  0  0
   57.7240   31.7040   45.0120 C   0  0  0  0  0  0  0  0  0  0  0  0
   57.6400   32.9290   44.3320 O   0  0  0  0  0  0  0  0  0  0  0  0
   57.7440   34.2200   44.9390 C   0  0  0  0  0  0  0  0  0  0  0  0
   59.1930   34.7250   44.9390 C   0  0  0  0  0  0  0  0  0  0  0  0
   59.8770   34.4310   46.2490 C   0  0  0  0  0  0  0  0  0  0  0  0
   59.2080   34.6540   47.4640 C   0  0  0  0  0  0  0  0  0  0  0  0
   59.8250   34.3330   48.6770 C   0  0  0  0  0  0  0  0  0  0  0  0
   61.1060   33.7750   48.6860 C   0  0  0  0  0  0  0  0  0  0  0  0
   61.7760   33.5400   47.4800 C   0  0  0  0  0  0  0  0  0  0  0  0
   63.3760   32.8210   47.4890 Cl  0  0  0  0  0  0  0  0  0  0  0  0
   61.1660   33.8690   46.2660 C   0  0  0  0  0  0  0  0  0  0  0  0
   57.0870   30.5420   44.5620 C   0  0  0  0  0  0  0  0  0  0  0  0
   57.2430   29.3450   45.2670 C   0  0  0  0  0  0  0  0  0  0  0  0
   56.6440   28.3140   44.8520 O   0  0  0  0  0  0  0  0  0  0  0  0
   58.0340   29.2930   46.3910 N   0  0  0  0  0  0  0  0  0  0  0  0
   58.2040   28.0230   47.1170 C   0  0  0  0  0  0  0  0  0  0  0  0
   58.8760   30.9020   49.3190 C   0  0  0  0  0  0  0  0  0  0  0  0
   59.3860   30.0170   50.4620 C   0  0  0  0  0  0  0  0  0  0  0  0
   61.2973   28.3265   51.8613 H   0  0  0  0  0  0  0  0  0  0  0  0
   60.5156   27.7868   50.3367 H   0  0  0  0  0  0  0  0  0  0  0  0
   62.2455   28.2705   50.3367 H   0  0  0  0  0  0  0  0  0  0  0  0
   61.6548   31.4765   49.3697 H   0  0  0  0  0  0  0  0  0  0  0  0
   62.5602   29.9013   49.2459 H   0  0  0  0  0  0  0  0  0  0  0  0
   61.3137   30.6022   47.1470 H   0  0  0  0  0  0  0  0  0  0  0  0
   60.9160   28.9648   47.7957 H   0  0  0  0  0  0  0  0  0  0  0  0
   58.9578   32.5610   46.5649 H   0  0  0  0  0  0  0  0  0  0  0  0
   57.1178   34.9300   44.3789 H   0  0  0  0  0  0  0  0  0  0  0  0
   57.4060   34.1395   45.9827 H   0  0  0  0  0  0  0  0  0  0  0  0
   59.7452   34.2285   44.1275 H   0  0  0  0  0  0  0  0  0  0  0  0
   59.1800   35.8150   44.7919 H   0  0  0  0  0  0  0  0  0  0  0  0
   58.1950   35.0827   47.4611 H   0  0  0  0  0  0  0  0  0  0  0  0
   59.3010   34.5201   49.6259 H   0  0  0  0  0  0  0  0  0  0  0  0
   61.5880   33.5203   49.6414 H   0  0  0  0  0  0  0  0  0  0  0  0
   61.6967   33.6875   45.3197 H   0  0  0  0  0  0  0  0  0  0  0  0
   56.4648   30.5705   43.6553 H   0  0  0  0  0  0  0  0  0  0  0  0
   58.1785   28.2135   48.2001 H   0  0  0  0  0  0  0  0  0  0  0  0
   57.3900   27.3343   46.8466 H   0  0  0  0  0  0  0  0  0  0  0  0
   59.1704   27.5726   46.8466 H   0  0  0  0  0  0  0  0  0  0  0  0
   59.1951   31.9412   49.4871 H   0  0  0  0  0  0  0  0  0  0  0  0
   57.7774   30.8625   49.2812 H   0  0  0  0  0  0  0  0  0  0  0  0
   59.0708   30.4644   51.4162 H   0  0  0  0  0  0  0  0  0  0  0  0
   58.9592   29.0145   50.3106 H   0  0  0  0  0  0  0  0  0  0  0  0
  1  2  1  0
  2  3  1  0
  3  4  1  0
  4  5  1  0
  5  6  1  0
  6  7  2  0
  7  8  1  0
  8  9  1  0
  9 10  1  0
 10 11  1  0
 11 12  1  0
 12 13  2  0
 13 14  1  0
 14 15  2  0
 15 16  1  0
 16 17  1  0
 16 18  2  0
  8 19  2  0
 19 20  1  0
 20 21  2  0
 20 22  1  0
 22 23  1  0
  5 24  1  0
 24 25  1  0
 25  2  1  0
 22  6  1  0
 18 12  1  0
  1 26  1  0
  1 27  1  0
  1 28  1  0
  3 29  1  0
  3 30  1  0
  4 31  1  0
  4 32  1  0
  7 33  1  0
 10 34  1  0
 10 35  1  0
 11 36  1  0
 11 37  1  0
 13 38  1  0
 14 39  1  0
 15 40  1  0
 18 41  1  0
 19 42  1  0
 23 43  1  0
 23 44  1  0
 23 45  1  0
 24 46  1  0
 24 47  1  0
 25 48  1  0
 25 49  1  0
M  END
>  <UniqueID>  (49) 
48

>  <SMILES>  (49) 
CN1CCN(c2cc(OCCc3cccc(Cl)c3)cc(=O)n2C)CC1

>  <Energy>  (49) 
62.07494364523791

>  <Genealogy>  (49) 
CN1CCN(c2cc(OCCc3cccc(Cl)c3)cc(=O)n2C)CC1 (3D coordinates assigned)
CN1CCN(c2cc(OCCc3cccc(Cl)c3)cc(=O)n2C)CC1 (nonaromatic ring conformer: 62.07494364523791 kcal/mol)

>  <smiles>  (49) 
CN1CCN(c2cc(OCCc3cccc(Cl)c3)cc(=O)n2C)CC1

>  <score_type>  (49) 
oracle

>  <origin>  (49) 
adg

>  <m_score__min__energy>  (49) 
-7.4100000000000001

>  <m_primary>  (49) 
energy

$$$$
49:0
     RDKit          3D

 59 62  0  0  0  0  0  0  0  0999 V2000
   54.7730   28.9800   44.4960 O   0  0  0  0  0  0  0  0  0  0  0  0
   56.0760   29.4470   44.6130 C   0  0  0  0  0  0  0  0  0  0  0  0
   57.0470   28.6590   45.2410 C   0  0  0  0  0  0  0  0  0  0  0  0
   58.3580   29.1290   45.3610 C   0  0  0  0  0  0  0  0  0  0  0  0
   58.7020   30.3850   44.8550 C   0  0  0  0  0  0  0  0  0  0  0  0
   57.7340   31.1830   44.2230 C   0  0  0  0  0  0  0  0  0  0  0  0
   58.1040   32.5480   43.6880 C   0  0  0  0  0  0  0  0  0  0  0  0
   57.6820   33.6510   44.5910 N   0  0  1  0  0  0  0  0  0  0  0  0
   57.0950   33.1040   45.8530 C   0  0  0  0  0  0  0  0  0  0  0  0
   57.7160   33.6820   47.1390 C   0  0  0  0  0  0  0  0  0  0  0  0
   59.2650   33.5430   47.1350 C   0  0  1  0  0  0  0  0  0  0  0  0
   59.8130   34.3380   48.3510 C   0  0  0  0  0  0  0  0  0  0  0  0
   61.3370   34.1910   48.5210 C   0  0  0  0  0  0  0  0  0  0  0  0
   61.8510   32.8310   48.0310 C   0  0  0  0  0  0  0  0  0  0  0  0
   60.8120   31.8020   48.2120 N   0  0  0  0  0  0  0  0  0  0  0  0
   61.3850   30.4480   48.0460 C   0  0  0  0  0  0  0  0  0  0  0  0
   60.4890   29.3630   48.6710 C   0  0  0  0  0  0  0  0  0  0  0  0
   60.3790   29.4610   50.2020 C   0  0  0  0  0  0  0  0  0  0  0  0
   59.5830   30.6560   50.6340 C   0  0  0  0  0  0  0  0  0  0  0  0
   58.2000   30.7730   50.5890 C   0  0  0  0  0  0  0  0  0  0  0  0
   57.7350   31.9840   51.1140 C   0  0  0  0  0  0  0  0  0  0  0  0
   58.7450   32.8160   51.5780 C   0  0  0  0  0  0  0  0  0  0  0  0
   60.2200   32.0440   51.3380 S   0  0  0  0  0  0  0  0  0  0  0  0
   59.6600   32.0260   47.3010 C   0  0  0  0  0  0  0  0  0  0  0  0
   59.8430   34.1350   45.7980 C   0  0  0  0  0  0  0  0  0  0  0  0
   58.7640   34.6410   44.8240 C   0  0  0  0  0  0  0  0  0  0  0  0
   56.4170   30.7040   44.1050 C   0  0  0  0  0  0  0  0  0  0  0  0
   56.7786   27.6698   45.6402 H   0  0  0  0  0  0  0  0  0  0  0  0
   59.1204   28.5086   45.8549 H   0  0  0  0  0  0  0  0  0  0  0  0
   59.7350   30.7505   44.9519 H   0  0  0  0  0  0  0  0  0  0  0  0
   59.1960   32.5932   43.5635 H   0  0  0  0  0  0  0  0  0  0  0  0
   57.5799   32.6832   42.7304 H   0  0  0  0  0  0  0  0  0  0  0  0
   56.9130   34.1690   44.1020 H   0  0  0  0  0  0  0  0  0  0  0  0
   57.2424   32.0139   45.8582 H   0  0  0  0  0  0  0  0  0  0  0  0
   56.0328   33.3897   45.8581 H   0  0  0  0  0  0  0  0  0  0  0  0
   57.3106   33.1407   48.0065 H   0  0  0  0  0  0  0  0  0  0  0  0
   57.4651   34.7516   47.1934 H   0  0  0  0  0  0  0  0  0  0  0  0
   59.5759   35.4029   48.2107 H   0  0  0  0  0  0  0  0  0  0  0  0
   59.3375   33.9304   49.2553 H   0  0  0  0  0  0  0  0  0  0  0  0
   61.8350   34.9852   47.9455 H   0  0  0  0  0  0  0  0  0  0  0  0
   61.5641   34.2687   49.5945 H   0  0  0  0  0  0  0  0  0  0  0  0
   62.1101   32.9028   46.9644 H   0  0  0  0  0  0  0  0  0  0  0  0
   62.7406   32.5509   48.6142 H   0  0  0  0  0  0  0  0  0  0  0  0
   61.4988   30.2396   46.9719 H   0  0  0  0  0  0  0  0  0  0  0  0
   62.3570   30.4245   48.5605 H   0  0  0  0  0  0  0  0  0  0  0  0
   59.4799   29.4566   48.2433 H   0  0  0  0  0  0  0  0  0  0  0  0
   60.9521   28.3917   48.4427 H   0  0  0  0  0  0  0  0  0  0  0  0
   59.8891   28.5522   50.5815 H   0  0  0  0  0  0  0  0  0  0  0  0
   61.3956   29.5654   50.6091 H   0  0  0  0  0  0  0  0  0  0  0  0
   57.5382   29.9940   50.1826 H   0  0  0  0  0  0  0  0  0  0  0  0
   56.6689   32.2517   51.1552 H   0  0  0  0  0  0  0  0  0  0  0  0
   58.6045   33.8107   52.0262 H   0  0  0  0  0  0  0  0  0  0  0  0
   59.9185   31.6246   46.3100 H   0  0  0  0  0  0  0  0  0  0  0  0
   58.7939   31.5169   47.7490 H   0  0  0  0  0  0  0  0  0  0  0  0
   60.4242   33.3490   45.2936 H   0  0  0  0  0  0  0  0  0  0  0  0
   60.4589   35.0040   46.0728 H   0  0  0  0  0  0  0  0  0  0  0  0
   59.2419   34.8712   43.8603 H   0  0  0  0  0  0  0  0  0  0  0  0
   58.3033   35.5312   45.2771 H   0  0  0  0  0  0  0  0  0  0  0  0
   55.6520   31.3210   43.6109 H   0  0  0  0  0  0  0  0  0  0  0  0
  1  2  1  0
  2  3  2  0
  3  4  1  0
  4  5  2  0
  5  6  1  0
  6  7  1  0
  7  8  1  0
  8  9  1  0
  9 10  1  0
 11 10  1  6
 11 12  1  0
 12 13  1  0
 13 14  1  0
 14 15  1  0
 15 16  1  0
 16 17  1  0
 17 18  1  0
 18 19  1  0
 19 20  2  0
 20 21  1  0
 21 22  2  0
 22 23  1  0
 15 24  1  0
 11 25  1  0
 25 26  1  0
  6 27  2  0
 27  2  1  0
 26  8  1  0
 24 11  1  0
 23 19  1  0
  3 28  1  0
  4 29  1  0
  5 30  1  0
  7 31  1  0
  7 32  1  0
  8 33  1  6
  9 34  1  0
  9 35  1  0
 10 36  1  0
 10 37  1  0
 12 38  1  0
 12 39  1  0
 13 40  1  0
 13 41  1  0
 14 42  1  0
 14 43  1  0
 16 44  1  0
 16 45  1  0
 17 46  1  0
 17 47  1  0
 18 48  1  0
 18 49  1  0
 20 50  1  0
 21 51  1  0
 22 52  1  0
 24 53  1  0
 24 54  1  0
 25 55  1  0
 25 56  1  0
 26 57  1  0
 26 58  1  0
 27 59  1  0
M  CHG  2   1  -1   8   1
M  END
>  <UniqueID>  (50) 
49

>  <SMILES>  (50) 
[O-]c1cccc(C[NH+]2CCC3(CCCN(CCCc4cccs4)C3)CC2)c1

>  <Energy>  (50) 
104.85846238446963

>  <Genealogy>  (50) 
[O-]c1cccc(C[NH+]2CCC3(CCCN(CCCc4cccs4)C3)CC2)c1 (protonated)
[O-]c1cccc(C[NH+]2CCC3(CCCN(CCCc4cccs4)C3)CC2)c1 (3D coordinates assigned)
[O-]c1cccc(C[NH+]2CCC3(CCCN(CCCc4cccs4)C3)CC2)c1 (nonaromatic ring conformer: 104.85846238446963 kcal/mol)

>  <smiles>  (50) 
Oc1cccc(CN2CCC3(CCCN(CCCc4cccs4)C3)CC2)c1

>  <score_type>  (50) 
oracle

>  <origin>  (50) 
adg

>  <m_score__min__energy>  (50) 
-11.380000000000001

>  <m_primary>  (50) 
energy

$$$$
50:0
     RDKit          3D

 59 62  0  0  0  0  0  0  0  0999 V2000
   56.8890   25.5460   47.0860 O   0  0  0  0  0  0  0  0  0  0  0  0
   55.8990   25.8410   46.3680 C   0  0  0  0  0  0  0  0  0  0  0  0
   54.8440   24.8890   46.2120 N   0  0  0  0  0  0  0  0  0  0  0  0
   54.4750   24.2930   44.9330 C   0  0  0  0  0  0  0  0  0  0  0  0
   55.5580   23.3640   44.4540 C   0  0  0  0  0  0  0  0  0  0  0  0
   56.4420   22.7610   45.3660 C   0  0  0  0  0  0  0  0  0  0  0  0
   57.4310   21.8820   44.9130 C   0  0  0  0  0  0  0  0  0  0  0  0
   57.5450   21.6000   43.5480 C   0  0  0  0  0  0  0  0  0  0  0  0
   56.6690   22.1930   42.6360 C   0  0  0  0  0  0  0  0  0  0  0  0
   55.6760   23.0710   43.0860 C   0  0  0  0  0  0  0  0  0  0  0  0
   55.8440   27.0950   45.6740 N   0  0  0  0  0  0  0  0  0  0  0  0
   56.9580   27.9240   45.3100 C   0  0  0  0  0  0  0  0  0  0  0  0
   58.0710   27.3230   44.7130 C   0  0  0  0  0  0  0  0  0  0  0  0
   59.1620   28.0970   44.3140 C   0  0  0  0  0  0  0  0  0  0  0  0
   59.1440   29.4820   44.4960 C   0  0  0  0  0  0  0  0  0  0  0  0
   58.0290   30.1080   45.0770 C   0  0  0  0  0  0  0  0  0  0  0  0
   58.0020   31.5390   45.2420 N   0  0  0  0  0  0  0  0  0  0  0  0
   57.0150   32.3790   44.8550 C   0  0  0  0  0  0  0  0  0  0  0  0
   57.3960   33.6630   45.1820 C   0  0  0  0  0  0  0  0  0  0  0  0
   56.6600   34.8140   44.9340 O   0  0  0  0  0  0  0  0  0  0  0  0
   58.6060   33.6410   45.7750 N   0  0  0  0  0  0  0  0  0  0  0  0
   59.4150   34.7850   46.1890 C   0  0  0  0  0  0  0  0  0  0  0  0
   60.0590   34.5010   47.5100 C   0  0  0  0  0  0  0  0  0  0  0  0
   59.5260   34.9380   48.5670 O   0  0  0  0  0  0  0  0  0  0  0  0
   61.2390   33.6930   47.5770 N   0  0  0  0  0  0  0  0  0  0  0  0
   61.8600   33.3540   48.8570 C   0  0  0  0  0  0  0  0  0  0  0  0
   60.8860   32.6070   49.7780 C   0  0  0  0  0  0  0  0  0  0  0  0
   60.3800   31.3370   49.1400 C   0  0  0  0  0  0  0  0  0  0  0  0
   61.2490   30.5040   48.4200 C   0  0  0  0  0  0  0  0  0  0  0  0
   60.7600   29.3210   47.8600 C   0  0  0  0  0  0  0  0  0  0  0  0
   59.4530   28.9810   48.0150 N   0  0  0  0  0  0  0  0  0  0  0  0
   58.5900   29.7700   48.7100 C   0  0  0  0  0  0  0  0  0  0  0  0
   59.0370   30.9600   49.2870 C   0  0  0  0  0  0  0  0  0  0  0  0
   58.9550   32.3380   45.7810 C   0  0  0  0  0  0  0  0  0  0  0  0
   60.0670   31.9200   46.2050 O   0  0  0  0  0  0  0  0  0  0  0  0
   56.9300   29.3210   45.4690 C   0  0  0  0  0  0  0  0  0  0  0  0
   53.5394   23.7271   45.0535 H   0  0  0  0  0  0  0  0  0  0  0  0
   54.3397   25.0947   44.1921 H   0  0  0  0  0  0  0  0  0  0  0  0
   56.3554   22.9815   46.4402 H   0  0  0  0  0  0  0  0  0  0  0  0
   58.1196   21.4122   45.6307 H   0  0  0  0  0  0  0  0  0  0  0  0
   58.3250   20.9107   43.1924 H   0  0  0  0  0  0  0  0  0  0  0  0
   56.7595   21.9698   41.5627 H   0  0  0  0  0  0  0  0  0  0  0  0
   54.9855   23.5331   42.3651 H   0  0  0  0  0  0  0  0  0  0  0  0
   58.0867   26.2342   44.5570 H   0  0  0  0  0  0  0  0  0  0  0  0
   60.0380   27.6152   43.8552 H   0  0  0  0  0  0  0  0  0  0  0  0
   60.0083   30.0859   44.1824 H   0  0  0  0  0  0  0  0  0  0  0  0
   56.0737   32.0887   44.3654 H   0  0  0  0  0  0  0  0  0  0  0  0
   60.1945   34.9724   45.4358 H   0  0  0  0  0  0  0  0  0  0  0  0
   58.7693   35.6705   46.2834 H   0  0  0  0  0  0  0  0  0  0  0  0
   61.6460   33.3320   46.6840 H   0  0  0  0  0  0  0  0  0  0  0  0
   62.7359   32.7152   48.6706 H   0  0  0  0  0  0  0  0  0  0  0  0
   62.1545   34.2897   49.3547 H   0  0  0  0  0  0  0  0  0  0  0  0
   61.4039   32.3538   50.7148 H   0  0  0  0  0  0  0  0  0  0  0  0
   60.0236   33.2623   49.9699 H   0  0  0  0  0  0  0  0  0  0  0  0
   62.3068   30.7798   48.2972 H   0  0  0  0  0  0  0  0  0  0  0  0
   61.4344   28.6631   47.2922 H   0  0  0  0  0  0  0  0  0  0  0  0
   57.5373   29.4696   48.8176 H   0  0  0  0  0  0  0  0  0  0  0  0
   58.3413   31.5972   49.8526 H   0  0  0  0  0  0  0  0  0  0  0  0
   56.0416   29.8027   45.9034 H   0  0  0  0  0  0  0  0  0  0  0  0
  1  2  2  0
  2  3  1  0
  3  4  1  0
  4  5  1  0
  5  6  2  0
  6  7  1  0
  7  8  2  0
  8  9  1  0
  9 10  2  0
  2 11  1  0
 11 12  1  0
 12 13  2  0
 13 14  1  0
 14 15  2  0
 15 16  1  0
 16 17  1  0
 17 18  1  0
 18 19  2  0
 19 20  1  0
 19 21  1  0
 21 22  1  0
 22 23  1  0
 23 24  2  0
 23 25  1  0
 25 26  1  0
 26 27  1  0
 27 28  1  0
 28 29  2  0
 29 30  1  0
 30 31  2  0
 31 32  1  0
 32 33  2  0
 21 34  1  0
 34 35  2  0
 16 36  2  0
 10  5  1  0
 36 12  1  0
 34 17  1  0
 33 28  1  0
  4 37  1  0
  4 38  1  0
  6 39  1  0
  7 40  1  0
  8 41  1  0
  9 42  1  0
 10 43  1  0
 13 44  1  0
 14 45  1  0
 15 46  1  0
 18 47  1  0
 22 48  1  0
 22 49  1  0
 25 50  1  0
 26 51  1  0
 26 52  1  0
 27 53  1  0
 27 54  1  0
 29 55  1  0
 30 56  1  0
 32 57  1  0
 33 58  1  0
 36 59  1  0
M  CHG  3   3  -1  11  -1  20  -1
M  END
>  <UniqueID>  (51) 
50

>  <SMILES>  (51) 
O=C([N-]Cc1ccccc1)[N-]c1cccc(-n2cc([O-])n(CC(=O)NCCc3ccncc3)c2=O)c1

>  <Energy>  (51) 
96.44431912954538

>  <Genealogy>  (51) 
O=C([N-]Cc1ccccc1)[N-]c1cccc(-n2cc([O-])n(CC(=O)NCCc3ccncc3)c2=O)c1 (protonated)
O=C([N-]Cc1ccccc1)[N-]c1cccc(-n2cc([O-])n(CC(=O)NCCc3ccncc3)c2=O)c1 (3D coordinates assigned)
O=C([N-]Cc1ccccc1)[N-]c1cccc(-n2cc([O-])n(CC(=O)NCCc3ccncc3)c2=O)c1 (optimized conformer: 96.44431912954538 kcal/mol)

>  <smiles>  (51) 
O=C(Cn1c(O)cn(-c2cccc(NC(=O)NCc3ccccc3)c2)c1=O)NCCc1ccncc1

>  <score_type>  (51) 
oracle

>  <origin>  (51) 
adg

>  <m_score__min__energy>  (51) 
-12.800000000000001

>  <m_primary>  (51) 
energy

$$$$
51:0
     RDKit          3D

 64 67  0  0  1  0  0  0  0  0999 V2000
   67.0050   33.0860   50.2670 C   0  0  0  0  0  0  0  0  0  0  0  0
   65.8350   32.4240   50.8070 N   0  0  0  0  0  0  0  0  0  0  0  0
   64.6240   32.8120   50.4990 C   0  0  0  0  0  0  0  0  0  0  0  0
   63.7360   33.0770   51.4540 N   0  0  0  0  0  0  0  0  0  0  0  0
   62.5170   33.4700   51.1350 C   0  0  0  0  0  0  0  0  0  0  0  0
   61.6360   33.7290   52.0390 N   0  0  0  0  0  0  0  0  0  0  0  0
   60.6830   32.7820   52.5510 C   0  0  0  0  0  0  0  0  0  0  0  0
   60.2170   31.8020   51.5310 C   0  0  0  0  0  0  0  0  0  0  0  0
   58.9750   31.9380   50.9000 C   0  0  0  0  0  0  0  0  0  0  0  0
   58.5480   31.0290   49.9600 C   0  0  0  0  0  0  0  0  0  0  0  0
   59.3210   29.9710   49.6150 C   0  0  0  0  0  0  0  0  0  0  0  0
   58.9570   28.9790   48.6490 N   0  0  0  0  0  0  0  0  0  0  0  0
   58.9610   29.3160   47.2710 C   0  0  0  0  0  0  0  0  0  0  0  0
   59.3000   30.5140   47.0120 O   0  0  0  0  0  0  0  0  0  0  0  0
   58.6180   28.4190   46.1950 C   0  0  0  0  0  0  0  0  0  0  0  0
   58.8300   28.8600   44.9000 C   0  0  0  0  0  0  0  0  0  0  0  0
   58.5240   28.1040   43.7890 C   0  0  0  0  0  0  0  0  0  0  0  0
   57.9810   26.8510   43.9950 C   0  0  0  0  0  0  0  0  0  0  0  0
   57.7440   26.3530   45.2530 C   0  0  0  0  0  0  0  0  0  0  0  0
   57.1780   25.0600   45.4740 N   0  0  0  0  0  0  0  0  0  0  0  0
   55.5190   24.8190   45.8670 S   0  0  0  0  0  0  0  0  0  0  0  0
   54.6560   23.8190   44.6920 C   0  0  0  0  0  0  0  0  0  0  0  0
   55.4510   24.1050   47.2090 O   0  0  0  0  0  0  0  0  0  0  0  0
   54.8290   26.1620   45.9820 O   0  0  0  0  0  0  0  0  0  0  0  0
   58.0750   27.1650   46.3310 C   0  0  0  0  0  0  0  0  0  0  0  0
   57.8420   26.6540   47.5570 F   0  0  0  0  0  0  0  0  0  0  0  0
   60.5660   29.7880   50.2120 C   0  0  0  0  0  0  0  0  0  0  0  0
   60.9670   30.7130   51.1500 C   0  0  0  0  0  0  0  0  0  0  0  0
   62.1640   33.6070   49.7910 C   0  0  0  0  0  0  0  0  0  0  0  0
   60.9020   34.0160   49.4160 C   0  0  0  0  0  0  0  0  0  0  0  0
   60.5470   34.1540   48.0720 C   0  0  0  0  0  0  0  0  0  0  0  0
   59.1610   34.6010   47.7830 C   0  0  0  0  0  0  0  0  0  0  0  0
   61.4800   33.8740   47.0970 C   0  0  0  0  0  0  0  0  0  0  0  0
   62.7670   33.4580   47.4490 C   0  0  0  0  0  0  0  0  0  0  0  0
   63.7750   33.1530   46.3740 C   0  0  0  0  0  0  0  0  0  0  0  0
   63.0770   33.3340   48.7890 C   0  0  0  0  0  0  0  0  0  0  0  0
   64.3250   32.9310   49.1760 N   0  0  0  0  0  0  0  0  0  0  0  0
   67.6376   33.4439   51.0927 H   0  0  0  0  0  0  0  0  0  0  0  0
   67.5752   32.3767   49.6491 H   0  0  0  0  0  0  0  0  0  0  0  0
   66.6906   33.9401   49.6491 H   0  0  0  0  0  0  0  0  0  0  0  0
   63.9860   32.9810   52.4800 H   0  0  0  0  0  0  0  0  0  0  0  0
   61.1514   32.2284   53.3781 H   0  0  0  0  0  0  0  0  0  0  0  0
   59.8019   33.3529   52.8793 H   0  0  0  0  0  0  0  0  0  0  0  0
   58.3278   32.7883   51.1609 H   0  0  0  0  0  0  0  0  0  0  0  0
   57.5663   31.1628   49.4822 H   0  0  0  0  0  0  0  0  0  0  0  0
   58.7010   28.0520   48.9910 H   0  0  0  0  0  0  0  0  0  0  0  0
   59.2628   29.8602   44.7508 H   0  0  0  0  0  0  0  0  0  0  0  0
   58.7060   28.4854   42.7734 H   0  0  0  0  0  0  0  0  0  0  0  0
   57.7298   26.2307   43.1220 H   0  0  0  0  0  0  0  0  0  0  0  0
   57.8250   24.2280   45.3850 H   0  0  0  0  0  0  0  0  0  0  0  0
   54.0267   23.0898   45.2232 H   0  0  0  0  0  0  0  0  0  0  0  0
   54.0222   24.4593   44.0609 H   0  0  0  0  0  0  0  0  0  0  0  0
   55.3821   23.2857   44.0609 H   0  0  0  0  0  0  0  0  0  0  0  0
   61.2063   28.9348   49.9437 H   0  0  0  0  0  0  0  0  0  0  0  0
   61.9492   30.5725   51.6249 H   0  0  0  0  0  0  0  0  0  0  0  0
   60.1567   34.2390   50.1937 H   0  0  0  0  0  0  0  0  0  0  0  0
   58.6266   34.7734   48.7289 H   0  0  0  0  0  0  0  0  0  0  0  0
   59.1904   35.5352   47.2030 H   0  0  0  0  0  0  0  0  0  0  0  0
   58.6391   33.8256   47.2030 H   0  0  0  0  0  0  0  0  0  0  0  0
   61.2102   33.9785   46.0357 H   0  0  0  0  0  0  0  0  0  0  0  0
   64.7297   32.8641   46.8378 H   0  0  0  0  0  0  0  0  0  0  0  0
   63.4059   32.3263   45.7492 H   0  0  0  0  0  0  0  0  0  0  0  0
   63.9262   34.0456   45.7492 H   0  0  0  0  0  0  0  0  0  0  0  0
   65.0570   32.7120   48.4590 H   0  0  0  0  0  0  0  0  0  0  0  0
  1  2  1  0
  2  3  2  0
  3  4  1  0
  4  5  1  0
  5  6  2  0
  6  7  1  0
  7  8  1  0
  8  9  2  0
  9 10  1  0
 10 11  2  0
 11 12  1  0
 12 13  1  0
 13 14  2  0
 13 15  1  0
 15 16  2  0
 16 17  1  0
 17 18  2  0
 18 19  1  0
 19 20  1  0
 20 21  1  0
 21 22  1  0
 21 23  2  0
 21 24  2  0
 19 25  2  0
 25 26  1  0
 11 27  1  0
 27 28  2  0
  5 29  1  0
 29 30  2  0
 30 31  1  0
 31 32  1  0
 31 33  2  0
 33 34  1  0
 34 35  1  0
 34 36  2  0
 36 37  1  0
 37  3  1  0
 28  8  1  0
 36 29  1  0
 25 15  1  0
  1 38  1  0
  1 39  1  0
  1 40  1  0
  4 41  1  0
  7 42  1  0
  7 43  1  0
  9 44  1  0
 10 45  1  0
 12 46  1  0
 16 47  1  0
 17 48  1  0
 18 49  1  0
 20 50  1  0
 22 51  1  0
 22 52  1  0
 22 53  1  0
 27 54  1  0
 28 55  1  0
 30 56  1  0
 32 57  1  0
 32 58  1  0
 32 59  1  0
 33 60  1  0
 35 61  1  0
 35 62  1  0
 35 63  1  0
 37 64  1  0
M  END
>  <smiles>  (52) 
CN=c1[nH]c(=NCc2ccc(NC(=O)c3cccc(NS(C)(=O)=O)c3F)cc2)c2cc(C)cc(C)c2[nH]1

>  <score_type>  (52) 
oracle

>  <origin>  (52) 
adg

>  <m_score__min__energy>  (52) 
-9.8499999999999996

>  <m_primary>  (52) 
energy

$$$$
52:0
     RDKit          3D

 50 53  0  0  0  0  0  0  0  0999 V2000
   54.1390   24.9070   46.2330 H   0  0  0  0  0  0  0  0  0  0  0  0
   55.1500   24.7550   46.4540 N   0  0  0  0  0  0  0  0  0  0  0  0
   56.0620   25.6300   46.1760 C   0  0  0  0  0  0  0  0  0  0  0  0
   55.6940   26.8640   45.7490 N   0  0  0  0  0  0  0  0  0  0  0  0
   56.6040   27.8310   45.4430 C   0  0  0  0  0  0  0  0  0  0  0  0
   56.1540   29.0830   45.0100 C   0  0  0  0  0  0  0  0  0  0  0  0
   54.7920   29.3360   44.8840 O   0  0  0  0  0  0  0  0  0  0  0  0
   57.0700   30.0850   44.7070 C   0  0  0  0  0  0  0  0  0  0  0  0
   56.7123   31.0674   44.3650 H   0  0  0  0  0  0  0  0  0  0  0  0
   58.4380   29.8520   44.8340 C   0  0  0  0  0  0  0  0  0  0  0  0
   59.1479   30.6595   44.6015 H   0  0  0  0  0  0  0  0  0  0  0  0
   58.9260   28.6030   45.2540 C   0  0  0  0  0  0  0  0  0  0  0  0
   60.6890   28.4510   45.4470 S   0  0  0  0  0  0  0  0  0  0  0  0
   61.0960   27.0880   45.9320 O   0  0  0  0  0  0  0  0  0  0  0  0
   61.3440   28.6580   44.1100 O   0  0  0  0  0  0  0  0  0  0  0  0
   61.2580   29.6840   46.5240 N   0  0  0  0  0  0  0  0  0  0  0  0
   62.0000   30.3200   46.1560 H   0  0  0  0  0  0  0  0  0  0  0  0
   60.4530   30.1470   47.6130 C   0  0  0  0  0  0  0  0  0  0  0  0
   60.2020   31.5130   47.7870 C   0  0  0  0  0  0  0  0  0  0  0  0
   60.5900   32.2389   47.0572 H   0  0  0  0  0  0  0  0  0  0  0  0
   59.4600   31.9580   48.8850 C   0  0  0  0  0  0  0  0  0  0  0  0
   59.2775   33.0341   49.0219 H   0  0  0  0  0  0  0  0  0  0  0  0
   58.9470   31.0400   49.8130 C   0  0  0  0  0  0  0  0  0  0  0  0
   58.1820   31.5060   50.9910 C   0  0  0  0  0  0  0  0  0  0  0  0
   57.0550   30.9910   51.2320 O   0  0  0  0  0  0  0  0  0  0  0  0
   58.6970   32.5280   51.8650 N   0  0  0  0  0  0  0  0  0  0  0  0
   57.7520   33.4080   52.5700 C   0  0  0  0  0  0  0  0  0  0  0  0
   57.0027   33.7769   51.8542 H   0  0  0  0  0  0  0  0  0  0  0  0
   57.2698   32.8304   53.3724 H   0  0  0  0  0  0  0  0  0  0  0  0
   58.4740   34.6040   53.1990 C   0  0  0  0  0  0  0  0  0  0  0  0
   58.8830   35.2346   52.3958 H   0  0  0  0  0  0  0  0  0  0  0  0
   57.7454   35.1589   53.8083 H   0  0  0  0  0  0  0  0  0  0  0  0
   59.6250   34.1630   54.1190 C   0  0  0  0  0  0  0  0  0  0  0  0
   60.3426   34.9928   54.1988 H   0  0  0  0  0  0  0  0  0  0  0  0
   59.1772   33.8990   55.0884 H   0  0  0  0  0  0  0  0  0  0  0  0
   60.3800   32.9130   53.6170 C   0  0  0  0  0  0  0  0  0  0  0  0
   61.4577   33.0650   53.7769 H   0  0  0  0  0  0  0  0  0  0  0  0
   60.0029   32.0479   54.1821 H   0  0  0  0  0  0  0  0  0  0  0  0
   60.1400   32.6350   52.1320 C   0  0  0  0  0  0  0  0  0  0  0  0
   60.5605   33.4577   51.5351 H   0  0  0  0  0  0  0  0  0  0  0  0
   60.6281   31.6877   51.8593 H   0  0  0  0  0  0  0  0  0  0  0  0
   59.1470   29.6660   49.6010 C   0  0  0  0  0  0  0  0  0  0  0  0
   58.7124   28.9350   50.2987 H   0  0  0  0  0  0  0  0  0  0  0  0
   59.8960   29.2240   48.5070 C   0  0  0  0  0  0  0  0  0  0  0  0
   60.0487   28.1464   48.3474 H   0  0  0  0  0  0  0  0  0  0  0  0
   57.9950   27.5710   45.5670 C   0  0  0  0  0  0  0  0  0  0  0  0
   58.3790   26.2860   46.0030 C   0  0  0  0  0  0  0  0  0  0  0  0
   59.4469   26.0425   46.1043 H   0  0  0  0  0  0  0  0  0  0  0  0
   57.4200   25.3210   46.3070 C   0  0  0  0  0  0  0  0  0  0  0  0
   57.7294   24.3220   46.6480 H   0  0  0  0  0  0  0  0  0  0  0  0
  1  2  1  0
  2  3  2  0
  3  4  1  0
  4  5  1  0
  5  6  2  0
  6  7  1  0
  6  8  1  0
  8  9  1  0
  8 10  2  0
 10 11  1  0
 10 12  1  0
 12 13  1  0
 13 14  2  0
 13 15  2  0
 13 16  1  0
 16 17  1  0
 16 18  1  0
 18 19  2  0
 19 20  1  0
 19 21  1  0
 21 22  1  0
 21 23  2  0
 23 24  1  0
 24 25  2  0
 24 26  1  0
 26 27  1  0
 27 28  1  0
 27 29  1  0
 27 30  1  0
 30 31  1  0
 30 32  1  0
 30 33  1  0
 33 34  1  0
 33 35  1  0
 33 36  1  0
 36 37  1  0
 36 38  1  0
 36 39  1  0
 39 40  1  0
 39 41  1  0
 23 42  1  0
 42 43  1  0
 42 44  2  0
 44 45  1  0
 12 46  2  0
 46 47  1  0
 47 48  1  0
 47 49  2  0
 49 50  1  0
 49  3  1  0
 46  5  1  0
 44 18  1  0
 39 26  1  0
M  CHG  2   4  -1   7  -1
M  END
>  <UniqueID>  (53) 
51

>  <SMILES>  (53) 
[H]/N=c1\ccc2c(S(=O)(=O)Nc3ccc(C(=O)N4CCCCC4)cc3)ccc([O-])c2[n-]1

>  <Energy>  (53) 
70.46258360029337

>  <Genealogy>  (53) 
N=c1ccc2c(S(=O)(=O)Nc3ccc(C(=O)N4CCCCC4)cc3)ccc([O-])c2[n-]1 (protonated)
[H]/N=c1\ccc2c(S(=O)(=O)Nc3ccc(C(=O)N4CCCCC4)cc3)ccc([O-])c2[n-]1 (cis-trans isomerization)
[H]/N=c1\ccc2c(S(=O)(=O)Nc3ccc(C(=O)N4CCCCC4)cc3)ccc([O-])c2[n-]1 (3D coordinates assigned)
[H]/N=c1\ccc2c(S(=O)(=O)Nc3ccc(C(=O)N4CCCCC4)cc3)ccc([O-])c2[n-]1 (nonaromatic ring conformer: 70.46258360029337 kcal/mol)

>  <smiles>  (53) 
N=c1ccc2c(S(=O)(=O)Nc3ccc(C(=O)N4CCCCC4)cc3)ccc(O)c2[nH]1

>  <score_type>  (53) 
oracle

>  <origin>  (53) 
adg

>  <m_score__min__energy>  (53) 
-13.779999999999999

>  <m_primary>  (53) 
energy

$$$$
53:0
     RDKit          3D

 44 47  0  0  0  0  0  0  0  0999 V2000
   54.7730   27.0990   45.1420 H   0  0  0  0  0  0  0  0  0  0  0  0
   55.0790   26.5120   45.9090 O   0  0  0  0  0  0  0  0  0  0  0  0
   56.2940   25.8330   45.8560 C   0  0  0  0  0  0  0  0  0  0  0  0
   56.4760   24.5340   45.4170 C   0  0  0  0  0  0  0  0  0  0  0  0
   57.8190   24.2690   45.5230 C   0  0  0  0  0  0  0  0  0  0  0  0
   58.4070   25.4140   46.0230 C   0  0  0  0  0  0  0  0  0  0  0  0
   59.7660   25.5770   46.2720 O   0  0  0  0  0  0  0  0  0  0  0  0
   57.4750   26.3700   46.2310 N   0  0  0  0  0  0  0  0  0  0  0  0
   57.7040   27.7320   46.7190 C   0  0  0  0  0  0  0  0  0  0  0  0
   58.5784   27.7315   47.3864 H   0  0  0  0  0  0  0  0  0  0  0  0
   56.8044   28.0643   47.2578 H   0  0  0  0  0  0  0  0  0  0  0  0
   57.9610   28.7030   45.5580 C   0  0  0  0  0  0  0  0  0  0  0  0
   58.3568   28.1352   44.7030 H   0  0  0  0  0  0  0  0  0  0  0  0
   58.6799   29.4598   45.9052 H   0  0  0  0  0  0  0  0  0  0  0  0
   56.7090   29.4210   45.1250 C   0  0  0  0  0  0  0  0  0  0  0  0
   55.6110   28.8090   45.2010 O   0  0  0  0  0  0  0  0  0  0  0  0
   56.6890   30.8090   44.7540 N   0  0  0  0  0  0  0  0  0  0  0  0
   57.4430   31.7820   45.1790 C   0  0  0  0  0  0  0  0  0  0  0  0
   58.6680   31.5560   45.6960 N   0  0  0  0  0  0  0  0  0  0  0  0
   59.2750   32.6990   46.1250 C   0  0  0  0  0  0  0  0  0  0  0  0
   60.6380   32.6750   46.7170 C   0  0  0  0  0  0  0  0  0  0  0  0
   61.1880   31.4950   47.2590 C   0  0  0  0  0  0  0  0  0  0  0  0
   60.6013   30.5646   47.2492 H   0  0  0  0  0  0  0  0  0  0  0  0
   62.4740   31.4990   47.8090 C   0  0  0  0  0  0  0  0  0  0  0  0
   62.8922   30.5737   48.2319 H   0  0  0  0  0  0  0  0  0  0  0  0
   63.2290   32.6740   47.8230 C   0  0  0  0  0  0  0  0  0  0  0  0
   64.4750   32.6740   48.3560 F   0  0  0  0  0  0  0  0  0  0  0  0
   62.6990   33.8480   47.2840 C   0  0  0  0  0  0  0  0  0  0  0  0
   63.2941   34.7731   47.2929 H   0  0  0  0  0  0  0  0  0  0  0  0
   61.4140   33.8510   46.7330 C   0  0  0  0  0  0  0  0  0  0  0  0
   61.0052   34.7797   46.3082 H   0  0  0  0  0  0  0  0  0  0  0  0
   58.5090   33.8560   45.9500 C   0  0  0  0  0  0  0  0  0  0  0  0
   58.8117   34.8775   46.2238 H   0  0  0  0  0  0  0  0  0  0  0  0
   57.0460   33.4160   45.2490 S   0  0  0  0  0  0  0  0  0  0  0  0
   58.4550   22.9760   45.1310 C   0  0  0  0  0  0  0  0  0  0  0  0
   58.9741   22.5550   46.0047 H   0  0  0  0  0  0  0  0  0  0  0  0
   59.1606   23.1761   44.3112 H   0  0  0  0  0  0  0  0  0  0  0  0
   57.4310   21.9730   44.6380 C   0  0  0  0  0  0  0  0  0  0  0  0
   57.7859   20.9731   44.3478 H   0  0  0  0  0  0  0  0  0  0  0  0
   56.1080   22.2320   44.5330 C   0  0  0  0  0  0  0  0  0  0  0  0
   55.4537   21.4296   44.1614 H   0  0  0  0  0  0  0  0  0  0  0  0
   55.4700   23.5580   44.8950 C   0  0  0  0  0  0  0  0  0  0  0  0
   54.7061   23.3865   45.6676 H   0  0  0  0  0  0  0  0  0  0  0  0
   55.0225   23.9823   43.9841 H   0  0  0  0  0  0  0  0  0  0  0  0
  1  2  1  0
  2  3  1  0
  3  4  2  0
  4  5  1  0
  5  6  2  0
  6  7  1  0
  6  8  1  0
  8  9  1  0
  9 10  1  0
  9 11  1  0
  9 12  1  0
 12 13  1  0
 12 14  1  0
 12 15  1  0
 15 16  2  0
 15 17  1  0
 17 18  2  0
 18 19  1  0
 19 20  1  0
 20 21  1  0
 21 22  2  0
 22 23  1  0
 22 24  1  0
 24 25  1  0
 24 26  2  0
 26 27  1  0
 26 28  1  0
 28 29  1  0
 28 30  2  0
 30 31  1  0
 20 32  2  0
 32 33  1  0
 32 34  1  0
  5 35  1  0
 35 36  1  0
 35 37  1  0
 35 38  1  0
 38 39  1  0
 38 40  2  0
 40 41  1  0
 40 42  1  0
 42 43  1  0
 42 44  1  0
  8  3  1  0
 34 18  1  0
 42  4  1  0
 30 21  1  0
M  CHG  2   7  -1  19  -1
M  END
>  <UniqueID>  (54) 
52

>  <SMILES>  (54) 
O=C(CCn1c([O-])c2c(c1O)CC=CC2)/N=c1/[n-]c(-c2ccc(F)cc2)cs1

>  <Energy>  (54) 
115.84732609180455

>  <Genealogy>  (54) 
O=C(CCn1c([O-])c2c(c1O)CC=CC2)N=c1[n-]c(-c2ccc(F)cc2)cs1 (protonated)
O=C(CCn1c([O-])c2c(c1O)CC=CC2)/N=c1/[n-]c(-c2ccc(F)cc2)cs1 (cis-trans isomerization)
O=C(CCn1c([O-])c2c(c1O)CC=CC2)/N=c1/[n-]c(-c2ccc(F)cc2)cs1 (3D coordinates assigned)
O=C(CCn1c([O-])c2c(c1O)CC=CC2)/N=c1/[n-]c(-c2ccc(F)cc2)cs1 (nonaromatic ring conformer: 115.84732609180455 kcal/mol)

>  <smiles>  (54) 
O=C(CCn1c(O)c2c(c1O)CC=CC2)N=c1[nH]c(-c2ccc(F)cc2)cs1

>  <score_type>  (54) 
oracle

>  <origin>  (54) 
adg

>  <m_score__min__energy>  (54) 
-14.15

>  <m_primary>  (54) 
energy

$$$$
54:0
     RDKit          3D

 44 46  0  0  0  0  0  0  0  0999 V2000
   59.0580   33.5140   46.9500 C   0  0  0  0  0  0  0  0  0  0  0  0
   60.4550   32.9940   47.1710 C   0  0  0  0  0  0  0  0  0  0  0  0
   61.5410   33.7790   46.7430 C   0  0  0  0  0  0  0  0  0  0  0  0
   62.8520   33.3250   46.9000 C   0  0  0  0  0  0  0  0  0  0  0  0
   63.0960   32.0820   47.4820 C   0  0  0  0  0  0  0  0  0  0  0  0
   62.0300   31.2830   47.9000 C   0  0  0  0  0  0  0  0  0  0  0  0
   60.7040   31.7170   47.7390 C   0  0  0  0  0  0  0  0  0  0  0  0
   59.3900   30.6580   48.2740 S   0  0  0  0  0  0  0  0  0  0  0  0
   58.7920   31.1630   49.5560 O   0  0  0  0  0  0  0  0  0  0  0  0
   58.3300   30.6320   47.2080 O   0  0  0  0  0  0  0  0  0  0  0  0
   60.0160   29.0670   48.5380 N   0  0  0  0  0  0  0  0  0  0  0  0
   59.9530   28.0260   47.5620 C   0  0  0  0  0  0  0  0  0  0  0  0
   60.7450   27.0460   47.6340 O   0  0  0  0  0  0  0  0  0  0  0  0
   58.9370   28.0940   46.4850 C   0  0  0  0  0  0  0  0  0  0  0  0
   57.6580   27.7460   46.7400 C   0  0  0  0  0  0  0  0  0  0  0  0
   57.1560   26.3570   46.7700 C   0  0  0  0  0  0  0  0  0  0  0  0
   57.9200   25.2960   47.0740 N   0  0  0  0  0  0  0  0  0  0  0  0
   57.1010   24.2360   46.9400 C   0  0  0  0  0  0  0  0  0  0  0  0
   57.4700   23.0520   47.1570 O   0  0  0  0  0  0  0  0  0  0  0  0
   55.8490   24.5510   46.5450 N   0  0  0  0  0  0  0  0  0  0  0  0
   55.9000   25.8930   46.4320 C   0  0  0  0  0  0  0  0  0  0  0  0
   54.8330   26.6670   45.9970 O   0  0  0  0  0  0  0  0  0  0  0  0
   59.3550   28.6360   45.1690 C   0  0  0  0  0  0  0  0  0  0  0  0
   60.5470   28.4620   44.7970 O   0  0  0  0  0  0  0  0  0  0  0  0
   58.4230   29.3980   44.3020 C   0  0  0  0  0  0  0  0  0  0  0  0
   57.4240   28.7240   43.5750 C   0  0  0  0  0  0  0  0  0  0  0  0
   56.5380   29.4370   42.7640 C   0  0  0  0  0  0  0  0  0  0  0  0
   56.6430   30.8260   42.6590 C   0  0  0  0  0  0  0  0  0  0  0  0
   57.6380   31.5050   43.3660 C   0  0  0  0  0  0  0  0  0  0  0  0
   58.5270   30.7980   44.1810 C   0  0  0  0  0  0  0  0  0  0  0  0
   58.5755   33.6936   47.9221 H   0  0  0  0  0  0  0  0  0  0  0  0
   59.1027   34.4557   46.3833 H   0  0  0  0  0  0  0  0  0  0  0  0
   58.4760   32.7723   46.3833 H   0  0  0  0  0  0  0  0  0  0  0  0
   61.3557   34.7596   46.2803 H   0  0  0  0  0  0  0  0  0  0  0  0
   63.6933   33.9489   46.5640 H   0  0  0  0  0  0  0  0  0  0  0  0
   64.1300   31.7301   47.6121 H   0  0  0  0  0  0  0  0  0  0  0  0
   62.2307   30.3041   48.3599 H   0  0  0  0  0  0  0  0  0  0  0  0
   56.9386   28.5539   46.9396 H   0  0  0  0  0  0  0  0  0  0  0  0
   58.9250   25.2930   47.3610 H   0  0  0  0  0  0  0  0  0  0  0  0
   57.3405   27.6295   43.6459 H   0  0  0  0  0  0  0  0  0  0  0  0
   55.7548   28.9028   42.2060 H   0  0  0  0  0  0  0  0  0  0  0  0
   55.9429   31.3844   42.0202 H   0  0  0  0  0  0  0  0  0  0  0  0
   57.7223   32.5985   43.2813 H   0  0  0  0  0  0  0  0  0  0  0  0
   59.3121   31.3377   44.7309 H   0  0  0  0  0  0  0  0  0  0  0  0
  1  2  1  0
  2  3  2  0
  3  4  1  0
  4  5  2  0
  5  6  1  0
  6  7  2  0
  7  8  1  0
  8  9  2  0
  8 10  2  0
  8 11  1  0
 11 12  1  0
 12 13  2  0
 12 14  1  0
 14 15  2  3
 15 16  1  0
 16 17  1  0
 17 18  1  0
 18 19  2  0
 18 20  1  0
 20 21  1  0
 21 22  1  0
 14 23  1  0
 23 24  2  0
 23 25  1  0
 25 26  2  0
 26 27  1  0
 27 28  2  0
 28 29  1  0
 29 30  2  0
  7  2  1  0
 21 16  2  0
 30 25  1  0
  1 31  1  0
  1 32  1  0
  1 33  1  0
  3 34  1  0
  4 35  1  0
  5 36  1  0
  6 37  1  0
 15 38  1  0
 17 39  1  0
 26 40  1  0
 27 41  1  0
 28 42  1  0
 29 43  1  0
 30 44  1  0
M  CHG  3  11  -1  20  -1  22  -1
M  END
>  <UniqueID>  (55) 
53

>  <SMILES>  (55) 
Cc1ccccc1S(=O)(=O)[N-]C(=O)C(=Cc1[nH]c(=O)[n-]c1[O-])C(=O)c1ccccc1

>  <Energy>  (55) 
93.036697357602

>  <Genealogy>  (55) 
Cc1ccccc1S(=O)(=O)[N-]C(=O)C(=Cc1[nH]c(=O)[n-]c1[O-])C(=O)c1ccccc1 (protonated)
Cc1ccccc1S(=O)(=O)[N-]C(=O)C(=Cc1[nH]c(=O)[n-]c1[O-])C(=O)c1ccccc1 (3D coordinates assigned)
Cc1ccccc1S(=O)(=O)[N-]C(=O)C(=Cc1[nH]c(=O)[n-]c1[O-])C(=O)c1ccccc1 (optimized conformer: 93.036697357602 kcal/mol)

>  <smiles>  (55) 
Cc1ccccc1S(=O)(=O)NC(=O)C(=Cc1[nH]c(=O)[nH]c1O)C(=O)c1ccccc1

>  <score_type>  (55) 
oracle

>  <origin>  (55) 
adg

>  <m_score__min__energy>  (55) 
-17.09

>  <m_primary>  (55) 
energy

$$$$
55:0
     RDKit          3D

 57 60  0  0  1  0  0  0  0  0999 V2000
   60.2880   34.4960   48.5500 C   0  0  0  0  0  0  0  0  0  0  0  0
   61.4690   34.4940   49.1860 C   0  0  0  0  0  0  0  0  0  0  0  0
   61.9250   33.2290   49.8040 C   0  0  0  0  0  0  0  0  0  0  0  0
   61.7190   32.1370   48.8500 N   0  0  0  0  0  0  0  0  0  0  0  0
   60.6940   31.1540   48.8800 C   0  0  0  0  0  0  0  0  0  0  0  0
   59.8170   31.0970   49.7480 O   0  0  0  0  0  0  0  0  0  0  0  0
   59.1680   30.6410   45.6410 C   0  0  0  0  0  0  0  0  0  0  0  0
   58.9790   29.5900   46.4330 C   0  0  0  0  0  0  0  0  0  0  0  0
   60.2030   28.0880   47.7050 N   0  0  0  0  0  0  0  0  0  0  0  0
   58.2420   27.3110   46.5210 C   0  0  0  0  0  0  0  0  0  0  0  0
   59.6480   25.9940   47.8600 O   0  0  0  0  0  0  0  0  0  0  0  0
   57.0140   34.1670   45.0980 C   0  0  0  0  0  0  0  0  0  0  0  0
   58.1440   32.3640   44.1420 C   0  0  0  0  0  0  0  0  0  0  0  0
   57.2300   24.6440   44.3060 C   0  0  0  0  0  0  0  0  0  0  0  0
   58.4960   31.8650   45.4240 C   0  0  0  0  0  0  0  0  0  0  0  0
   58.0430   28.6250   46.0360 C   0  0  0  0  0  0  0  0  0  0  0  0
   57.1280   28.9710   45.2180 C   0  0  0  0  0  0  0  0  0  0  0  0
   55.7720   22.5930   43.0700 O   0  0  0  0  0  0  0  0  0  0  0  0
   53.9700   23.1060   44.5180 O   0  0  0  0  0  0  0  0  0  0  0  0
   55.5380   24.8770   45.8910 C   0  0  0  0  0  0  0  0  0  0  0  0
   56.3280   25.8260   46.5070 C   0  0  0  0  0  0  0  0  0  0  0  0
   59.3390   27.1260   47.3410 C   0  0  0  0  0  0  0  0  0  0  0  0
   55.2800   23.3540   44.1330 C   0  0  0  0  0  0  0  0  0  0  0  0
   60.0380   29.3250   47.2700 C   0  0  0  0  0  0  0  0  0  0  0  0
   60.8560   30.2540   47.7440 C   0  0  0  0  0  0  0  0  0  0  0  0
   58.0150   25.6180   44.9540 C   0  0  0  0  0  0  0  0  0  0  0  0
   58.0340   32.6310   46.5300 C   0  0  0  0  0  0  0  0  0  0  0  0
   58.3230   32.2310   47.8280 O   0  0  0  0  0  0  0  0  0  0  0  0
   57.3130   33.7480   46.3330 N   0  0  0  0  0  0  0  0  0  0  0  0
   57.5570   26.2650   46.1270 C   0  0  0  0  0  0  0  0  0  0  0  0
   56.3360   35.2160   44.8720 O   0  0  0  0  0  0  0  0  0  0  0  0
   57.4210   33.4850   44.0140 N   0  0  0  0  0  0  0  0  0  0  0  0
   55.9980   24.2660   44.7570 C   0  0  0  0  0  0  0  0  0  0  0  0
   58.5170   31.7400   43.1230 O   0  0  0  0  0  0  0  0  0  0  0  0
   62.0510   30.7930   47.0510 C   0  0  0  0  0  0  0  0  0  0  0  0
   62.5020   31.8510   47.7110 C   0  0  0  0  0  0  0  0  0  0  0  0
   63.6200   32.6300   47.3640 O   0  0  0  0  0  0  0  0  0  0  0  0
   59.9184   35.4189   48.0793 H   0  0  0  0  0  0  0  0  0  0  0  0
   59.6891   33.5747   48.4992 H   0  0  0  0  0  0  0  0  0  0  0  0
   62.0808   35.4062   49.2464 H   0  0  0  0  0  0  0  0  0  0  0  0
   62.9933   33.3041   50.0550 H   0  0  0  0  0  0  0  0  0  0  0  0
   61.3536   33.0349   50.7237 H   0  0  0  0  0  0  0  0  0  0  0  0
   60.9800   27.7880   48.3320 H   0  0  0  0  0  0  0  0  0  0  0  0
   55.9122   26.2832   47.4170 H   0  0  0  0  0  0  0  0  0  0  0  0
   54.5532   24.6158   46.3057 H   0  0  0  0  0  0  0  0  0  0  0  0
   56.1140   23.1240   42.2540 H   0  0  0  0  0  0  0  0  0  0  0  0
   53.6530   22.2000   44.8540 H   0  0  0  0  0  0  0  0  0  0  0  0
   57.6268   24.1675   43.3974 H   0  0  0  0  0  0  0  0  0  0  0  0
   59.0005   25.8802   44.5416 H   0  0  0  0  0  0  0  0  0  0  0  0
   57.0476   30.0191   44.8938 H   0  0  0  0  0  0  0  0  0  0  0  0
   56.4191   28.2214   44.8365 H   0  0  0  0  0  0  0  0  0  0  0  0
   60.0581   30.5320   45.0039 H   0  0  0  0  0  0  0  0  0  0  0  0
   58.5890   31.2620   47.9450 H   0  0  0  0  0  0  0  0  0  0  0  0
   56.9710   34.3160   47.1490 H   0  0  0  0  0  0  0  0  0  0  0  0
   57.1910   33.8070   43.0600 H   0  0  0  0  0  0  0  0  0  0  0  0
   62.4941   30.3798   46.1329 H   0  0  0  0  0  0  0  0  0  0  0  0
   64.5330   32.1890   47.1840 H   0  0  0  0  0  0  0  0  0  0  0  0
  1  2  2  0
  2  3  1  0
  3  4  1  0
  4  5  1  0
  5  6  2  0
  5  7  1  0
  7  8  2  0
  8  9  1  0
  9 10  1  0
 10 11  2  0
 10 12  1  0
 12 13  2  3
 13 14  1  0
 14 15  2  0
 15 16  1  0
 16 17  2  3
 17 18  1  0
 17 19  1  0
 16 20  1  0
 20 21  2  0
 12 22  1  0
 22 23  2  0
 22 24  1  0
 24 25  2  0
 25 26  1  0
 26 27  2  0
 27 28  1  0
 27 29  1  0
 29 30  1  0
 30 31  2  0
 30 32  1  0
 32 33  1  0
 33 34  2  0
  7 35  1  0
 35 36  2  0
 36 37  1  0
 36  4  1  0
 24  8  1  0
 33 26  1  0
 21 13  1  0
  1 38  1  0
  1 39  1  0
  2 40  1  0
  3 41  1  0
  3 42  1  0
  9 43  1  0
 14 44  1  0
 15 45  1  0
 18 46  1  0
 19 47  1  0
 20 48  1  0
 21 49  1  0
 23 50  1  0
 23 51  1  0
 25 52  1  0
 28 53  1  0
 29 54  1  0
 32 55  1  0
 35 56  1  0
 37 57  1  0
M  END
>  <smiles>  (56) 
C=CCN1C(=O)C(=c2[nH]c(=O)c(=c3ccc(=C(O)O)cc3)c(=C)c2=Cc2c(O)[nH]c(=O)[nH]c2=O)C=C1O

>  <score_type>  (56) 
oracle

>  <origin>  (56) 
adg

>  <m_score__min__energy>  (56) 
-9.0600000000000005

>  <m_primary>  (56) 
energy

$$$$
56:0
     RDKit          3D

 69 72  0  0  0  0  0  0  0  0999 V2000
   52.4810   29.3350   54.2940 C   0  0  0  0  0  0  0  0  0  0  0  0
   52.3340   30.2230   53.0910 C   0  0  0  0  0  0  0  0  0  0  0  0
   51.3710   31.2450   53.0900 C   0  0  0  0  0  0  0  0  0  0  0  0
   51.2450   32.0990   51.9930 C   0  0  0  0  0  0  0  0  0  0  0  0
   50.2810   33.0990   51.9990 O   0  0  0  0  0  0  0  0  0  0  0  0
   52.0870   31.9470   50.8900 C   0  0  0  0  0  0  0  0  0  0  0  0
   53.0600   30.9460   50.8830 C   0  0  0  0  0  0  0  0  0  0  0  0
   53.1940   30.0750   51.9830 C   0  0  0  0  0  0  0  0  0  0  0  0
   54.1690   29.0640   52.0120 O   0  0  0  0  0  0  0  0  0  0  0  0
   55.2980   29.0560   52.8820 C   0  0  0  0  0  0  0  0  0  0  0  0
   56.2750   30.0970   52.4370 C   0  0  0  0  0  0  0  0  0  0  0  0
   55.9970   31.4550   52.6330 C   0  0  0  0  0  0  0  0  0  0  0  0
   56.9050   32.4090   52.1800 C   0  0  0  0  0  0  0  0  0  0  0  0
   58.0700   32.0050   51.5300 C   0  0  0  0  0  0  0  0  0  0  0  0
   58.3270   30.6350   51.3380 C   0  0  0  0  0  0  0  0  0  0  0  0
   59.5240   30.2250   50.5530 C   0  0  0  0  0  0  0  0  0  0  0  0
   59.5810   29.0150   50.1940 O   0  0  0  0  0  0  0  0  0  0  0  0
   60.5940   31.1160   50.1330 N   0  0  0  0  0  0  0  0  0  0  0  0
   61.1820   31.9870   51.1640 C   0  0  0  0  0  0  0  0  0  0  0  0
   61.2450   31.0960   48.8100 C   0  0  0  0  0  0  0  0  0  0  0  0
   60.5530   30.1060   47.8490 C   0  0  0  0  0  0  0  0  0  0  0  0
   59.1520   30.4730   47.5860 N   0  0  0  0  0  0  0  0  0  0  0  0
   58.1480   29.4050   47.4390 C   0  0  0  0  0  0  0  0  0  0  0  0
   57.9920   28.9990   46.0000 C   0  0  0  0  0  0  0  0  0  0  0  0
   57.0590   29.6440   45.1710 C   0  0  0  0  0  0  0  0  0  0  0  0
   56.9380   29.2750   43.8280 C   0  0  0  0  0  0  0  0  0  0  0  0
   57.7430   28.2580   43.3040 C   0  0  0  0  0  0  0  0  0  0  0  0
   58.6730   27.6140   44.1230 C   0  0  0  0  0  0  0  0  0  0  0  0
   58.8000   27.9850   45.4640 C   0  0  0  0  0  0  0  0  0  0  0  0
   58.7060   31.8400   47.7310 C   0  0  0  0  0  0  0  0  0  0  0  0
   58.2160   32.2310   48.8240 O   0  0  0  0  0  0  0  0  0  0  0  0
   58.9120   32.8380   46.6660 C   0  0  0  0  0  0  0  0  0  0  0  0
   58.5260   32.5430   45.3490 C   0  0  0  0  0  0  0  0  0  0  0  0
   58.7020   33.4890   44.3360 C   0  0  0  0  0  0  0  0  0  0  0  0
   59.2400   34.7450   44.6340 C   0  0  0  0  0  0  0  0  0  0  0  0
   59.6280   35.0460   45.9410 C   0  0  0  0  0  0  0  0  0  0  0  0
   59.4740   34.1010   46.9620 C   0  0  0  0  0  0  0  0  0  0  0  0
   59.8840   34.4400   48.2530 O   0  0  0  0  0  0  0  0  0  0  0  0
   57.4120   29.7260   51.7790 N   0  0  0  0  0  0  0  0  0  0  0  0
   52.3813   29.9375   55.2089 H   0  0  0  0  0  0  0  0  0  0  0  0
   51.6986   28.5620   54.2769 H   0  0  0  0  0  0  0  0  0  0  0  0
   53.4708   28.8553   54.2769 H   0  0  0  0  0  0  0  0  0  0  0  0
   50.7108   31.3736   53.9604 H   0  0  0  0  0  0  0  0  0  0  0  0
   51.9835   32.6176   50.0242 H   0  0  0  0  0  0  0  0  0  0  0  0
   53.7258   30.8364   50.0142 H   0  0  0  0  0  0  0  0  0  0  0  0
   54.9713   29.2746   53.9094 H   0  0  0  0  0  0  0  0  0  0  0  0
   55.7770   28.0662   52.8534 H   0  0  0  0  0  0  0  0  0  0  0  0
   55.0712   31.7653   53.1395 H   0  0  0  0  0  0  0  0  0  0  0  0
   56.7032   33.4792   52.3349 H   0  0  0  0  0  0  0  0  0  0  0  0
   58.7874   32.7561   51.1677 H   0  0  0  0  0  0  0  0  0  0  0  0
   60.9221   31.6020   52.1611 H   0  0  0  0  0  0  0  0  0  0  0  0
   62.2760   32.0024   51.0506 H   0  0  0  0  0  0  0  0  0  0  0  0
   60.7872   33.0074   51.0506 H   0  0  0  0  0  0  0  0  0  0  0  0
   61.2002   32.1054   48.3752 H   0  0  0  0  0  0  0  0  0  0  0  0
   62.2873   30.7714   48.9452 H   0  0  0  0  0  0  0  0  0  0  0  0
   61.1015   30.0960   46.8955 H   0  0  0  0  0  0  0  0  0  0  0  0
   60.5585   29.1142   48.3247 H   0  0  0  0  0  0  0  0  0  0  0  0
   58.4658   28.5307   48.0259 H   0  0  0  0  0  0  0  0  0  0  0  0
   57.1808   29.7844   47.8004 H   0  0  0  0  0  0  0  0  0  0  0  0
   56.4217   30.4419   45.5799 H   0  0  0  0  0  0  0  0  0  0  0  0
   56.2084   29.7854   43.1821 H   0  0  0  0  0  0  0  0  0  0  0  0
   57.6436   27.9659   42.2482 H   0  0  0  0  0  0  0  0  0  0  0  0
   59.3061   26.8139   43.7119 H   0  0  0  0  0  0  0  0  0  0  0  0
   59.5381   27.4789   46.1036 H   0  0  0  0  0  0  0  0  0  0  0  0
   58.0835   31.5638   45.1137 H   0  0  0  0  0  0  0  0  0  0  0  0
   58.4168   33.2454   43.3019 H   0  0  0  0  0  0  0  0  0  0  0  0
   59.3575   35.4958   43.8387 H   0  0  0  0  0  0  0  0  0  0  0  0
   60.0576   36.0324   46.1699 H   0  0  0  0  0  0  0  0  0  0  0  0
   59.5680   33.9440   49.0750 H   0  0  0  0  0  0  0  0  0  0  0  0
  1  2  1  0
  2  3  2  0
  3  4  1  0
  4  5  1  0
  4  6  2  0
  6  7  1  0
  7  8  2  0
  8  9  1  0
  9 10  1  0
 10 11  1  0
 11 12  2  0
 12 13  1  0
 13 14  2  0
 14 15  1  0
 15 16  1  0
 16 17  2  0
 16 18  1  0
 18 19  1  0
 18 20  1  0
 20 21  1  0
 21 22  1  0
 22 23  1  0
 23 24  1  0
 24 25  2  0
 25 26  1  0
 26 27  2  0
 27 28  1  0
 28 29  2  0
 22 30  1  0
 30 31  2  0
 30 32  1  0
 32 33  2  0
 33 34  1  0
 34 35  2  0
 35 36  1  0
 36 37  2  0
 37 38  1  0
 15 39  2  0
  8  2  1  0
 39 11  1  0
 29 24  1  0
 37 32  1  0
  1 40  1  0
  1 41  1  0
  1 42  1  0
  3 43  1  0
  6 44  1  0
  7 45  1  0
 10 46  1  0
 10 47  1  0
 12 48  1  0
 13 49  1  0
 14 50  1  0
 19 51  1  0
 19 52  1  0
 19 53  1  0
 20 54  1  0
 20 55  1  0
 21 56  1  0
 21 57  1  0
 23 58  1  0
 23 59  1  0
 25 60  1  0
 26 61  1  0
 27 62  1  0
 28 63  1  0
 29 64  1  0
 33 65  1  0
 34 66  1  0
 35 67  1  0
 36 68  1  0
 38 69  1  0
M  CHG  1   5  -1
M  END
>  <UniqueID>  (57) 
54

>  <SMILES>  (57) 
Cc1cc([O-])ccc1OCc1cccc(C(=O)N(C)CCN(Cc2ccccc2)C(=O)c2ccccc2O)n1

>  <Energy>  (57) 
77.95091182664747

>  <Genealogy>  (57) 
Cc1cc([O-])ccc1OCc1cccc(C(=O)N(C)CCN(Cc2ccccc2)C(=O)c2ccccc2O)n1 (protonated)
Cc1cc([O-])ccc1OCc1cccc(C(=O)N(C)CCN(Cc2ccccc2)C(=O)c2ccccc2O)n1 (3D coordinates assigned)
Cc1cc([O-])ccc1OCc1cccc(C(=O)N(C)CCN(Cc2ccccc2)C(=O)c2ccccc2O)n1 (optimized conformer: 77.95091182664747 kcal/mol)

>  <smiles>  (57) 
Cc1cc(O)ccc1OCc1cccc(C(=O)N(C)CCN(Cc2ccccc2)C(=O)c2ccccc2O)n1

>  <score_type>  (57) 
oracle

>  <origin>  (57) 
adg

>  <m_score__min__energy>  (57) 
-15.08

>  <m_primary>  (57) 
energy

$$$$
57:0
     RDKit          3D

 50 52  0  0  0  0  0  0  0  0999 V2000
   56.0750   24.7920   45.3680 H   0  0  0  0  0  0  0  0  0  0  0  0
   55.5240   24.5300   46.1770 O   0  0  0  0  0  0  0  0  0  0  0  0
   55.8740   23.4420   46.9770 C   0  0  0  0  0  0  0  0  0  0  0  0
   55.3270   23.2970   48.2580 C   0  0  0  0  0  0  0  0  0  0  0  0
   54.6140   24.0429   48.6390 H   0  0  0  0  0  0  0  0  0  0  0  0
   55.6860   22.2070   49.0510 C   0  0  0  0  0  0  0  0  0  0  0  0
   55.2564   22.0843   50.0562 H   0  0  0  0  0  0  0  0  0  0  0  0
   56.5960   21.2750   48.5540 C   0  0  0  0  0  0  0  0  0  0  0  0
   56.8927   20.4140   49.1709 H   0  0  0  0  0  0  0  0  0  0  0  0
   57.1170   21.4290   47.3080 N   0  0  0  0  0  0  0  0  0  0  0  0
   56.7780   22.4770   46.5040 C   0  0  0  0  0  0  0  0  0  0  0  0
   57.2980   22.6170   45.3170 N   0  0  0  0  0  0  0  0  0  0  0  0
   56.6170   22.6820   44.0520 C   0  0  0  0  0  0  0  0  0  0  0  0
   56.2410   21.6030   43.5200 O   0  0  0  0  0  0  0  0  0  0  0  0
   56.3510   23.9840   43.3390 C   0  0  0  0  0  0  0  0  0  0  0  0
   55.4908   24.4813   43.8109 H   0  0  0  0  0  0  0  0  0  0  0  0
   56.1424   23.7635   42.2817 H   0  0  0  0  0  0  0  0  0  0  0  0
   57.5110   24.8750   43.4040 N   0  0  0  0  0  0  0  0  0  0  0  0
   57.7680   25.8560   44.2310 C   0  0  0  0  0  0  0  0  0  0  0  0
   58.0390   25.5310   45.5140 N   0  0  0  0  0  0  0  0  0  0  0  0
   58.3130   26.4590   46.4540 C   0  0  0  0  0  0  0  0  0  0  0  0
   58.5207   26.1447   47.4875 H   0  0  0  0  0  0  0  0  0  0  0  0
   58.3350   27.8290   46.1210 C   0  0  0  0  0  0  0  0  0  0  0  0
   58.6120   28.8910   47.2000 C   0  0  0  0  0  0  0  0  0  0  0  0
   57.6046   29.3237   47.1104 H   0  0  0  0  0  0  0  0  0  0  0  0
   59.5280   28.4770   48.3450 C   0  0  0  0  0  0  0  0  0  0  0  0
   59.3113   28.8104   49.3706 H   0  0  0  0  0  0  0  0  0  0  0  0
   59.9004   27.5183   48.7352 H   0  0  0  0  0  0  0  0  0  0  0  0
   60.0150   29.4790   47.3050 C   0  0  0  0  0  0  0  0  0  0  0  0
   60.1495   30.5356   47.5798 H   0  0  0  0  0  0  0  0  0  0  0  0
   60.8840   29.5432   46.6336 H   0  0  0  0  0  0  0  0  0  0  0  0
   58.0790   28.1890   44.8080 N   0  0  0  0  0  0  0  0  0  0  0  0
   58.0640   29.6110   44.3920 C   0  0  0  0  0  0  0  0  0  0  0  0
   58.2458   29.6740   43.3090 H   0  0  0  0  0  0  0  0  0  0  0  0
   58.8506   30.1516   44.9388 H   0  0  0  0  0  0  0  0  0  0  0  0
   56.7380   30.2320   44.7070 C   0  0  0  0  0  0  0  0  0  0  0  0
   55.7260   29.4960   44.8640 O   0  0  0  0  0  0  0  0  0  0  0  0
   56.6340   31.6520   44.8590 N   0  0  0  0  0  0  0  0  0  0  0  0
   57.7570   32.5200   45.1930 C   0  0  0  0  0  0  0  0  0  0  0  0
   58.6280   32.2527   44.5767 H   0  0  0  0  0  0  0  0  0  0  0  0
   58.1080   32.3370   46.6680 C   0  0  0  0  0  0  0  0  0  0  0  0
   57.3041   32.7561   47.2909 H   0  0  0  0  0  0  0  0  0  0  0  0
   58.2212   31.2651   46.8877 H   0  0  0  0  0  0  0  0  0  0  0  0
   59.0516   32.8579   46.8877 H   0  0  0  0  0  0  0  0  0  0  0  0
   57.3950   33.9810   44.9060 C   0  0  0  0  0  0  0  0  0  0  0  0
   57.2617   34.5191   45.8561 H   0  0  0  0  0  0  0  0  0  0  0  0
   58.2035   34.4523   44.3280 H   0  0  0  0  0  0  0  0  0  0  0  0
   56.4600   34.0203   44.3280 H   0  0  0  0  0  0  0  0  0  0  0  0
   57.7770   27.2250   43.8690 C   0  0  0  0  0  0  0  0  0  0  0  0
   57.5050   27.5690   42.6860 O   0  0  0  0  0  0  0  0  0  0  0  0
  1  2  1  0
  2  3  1  0
  3  4  2  0
  4  5  1  0
  4  6  1  0
  6  7  1  0
  6  8  2  0
  8  9  1  0
  8 10  1  0
 10 11  1  0
 11 12  2  0
 12 13  1  0
 13 14  2  0
 13 15  1  0
 15 16  1  0
 15 17  1  0
 15 18  1  0
 18 19  2  3
 19 20  1  0
 20 21  1  0
 21 22  1  0
 21 23  2  0
 23 24  1  0
 24 25  1  0
 24 26  1  0
 26 27  1  0
 26 28  1  0
 26 29  1  0
 29 30  1  0
 29 31  1  0
 23 32  1  0
 32 33  1  0
 33 34  1  0
 33 35  1  0
 33 36  1  0
 36 37  2  0
 36 38  1  0
 38 39  1  0
 39 40  1  0
 39 41  1  0
 41 42  1  0
 41 43  1  0
 41 44  1  0
 39 45  1  0
 45 46  1  0
 45 47  1  0
 45 48  1  0
 32 49  1  0
 49 50  2  0
 11  3  1  0
 49 19  1  0
 29 24  1  0
M  CHG  3  10  -1  20  -1  38  -1
M  END
>  <UniqueID>  (58) 
55

>  <SMILES>  (58) 
CC(C)[N-]C(=O)Cn1c(C2CC2)c[n-]c(=NCC(=O)/N=c2\[n-]cccc2O)c1=O

>  <Energy>  (58) 
330.387827095885

>  <Genealogy>  (58) 
CC(C)[N-]C(=O)Cn1c(C2CC2)c[n-]c(=NCC(=O)N=c2[n-]cccc2O)c1=O (protonated)
CC(C)[N-]C(=O)Cn1c(C2CC2)c[n-]c(=NCC(=O)/N=c2\[n-]cccc2O)c1=O (cis-trans isomerization)
CC(C)[N-]C(=O)Cn1c(C2CC2)c[n-]c(=NCC(=O)/N=c2\[n-]cccc2O)c1=O (3D coordinates assigned)
CC(C)[N-]C(=O)Cn1c(C2CC2)c[n-]c(=NCC(=O)/N=c2\[n-]cccc2O)c1=O (nonaromatic ring conformer: 330.387827095885 kcal/mol)

>  <smiles>  (58) 
CC(C)NC(=O)Cn1c(C2CC2)c[nH]c(=NCC(=O)N=c2[nH]cccc2O)c1=O

>  <score_type>  (58) 
oracle

>  <origin>  (58) 
adg

>  <m_score__min__energy>  (58) 
-11.5

>  <m_primary>  (58) 
energy

$$$$
58:0
     RDKit          3D

 43 45  0  0  0  0  0  0  0  0999 V2000
   56.0340   21.8250   48.3030 C   0  0  0  0  0  0  0  0  0  0  0  0
   57.0990   22.2810   47.4780 O   0  0  0  0  0  0  0  0  0  0  0  0
   57.1310   23.5310   46.8400 C   0  0  0  0  0  0  0  0  0  0  0  0
   58.3600   24.0040   46.3670 C   0  0  0  0  0  0  0  0  0  0  0  0
   58.4550   25.2500   45.7490 C   0  0  0  0  0  0  0  0  0  0  0  0
   57.3060   26.0520   45.5750 C   0  0  0  0  0  0  0  0  0  0  0  0
   57.3970   27.4020   44.8930 C   0  0  0  0  0  0  0  0  0  0  0  0
   56.2800   28.2810   45.2390 N   0  0  0  0  0  0  0  0  0  0  0  0
   56.1010   29.6320   44.7840 C   0  0  0  0  0  0  0  0  0  0  0  0
   55.1470   29.8760   43.9970 O   0  0  0  0  0  0  0  0  0  0  0  0
   57.0410   30.7190   45.1280 C   0  0  0  0  0  0  0  0  0  0  0  0
   56.8170   32.0660   44.8550 C   0  0  0  0  0  0  0  0  0  0  0  0
   57.9260   32.7090   45.3550 C   0  0  0  0  0  0  0  0  0  0  0  0
   58.3070   34.0390   45.3340 C   0  0  0  0  0  0  0  0  0  0  0  0
   57.5530   34.8970   44.8000 O   0  0  0  0  0  0  0  0  0  0  0  0
   59.5150   34.3830   45.8930 N   0  0  0  0  0  0  0  0  0  0  0  0
   59.9410   35.7960   45.9240 C   0  0  0  0  0  0  0  0  0  0  0  0
   60.3090   33.4240   46.4940 C   0  0  0  0  0  0  0  0  0  0  0  0
   61.3930   33.7670   47.0490 O   0  0  0  0  0  0  0  0  0  0  0  0
   59.9230   32.0930   46.4970 N   0  0  0  0  0  0  0  0  0  0  0  0
   60.7440   31.0470   47.1240 C   0  0  0  0  0  0  0  0  0  0  0  0
   58.7330   31.7730   45.9150 C   0  0  0  0  0  0  0  0  0  0  0  0
   58.2100   30.5400   45.7890 N   0  0  0  0  0  0  0  0  0  0  0  0
   56.0650   25.5860   46.0750 C   0  0  0  0  0  0  0  0  0  0  0  0
   54.8990   26.3500   46.0040 O   0  0  0  0  0  0  0  0  0  0  0  0
   55.9820   24.3270   46.6770 C   0  0  0  0  0  0  0  0  0  0  0  0
   56.3125   21.9442   49.3605 H   0  0  0  0  0  0  0  0  0  0  0  0
   55.1294   22.4147   48.0933 H   0  0  0  0  0  0  0  0  0  0  0  0
   55.8364   20.7634   48.0933 H   0  0  0  0  0  0  0  0  0  0  0  0
   59.2619   23.3853   46.4842 H   0  0  0  0  0  0  0  0  0  0  0  0
   59.4318   25.6108   45.3945 H   0  0  0  0  0  0  0  0  0  0  0  0
   58.3357   27.8882   45.1970 H   0  0  0  0  0  0  0  0  0  0  0  0
   57.3634   27.2307   43.8069 H   0  0  0  0  0  0  0  0  0  0  0  0
   55.9480   32.5154   44.3522 H   0  0  0  0  0  0  0  0  0  0  0  0
   60.0405   36.1261   46.9686 H   0  0  0  0  0  0  0  0  0  0  0  0
   60.9099   35.8982   45.4133 H   0  0  0  0  0  0  0  0  0  0  0  0
   59.1900   36.4167   45.4133 H   0  0  0  0  0  0  0  0  0  0  0  0
   60.6757   31.1341   48.2184 H   0  0  0  0  0  0  0  0  0  0  0  0
   60.3788   30.0576   46.8114 H   0  0  0  0  0  0  0  0  0  0  0  0
   61.7918   31.1667   46.8114 H   0  0  0  0  0  0  0  0  0  0  0  0
   58.6120   29.6430   46.1430 H   0  0  0  0  0  0  0  0  0  0  0  0
   54.7660   27.1060   45.3480 H   0  0  0  0  0  0  0  0  0  0  0  0
   55.0080   23.9545   47.0271 H   0  0  0  0  0  0  0  0  0  0  0  0
  1  2  1  0
  2  3  1  0
  3  4  2  0
  4  5  1  0
  5  6  2  0
  6  7  1  0
  7  8  1  0
  8  9  1  0
  9 10  2  0
  9 11  1  0
 11 12  2  0
 12 13  1  0
 13 14  1  0
 14 15  2  0
 14 16  1  0
 16 17  1  0
 16 18  1  0
 18 19  2  0
 18 20  1  0
 20 21  1  0
 20 22  1  0
 22 23  1  0
  6 24  1  0
 24 25  1  0
 24 26  2  0
 26  3  1  0
 23 11  1  0
 22 13  2  0
  1 27  1  0
  1 28  1  0
  1 29  1  0
  4 30  1  0
  5 31  1  0
  7 32  1  0
  7 33  1  0
 12 34  1  0
 17 35  1  0
 17 36  1  0
 17 37  1  0
 21 38  1  0
 21 39  1  0
 21 40  1  0
 23 41  1  0
 25 42  1  0
 26 43  1  0
M  CHG  1   8  -1
M  END
>  <UniqueID>  (59) 
56

>  <SMILES>  (59) 
COc1ccc(C[N-]C(=O)c2cc3c(=O)n(C)c(=O)n(C)c3[nH]2)c(O)c1

>  <Energy>  (59) 
91.34703603548863

>  <Genealogy>  (59) 
COc1ccc(C[N-]C(=O)c2cc3c(=O)n(C)c(=O)n(C)c3[nH]2)c(O)c1 (protonated)
COc1ccc(C[N-]C(=O)c2cc3c(=O)n(C)c(=O)n(C)c3[nH]2)c(O)c1 (3D coordinates assigned)
COc1ccc(C[N-]C(=O)c2cc3c(=O)n(C)c(=O)n(C)c3[nH]2)c(O)c1 (optimized conformer: 91.34703603548863 kcal/mol)

>  <smiles>  (59) 
COc1ccc(CNC(=O)c2cc3c(=O)n(C)c(=O)n(C)c3[nH]2)c(O)c1

>  <score_type>  (59) 
oracle

>  <origin>  (59) 
adg

>  <m_score__min__energy>  (59) 
-10.449999999999999

>  <m_primary>  (59) 
energy

$$$$
59:0
     RDKit          3D

 74 78  0  0  0  0  0  0  0  0999 V2000
   50.5740   32.4430   53.6840 C   0  0  0  0  0  0  0  0  0  0  0  0
   51.4040   31.5880   52.7680 C   0  0  0  0  0  0  0  0  0  0  0  0
   51.3450   31.7950   51.3820 C   0  0  0  0  0  0  0  0  0  0  0  0
   52.1270   31.0250   50.5210 C   0  0  0  0  0  0  0  0  0  0  0  0
   52.9900   30.0580   51.0390 C   0  0  0  0  0  0  0  0  0  0  0  0
   53.0670   29.8480   52.4180 C   0  0  0  0  0  0  0  0  0  0  0  0
   52.2690   30.6110   53.2970 C   0  0  0  0  0  0  0  0  0  0  0  0
   52.3180   30.4480   54.6940 O   0  0  0  0  0  0  0  0  0  0  0  0
   53.2610   29.6510   55.4090 C   0  0  0  0  0  0  0  0  0  0  0  0
   54.6840   30.1720   55.2090 C   0  0  0  0  0  0  0  0  0  0  0  0
   55.5680   29.0890   54.9300 O   0  0  0  0  0  0  0  0  0  0  0  0
   56.6650   29.1330   54.0520 C   0  0  0  0  0  0  0  0  0  0  0  0
   56.9650   30.2650   53.2690 C   0  0  0  0  0  0  0  0  0  0  0  0
   58.0830   30.2680   52.4330 C   0  0  0  0  0  0  0  0  0  0  0  0
   58.9160   29.1410   52.3450 C   0  0  0  0  0  0  0  0  0  0  0  0
   60.0670   29.1580   51.4760 N   0  0  0  0  0  0  0  0  0  0  0  0
   60.7460   27.9180   51.0720 C   0  0  0  0  0  0  0  0  0  0  0  0
   60.5160   27.6780   49.5740 C   0  0  0  0  0  0  0  0  0  0  0  0
   60.4020   28.9610   48.8480 N   0  0  0  0  0  0  0  0  0  0  0  0
   59.4510   29.0860   47.7640 C   0  0  0  0  0  0  0  0  0  0  0  0
   59.1500   30.3370   47.2010 C   0  0  0  0  0  0  0  0  0  0  0  0
   58.1720   30.4530   46.2650 N   0  0  0  0  0  0  0  0  0  0  0  0
   57.4470   29.3860   45.8410 C   0  0  0  0  0  0  0  0  0  0  0  0
   56.0590   29.6730   44.7380 S   0  0  0  0  0  0  0  0  0  0  0  0
   57.0390   30.6560   43.5460 C   0  0  0  0  0  0  0  0  0  0  0  0
   57.4030   32.0050   44.1080 C   0  0  0  0  0  0  0  0  0  0  0  0
   56.6810   32.5560   45.1860 C   0  0  0  0  0  0  0  0  0  0  0  0
   57.0630   33.7890   45.7360 C   0  0  0  0  0  0  0  0  0  0  0  0
   58.1680   34.4760   45.2170 C   0  0  0  0  0  0  0  0  0  0  0  0
   58.8760   33.9440   44.1310 C   0  0  0  0  0  0  0  0  0  0  0  0
   58.4960   32.7170   43.5790 C   0  0  0  0  0  0  0  0  0  0  0  0
   57.7290   28.1080   46.3470 C   0  0  0  0  0  0  0  0  0  0  0  0
   56.9240   26.9500   45.9590 C   0  0  0  0  0  0  0  0  0  0  0  0
   55.5150   27.0920   45.7960 N   0  0  0  0  0  0  0  0  0  0  0  0
   57.4730   25.8300   45.7660 O   0  0  0  0  0  0  0  0  0  0  0  0
   58.7410   27.9650   47.3000 C   0  0  0  0  0  0  0  0  0  0  0  0
   61.0750   30.1300   49.4340 C   0  0  0  0  0  0  0  0  0  0  0  0
   60.4750   30.4100   50.8240 C   0  0  0  0  0  0  0  0  0  0  0  0
   58.5990   28.0000   53.1000 C   0  0  0  0  0  0  0  0  0  0  0  0
   57.4970   28.0000   53.9610 C   0  0  0  0  0  0  0  0  0  0  0  0
   57.2380   26.8590   54.7190 O   0  0  0  0  0  0  0  0  0  0  0  0
   50.8118   32.1981   54.7297 H   0  0  0  0  0  0  0  0  0  0  0  0
   50.7958   33.5039   53.4963 H   0  0  0  0  0  0  0  0  0  0  0  0
   49.5070   32.2528   53.4963 H   0  0  0  0  0  0  0  0  0  0  0  0
   50.6788   32.5683   50.9720 H   0  0  0  0  0  0  0  0  0  0  0  0
   52.0635   31.1799   49.4338 H   0  0  0  0  0  0  0  0  0  0  0  0
   53.6123   29.4585   50.3583 H   0  0  0  0  0  0  0  0  0  0  0  0
   53.7513   29.0861   52.8196 H   0  0  0  0  0  0  0  0  0  0  0  0
   53.0154   29.6786   56.4809 H   0  0  0  0  0  0  0  0  0  0  0  0
   53.2088   28.6207   55.0273 H   0  0  0  0  0  0  0  0  0  0  0  0
   54.6975   30.8789   54.3663 H   0  0  0  0  0  0  0  0  0  0  0  0
   55.0142   30.6784   56.1279 H   0  0  0  0  0  0  0  0  0  0  0  0
   56.3150   31.1511   53.3166 H   0  0  0  0  0  0  0  0  0  0  0  0
   58.3139   31.1630   51.8367 H   0  0  0  0  0  0  0  0  0  0  0  0
   61.8245   28.0091   51.2681 H   0  0  0  0  0  0  0  0  0  0  0  0
   60.3408   27.0722   51.6469 H   0  0  0  0  0  0  0  0  0  0  0  0
   61.3630   27.1069   49.1661 H   0  0  0  0  0  0  0  0  0  0  0  0
   59.5787   27.1165   49.4468 H   0  0  0  0  0  0  0  0  0  0  0  0
   59.7097   31.2287   47.5199 H   0  0  0  0  0  0  0  0  0  0  0  0
   57.9622   30.1085   43.3053 H   0  0  0  0  0  0  0  0  0  0  0  0
   56.4287   30.8119   42.6442 H   0  0  0  0  0  0  0  0  0  0  0  0
   55.8148   32.0173   45.5976 H   0  0  0  0  0  0  0  0  0  0  0  0
   56.4945   34.2164   46.5751 H   0  0  0  0  0  0  0  0  0  0  0  0
   58.4798   35.4326   45.6617 H   0  0  0  0  0  0  0  0  0  0  0  0
   59.7323   34.4928   43.7121 H   0  0  0  0  0  0  0  0  0  0  0  0
   59.0548   32.3053   42.7257 H   0  0  0  0  0  0  0  0  0  0  0  0
   55.1460   27.4590   44.8720 H   0  0  0  0  0  0  0  0  0  0  0  0
   58.9843   26.9659   47.6907 H   0  0  0  0  0  0  0  0  0  0  0  0
   62.1514   29.9253   49.5315 H   0  0  0  0  0  0  0  0  0  0  0  0
   60.9312   31.0058   48.7841 H   0  0  0  0  0  0  0  0  0  0  0  0
   61.2286   30.9129   51.4478 H   0  0  0  0  0  0  0  0  0  0  0  0
   59.5891   31.0509   50.7039 H   0  0  0  0  0  0  0  0  0  0  0  0
   59.2231   27.0983   53.0133 H   0  0  0  0  0  0  0  0  0  0  0  0
   56.4730   26.8150   55.3820 H   0  0  0  0  0  0  0  0  0  0  0  0
  1  2  1  0
  2  3  2  0
  3  4  1  0
  4  5  2  0
  5  6  1  0
  6  7  2  0
  7  8  1  0
  8  9  1  0
  9 10  1  0
 10 11  1  0
 11 12  1  0
 12 13  2  0
 13 14  1  0
 14 15  2  0
 15 16  1  0
 16 17  1  0
 17 18  1  0
 18 19  1  0
 19 20  1  0
 20 21  2  0
 21 22  1  0
 22 23  2  0
 23 24  1  0
 24 25  1  0
 25 26  1  0
 26 27  2  0
 27 28  1  0
 28 29  2  0
 29 30  1  0
 30 31  2  0
 23 32  1  0
 32 33  1  0
 33 34  1  0
 33 35  2  0
 32 36  2  0
 19 37  1  0
 37 38  1  0
 15 39  1  0
 39 40  2  0
 40 41  1  0
  7  2  1  0
 40 12  1  0
 38 16  1  0
 36 20  1  0
 31 26  1  0
  1 42  1  0
  1 43  1  0
  1 44  1  0
  3 45  1  0
  4 46  1  0
  5 47  1  0
  6 48  1  0
  9 49  1  0
  9 50  1  0
 10 51  1  0
 10 52  1  0
 13 53  1  0
 14 54  1  0
 17 55  1  0
 17 56  1  0
 18 57  1  0
 18 58  1  0
 21 59  1  0
 25 60  1  0
 25 61  1  0
 27 62  1  0
 28 63  1  0
 29 64  1  0
 30 65  1  0
 31 66  1  0
 34 67  1  0
 36 68  1  0
 37 69  1  0
 37 70  1  0
 38 71  1  0
 38 72  1  0
 39 73  1  0
 41 74  1  0
M  CHG  1  34  -1
M  END
>  <UniqueID>  (60) 
57

>  <SMILES>  (60) 
Cc1ccccc1OCCOc1ccc(N2CCN(c3cnc(SCc4ccccc4)c(C([NH-])=O)c3)CC2)cc1O

>  <Energy>  (60) 
95.28679246620341

>  <Genealogy>  (60) 
Cc1ccccc1OCCOc1ccc(N2CCN(c3cnc(SCc4ccccc4)c(C([NH-])=O)c3)CC2)cc1O (protonated)
Cc1ccccc1OCCOc1ccc(N2CCN(c3cnc(SCc4ccccc4)c(C([NH-])=O)c3)CC2)cc1O (3D coordinates assigned)
Cc1ccccc1OCCOc1ccc(N2CCN(c3cnc(SCc4ccccc4)c(C([NH-])=O)c3)CC2)cc1O (nonaromatic ring conformer: 95.28679246620341 kcal/mol)

>  <smiles>  (60) 
Cc1ccccc1OCCOc1ccc(N2CCN(c3cnc(SCc4ccccc4)c(C(N)=O)c3)CC2)cc1O

>  <score_type>  (60) 
oracle

>  <origin>  (60) 
adg

>  <m_score__min__energy>  (60) 
-12.93

>  <m_primary>  (60) 
energy

$$$$
60:0
     RDKit          3D

 34 36  0  0  0  0  0  0  0  0999 V2000
   56.9480   22.8910   46.8350 C   0  0  0  0  0  0  0  0  0  0  0  0
   57.0880   24.2110   46.2350 N   0  0  0  0  0  0  0  0  0  0  0  0
   56.4080   25.6200   46.8190 S   0  0  0  0  0  0  0  0  0  0  0  0
   56.9130   26.6240   45.5880 C   0  0  0  0  0  0  0  0  0  0  0  0
   56.6950   27.9510   45.4330 N   0  0  0  0  0  0  0  0  0  0  0  0
   57.1930   28.5910   44.3320 C   0  0  0  0  0  0  0  0  0  0  0  0
   56.9560   30.0410   44.1610 C   0  0  0  0  0  0  0  0  0  0  0  0
   55.8970   30.5600   44.6130 O   0  0  0  0  0  0  0  0  0  0  0  0
   57.9200   30.8640   43.4850 N   0  0  0  0  0  0  0  0  0  0  0  0
   57.7600   32.3110   43.3570 C   0  0  0  0  0  0  0  0  0  0  0  0
   58.2050   32.9980   44.6190 C   0  0  0  0  0  0  0  0  0  0  0  0
   59.0760   34.0980   44.5500 C   0  0  0  0  0  0  0  0  0  0  0  0
   59.5110   34.7270   45.7210 C   0  0  0  0  0  0  0  0  0  0  0  0
   59.0830   34.2600   46.9670 C   0  0  0  0  0  0  0  0  0  0  0  0
   58.2210   33.1630   47.0450 C   0  0  0  0  0  0  0  0  0  0  0  0
   57.8090   32.7100   48.2540 F   0  0  0  0  0  0  0  0  0  0  0  0
   57.7830   32.5310   45.8750 C   0  0  0  0  0  0  0  0  0  0  0  0
   57.9270   27.8560   43.3650 C   0  0  0  0  0  0  0  0  0  0  0  0
   58.1410   26.4780   43.5390 C   0  0  0  0  0  0  0  0  0  0  0  0
   57.6190   25.8650   44.6760 C   0  0  0  0  0  0  0  0  0  0  0  0
   57.7000   24.5090   45.0530 C   0  0  0  0  0  0  0  0  0  0  0  0
   58.2840   23.6360   44.3560 O   0  0  0  0  0  0  0  0  0  0  0  0
   56.9578   22.9835   47.9311 H   0  0  0  0  0  0  0  0  0  0  0  0
   55.9971   22.4411   46.5135 H   0  0  0  0  0  0  0  0  0  0  0  0
   57.7834   22.2516   46.5135 H   0  0  0  0  0  0  0  0  0  0  0  0
   58.7690   30.4280   43.0610 H   0  0  0  0  0  0  0  0  0  0  0  0
   58.3685   32.6704   42.5140 H   0  0  0  0  0  0  0  0  0  0  0  0
   56.6988   32.5398   43.1796 H   0  0  0  0  0  0  0  0  0  0  0  0
   59.4172   34.4661   43.5712 H   0  0  0  0  0  0  0  0  0  0  0  0
   60.1905   35.5900   45.6614 H   0  0  0  0  0  0  0  0  0  0  0  0
   59.4251   34.7565   47.8870 H   0  0  0  0  0  0  0  0  0  0  0  0
   57.1064   31.6661   45.9394 H   0  0  0  0  0  0  0  0  0  0  0  0
   58.3293   28.3660   42.4773 H   0  0  0  0  0  0  0  0  0  0  0  0
   58.7069   25.8975   42.7955 H   0  0  0  0  0  0  0  0  0  0  0  0
  1  2  1  0
  2  3  1  0
  3  4  1  0
  4  5  2  0
  5  6  1  0
  6  7  1  0
  7  8  2  0
  7  9  1  0
  9 10  1  0
 10 11  1  0
 11 12  2  0
 12 13  1  0
 13 14  2  0
 14 15  1  0
 15 16  1  0
 15 17  2  0
  6 18  2  0
 18 19  1  0
 19 20  2  0
 20 21  1  0
 21 22  2  0
 21  2  1  0
 20  4  1  0
 17 11  1  0
  1 23  1  0
  1 24  1  0
  1 25  1  0
  9 26  1  0
 10 27  1  0
 10 28  1  0
 12 29  1  0
 13 30  1  0
 14 31  1  0
 17 32  1  0
 18 33  1  0
 19 34  1  0
M  END
>  <UniqueID>  (61) 
58

>  <SMILES>  (61) 
Cn1sc2nc(C(=O)NCc3cccc(F)c3)ccc2c1=O

>  <Energy>  (61) 
75.57199612050341

>  <Genealogy>  (61) 
Cn1sc2nc(C(=O)NCc3cccc(F)c3)ccc2c1=O (3D coordinates assigned)
Cn1sc2nc(C(=O)NCc3cccc(F)c3)ccc2c1=O (optimized conformer: 75.57199612050341 kcal/mol)

>  <smiles>  (61) 
Cn1sc2nc(C(=O)NCc3cccc(F)c3)ccc2c1=O

>  <score_type>  (61) 
oracle

>  <origin>  (61) 
adg

>  <m_score__min__energy>  (61) 
-7.5899999999999999

>  <m_primary>  (61) 
energy

$$$$
61:0
     RDKit          3D

 71 74  0  0  1  0  0  0  0  0999 V2000
   58.7620   35.1120   47.1480 O   0  0  0  0  0  0  0  0  0  0  0  0
   58.8860   33.8560   46.9430 C   0  0  0  0  0  0  0  0  0  0  0  0
   57.6690   33.1260   46.5920 C   0  0  0  0  0  0  0  0  0  0  0  0
   57.7780   32.5850   45.1930 C   0  0  0  0  0  0  0  0  0  0  0  0
   58.1890   33.4710   44.2020 C   0  0  0  0  0  0  0  0  0  0  0  0
   58.3470   33.0910   42.8860 C   0  0  0  0  0  0  0  0  0  0  0  0
   58.0760   31.7720   42.5850 C   0  0  0  0  0  0  0  0  0  0  0  0
   57.6600   30.8600   43.5590 C   0  0  0  0  0  0  0  0  0  0  0  0
   57.3800   29.5290   43.1540 N   0  0  0  0  0  0  0  0  0  0  0  0
   57.7050   28.1470   44.1340 S   0  0  0  0  0  0  0  0  0  0  0  0
   57.7520   26.8740   43.3810 O   0  0  0  0  0  0  0  0  0  0  0  0
   56.6190   28.1010   45.2030 O   0  0  0  0  0  0  0  0  0  0  0  0
   59.2260   28.4640   44.9930 C   0  0  0  0  0  0  0  0  0  0  0  0
   59.1490   28.0730   46.4440 C   0  0  0  0  0  0  0  0  0  0  0  0
   59.5950   26.6360   46.5490 C   0  0  0  0  0  0  0  0  0  0  0  0
   58.8480   25.7270   45.7140 N   0  0  0  0  0  0  0  0  0  0  0  0
   57.7630   25.1420   46.0810 C   0  0  0  0  0  0  0  0  0  0  0  0
   57.7350   24.0410   46.9090 C   0  0  0  0  0  0  0  0  0  0  0  0
   56.5430   23.4220   47.2870 C   0  0  0  0  0  0  0  0  0  0  0  0
   55.3840   23.9350   46.8140 N   0  0  0  0  0  0  0  0  0  0  0  0
   55.4170   25.0100   46.0060 C   0  0  0  0  0  0  0  0  0  0  0  0
   54.2880   25.4370   45.6020 O   0  0  0  0  0  0  0  0  0  0  0  0
   56.5660   25.6160   45.6350 N   0  0  0  0  0  0  0  0  0  0  0  0
   57.5150   31.2870   44.8740 C   0  0  0  0  0  0  0  0  0  0  0  0
   57.1110   30.4240   45.8550 O   0  0  0  0  0  0  0  0  0  0  0  0
   60.1820   33.3100   47.0810 N   0  0  0  0  0  0  0  0  0  0  0  0
   61.2390   34.2320   47.4970 C   0  0  0  0  0  0  0  0  0  0  0  0
   62.2060   33.5780   48.4260 C   0  0  0  0  0  0  0  0  0  0  0  0
   63.4030   33.0530   48.0290 C   0  0  0  0  0  0  0  0  0  0  0  0
   64.2400   32.4610   48.9770 C   0  0  0  0  0  0  0  0  0  0  0  0
   63.8320   32.4230   50.2940 C   0  0  0  0  0  0  0  0  0  0  0  0
   62.6340   32.9410   50.7310 C   0  0  0  0  0  0  0  0  0  0  0  0
   61.8300   33.5230   49.7550 C   0  0  0  0  0  0  0  0  0  0  0  0
   60.5040   31.9170   46.8110 C   0  0  0  0  0  0  0  0  0  0  0  0
   60.3030   31.0160   47.9480 C   0  0  0  0  0  0  0  0  0  0  0  0
   59.1190   31.1810   48.6830 C   0  0  0  0  0  0  0  0  0  0  0  0
   58.8010   30.4120   49.7610 C   0  0  0  0  0  0  0  0  0  0  0  0
   59.6780   29.4160   50.1600 C   0  0  0  0  0  0  0  0  0  0  0  0
   60.8600   29.2180   49.4630 C   0  0  0  0  0  0  0  0  0  0  0  0
   61.1350   30.0290   48.3710 C   0  0  0  0  0  0  0  0  0  0  0  0
   57.5293   32.2917   47.2951 H   0  0  0  0  0  0  0  0  0  0  0  0
   56.8093   33.8099   46.6483 H   0  0  0  0  0  0  0  0  0  0  0  0
   58.3959   34.5152   44.4792 H   0  0  0  0  0  0  0  0  0  0  0  0
   58.6729   33.8040   42.1144 H   0  0  0  0  0  0  0  0  0  0  0  0
   58.1909   31.4277   41.5466 H   0  0  0  0  0  0  0  0  0  0  0  0
   56.9500   29.4310   42.1930 H   0  0  0  0  0  0  0  0  0  0  0  0
   60.0311   27.8884   44.5128 H   0  0  0  0  0  0  0  0  0  0  0  0
   59.4239   29.5449   44.9436 H   0  0  0  0  0  0  0  0  0  0  0  0
   59.8107   28.7166   47.0423 H   0  0  0  0  0  0  0  0  0  0  0  0
   58.1231   28.1896   46.8234 H   0  0  0  0  0  0  0  0  0  0  0  0
   60.6546   26.5807   46.2589 H   0  0  0  0  0  0  0  0  0  0  0  0
   59.4240   26.3251   47.5902 H   0  0  0  0  0  0  0  0  0  0  0  0
   58.6859   23.6357   47.2853 H   0  0  0  0  0  0  0  0  0  0  0  0
   56.5456   22.5438   47.9493 H   0  0  0  0  0  0  0  0  0  0  0  0
   54.4720   23.4670   47.1000 H   0  0  0  0  0  0  0  0  0  0  0  0
   56.5240   26.4480   45.0090 H   0  0  0  0  0  0  0  0  0  0  0  0
   56.1910   30.0660   45.9830 H   0  0  0  0  0  0  0  0  0  0  0  0
   61.7807   34.5795   46.6049 H   0  0  0  0  0  0  0  0  0  0  0  0
   60.7707   35.0749   48.0263 H   0  0  0  0  0  0  0  0  0  0  0  0
   63.7048   33.0962   46.9721 H   0  0  0  0  0  0  0  0  0  0  0  0
   65.2081   32.0323   48.6786 H   0  0  0  0  0  0  0  0  0  0  0  0
   64.4984   31.9546   51.0332 H   0  0  0  0  0  0  0  0  0  0  0  0
   62.3303   32.8977   51.7874 H   0  0  0  0  0  0  0  0  0  0  0  0
   60.8623   33.9539   50.0515 H   0  0  0  0  0  0  0  0  0  0  0  0
   59.8682   31.5717   45.9824 H   0  0  0  0  0  0  0  0  0  0  0  0
   61.5772   31.8846   46.5719 H   0  0  0  0  0  0  0  0  0  0  0  0
   58.4152   31.9679   48.3741 H   0  0  0  0  0  0  0  0  0  0  0  0
   57.8611   30.5791   50.3074 H   0  0  0  0  0  0  0  0  0  0  0  0
   59.4369   28.7841   51.0275 H   0  0  0  0  0  0  0  0  0  0  0  0
   61.5666   28.4328   49.7698 H   0  0  0  0  0  0  0  0  0  0  0  0
   62.0731   29.8645   47.8207 H   0  0  0  0  0  0  0  0  0  0  0  0
  1  2  2  0
  2  3  1  0
  3  4  1  0
  4  5  2  0
  5  6  1  0
  6  7  2  0
  7  8  1  0
  8  9  1  0
  9 10  1  0
 10 11  2  0
 10 12  2  0
 10 13  1  0
 13 14  1  0
 14 15  1  0
 15 16  1  0
 16 17  2  0
 17 18  1  0
 18 19  2  0
 19 20  1  0
 20 21  1  0
 21 22  2  0
 21 23  1  0
  8 24  2  0
 24 25  1  0
  2 26  1  0
 26 27  1  0
 27 28  1  0
 28 29  2  0
 29 30  1  0
 30 31  2  0
 31 32  1  0
 32 33  2  0
 26 34  1  0
 34 35  1  0
 35 36  2  0
 36 37  1  0
 37 38  2  0
 38 39  1  0
 39 40  2  0
 24  4  1  0
 33 28  1  0
 40 35  1  0
 23 17  1  0
  3 41  1  0
  3 42  1  0
  5 43  1  0
  6 44  1  0
  7 45  1  0
  9 46  1  0
 13 47  1  0
 13 48  1  0
 14 49  1  0
 14 50  1  0
 15 51  1  0
 15 52  1  0
 18 53  1  0
 19 54  1  0
 20 55  1  0
 23 56  1  0
 25 57  1  0
 27 58  1  0
 27 59  1  0
 29 60  1  0
 30 61  1  0
 31 62  1  0
 32 63  1  0
 33 64  1  0
 34 65  1  0
 34 66  1  0
 36 67  1  0
 37 68  1  0
 38 69  1  0
 39 70  1  0
 40 71  1  0
M  END
>  <smiles>  (62) 
O=C(Cc1cccc(NS(=O)(=O)CCCN=c2cc[nH]c(=O)[nH]2)c1O)N(Cc1ccccc1)Cc1ccccc1

>  <score_type>  (62) 
oracle

>  <origin>  (62) 
adg

>  <m_score__min__energy>  (62) 
-10.609999999999999

>  <m_primary>  (62) 
energy

$$$$
62:0
     RDKit          3D

 35 36  0  0  0  0  0  0  0  0999 V2000
   54.8020   26.2650   45.9930 N   0  0  0  0  0  0  0  0  0  0  0  0
   56.4190   25.6640   46.0980 S   0  0  0  0  0  0  0  0  0  0  0  0
   56.6930   25.1880   47.4950 O   0  0  0  0  0  0  0  0  0  0  0  0
   56.5820   24.5080   45.1500 O   0  0  0  0  0  0  0  0  0  0  0  0
   57.5490   26.9490   45.6870 C   0  0  0  0  0  0  0  0  0  0  0  0
   58.9290   26.7020   45.6450 C   0  0  0  0  0  0  0  0  0  0  0  0
   59.8150   27.7300   45.3110 C   0  0  0  0  0  0  0  0  0  0  0  0
   59.3310   29.0100   45.0240 C   0  0  0  0  0  0  0  0  0  0  0  0
   57.9520   29.2730   45.0750 C   0  0  0  0  0  0  0  0  0  0  0  0
   57.4280   30.6090   44.7340 C   0  0  0  0  0  0  0  0  0  0  0  0
   56.1830   30.7880   44.7130 O   0  0  0  0  0  0  0  0  0  0  0  0
   58.2900   31.7160   44.4450 N   0  0  0  0  0  0  0  0  0  0  0  0
   57.8670   32.9490   43.7910 C   0  0  0  0  0  0  0  0  0  0  0  0
   57.3430   33.9260   44.8400 C   0  0  0  0  0  0  0  0  0  0  0  0
   58.3330   34.1140   45.8960 N   0  0  0  0  0  0  0  0  0  0  0  0
   59.6540   34.7160   45.7210 C   0  0  0  0  0  0  0  0  0  0  0  0
   60.3490   34.6030   47.1020 C   0  0  0  0  0  0  0  0  0  0  0  0
   59.4000   33.9220   47.9720 N   0  0  0  0  0  0  0  0  0  0  0  0
   58.2370   33.6520   47.2240 C   0  0  0  0  0  0  0  0  0  0  0  0
   57.2160   33.0840   47.6990 O   0  0  0  0  0  0  0  0  0  0  0  0
   57.0640   28.2310   45.3880 C   0  0  0  0  0  0  0  0  0  0  0  0
   54.7400   27.0870   46.6350 H   0  0  0  0  0  0  0  0  0  0  0  0
   59.3145   25.6978   45.8753 H   0  0  0  0  0  0  0  0  0  0  0  0
   60.8963   27.5315   45.2738 H   0  0  0  0  0  0  0  0  0  0  0  0
   60.0327   29.8141   44.7573 H   0  0  0  0  0  0  0  0  0  0  0  0
   58.7230   33.3983   43.2663 H   0  0  0  0  0  0  0  0  0  0  0  0
   57.0699   32.7256   43.0667 H   0  0  0  0  0  0  0  0  0  0  0  0
   57.1341   34.8943   44.3618 H   0  0  0  0  0  0  0  0  0  0  0  0
   56.4220   33.5174   45.2814 H   0  0  0  0  0  0  0  0  0  0  0  0
   60.2268   34.1700   44.9569 H   0  0  0  0  0  0  0  0  0  0  0  0
   59.5841   35.7609   45.3845 H   0  0  0  0  0  0  0  0  0  0  0  0
   61.2771   34.0188   47.0166 H   0  0  0  0  0  0  0  0  0  0  0  0
   60.6226   35.5919   47.4985 H   0  0  0  0  0  0  0  0  0  0  0  0
   59.5450   33.6900   48.9820 H   0  0  0  0  0  0  0  0  0  0  0  0
   55.9806   28.4214   45.3988 H   0  0  0  0  0  0  0  0  0  0  0  0
  1  2  1  0
  2  3  2  0
  2  4  2  0
  2  5  1  0
  5  6  2  0
  6  7  1  0
  7  8  2  0
  8  9  1  0
  9 10  1  0
 10 11  2  0
 10 12  1  0
 12 13  1  0
 13 14  1  0
 14 15  1  0
 15 16  1  0
 16 17  1  0
 17 18  1  0
 18 19  1  0
 19 20  2  0
  9 21  2  0
 21  5  1  0
 19 15  1  0
  1 22  1  0
  6 23  1  0
  7 24  1  0
  8 25  1  0
 13 26  1  0
 13 27  1  0
 14 28  1  0
 14 29  1  0
 16 30  1  0
 16 31  1  0
 17 32  1  0
 17 33  1  0
 18 34  1  0
 21 35  1  0
M  CHG  2   1  -1  12  -1
M  END
>  <UniqueID>  (63) 
59

>  <SMILES>  (63) 
[NH-]S(=O)(=O)c1cccc(C(=O)[N-]CCN2CCNC2=O)c1

>  <Energy>  (63) 
46.8536493404674

>  <Genealogy>  (63) 
[NH-]S(=O)(=O)c1cccc(C(=O)[N-]CCN2CCNC2=O)c1 (protonated)
[NH-]S(=O)(=O)c1cccc(C(=O)[N-]CCN2CCNC2=O)c1 (3D coordinates assigned)
[NH-]S(=O)(=O)c1cccc(C(=O)[N-]CCN2CCNC2=O)c1 (nonaromatic ring conformer: 46.8536493404674 kcal/mol)

>  <smiles>  (63) 
NS(=O)(=O)c1cccc(C(=O)NCCN2CCNC2=O)c1

>  <score_type>  (63) 
oracle

>  <origin>  (63) 
adg

>  <m_score__min__energy>  (63) 
-11.31

>  <m_primary>  (63) 
energy

$$$$
63:0
     RDKit          3D

 43 45  0  0  0  0  0  0  0  0999 V2000
   57.1984   26.7783   43.1521 H   0  0  0  0  0  0  0  0  0  0  0  0
   57.7760   27.6470   43.5010 C   0  0  0  0  0  0  0  0  0  0  0  0
   58.0798   28.4277   42.7881 H   0  0  0  0  0  0  0  0  0  0  0  0
   58.1120   27.7550   44.8040 C   0  0  0  0  0  0  0  0  0  0  0  0
   58.8550   28.8760   45.2430 C   0  0  0  0  0  0  0  0  0  0  0  0
   59.2040   29.7770   44.4270 O   0  0  0  0  0  0  0  0  0  0  0  0
   59.2040   28.9770   46.6030 C   0  0  0  0  0  0  0  0  0  0  0  0
   59.9090   30.0240   47.0740 C   0  0  0  0  0  0  0  0  0  0  0  0
   60.9548   29.8584   47.3722 H   0  0  0  0  0  0  0  0  0  0  0  0
   59.3340   31.4150   47.2130 C   0  0  0  0  0  0  0  0  0  0  0  0
   58.2656   31.3316   47.4611 H   0  0  0  0  0  0  0  0  0  0  0  0
   59.8952   31.9302   48.0065 H   0  0  0  0  0  0  0  0  0  0  0  0
   59.4730   32.2170   45.9690 N   0  0  0  0  0  0  0  0  0  0  0  0
   59.9630   31.6140   45.2650 H   0  0  0  0  0  0  0  0  0  0  0  0
   60.3400   33.4140   46.1820 C   0  0  0  0  0  0  0  0  0  0  0  0
   60.8706   33.2925   47.1379 H   0  0  0  0  0  0  0  0  0  0  0  0
   61.0264   33.4697   45.3242 H   0  0  0  0  0  0  0  0  0  0  0  0
   59.5620   34.7460   46.2230 C   0  0  0  0  0  0  0  0  0  0  0  0
   60.1630   35.4962   46.7578 H   0  0  0  0  0  0  0  0  0  0  0  0
   59.3692   35.0685   45.1892 H   0  0  0  0  0  0  0  0  0  0  0  0
   58.2760   34.5880   46.9070 N   0  0  0  0  0  0  0  0  0  0  0  0
   58.4560   34.2720   47.8890 H   0  0  0  0  0  0  0  0  0  0  0  0
   57.3990   33.6180   46.2280 C   0  0  0  0  0  0  0  0  0  0  0  0
   56.8191   33.0794   46.9919 H   0  0  0  0  0  0  0  0  0  0  0  0
   56.7573   34.1893   45.5410 H   0  0  0  0  0  0  0  0  0  0  0  0
   58.1650   32.5820   45.3760 C   0  0  0  0  0  0  0  0  0  0  0  0
   57.5511   31.6734   45.2889 H   0  0  0  0  0  0  0  0  0  0  0  0
   58.3581   33.0347   44.3923 H   0  0  0  0  0  0  0  0  0  0  0  0
   58.8140   27.9950   47.4530 N   0  0  0  0  0  0  0  0  0  0  0  0
   58.1020   26.9190   47.0370 C   0  0  0  0  0  0  0  0  0  0  0  0
   57.7750   26.0440   47.8840 O   0  0  0  0  0  0  0  0  0  0  0  0
   57.7460   26.7880   45.7220 N   0  0  0  0  0  0  0  0  0  0  0  0
   56.9880   25.6240   45.3350 C   0  0  0  0  0  0  0  0  0  0  0  0
   57.6460   24.5030   44.8080 C   0  0  0  0  0  0  0  0  0  0  0  0
   58.7397   24.5145   44.6908 H   0  0  0  0  0  0  0  0  0  0  0  0
   56.9170   23.3710   44.4310 C   0  0  0  0  0  0  0  0  0  0  0  0
   57.4368   22.4938   44.0183 H   0  0  0  0  0  0  0  0  0  0  0  0
   55.5270   23.3550   44.5790 C   0  0  0  0  0  0  0  0  0  0  0  0
   54.9536   22.4648   44.2810 H   0  0  0  0  0  0  0  0  0  0  0  0
   54.8640   24.4680   45.1050 C   0  0  0  0  0  0  0  0  0  0  0  0
   53.7703   24.4517   45.2219 H   0  0  0  0  0  0  0  0  0  0  0  0
   55.5910   25.6030   45.4830 C   0  0  0  0  0  0  0  0  0  0  0  0
   54.9240   26.7060   46.0050 O   0  0  0  0  0  0  0  0  0  0  0  0
  1  2  1  0
  2  3  1  0
  2  4  2  0
  4  5  1  0
  5  6  2  0
  5  7  1  0
  7  8  2  0
  8  9  1  0
  8 10  1  0
 10 11  1  0
 10 12  1  0
 10 13  1  0
 13 14  1  0
 13 15  1  0
 15 16  1  0
 15 17  1  0
 15 18  1  0
 18 19  1  0
 18 20  1  0
 18 21  1  0
 21 22  1  0
 21 23  1  0
 23 24  1  0
 23 25  1  0
 23 26  1  0
 26 27  1  0
 26 28  1  0
  7 29  1  0
 29 30  1  0
 30 31  2  0
 30 32  1  0
 32 33  1  0
 33 34  2  0
 34 35  1  0
 34 36  1  0
 36 37  1  0
 36 38  2  0
 38 39  1  0
 38 40  1  0
 40 41  1  0
 40 42  2  0
 42 43  1  0
 32  4  1  0
 42 33  1  0
 26 13  1  0
M  CHG  3  13   1  29  -1  43  -1
M  END
>  <UniqueID>  (64) 
60

>  <SMILES>  (64) 
C=c1c(=O)/c(=C/C[NH+]2CCNCC2)[n-]c(=O)n1-c1ccccc1[O-]

>  <Energy>  (64) 
74.56536326925716

>  <Genealogy>  (64) 
C=c1c(=O)c(=CC[NH+]2CCNCC2)[n-]c(=O)n1-c1ccccc1[O-] (protonated)
C=c1c(=O)/c(=C/C[NH+]2CCNCC2)[n-]c(=O)n1-c1ccccc1[O-] (cis-trans isomerization)
C=c1c(=O)/c(=C/C[NH+]2CCNCC2)[n-]c(=O)n1-c1ccccc1[O-] (3D coordinates assigned)
C=c1c(=O)/c(=C/C[NH+]2CCNCC2)[n-]c(=O)n1-c1ccccc1[O-] (nonaromatic ring conformer: 74.56536326925716 kcal/mol)

>  <smiles>  (64) 
C=c1c(=O)c(=CCN2CCNCC2)[nH]c(=O)n1-c1ccccc1O

>  <score_type>  (64) 
oracle

>  <origin>  (64) 
adg

>  <m_score__min__energy>  (64) 
-10.77

>  <m_primary>  (64) 
energy

$$$$
64:0
     RDKit          3D

 43 45  0  0  0  0  0  0  0  0999 V2000
   65.7360   32.9560   49.8040 C   0  0  0  0  0  0  0  0  0  0  0  0
   64.2420   33.0780   49.7630 C   0  0  0  0  0  0  0  0  0  0  0  0
   63.5330   33.4370   50.9200 C   0  0  0  0  0  0  0  0  0  0  0  0
   62.1450   33.5900   50.8750 C   0  0  0  0  0  0  0  0  0  0  0  0
   61.4520   33.3970   49.6720 C   0  0  0  0  0  0  0  0  0  0  0  0
   59.7060   33.6190   49.6280 S   0  0  0  0  0  0  0  0  0  0  0  0
   59.0000   32.2960   49.5110 O   0  0  0  0  0  0  0  0  0  0  0  0
   59.2680   34.2910   50.8970 O   0  0  0  0  0  0  0  0  0  0  0  0
   59.2730   34.6160   48.2760 N   0  0  0  0  0  0  0  0  0  0  0  0
   59.0070   34.1620   47.0880 C   0  0  0  0  0  0  0  0  0  0  0  0
   58.4780   32.9390   46.8790 N   0  0  0  0  0  0  0  0  0  0  0  0
   58.2750   32.6760   45.5560 C   0  0  0  0  0  0  0  0  0  0  0  0
   57.7100   31.3910   45.0740 C   0  0  0  0  0  0  0  0  0  0  0  0
   57.0100   31.3280   43.8580 C   0  0  0  0  0  0  0  0  0  0  0  0
   56.4800   30.1160   43.4090 C   0  0  0  0  0  0  0  0  0  0  0  0
   56.6440   28.9540   44.1650 C   0  0  0  0  0  0  0  0  0  0  0  0
   57.3460   28.9950   45.3820 C   0  0  0  0  0  0  0  0  0  0  0  0
   57.5470   27.8280   46.1910 N   0  0  0  0  0  0  0  0  0  0  0  0
   56.6130   26.3680   46.1170 S   0  0  0  0  0  0  0  0  0  0  0  0
   57.1500   25.3630   44.7490 C   0  0  0  0  0  0  0  0  0  0  0  0
   56.8220   25.5980   47.3890 O   0  0  0  0  0  0  0  0  0  0  0  0
   55.1530   26.6980   45.9860 O   0  0  0  0  0  0  0  0  0  0  0  0
   57.8710   30.2140   45.8290 C   0  0  0  0  0  0  0  0  0  0  0  0
   58.6520   33.7170   44.7010 C   0  0  0  0  0  0  0  0  0  0  0  0
   59.2510   34.9810   45.6360 S   0  0  0  0  0  0  0  0  0  0  0  0
   62.1590   33.0510   48.5130 C   0  0  0  0  0  0  0  0  0  0  0  0
   63.5480   32.9000   48.5560 C   0  0  0  0  0  0  0  0  0  0  0  0
   66.0730   32.9285   50.8507 H   0  0  0  0  0  0  0  0  0  0  0  0
   66.0423   32.0299   49.2957 H   0  0  0  0  0  0  0  0  0  0  0  0
   66.1885   33.8202   49.2957 H   0  0  0  0  0  0  0  0  0  0  0  0
   64.0720   33.5984   51.8652 H   0  0  0  0  0  0  0  0  0  0  0  0
   61.5940   33.8629   51.7871 H   0  0  0  0  0  0  0  0  0  0  0  0
   58.2330   32.2840   47.6550 H   0  0  0  0  0  0  0  0  0  0  0  0
   56.8783   32.2388   43.2554 H   0  0  0  0  0  0  0  0  0  0  0  0
   55.9315   30.0771   42.4563 H   0  0  0  0  0  0  0  0  0  0  0  0
   56.2224   28.0031   43.8071 H   0  0  0  0  0  0  0  0  0  0  0  0
   57.6361   24.4532   45.1310 H   0  0  0  0  0  0  0  0  0  0  0  0
   56.2807   25.0842   44.1354 H   0  0  0  0  0  0  0  0  0  0  0  0
   57.8650   25.9307   44.1354 H   0  0  0  0  0  0  0  0  0  0  0  0
   58.4167   30.2522   46.7833 H   0  0  0  0  0  0  0  0  0  0  0  0
   58.5707   33.7103   43.6040 H   0  0  0  0  0  0  0  0  0  0  0  0
   61.6196   32.8978   47.5667 H   0  0  0  0  0  0  0  0  0  0  0  0
   64.0994   32.6406   47.6402 H   0  0  0  0  0  0  0  0  0  0  0  0
  1  2  1  0
  2  3  2  0
  3  4  1  0
  4  5  2  0
  5  6  1  0
  6  7  2  0
  6  8  2  0
  6  9  1  0
  9 10  2  3
 10 11  1  0
 11 12  1  0
 12 13  1  0
 13 14  2  0
 14 15  1  0
 15 16  2  0
 16 17  1  0
 17 18  1  0
 18 19  1  0
 19 20  1  0
 19 21  2  0
 19 22  2  0
 17 23  2  0
 12 24  2  0
 24 25  1  0
  5 26  1  0
 26 27  2  0
 27  2  1  0
 25 10  1  0
 23 13  1  0
  1 28  1  0
  1 29  1  0
  1 30  1  0
  3 31  1  0
  4 32  1  0
 11 33  1  0
 14 34  1  0
 15 35  1  0
 16 36  1  0
 20 37  1  0
 20 38  1  0
 20 39  1  0
 23 40  1  0
 24 41  1  0
 26 42  1  0
 27 43  1  0
M  CHG  1  18  -1
M  END
>  <UniqueID>  (65) 
61

>  <SMILES>  (65) 
Cc1ccc(S(=O)(=O)N=c2[nH]c(-c3cccc([N-]S(C)(=O)=O)c3)cs2)cc1

>  <Energy>  (65) 
80.06300073557027

>  <Genealogy>  (65) 
Cc1ccc(S(=O)(=O)N=c2[nH]c(-c3cccc([N-]S(C)(=O)=O)c3)cs2)cc1 (protonated)
Cc1ccc(S(=O)(=O)N=c2[nH]c(-c3cccc([N-]S(C)(=O)=O)c3)cs2)cc1 (3D coordinates assigned)
Cc1ccc(S(=O)(=O)N=c2[nH]c(-c3cccc([N-]S(C)(=O)=O)c3)cs2)cc1 (optimized conformer: 80.06300073557027 kcal/mol)

>  <smiles>  (65) 
Cc1ccc(S(=O)(=O)N=c2[nH]c(-c3cccc(NS(C)(=O)=O)c3)cs2)cc1

>  <score_type>  (65) 
oracle

>  <origin>  (65) 
adg

>  <m_score__min__energy>  (65) 
-11.199999999999999

>  <m_primary>  (65) 
energy

$$$$
65:0
     RDKit          3D

 63 67  0  0  0  0  0  0  0  0999 V2000
   58.7474   30.4149   47.9145 H   0  0  0  0  0  0  0  0  0  0  0  0
   58.1410   29.8160   47.2190 C   0  0  0  0  0  0  0  0  0  0  0  0
   57.8443   28.7919   47.4896 H   0  0  0  0  0  0  0  0  0  0  0  0
   57.7630   30.3350   46.0400 C   0  0  0  0  0  0  0  0  0  0  0  0
   56.9940   29.7180   45.0390 C   0  0  0  0  0  0  0  0  0  0  0  0
   56.3010   28.5630   45.0390 C   0  0  0  0  0  0  0  0  0  0  0  0
   55.4150   28.5089   44.3894 H   0  0  0  0  0  0  0  0  0  0  0  0
   56.6260   27.3680   45.8320 C   0  0  0  0  0  0  0  0  0  0  0  0
   57.8180   27.1310   46.4110 N   0  0  0  0  0  0  0  0  0  0  0  0
   57.6000   26.0040   47.1220 C   0  0  0  0  0  0  0  0  0  0  0  0
   58.5000   25.4470   47.8040 O   0  0  0  0  0  0  0  0  0  0  0  0
   56.3390   25.5240   47.0520 N   0  0  0  0  0  0  0  0  0  0  0  0
   55.7340   26.4070   46.2420 C   0  0  0  0  0  0  0  0  0  0  0  0
   54.3930   26.3390   45.8860 O   0  0  0  0  0  0  0  0  0  0  0  0
   57.0620   30.5510   43.9310 C   0  0  0  0  0  0  0  0  0  0  0  0
   56.6164   30.3645   42.9427 H   0  0  0  0  0  0  0  0  0  0  0  0
   57.7950   31.6570   44.3060 C   0  0  0  0  0  0  0  0  0  0  0  0
   58.1740   32.7830   43.3940 C   0  0  0  0  0  0  0  0  0  0  0  0
   58.4682   33.6572   43.9934 H   0  0  0  0  0  0  0  0  0  0  0  0
   59.0173   32.4729   42.7594 H   0  0  0  0  0  0  0  0  0  0  0  0
   57.3148   33.0459   42.7594 H   0  0  0  0  0  0  0  0  0  0  0  0
   58.2210   31.5250   45.5790 N   0  0  0  0  0  0  0  0  0  0  0  0
   59.1090   32.4270   46.2610 C   0  0  0  0  0  0  0  0  0  0  0  0
   58.6630   33.7240   46.5370 C   0  0  0  0  0  0  0  0  0  0  0  0
   57.6684   34.0444   46.1934 H   0  0  0  0  0  0  0  0  0  0  0  0
   59.4690   34.6110   47.2430 C   0  0  0  0  0  0  0  0  0  0  0  0
   59.1151   35.6329   47.4443 H   0  0  0  0  0  0  0  0  0  0  0  0
   60.7240   34.2080   47.6960 C   0  0  0  0  0  0  0  0  0  0  0  0
   61.3492   34.9124   48.2643 H   0  0  0  0  0  0  0  0  0  0  0  0
   61.1990   32.9130   47.4350 C   0  0  0  0  0  0  0  0  0  0  0  0
   62.7680   32.4410   48.1140 S   0  0  0  0  0  0  0  0  0  0  0  0
   63.5220   31.6150   47.1090 O   0  0  0  0  0  0  0  0  0  0  0  0
   63.5930   33.6550   48.4400 O   0  0  0  0  0  0  0  0  0  0  0  0
   62.4890   31.5460   49.5720 N   0  0  0  0  0  0  0  0  0  0  0  0
   61.2390   30.9270   49.8910 C   0  0  0  0  0  0  0  0  0  0  0  0
   61.0420   29.5580   49.7010 C   0  0  0  0  0  0  0  0  0  0  0  0
   61.8735   28.9226   49.3620 H   0  0  0  0  0  0  0  0  0  0  0  0
   59.7900   29.0000   49.9420 C   0  0  0  0  0  0  0  0  0  0  0  0
   59.6304   27.9196   49.8109 H   0  0  0  0  0  0  0  0  0  0  0  0
   58.7390   29.8210   50.3510 C   0  0  0  0  0  0  0  0  0  0  0  0
   57.7434   29.3856   50.5218 H   0  0  0  0  0  0  0  0  0  0  0  0
   58.9330   31.1620   50.5420 N   0  0  0  0  0  0  0  0  0  0  0  0
   57.7750   32.0180   50.8540 C   0  0  0  0  0  0  0  0  0  0  0  0
   58.1301   32.9999   51.2001 H   0  0  0  0  0  0  0  0  0  0  0  0
   57.1622   32.1417   49.9489 H   0  0  0  0  0  0  0  0  0  0  0  0
   56.9400   31.3790   51.9350 C   0  0  0  0  0  0  0  0  0  0  0  0
   55.6220   30.9640   51.6710 C   0  0  0  0  0  0  0  0  0  0  0  0
   55.1770   31.1498   50.6823 H   0  0  0  0  0  0  0  0  0  0  0  0
   54.8760   30.3170   52.6590 C   0  0  0  0  0  0  0  0  0  0  0  0
   53.8432   30.0021   52.4487 H   0  0  0  0  0  0  0  0  0  0  0  0
   55.4380   30.0690   53.9130 C   0  0  0  0  0  0  0  0  0  0  0  0
   54.8514   29.5515   54.6864 H   0  0  0  0  0  0  0  0  0  0  0  0
   56.7470   30.4790   54.1850 C   0  0  0  0  0  0  0  0  0  0  0  0
   57.1872   30.2884   55.1749 H   0  0  0  0  0  0  0  0  0  0  0  0
   57.4980   31.1310   53.2010 C   0  0  0  0  0  0  0  0  0  0  0  0
   58.5279   31.4504   53.4187 H   0  0  0  0  0  0  0  0  0  0  0  0
   60.1740   31.7160   50.3470 C   0  0  0  0  0  0  0  0  0  0  0  0
   60.3610   32.9500   50.5400 O   0  0  0  0  0  0  0  0  0  0  0  0
   60.3910   32.0060   46.6980 C   0  0  0  0  0  0  0  0  0  0  0  0
   60.8940   30.6220   46.3510 C   0  0  0  0  0  0  0  0  0  0  0  0
   61.0972   30.0630   47.2763 H   0  0  0  0  0  0  0  0  0  0  0  0
   60.1312   30.0916   45.7622 H   0  0  0  0  0  0  0  0  0  0  0  0
   61.8194   30.7051   45.7622 H   0  0  0  0  0  0  0  0  0  0  0  0
  1  2  1  0
  2  3  1  0
  2  4  2  0
  4  5  1  0
  5  6  2  0
  6  7  1  0
  6  8  1  0
  8  9  1  0
  9 10  1  0
 10 11  2  0
 10 12  1  0
 12 13  1  0
 13 14  1  0
  5 15  1  0
 15 16  1  0
 15 17  2  0
 17 18  1  0
 18 19  1  0
 18 20  1  0
 18 21  1  0
 17 22  1  0
 22 23  1  0
 23 24  2  0
 24 25  1  0
 24 26  1  0
 26 27  1  0
 26 28  2  0
 28 29  1  0
 28 30  1  0
 30 31  1  0
 31 32  2  0
 31 33  2  0
 31 34  1  0
 34 35  1  0
 35 36  2  0
 36 37  1  0
 36 38  1  0
 38 39  1  0
 38 40  2  0
 40 41  1  0
 40 42  1  0
 42 43  1  0
 43 44  1  0
 43 45  1  0
 43 46  1  0
 46 47  2  0
 47 48  1  0
 47 49  1  0
 49 50  1  0
 49 51  2  0
 51 52  1  0
 51 53  1  0
 53 54  1  0
 53 55  2  0
 55 56  1  0
 42 57  1  0
 57 58  2  0
 30 59  2  0
 59 60  1  0
 60 61  1  0
 60 62  1  0
 60 63  1  0
 22  4  1  0
 59 23  1  0
 13  8  2  0
 57 35  1  0
 55 46  1  0
M  CHG  4   9  -1  12  -1  14  -1  34  -1
M  END
>  <UniqueID>  (66) 
62

>  <SMILES>  (66) 
C=c1/c(=C\c2[n-]c(=O)[n-]c2[O-])cc(C)n1-c1cccc(S(=O)(=O)[N-]c2cccn(Cc3ccccc3)c2=O)c1C

>  <Energy>  (66) 
152.2301394563515

>  <Genealogy>  (66) 
C=c1c(=Cc2[n-]c(=O)[n-]c2[O-])cc(C)n1-c1cccc(S(=O)(=O)[N-]c2cccn(Cc3ccccc3)c2=O)c1C (protonated)
C=c1/c(=C\c2[n-]c(=O)[n-]c2[O-])cc(C)n1-c1cccc(S(=O)(=O)[N-]c2cccn(Cc3ccccc3)c2=O)c1C (cis-trans isomerization)
C=c1/c(=C\c2[n-]c(=O)[n-]c2[O-])cc(C)n1-c1cccc(S(=O)(=O)[N-]c2cccn(Cc3ccccc3)c2=O)c1C (3D coordinates assigned)
C=c1/c(=C\c2[n-]c(=O)[n-]c2[O-])cc(C)n1-c1cccc(S(=O)(=O)[N-]c2cccn(Cc3ccccc3)c2=O)c1C (optimized conformer: 152.2301394563515 kcal/mol)

>  <smiles>  (66) 
C=c1c(=Cc2[nH]c(=O)[nH]c2O)cc(C)n1-c1cccc(S(=O)(=O)Nc2cccn(Cc3ccccc3)c2=O)c1C

>  <score_type>  (66) 
oracle

>  <origin>  (66) 
adg

>  <m_score__min__energy>  (66) 
-19.199999999999999

>  <m_primary>  (66) 
energy

$$$$
66:0
     RDKit          3D

 53 56  0  0  1  0  0  0  0  0999 V2000
   60.9170   33.1850   50.2460 C   0  0  0  0  0  0  0  0  0  0  0  0
   61.6550   33.4130   48.9840 C   0  0  0  0  0  0  0  0  0  0  0  0
   63.0200   33.2510   48.9190 C   0  0  0  0  0  0  0  0  0  0  0  0
   63.7470   33.4560   47.7510 C   0  0  0  0  0  0  0  0  0  0  0  0
   63.0310   33.8410   46.6190 C   0  0  0  0  0  0  0  0  0  0  0  0
   61.6590   34.0040   46.6850 C   0  0  0  0  0  0  0  0  0  0  0  0
   60.9580   33.7900   47.8770 C   0  0  0  0  0  0  0  0  0  0  0  0
   59.5500   33.9850   47.8350 N   0  0  0  0  0  0  0  0  0  0  0  0
   58.9190   33.5420   46.8010 C   0  0  0  0  0  0  0  0  0  0  0  0
   57.8050   34.2490   46.4040 C   0  0  0  0  0  0  0  0  0  0  0  0
   57.0430   33.8750   45.3100 C   0  0  0  0  0  0  0  0  0  0  0  0
   57.4800   32.7580   44.6570 N   0  0  0  0  0  0  0  0  0  0  0  0
   58.5700   32.0870   45.0660 C   0  0  0  0  0  0  0  0  0  0  0  0
   58.8870   31.0360   44.3630 N   0  0  0  0  0  0  0  0  0  0  0  0
   58.3590   29.7610   44.7090 C   0  0  0  0  0  0  0  0  0  0  0  0
   57.0050   29.6430   44.8240 C   0  0  0  0  0  0  0  0  0  0  0  0
   56.3850   28.4500   45.1560 C   0  0  0  0  0  0  0  0  0  0  0  0
   57.2200   27.3680   45.3680 C   0  0  0  0  0  0  0  0  0  0  0  0
   56.6510   26.0660   45.7230 C   0  0  0  0  0  0  0  0  0  0  0  0
   57.2690   24.8280   45.5850 C   0  0  0  0  0  0  0  0  0  0  0  0
   56.4240   23.8750   46.0210 N   0  0  0  0  0  0  0  0  0  0  0  0
   56.7100   22.4530   46.0370 C   0  0  0  0  0  0  0  0  0  0  0  0
   56.7110   21.9060   44.6570 C   0  0  0  0  0  0  0  0  0  0  0  0
   57.6190   20.8660   44.2960 N   0  0  0  0  0  0  0  0  0  0  0  0
   55.9310   22.3170   43.7510 O   0  0  0  0  0  0  0  0  0  0  0  0
   55.3210   24.4910   46.4170 N   0  0  0  0  0  0  0  0  0  0  0  0
   55.4340   25.7950   46.2480 N   0  0  0  0  0  0  0  0  0  0  0  0
   58.5950   27.4590   45.2580 C   0  0  0  0  0  0  0  0  0  0  0  0
   59.1890   28.6710   44.9230 C   0  0  0  0  0  0  0  0  0  0  0  0
   60.6660   28.7960   44.7980 C   0  0  0  0  0  0  0  0  0  0  0  0
   59.3150   32.4370   46.1210 N   0  0  0  0  0  0  0  0  0  0  0  0
   61.5793   33.3896   51.1001 H   0  0  0  0  0  0  0  0  0  0  0  0
   60.0464   33.8561   50.2880 H   0  0  0  0  0  0  0  0  0  0  0  0
   60.5766   32.1398   50.2880 H   0  0  0  0  0  0  0  0  0  0  0  0
   63.5586   32.9467   49.8286 H   0  0  0  0  0  0  0  0  0  0  0  0
   64.8382   33.3203   47.7221 H   0  0  0  0  0  0  0  0  0  0  0  0
   63.5587   34.0158   45.6698 H   0  0  0  0  0  0  0  0  0  0  0  0
   61.1081   34.3078   45.7827 H   0  0  0  0  0  0  0  0  0  0  0  0
   57.5108   35.1414   46.9759 H   0  0  0  0  0  0  0  0  0  0  0  0
   56.1521   34.4358   44.9907 H   0  0  0  0  0  0  0  0  0  0  0  0
   56.9320   32.4240   43.8090 H   0  0  0  0  0  0  0  0  0  0  0  0
   56.3806   30.5309   44.6459 H   0  0  0  0  0  0  0  0  0  0  0  0
   55.2918   28.3677   45.2459 H   0  0  0  0  0  0  0  0  0  0  0  0
   58.2796   24.6561   45.1862 H   0  0  0  0  0  0  0  0  0  0  0  0
   57.6976   22.2877   46.4923 H   0  0  0  0  0  0  0  0  0  0  0  0
   55.9316   21.9407   46.6216 H   0  0  0  0  0  0  0  0  0  0  0  0
   58.4650   20.7000   44.9080 H   0  0  0  0  0  0  0  0  0  0  0  0
   57.4780   20.2730   43.4610 H   0  0  0  0  0  0  0  0  0  0  0  0
   59.2201   26.5715   45.4357 H   0  0  0  0  0  0  0  0  0  0  0  0
   61.1169   28.8342   45.8006 H   0  0  0  0  0  0  0  0  0  0  0  0
   61.0624   27.9282   44.2505 H   0  0  0  0  0  0  0  0  0  0  0  0
   60.9109   29.7181   44.2505 H   0  0  0  0  0  0  0  0  0  0  0  0
   60.1600   31.9100   46.4310 H   0  0  0  0  0  0  0  0  0  0  0  0
  1  2  1  0
  2  3  2  0
  3  4  1  0
  4  5  2  0
  5  6  1  0
  6  7  2  0
  7  8  1  0
  8  9  2  0
  9 10  1  0
 10 11  2  0
 11 12  1  0
 12 13  1  0
 13 14  2  0
 14 15  1  0
 15 16  2  0
 16 17  1  0
 17 18  2  0
 18 19  1  0
 19 20  2  0
 20 21  1  0
 21 22  1  0
 22 23  1  0
 23 24  1  0
 23 25  2  0
 21 26  1  0
 26 27  2  0
 18 28  1  0
 28 29  2  0
 29 30  1  0
 13 31  1  0
  7  2  1  0
 31  9  1  0
 29 15  1  0
 27 19  1  0
  1 32  1  0
  1 33  1  0
  1 34  1  0
  3 35  1  0
  4 36  1  0
  5 37  1  0
  6 38  1  0
 10 39  1  0
 11 40  1  0
 12 41  1  0
 16 42  1  0
 17 43  1  0
 20 44  1  0
 22 45  1  0
 22 46  1  0
 24 47  1  0
 24 48  1  0
 28 49  1  0
 30 50  1  0
 30 51  1  0
 30 52  1  0
 31 53  1  0
M  END
>  <smiles>  (67) 
Cc1ccccc1N=c1cc[nH]c(=Nc2ccc(-c3cn(CC(N)=O)nn3)cc2C)[nH]1

>  <score_type>  (67) 
oracle

>  <origin>  (67) 
adg

>  <m_score__min__energy>  (67) 
-9.8699999999999992

>  <m_primary>  (67) 
energy

$$$$
67:0
     RDKit          3D

 49 52  0  0  0  0  0  0  0  0999 V2000
   55.6490   29.8950   44.8530 O   0  0  0  0  0  0  0  0  0  0  0  0
   56.8340   30.0860   44.4650 C   0  0  0  0  0  0  0  0  0  0  0  0
   57.0850   31.2140   43.4990 C   0  0  0  0  0  0  0  0  0  0  0  0
   58.2550   32.0910   43.9700 C   0  0  0  0  0  0  0  0  0  0  0  0
   57.8120   33.4620   44.3150 N   0  0  0  0  0  0  0  0  0  0  0  0
   58.9460   34.3970   44.5060 C   0  0  0  0  0  0  0  0  0  0  0  0
   59.2850   34.7310   45.9820 C   0  0  0  0  0  0  0  0  0  0  0  0
   58.8430   33.6830   47.0350 C   0  0  0  0  0  0  0  0  0  0  0  0
   59.8480   32.6330   47.3130 N   0  0  0  0  0  0  0  0  0  0  0  0
   59.7060   31.3160   47.6430 C   0  0  0  0  0  0  0  0  0  0  0  0
   58.6010   30.7220   47.7280 O   0  0  0  0  0  0  0  0  0  0  0  0
   60.8810   30.6850   47.8720 N   0  0  0  0  0  0  0  0  0  0  0  0
   61.8030   31.6400   47.6860 C   0  0  0  0  0  0  0  0  0  0  0  0
   63.1860   31.5330   47.8090 C   0  0  0  0  0  0  0  0  0  0  0  0
   63.9530   32.6890   47.5750 C   0  0  0  0  0  0  0  0  0  0  0  0
   63.3250   33.9070   47.2310 C   0  0  0  0  0  0  0  0  0  0  0  0
   61.9240   33.9810   47.1170 C   0  0  0  0  0  0  0  0  0  0  0  0
   61.1880   32.8140   47.3520 C   0  0  0  0  0  0  0  0  0  0  0  0
   57.4540   33.0610   46.7500 C   0  0  0  0  0  0  0  0  0  0  0  0
   56.8440   33.5300   45.4260 C   0  0  0  0  0  0  0  0  0  0  0  0
   57.9260   29.2240   44.9990 C   0  0  0  0  0  0  0  0  0  0  0  0
   59.2530   29.3290   44.5280 C   0  0  0  0  0  0  0  0  0  0  0  0
   60.2580   28.5090   45.0480 C   0  0  0  0  0  0  0  0  0  0  0  0
   59.9590   27.5760   46.0430 C   0  0  0  0  0  0  0  0  0  0  0  0
   60.9380   26.7820   46.5450 F   0  0  0  0  0  0  0  0  0  0  0  0
   58.6530   27.4620   46.5210 C   0  0  0  0  0  0  0  0  0  0  0  0
   57.6430   28.2790   46.0050 C   0  0  0  0  0  0  0  0  0  0  0  0
   57.3246   30.7948   42.5106 H   0  0  0  0  0  0  0  0  0  0  0  0
   56.1799   31.8366   43.4439 H   0  0  0  0  0  0  0  0  0  0  0  0
   58.7101   31.6298   44.8589 H   0  0  0  0  0  0  0  0  0  0  0  0
   58.9805   32.1636   43.1464 H   0  0  0  0  0  0  0  0  0  0  0  0
   59.8383   33.9484   44.0450 H   0  0  0  0  0  0  0  0  0  0  0  0
   58.6410   35.3459   44.0406 H   0  0  0  0  0  0  0  0  0  0  0  0
   60.3763   34.8457   46.0589 H   0  0  0  0  0  0  0  0  0  0  0  0
   58.7185   35.6442   46.2168 H   0  0  0  0  0  0  0  0  0  0  0  0
   58.7513   34.2766   47.9565 H   0  0  0  0  0  0  0  0  0  0  0  0
   61.0340   29.6860   48.1380 H   0  0  0  0  0  0  0  0  0  0  0  0
   63.6617   30.5788   48.0794 H   0  0  0  0  0  0  0  0  0  0  0  0
   65.0488   32.6443   47.6604 H   0  0  0  0  0  0  0  0  0  0  0  0
   63.9355   34.8041   47.0509 H   0  0  0  0  0  0  0  0  0  0  0  0
   61.4243   34.9245   46.8521 H   0  0  0  0  0  0  0  0  0  0  0  0
   57.5608   31.9667   46.7177 H   0  0  0  0  0  0  0  0  0  0  0  0
   56.7785   33.3862   47.5549 H   0  0  0  0  0  0  0  0  0  0  0  0
   55.9825   32.8897   45.1857 H   0  0  0  0  0  0  0  0  0  0  0  0
   56.5391   34.5800   45.5463 H   0  0  0  0  0  0  0  0  0  0  0  0
   59.4977   30.0622   43.7454 H   0  0  0  0  0  0  0  0  0  0  0  0
   61.2879   28.5988   44.6723 H   0  0  0  0  0  0  0  0  0  0  0  0
   58.4178   26.7277   47.3055 H   0  0  0  0  0  0  0  0  0  0  0  0
   56.6164   28.1831   46.3884 H   0  0  0  0  0  0  0  0  0  0  0  0
  1  2  2  0
  2  3  1  0
  3  4  1  0
  4  5  1  0
  5  6  1  0
  6  7  1  0
  7  8  1  0
  8  9  1  0
  9 10  1  0
 10 11  2  0
 10 12  1  0
 12 13  1  0
 13 14  2  0
 14 15  1  0
 15 16  2  0
 16 17  1  0
 17 18  2  0
  8 19  1  0
 19 20  1  0
  2 21  1  0
 21 22  2  0
 22 23  1  0
 23 24  2  0
 24 25  1  0
 24 26  1  0
 26 27  2  0
 20  5  1  0
 27 21  1  0
 18  9  1  0
 18 13  1  0
  3 28  1  0
  3 29  1  0
  4 30  1  0
  4 31  1  0
  6 32  1  0
  6 33  1  0
  7 34  1  0
  7 35  1  0
  8 36  1  0
 12 37  1  0
 14 38  1  0
 15 39  1  0
 16 40  1  0
 17 41  1  0
 19 42  1  0
 19 43  1  0
 20 44  1  0
 20 45  1  0
 22 46  1  0
 23 47  1  0
 26 48  1  0
 27 49  1  0
M  END
>  <UniqueID>  (68) 
63

>  <SMILES>  (68) 
O=C(CCN1CCC(n2c(=O)[nH]c3ccccc32)CC1)c1ccc(F)cc1

>  <Energy>  (68) 
109.99464219372895

>  <Genealogy>  (68) 
O=C(CCN1CCC(n2c(=O)[nH]c3ccccc32)CC1)c1ccc(F)cc1 (3D coordinates assigned)
O=C(CCN1CCC(n2c(=O)[nH]c3ccccc32)CC1)c1ccc(F)cc1 (nonaromatic ring conformer: 109.99464219372895 kcal/mol)

>  <smiles>  (68) 
O=C(CCN1CCC(n2c(=O)[nH]c3ccccc32)CC1)c1ccc(F)cc1

>  <score_type>  (68) 
oracle

>  <origin>  (68) 
adg

>  <m_score__min__energy>  (68) 
-9.0600000000000005

>  <m_primary>  (68) 
energy

$$$$
68:0
     RDKit          3D

 51 53  0  0  0  0  0  0  0  0999 V2000
   57.6060   30.2600   46.0800 O   0  0  0  0  0  0  0  0  0  0  0  0
   58.0220   29.5840   45.0990 C   0  0  0  0  0  0  0  0  0  0  0  0
   58.8580   28.3660   45.3460 C   0  0  0  0  0  0  0  0  0  0  0  0
   57.9840   27.2170   45.7690 C   0  0  0  0  0  0  0  0  0  0  0  0
   58.5630   26.0160   46.2180 C   0  0  0  0  0  0  0  0  0  0  0  0
   57.7520   24.9380   46.5860 C   0  0  0  0  0  0  0  0  0  0  0  0
   56.3600   25.0480   46.5040 C   0  0  0  0  0  0  0  0  0  0  0  0
   55.7770   26.2330   46.0440 C   0  0  0  0  0  0  0  0  0  0  0  0
   54.3920   26.3390   45.9590 O   0  0  0  0  0  0  0  0  0  0  0  0
   56.5850   27.3140   45.6700 C   0  0  0  0  0  0  0  0  0  0  0  0
   57.7300   29.9960   43.7590 N   0  0  0  0  0  0  0  0  0  0  0  0
   56.9670   31.2120   43.4780 C   0  0  0  0  0  0  0  0  0  0  0  0
   57.8820   32.4060   43.4100 C   0  0  0  0  0  0  0  0  0  0  0  0
   58.3160   32.7600   42.2780 O   0  0  0  0  0  0  0  0  0  0  0  0
   58.2360   33.1670   44.5900 N   0  0  0  0  0  0  0  0  0  0  0  0
   57.4700   32.9900   45.8350 C   0  0  0  0  0  0  0  0  0  0  0  0
   58.0120   33.8730   46.9540 C   0  0  0  0  0  0  0  0  0  0  0  0
   59.4820   33.7900   46.9340 N   0  0  0  0  0  0  0  0  0  0  0  0
   60.0700   34.3210   48.1800 C   0  0  0  0  0  0  0  0  0  0  0  0
   61.4810   33.8180   48.3460 C   0  0  0  0  0  0  0  0  0  0  0  0
   62.2410   34.2180   49.4570 C   0  0  0  0  0  0  0  0  0  0  0  0
   63.5630   33.7810   49.6010 C   0  0  0  0  0  0  0  0  0  0  0  0
   64.1340   32.9480   48.6360 C   0  0  0  0  0  0  0  0  0  0  0  0
   63.3840   32.5480   47.5260 C   0  0  0  0  0  0  0  0  0  0  0  0
   62.0620   32.9800   47.3790 C   0  0  0  0  0  0  0  0  0  0  0  0
   60.0210   34.5060   45.7570 C   0  0  0  0  0  0  0  0  0  0  0  0
   59.1940   34.2790   44.4680 C   0  0  0  0  0  0  0  0  0  0  0  0
   59.3910   28.0969   44.4221 H   0  0  0  0  0  0  0  0  0  0  0  0
   59.5816   28.5818   46.1459 H   0  0  0  0  0  0  0  0  0  0  0  0
   59.6575   25.9247   46.2798 H   0  0  0  0  0  0  0  0  0  0  0  0
   58.2092   24.0024   46.9404 H   0  0  0  0  0  0  0  0  0  0  0  0
   55.7234   24.2017   46.8016 H   0  0  0  0  0  0  0  0  0  0  0  0
   56.1240   28.2409   45.2980 H   0  0  0  0  0  0  0  0  0  0  0  0
   58.1530   29.4610   42.9660 H   0  0  0  0  0  0  0  0  0  0  0  0
   56.4477   31.0988   42.5149 H   0  0  0  0  0  0  0  0  0  0  0  0
   56.2378   31.3687   44.2865 H   0  0  0  0  0  0  0  0  0  0  0  0
   56.4186   33.2541   45.6486 H   0  0  0  0  0  0  0  0  0  0  0  0
   57.5597   31.9397   46.1495 H   0  0  0  0  0  0  0  0  0  0  0  0
   57.6955   34.9142   46.7933 H   0  0  0  0  0  0  0  0  0  0  0  0
   57.6254   33.5343   47.9265 H   0  0  0  0  0  0  0  0  0  0  0  0
   60.0788   35.4202   48.1379 H   0  0  0  0  0  0  0  0  0  0  0  0
   59.4657   33.9824   49.0345 H   0  0  0  0  0  0  0  0  0  0  0  0
   61.7959   34.8771   50.2169 H   0  0  0  0  0  0  0  0  0  0  0  0
   64.1529   34.0939   50.4751 H   0  0  0  0  0  0  0  0  0  0  0  0
   65.1736   32.6068   48.7494 H   0  0  0  0  0  0  0  0  0  0  0  0
   63.8347   31.8921   46.7666 H   0  0  0  0  0  0  0  0  0  0  0  0
   61.4754   32.6630   46.5041 H   0  0  0  0  0  0  0  0  0  0  0  0
   60.0321   35.5833   45.9791 H   0  0  0  0  0  0  0  0  0  0  0  0
   61.0300   34.1099   45.5697 H   0  0  0  0  0  0  0  0  0  0  0  0
   58.6361   35.1997   44.2422 H   0  0  0  0  0  0  0  0  0  0  0  0
   59.8994   34.0203   43.6645 H   0  0  0  0  0  0  0  0  0  0  0  0
  1  2  2  0
  2  3  1  0
  3  4  1  0
  4  5  2  0
  5  6  1  0
  6  7  2  0
  7  8  1  0
  8  9  1  0
  8 10  2  0
  2 11  1  0
 11 12  1  0
 12 13  1  0
 13 14  2  0
 13 15  1  0
 15 16  1  0
 16 17  1  0
 17 18  1  0
 18 19  1  0
 19 20  1  0
 20 21  2  0
 21 22  1  0
 22 23  2  0
 23 24  1  0
 24 25  2  0
 18 26  1  0
 26 27  1  0
 10  4  1  0
 27 15  1  0
 25 20  1  0
  3 28  1  0
  3 29  1  0
  5 30  1  0
  6 31  1  0
  7 32  1  0
 10 33  1  0
 11 34  1  0
 12 35  1  0
 12 36  1  0
 16 37  1  0
 16 38  1  0
 17 39  1  0
 17 40  1  0
 19 41  1  0
 19 42  1  0
 21 43  1  0
 22 44  1  0
 23 45  1  0
 24 46  1  0
 25 47  1  0
 26 48  1  0
 26 49  1  0
 27 50  1  0
 27 51  1  0
M  CHG  1   9  -1
M  END
>  <UniqueID>  (69) 
64

>  <SMILES>  (69) 
O=C(Cc1cccc([O-])c1)NCC(=O)N1CCN(Cc2ccccc2)CC1

>  <Energy>  (69) 
53.30876682575176

>  <Genealogy>  (69) 
O=C(Cc1cccc([O-])c1)NCC(=O)N1CCN(Cc2ccccc2)CC1 (protonated)
O=C(Cc1cccc([O-])c1)NCC(=O)N1CCN(Cc2ccccc2)CC1 (3D coordinates assigned)
O=C(Cc1cccc([O-])c1)NCC(=O)N1CCN(Cc2ccccc2)CC1 (nonaromatic ring conformer: 53.30876682575176 kcal/mol)

>  <smiles>  (69) 
O=C(Cc1cccc(O)c1)NCC(=O)N1CCN(Cc2ccccc2)CC1

>  <score_type>  (69) 
oracle

>  <origin>  (69) 
adg

>  <m_score__min__energy>  (69) 
-13.619999999999999

>  <m_primary>  (69) 
energy

$$$$
69:0
     RDKit          3D

 51 54  0  0  0  0  0  0  0  0999 V2000
   59.3350   31.1490   50.5410 O   0  0  0  0  0  0  0  0  0  0  0  0
   59.5940   31.7390   49.4590 C   0  0  0  0  0  0  0  0  0  0  0  0
   59.1540   33.1610   49.2700 C   0  0  0  0  0  0  0  0  0  0  0  0
   59.0590   33.5060   47.8020 C   0  0  0  0  0  0  0  0  0  0  0  0
   57.7980   33.4840   47.1750 C   0  0  0  0  0  0  0  0  0  0  0  0
   57.6600   33.8410   45.8310 C   0  0  0  0  0  0  0  0  0  0  0  0
   58.7800   34.2190   45.0910 C   0  0  0  0  0  0  0  0  0  0  0  0
   60.0400   34.2420   45.6930 C   0  0  0  0  0  0  0  0  0  0  0  0
   60.1920   33.8950   47.0460 C   0  0  0  0  0  0  0  0  0  0  0  0
   61.5080   33.9400   47.6220 N   0  0  0  0  0  0  0  0  0  0  0  0
   62.5540   33.1080   47.0060 C   0  0  0  0  0  0  0  0  0  0  0  0
   63.7020   32.7500   47.9760 C   0  0  0  0  0  0  0  0  0  0  0  0
   63.3040   32.8720   49.3260 O   0  0  0  0  0  0  0  0  0  0  0  0
   62.9910   34.2210   49.5840 C   0  0  0  0  0  0  0  0  0  0  0  0
   61.6580   34.5750   48.9380 C   0  0  0  0  0  0  0  0  0  0  0  0
   60.3240   31.0620   48.4250 N   0  0  0  0  0  0  0  0  0  0  0  0
   60.4320   29.6070   48.3680 C   0  0  0  0  0  0  0  0  0  0  0  0
   59.5160   29.0680   47.3020 C   0  0  0  0  0  0  0  0  0  0  0  0
   59.2200   29.8540   46.1760 C   0  0  0  0  0  0  0  0  0  0  0  0
   58.3270   29.3870   45.2100 C   0  0  0  0  0  0  0  0  0  0  0  0
   57.7040   28.1470   45.3730 C   0  0  0  0  0  0  0  0  0  0  0  0
   57.9590   27.3600   46.5120 C   0  0  0  0  0  0  0  0  0  0  0  0
   57.2320   26.0810   46.6900 C   0  0  0  0  0  0  0  0  0  0  0  0
   57.8320   24.9340   47.0760 N   0  0  0  0  0  0  0  0  0  0  0  0
   56.8230   24.0340   47.0900 C   0  0  0  0  0  0  0  0  0  0  0  0
   57.0010   22.8270   47.4000 O   0  0  0  0  0  0  0  0  0  0  0  0
   55.6150   24.5270   46.7260 N   0  0  0  0  0  0  0  0  0  0  0  0
   55.8860   25.8180   46.4710 C   0  0  0  0  0  0  0  0  0  0  0  0
   54.9250   26.7160   46.0090 O   0  0  0  0  0  0  0  0  0  0  0  0
   58.8920   27.8210   47.4620 C   0  0  0  0  0  0  0  0  0  0  0  0
   58.1672   33.2976   49.7365 H   0  0  0  0  0  0  0  0  0  0  0  0
   59.8962   33.8236   49.7392 H   0  0  0  0  0  0  0  0  0  0  0  0
   56.9106   33.1820   47.7505 H   0  0  0  0  0  0  0  0  0  0  0  0
   56.6677   33.8239   45.3566 H   0  0  0  0  0  0  0  0  0  0  0  0
   58.6710   34.4991   44.0329 H   0  0  0  0  0  0  0  0  0  0  0  0
   60.9210   34.5343   45.1028 H   0  0  0  0  0  0  0  0  0  0  0  0
   62.0932   32.1744   46.6510 H   0  0  0  0  0  0  0  0  0  0  0  0
   62.9930   33.6929   46.1843 H   0  0  0  0  0  0  0  0  0  0  0  0
   64.0155   31.7123   47.7894 H   0  0  0  0  0  0  0  0  0  0  0  0
   64.5311   33.4508   47.7988 H   0  0  0  0  0  0  0  0  0  0  0  0
   62.9233   34.3786   50.6705 H   0  0  0  0  0  0  0  0  0  0  0  0
   63.7794   34.8630   49.1642 H   0  0  0  0  0  0  0  0  0  0  0  0
   60.8425   34.2349   49.5932 H   0  0  0  0  0  0  0  0  0  0  0  0
   61.6224   35.6656   48.7992 H   0  0  0  0  0  0  0  0  0  0  0  0
   60.7390   31.6170   47.6440 H   0  0  0  0  0  0  0  0  0  0  0  0
   61.4696   29.3269   48.1334 H   0  0  0  0  0  0  0  0  0  0  0  0
   60.1443   29.1835   49.3416 H   0  0  0  0  0  0  0  0  0  0  0  0
   59.6930   30.8397   46.0552 H   0  0  0  0  0  0  0  0  0  0  0  0
   58.1135   29.9961   44.3192 H   0  0  0  0  0  0  0  0  0  0  0  0
   57.0074   27.7822   44.6038 H   0  0  0  0  0  0  0  0  0  0  0  0
   59.1333   27.1985   48.3362 H   0  0  0  0  0  0  0  0  0  0  0  0
  1  2  2  0
  2  3  1  0
  3  4  1  0
  4  5  2  0
  5  6  1  0
  6  7  2  0
  7  8  1  0
  8  9  2  0
  9 10  1  0
 10 11  1  0
 11 12  1  0
 12 13  1  0
 13 14  1  0
 14 15  1  0
  2 16  1  0
 16 17  1  0
 17 18  1  0
 18 19  2  0
 19 20  1  0
 20 21  2  0
 21 22  1  0
 22 23  1  0
 23 24  1  0
 24 25  1  0
 25 26  2  0
 25 27  1  0
 27 28  1  0
 28 29  1  0
 22 30  2  0
  9  4  1  0
 15 10  1  0
 30 18  1  0
 28 23  2  0
  3 31  1  0
  3 32  1  0
  5 33  1  0
  6 34  1  0
  7 35  1  0
  8 36  1  0
 11 37  1  0
 11 38  1  0
 12 39  1  0
 12 40  1  0
 14 41  1  0
 14 42  1  0
 15 43  1  0
 15 44  1  0
 16 45  1  0
 17 46  1  0
 17 47  1  0
 19 48  1  0
 20 49  1  0
 21 50  1  0
 30 51  1  0
M  CHG  3  24  -1  27  -1  29  -1
M  END
>  <UniqueID>  (70) 
65

>  <SMILES>  (70) 
O=C(Cc1ccccc1N1CCOCC1)NCc1cccc(-c2[n-]c(=O)[n-]c2[O-])c1

>  <Energy>  (70) 
89.4067681626771

>  <Genealogy>  (70) 
O=C(Cc1ccccc1N1CCOCC1)NCc1cccc(-c2[n-]c(=O)[n-]c2[O-])c1 (protonated)
O=C(Cc1ccccc1N1CCOCC1)NCc1cccc(-c2[n-]c(=O)[n-]c2[O-])c1 (3D coordinates assigned)
O=C(Cc1ccccc1N1CCOCC1)NCc1cccc(-c2[n-]c(=O)[n-]c2[O-])c1 (nonaromatic ring conformer: 89.4067681626771 kcal/mol)

>  <smiles>  (70) 
O=C(Cc1ccccc1N1CCOCC1)NCc1cccc(-c2[nH]c(=O)[nH]c2O)c1

>  <score_type>  (70) 
oracle

>  <origin>  (70) 
adg

>  <m_score__min__energy>  (70) 
-17.66

>  <m_primary>  (70) 
energy

$$$$
70:0
     RDKit          3D

 48 51  0  0  0  0  0  0  0  0999 V2000
   54.3610   28.9870   44.4910 H   0  0  0  0  0  0  0  0  0  0  0  0
   55.2350   29.3550   44.8460 O   0  0  0  0  0  0  0  0  0  0  0  0
   56.2630   28.4960   45.2260 C   0  0  0  0  0  0  0  0  0  0  0  0
   56.0670   27.2600   45.7140 N   0  0  0  0  0  0  0  0  0  0  0  0
   57.3270   26.8160   45.9060 C   0  0  0  0  0  0  0  0  0  0  0  0
   57.5800   25.6690   46.3570 O   0  0  0  0  0  0  0  0  0  0  0  0
   58.2960   27.6930   45.5640 N   0  0  0  0  0  0  0  0  0  0  0  0
   57.6050   28.7740   45.1560 C   0  0  0  0  0  0  0  0  0  0  0  0
   58.2060   29.9750   44.5540 C   0  0  0  0  0  0  0  0  0  0  0  0
   58.2214   30.0319   43.4556 H   0  0  0  0  0  0  0  0  0  0  0  0
   58.7390   31.0110   45.2310 C   0  0  0  0  0  0  0  0  0  0  0  0
   58.1650   32.2720   45.2440 C   0  0  0  0  0  0  0  0  0  0  0  0
   57.2144   32.5635   44.7734 H   0  0  0  0  0  0  0  0  0  0  0  0
   59.0120   33.0920   45.9590 C   0  0  0  0  0  0  0  0  0  0  0  0
   58.7660   34.5390   46.2530 C   0  0  0  0  0  0  0  0  0  0  0  0
   58.7399   34.6926   47.3419 H   0  0  0  0  0  0  0  0  0  0  0  0
   59.5741   35.1444   45.8166 H   0  0  0  0  0  0  0  0  0  0  0  0
   57.8032   34.8433   45.8166 H   0  0  0  0  0  0  0  0  0  0  0  0
   60.0660   32.3860   46.4210 N   0  0  0  0  0  0  0  0  0  0  0  0
   61.0900   32.8960   47.2900 C   0  0  0  0  0  0  0  0  0  0  0  0
   62.4050   33.0110   46.8170 C   0  0  0  0  0  0  0  0  0  0  0  0
   62.6422   32.7285   45.7807 H   0  0  0  0  0  0  0  0  0  0  0  0
   63.4130   33.4830   47.6580 C   0  0  0  0  0  0  0  0  0  0  0  0
   64.4442   33.5693   47.2851 H   0  0  0  0  0  0  0  0  0  0  0  0
   63.1140   33.8460   48.9730 C   0  0  0  0  0  0  0  0  0  0  0  0
   63.9109   34.2163   49.6346 H   0  0  0  0  0  0  0  0  0  0  0  0
   61.8060   33.7400   49.4500 C   0  0  0  0  0  0  0  0  0  0  0  0
   61.5759   34.0293   50.4860 H   0  0  0  0  0  0  0  0  0  0  0  0
   60.7790   33.2640   48.6100 C   0  0  0  0  0  0  0  0  0  0  0  0
   59.4440   33.1520   49.0390 O   0  0  0  0  0  0  0  0  0  0  0  0
   58.9680   32.2440   50.0320 C   0  0  0  0  0  0  0  0  0  0  0  0
   59.3655   32.5398   51.0141 H   0  0  0  0  0  0  0  0  0  0  0  0
   57.8685   32.2735   50.0450 H   0  0  0  0  0  0  0  0  0  0  0  0
   59.4150   30.8430   49.7180 C   0  0  0  0  0  0  0  0  0  0  0  0
   60.6640   30.3710   50.1550 C   0  0  0  0  0  0  0  0  0  0  0  0
   61.3212   31.0253   50.7466 H   0  0  0  0  0  0  0  0  0  0  0  0
   61.0740   29.0720   49.8400 C   0  0  0  0  0  0  0  0  0  0  0  0
   62.0546   28.7080   50.1806 H   0  0  0  0  0  0  0  0  0  0  0  0
   60.2400   28.2350   49.0930 C   0  0  0  0  0  0  0  0  0  0  0  0
   60.5658   27.2144   48.8436 H   0  0  0  0  0  0  0  0  0  0  0  0
   58.9920   28.6950   48.6630 C   0  0  0  0  0  0  0  0  0  0  0  0
   58.3350   28.0349   48.0777 H   0  0  0  0  0  0  0  0  0  0  0  0
   58.5780   29.9930   48.9760 C   0  0  0  0  0  0  0  0  0  0  0  0
   57.5933   30.3501   48.6401 H   0  0  0  0  0  0  0  0  0  0  0  0
   59.9030   31.1020   46.0110 C   0  0  0  0  0  0  0  0  0  0  0  0
   60.6870   30.0950   46.4290 C   0  0  0  0  0  0  0  0  0  0  0  0
   61.5768   30.3078   47.0397 H   0  0  0  0  0  0  0  0  0  0  0  0
   60.4394   29.0574   46.1607 H   0  0  0  0  0  0  0  0  0  0  0  0
  1  2  1  0
  2  3  1  0
  3  4  1  0
  4  5  1  0
  5  6  2  0
  5  7  1  0
  7  8  1  0
  8  9  1  0
  9 10  1  0
  9 11  2  0
 11 12  1  0
 12 13  1  0
 12 14  2  0
 14 15  1  0
 15 16  1  0
 15 17  1  0
 15 18  1  0
 14 19  1  0
 19 20  1  0
 20 21  2  0
 21 22  1  0
 21 23  1  0
 23 24  1  0
 23 25  2  0
 25 26  1  0
 25 27  1  0
 27 28  1  0
 27 29  2  0
 29 30  1  0
 30 31  1  0
 31 32  1  0
 31 33  1  0
 31 34  1  0
 34 35  2  0
 35 36  1  0
 35 37  1  0
 37 38  1  0
 37 39  2  0
 39 40  1  0
 39 41  1  0
 41 42  1  0
 41 43  2  0
 43 44  1  0
 19 45  1  0
 45 46  2  0
 46 47  1  0
 46 48  1  0
  8  3  2  0
 45 11  1  0
 29 20  1  0
 43 34  1  0
M  CHG  2   4  -1   7  -1
M  END
>  <UniqueID>  (71) 
66

>  <SMILES>  (71) 
C=c1/c(=C\c2[n-]c(=O)[n-]c2O)cc(C)n1-c1ccccc1OCc1ccccc1

>  <Energy>  (71) 
124.98118197222648

>  <Genealogy>  (71) 
C=c1c(=Cc2[n-]c(=O)[n-]c2O)cc(C)n1-c1ccccc1OCc1ccccc1 (protonated)
C=c1/c(=C\c2[n-]c(=O)[n-]c2O)cc(C)n1-c1ccccc1OCc1ccccc1 (cis-trans isomerization)
C=c1/c(=C\c2[n-]c(=O)[n-]c2O)cc(C)n1-c1ccccc1OCc1ccccc1 (3D coordinates assigned)
C=c1/c(=C\c2[n-]c(=O)[n-]c2O)cc(C)n1-c1ccccc1OCc1ccccc1 (optimized conformer: 124.98118197222648 kcal/mol)

>  <smiles>  (71) 
C=c1c(=Cc2[nH]c(=O)[nH]c2O)cc(C)n1-c1ccccc1OCc1ccccc1

>  <score_type>  (71) 
oracle

>  <origin>  (71) 
adg

>  <m_score__min__energy>  (71) 
-13.99

>  <m_primary>  (71) 
energy

$$$$
71:0
     RDKit          3D

 29 30  0  0  0  0  0  0  0  0999 V2000
   57.1466   28.9053   46.2874 H   0  0  0  0  0  0  0  0  0  0  0  0
   57.2380   28.0620   45.5870 C   0  0  0  0  0  0  0  0  0  0  0  0
   57.3720   28.3400   44.2780 C   0  0  0  0  0  0  0  0  0  0  0  0
   56.5860   29.4660   43.7170 C   0  0  0  0  0  0  0  0  0  0  0  0
   55.4890   29.3941   43.7554 H   0  0  0  0  0  0  0  0  0  0  0  0
   57.1210   30.5660   43.1660 C   0  0  0  0  0  0  0  0  0  0  0  0
   57.2754   30.5829   42.0770 H   0  0  0  0  0  0  0  0  0  0  0  0
   57.5020   31.7220   43.9270 N   0  0  0  0  0  0  0  0  0  0  0  0
   57.2770   31.7110   45.2430 N   0  0  0  0  0  0  0  0  0  0  0  0
   57.6290   32.7570   46.0320 C   0  0  0  0  0  0  0  0  0  0  0  0
   57.4247   32.7372   47.1127 H   0  0  0  0  0  0  0  0  0  0  0  0
   58.2530   33.8550   45.4490 C   0  0  0  0  0  0  0  0  0  0  0  0
   58.5880   34.8460   46.1490 O   0  0  0  0  0  0  0  0  0  0  0  0
   58.5040   33.8470   44.1180 N   0  0  0  0  0  0  0  0  0  0  0  0
   58.1440   32.7860   43.3510 C   0  0  0  0  0  0  0  0  0  0  0  0
   58.4150   32.7930   42.1200 O   0  0  0  0  0  0  0  0  0  0  0  0
   58.2090   27.4750   43.3650 C   0  0  0  0  0  0  0  0  0  0  0  0
   58.8480   26.8147   43.9697 H   0  0  0  0  0  0  0  0  0  0  0  0
   57.5488   26.8657   42.7303 H   0  0  0  0  0  0  0  0  0  0  0  0
   58.8397   28.1148   42.7303 H   0  0  0  0  0  0  0  0  0  0  0  0
   57.2060   26.6920   46.1420 C   0  0  0  0  0  0  0  0  0  0  0  0
   55.9790   26.0430   46.3450 C   0  0  0  0  0  0  0  0  0  0  0  0
   54.7840   26.6650   46.0040 O   0  0  0  0  0  0  0  0  0  0  0  0
   55.9530   24.7900   46.8690 N   0  0  0  0  0  0  0  0  0  0  0  0
   57.0990   24.1510   47.2180 C   0  0  0  0  0  0  0  0  0  0  0  0
   57.0500   22.9900   47.6970 O   0  0  0  0  0  0  0  0  0  0  0  0
   58.2970   24.7680   47.0550 N   0  0  0  0  0  0  0  0  0  0  0  0
   58.3780   26.0210   46.5370 C   0  0  0  0  0  0  0  0  0  0  0  0
   59.5050   26.5760   46.4330 O   0  0  0  0  0  0  0  0  0  0  0  0
  1  2  1  0
  2  3  2  0
  3  4  1  0
  4  5  1  0
  4  6  2  0
  6  7  1  0
  6  8  1  0
  8  9  1  0
  9 10  2  0
 10 11  1  0
 10 12  1  0
 12 13  2  0
 12 14  1  0
 14 15  1  0
 15 16  2  0
  3 17  1  0
 17 18  1  0
 17 19  1  0
 17 20  1  0
  2 21  1  0
 21 22  2  0
 22 23  1  0
 22 24  1  0
 24 25  1  0
 25 26  2  0
 25 27  1  0
 27 28  1  0
 28 29  2  0
 15  8  1  0
 28 21  1  0
M  CHG  4  14  -1  23  -1  24  -1  27  -1
M  END
>  <UniqueID>  (72) 
67

>  <SMILES>  (72) 
CC(=Cc1c([O-])[n-]c(=O)[n-]c1=O)/C=C\n1ncc(=O)[n-]c1=O

>  <Energy>  (72) 
51.07164791278919

>  <Genealogy>  (72) 
CC(C=Cn1ncc(=O)[n-]c1=O)=Cc1c([O-])[n-]c(=O)[n-]c1=O (protonated)
CC(=Cc1c([O-])[n-]c(=O)[n-]c1=O)/C=C\n1ncc(=O)[n-]c1=O (cis-trans isomerization)
CC(=Cc1c([O-])[n-]c(=O)[n-]c1=O)/C=C\n1ncc(=O)[n-]c1=O (3D coordinates assigned)
CC(=Cc1c([O-])[n-]c(=O)[n-]c1=O)/C=C\n1ncc(=O)[n-]c1=O (optimized conformer: 51.07164791278919 kcal/mol)

>  <smiles>  (72) 
CC(C=Cn1ncc(=O)[nH]c1=O)=Cc1c(O)[nH]c(=O)[nH]c1=O

>  <score_type>  (72) 
oracle

>  <origin>  (72) 
adg

>  <m_score__min__energy>  (72) 
-15.85

>  <m_primary>  (72) 
energy

$$$$
72:0
     RDKit          3D

 56 59  0  0  0  0  0  0  0  0999 V2000
   61.7460   26.1910   51.1630 C   0  0  0  0  0  0  0  0  0  0  0  0
   61.3810   27.4610   50.9840 C   0  0  0  0  0  0  0  0  0  0  0  0
   60.5980   27.9500   49.8200 C   0  0  0  0  0  0  0  0  0  0  0  0
   60.0790   29.2580   49.7460 C   0  0  0  0  0  0  0  0  0  0  0  0
   59.3350   29.6650   48.6350 C   0  0  0  0  0  0  0  0  0  0  0  0
   59.1030   28.7800   47.5640 C   0  0  0  0  0  0  0  0  0  0  0  0
   58.2650   29.1740   46.4050 C   0  0  0  0  0  0  0  0  0  0  0  0
   58.5270   30.2060   45.5130 C   0  0  0  0  0  0  0  0  0  0  0  0
   57.4400   30.2730   44.6670 C   0  0  0  0  0  0  0  0  0  0  0  0
   57.2490   31.1990   43.5300 C   0  0  0  0  0  0  0  0  0  0  0  0
   56.5770   30.8110   42.5380 O   0  0  0  0  0  0  0  0  0  0  0  0
   57.7720   32.5380   43.5190 N   0  0  0  0  0  0  0  0  0  0  0  0
   57.4320   33.6360   44.4230 C   0  0  0  0  0  0  0  0  0  0  0  0
   58.3210   33.6630   45.6410 C   0  0  0  0  0  0  0  0  0  0  0  0
   59.6160   34.1980   45.5690 C   0  0  0  0  0  0  0  0  0  0  0  0
   60.4450   34.1950   46.6950 C   0  0  0  0  0  0  0  0  0  0  0  0
   59.9970   33.6400   47.9020 C   0  0  0  0  0  0  0  0  0  0  0  0
   61.0430   33.6350   49.3230 S   0  0  0  0  0  0  0  0  0  0  0  0
   60.1900   33.6580   50.5620 O   0  0  0  0  0  0  0  0  0  0  0  0
   61.8750   34.8870   49.3190 O   0  0  0  0  0  0  0  0  0  0  0  0
   62.0930   32.2330   49.3850 N   0  0  0  0  0  0  0  0  0  0  0  0
   63.4030   32.5160   50.0180 C   0  0  0  0  0  0  0  0  0  0  0  0
   64.5390   32.6760   48.9950 C   0  0  0  0  0  0  0  0  0  0  0  0
   64.0320   33.1940   47.7870 O   0  0  0  0  0  0  0  0  0  0  0  0
   63.2460   32.2110   47.1410 C   0  0  0  0  0  0  0  0  0  0  0  0
   62.2020   31.5550   48.0780 C   0  0  0  0  0  0  0  0  0  0  0  0
   58.7150   33.0770   47.9690 C   0  0  0  0  0  0  0  0  0  0  0  0
   57.8820   33.0890   46.8470 C   0  0  0  0  0  0  0  0  0  0  0  0
   56.5860   29.2590   45.0660 C   0  0  0  0  0  0  0  0  0  0  0  0
   55.3470   28.9580   44.5040 O   0  0  0  0  0  0  0  0  0  0  0  0
   57.0810   28.5870   46.1220 N   0  0  0  0  0  0  0  0  0  0  0  0
   59.6420   27.4840   47.6290 C   0  0  0  0  0  0  0  0  0  0  0  0
   60.3820   27.0750   48.7420 C   0  0  0  0  0  0  0  0  0  0  0  0
   62.3264   25.9057   52.0528 H   0  0  0  0  0  0  0  0  0  0  0  0
   61.4667   25.4286   50.4209 H   0  0  0  0  0  0  0  0  0  0  0  0
   61.6790   28.1943   51.7479 H   0  0  0  0  0  0  0  0  0  0  0  0
   60.2609   29.9645   50.5693 H   0  0  0  0  0  0  0  0  0  0  0  0
   58.9269   30.6858   48.5966 H   0  0  0  0  0  0  0  0  0  0  0  0
   59.4233   30.8431   45.4866 H   0  0  0  0  0  0  0  0  0  0  0  0
   57.5418   34.5877   43.8824 H   0  0  0  0  0  0  0  0  0  0  0  0
   56.3963   33.4875   44.7624 H   0  0  0  0  0  0  0  0  0  0  0  0
   59.9810   34.6220   44.6219 H   0  0  0  0  0  0  0  0  0  0  0  0
   61.4534   34.6301   46.6335 H   0  0  0  0  0  0  0  0  0  0  0  0
   63.3189   33.4470   50.5978 H   0  0  0  0  0  0  0  0  0  0  0  0
   63.6532   31.6568   50.6577 H   0  0  0  0  0  0  0  0  0  0  0  0
   65.2965   33.3649   49.3970 H   0  0  0  0  0  0  0  0  0  0  0  0
   64.9925   31.6924   48.8032 H   0  0  0  0  0  0  0  0  0  0  0  0
   62.7149   32.6836   46.3016 H   0  0  0  0  0  0  0  0  0  0  0  0
   63.9276   31.4167   46.8026 H   0  0  0  0  0  0  0  0  0  0  0  0
   61.2196   31.5858   47.5842 H   0  0  0  0  0  0  0  0  0  0  0  0
   62.5336   30.5237   48.2691 H   0  0  0  0  0  0  0  0  0  0  0  0
   58.3635   32.6243   48.9079 H   0  0  0  0  0  0  0  0  0  0  0  0
   56.8767   32.6466   46.9078 H   0  0  0  0  0  0  0  0  0  0  0  0
   55.1970   28.9670   43.5030 H   0  0  0  0  0  0  0  0  0  0  0  0
   59.4800   26.7844   46.7957 H   0  0  0  0  0  0  0  0  0  0  0  0
   60.7995   26.0578   48.7743 H   0  0  0  0  0  0  0  0  0  0  0  0
  1  2  2  0
  2  3  1  0
  3  4  2  0
  4  5  1  0
  5  6  2  0
  6  7  1  0
  7  8  2  0
  8  9  1  0
  9 10  1  0
 10 11  2  0
 10 12  1  0
 12 13  1  0
 13 14  1  0
 14 15  2  0
 15 16  1  0
 16 17  2  0
 17 18  1  0
 18 19  2  0
 18 20  2  0
 18 21  1  0
 21 22  1  0
 22 23  1  0
 23 24  1  0
 24 25  1  0
 25 26  1  0
 17 27  1  0
 27 28  2  0
  9 29  2  0
 29 30  1  0
 29 31  1  0
  6 32  1  0
 32 33  2  0
 33  3  1  0
 31  7  1  0
 28 14  1  0
 26 21  1  0
  1 34  1  0
  1 35  1  0
  2 36  1  0
  4 37  1  0
  5 38  1  0
  8 39  1  0
 13 40  1  0
 13 41  1  0
 15 42  1  0
 16 43  1  0
 22 44  1  0
 22 45  1  0
 23 46  1  0
 23 47  1  0
 25 48  1  0
 25 49  1  0
 26 50  1  0
 26 51  1  0
 27 52  1  0
 28 53  1  0
 30 54  1  0
 32 55  1  0
 33 56  1  0
M  CHG  2  12  -1  31  -1
M  END
>  <UniqueID>  (73) 
68

>  <SMILES>  (73) 
C=Cc1ccc(-c2cc(C(=O)[N-]Cc3ccc(S(=O)(=O)N4CCOCC4)cc3)c(O)[n-]2)cc1

>  <Energy>  (73) 
96.05714584234755

>  <Genealogy>  (73) 
C=Cc1ccc(-c2cc(C(=O)[N-]Cc3ccc(S(=O)(=O)N4CCOCC4)cc3)c(O)[n-]2)cc1 (protonated)
C=Cc1ccc(-c2cc(C(=O)[N-]Cc3ccc(S(=O)(=O)N4CCOCC4)cc3)c(O)[n-]2)cc1 (3D coordinates assigned)
C=Cc1ccc(-c2cc(C(=O)[N-]Cc3ccc(S(=O)(=O)N4CCOCC4)cc3)c(O)[n-]2)cc1 (nonaromatic ring conformer: 96.05714584234755 kcal/mol)

>  <smiles>  (73) 
C=Cc1ccc(-c2cc(C(=O)NCc3ccc(S(=O)(=O)N4CCOCC4)cc3)c(O)[nH]2)cc1

>  <score_type>  (73) 
oracle

>  <origin>  (73) 
adg

>  <m_score__min__energy>  (73) 
-11.44

>  <m_primary>  (73) 
energy

$$$$
73:0
     RDKit          3D

 40 42  0  0  0  0  0  0  0  0999 V2000
   53.5480   26.5640   45.9980 H   0  0  0  0  0  0  0  0  0  0  0  0
   54.3760   25.9270   45.9750 N   0  0  0  0  0  0  0  0  0  0  0  0
   55.5790   26.3770   46.1270 C   0  0  0  0  0  0  0  0  0  0  0  0
   55.9670   27.4990   45.4710 N   0  0  0  0  0  0  0  0  0  0  0  0
   57.2250   27.9990   45.5990 C   0  0  0  0  0  0  0  0  0  0  0  0
   57.5820   29.1510   44.8290 N   0  0  0  0  0  0  0  0  0  0  0  0
   58.5990   29.3790   44.7400 H   0  0  0  0  0  0  0  0  0  0  0  0
   56.6250   30.1670   44.4940 C   0  0  0  0  0  0  0  0  0  0  0  0
   55.4090   30.0240   44.7990 O   0  0  0  0  0  0  0  0  0  0  0  0
   57.0760   31.4380   43.8410 C   0  0  0  0  0  0  0  0  0  0  0  0
   57.8011   31.2031   43.0479 H   0  0  0  0  0  0  0  0  0  0  0  0
   56.2047   31.9516   43.4084 H   0  0  0  0  0  0  0  0  0  0  0  0
   57.7240   32.3350   44.8590 C   0  0  0  0  0  0  0  0  0  0  0  0
   57.4940   33.7200   44.8340 C   0  0  0  0  0  0  0  0  0  0  0  0
   56.8147   34.1489   44.0826 H   0  0  0  0  0  0  0  0  0  0  0  0
   58.1240   34.5550   45.7590 C   0  0  0  0  0  0  0  0  0  0  0  0
   57.9277   35.6372   45.7443 H   0  0  0  0  0  0  0  0  0  0  0  0
   59.0030   34.0190   46.7030 C   0  0  0  0  0  0  0  0  0  0  0  0
   59.4905   34.6797   47.4350 H   0  0  0  0  0  0  0  0  0  0  0  0
   59.2670   32.6380   46.7210 C   0  0  0  0  0  0  0  0  0  0  0  0
   60.1370   32.0620   47.6590 O   0  0  0  0  0  0  0  0  0  0  0  0
   61.4760   32.4270   47.8540 C   0  0  0  0  0  0  0  0  0  0  0  0
   62.1910   31.8340   48.9030 C   0  0  0  0  0  0  0  0  0  0  0  0
   61.6942   31.1047   49.5597 H   0  0  0  0  0  0  0  0  0  0  0  0
   63.5330   32.1640   49.1200 C   0  0  0  0  0  0  0  0  0  0  0  0
   64.0850   31.7025   49.9521 H   0  0  0  0  0  0  0  0  0  0  0  0
   64.1730   33.0800   48.2800 C   0  0  0  0  0  0  0  0  0  0  0  0
   65.2266   33.3432   48.4548 H   0  0  0  0  0  0  0  0  0  0  0  0
   63.4750   33.6610   47.2190 C   0  0  0  0  0  0  0  0  0  0  0  0
   63.9821   34.3753   46.5537 H   0  0  0  0  0  0  0  0  0  0  0  0
   62.1320   33.3360   47.0010 C   0  0  0  0  0  0  0  0  0  0  0  0
   61.5867   33.7915   46.1612 H   0  0  0  0  0  0  0  0  0  0  0  0
   58.6150   31.8020   45.8060 C   0  0  0  0  0  0  0  0  0  0  0  0
   58.8020   30.7183   45.8288 H   0  0  0  0  0  0  0  0  0  0  0  0
   58.1420   27.3570   46.4630 C   0  0  0  0  0  0  0  0  0  0  0  0
   59.4560   27.8690   46.7340 N   0  0  0  0  0  0  0  0  0  0  0  0
   60.0100   28.7270   46.0160 O   0  0  0  0  0  0  0  0  0  0  0  0
   57.7200   26.1880   47.1120 C   0  0  0  0  0  0  0  0  0  0  0  0
   58.5050   25.5660   47.8750 O   0  0  0  0  0  0  0  0  0  0  0  0
   56.4570   25.7270   46.9340 N   0  0  0  0  0  0  0  0  0  0  0  0
  1  2  1  0
  2  3  2  0
  3  4  1  0
  4  5  1  0
  5  6  1  0
  6  7  1  0
  6  8  1  0
  8  9  2  0
  8 10  1  0
 10 11  1  0
 10 12  1  0
 10 13  1  0
 13 14  2  0
 14 15  1  0
 14 16  1  0
 16 17  1  0
 16 18  2  0
 18 19  1  0
 18 20  1  0
 20 21  1  0
 21 22  1  0
 22 23  2  0
 23 24  1  0
 23 25  1  0
 25 26  1  0
 25 27  2  0
 27 28  1  0
 27 29  1  0
 29 30  1  0
 29 31  2  0
 31 32  1  0
 20 33  2  0
 33 34  1  0
  5 35  2  0
 35 36  1  0
 36 37  2  0
 35 38  1  0
 38 39  2  0
 38 40  1  0
 40  3  1  0
 33 13  1  0
 31 22  1  0
M  CHG  2   4  -1  40  -1
M  END
>  <UniqueID>  (74) 
69

>  <SMILES>  (74) 
[H]/N=c1/[n-]c(NC(=O)Cc2cccc(Oc3ccccc3)c2)c(N=O)c(=O)[n-]1

>  <Energy>  (74) 
57.103031149490135

>  <Genealogy>  (74) 
N=c1[n-]c(NC(=O)Cc2cccc(Oc3ccccc3)c2)c(N=O)c(=O)[n-]1 (protonated)
[H]/N=c1/[n-]c(NC(=O)Cc2cccc(Oc3ccccc3)c2)c(N=O)c(=O)[n-]1 (cis-trans isomerization)
[H]/N=c1/[n-]c(NC(=O)Cc2cccc(Oc3ccccc3)c2)c(N=O)c(=O)[n-]1 (3D coordinates assigned)
[H]/N=c1/[n-]c(NC(=O)Cc2cccc(Oc3ccccc3)c2)c(N=O)c(=O)[n-]1 (optimized conformer: 57.103031149490135 kcal/mol)

>  <smiles>  (74) 
N=c1[nH]c(NC(=O)Cc2cccc(Oc3ccccc3)c2)c(N=O)c(=O)[nH]1

>  <score_type>  (74) 
oracle

>  <origin>  (74) 
adg

>  <m_score__min__energy>  (74) 
-13.140000000000001

>  <m_primary>  (74) 
energy

$$$$
74:0
     RDKit          3D

 60 64  0  0  0  0  0  0  0  0999 V2000
   54.7760   27.4600   46.0390 H   0  0  0  0  0  0  0  0  0  0  0  0
   55.6950   27.4900   45.6250 O   0  0  0  0  0  0  0  0  0  0  0  0
   56.2660   28.6220   45.0380 C   0  0  0  0  0  0  0  0  0  0  0  0
   55.4180   29.7070   44.7740 C   0  0  0  0  0  0  0  0  0  0  0  0
   54.3675   29.6664   45.0976 H   0  0  0  0  0  0  0  0  0  0  0  0
   55.8890   30.8360   44.1070 C   0  0  0  0  0  0  0  0  0  0  0  0
   55.2123   31.6802   43.9084 H   0  0  0  0  0  0  0  0  0  0  0  0
   57.2200   30.8950   43.6910 C   0  0  0  0  0  0  0  0  0  0  0  0
   57.8360   32.3550   42.8500 S   0  0  0  0  0  0  0  0  0  0  0  0
   58.0420   33.2550   44.3820 C   0  0  0  0  0  0  0  0  0  0  0  0
   59.5190   33.6470   45.0860 S   0  0  0  0  0  0  0  0  0  0  0  0
   58.7730   34.4640   46.3700 C   0  0  0  0  0  0  0  0  0  0  0  0
   59.3820   35.0480   47.3620 N   0  0  0  0  0  0  0  0  0  0  0  0
   60.0970   34.3760   48.4080 C   0  0  0  0  0  0  0  0  0  0  0  0
   59.6170   34.3890   49.5740 O   0  0  0  0  0  0  0  0  0  0  0  0
   61.3350   33.6120   48.1490 C   0  0  0  0  0  0  0  0  0  0  0  0
   61.7010   32.6280   49.0180 N   0  0  0  0  0  0  0  0  0  0  0  0
   62.8180   31.8750   48.8270 C   0  0  0  0  0  0  0  0  0  0  0  0
   63.0876   31.0954   49.5546 H   0  0  0  0  0  0  0  0  0  0  0  0
   63.6210   32.0930   47.7070 C   0  0  0  0  0  0  0  0  0  0  0  0
   64.5282   31.4912   47.5495 H   0  0  0  0  0  0  0  0  0  0  0  0
   63.2640   33.0800   46.7890 C   0  0  0  0  0  0  0  0  0  0  0  0
   63.8861   33.2571   45.8992 H   0  0  0  0  0  0  0  0  0  0  0  0
   62.1140   33.8430   47.0030 C   0  0  0  0  0  0  0  0  0  0  0  0
   61.8206   34.6185   46.2801 H   0  0  0  0  0  0  0  0  0  0  0  0
   57.4280   34.4610   46.2570 N   0  0  0  0  0  0  0  0  0  0  0  0
   57.0140   33.7820   45.1580 C   0  0  0  0  0  0  0  0  0  0  0  0
   55.9517   33.6580   44.9010 H   0  0  0  0  0  0  0  0  0  0  0  0
   58.0800   29.8280   43.9600 C   0  0  0  0  0  0  0  0  0  0  0  0
   59.1209   29.8712   43.6069 H   0  0  0  0  0  0  0  0  0  0  0  0
   57.6390   28.6980   44.6750 C   0  0  0  0  0  0  0  0  0  0  0  0
   58.6440   27.6720   45.0650 C   0  0  0  0  0  0  0  0  0  0  0  0
   58.7470   26.5880   44.4300 O   0  0  0  0  0  0  0  0  0  0  0  0
   59.4630   27.8710   46.2260 N   0  0  0  0  0  0  0  0  0  0  0  0
   59.2540   27.0630   47.4250 C   0  0  0  0  0  0  0  0  0  0  0  0
   58.3128   26.5015   47.3309 H   0  0  0  0  0  0  0  0  0  0  0  0
   60.0883   26.3561   47.5445 H   0  0  0  0  0  0  0  0  0  0  0  0
   59.1810   27.9840   48.6460 C   0  0  0  0  0  0  0  0  0  0  0  0
   58.2117   28.5041   48.6452 H   0  0  0  0  0  0  0  0  0  0  0  0
   59.2921   27.3696   49.5516 H   0  0  0  0  0  0  0  0  0  0  0  0
   60.2610   28.9830   48.6270 N   0  0  0  0  0  0  0  0  0  0  0  0
   60.6310   29.5790   49.8770 C   0  0  0  0  0  0  0  0  0  0  0  0
   61.7330   29.2580   50.3990 O   0  0  0  0  0  0  0  0  0  0  0  0
   59.7430   30.5620   50.5600 C   0  0  0  0  0  0  0  0  0  0  0  0
   59.8180   30.7340   51.9580 C   0  0  0  0  0  0  0  0  0  0  0  0
   60.5311   30.1364   52.5448 H   0  0  0  0  0  0  0  0  0  0  0  0
   58.9910   31.6600   52.6030 C   0  0  0  0  0  0  0  0  0  0  0  0
   59.0473   31.7774   53.6953 H   0  0  0  0  0  0  0  0  0  0  0  0
   58.0940   32.4360   51.8650 C   0  0  0  0  0  0  0  0  0  0  0  0
   57.4520   33.1695   52.3747 H   0  0  0  0  0  0  0  0  0  0  0  0
   58.0130   32.2800   50.4810 C   0  0  0  0  0  0  0  0  0  0  0  0
   57.3094   32.8941   49.8998 H   0  0  0  0  0  0  0  0  0  0  0  0
   58.8240   31.3450   49.8310 C   0  0  0  0  0  0  0  0  0  0  0  0
   58.7446   31.2189   48.7411 H   0  0  0  0  0  0  0  0  0  0  0  0
   60.5960   29.7040   47.3890 C   0  0  0  0  0  0  0  0  0  0  0  0
   59.8406   30.4840   47.2128 H   0  0  0  0  0  0  0  0  0  0  0  0
   61.5949   30.1495   47.5057 H   0  0  0  0  0  0  0  0  0  0  0  0
   60.6260   28.7570   46.1850 C   0  0  0  0  0  0  0  0  0  0  0  0
   60.6047   29.3457   45.2560 H   0  0  0  0  0  0  0  0  0  0  0  0
   61.5451   28.1536   46.2187 H   0  0  0  0  0  0  0  0  0  0  0  0
  1  2  1  0
  2  3  1  0
  3  4  2  0
  4  5  1  0
  4  6  1  0
  6  7  1  0
  6  8  2  0
  8  9  1  0
  9 10  1  0
 10 11  1  0
 11 12  1  0
 12 13  2  0
 13 14  1  0
 14 15  2  0
 14 16  1  0
 16 17  2  0
 17 18  1  0
 18 19  1  0
 18 20  2  0
 20 21  1  0
 20 22  1  0
 22 23  1  0
 22 24  2  0
 24 25  1  0
 12 26  1  0
 26 27  1  0
 27 28  1  0
  8 29  1  0
 29 30  1  0
 29 31  2  0
 31 32  1  0
 32 33  2  0
 32 34  1  0
 34 35  1  0
 35 36  1  0
 35 37  1  0
 35 38  1  0
 38 39  1  0
 38 40  1  0
 38 41  1  0
 41 42  1  0
 42 43  2  0
 42 44  1  0
 44 45  2  0
 45 46  1  0
 45 47  1  0
 47 48  1  0
 47 49  2  0
 49 50  1  0
 49 51  1  0
 51 52  1  0
 51 53  2  0
 53 54  1  0
 41 55  1  0
 55 56  1  0
 55 57  1  0
 55 58  1  0
 58 59  1  0
 58 60  1  0
 31  3  1  0
 58 34  1  0
 27 10  2  0
 53 44  1  0
 24 16  1  0
M  CHG  1  26  -1
M  END
>  <UniqueID>  (75) 
70

>  <SMILES>  (75) 
O=C(/N=c1/[n-]cc(Sc2ccc(O)c(C(=O)N3CCN(C(=O)c4ccccc4)CC3)c2)s1)c1ccccn1

>  <Energy>  (75) 
116.15358230317358

>  <Genealogy>  (75) 
O=C(N=c1[n-]cc(Sc2ccc(O)c(C(=O)N3CCN(C(=O)c4ccccc4)CC3)c2)s1)c1ccccn1 (protonated)
O=C(/N=c1/[n-]cc(Sc2ccc(O)c(C(=O)N3CCN(C(=O)c4ccccc4)CC3)c2)s1)c1ccccn1 (cis-trans isomerization)
O=C(/N=c1/[n-]cc(Sc2ccc(O)c(C(=O)N3CCN(C(=O)c4ccccc4)CC3)c2)s1)c1ccccn1 (3D coordinates assigned)
O=C(/N=c1/[n-]cc(Sc2ccc(O)c(C(=O)N3CCN(C(=O)c4ccccc4)CC3)c2)s1)c1ccccn1 (nonaromatic ring conformer: 116.15358230317358 kcal/mol)

>  <smiles>  (75) 
O=C(N=c1[nH]cc(Sc2ccc(O)c(C(=O)N3CCN(C(=O)c4ccccc4)CC3)c2)s1)c1ccccn1

>  <score_type>  (75) 
oracle

>  <origin>  (75) 
adg

>  <m_score__min__energy>  (75) 
-11.609999999999999

>  <m_primary>  (75) 
energy

$$$$
75:0
     RDKit          3D

 57 60  0  0  0  0  0  0  0  0999 V2000
   58.0600   27.2630   47.4470 N   0  0  0  0  0  0  0  0  0  0  0  0
   57.0720   27.1610   46.0300 S   0  0  0  0  0  0  0  0  0  0  0  0
   57.6750   26.1640   45.0660 O   0  0  0  0  0  0  0  0  0  0  0  0
   55.7160   26.6200   46.3810 O   0  0  0  0  0  0  0  0  0  0  0  0
   56.8880   28.7060   45.2650 C   0  0  0  0  0  0  0  0  0  0  0  0
   55.7220   29.3190   45.0300 N   0  0  0  0  0  0  0  0  0  0  0  0
   55.9160   30.4820   44.4410 N   0  0  0  0  0  0  0  0  0  0  0  0
   57.2610   30.6760   44.2630 C   0  0  0  0  0  0  0  0  0  0  0  0
   57.7620   31.8770   43.6340 C   0  0  0  0  0  0  0  0  0  0  0  0
   57.2120   32.2460   42.5410 O   0  0  0  0  0  0  0  0  0  0  0  0
   58.7820   32.6740   44.0920 O   0  0  0  0  0  0  0  0  0  0  0  0
   58.5540   33.8740   44.8250 C   0  0  0  0  0  0  0  0  0  0  0  0
   58.7770   33.6840   46.2700 C   0  0  0  0  0  0  0  0  0  0  0  0
   59.6530   34.5090   46.9440 C   0  0  0  0  0  0  0  0  0  0  0  0
   59.8880   34.3610   48.3040 C   0  0  0  0  0  0  0  0  0  0  0  0
   59.2650   33.3900   49.0570 C   0  0  0  0  0  0  0  0  0  0  0  0
   59.4880   33.1790   50.4700 C   0  0  0  0  0  0  0  0  0  0  0  0
   60.4400   33.8450   51.0080 O   0  0  0  0  0  0  0  0  0  0  0  0
   58.7440   32.2910   51.3320 C   0  0  0  0  0  0  0  0  0  0  0  0
   57.6270   32.6460   52.0530 C   0  0  0  0  0  0  0  0  0  0  0  0
   56.9350   31.7540   52.8540 C   0  0  0  0  0  0  0  0  0  0  0  0
   57.3460   30.4420   52.9650 C   0  0  0  0  0  0  0  0  0  0  0  0
   58.4610   30.0600   52.2540 C   0  0  0  0  0  0  0  0  0  0  0  0
   59.1450   30.9550   51.4590 C   0  0  0  0  0  0  0  0  0  0  0  0
   58.3810   32.5610   48.3670 C   0  0  0  0  0  0  0  0  0  0  0  0
   58.1390   32.6980   47.0180 C   0  0  0  0  0  0  0  0  0  0  0  0
   57.8640   29.5740   44.7750 C   0  0  0  0  0  0  0  0  0  0  0  0
   59.2880   29.3240   44.8050 C   0  0  0  0  0  0  0  0  0  0  0  0
   59.8620   28.3630   44.2340 O   0  0  0  0  0  0  0  0  0  0  0  0
   60.1480   30.1880   45.5120 O   0  0  0  0  0  0  0  0  0  0  0  0
   60.2500   30.1040   46.8910 C   0  0  0  0  0  0  0  0  0  0  0  0
   59.4360   29.3610   47.5170 O   0  0  0  0  0  0  0  0  0  0  0  0
   61.2270   30.8120   47.6910 C   0  0  0  0  0  0  0  0  0  0  0  0
   61.9740   31.8230   47.0860 C   0  0  0  0  0  0  0  0  0  0  0  0
   62.9240   32.5340   47.7940 C   0  0  0  0  0  0  0  0  0  0  0  0
   63.1730   32.2750   49.1310 C   0  0  0  0  0  0  0  0  0  0  0  0
   62.4390   31.2780   49.7420 C   0  0  0  0  0  0  0  0  0  0  0  0
   61.4900   30.5730   49.0130 C   0  0  0  0  0  0  0  0  0  0  0  0
   57.7840   28.0340   48.0620 H   0  0  0  0  0  0  0  0  0  0  0  0
   59.0710   27.2270   47.2230 H   0  0  0  0  0  0  0  0  0  0  0  0
   54.7630   28.9630   45.2640 H   0  0  0  0  0  0  0  0  0  0  0  0
   59.2405   34.6512   44.4580 H   0  0  0  0  0  0  0  0  0  0  0  0
   57.5052   34.1708   44.6771 H   0  0  0  0  0  0  0  0  0  0  0  0
   60.1774   35.3024   46.3912 H   0  0  0  0  0  0  0  0  0  0  0  0
   60.5963   35.0427   48.7977 H   0  0  0  0  0  0  0  0  0  0  0  0
   57.2683   33.6840   51.9901 H   0  0  0  0  0  0  0  0  0  0  0  0
   56.0479   32.0951   53.4079 H   0  0  0  0  0  0  0  0  0  0  0  0
   56.8021   29.7264   53.5991 H   0  0  0  0  0  0  0  0  0  0  0  0
   58.8133   29.0201   52.3214 H   0  0  0  0  0  0  0  0  0  0  0  0
   60.0322   30.6095   50.9080 H   0  0  0  0  0  0  0  0  0  0  0  0
   57.8573   31.7679   48.9209 H   0  0  0  0  0  0  0  0  0  0  0  0
   57.4302   32.0174   46.5236 H   0  0  0  0  0  0  0  0  0  0  0  0
   61.8035   32.0586   46.0252 H   0  0  0  0  0  0  0  0  0  0  0  0
   63.4953   33.3235   47.2838 H   0  0  0  0  0  0  0  0  0  0  0  0
   63.9310   32.8450   49.6883 H   0  0  0  0  0  0  0  0  0  0  0  0
   62.6054   31.0426   50.8036 H   0  0  0  0  0  0  0  0  0  0  0  0
   60.9208   29.7824   49.5239 H   0  0  0  0  0  0  0  0  0  0  0  0
  1  2  1  0
  2  3  2  0
  2  4  2  0
  2  5  1  0
  5  6  1  0
  6  7  1  0
  7  8  2  0
  8  9  1  0
  9 10  2  0
  9 11  1  0
 11 12  1  0
 12 13  1  0
 13 14  2  0
 14 15  1  0
 15 16  2  0
 16 17  1  0
 17 18  2  0
 17 19  1  0
 19 20  2  0
 20 21  1  0
 21 22  2  0
 22 23  1  0
 23 24  2  0
 16 25  1  0
 25 26  2  0
  8 27  1  0
 27 28  1  0
 28 29  2  0
 28 30  1  0
 30 31  1  0
 31 32  2  0
 31 33  1  0
 33 34  2  0
 34 35  1  0
 35 36  2  0
 36 37  1  0
 37 38  2  0
 27  5  2  0
 38 33  1  0
 26 13  1  0
 24 19  1  0
  1 39  1  0
  1 40  1  0
  6 41  1  0
 12 42  1  0
 12 43  1  0
 14 44  1  0
 15 45  1  0
 20 46  1  0
 21 47  1  0
 22 48  1  0
 23 49  1  0
 24 50  1  0
 25 51  1  0
 26 52  1  0
 34 53  1  0
 35 54  1  0
 36 55  1  0
 37 56  1  0
 38 57  1  0
M  END
>  <smiles>  (76) 
NS(=O)(=O)c1[nH]nc(C(=O)OCc2ccc(C(=O)c3ccccc3)cc2)c1C(=O)OC(=O)c1ccccc1

>  <score_type>  (76) 
oracle

>  <origin>  (76) 
adg

>  <m_score__min__energy>  (76) 
-10.44

>  <m_primary>  (76) 
energy

$$$$
76:0
     RDKit          3D

 49 52  0  0  1  0  0  0  0  0999 V2000
   59.8050   25.5600   46.0100 C   0  0  0  0  0  0  0  0  0  0  0  0
   59.8480   26.6110   46.8060 C   0  0  0  0  0  0  0  0  0  0  0  0
   59.9630   26.5760   48.1440 N   0  0  0  0  0  0  0  0  0  0  0  0
   59.9680   27.8500   48.5730 C   0  0  0  0  0  0  0  0  0  0  0  0
   60.0450   28.5820   49.6980 N   0  0  0  0  0  0  0  0  0  0  0  0
   59.7870   27.9380   46.4480 C   0  0  0  0  0  0  0  0  0  0  0  0
   59.6760   28.3650   45.2190 C   0  0  0  0  0  0  0  0  0  0  0  0
   59.5170   32.2240   49.9420 C   0  0  0  0  0  0  0  0  0  0  0  0
   58.5390   32.7490   50.5190 O   0  0  0  0  0  0  0  0  0  0  0  0
   60.1550   32.9990   48.9350 N   0  0  0  0  0  0  0  0  0  0  0  0
   59.7660   34.3260   48.5490 C   0  0  0  0  0  0  0  0  0  0  0  0
   59.1160   34.3460   47.2160 C   0  0  0  0  0  0  0  0  0  0  0  0
   59.6250   34.9680   46.1090 C   0  0  0  0  0  0  0  0  0  0  0  0
   58.9080   34.8930   44.9200 C   0  0  0  0  0  0  0  0  0  0  0  0
   57.7090   34.2150   44.8300 C   0  0  0  0  0  0  0  0  0  0  0  0
   57.1880   33.5850   45.9440 C   0  0  0  0  0  0  0  0  0  0  0  0
   57.9120   33.6720   47.1050 C   0  0  0  0  0  0  0  0  0  0  0  0
   59.8670   29.9620   47.9900 C   0  0  0  0  0  0  0  0  0  0  0  0
   59.7900   31.0600   47.4040 O   0  0  0  0  0  0  0  0  0  0  0  0
   59.8600   28.7040   47.5400 N   0  0  0  0  0  0  0  0  0  0  0  0
   59.9860   29.8830   49.3770 C   0  0  0  0  0  0  0  0  0  0  0  0
   60.0400   30.8990   50.2210 C   0  0  0  0  0  0  0  0  0  0  0  0
   58.6120   29.1210   44.6760 N   0  0  0  0  0  0  0  0  0  0  0  0
   58.6900   30.5890   44.5640 C   0  0  0  0  0  0  0  0  0  0  0  0
   57.4100   31.0450   43.9070 C   0  0  0  0  0  0  0  0  0  0  0  0
   56.2680   30.5730   44.5100 O   0  0  0  0  0  0  0  0  0  0  0  0
   56.2310   29.2360   44.7810 C   0  0  0  0  0  0  0  0  0  0  0  0
   57.4040   28.4360   44.2590 C   0  0  0  0  0  0  0  0  0  0  0  0
   59.7090   25.6970   44.9228 H   0  0  0  0  0  0  0  0  0  0  0  0
   59.8652   24.5465   46.4334 H   0  0  0  0  0  0  0  0  0  0  0  0
   60.1360   28.1680   50.6430 H   0  0  0  0  0  0  0  0  0  0  0  0
   60.4975   28.1094   44.5336 H   0  0  0  0  0  0  0  0  0  0  0  0
   60.9800   32.5830   48.4230 H   0  0  0  0  0  0  0  0  0  0  0  0
   59.0603   34.7208   49.2947 H   0  0  0  0  0  0  0  0  0  0  0  0
   60.6736   34.9452   48.4951 H   0  0  0  0  0  0  0  0  0  0  0  0
   60.5785   35.5143   46.1583 H   0  0  0  0  0  0  0  0  0  0  0  0
   59.3085   35.3892   44.0237 H   0  0  0  0  0  0  0  0  0  0  0  0
   57.1689   34.1763   43.8725 H   0  0  0  0  0  0  0  0  0  0  0  0
   56.2346   33.0379   45.9012 H   0  0  0  0  0  0  0  0  0  0  0  0
   57.5122   33.1765   48.0020 H   0  0  0  0  0  0  0  0  0  0  0  0
   60.5126   30.7291   51.1996 H   0  0  0  0  0  0  0  0  0  0  0  0
   58.7847   31.0404   45.5626 H   0  0  0  0  0  0  0  0  0  0  0  0
   59.5668   30.8937   43.9738 H   0  0  0  0  0  0  0  0  0  0  0  0
   57.3831   32.1444   43.9299 H   0  0  0  0  0  0  0  0  0  0  0  0
   57.4179   30.6402   42.8842 H   0  0  0  0  0  0  0  0  0  0  0  0
   56.1947   29.1119   45.8734 H   0  0  0  0  0  0  0  0  0  0  0  0
   55.3429   28.8458   44.2623 H   0  0  0  0  0  0  0  0  0  0  0  0
   57.3834   27.4196   44.6791 H   0  0  0  0  0  0  0  0  0  0  0  0
   57.3619   28.3525   43.1630 H   0  0  0  0  0  0  0  0  0  0  0  0
  1  2  2  0
  2  3  1  0
  3  4  2  0
  4  5  1  0
  5  6  1  0
  6  7  2  0
  7  8  1  0
  8  9  2  0
  8 10  1  0
 10 11  1  0
 11 12  1  0
 12 13  2  0
 13 14  1  0
 14 15  2  0
 15 16  1  0
 16 17  2  0
  6 18  1  0
 18 19  2  0
 18 20  1  0
 20 21  1  0
 21 22  2  0
 22 23  1  0
 23 24  1  0
 24 25  1  0
 25 26  1  0
 26 27  1  0
 27 28  1  0
 21  2  1  0
 28 23  1  0
 20  4  1  0
 17 12  1  0
  1 29  1  0
  1 30  1  0
  5 31  1  0
  7 32  1  0
 10 33  1  0
 11 34  1  0
 11 35  1  0
 13 36  1  0
 14 37  1  0
 15 38  1  0
 16 39  1  0
 17 40  1  0
 22 41  1  0
 24 42  1  0
 24 43  1  0
 25 44  1  0
 25 45  1  0
 27 46  1  0
 27 47  1  0
 28 48  1  0
 28 49  1  0
M  END
>  <smiles>  (77) 
C=c1nc2[nH]c(=CC(=O)NCc3ccccc3)c(=O)n2c1=CN1CCOCC1

>  <score_type>  (77) 
oracle

>  <origin>  (77) 
adg

>  <m_score__min__energy>  (77) 
-9.2200000000000006

>  <m_primary>  (77) 
energy

$$$$
77:0
     RDKit          3D

 35 37  0  0  0  0  0  0  0  0999 V2000
   56.7273   31.4708   43.6951 H   0  0  0  0  0  0  0  0  0  0  0  0
   56.8240   30.4130   43.9810 C   0  0  0  0  0  0  0  0  0  0  0  0
   56.2488   29.6436   43.4451 H   0  0  0  0  0  0  0  0  0  0  0  0
   57.6440   30.0610   44.9840 C   0  0  0  0  0  0  0  0  0  0  0  0
   57.8640   28.7610   45.4520 C   0  0  0  0  0  0  0  0  0  0  0  0
   57.3130   27.6190   44.9940 C   0  0  0  0  0  0  0  0  0  0  0  0
   56.9158   27.6073   43.9683 H   0  0  0  0  0  0  0  0  0  0  0  0
   57.2140   26.3800   45.7980 C   0  0  0  0  0  0  0  0  0  0  0  0
   55.9660   25.9410   46.2610 C   0  0  0  0  0  0  0  0  0  0  0  0
   54.8160   26.6790   46.0040 O   0  0  0  0  0  0  0  0  0  0  0  0
   55.8730   24.7910   46.9780 N   0  0  0  0  0  0  0  0  0  0  0  0
   56.9720   24.0420   47.2450 C   0  0  0  0  0  0  0  0  0  0  0  0
   56.8620   22.9820   47.9150 O   0  0  0  0  0  0  0  0  0  0  0  0
   58.1880   24.4290   46.7850 N   0  0  0  0  0  0  0  0  0  0  0  0
   58.3340   25.5700   46.0620 C   0  0  0  0  0  0  0  0  0  0  0  0
   59.4740   25.8800   45.6220 O   0  0  0  0  0  0  0  0  0  0  0  0
   58.7320   28.8750   46.5280 C   0  0  0  0  0  0  0  0  0  0  0  0
   59.1161   28.0544   47.1517 H   0  0  0  0  0  0  0  0  0  0  0  0
   59.0200   30.2170   46.6640 C   0  0  0  0  0  0  0  0  0  0  0  0
   59.9280   30.7840   47.7140 C   0  0  0  0  0  0  0  0  0  0  0  0
   59.5341   30.5380   48.7111 H   0  0  0  0  0  0  0  0  0  0  0  0
   60.9337   30.3532   47.6006 H   0  0  0  0  0  0  0  0  0  0  0  0
   59.9823   31.8768   47.6006 H   0  0  0  0  0  0  0  0  0  0  0  0
   58.3600   30.9420   45.7300 N   0  0  0  0  0  0  0  0  0  0  0  0
   58.4400   32.3680   45.5620 C   0  0  0  0  0  0  0  0  0  0  0  0
   57.6790   33.1490   44.7140 C   0  0  0  0  0  0  0  0  0  0  0  0
   56.9073   32.7803   44.0222 H   0  0  0  0  0  0  0  0  0  0  0  0
   58.0390   34.4380   44.8750 N   0  0  0  0  0  0  0  0  0  0  0  0
   58.9800   34.4810   45.8080 N   0  0  0  0  0  0  0  0  0  0  0  0
   59.6600   35.7000   46.2220 C   0  0  0  0  0  0  0  0  0  0  0  0
   59.6876   35.7495   47.3205 H   0  0  0  0  0  0  0  0  0  0  0  0
   60.6874   35.6982   45.8291 H   0  0  0  0  0  0  0  0  0  0  0  0
   59.1187   36.5733   45.8291 H   0  0  0  0  0  0  0  0  0  0  0  0
   59.2590   33.2390   46.2460 C   0  0  0  0  0  0  0  0  0  0  0  0
   60.0037   32.9694   47.0094 H   0  0  0  0  0  0  0  0  0  0  0  0
  1  2  1  0
  2  3  1  0
  2  4  2  0
  4  5  1  0
  5  6  2  0
  6  7  1  0
  6  8  1  0
  8  9  2  0
  9 10  1  0
  9 11  1  0
 11 12  1  0
 12 13  2  0
 12 14  1  0
 14 15  1  0
 15 16  2  0
  5 17  1  0
 17 18  1  0
 17 19  2  0
 19 20  1  0
 20 21  1  0
 20 22  1  0
 20 23  1  0
 19 24  1  0
 24 25  1  0
 25 26  1  0
 26 27  1  0
 26 28  2  0
 28 29  1  0
 29 30  1  0
 30 31  1  0
 30 32  1  0
 30 33  1  0
 29 34  1  0
 34 35  1  0
 24  4  1  0
 34 25  2  0
 15  8  1  0
M  CHG  3  10  -1  11  -1  14  -1
M  END
>  <UniqueID>  (78) 
71

>  <SMILES>  (78) 
C=c1/c(=C/c2c([O-])[n-]c(=O)[n-]c2=O)cc(C)n1-c1cnn(C)c1

>  <Energy>  (78) 
111.75612534969723

>  <Genealogy>  (78) 
C=c1c(=Cc2c([O-])[n-]c(=O)[n-]c2=O)cc(C)n1-c1cnn(C)c1 (protonated)
C=c1/c(=C/c2c([O-])[n-]c(=O)[n-]c2=O)cc(C)n1-c1cnn(C)c1 (cis-trans isomerization)
C=c1/c(=C/c2c([O-])[n-]c(=O)[n-]c2=O)cc(C)n1-c1cnn(C)c1 (3D coordinates assigned)
C=c1/c(=C/c2c([O-])[n-]c(=O)[n-]c2=O)cc(C)n1-c1cnn(C)c1 (optimized conformer: 111.75612534969723 kcal/mol)

>  <smiles>  (78) 
C=c1c(=Cc2c(O)[nH]c(=O)[nH]c2=O)cc(C)n1-c1cnn(C)c1

>  <score_type>  (78) 
oracle

>  <origin>  (78) 
adg

>  <m_score__min__energy>  (78) 
-14.98

>  <m_primary>  (78) 
energy

$$$$
78:0
     RDKit          3D

 58 61  0  0  0  0  0  0  0  0999 V2000
   57.0440   22.2240   43.8510 C   0  0  0  0  0  0  0  0  0  0  0  0
   57.5120   22.6040   45.2470 C   0  0  0  0  0  0  0  0  0  0  0  0
   56.7360   23.7730   45.7940 C   0  0  0  0  0  0  0  0  0  0  0  0
   57.4830   24.9960   45.8370 N   0  0  0  0  0  0  0  0  0  0  0  0
   57.9970   25.4770   46.9830 C   0  0  0  0  0  0  0  0  0  0  0  0
   57.8460   24.8810   48.0590 O   0  0  0  0  0  0  0  0  0  0  0  0
   58.7150   26.6600   46.9990 C   0  0  0  0  0  0  0  0  0  0  0  0
   59.3420   27.3860   47.9510 N   0  0  0  0  0  0  0  0  0  0  0  0
   59.8870   28.4720   47.3790 C   0  0  0  0  0  0  0  0  0  0  0  0
   60.6560   29.5300   48.0250 C   0  0  0  0  0  0  0  0  0  0  0  0
   61.2300   30.6310   47.4140 C   0  0  0  0  0  0  0  0  0  0  0  0
   61.8290   31.3120   48.4130 N   0  0  0  0  0  0  0  0  0  0  0  0
   62.7140   32.8010   48.1800 S   0  0  0  0  0  0  0  0  0  0  0  0
   63.8670   32.8850   49.1550 O   0  0  0  0  0  0  0  0  0  0  0  0
   63.2560   32.9100   46.7870 O   0  0  0  0  0  0  0  0  0  0  0  0
   61.6050   34.1630   48.5630 C   0  0  0  0  0  0  0  0  0  0  0  0
   60.3420   33.9880   47.7690 C   0  0  0  0  0  0  0  0  0  0  0  0
   59.2790   33.2470   48.2350 C   0  0  0  0  0  0  0  0  0  0  0  0
   58.1290   33.1130   47.4660 C   0  0  0  0  0  0  0  0  0  0  0  0
   58.0570   33.7250   46.2320 C   0  0  0  0  0  0  0  0  0  0  0  0
   59.1060   34.4710   45.7440 C   0  0  0  0  0  0  0  0  0  0  0  0
   59.0430   35.0810   44.5250 F   0  0  0  0  0  0  0  0  0  0  0  0
   60.2380   34.5880   46.5310 C   0  0  0  0  0  0  0  0  0  0  0  0
   61.6450   30.6890   49.5630 N   0  0  0  0  0  0  0  0  0  0  0  0
   60.9280   29.5810   49.3840 C   0  0  0  0  0  0  0  0  0  0  0  0
   60.5640   28.7480   50.2520 O   0  0  0  0  0  0  0  0  0  0  0  0
   59.5990   28.4270   46.0520 N   0  0  0  0  0  0  0  0  0  0  0  0
   58.8780   27.3190   45.7930 C   0  0  0  0  0  0  0  0  0  0  0  0
   58.3650   26.8420   44.6430 N   0  0  0  0  0  0  0  0  0  0  0  0
   58.5110   27.4960   43.3690 C   0  0  0  0  0  0  0  0  0  0  0  0
   57.3870   28.4360   43.0270 C   0  0  0  0  0  0  0  0  0  0  0  0
   57.2850   29.6550   44.3850 S   0  0  0  0  0  0  0  0  0  0  0  0
   57.7600   31.2990   43.8250 C   0  0  0  0  0  0  0  0  0  0  0  0
   57.6660   25.6720   44.6870 C   0  0  0  0  0  0  0  0  0  0  0  0
   57.1810   25.2150   43.6160 O   0  0  0  0  0  0  0  0  0  0  0  0
   56.1920   21.5322   43.9255 H   0  0  0  0  0  0  0  0  0  0  0  0
   56.7346   23.1297   43.3088 H   0  0  0  0  0  0  0  0  0  0  0  0
   57.8669   21.7352   43.3088 H   0  0  0  0  0  0  0  0  0  0  0  0
   57.3763   21.7414   45.9159 H   0  0  0  0  0  0  0  0  0  0  0  0
   58.5717   22.8928   45.1874 H   0  0  0  0  0  0  0  0  0  0  0  0
   55.8515   23.9294   45.1590 H   0  0  0  0  0  0  0  0  0  0  0  0
   56.4713   23.5234   46.8321 H   0  0  0  0  0  0  0  0  0  0  0  0
   59.3710   27.1130   48.9470 H   0  0  0  0  0  0  0  0  0  0  0  0
   61.2037   30.8938   46.3462 H   0  0  0  0  0  0  0  0  0  0  0  0
   61.3709   34.1597   49.6378 H   0  0  0  0  0  0  0  0  0  0  0  0
   62.0817   35.1204   48.3060 H   0  0  0  0  0  0  0  0  0  0  0  0
   59.3402   32.7595   49.2192 H   0  0  0  0  0  0  0  0  0  0  0  0
   57.2802   32.5216   47.8398 H   0  0  0  0  0  0  0  0  0  0  0  0
   57.1450   33.6150   45.6269 H   0  0  0  0  0  0  0  0  0  0  0  0
   61.0855   35.1807   46.1561 H   0  0  0  0  0  0  0  0  0  0  0  0
   62.0310   31.0530   50.4600 H   0  0  0  0  0  0  0  0  0  0  0  0
   59.4493   28.0699   43.3812 H   0  0  0  0  0  0  0  0  0  0  0  0
   58.5058   26.7050   42.6047 H   0  0  0  0  0  0  0  0  0  0  0  0
   57.5965   28.9462   42.0753 H   0  0  0  0  0  0  0  0  0  0  0  0
   56.4380   27.8913   42.9139 H   0  0  0  0  0  0  0  0  0  0  0  0
   57.9463   31.9437   44.6966 H   0  0  0  0  0  0  0  0  0  0  0  0
   58.6748   31.2295   43.2181 H   0  0  0  0  0  0  0  0  0  0  0  0
   56.9491   31.7282   43.2181 H   0  0  0  0  0  0  0  0  0  0  0  0
  1  2  1  0
  2  3  1  0
  3  4  1  0
  4  5  1  0
  5  6  2  0
  5  7  1  0
  7  8  1  0
  8  9  1  0
  9 10  1  0
 10 11  2  0
 11 12  1  0
 12 13  1  0
 13 14  2  0
 13 15  2  0
 13 16  1  0
 16 17  1  0
 17 18  2  0
 18 19  1  0
 19 20  2  0
 20 21  1  0
 21 22  1  0
 21 23  2  0
 12 24  1  0
 24 25  1  0
 25 26  2  0
  9 27  2  0
 27 28  1  0
 28 29  1  0
 29 30  1  0
 30 31  1  0
 31 32  1  0
 32 33  1  0
 29 34  1  0
 34 35  2  0
 34  4  1  0
 28  7  2  0
 25 10  1  0
 23 17  1  0
  1 36  1  0
  1 37  1  0
  1 38  1  0
  2 39  1  0
  2 40  1  0
  3 41  1  0
  3 42  1  0
  8 43  1  0
 11 44  1  0
 16 45  1  0
 16 46  1  0
 18 47  1  0
 19 48  1  0
 20 49  1  0
 23 50  1  0
 24 51  1  0
 30 52  1  0
 30 53  1  0
 31 54  1  0
 31 55  1  0
 33 56  1  0
 33 57  1  0
 33 58  1  0
M  END
>  <smiles>  (79) 
CCCn1c(=O)c2[nH]c(-c3cn(S(=O)(=O)Cc4cccc(F)c4)[nH]c3=O)nc2n(CCSC)c1=O

>  <score_type>  (79) 
oracle

>  <origin>  (79) 
adg

>  <m_score__min__energy>  (79) 
-9.2599999999999998

>  <m_primary>  (79) 
energy

$$$$
79:0
     RDKit          3D

 69 72  0  0  0  0  0  0  0  0999 V2000
   57.0340   27.0680   47.0910 O   0  0  0  0  0  0  0  0  0  0  0  0
   56.6160   26.3460   46.1480 C   0  0  0  0  0  0  0  0  0  0  0  0
   57.4130   26.2380   44.8700 C   0  0  0  0  0  0  0  0  0  0  0  0
   58.1100   27.5490   44.4700 C   0  0  0  0  0  0  0  0  0  0  0  0
   57.3980   28.2600   43.4020 N   0  0  0  0  0  0  0  0  0  0  0  0
   56.5770   29.6840   43.9810 S   0  0  0  0  0  0  0  0  0  0  0  0
   55.9930   30.4380   42.8210 O   0  0  0  0  0  0  0  0  0  0  0  0
   55.4490   29.2570   44.8790 O   0  0  0  0  0  0  0  0  0  0  0  0
   57.6400   30.7430   44.8950 C   0  0  0  0  0  0  0  0  0  0  0  0
   58.7560   30.3280   45.6140 C   0  0  0  0  0  0  0  0  0  0  0  0
   59.2630   31.4840   46.1690 C   0  0  0  0  0  0  0  0  0  0  0  0
   60.3730   31.6850   46.9850 C   0  0  0  0  0  0  0  0  0  0  0  0
   60.6600   33.0000   47.4120 C   0  0  0  0  0  0  0  0  0  0  0  0
   61.8250   33.2310   48.2220 N   0  0  0  0  0  0  0  0  0  0  0  0
   63.1660   33.2960   47.7120 C   0  0  0  0  0  0  0  0  0  0  0  0
   63.3810   33.3440   46.4710 O   0  0  0  0  0  0  0  0  0  0  0  0
   64.3250   33.3920   48.6610 C   0  0  0  0  0  0  0  0  0  0  0  0
   64.5710   32.0600   49.3760 C   0  0  0  0  0  0  0  0  0  0  0  0
   64.2640   32.1720   50.8210 N   0  0  0  0  0  0  0  0  0  0  0  0
   64.1100   33.5620   51.3010 C   0  0  0  0  0  0  0  0  0  0  0  0
   62.7360   34.1910   50.9970 C   0  0  0  0  0  0  0  0  0  0  0  0
   61.5960   33.4820   51.7490 C   0  0  0  0  0  0  0  0  0  0  0  0
   60.9850   32.3690   51.0010 N   0  0  0  0  0  0  0  0  0  0  0  0
   61.9050   31.3300   50.5080 C   0  0  0  0  0  0  0  0  0  0  0  0
   63.2270   31.2360   51.3010 C   0  0  0  0  0  0  0  0  0  0  0  0
   59.8370   34.0730   46.9760 C   0  0  0  0  0  0  0  0  0  0  0  0
   58.7190   33.8330   46.1540 C   0  0  0  0  0  0  0  0  0  0  0  0
   58.4600   32.5200   45.7730 C   0  0  0  0  0  0  0  0  0  0  0  0
   57.4600   32.0800   44.9900 N   0  0  0  0  0  0  0  0  0  0  0  0
   55.4280   25.5710   46.3570 N   0  0  0  0  0  0  0  0  0  0  0  0
   54.7520   24.7670   45.3430 C   0  0  0  0  0  0  0  0  0  0  0  0
   55.6580   23.6800   44.8270 C   0  0  0  0  0  0  0  0  0  0  0  0
   55.6730   23.3520   43.4610 C   0  0  0  0  0  0  0  0  0  0  0  0
   56.5290   22.3540   42.9840 C   0  0  0  0  0  0  0  0  0  0  0  0
   57.3880   21.6890   43.8640 C   0  0  0  0  0  0  0  0  0  0  0  0
   57.3920   22.0210   45.2210 C   0  0  0  0  0  0  0  0  0  0  0  0
   56.5340   23.0150   45.7030 C   0  0  0  0  0  0  0  0  0  0  0  0
   58.1809   25.4617   45.0030 H   0  0  0  0  0  0  0  0  0  0  0  0
   56.7042   25.9898   44.0663 H   0  0  0  0  0  0  0  0  0  0  0  0
   58.1657   28.2027   45.3529 H   0  0  0  0  0  0  0  0  0  0  0  0
   59.1111   27.2939   44.0923 H   0  0  0  0  0  0  0  0  0  0  0  0
   59.1472   29.3051   45.7170 H   0  0  0  0  0  0  0  0  0  0  0  0
   61.0099   30.8413   47.2892 H   0  0  0  0  0  0  0  0  0  0  0  0
   61.6780   33.4680   49.2300 H   0  0  0  0  0  0  0  0  0  0  0  0
   65.2281   33.6679   48.0968 H   0  0  0  0  0  0  0  0  0  0  0  0
   64.0911   34.1545   49.4185 H   0  0  0  0  0  0  0  0  0  0  0  0
   63.9276   31.2874   48.9298 H   0  0  0  0  0  0  0  0  0  0  0  0
   65.6311   31.7898   49.2615 H   0  0  0  0  0  0  0  0  0  0  0  0
   64.2578   33.5681   52.3910 H   0  0  0  0  0  0  0  0  0  0  0  0
   64.8574   34.1646   50.7641 H   0  0  0  0  0  0  0  0  0  0  0  0
   62.7556   35.2488   51.2982 H   0  0  0  0  0  0  0  0  0  0  0  0
   62.5468   34.0867   49.9184 H   0  0  0  0  0  0  0  0  0  0  0  0
   61.9987   33.0847   52.6924 H   0  0  0  0  0  0  0  0  0  0  0  0
   60.8057   34.2305   51.9073 H   0  0  0  0  0  0  0  0  0  0  0  0
   60.2740   31.9150   51.6210 H   0  0  0  0  0  0  0  0  0  0  0  0
   61.3943   30.3577   50.5699 H   0  0  0  0  0  0  0  0  0  0  0  0
   62.1708   31.6030   49.4761 H   0  0  0  0  0  0  0  0  0  0  0  0
   63.0171   31.4593   52.3574 H   0  0  0  0  0  0  0  0  0  0  0  0
   63.6183   30.2173   51.1625 H   0  0  0  0  0  0  0  0  0  0  0  0
   60.0756   35.1018   47.2837 H   0  0  0  0  0  0  0  0  0  0  0  0
   58.0706   34.6578   45.8234 H   0  0  0  0  0  0  0  0  0  0  0  0
   56.7030   32.6500   44.5510 H   0  0  0  0  0  0  0  0  0  0  0  0
   53.8554   24.3086   45.7857 H   0  0  0  0  0  0  0  0  0  0  0  0
   54.4744   25.4212   44.5034 H   0  0  0  0  0  0  0  0  0  0  0  0
   55.0084   23.8826   42.7633 H   0  0  0  0  0  0  0  0  0  0  0  0
   56.5263   22.0921   41.9156 H   0  0  0  0  0  0  0  0  0  0  0  0
   58.0608   20.9042   43.4879 H   0  0  0  0  0  0  0  0  0  0  0  0
   58.0711   21.4998   45.9117 H   0  0  0  0  0  0  0  0  0  0  0  0
   56.5446   23.2774   46.7712 H   0  0  0  0  0  0  0  0  0  0  0  0
  1  2  2  0
  2  3  1  0
  3  4  1  0
  4  5  1  0
  5  6  1  0
  6  7  2  0
  6  8  2  0
  6  9  1  0
  9 10  2  0
 10 11  1  0
 11 12  2  0
 12 13  1  0
 13 14  1  0
 14 15  1  0
 15 16  2  0
 15 17  1  0
 17 18  1  0
 18 19  1  0
 19 20  1  0
 20 21  1  0
 21 22  1  0
 22 23  1  0
 23 24  1  0
 24 25  1  0
 13 26  2  0
 26 27  1  0
 27 28  2  0
 28 29  1  0
  2 30  1  0
 30 31  1  0
 31 32  1  0
 32 33  2  0
 33 34  1  0
 34 35  2  0
 35 36  1  0
 36 37  2  0
 29  9  1  0
 37 32  1  0
 28 11  1  0
 25 19  1  0
  3 38  1  0
  3 39  1  0
  4 40  1  0
  4 41  1  0
 10 42  1  0
 12 43  1  0
 14 44  1  0
 17 45  1  0
 17 46  1  0
 18 47  1  0
 18 48  1  0
 20 49  1  0
 20 50  1  0
 21 51  1  0
 21 52  1  0
 22 53  1  0
 22 54  1  0
 23 55  1  0
 24 56  1  0
 24 57  1  0
 25 58  1  0
 25 59  1  0
 26 60  1  0
 27 61  1  0
 29 62  1  0
 31 63  1  0
 31 64  1  0
 33 65  1  0
 34 66  1  0
 35 67  1  0
 36 68  1  0
 37 69  1  0
M  CHG  2   5  -1  30  -1
M  END
>  <UniqueID>  (80) 
72

>  <SMILES>  (80) 
O=C(CC[N-]S(=O)(=O)c1cc2cc(NC(=O)CCN3CCCNCC3)ccc2[nH]1)[N-]Cc1ccccc1

>  <Energy>  (80) 
113.07140365119398

>  <Genealogy>  (80) 
O=C(CC[N-]S(=O)(=O)c1cc2cc(NC(=O)CCN3CCCNCC3)ccc2[nH]1)[N-]Cc1ccccc1 (protonated)
O=C(CC[N-]S(=O)(=O)c1cc2cc(NC(=O)CCN3CCCNCC3)ccc2[nH]1)[N-]Cc1ccccc1 (3D coordinates assigned)
O=C(CC[N-]S(=O)(=O)c1cc2cc(NC(=O)CCN3CCCNCC3)ccc2[nH]1)[N-]Cc1ccccc1 (nonaromatic ring conformer: 113.07140365119398 kcal/mol)

>  <smiles>  (80) 
O=C(CCNS(=O)(=O)c1cc2cc(NC(=O)CCN3CCCNCC3)ccc2[nH]1)NCc1ccccc1

>  <score_type>  (80) 
oracle

>  <origin>  (80) 
adg

>  <m_score__min__energy>  (80) 
-10.42

>  <m_primary>  (80) 
energy

$$$$
80:0
     RDKit          3D

 75 79  0  0  0  0  0  0  0  0999 V2000
   58.1990   30.2850   47.1030 O   0  0  0  0  0  0  0  0  0  0  0  0
   59.0510   29.7610   46.3370 C   0  0  0  0  0  0  0  0  0  0  0  0
   60.4260   30.1600   46.3970 N   0  0  0  0  0  0  0  0  0  0  0  0
   60.9630   31.2300   47.1890 C   0  0  0  0  0  0  0  0  0  0  0  0
   62.3430   31.4690   47.1480 C   0  0  0  0  0  0  0  0  0  0  0  0
   62.8940   32.5350   47.8630 C   0  0  0  0  0  0  0  0  0  0  0  0
   62.0750   33.3620   48.6360 C   0  0  0  0  0  0  0  0  0  0  0  0
   60.6960   33.1130   48.7190 C   0  0  0  0  0  0  0  0  0  0  0  0
   59.8130   33.9760   49.5830 C   0  0  0  0  0  0  0  0  0  0  0  0
   59.9900   33.6160   51.0080 N   0  0  0  0  0  0  0  0  0  0  0  0
   58.8890   34.1040   51.8790 C   0  0  0  0  0  0  0  0  0  0  0  0
   57.8970   33.0060   52.3230 C   0  0  0  0  0  0  0  0  0  0  0  0
   57.7210   31.9460   51.2250 C   0  0  0  0  0  0  0  0  0  0  0  0
   56.6870   30.9180   51.6110 C   0  0  0  0  0  0  0  0  0  0  0  0
   57.0580   29.7320   51.8290 O   0  0  0  0  0  0  0  0  0  0  0  0
   55.3070   31.2850   51.7760 N   0  0  0  0  0  0  0  0  0  0  0  0
   54.2400   30.3000   51.9810 C   0  0  0  0  0  0  0  0  0  0  0  0
   53.6690   30.4470   53.4090 C   0  0  0  0  0  0  0  0  0  0  0  0
   52.2420   29.8940   53.4960 C   0  0  0  0  0  0  0  0  0  0  0  0
   51.2740   30.6540   52.5640 C   0  0  0  0  0  0  0  0  0  0  0  0
   51.9730   31.2930   51.3450 C   0  0  0  0  0  0  0  0  0  0  0  0
   53.1640   30.4510   50.8750 C   0  0  0  0  0  0  0  0  0  0  0  0
   59.0700   31.2830   50.8670 C   0  0  0  0  0  0  0  0  0  0  0  0
   60.2800   32.1790   51.2020 C   0  0  0  0  0  0  0  0  0  0  0  0
   60.1460   32.0320   48.0060 C   0  0  0  0  0  0  0  0  0  0  0  0
   58.6090   28.8270   45.2870 C   0  0  0  0  0  0  0  0  0  0  0  0
   58.7210   27.4480   45.3100 C   0  0  0  0  0  0  0  0  0  0  0  0
   58.1010   26.9880   44.1630 C   0  0  0  0  0  0  0  0  0  0  0  0
   57.6180   28.0200   43.4440 N   0  0  0  0  0  0  0  0  0  0  0  0
   57.9260   29.1420   44.1270 C   0  0  0  0  0  0  0  0  0  0  0  0
   57.6040   30.4430   43.7200 O   0  0  0  0  0  0  0  0  0  0  0  0
   56.7900   31.3290   44.4820 C   0  0  0  0  0  0  0  0  0  0  0  0
   57.6100   32.5040   44.9360 C   0  0  0  0  0  0  0  0  0  0  0  0
   57.3950   33.0530   46.2110 C   0  0  0  0  0  0  0  0  0  0  0  0
   58.1160   34.1780   46.6230 C   0  0  0  0  0  0  0  0  0  0  0  0
   59.0500   34.7650   45.7640 C   0  0  0  0  0  0  0  0  0  0  0  0
   59.2600   34.2310   44.4890 C   0  0  0  0  0  0  0  0  0  0  0  0
   58.5410   33.1060   44.0730 C   0  0  0  0  0  0  0  0  0  0  0  0
   62.9949   30.8147   46.5505 H   0  0  0  0  0  0  0  0  0  0  0  0
   63.9767   32.7241   47.8173 H   0  0  0  0  0  0  0  0  0  0  0  0
   62.5124   34.2112   49.1815 H   0  0  0  0  0  0  0  0  0  0  0  0
   60.0825   35.0326   49.4382 H   0  0  0  0  0  0  0  0  0  0  0  0
   58.7626   33.8161   49.2983 H   0  0  0  0  0  0  0  0  0  0  0  0
   59.3345   34.5509   52.7800 H   0  0  0  0  0  0  0  0  0  0  0  0
   58.3129   34.8277   51.2837 H   0  0  0  0  0  0  0  0  0  0  0  0
   58.2807   32.5212   53.2328 H   0  0  0  0  0  0  0  0  0  0  0  0
   56.9208   33.4739   52.5180 H   0  0  0  0  0  0  0  0  0  0  0  0
   57.3528   32.4588   50.3242 H   0  0  0  0  0  0  0  0  0  0  0  0
   55.0400   32.2940   51.7270 H   0  0  0  0  0  0  0  0  0  0  0  0
   54.6375   29.2778   51.8968 H   0  0  0  0  0  0  0  0  0  0  0  0
   54.3112   29.8945   54.1107 H   0  0  0  0  0  0  0  0  0  0  0  0
   53.6440   31.5164   53.6653 H   0  0  0  0  0  0  0  0  0  0  0  0
   52.2535   28.8324   53.2080 H   0  0  0  0  0  0  0  0  0  0  0  0
   51.8895   30.0196   54.5304 H   0  0  0  0  0  0  0  0  0  0  0  0
   50.5139   29.9474   52.1995 H   0  0  0  0  0  0  0  0  0  0  0  0
   50.8324   31.4724   53.1515 H   0  0  0  0  0  0  0  0  0  0  0  0
   51.2485   31.3782   50.5217 H   0  0  0  0  0  0  0  0  0  0  0  0
   52.3469   32.2840   51.6420 H   0  0  0  0  0  0  0  0  0  0  0  0
   52.8027   29.4513   50.5920 H   0  0  0  0  0  0  0  0  0  0  0  0
   53.6262   30.9638   50.0186 H   0  0  0  0  0  0  0  0  0  0  0  0
   59.1610   30.3431   51.4311 H   0  0  0  0  0  0  0  0  0  0  0  0
   59.0766   31.1074   49.7811 H   0  0  0  0  0  0  0  0  0  0  0  0
   60.5610   32.0143   52.2527 H   0  0  0  0  0  0  0  0  0  0  0  0
   61.0974   31.9071   50.5180 H   0  0  0  0  0  0  0  0  0  0  0  0
   59.0712   31.8129   48.0880 H   0  0  0  0  0  0  0  0  0  0  0  0
   59.2068   26.8388   46.0865 H   0  0  0  0  0  0  0  0  0  0  0  0
   58.0143   25.9292   43.8778 H   0  0  0  0  0  0  0  0  0  0  0  0
   57.1310   27.9490   42.5260 H   0  0  0  0  0  0  0  0  0  0  0  0
   55.9546   31.6840   43.8606 H   0  0  0  0  0  0  0  0  0  0  0  0
   56.3960   30.7976   45.3609 H   0  0  0  0  0  0  0  0  0  0  0  0
   56.6573   32.5965   46.8873 H   0  0  0  0  0  0  0  0  0  0  0  0
   57.9482   34.6017   47.6242 H   0  0  0  0  0  0  0  0  0  0  0  0
   59.6198   35.6472   46.0914 H   0  0  0  0  0  0  0  0  0  0  0  0
   59.9917   34.6964   43.8122 H   0  0  0  0  0  0  0  0  0  0  0  0
   58.7048   32.6913   43.0674 H   0  0  0  0  0  0  0  0  0  0  0  0
  1  2  2  0
  2  3  1  0
  3  4  1  0
  4  5  2  0
  5  6  1  0
  6  7  2  0
  7  8  1  0
  8  9  1  0
  9 10  1  0
 10 11  1  0
 11 12  1  0
 12 13  1  0
 13 14  1  0
 14 15  2  0
 14 16  1  0
 16 17  1  0
 17 18  1  0
 18 19  1  0
 19 20  1  0
 20 21  1  0
 21 22  1  0
 13 23  1  0
 23 24  1  0
  8 25  2  0
  2 26  1  0
 26 27  1  0
 27 28  2  0
 28 29  1  0
 29 30  1  0
 30 31  1  0
 31 32  1  0
 32 33  1  0
 33 34  2  0
 34 35  1  0
 35 36  2  0
 36 37  1  0
 37 38  2  0
 25  4  1  0
 30 26  2  0
 38 33  1  0
 24 10  1  0
 22 17  1  0
  5 39  1  0
  6 40  1  0
  7 41  1  0
  9 42  1  0
  9 43  1  0
 11 44  1  0
 11 45  1  0
 12 46  1  0
 12 47  1  0
 13 48  1  0
 16 49  1  0
 17 50  1  0
 18 51  1  0
 18 52  1  0
 19 53  1  0
 19 54  1  0
 20 55  1  0
 20 56  1  0
 21 57  1  0
 21 58  1  0
 22 59  1  0
 22 60  1  0
 23 61  1  0
 23 62  1  0
 24 63  1  0
 24 64  1  0
 25 65  1  0
 27 66  1  0
 28 67  1  0
 29 68  1  0
 32 69  1  0
 32 70  1  0
 34 71  1  0
 35 72  1  0
 36 73  1  0
 37 74  1  0
 38 75  1  0
M  CHG  1   3  -1
M  END
>  <UniqueID>  (81) 
73

>  <SMILES>  (81) 
O=C([N-]c1cccc(CN2CCC(C(=O)NC3CCCCC3)CC2)c1)c1cc[nH]c1OCc1ccccc1

>  <Energy>  (81) 
116.52209337543404

>  <Genealogy>  (81) 
O=C([N-]c1cccc(CN2CCC(C(=O)NC3CCCCC3)CC2)c1)c1cc[nH]c1OCc1ccccc1 (protonated)
O=C([N-]c1cccc(CN2CCC(C(=O)NC3CCCCC3)CC2)c1)c1cc[nH]c1OCc1ccccc1 (3D coordinates assigned)
O=C([N-]c1cccc(CN2CCC(C(=O)NC3CCCCC3)CC2)c1)c1cc[nH]c1OCc1ccccc1 (nonaromatic ring conformer: 116.52209337543404 kcal/mol)

>  <smiles>  (81) 
O=C(Nc1cccc(CN2CCC(C(=O)NC3CCCCC3)CC2)c1)c1cc[nH]c1OCc1ccccc1

>  <score_type>  (81) 
oracle

>  <origin>  (81) 
adg

>  <m_score__min__energy>  (81) 
-12.18

>  <m_primary>  (81) 
energy

$$$$
81:0
     RDKit          3D

 51 54  0  0  1  0  0  0  0  0999 V2000
   57.5790   31.8320   42.4820 O   0  0  0  0  0  0  0  0  0  0  0  0
   57.0440   31.2310   43.4410 C   0  0  0  0  0  0  0  0  0  0  0  0
   56.2130   30.0450   43.1110 C   0  0  0  0  0  0  0  0  0  0  0  0
   56.9910   28.8630   43.2990 N   0  0  0  0  0  0  0  0  0  0  0  0
   57.1710   28.3770   44.4580 C   0  0  0  0  0  0  0  0  0  0  0  0
   56.1920   27.9090   45.2440 N   0  0  0  0  0  0  0  0  0  0  0  0
   56.6710   27.4650   46.3940 N   0  0  0  0  0  0  0  0  0  0  0  0
   58.0110   27.6500   46.3560 C   0  0  0  0  0  0  0  0  0  0  0  0
   58.3560   28.2230   45.1480 C   0  0  0  0  0  0  0  0  0  0  0  0
   59.7940   28.4340   45.0820 C   0  0  0  0  0  0  0  0  0  0  0  0
   60.1480   28.5640   46.5630 C   0  0  0  0  0  0  0  0  0  0  0  0
   59.2710   27.4660   47.1360 C   0  0  0  0  0  0  0  0  0  0  0  0
   57.2040   31.6360   44.7820 N   0  0  0  0  0  0  0  0  0  0  0  0
   57.9550   32.7320   45.2460 C   0  0  0  0  0  0  0  0  0  0  0  0
   58.1140   33.9320   44.6000 C   0  0  0  0  0  0  0  0  0  0  0  0
   58.8710   34.9770   45.1120 C   0  0  0  0  0  0  0  0  0  0  0  0
   59.5110   34.8470   46.3220 C   0  0  0  0  0  0  0  0  0  0  0  0
   59.3540   33.6360   46.9770 C   0  0  0  0  0  0  0  0  0  0  0  0
   60.1430   33.4100   48.5200 S   0  0  0  0  0  0  0  0  0  0  0  0
   59.5690   32.1660   49.1210 O   0  0  0  0  0  0  0  0  0  0  0  0
   59.7900   34.5870   49.3840 O   0  0  0  0  0  0  0  0  0  0  0  0
   61.8430   33.3340   48.3870 N   0  0  0  0  0  0  0  0  0  0  0  0
   62.2830   33.5740   47.0540 C   0  0  0  0  0  0  0  0  0  0  0  0
   63.7020   33.0680   46.9400 C   0  0  0  0  0  0  0  0  0  0  0  0
   64.3560   33.3900   48.1190 O   0  0  0  0  0  0  0  0  0  0  0  0
   63.9600   32.5270   49.1370 C   0  0  0  0  0  0  0  0  0  0  0  0
   62.4640   32.2280   49.0460 C   0  0  0  0  0  0  0  0  0  0  0  0
   58.6000   32.6010   46.4640 C   0  0  0  0  0  0  0  0  0  0  0  0
   55.3336   30.0161   43.7712 H   0  0  0  0  0  0  0  0  0  0  0  0
   55.8785   30.1062   42.0649 H   0  0  0  0  0  0  0  0  0  0  0  0
   55.1740   27.8930   44.9900 H   0  0  0  0  0  0  0  0  0  0  0  0
   56.1560   27.0420   47.2090 H   0  0  0  0  0  0  0  0  0  0  0  0
   60.3056   27.5769   44.6198 H   0  0  0  0  0  0  0  0  0  0  0  0
   60.0942   29.2976   44.4704 H   0  0  0  0  0  0  0  0  0  0  0  0
   61.2155   28.3725   46.7467 H   0  0  0  0  0  0  0  0  0  0  0  0
   59.9845   29.5626   46.9944 H   0  0  0  0  0  0  0  0  0  0  0  0
   59.7085   26.4716   46.9631 H   0  0  0  0  0  0  0  0  0  0  0  0
   59.1351   27.5250   48.2260 H   0  0  0  0  0  0  0  0  0  0  0  0
   56.6950   31.0370   45.5000 H   0  0  0  0  0  0  0  0  0  0  0  0
   57.6173   34.0729   43.6287 H   0  0  0  0  0  0  0  0  0  0  0  0
   58.9595   35.9158   44.5456 H   0  0  0  0  0  0  0  0  0  0  0  0
   60.1157   35.6613   46.7476 H   0  0  0  0  0  0  0  0  0  0  0  0
   61.6361   33.0381   46.3438 H   0  0  0  0  0  0  0  0  0  0  0  0
   62.2373   34.6481   46.8209 H   0  0  0  0  0  0  0  0  0  0  0  0
   63.7013   31.9774   46.7969 H   0  0  0  0  0  0  0  0  0  0  0  0
   64.2087   33.5273   46.0784 H   0  0  0  0  0  0  0  0  0  0  0  0
   64.5216   31.5852   49.0498 H   0  0  0  0  0  0  0  0  0  0  0  0
   64.1645   33.0075   50.1051 H   0  0  0  0  0  0  0  0  0  0  0  0
   62.2999   31.3065   48.4682 H   0  0  0  0  0  0  0  0  0  0  0  0
   62.0361   32.0855   50.0493 H   0  0  0  0  0  0  0  0  0  0  0  0
   58.5102   31.6614   47.0288 H   0  0  0  0  0  0  0  0  0  0  0  0
  1  2  2  0
  2  3  1  0
  3  4  1  0
  4  5  2  0
  5  6  1  0
  6  7  1  0
  7  8  1  0
  8  9  2  0
  9 10  1  0
 10 11  1  0
 11 12  1  0
  2 13  1  0
 13 14  1  0
 14 15  2  0
 15 16  1  0
 16 17  2  0
 17 18  1  0
 18 19  1  0
 19 20  2  0
 19 21  2  0
 19 22  1  0
 22 23  1  0
 23 24  1  0
 24 25  1  0
 25 26  1  0
 26 27  1  0
 18 28  2  0
  9  5  1  0
 28 14  1  0
 12  8  1  0
 27 22  1  0
  3 29  1  0
  3 30  1  0
  6 31  1  0
  7 32  1  0
 10 33  1  0
 10 34  1  0
 11 35  1  0
 11 36  1  0
 12 37  1  0
 12 38  1  0
 13 39  1  0
 15 40  1  0
 16 41  1  0
 17 42  1  0
 23 43  1  0
 23 44  1  0
 24 45  1  0
 24 46  1  0
 26 47  1  0
 26 48  1  0
 27 49  1  0
 27 50  1  0
 28 51  1  0
M  END
>  <smiles>  (82) 
O=C(CN=c1[nH][nH]c2c1CCC2)Nc1cccc(S(=O)(=O)N2CCOCC2)c1

>  <score_type>  (82) 
oracle

>  <origin>  (82) 
adg

>  <m_score__min__energy>  (82) 
-11.050000000000001

>  <m_primary>  (82) 
energy

$$$$
82:0
     RDKit          3D

 74 78  0  0  0  0  0  0  0  0999 V2000
   58.1930   21.4640   43.5360 C   0  0  0  0  0  0  0  0  0  0  0  0
   56.5500   22.1280   43.6930 S   0  0  0  0  0  0  0  0  0  0  0  0
   55.9080   22.1960   42.3340 O   0  0  0  0  0  0  0  0  0  0  0  0
   55.7240   21.2340   44.5760 O   0  0  0  0  0  0  0  0  0  0  0  0
   56.6400   23.7360   44.4000 C   0  0  0  0  0  0  0  0  0  0  0  0
   55.5670   24.2490   45.1440 C   0  0  0  0  0  0  0  0  0  0  0  0
   55.6320   25.5410   45.6760 C   0  0  0  0  0  0  0  0  0  0  0  0
   56.7690   26.3360   45.4640 C   0  0  0  0  0  0  0  0  0  0  0  0
   56.8170   27.7360   46.0040 C   0  0  0  0  0  0  0  0  0  0  0  0
   56.0420   28.6140   45.1340 N   0  0  0  0  0  0  0  0  0  0  0  0
   56.6090   29.5650   44.2260 C   0  0  0  0  0  0  0  0  0  0  0  0
   56.5080   29.3570   42.9870 O   0  0  0  0  0  0  0  0  0  0  0  0
   57.3420   30.7560   44.6990 C   0  0  0  0  0  0  0  0  0  0  0  0
   56.6620   31.9710   44.8670 C   0  0  0  0  0  0  0  0  0  0  0  0
   57.3500   33.1060   45.2970 C   0  0  0  0  0  0  0  0  0  0  0  0
   58.7200   33.0220   45.5460 C   0  0  0  0  0  0  0  0  0  0  0  0
   59.3710   31.8420   45.3740 N   0  0  0  0  0  0  0  0  0  0  0  0
   58.7280   30.7140   44.9640 C   0  0  0  0  0  0  0  0  0  0  0  0
   59.6730   29.1930   44.8100 S   0  0  0  0  0  0  0  0  0  0  0  0
   59.7820   28.9670   46.5860 C   0  0  0  0  0  0  0  0  0  0  0  0
   59.8680   30.0750   47.4340 C   0  0  0  0  0  0  0  0  0  0  0  0
   59.9600   29.8910   48.8150 C   0  0  0  0  0  0  0  0  0  0  0  0
   59.9350   28.5920   49.3380 C   0  0  0  0  0  0  0  0  0  0  0  0
   60.0320   28.4170   50.6230 N   0  0  0  0  0  0  0  0  0  0  0  0
   61.0320   29.0420   51.4360 C   0  0  0  0  0  0  0  0  0  0  0  0
   62.2050   28.5770   51.4440 O   0  0  0  0  0  0  0  0  0  0  0  0
   60.7060   30.2040   52.2170 N   0  0  0  0  0  0  0  0  0  0  0  0
   59.6200   31.0860   51.7610 C   0  0  0  0  0  0  0  0  0  0  0  0
   59.7820   32.4960   52.3350 C   0  0  0  0  0  0  0  0  0  0  0  0
   61.2040   32.8620   52.3150 N   0  0  0  0  0  0  0  0  0  0  0  0
   61.7270   33.8090   51.3650 C   0  0  0  0  0  0  0  0  0  0  0  0
   62.8290   34.3790   51.5920 O   0  0  0  0  0  0  0  0  0  0  0  0
   61.0670   34.0380   50.1140 N   0  0  0  0  0  0  0  0  0  0  0  0
   61.7400   33.8730   48.8560 C   0  0  0  0  0  0  0  0  0  0  0  0
   61.0380   34.0820   47.6590 C   0  0  0  0  0  0  0  0  0  0  0  0
   61.6780   33.9210   46.4250 C   0  0  0  0  0  0  0  0  0  0  0  0
   63.0210   33.5350   46.3770 C   0  0  0  0  0  0  0  0  0  0  0  0
   63.7230   33.3020   47.5620 C   0  0  0  0  0  0  0  0  0  0  0  0
   63.0870   33.4640   48.7970 C   0  0  0  0  0  0  0  0  0  0  0  0
   62.1620   32.0080   53.0390 C   0  0  0  0  0  0  0  0  0  0  0  0
   61.5570   30.6300   53.3400 C   0  0  0  0  0  0  0  0  0  0  0  0
   59.8590   27.5270   48.4900 N   0  0  0  0  0  0  0  0  0  0  0  0
   59.7950   27.6840   47.1410 C   0  0  0  0  0  0  0  0  0  0  0  0
   57.8400   25.8200   44.7180 C   0  0  0  0  0  0  0  0  0  0  0  0
   57.7760   24.5280   44.1910 C   0  0  0  0  0  0  0  0  0  0  0  0
   58.6165   21.2929   44.5367 H   0  0  0  0  0  0  0  0  0  0  0  0
   58.1527   20.5116   42.9871 H   0  0  0  0  0  0  0  0  0  0  0  0
   58.8257   22.1770   42.9871 H   0  0  0  0  0  0  0  0  0  0  0  0
   54.6710   23.6328   45.3097 H   0  0  0  0  0  0  0  0  0  0  0  0
   54.7891   25.9353   46.2625 H   0  0  0  0  0  0  0  0  0  0  0  0
   56.3909   27.7538   47.0180 H   0  0  0  0  0  0  0  0  0  0  0  0
   57.8607   28.0814   46.0416 H   0  0  0  0  0  0  0  0  0  0  0  0
   55.5834   32.0293   44.6592 H   0  0  0  0  0  0  0  0  0  0  0  0
   56.8173   34.0580   45.4383 H   0  0  0  0  0  0  0  0  0  0  0  0
   59.2734   33.9114   45.8817 H   0  0  0  0  0  0  0  0  0  0  0  0
   59.8632   31.0914   47.0135 H   0  0  0  0  0  0  0  0  0  0  0  0
   60.0512   30.7580   49.4858 H   0  0  0  0  0  0  0  0  0  0  0  0
   59.6378   31.1404   50.6625 H   0  0  0  0  0  0  0  0  0  0  0  0
   58.6623   30.6728   52.1105 H   0  0  0  0  0  0  0  0  0  0  0  0
   59.2091   33.2101   51.7252 H   0  0  0  0  0  0  0  0  0  0  0  0
   59.4073   32.5207   53.3689 H   0  0  0  0  0  0  0  0  0  0  0  0
   60.0830   34.3940   50.1190 H   0  0  0  0  0  0  0  0  0  0  0  0
   59.9780   34.3742   47.6909 H   0  0  0  0  0  0  0  0  0  0  0  0
   61.1238   34.0984   45.4915 H   0  0  0  0  0  0  0  0  0  0  0  0
   63.5246   33.4148   45.4065 H   0  0  0  0  0  0  0  0  0  0  0  0
   64.7773   32.9907   47.5237 H   0  0  0  0  0  0  0  0  0  0  0  0
   63.6414   33.2711   49.7273 H   0  0  0  0  0  0  0  0  0  0  0  0
   63.0638   31.8775   52.4227 H   0  0  0  0  0  0  0  0  0  0  0  0
   62.4124   32.4952   53.9929 H   0  0  0  0  0  0  0  0  0  0  0  0
   62.3664   29.8989   53.4829 H   0  0  0  0  0  0  0  0  0  0  0  0
   60.9485   30.6919   54.2542 H   0  0  0  0  0  0  0  0  0  0  0  0
   59.7534   26.8012   46.4861 H   0  0  0  0  0  0  0  0  0  0  0  0
   58.7349   26.4365   44.5474 H   0  0  0  0  0  0  0  0  0  0  0  0
   58.6212   24.1310   43.6095 H   0  0  0  0  0  0  0  0  0  0  0  0
  1  2  1  0
  2  3  2  0
  2  4  2  0
  2  5  1  0
  5  6  2  0
  6  7  1  0
  7  8  2  0
  8  9  1  0
  9 10  1  0
 10 11  1  0
 11 12  2  0
 11 13  1  0
 13 14  2  0
 14 15  1  0
 15 16  2  0
 16 17  1  0
 17 18  2  0
 18 19  1  0
 19 20  1  0
 20 21  1  0
 21 22  2  0
 22 23  1  0
 23 24  2  3
 24 25  1  0
 25 26  2  0
 25 27  1  0
 27 28  1  0
 28 29  1  0
 29 30  1  0
 30 31  1  0
 31 32  2  0
 31 33  1  0
 33 34  1  0
 34 35  2  0
 35 36  1  0
 36 37  2  0
 37 38  1  0
 38 39  2  0
 30 40  1  0
 40 41  1  0
 23 42  1  0
 42 43  1  0
  8 44  1  0
 44 45  2  0
 45  5  1  0
 18 13  1  0
 43 20  2  0
 41 27  1  0
 39 34  1  0
  1 46  1  0
  1 47  1  0
  1 48  1  0
  6 49  1  0
  7 50  1  0
  9 51  1  0
  9 52  1  0
 14 53  1  0
 15 54  1  0
 16 55  1  0
 21 56  1  0
 22 57  1  0
 28 58  1  0
 28 59  1  0
 29 60  1  0
 29 61  1  0
 33 62  1  0
 35 63  1  0
 36 64  1  0
 37 65  1  0
 38 66  1  0
 39 67  1  0
 40 68  1  0
 40 69  1  0
 41 70  1  0
 41 71  1  0
 43 72  1  0
 44 73  1  0
 45 74  1  0
M  CHG  2  10  -1  42  -1
M  END
>  <UniqueID>  (83) 
74

>  <SMILES>  (83) 
CS(=O)(=O)c1ccc(C[N-]C(=O)c2cccnc2Sc2ccc(=NC(=O)N3CCN(C(=O)Nc4ccccc4)CC3)[n-]c2)cc1

>  <Energy>  (83) 
88.41623128282492

>  <Genealogy>  (83) 
CS(=O)(=O)c1ccc(C[N-]C(=O)c2cccnc2Sc2ccc(=NC(=O)N3CCN(C(=O)Nc4ccccc4)CC3)[n-]c2)cc1 (protonated)
CS(=O)(=O)c1ccc(C[N-]C(=O)c2cccnc2Sc2ccc(=NC(=O)N3CCN(C(=O)Nc4ccccc4)CC3)[n-]c2)cc1 (3D coordinates assigned)
CS(=O)(=O)c1ccc(C[N-]C(=O)c2cccnc2Sc2ccc(=NC(=O)N3CCN(C(=O)Nc4ccccc4)CC3)[n-]c2)cc1 (nonaromatic ring conformer: 88.41623128282492 kcal/mol)

>  <smiles>  (83) 
CS(=O)(=O)c1ccc(CNC(=O)c2cccnc2Sc2ccc(=NC(=O)N3CCN(C(=O)Nc4ccccc4)CC3)[nH]c2)cc1

>  <score_type>  (83) 
oracle

>  <origin>  (83) 
adg

>  <m_score__min__energy>  (83) 
-12.789999999999999

>  <m_primary>  (83) 
energy

$$$$
83:0
     RDKit          3D

 29 31  0  0  0  0  0  0  0  0999 V2000
   54.2070   26.6970   46.7440 H   0  0  0  0  0  0  0  0  0  0  0  0
   54.7770   26.2400   46.0010 N   0  0  0  0  0  0  0  0  0  0  0  0
   56.0690   26.1570   46.0410 C   0  0  0  0  0  0  0  0  0  0  0  0
   56.7240   25.0520   46.4250 N   0  0  0  0  0  0  0  0  0  0  0  0
   57.9880   25.3580   46.3290 O   0  0  0  0  0  0  0  0  0  0  0  0
   58.2060   26.5760   45.9130 N   0  0  0  0  0  0  0  0  0  0  0  0
   56.9950   27.1300   45.7140 C   0  0  0  0  0  0  0  0  0  0  0  0
   56.7860   28.5130   45.2380 C   0  0  0  0  0  0  0  0  0  0  0  0
   55.5760   29.0830   45.0590 N   0  0  0  0  0  0  0  0  0  0  0  0
   55.7490   30.3210   44.6160 N   0  0  0  0  0  0  0  0  0  0  0  0
   57.0710   30.5560   44.5120 C   0  0  0  0  0  0  0  0  0  0  0  0
   57.6510   31.8340   43.9890 C   0  0  0  0  0  0  0  0  0  0  0  0
   58.7363   31.7099   43.8601 H   0  0  0  0  0  0  0  0  0  0  0  0
   57.1720   32.0674   43.0267 H   0  0  0  0  0  0  0  0  0  0  0  0
   57.3410   33.2170   45.1430 S   0  0  0  0  0  0  0  0  0  0  0  0
   58.9640   33.1550   45.9090 C   0  0  0  0  0  0  0  0  0  0  0  0
   59.3590   32.0170   46.6240 C   0  0  0  0  0  0  0  0  0  0  0  0
   58.6727   31.1627   46.7199 H   0  0  0  0  0  0  0  0  0  0  0  0
   60.6250   31.9660   47.2160 C   0  0  0  0  0  0  0  0  0  0  0  0
   60.9361   31.0695   47.7722 H   0  0  0  0  0  0  0  0  0  0  0  0
   61.4960   33.0550   47.1010 C   0  0  0  0  0  0  0  0  0  0  0  0
   63.0850   32.9910   47.8430 Cl  0  0  0  0  0  0  0  0  0  0  0  0
   61.0980   34.1970   46.3950 C   0  0  0  0  0  0  0  0  0  0  0  0
   61.7814   35.0543   46.3060 H   0  0  0  0  0  0  0  0  0  0  0  0
   59.8320   34.2480   45.8030 C   0  0  0  0  0  0  0  0  0  0  0  0
   59.5181   35.1478   45.2536 H   0  0  0  0  0  0  0  0  0  0  0  0
   57.7640   29.4270   44.8960 C   0  0  0  0  0  0  0  0  0  0  0  0
   59.1940   29.2490   44.9110 C   0  0  0  0  0  0  0  0  0  0  0  0
   60.3420   29.1070   44.9230 N   0  0  0  0  0  0  0  0  0  0  0  0
  1  2  1  0
  2  3  2  0
  3  4  1  0
  4  5  1  0
  5  6  1  0
  6  7  2  0
  7  8  1  0
  8  9  1  0
  9 10  1  0
 10 11  2  0
 11 12  1  0
 12 13  1  0
 12 14  1  0
 12 15  1  0
 15 16  1  0
 16 17  2  0
 17 18  1  0
 17 19  1  0
 19 20  1  0
 19 21  2  0
 21 22  1  0
 21 23  1  0
 23 24  1  0
 23 25  2  0
 25 26  1  0
 11 27  1  0
 27 28  1  0
 28 29  3  0
  7  3  1  0
 27  8  2  0
 25 16  1  0
M  CHG  2   4  -1   9  -1
M  END
>  <UniqueID>  (84) 
75

>  <SMILES>  (84) 
[H]/N=c1/[n-]onc1-c1[n-]nc(CSc2ccc(Cl)cc2)c1C#N

>  <Energy>  (84) 
94.11169668866604

>  <Genealogy>  (84) 
N#Cc1c(CSc2ccc(Cl)cc2)n[n-]c1-c1no[n-]c1=N (protonated)
[H]/N=c1/[n-]onc1-c1[n-]nc(CSc2ccc(Cl)cc2)c1C#N (cis-trans isomerization)
[H]/N=c1/[n-]onc1-c1[n-]nc(CSc2ccc(Cl)cc2)c1C#N (3D coordinates assigned)
[H]/N=c1/[n-]onc1-c1[n-]nc(CSc2ccc(Cl)cc2)c1C#N (optimized conformer: 94.11169668866604 kcal/mol)

>  <smiles>  (84) 
N#Cc1c(CSc2ccc(Cl)cc2)n[nH]c1-c1no[nH]c1=N

>  <score_type>  (84) 
oracle

>  <origin>  (84) 
adg

>  <m_score__min__energy>  (84) 
-13.1

>  <m_primary>  (84) 
energy

$$$$
84:0
     RDKit          3D

 29 30  0  0  0  0  0  0  0  0999 V2000
   50.8270   24.4530   44.1650 C   0  0  0  0  0  0  0  0  0  0  0  0
   51.8700   23.4190   44.4600 C   0  0  0  0  0  0  0  0  0  0  0  0
   51.5070   22.2920   44.8870 O   0  0  0  0  0  0  0  0  0  0  0  0
   53.2660   23.6570   44.2320 N   0  0  0  0  0  0  0  0  0  0  0  0
   54.3300   23.4930   45.1800 C   0  0  0  0  0  0  0  0  0  0  0  0
   54.4880   22.2530   45.8090 C   0  0  0  0  0  0  0  0  0  0  0  0
   55.5050   22.0620   46.7470 C   0  0  0  0  0  0  0  0  0  0  0  0
   56.3560   23.1170   47.0870 C   0  0  0  0  0  0  0  0  0  0  0  0
   57.3660   22.9070   48.0200 O   0  0  0  0  0  0  0  0  0  0  0  0
   56.1810   24.3830   46.5030 C   0  0  0  0  0  0  0  0  0  0  0  0
   57.0680   25.4600   46.8480 N   0  0  0  0  0  0  0  0  0  0  0  0
   57.2370   26.6570   46.0710 C   0  0  0  0  0  0  0  0  0  0  0  0
   58.4730   26.9940   45.5010 C   0  0  0  0  0  0  0  0  0  0  0  0
   58.5610   28.1560   44.7330 C   0  0  0  0  0  0  0  0  0  0  0  0
   59.6580   28.4920   44.2160 O   0  0  0  0  0  0  0  0  0  0  0  0
   57.4580   28.9250   44.5380 N   0  0  0  0  0  0  0  0  0  0  0  0
   56.2610   28.5770   45.0780 C   0  0  0  0  0  0  0  0  0  0  0  0
   55.2240   29.3200   44.8710 N   0  0  0  0  0  0  0  0  0  0  0  0
   56.1580   27.4490   45.8300 N   0  0  0  0  0  0  0  0  0  0  0  0
   55.1670   24.5610   45.5420 C   0  0  0  0  0  0  0  0  0  0  0  0
   50.4267   24.8499   45.1096 H   0  0  0  0  0  0  0  0  0  0  0  0
   51.2765   25.2720   43.5844 H   0  0  0  0  0  0  0  0  0  0  0  0
   50.0119   23.9964   43.5844 H   0  0  0  0  0  0  0  0  0  0  0  0
   53.8076   21.4243   45.5634 H   0  0  0  0  0  0  0  0  0  0  0  0
   55.6366   21.0776   47.2198 H   0  0  0  0  0  0  0  0  0  0  0  0
   57.6480   25.3640   47.7130 H   0  0  0  0  0  0  0  0  0  0  0  0
   59.3552   26.3556   45.6560 H   0  0  0  0  0  0  0  0  0  0  0  0
   54.4580   29.3960   45.5770 H   0  0  0  0  0  0  0  0  0  0  0  0
   55.0294   25.5454   45.0707 H   0  0  0  0  0  0  0  0  0  0  0  0
  1  2  1  0
  2  3  2  0
  2  4  1  0
  4  5  1  0
  5  6  2  0
  6  7  1  0
  7  8  2  0
  8  9  1  0
  8 10  1  0
 10 11  1  0
 11 12  1  0
 12 13  2  0
 13 14  1  0
 14 15  2  0
 14 16  1  0
 16 17  1  0
 17 18  2  3
 17 19  1  0
 10 20  2  0
 20  5  1  0
 19 12  1  0
  1 21  1  0
  1 22  1  0
  1 23  1  0
  6 24  1  0
  7 25  1  0
 11 26  1  0
 13 27  1  0
 18 28  1  0
 20 29  1  0
M  CHG  4   4  -1   9  -1  16  -1  19  -1
M  END
>  <UniqueID>  (85) 
76

>  <SMILES>  (85) 
CC(=O)[N-]c1ccc([O-])c(Nc2cc(=O)[n-]c(=N)[n-]2)c1

>  <Energy>  (85) 
39.277906354072165

>  <Genealogy>  (85) 
CC(=O)[N-]c1ccc([O-])c(Nc2cc(=O)[n-]c(=N)[n-]2)c1 (protonated)
CC(=O)[N-]c1ccc([O-])c(Nc2cc(=O)[n-]c(=N)[n-]2)c1 (3D coordinates assigned)
CC(=O)[N-]c1ccc([O-])c(Nc2cc(=O)[n-]c(=N)[n-]2)c1 (optimized conformer: 39.277906354072165 kcal/mol)

>  <smiles>  (85) 
CC(=O)Nc1ccc(O)c(Nc2cc(=O)[nH]c(=N)[nH]2)c1

>  <score_type>  (85) 
oracle

>  <origin>  (85) 
adg

>  <m_score__min__energy>  (85) 
-13.49

>  <m_primary>  (85) 
energy

$$$$
85:0
     RDKit          3D

 54 56  0  0  0  0  0  0  0  0999 V2000
   58.2890   24.7060   45.7080 C   0  0  0  0  0  0  0  0  0  0  0  0
   57.5470   26.0240   46.0190 C   0  0  0  0  0  0  0  0  0  0  0  0
   58.1260   26.5910   47.3340 C   0  0  0  0  0  0  0  0  0  0  0  0
   57.7750   27.0090   44.8330 C   0  0  0  0  0  0  0  0  0  0  0  0
   58.0860   28.3930   45.2720 N   0  0  0  0  0  0  0  0  0  0  0  0
   57.1110   29.3520   45.2860 C   0  0  0  0  0  0  0  0  0  0  0  0
   55.9250   29.0700   44.9550 O   0  0  0  0  0  0  0  0  0  0  0  0
   57.4060   30.6240   45.6480 N   0  0  0  0  0  0  0  0  0  0  0  0
   58.6680   30.9690   46.0300 C   0  0  0  0  0  0  0  0  0  0  0  0
   58.9590   32.2020   46.3520 N   0  0  0  0  0  0  0  0  0  0  0  0
   59.1890   32.7370   47.6620 C   0  0  0  0  0  0  0  0  0  0  0  0
   60.0770   33.8090   47.8150 C   0  0  0  0  0  0  0  0  0  0  0  0
   60.3560   34.3170   49.0860 C   0  0  0  0  0  0  0  0  0  0  0  0
   59.7690   33.7410   50.2160 C   0  0  0  0  0  0  0  0  0  0  0  0
   58.9130   32.6380   50.0790 C   0  0  0  0  0  0  0  0  0  0  0  0
   58.1750   31.9000   51.4960 S   0  0  0  0  0  0  0  0  0  0  0  0
   57.5110   30.3640   51.0660 N   0  0  0  0  0  0  0  0  0  0  0  0
   59.2120   31.7190   52.5690 O   0  0  0  0  0  0  0  0  0  0  0  0
   57.0800   32.7820   52.0280 O   0  0  0  0  0  0  0  0  0  0  0  0
   58.6330   32.1340   48.8020 C   0  0  0  0  0  0  0  0  0  0  0  0
   59.6550   30.0150   46.0390 N   0  0  0  0  0  0  0  0  0  0  0  0
   61.0460   30.3840   46.3880 C   0  0  0  0  0  0  0  0  0  0  0  0
   61.2420   30.3340   47.8820 C   0  0  0  0  0  0  0  0  0  0  0  0
   62.1530   31.2000   48.5110 C   0  0  0  0  0  0  0  0  0  0  0  0
   62.3630   31.1210   49.8910 C   0  0  0  0  0  0  0  0  0  0  0  0
   61.6680   30.1770   50.6530 C   0  0  0  0  0  0  0  0  0  0  0  0
   61.9360   30.0770   52.3830 Cl  0  0  0  0  0  0  0  0  0  0  0  0
   60.7610   29.3120   50.0340 C   0  0  0  0  0  0  0  0  0  0  0  0
   60.5480   29.3880   48.6550 C   0  0  0  0  0  0  0  0  0  0  0  0
   59.3530   28.7260   45.6780 C   0  0  0  0  0  0  0  0  0  0  0  0
   60.2470   27.8360   45.7260 O   0  0  0  0  0  0  0  0  0  0  0  0
   56.0670   25.7220   46.1800 C   0  0  0  0  0  0  0  0  0  0  0  0
   55.6750   24.5830   46.5540 O   0  0  0  0  0  0  0  0  0  0  0  0
   55.1230   26.7240   45.9850 O   0  0  0  0  0  0  0  0  0  0  0  0
   58.5677   24.2110   46.6500 H   0  0  0  0  0  0  0  0  0  0  0  0
   57.6313   24.0434   45.1262 H   0  0  0  0  0  0  0  0  0  0  0  0
   59.1966   24.9246   45.1262 H   0  0  0  0  0  0  0  0  0  0  0  0
   57.6326   26.1079   48.1902 H   0  0  0  0  0  0  0  0  0  0  0  0
   59.2072   26.3928   47.3741 H   0  0  0  0  0  0  0  0  0  0  0  0
   57.9504   27.6762   47.3741 H   0  0  0  0  0  0  0  0  0  0  0  0
   58.6146   26.6377   44.2270 H   0  0  0  0  0  0  0  0  0  0  0  0
   56.8374   27.0515   44.2593 H   0  0  0  0  0  0  0  0  0  0  0  0
   56.6440   31.3330   45.5820 H   0  0  0  0  0  0  0  0  0  0  0  0
   60.5569   34.2530   46.9304 H   0  0  0  0  0  0  0  0  0  0  0  0
   61.0390   35.1720   49.1977 H   0  0  0  0  0  0  0  0  0  0  0  0
   59.9785   34.1531   51.2142 H   0  0  0  0  0  0  0  0  0  0  0  0
   58.2990   29.6780   51.0770 H   0  0  0  0  0  0  0  0  0  0  0  0
   57.9735   31.2605   48.6917 H   0  0  0  0  0  0  0  0  0  0  0  0
   61.7399   29.6787   45.9073 H   0  0  0  0  0  0  0  0  0  0  0  0
   61.2438   31.4070   46.0354 H   0  0  0  0  0  0  0  0  0  0  0  0
   62.7031   31.9431   47.9150 H   0  0  0  0  0  0  0  0  0  0  0  0
   63.0760   31.8025   50.3779 H   0  0  0  0  0  0  0  0  0  0  0  0
   60.2137   28.5698   50.6337 H   0  0  0  0  0  0  0  0  0  0  0  0
   59.8340   28.7043   48.1726 H   0  0  0  0  0  0  0  0  0  0  0  0
  1  2  1  0
  2  3  1  0
  2  4  1  0
  4  5  1  0
  5  6  1  0
  6  7  2  0
  6  8  1  0
  8  9  1  0
  9 10  2  3
 10 11  1  0
 11 12  2  0
 12 13  1  0
 13 14  2  0
 14 15  1  0
 15 16  1  0
 16 17  1  0
 16 18  2  0
 16 19  2  0
 15 20  2  0
  9 21  1  0
 21 22  1  0
 22 23  1  0
 23 24  2  0
 24 25  1  0
 25 26  2  0
 26 27  1  0
 26 28  1  0
 28 29  2  0
 21 30  1  0
 30 31  2  0
  2 32  1  0
 32 33  2  0
 32 34  1  0
 30  5  1  0
 20 11  1  0
 29 23  1  0
  1 35  1  0
  1 36  1  0
  1 37  1  0
  3 38  1  0
  3 39  1  0
  3 40  1  0
  4 41  1  0
  4 42  1  0
  8 43  1  0
 12 44  1  0
 13 45  1  0
 14 46  1  0
 17 47  1  0
 20 48  1  0
 22 49  1  0
 22 50  1  0
 24 51  1  0
 25 52  1  0
 28 53  1  0
 29 54  1  0
M  CHG  2  17  -1  34  -1
M  END
>  <UniqueID>  (86) 
77

>  <SMILES>  (86) 
CC(C)(Cn1c(=O)[nH]c(=Nc2cccc(S([NH-])(=O)=O)c2)n(Cc2ccc(Cl)cc2)c1=O)C(=O)[O-]

>  <Energy>  (86) 
69.67741984308691

>  <Genealogy>  (86) 
CC(C)(Cn1c(=O)[nH]c(=Nc2cccc(S([NH-])(=O)=O)c2)n(Cc2ccc(Cl)cc2)c1=O)C(=O)[O-] (protonated)
CC(C)(Cn1c(=O)[nH]c(=Nc2cccc(S([NH-])(=O)=O)c2)n(Cc2ccc(Cl)cc2)c1=O)C(=O)[O-] (3D coordinates assigned)
CC(C)(Cn1c(=O)[nH]c(=Nc2cccc(S([NH-])(=O)=O)c2)n(Cc2ccc(Cl)cc2)c1=O)C(=O)[O-] (optimized conformer: 69.67741984308691 kcal/mol)

>  <smiles>  (86) 
CC(C)(Cn1c(=O)[nH]c(=Nc2cccc(S(N)(=O)=O)c2)n(Cc2ccc(Cl)cc2)c1=O)C(=O)O

>  <score_type>  (86) 
oracle

>  <origin>  (86) 
adg

>  <m_score__min__energy>  (86) 
-12.4

>  <m_primary>  (86) 
energy

$$$$
86:0
     RDKit          3D

 49 51  0  0  0  0  0  0  0  0999 V2000
   57.7530   21.2600   43.2260 C   0  0  0  0  0  0  0  0  0  0  0  0
   56.6840   22.2860   43.4570 C   0  0  0  0  0  0  0  0  0  0  0  0
   55.6750   22.2810   42.6990 O   0  0  0  0  0  0  0  0  0  0  0  0
   56.7870   23.2740   44.5060 N   0  0  0  0  0  0  0  0  0  0  0  0
   55.5730   24.0140   44.8920 C   0  0  0  0  0  0  0  0  0  0  0  0
   55.8160   24.8820   46.1270 C   0  0  0  0  0  0  0  0  0  0  0  0
   57.0510   25.6540   45.9430 N   0  0  0  0  0  0  0  0  0  0  0  0
   57.0020   27.0980   45.9030 C   0  0  0  0  0  0  0  0  0  0  0  0
   55.9180   27.6760   45.6150 O   0  0  0  0  0  0  0  0  0  0  0  0
   58.1870   27.9360   46.1810 C   0  0  0  0  0  0  0  0  0  0  0  0
   58.7030   28.2070   47.4340 C   0  0  0  0  0  0  0  0  0  0  0  0
   59.8010   28.9960   47.1660 C   0  0  0  0  0  0  0  0  0  0  0  0
   60.7370   29.5890   48.1710 C   0  0  0  0  0  0  0  0  0  0  0  0
   60.3070   30.8970   48.5430 O   0  0  0  0  0  0  0  0  0  0  0  0
   59.9920   31.9330   47.6480 C   0  0  0  0  0  0  0  0  0  0  0  0
   61.0080   32.8200   47.2830 C   0  0  0  0  0  0  0  0  0  0  0  0
   60.7560   33.8610   46.3890 C   0  0  0  0  0  0  0  0  0  0  0  0
   59.4770   34.0380   45.8390 C   0  0  0  0  0  0  0  0  0  0  0  0
   59.2360   35.1720   44.8770 C   0  0  0  0  0  0  0  0  0  0  0  0
   58.4360   33.1540   46.2100 C   0  0  0  0  0  0  0  0  0  0  0  0
   57.0470   33.3060   45.6460 C   0  0  0  0  0  0  0  0  0  0  0  0
   58.7030   32.1080   47.1100 C   0  0  0  0  0  0  0  0  0  0  0  0
   59.9100   29.1490   45.8680 O   0  0  0  0  0  0  0  0  0  0  0  0
   58.9570   28.5230   45.2420 N   0  0  0  0  0  0  0  0  0  0  0  0
   58.2840   24.9370   45.5790 C   0  0  0  0  0  0  0  0  0  0  0  0
   58.0280   23.4500   45.2810 C   0  0  0  0  0  0  0  0  0  0  0  0
   58.1296   20.8985   44.1942 H   0  0  0  0  0  0  0  0  0  0  0  0
   57.3348   20.4165   42.6572 H   0  0  0  0  0  0  0  0  0  0  0  0
   58.5787   21.7124   42.6572 H   0  0  0  0  0  0  0  0  0  0  0  0
   55.2667   24.6596   44.0557 H   0  0  0  0  0  0  0  0  0  0  0  0
   54.7853   23.2846   45.1318 H   0  0  0  0  0  0  0  0  0  0  0  0
   54.9693   25.5707   46.2643 H   0  0  0  0  0  0  0  0  0  0  0  0
   55.9120   24.2401   47.0151 H   0  0  0  0  0  0  0  0  0  0  0  0
   58.3270   27.8727   48.4122 H   0  0  0  0  0  0  0  0  0  0  0  0
   60.7619   28.9482   49.0648 H   0  0  0  0  0  0  0  0  0  0  0  0
   61.7405   29.6576   47.7256 H   0  0  0  0  0  0  0  0  0  0  0  0
   62.0164   32.6963   47.7046 H   0  0  0  0  0  0  0  0  0  0  0  0
   61.5678   34.5499   46.1125 H   0  0  0  0  0  0  0  0  0  0  0  0
   59.0397   36.0958   45.4410 H   0  0  0  0  0  0  0  0  0  0  0  0
   60.1247   35.3108   44.2438 H   0  0  0  0  0  0  0  0  0  0  0  0
   58.3677   34.9374   44.2438 H   0  0  0  0  0  0  0  0  0  0  0  0
   56.3231   33.3852   46.4705 H   0  0  0  0  0  0  0  0  0  0  0  0
   56.9996   34.2147   45.0279 H   0  0  0  0  0  0  0  0  0  0  0  0
   56.8042   32.4291   45.0279 H   0  0  0  0  0  0  0  0  0  0  0  0
   57.8956   31.4183   47.3972 H   0  0  0  0  0  0  0  0  0  0  0  0
   58.7159   25.4080   44.6837 H   0  0  0  0  0  0  0  0  0  0  0  0
   58.9723   24.9951   46.4351 H   0  0  0  0  0  0  0  0  0  0  0  0
   58.8733   23.0480   44.7032 H   0  0  0  0  0  0  0  0  0  0  0  0
   57.9247   22.9134   46.2357 H   0  0  0  0  0  0  0  0  0  0  0  0
  1  2  1  0
  2  3  2  0
  2  4  1  0
  4  5  1  0
  5  6  1  0
  6  7  1  0
  7  8  1  0
  8  9  2  0
  8 10  1  0
 10 11  1  0
 11 12  2  0
 12 13  1  0
 13 14  1  0
 14 15  1  0
 15 16  2  0
 16 17  1  0
 17 18  2  0
 18 19  1  0
 18 20  1  0
 20 21  1  0
 20 22  2  0
 12 23  1  0
 23 24  1  0
  7 25  1  0
 25 26  1  0
 26  4  1  0
 24 10  2  0
 22 15  1  0
  1 27  1  0
  1 28  1  0
  1 29  1  0
  5 30  1  0
  5 31  1  0
  6 32  1  0
  6 33  1  0
 11 34  1  0
 13 35  1  0
 13 36  1  0
 16 37  1  0
 17 38  1  0
 19 39  1  0
 19 40  1  0
 19 41  1  0
 21 42  1  0
 21 43  1  0
 21 44  1  0
 22 45  1  0
 25 46  1  0
 25 47  1  0
 26 48  1  0
 26 49  1  0
M  END
>  <UniqueID>  (87) 
78

>  <SMILES>  (87) 
CC(=O)N1CCN(C(=O)c2cc(COc3ccc(C)c(C)c3)on2)CC1

>  <Energy>  (87) 
81.7648568790299

>  <Genealogy>  (87) 
CC(=O)N1CCN(C(=O)c2cc(COc3ccc(C)c(C)c3)on2)CC1 (3D coordinates assigned)
CC(=O)N1CCN(C(=O)c2cc(COc3ccc(C)c(C)c3)on2)CC1 (nonaromatic ring conformer: 81.7648568790299 kcal/mol)

>  <smiles>  (87) 
CC(=O)N1CCN(C(=O)c2cc(COc3ccc(C)c(C)c3)on2)CC1

>  <score_type>  (87) 
oracle

>  <origin>  (87) 
adg

>  <m_score__min__energy>  (87) 
-8.2899999999999991

>  <m_primary>  (87) 
energy

$$$$
87:0
     RDKit          3D

 48 51  0  0  0  0  0  0  0  0999 V2000
   55.1400   29.3520   44.8660 N   0  0  0  0  0  0  0  0  0  0  0  0
   56.6200   30.1030   44.3870 S   0  0  0  0  0  0  0  0  0  0  0  0
   56.5290   31.5840   44.6230 O   0  0  0  0  0  0  0  0  0  0  0  0
   56.8540   29.8630   42.9210 O   0  0  0  0  0  0  0  0  0  0  0  0
   57.9510   29.4290   45.3220 C   0  0  0  0  0  0  0  0  0  0  0  0
   57.8880   28.1090   45.7860 C   0  0  0  0  0  0  0  0  0  0  0  0
   58.9460   27.5740   46.5250 C   0  0  0  0  0  0  0  0  0  0  0  0
   60.0640   28.3590   46.8190 C   0  0  0  0  0  0  0  0  0  0  0  0
   60.1170   29.6980   46.3940 C   0  0  0  0  0  0  0  0  0  0  0  0
   61.2730   30.5120   46.6410 N   0  0  0  0  0  0  0  0  0  0  0  0
   61.3780   31.5090   47.4780 C   0  0  0  0  0  0  0  0  0  0  0  0
   61.1920   31.3670   48.9430 C   0  0  0  0  0  0  0  0  0  0  0  0
   60.4240   30.4830   49.4130 O   0  0  0  0  0  0  0  0  0  0  0  0
   61.8910   32.3110   49.8430 C   0  0  0  0  0  0  0  0  0  0  0  0
   61.8090   32.1740   51.2400 C   0  0  0  0  0  0  0  0  0  0  0  0
   62.5150   33.0430   52.0750 C   0  0  0  0  0  0  0  0  0  0  0  0
   63.3120   34.0500   51.5280 C   0  0  0  0  0  0  0  0  0  0  0  0
   63.4000   34.1990   50.1420 C   0  0  0  0  0  0  0  0  0  0  0  0
   62.6870   33.3380   49.2900 C   0  0  0  0  0  0  0  0  0  0  0  0
   62.7490   33.5050   47.8180 C   0  0  0  0  0  0  0  0  0  0  0  0
   63.6700   34.1890   47.2930 O   0  0  0  0  0  0  0  0  0  0  0  0
   61.6730   32.8950   46.9360 C   0  0  2  0  0  0  0  0  0  0  0  0
   60.4400   33.7430   46.9090 N   0  0  0  0  0  0  0  0  0  0  0  0
   59.6160   33.5850   48.1450 C   0  0  0  0  0  0  0  0  0  0  0  0
   58.3700   32.7130   47.9120 C   0  0  0  0  0  0  0  0  0  0  0  0
   57.4960   33.2380   46.9230 O   0  0  0  0  0  0  0  0  0  0  0  0
   58.1700   33.9290   45.8800 C   0  0  0  0  0  0  0  0  0  0  0  0
   59.6310   33.4900   45.6850 C   0  0  0  0  0  0  0  0  0  0  0  0
   59.0700   30.2180   45.6240 C   0  0  0  0  0  0  0  0  0  0  0  0
   55.1630   28.3730   44.5030 H   0  0  0  0  0  0  0  0  0  0  0  0
   57.0036   27.4923   45.5681 H   0  0  0  0  0  0  0  0  0  0  0  0
   58.8989   26.5326   46.8762 H   0  0  0  0  0  0  0  0  0  0  0  0
   60.9040   27.9285   47.3839 H   0  0  0  0  0  0  0  0  0  0  0  0
   61.1864   31.3794   51.6770 H   0  0  0  0  0  0  0  0  0  0  0  0
   62.4427   32.9335   53.1671 H   0  0  0  0  0  0  0  0  0  0  0  0
   63.8718   34.7274   52.1896 H   0  0  0  0  0  0  0  0  0  0  0  0
   64.0299   34.9935   49.7155 H   0  0  0  0  0  0  0  0  0  0  0  0
   62.0237   32.8333   45.8952 H   0  0  0  0  0  0  0  0  0  0  0  0
   60.7440   34.7460   46.8650 H   0  0  0  0  0  0  0  0  0  0  0  0
   60.2346   33.1160   48.9244 H   0  0  0  0  0  0  0  0  0  0  0  0
   59.2733   34.5849   48.4496 H   0  0  0  0  0  0  0  0  0  0  0  0
   58.6981   31.7127   47.5930 H   0  0  0  0  0  0  0  0  0  0  0  0
   57.8110   32.6824   48.8589 H   0  0  0  0  0  0  0  0  0  0  0  0
   57.6268   33.7524   44.9399 H   0  0  0  0  0  0  0  0  0  0  0  0
   58.1907   34.9920   46.1622 H   0  0  0  0  0  0  0  0  0  0  0  0
   59.6544   32.4143   45.4561 H   0  0  0  0  0  0  0  0  0  0  0  0
   60.0613   34.0735   44.8577 H   0  0  0  0  0  0  0  0  0  0  0  0
   59.1255   31.2522   45.2535 H   0  0  0  0  0  0  0  0  0  0  0  0
  1  2  1  0
  2  3  2  0
  2  4  2  0
  2  5  1  0
  5  6  2  0
  6  7  1  0
  7  8  2  0
  8  9  1  0
  9 10  1  0
 10 11  2  3
 11 12  1  0
 12 13  2  0
 12 14  1  0
 14 15  2  0
 15 16  1  0
 16 17  2  0
 17 18  1  0
 18 19  2  0
 19 20  1  0
 20 21  2  0
 20 22  1  0
 22 23  1  0
 23 24  1  0
 24 25  1  0
 25 26  1  0
 26 27  1  0
 27 28  1  0
  9 29  2  0
 29  5  1  0
 22 11  1  0
 28 23  1  0
 19 14  1  0
  1 30  1  0
  6 31  1  0
  7 32  1  0
  8 33  1  0
 15 34  1  0
 16 35  1  0
 17 36  1  0
 18 37  1  0
 22 38  1  6
 23 39  1  0
 24 40  1  0
 24 41  1  0
 25 42  1  0
 25 43  1  0
 27 44  1  0
 27 45  1  0
 28 46  1  0
 28 47  1  0
 29 48  1  0
M  CHG  2   1  -1  23   1
M  END
>  <UniqueID>  (88) 
79

>  <SMILES>  (88) 
[NH-]S(=O)(=O)c1cccc(N=C2C(=O)c3ccccc3C(=O)[C@@H]2[NH+]2CCOCC2)c1

>  <Energy>  (88) 
83.39783361174312

>  <Genealogy>  (88) 
[NH-]S(=O)(=O)c1cccc(N=C2C(=O)c3ccccc3C(=O)C2[NH+]2CCOCC2)c1 (protonated)
[NH-]S(=O)(=O)c1cccc(N=C2C(=O)c3ccccc3C(=O)[C@@H]2[NH+]2CCOCC2)c1 (chirality)
[NH-]S(=O)(=O)c1cccc(N=C2C(=O)c3ccccc3C(=O)[C@@H]2[NH+]2CCOCC2)c1 (3D coordinates assigned)
[NH-]S(=O)(=O)c1cccc(N=C2C(=O)c3ccccc3C(=O)[C@@H]2[NH+]2CCOCC2)c1 (nonaromatic ring conformer: 83.39783361174312 kcal/mol)

>  <smiles>  (88) 
NS(=O)(=O)c1cccc(N=C2C(=O)c3ccccc3C(=O)C2N2CCOCC2)c1

>  <score_type>  (88) 
oracle

>  <origin>  (88) 
adg

>  <m_score__min__energy>  (88) 
-10.890000000000001

>  <m_primary>  (88) 
energy

$$$$
88:0
     RDKit          3D

 29 30  0  0  0  0  0  0  0  0999 V2000
   60.0070   27.9800   45.2340 C   0  0  0  0  0  0  0  0  0  0  0  0
   58.8510   28.9290   45.0680 C   0  0  0  0  0  0  0  0  0  0  0  0
   59.1060   30.3100   45.0030 C   0  0  0  0  0  0  0  0  0  0  0  0
   58.0540   31.2230   44.9030 C   0  0  0  0  0  0  0  0  0  0  0  0
   58.3880   32.9440   44.8390 Cl  0  0  0  0  0  0  0  0  0  0  0  0
   56.7340   30.7660   44.8690 C   0  0  0  0  0  0  0  0  0  0  0  0
   56.4640   29.3970   44.9100 C   0  0  0  0  0  0  0  0  0  0  0  0
   55.1450   28.9580   44.8700 O   0  0  0  0  0  0  0  0  0  0  0  0
   57.5150   28.4690   44.9800 C   0  0  0  0  0  0  0  0  0  0  0  0
   57.1990   27.0710   45.0090 N   0  0  0  0  0  0  0  0  0  0  0  0
   56.4010   26.4590   46.0270 C   0  0  0  0  0  0  0  0  0  0  0  0
   55.1550   26.6510   46.0640 O   0  0  0  0  0  0  0  0  0  0  0  0
   57.0450   25.5590   47.0300 C   0  0  0  0  0  0  0  0  0  0  0  0
   56.8340   24.1300   46.6330 C   0  0  0  0  0  0  0  0  0  0  0  0
   56.3920   23.8020   45.3450 C   0  0  0  0  0  0  0  0  0  0  0  0
   56.2650   22.4540   45.0070 C   0  0  0  0  0  0  0  0  0  0  0  0
   55.8670   22.1240   43.8590 O   0  0  0  0  0  0  0  0  0  0  0  0
   56.5760   21.4950   45.9170 N   0  0  0  0  0  0  0  0  0  0  0  0
   57.0140   21.8280   47.1590 C   0  0  0  0  0  0  0  0  0  0  0  0
   57.3010   20.9260   47.9870 O   0  0  0  0  0  0  0  0  0  0  0  0
   57.1450   23.1350   47.5060 N   0  0  0  0  0  0  0  0  0  0  0  0
   60.2002   27.8214   46.3052 H   0  0  0  0  0  0  0  0  0  0  0  0
   59.7630   27.0183   44.7591 H   0  0  0  0  0  0  0  0  0  0  0  0
   60.9028   28.4067   44.7591 H   0  0  0  0  0  0  0  0  0  0  0  0
   60.1434   30.6747   45.0312 H   0  0  0  0  0  0  0  0  0  0  0  0
   55.9053   31.4870   44.8098 H   0  0  0  0  0  0  0  0  0  0  0  0
   58.1234   25.7714   47.0730 H   0  0  0  0  0  0  0  0  0  0  0  0
   56.5952   25.7333   48.0186 H   0  0  0  0  0  0  0  0  0  0  0  0
   56.1503   24.5895   44.6160 H   0  0  0  0  0  0  0  0  0  0  0  0
  1  2  1  0
  2  3  2  0
  3  4  1  0
  4  5  1  0
  4  6  2  0
  6  7  1  0
  7  8  1  0
  7  9  2  0
  9 10  1  0
 10 11  1  0
 11 12  2  0
 11 13  1  0
 13 14  1  0
 14 15  2  0
 15 16  1  0
 16 17  2  0
 16 18  1  0
 18 19  1  0
 19 20  2  0
 19 21  1  0
  9  2  1  0
 21 14  1  0
  1 22  1  0
  1 23  1  0
  1 24  1  0
  3 25  1  0
  6 26  1  0
 13 27  1  0
 13 28  1  0
 15 29  1  0
M  CHG  4   8  -1  10  -1  18  -1  21  -1
M  END
>  <UniqueID>  (89) 
80

>  <SMILES>  (89) 
Cc1cc(Cl)cc([O-])c1[N-]C(=O)Cc1cc(=O)[n-]c(=O)[n-]1

>  <Energy>  (89) 
34.67321485905095

>  <Genealogy>  (89) 
Cc1cc(Cl)cc([O-])c1[N-]C(=O)Cc1cc(=O)[n-]c(=O)[n-]1 (protonated)
Cc1cc(Cl)cc([O-])c1[N-]C(=O)Cc1cc(=O)[n-]c(=O)[n-]1 (3D coordinates assigned)
Cc1cc(Cl)cc([O-])c1[N-]C(=O)Cc1cc(=O)[n-]c(=O)[n-]1 (optimized conformer: 34.67321485905095 kcal/mol)

>  <smiles>  (89) 
Cc1cc(Cl)cc(O)c1NC(=O)Cc1cc(=O)[nH]c(=O)[nH]1

>  <score_type>  (89) 
oracle

>  <origin>  (89) 
adg

>  <m_score__min__energy>  (89) 
-15.42

>  <m_primary>  (89) 
energy

$$$$
89:0
     RDKit          3D

 43 45  0  0  0  0  0  0  0  0999 V2000
   58.6400   34.8090   44.8960 C   0  0  0  0  0  0  0  0  0  0  0  0
   59.5180   34.8880   46.1090 C   0  0  0  0  0  0  0  0  0  0  0  0
   59.6600   36.0090   46.6690 O   0  0  0  0  0  0  0  0  0  0  0  0
   60.2200   33.7000   46.6660 C   0  0  0  0  0  0  0  0  0  0  0  0
   61.6250   33.7230   46.7490 C   0  0  0  0  0  0  0  0  0  0  0  0
   62.3260   32.6390   47.2770 C   0  0  0  0  0  0  0  0  0  0  0  0
   61.6400   31.5130   47.7290 C   0  0  0  0  0  0  0  0  0  0  0  0
   60.2420   31.4580   47.6510 C   0  0  0  0  0  0  0  0  0  0  0  0
   59.3810   30.0260   48.2190 S   0  0  0  0  0  0  0  0  0  0  0  0
   58.5180   30.3910   49.3950 O   0  0  0  0  0  0  0  0  0  0  0  0
   60.3720   28.9770   48.6450 O   0  0  0  0  0  0  0  0  0  0  0  0
   58.3790   29.3750   46.9680 N   0  0  0  0  0  0  0  0  0  0  0  0
   58.2350   28.0670   46.6810 C   0  0  0  0  0  0  0  0  0  0  0  0
   57.3960   27.9730   45.5900 C   0  0  0  0  0  0  0  0  0  0  0  0
   57.0170   26.7900   44.8690 N   0  0  0  0  0  0  0  0  0  0  0  0
   56.4590   25.6240   45.4970 C   0  0  0  0  0  0  0  0  0  0  0  0
   55.8990   25.7270   46.6240 O   0  0  0  0  0  0  0  0  0  0  0  0
   56.4910   24.3050   44.8200 C   0  0  0  0  0  0  0  0  0  0  0  0
   57.6510   23.5100   44.8180 C   0  0  0  0  0  0  0  0  0  0  0  0
   57.6510   22.2680   44.1800 C   0  0  0  0  0  0  0  0  0  0  0  0
   56.4870   21.8210   43.5520 C   0  0  0  0  0  0  0  0  0  0  0  0
   56.4690   20.7040   42.9720 O   0  0  0  0  0  0  0  0  0  0  0  0
   55.3680   22.5900   43.5690 N   0  0  0  0  0  0  0  0  0  0  0  0
   55.3410   23.8040   44.1830 C   0  0  0  0  0  0  0  0  0  0  0  0
   57.0760   29.2780   45.2580 C   0  0  0  0  0  0  0  0  0  0  0  0
   56.2460   29.7260   44.1000 C   0  0  0  0  0  0  0  0  0  0  0  0
   57.6940   30.1180   46.1130 N   0  0  0  0  0  0  0  0  0  0  0  0
   59.5300   32.5460   47.1090 C   0  0  0  0  0  0  0  0  0  0  0  0
   58.1460   32.4590   46.9960 O   0  0  0  0  0  0  0  0  0  0  0  0
   57.5897   34.7145   45.2091 H   0  0  0  0  0  0  0  0  0  0  0  0
   58.7626   35.7218   44.2945 H   0  0  0  0  0  0  0  0  0  0  0  0
   58.9236   33.9327   44.2945 H   0  0  0  0  0  0  0  0  0  0  0  0
   62.1763   34.6059   46.3934 H   0  0  0  0  0  0  0  0  0  0  0  0
   63.4238   32.6728   47.3369 H   0  0  0  0  0  0  0  0  0  0  0  0
   62.1987   30.6636   48.1489 H   0  0  0  0  0  0  0  0  0  0  0  0
   58.7009   27.2276   47.2180 H   0  0  0  0  0  0  0  0  0  0  0  0
   57.0990   26.8090   43.8280 H   0  0  0  0  0  0  0  0  0  0  0  0
   58.5616   23.8679   45.3208 H   0  0  0  0  0  0  0  0  0  0  0  0
   58.5594   21.6477   44.1723 H   0  0  0  0  0  0  0  0  0  0  0  0
   54.4146   24.3971   44.1813 H   0  0  0  0  0  0  0  0  0  0  0  0
   55.3346   30.2179   44.4707 H   0  0  0  0  0  0  0  0  0  0  0  0
   56.8226   30.4354   43.4882 H   0  0  0  0  0  0  0  0  0  0  0  0
   55.9694   28.8547   43.4882 H   0  0  0  0  0  0  0  0  0  0  0  0
  1  2  1  0
  2  3  2  0
  2  4  1  0
  4  5  2  0
  5  6  1  0
  6  7  2  0
  7  8  1  0
  8  9  1  0
  9 10  2  0
  9 11  2  0
  9 12  1  0
 12 13  1  0
 13 14  2  0
 14 15  1  0
 15 16  1  0
 16 17  2  0
 16 18  1  0
 18 19  1  0
 19 20  2  0
 20 21  1  0
 21 22  2  0
 21 23  1  0
 23 24  1  0
 14 25  1  0
 25 26  1  0
 25 27  2  0
  8 28  2  0
 28 29  1  0
 28  4  1  0
 27 12  1  0
 24 18  2  0
  1 30  1  0
  1 31  1  0
  1 32  1  0
  5 33  1  0
  6 34  1  0
  7 35  1  0
 13 36  1  0
 15 37  1  0
 19 38  1  0
 20 39  1  0
 24 40  1  0
 26 41  1  0
 26 42  1  0
 26 43  1  0
M  CHG  2  23  -1  29  -1
M  END
>  <UniqueID>  (90) 
81

>  <SMILES>  (90) 
CC(=O)c1cccc(S(=O)(=O)n2cc(NC(=O)c3ccc(=O)[n-]c3)c(C)n2)c1[O-]

>  <Energy>  (90) 
86.28138774309774

>  <Genealogy>  (90) 
CC(=O)c1cccc(S(=O)(=O)n2cc(NC(=O)c3ccc(=O)[n-]c3)c(C)n2)c1[O-] (protonated)
CC(=O)c1cccc(S(=O)(=O)n2cc(NC(=O)c3ccc(=O)[n-]c3)c(C)n2)c1[O-] (3D coordinates assigned)
CC(=O)c1cccc(S(=O)(=O)n2cc(NC(=O)c3ccc(=O)[n-]c3)c(C)n2)c1[O-] (optimized conformer: 86.28138774309774 kcal/mol)

>  <smiles>  (90) 
CC(=O)c1cccc(S(=O)(=O)n2cc(NC(=O)c3ccc(=O)[nH]c3)c(C)n2)c1O

>  <score_type>  (90) 
oracle

>  <origin>  (90) 
adg

>  <m_score__min__energy>  (90) 
-14.44

>  <m_primary>  (90) 
energy

$$$$
90:0
     RDKit          3D

 43 45  0  0  0  0  0  0  0  0999 V2000
   63.6590   33.0500   47.1250 C   0  0  0  0  0  0  0  0  0  0  0  0
   64.0490   32.7900   48.5750 C   0  0  0  0  0  0  0  0  0  0  0  0
   62.7070   33.1850   49.6820 S   0  0  0  0  0  0  0  0  0  0  0  0
   62.1310   31.9090   50.2310 O   0  0  0  0  0  0  0  0  0  0  0  0
   63.2150   34.0460   50.8050 O   0  0  0  0  0  0  0  0  0  0  0  0
   61.4890   34.0420   48.7930 N   0  0  0  0  0  0  0  0  0  0  0  0
   60.2310   33.5000   48.3600 C   0  0  0  0  0  0  0  0  0  0  0  0
   59.3530   32.8900   49.2750 C   0  0  0  0  0  0  0  0  0  0  0  0
   58.1360   32.3630   48.8480 C   0  0  0  0  0  0  0  0  0  0  0  0
   57.7690   32.4510   47.5080 C   0  0  0  0  0  0  0  0  0  0  0  0
   58.6150   33.0680   46.5790 C   0  0  0  0  0  0  0  0  0  0  0  0
   58.0560   33.1860   44.8720 S   0  0  0  0  0  0  0  0  0  0  0  0
   57.5130   31.4810   44.8410 C   0  0  0  0  0  0  0  0  0  0  0  0
   58.3750   30.4410   44.8120 N   0  0  0  0  0  0  0  0  0  0  0  0
   57.5750   29.3600   44.8180 C   0  0  0  0  0  0  0  0  0  0  0  0
   58.0590   27.9680   44.8140 C   0  0  0  0  0  0  0  0  0  0  0  0
   58.0910   27.3240   43.7290 O   0  0  0  0  0  0  0  0  0  0  0  0
   58.4330   27.2840   46.1020 C   0  0  0  0  0  0  0  0  0  0  0  0
   57.4360   26.2260   46.4660 C   0  0  0  0  0  0  0  0  0  0  0  0
   56.1080   26.2050   46.1110 C   0  0  0  0  0  0  0  0  0  0  0  0
   55.5490   25.0800   46.5890 N   0  0  0  0  0  0  0  0  0  0  0  0
   56.5650   24.4480   47.2170 C   0  0  0  0  0  0  0  0  0  0  0  0
   57.7370   25.1140   47.1600 N   0  0  0  0  0  0  0  0  0  0  0  0
   56.2660   29.7830   44.8470 C   0  0  0  0  0  0  0  0  0  0  0  0
   55.1420   28.9670   44.8580 O   0  0  0  0  0  0  0  0  0  0  0  0
   56.2110   31.1240   44.8600 N   0  0  0  0  0  0  0  0  0  0  0  0
   59.8690   33.5780   46.9920 C   0  0  0  0  0  0  0  0  0  0  0  0
   60.7830   34.2320   45.9840 C   0  0  0  0  0  0  0  0  0  0  0  0
   62.7441   33.6599   47.0951 H   0  0  0  0  0  0  0  0  0  0  0  0
   64.4739   33.5862   46.6166 H   0  0  0  0  0  0  0  0  0  0  0  0
   63.4775   32.0916   46.6166 H   0  0  0  0  0  0  0  0  0  0  0  0
   64.3102   31.7279   48.6918 H   0  0  0  0  0  0  0  0  0  0  0  0
   64.9083   33.4294   48.8256 H   0  0  0  0  0  0  0  0  0  0  0  0
   59.6302   32.8286   50.3377 H   0  0  0  0  0  0  0  0  0  0  0  0
   57.4642   31.8767   49.5707 H   0  0  0  0  0  0  0  0  0  0  0  0
   56.8071   32.0326   47.1768 H   0  0  0  0  0  0  0  0  0  0  0  0
   59.4231   26.8188   45.9863 H   0  0  0  0  0  0  0  0  0  0  0  0
   58.4482   28.0373   46.9035 H   0  0  0  0  0  0  0  0  0  0  0  0
   55.5881   26.9816   45.5308 H   0  0  0  0  0  0  0  0  0  0  0  0
   56.4475   23.4806   47.7272 H   0  0  0  0  0  0  0  0  0  0  0  0
   61.5681   34.7938   46.5112 H   0  0  0  0  0  0  0  0  0  0  0  0
   61.2461   33.4589   45.3532 H   0  0  0  0  0  0  0  0  0  0  0  0
   60.2008   34.9198   45.3532 H   0  0  0  0  0  0  0  0  0  0  0  0
  1  2  1  0
  2  3  1  0
  3  4  2  0
  3  5  2  0
  3  6  1  0
  6  7  1  0
  7  8  2  0
  8  9  1  0
  9 10  2  0
 10 11  1  0
 11 12  1  0
 12 13  1  0
 13 14  2  0
 14 15  1  0
 15 16  1  0
 16 17  2  0
 16 18  1  0
 18 19  1  0
 19 20  2  0
 20 21  1  0
 21 22  1  0
 22 23  2  0
 15 24  2  0
 24 25  1  0
 24 26  1  0
 11 27  2  0
 27 28  1  0
 27  7  1  0
 26 13  1  0
 23 19  1  0
  1 29  1  0
  1 30  1  0
  1 31  1  0
  2 32  1  0
  2 33  1  0
  8 34  1  0
  9 35  1  0
 10 36  1  0
 18 37  1  0
 18 38  1  0
 20 39  1  0
 22 40  1  0
 28 41  1  0
 28 42  1  0
 28 43  1  0
M  CHG  4   6  -1  21  -1  25  -1  26  -1
M  END
>  <UniqueID>  (91) 
82

>  <SMILES>  (91) 
CCS(=O)(=O)[N-]c1cccc(Sc2nc(C(=O)Cc3c[n-]cn3)c([O-])[n-]2)c1C

>  <Energy>  (91) 
94.50380298841571

>  <Genealogy>  (91) 
CCS(=O)(=O)[N-]c1cccc(Sc2nc(C(=O)Cc3c[n-]cn3)c([O-])[n-]2)c1C (protonated)
CCS(=O)(=O)[N-]c1cccc(Sc2nc(C(=O)Cc3c[n-]cn3)c([O-])[n-]2)c1C (3D coordinates assigned)
CCS(=O)(=O)[N-]c1cccc(Sc2nc(C(=O)Cc3c[n-]cn3)c([O-])[n-]2)c1C (optimized conformer: 94.50380298841571 kcal/mol)

>  <smiles>  (91) 
CCS(=O)(=O)Nc1cccc(Sc2nc(C(=O)Cc3c[nH]cn3)c(O)[nH]2)c1C

>  <score_type>  (91) 
oracle

>  <origin>  (91) 
adg

>  <m_score__min__energy>  (91) 
-15.85

>  <m_primary>  (91) 
energy

$$$$
91:0
     RDKit          3D

 65 69  0  0  0  0  0  0  0  0999 V2000
   53.3440   30.3620   51.4010 C   0  0  0  0  0  0  0  0  0  0  0  0
   54.6270   30.1650   52.0610 N   0  0  0  0  0  0  0  0  0  0  0  0
   55.5480   31.1190   52.2870 C   0  0  0  0  0  0  0  0  0  0  0  0
   56.6460   30.5150   52.8630 C   0  0  0  0  0  0  0  0  0  0  0  0
   57.9360   31.1680   53.2700 C   0  0  0  0  0  0  0  0  0  0  0  0
   59.0370   30.8410   52.3350 N   0  0  2  0  0  0  0  0  0  0  0  0
   60.3180   31.4010   52.8050 C   0  0  0  0  0  0  0  0  0  0  0  0
   61.0660   31.9490   51.5870 C   0  0  0  0  0  0  0  0  0  0  0  0
   59.9790   32.2770   50.5470 C   0  0  1  0  0  0  0  0  0  0  0  0
   59.5810   33.7820   50.5620 C   0  0  0  0  0  0  0  0  0  0  0  0
   60.2320   34.5790   49.4180 C   0  0  0  0  0  0  0  0  0  0  0  0
   61.6220   34.0310   49.0650 C   0  0  0  0  0  0  0  0  0  0  0  0
   61.6080   32.5980   48.6610 N   0  0  0  0  0  0  0  0  0  0  0  0
   61.8040   32.4420   47.2030 C   0  0  0  0  0  0  0  0  0  0  0  0
   60.5220   32.7080   46.4540 C   0  0  0  0  0  0  0  0  0  0  0  0
   60.2190   34.0060   46.0310 C   0  0  0  0  0  0  0  0  0  0  0  0
   59.0520   34.2530   45.3140 C   0  0  0  0  0  0  0  0  0  0  0  0
   58.1830   33.2060   44.9970 C   0  0  0  0  0  0  0  0  0  0  0  0
   58.4700   31.8760   45.3860 C   0  0  0  0  0  0  0  0  0  0  0  0
   57.5730   30.7740   45.0390 N   0  0  0  0  0  0  0  0  0  0  0  0
   56.5020   30.9970   44.0450 C   0  0  0  0  0  0  0  0  0  0  0  0
   55.6740   29.7440   43.7350 C   0  0  0  0  0  0  0  0  0  0  0  0
   55.4930   28.9530   44.8860 O   0  0  0  0  0  0  0  0  0  0  0  0
   56.7390   28.4120   45.2520 C   0  0  0  0  0  0  0  0  0  0  0  0
   57.6640   29.5040   45.7910 C   0  0  0  0  0  0  0  0  0  0  0  0
   59.6550   31.6520   46.1280 C   0  0  0  0  0  0  0  0  0  0  0  0
   60.4110   31.8480   49.1260 C   0  0  0  0  0  0  0  0  0  0  0  0
   58.8470   31.4380   51.0430 C   0  0  0  0  0  0  0  0  0  0  0  0
   57.8470   31.2240   50.3690 O   0  0  0  0  0  0  0  0  0  0  0  0
   56.3240   29.1730   52.9470 C   0  0  0  0  0  0  0  0  0  0  0  0
   55.0880   28.9840   52.4420 N   0  0  0  0  0  0  0  0  0  0  0  0
   52.5563   30.4829   52.1593 H   0  0  0  0  0  0  0  0  0  0  0  0
   53.3896   31.2637   50.7726 H   0  0  0  0  0  0  0  0  0  0  0  0
   53.1169   29.4882   50.7726 H   0  0  0  0  0  0  0  0  0  0  0  0
   55.4441   32.1890   52.0542 H   0  0  0  0  0  0  0  0  0  0  0  0
   57.7937   32.2587   53.2850 H   0  0  0  0  0  0  0  0  0  0  0  0
   58.2104   30.7913   54.2664 H   0  0  0  0  0  0  0  0  0  0  0  0
   59.1330   29.8030   52.2210 H   0  0  0  0  0  0  0  0  0  0  0  0
   60.1302   32.2117   53.5243 H   0  0  0  0  0  0  0  0  0  0  0  0
   60.9157   30.6245   53.3048 H   0  0  0  0  0  0  0  0  0  0  0  0
   61.6259   32.8566   51.8566 H   0  0  0  0  0  0  0  0  0  0  0  0
   61.7964   31.2244   51.1978 H   0  0  0  0  0  0  0  0  0  0  0  0
   58.4878   33.8580   50.4664 H   0  0  0  0  0  0  0  0  0  0  0  0
   59.9368   34.2107   51.5105 H   0  0  0  0  0  0  0  0  0  0  0  0
   59.5878   34.5172   48.5285 H   0  0  0  0  0  0  0  0  0  0  0  0
   60.3477   35.6218   49.7485 H   0  0  0  0  0  0  0  0  0  0  0  0
   62.0294   34.6238   48.2328 H   0  0  0  0  0  0  0  0  0  0  0  0
   62.2405   34.1066   49.9715 H   0  0  0  0  0  0  0  0  0  0  0  0
   62.5722   33.1531   46.8651 H   0  0  0  0  0  0  0  0  0  0  0  0
   62.1203   31.4081   47.0004 H   0  0  0  0  0  0  0  0  0  0  0  0
   60.9046   34.8337   46.2655 H   0  0  0  0  0  0  0  0  0  0  0  0
   58.8125   35.2782   44.9952 H   0  0  0  0  0  0  0  0  0  0  0  0
   57.2610   33.4189   44.4361 H   0  0  0  0  0  0  0  0  0  0  0  0
   55.8252   31.7727   44.4327 H   0  0  0  0  0  0  0  0  0  0  0  0
   56.9928   31.2965   43.1072 H   0  0  0  0  0  0  0  0  0  0  0  0
   54.6893   30.0507   43.3524 H   0  0  0  0  0  0  0  0  0  0  0  0
   56.2141   29.1475   42.9850 H   0  0  0  0  0  0  0  0  0  0  0  0
   56.5873   27.6501   46.0308 H   0  0  0  0  0  0  0  0  0  0  0  0
   57.2041   27.9610   44.3630 H   0  0  0  0  0  0  0  0  0  0  0  0
   57.3978   29.7001   46.8401 H   0  0  0  0  0  0  0  0  0  0  0  0
   58.6957   29.1372   45.6856 H   0  0  0  0  0  0  0  0  0  0  0  0
   59.9014   30.6312   46.4555 H   0  0  0  0  0  0  0  0  0  0  0  0
   59.5805   32.0363   48.4297 H   0  0  0  0  0  0  0  0  0  0  0  0
   60.6684   30.7790   49.1558 H   0  0  0  0  0  0  0  0  0  0  0  0
   56.9721   28.3858   53.3596 H   0  0  0  0  0  0  0  0  0  0  0  0
  1  2  1  0
  2  3  1  0
  3  4  2  0
  4  5  1  0
  5  6  1  0
  6  7  1  0
  7  8  1  0
  9  8  1  1
  9 10  1  0
 10 11  1  0
 11 12  1  0
 12 13  1  0
 13 14  1  0
 14 15  1  0
 15 16  2  0
 16 17  1  0
 17 18  2  0
 18 19  1  0
 19 20  1  0
 20 21  1  0
 21 22  1  0
 22 23  1  0
 23 24  1  0
 24 25  1  0
 19 26  2  0
 13 27  1  0
  9 28  1  0
 28 29  2  0
  4 30  1  0
 30 31  2  0
 31  2  1  0
 28  6  1  0
 27  9  1  0
 26 15  1  0
 25 20  1  0
  1 32  1  0
  1 33  1  0
  1 34  1  0
  3 35  1  0
  5 36  1  0
  5 37  1  0
  6 38  1  6
  7 39  1  0
  7 40  1  0
  8 41  1  0
  8 42  1  0
 10 43  1  0
 10 44  1  0
 11 45  1  0
 11 46  1  0
 12 47  1  0
 12 48  1  0
 14 49  1  0
 14 50  1  0
 16 51  1  0
 17 52  1  0
 18 53  1  0
 21 54  1  0
 21 55  1  0
 22 56  1  0
 22 57  1  0
 24 58  1  0
 24 59  1  0
 25 60  1  0
 25 61  1  0
 26 62  1  0
 27 63  1  0
 27 64  1  0
 30 65  1  0
M  CHG  1   6   1
M  END
>  <UniqueID>  (92) 
83

>  <SMILES>  (92) 
Cn1cc(C[N@@H+]2CC[C@]3(CCCN(Cc4cccc(N5CCOCC5)c4)C3)C2=O)cn1

>  <Energy>  (92) 
118.64536267685169

>  <Genealogy>  (92) 
Cn1cc(C[NH+]2CCC3(CCCN(Cc4cccc(N5CCOCC5)c4)C3)C2=O)cn1 (protonated)
Cn1cc(C[N@@H+]2CC[C@]3(CCCN(Cc4cccc(N5CCOCC5)c4)C3)C2=O)cn1 (chirality)
Cn1cc(C[N@@H+]2CC[C@]3(CCCN(Cc4cccc(N5CCOCC5)c4)C3)C2=O)cn1 (3D coordinates assigned)
Cn1cc(C[N@@H+]2CC[C@]3(CCCN(Cc4cccc(N5CCOCC5)c4)C3)C2=O)cn1 (nonaromatic ring conformer: 118.64536267685169 kcal/mol)

>  <smiles>  (92) 
Cn1cc(CN2CCC3(CCCN(Cc4cccc(N5CCOCC5)c4)C3)C2=O)cn1

>  <score_type>  (92) 
oracle

>  <origin>  (92) 
adg

>  <m_score__min__energy>  (92) 
-8.0999999999999996

>  <m_primary>  (92) 
energy

$$$$
92:0
     RDKit          3D

 47 49  0  0  0  0  0  0  0  0999 V2000
   58.3954   20.8136   46.5700 H   0  0  0  0  0  0  0  0  0  0  0  0
   57.8770   21.5980   45.9990 C   0  0  0  0  0  0  0  0  0  0  0  0
   57.3750   22.6870   46.6400 N   0  0  0  0  0  0  0  0  0  0  0  0
   56.7320   23.6870   45.9690 C   0  0  0  0  0  0  0  0  0  0  0  0
   56.2340   24.7130   46.5970 N   0  0  0  0  0  0  0  0  0  0  0  0
   56.2170   26.0760   46.1450 C   0  0  0  0  0  0  0  0  0  0  0  0
   55.1340   26.7060   46.0080 O   0  0  0  0  0  0  0  0  0  0  0  0
   57.5070   26.7510   45.8040 C   0  0  0  0  0  0  0  0  0  0  0  0
   58.2289   26.5885   46.6179 H   0  0  0  0  0  0  0  0  0  0  0  0
   57.8980   26.3279   44.8669 H   0  0  0  0  0  0  0  0  0  0  0  0
   57.2920   28.1850   45.6280 N   0  0  0  0  0  0  0  0  0  0  0  0
   56.3870   28.5940   45.9580 H   0  0  0  0  0  0  0  0  0  0  0  0
   58.2620   29.0400   45.0040 C   0  0  0  0  0  0  0  0  0  0  0  0
   59.3830   28.5770   44.6550 O   0  0  0  0  0  0  0  0  0  0  0  0
   57.9650   30.4610   44.7750 C   0  0  0  0  0  0  0  0  0  0  0  0
   57.9330   31.3710   45.7220 O   0  0  0  0  0  0  0  0  0  0  0  0
   57.6500   32.5290   45.1710 C   0  0  0  0  0  0  0  0  0  0  0  0
   57.5360   33.8150   45.9300 C   0  0  0  0  0  0  0  0  0  0  0  0
   56.8651   34.4941   45.3834 H   0  0  0  0  0  0  0  0  0  0  0  0
   57.1371   33.5904   46.9302 H   0  0  0  0  0  0  0  0  0  0  0  0
   59.1310   34.6070   46.1270 S   0  0  0  0  0  0  0  0  0  0  0  0
   59.3130   35.5900   45.0050 O   0  0  0  0  0  0  0  0  0  0  0  0
   59.1870   35.3540   47.4330 O   0  0  0  0  0  0  0  0  0  0  0  0
   60.4700   33.4220   46.0580 C   0  0  0  0  0  0  0  0  0  0  0  0
   60.0467   32.4071   46.0278 H   0  0  0  0  0  0  0  0  0  0  0  0
   61.0643   33.6282   45.1556 H   0  0  0  0  0  0  0  0  0  0  0  0
   61.3780   33.5370   47.2550 C   0  0  0  0  0  0  0  0  0  0  0  0
   60.8470   33.4160   48.5530 C   0  0  0  0  0  0  0  0  0  0  0  0
   59.7673   33.2562   48.6900 H   0  0  0  0  0  0  0  0  0  0  0  0
   61.6860   33.4980   49.6700 C   0  0  0  0  0  0  0  0  0  0  0  0
   61.2656   33.3994   50.6817 H   0  0  0  0  0  0  0  0  0  0  0  0
   63.0570   33.7050   49.5010 C   0  0  0  0  0  0  0  0  0  0  0  0
   63.7167   33.7548   50.3798 H   0  0  0  0  0  0  0  0  0  0  0  0
   63.5930   33.8490   48.2180 C   0  0  0  0  0  0  0  0  0  0  0  0
   64.6703   34.0309   48.0900 H   0  0  0  0  0  0  0  0  0  0  0  0
   62.7600   33.7620   47.0950 C   0  0  0  0  0  0  0  0  0  0  0  0
   63.3040   33.8780   45.8570 F   0  0  0  0  0  0  0  0  0  0  0  0
   57.4920   32.3790   43.8060 C   0  0  0  0  0  0  0  0  0  0  0  0
   57.2566   33.1665   43.0750 H   0  0  0  0  0  0  0  0  0  0  0  0
   57.6900   31.0410   43.5500 C   0  0  0  0  0  0  0  0  0  0  0  0
   57.6399   30.5374   42.5733 H   0  0  0  0  0  0  0  0  0  0  0  0
   56.5820   23.6000   44.5790 C   0  0  0  0  0  0  0  0  0  0  0  0
   56.0740   24.4028   44.0246 H   0  0  0  0  0  0  0  0  0  0  0  0
   57.0830   22.4850   43.9030 C   0  0  0  0  0  0  0  0  0  0  0  0
   56.9649   22.4022   42.8125 H   0  0  0  0  0  0  0  0  0  0  0  0
   57.7340   21.4760   44.6150 C   0  0  0  0  0  0  0  0  0  0  0  0
   58.1304   20.5936   44.0913 H   0  0  0  0  0  0  0  0  0  0  0  0
  1  2  1  0
  2  3  1  0
  3  4  1  0
  4  5  2  0
  5  6  1  0
  6  7  2  0
  6  8  1  0
  8  9  1  0
  8 10  1  0
  8 11  1  0
 11 12  1  0
 11 13  1  0
 13 14  2  0
 13 15  1  0
 15 16  1  0
 16 17  1  0
 17 18  1  0
 18 19  1  0
 18 20  1  0
 18 21  1  0
 21 22  2  0
 21 23  2  0
 21 24  1  0
 24 25  1  0
 24 26  1  0
 24 27  1  0
 27 28  2  0
 28 29  1  0
 28 30  1  0
 30 31  1  0
 30 32  2  0
 32 33  1  0
 32 34  1  0
 34 35  1  0
 34 36  2  0
 36 37  1  0
 17 38  2  0
 38 39  1  0
 38 40  1  0
 40 41  1  0
  4 42  1  0
 42 43  1  0
 42 44  2  0
 44 45  1  0
 44 46  1  0
 46 47  1  0
 46  2  2  0
 40 15  2  0
 36 27  1  0
M  CHG  1   3  -1
M  END
>  <UniqueID>  (93) 
84

>  <SMILES>  (93) 
O=C(CNC(=O)c1ccc(CS(=O)(=O)Cc2ccccc2F)o1)/N=c1/cccc[n-]1

>  <Energy>  (93) 
61.39366431956672

>  <Genealogy>  (93) 
O=C(CNC(=O)c1ccc(CS(=O)(=O)Cc2ccccc2F)o1)N=c1cccc[n-]1 (protonated)
O=C(CNC(=O)c1ccc(CS(=O)(=O)Cc2ccccc2F)o1)/N=c1/cccc[n-]1 (cis-trans isomerization)
O=C(CNC(=O)c1ccc(CS(=O)(=O)Cc2ccccc2F)o1)/N=c1/cccc[n-]1 (3D coordinates assigned)
O=C(CNC(=O)c1ccc(CS(=O)(=O)Cc2ccccc2F)o1)/N=c1/cccc[n-]1 (optimized conformer: 61.39366431956672 kcal/mol)

>  <smiles>  (93) 
O=C(CNC(=O)c1ccc(CS(=O)(=O)Cc2ccccc2F)o1)N=c1cccc[nH]1

>  <score_type>  (93) 
oracle

>  <origin>  (93) 
adg

>  <m_score__min__energy>  (93) 
-10.949999999999999

>  <m_primary>  (93) 
energy

$$$$
93:0
     RDKit          3D

 34 36  0  0  0  0  0  0  0  0999 V2000
   54.7800   28.9410   45.3820 H   0  0  0  0  0  0  0  0  0  0  0  0
   55.7040   28.5560   45.2370 O   0  0  0  0  0  0  0  0  0  0  0  0
   56.0360   27.2710   45.6610 C   0  0  0  0  0  0  0  0  0  0  0  0
   55.1210   26.3500   46.0010 N   0  0  0  0  0  0  0  0  0  0  0  0
   55.8780   25.3080   46.4060 C   0  0  0  0  0  0  0  0  0  0  0  0
   55.3820   24.2280   46.8180 O   0  0  0  0  0  0  0  0  0  0  0  0
   57.2100   25.5190   46.3410 N   0  0  0  0  0  0  0  0  0  0  0  0
   57.3070   26.7640   45.8440 C   0  0  0  0  0  0  0  0  0  0  0  0
   58.5930   27.4500   45.6300 C   0  0  0  0  0  0  0  0  0  0  0  0
   59.3198   26.9907   44.9438 H   0  0  0  0  0  0  0  0  0  0  0  0
   58.9270   28.6090   46.2290 C   0  0  0  0  0  0  0  0  0  0  0  0
   59.2860   28.7720   47.5610 C   0  0  0  0  0  0  0  0  0  0  0  0
   59.3784   27.9796   48.3183 H   0  0  0  0  0  0  0  0  0  0  0  0
   59.5040   30.1210   47.7490 C   0  0  0  0  0  0  0  0  0  0  0  0
   59.9130   30.7420   49.0500 C   0  0  0  0  0  0  0  0  0  0  0  0
   59.5178   30.1420   49.8830 H   0  0  0  0  0  0  0  0  0  0  0  0
   61.0108   30.7759   49.1110 H   0  0  0  0  0  0  0  0  0  0  0  0
   59.5106   31.7639   49.1110 H   0  0  0  0  0  0  0  0  0  0  0  0
   59.3040   30.7980   46.5960 N   0  0  0  0  0  0  0  0  0  0  0  0
   59.4300   32.2210   46.4250 C   0  0  0  0  0  0  0  0  0  0  0  0
   60.6510   32.8590   46.6930 C   0  0  0  0  0  0  0  0  0  0  0  0
   61.5171   32.2679   47.0252 H   0  0  0  0  0  0  0  0  0  0  0  0
   60.7700   34.2440   46.5390 C   0  0  0  0  0  0  0  0  0  0  0  0
   61.7289   34.7403   46.7491 H   0  0  0  0  0  0  0  0  0  0  0  0
   59.6700   34.9980   46.1180 C   0  0  0  0  0  0  0  0  0  0  0  0
   59.7900   36.3740   45.9650 O   0  0  0  0  0  0  0  0  0  0  0  0
   58.4510   34.3680   45.8530 C   0  0  0  0  0  0  0  0  0  0  0  0
   57.5860   34.9623   45.5234 H   0  0  0  0  0  0  0  0  0  0  0  0
   58.3290   32.9840   46.0060 C   0  0  0  0  0  0  0  0  0  0  0  0
   57.3677   32.4916   45.7975 H   0  0  0  0  0  0  0  0  0  0  0  0
   58.9450   29.8860   45.6580 C   0  0  0  0  0  0  0  0  0  0  0  0
   58.6950   30.1860   44.3740 C   0  0  0  0  0  0  0  0  0  0  0  0
   58.7382   31.2316   44.0350 H   0  0  0  0  0  0  0  0  0  0  0  0
   58.4469   29.3863   43.6606 H   0  0  0  0  0  0  0  0  0  0  0  0
  1  2  1  0
  2  3  1  0
  3  4  1  0
  4  5  1  0
  5  6  2  0
  5  7  1  0
  7  8  1  0
  8  9  1  0
  9 10  1  0
  9 11  2  0
 11 12  1  0
 12 13  1  0
 12 14  2  0
 14 15  1  0
 15 16  1  0
 15 17  1  0
 15 18  1  0
 14 19  1  0
 19 20  1  0
 20 21  2  0
 21 22  1  0
 21 23  1  0
 23 24  1  0
 23 25  2  0
 25 26  1  0
 25 27  1  0
 27 28  1  0
 27 29  2  0
 29 30  1  0
 19 31  1  0
 31 32  2  0
 32 33  1  0
 32 34  1  0
  8  3  2  0
 31 11  1  0
 29 20  1  0
M  CHG  3   4  -1   7  -1  26  -1
M  END
>  <UniqueID>  (94) 
85

>  <SMILES>  (94) 
C=c1/c(=C/c2[n-]c(=O)[n-]c2O)cc(C)n1-c1ccc([O-])cc1

>  <Energy>  (94) 
107.23153040019083

>  <Genealogy>  (94) 
C=c1c(=Cc2[n-]c(=O)[n-]c2O)cc(C)n1-c1ccc([O-])cc1 (protonated)
C=c1/c(=C/c2[n-]c(=O)[n-]c2O)cc(C)n1-c1ccc([O-])cc1 (cis-trans isomerization)
C=c1/c(=C/c2[n-]c(=O)[n-]c2O)cc(C)n1-c1ccc([O-])cc1 (3D coordinates assigned)
C=c1/c(=C/c2[n-]c(=O)[n-]c2O)cc(C)n1-c1ccc([O-])cc1 (optimized conformer: 107.23153040019083 kcal/mol)

>  <smiles>  (94) 
C=c1c(=Cc2[nH]c(=O)[nH]c2O)cc(C)n1-c1ccc(O)cc1

>  <score_type>  (94) 
oracle

>  <origin>  (94) 
adg

>  <m_score__min__energy>  (94) 
-12.550000000000001

>  <m_primary>  (94) 
energy

$$$$
94:0
     RDKit          3D

 62 65  0  0  0  0  0  0  0  0999 V2000
   49.9790   33.6050   52.3700 H   0  0  0  0  0  0  0  0  0  0  0  0
   50.2340   32.6070   52.1990 N   0  0  0  0  0  0  0  0  0  0  0  0
   51.3880   32.2620   51.4360 C   0  0  0  0  0  0  0  0  0  0  0  0
   51.5020   32.7100   50.2620 O   0  0  0  0  0  0  0  0  0  0  0  0
   52.4110   31.4070   51.9880 N   0  0  0  0  0  0  0  0  0  0  0  0
   53.4520   30.8840   51.0870 C   0  0  0  0  0  0  0  0  0  0  0  0
   53.9439   31.7292   50.5833 H   0  0  0  0  0  0  0  0  0  0  0  0
   52.9689   30.2157   50.3591 H   0  0  0  0  0  0  0  0  0  0  0  0
   54.5090   30.0760   51.8450 C   0  0  0  0  0  0  0  0  0  0  0  0
   55.4047   29.9615   51.2168 H   0  0  0  0  0  0  0  0  0  0  0  0
   54.1074   29.0819   52.0908 H   0  0  0  0  0  0  0  0  0  0  0  0
   54.8820   30.8190   53.1440 C   0  0  0  0  0  0  0  0  0  0  0  0
   55.1587   31.8538   52.8938 H   0  0  0  0  0  0  0  0  0  0  0  0
   56.0670   30.2080   53.8060 N   0  0  0  0  0  0  0  0  0  0  0  0
   55.7760   29.6490   54.6400 H   0  0  0  0  0  0  0  0  0  0  0  0
   56.7010   30.9610   54.1620 H   0  0  0  0  0  0  0  0  0  0  0  0
   56.8930   29.3830   52.8980 C   0  0  0  0  0  0  0  0  0  0  0  0
   56.2248   28.8147   52.2342 H   0  0  0  0  0  0  0  0  0  0  0  0
   57.5093   28.7195   53.5224 H   0  0  0  0  0  0  0  0  0  0  0  0
   57.8350   30.2110   52.0440 C   0  0  0  0  0  0  0  0  0  0  0  0
   57.4310   31.5010   51.6550 C   0  0  0  0  0  0  0  0  0  0  0  0
   56.4673   31.8975   52.0073 H   0  0  0  0  0  0  0  0  0  0  0  0
   58.2360   32.2830   50.8290 C   0  0  0  0  0  0  0  0  0  0  0  0
   57.8955   33.2814   50.5173 H   0  0  0  0  0  0  0  0  0  0  0  0
   59.4760   31.8020   50.3950 C   0  0  0  0  0  0  0  0  0  0  0  0
   60.3330   32.6330   49.5260 C   0  0  0  0  0  0  0  0  0  0  0  0
   61.4540   33.2580   50.0930 C   0  0  0  0  0  0  0  0  0  0  0  0
   61.6618   33.1367   51.1664 H   0  0  0  0  0  0  0  0  0  0  0  0
   62.3070   34.0320   49.3060 C   0  0  0  0  0  0  0  0  0  0  0  0
   63.1851   34.5156   49.7589 H   0  0  0  0  0  0  0  0  0  0  0  0
   62.0470   34.1930   47.9450 C   0  0  0  0  0  0  0  0  0  0  0  0
   62.7245   34.7980   47.3245 H   0  0  0  0  0  0  0  0  0  0  0  0
   60.9290   33.5880   47.3690 C   0  0  0  0  0  0  0  0  0  0  0  0
   60.7303   33.7198   46.2951 H   0  0  0  0  0  0  0  0  0  0  0  0
   60.0550   32.8120   48.1490 C   0  0  0  0  0  0  0  0  0  0  0  0
   58.6230   32.1020   47.3840 S   0  0  0  0  0  0  0  0  0  0  0  0
   58.4850   30.6710   47.8210 O   0  0  0  0  0  0  0  0  0  0  0  0
   57.3950   32.8630   47.7990 O   0  0  0  0  0  0  0  0  0  0  0  0
   58.8070   32.1910   45.6590 N   0  0  0  0  0  0  0  0  0  0  0  0
   58.0570   31.6120   44.7680 C   0  0  0  0  0  0  0  0  0  0  0  0
   57.1620   30.6750   45.1840 N   0  0  0  0  0  0  0  0  0  0  0  0
   56.3380   30.0230   44.3220 C   0  0  0  0  0  0  0  0  0  0  0  0
   55.6288   29.2724   44.7010 H   0  0  0  0  0  0  0  0  0  0  0  0
   56.3910   30.3050   42.9570 C   0  0  0  0  0  0  0  0  0  0  0  0
   55.7263   29.7813   42.2542 H   0  0  0  0  0  0  0  0  0  0  0  0
   57.2970   31.2590   42.4940 C   0  0  0  0  0  0  0  0  0  0  0  0
   57.3498   31.4915   41.4201 H   0  0  0  0  0  0  0  0  0  0  0  0
   58.1370   31.9190   43.3930 C   0  0  0  0  0  0  0  0  0  0  0  0
   58.8543   32.6711   43.0329 H   0  0  0  0  0  0  0  0  0  0  0  0
   59.8960   30.5240   50.7800 C   0  0  0  0  0  0  0  0  0  0  0  0
   60.8681   30.1446   50.4320 H   0  0  0  0  0  0  0  0  0  0  0  0
   59.0920   29.7180   51.6060 C   0  0  0  0  0  0  0  0  0  0  0  0
   59.6190   28.3760   52.0460 C   0  0  0  0  0  0  0  0  0  0  0  0
   59.6365   28.3313   53.1450 H   0  0  0  0  0  0  0  0  0  0  0  0
   58.9665   27.5804   51.6571 H   0  0  0  0  0  0  0  0  0  0  0  0
   60.6385   28.2370   51.6571 H   0  0  0  0  0  0  0  0  0  0  0  0
   53.6560   30.8290   54.0920 C   0  0  0  0  0  0  0  0  0  0  0  0
   53.7366   31.7059   54.7512 H   0  0  0  0  0  0  0  0  0  0  0  0
   53.6753   29.8780   54.6445 H   0  0  0  0  0  0  0  0  0  0  0  0
   52.2940   30.8930   53.3640 C   0  0  0  0  0  0  0  0  0  0  0  0
   51.6220   31.5540   53.9311 H   0  0  0  0  0  0  0  0  0  0  0  0
   51.8994   29.8680   53.3045 H   0  0  0  0  0  0  0  0  0  0  0  0
  1  2  1  0
  2  3  1  0
  3  4  2  0
  3  5  1  0
  5  6  1  0
  6  7  1  0
  6  8  1  0
  6  9  1  0
  9 10  1  0
  9 11  1  0
  9 12  1  0
 12 13  1  0
 12 14  1  0
 14 15  1  0
 14 16  1  0
 14 17  1  0
 17 18  1  0
 17 19  1  0
 17 20  1  0
 20 21  2  0
 21 22  1  0
 21 23  1  0
 23 24  1  0
 23 25  2  0
 25 26  1  0
 26 27  2  0
 27 28  1  0
 27 29  1  0
 29 30  1  0
 29 31  2  0
 31 32  1  0
 31 33  1  0
 33 34  1  0
 33 35  2  0
 35 36  1  0
 36 37  2  0
 36 38  2  0
 36 39  1  0
 39 40  2  0
 40 41  1  0
 41 42  1  0
 42 43  1  0
 42 44  2  0
 44 45  1  0
 44 46  1  0
 46 47  1  0
 46 48  2  0
 48 49  1  0
 25 50  1  0
 50 51  1  0
 50 52  2  0
 52 53  1  0
 53 54  1  0
 53 55  1  0
 53 56  1  0
 12 57  1  0
 57 58  1  0
 57 59  1  0
 57 60  1  0
 60 61  1  0
 60 62  1  0
 60  5  1  0
 52 20  1  0
 35 26  1  0
 48 40  1  0
M  CHG  3   2  -1  14   1  41  -1
M  END
>  <UniqueID>  (95) 
86

>  <SMILES>  (95) 
Cc1cc(-c2ccccc2S(=O)(=O)/N=c2\cccc[n-]2)ccc1C[NH2+]C1CCN(C([NH-])=O)CC1

>  <Energy>  (95) 
86.23629311162762

>  <Genealogy>  (95) 
Cc1cc(-c2ccccc2S(=O)(=O)N=c2cccc[n-]2)ccc1C[NH2+]C1CCN(C([NH-])=O)CC1 (protonated)
Cc1cc(-c2ccccc2S(=O)(=O)/N=c2\cccc[n-]2)ccc1C[NH2+]C1CCN(C([NH-])=O)CC1 (cis-trans isomerization)
Cc1cc(-c2ccccc2S(=O)(=O)/N=c2\cccc[n-]2)ccc1C[NH2+]C1CCN(C([NH-])=O)CC1 (3D coordinates assigned)
Cc1cc(-c2ccccc2S(=O)(=O)/N=c2\cccc[n-]2)ccc1C[NH2+]C1CCN(C([NH-])=O)CC1 (nonaromatic ring conformer: 86.23629311162762 kcal/mol)

>  <smiles>  (95) 
Cc1cc(-c2ccccc2S(=O)(=O)N=c2cccc[nH]2)ccc1CNC1CCN(C(N)=O)CC1

>  <score_type>  (95) 
oracle

>  <origin>  (95) 
adg

>  <m_score__min__energy>  (95) 
-12.470000000000001

>  <m_primary>  (95) 
energy

$$$$
