0:0
     RDKit          3D

 53 56  0  0  0  0  0  0  0  0999 V2000
   63.6000   32.9840   46.9100 C   0  0  0  0  0  0  0  0  0  0  0  0
   63.4580   33.3470   48.3920 C   0  0  0  0  0  0  0  0  0  0  0  0
   64.7350   33.4730   48.9100 F   0  0  0  0  0  0  0  0  0  0  0  0
   62.8260   34.5760   48.4740 F   0  0  0  0  0  0  0  0  0  0  0  0
   62.6780   32.3400   49.2370 C   0  0  0  0  0  0  0  0  0  0  0  0
   62.2450   31.0970   48.7180 C   0  0  0  0  0  0  0  0  0  0  0  0
   61.5320   30.1870   49.5160 C   0  0  0  0  0  0  0  0  0  0  0  0
   61.0660   28.9320   48.9900 N   0  0  0  0  0  0  0  0  0  0  0  0
   60.6320   28.7320   47.6320 C   0  0  0  0  0  0  0  0  0  0  0  0
   60.5990   29.6960   46.8210 O   0  0  0  0  0  0  0  0  0  0  0  0
   60.2040   27.4400   47.1820 N   0  0  0  0  0  0  0  0  0  0  0  0
   58.8730   27.1040   46.7680 C   0  0  0  0  0  0  0  0  0  0  0  0
   58.1560   27.9140   45.8710 C   0  0  0  0  0  0  0  0  0  0  0  0
   56.8500   27.5760   45.5060 C   0  0  0  0  0  0  0  0  0  0  0  0
   56.2430   26.4300   46.0290 C   0  0  0  0  0  0  0  0  0  0  0  0
   54.9280   26.1290   45.6510 O   0  0  0  0  0  0  0  0  0  0  0  0
   54.4070   24.8370   45.4890 C   0  0  0  0  0  0  0  0  0  0  0  0
   53.0350   24.5650   45.6240 C   0  0  0  0  0  0  0  0  0  0  0  0
   52.5810   23.2510   45.5040 C   0  0  0  0  0  0  0  0  0  0  0  0
   53.4610   22.2450   45.2560 N   0  0  0  0  0  0  0  0  0  0  0  0
   54.7990   22.4750   45.1180 C   0  0  0  0  0  0  0  0  0  0  0  0
   55.6300   21.5060   44.8700 N   0  0  0  0  0  0  0  0  0  0  0  0
   56.6050   21.4540   43.8150 C   0  0  0  0  0  0  0  0  0  0  0  0
   56.2580   21.3360   42.6100 O   0  0  0  0  0  0  0  0  0  0  0  0
   58.0600   21.5740   44.1470 C   0  0  0  0  0  0  0  0  0  0  0  0
   58.3490   21.8190   45.6230 C   0  0  0  0  0  0  0  0  0  0  0  0
   58.5090   22.9510   44.6200 C   0  0  0  0  0  0  0  0  0  0  0  0
   55.2890   23.7810   45.2400 C   0  0  0  0  0  0  0  0  0  0  0  0
   56.9430   25.6400   46.9560 C   0  0  0  0  0  0  0  0  0  0  0  0
   58.2470   25.9840   47.3310 C   0  0  0  0  0  0  0  0  0  0  0  0
   61.2010   30.5370   50.8290 C   0  0  0  0  0  0  0  0  0  0  0  0
   61.6040   31.7630   51.3540 C   0  0  0  0  0  0  0  0  0  0  0  0
   62.3340   32.6650   50.5740 C   0  0  0  0  0  0  0  0  0  0  0  0
   62.7670   34.2080   51.3070 Cl  0  0  0  0  0  0  0  0  0  0  0  0
   63.9994   31.9631   46.8192 H   0  0  0  0  0  0  0  0  0  0  0  0
   62.6149   33.0370   46.4235 H   0  0  0  0  0  0  0  0  0  0  0  0
   64.2877   33.6914   46.4235 H   0  0  0  0  0  0  0  0  0  0  0  0
   62.4703   30.8390   47.6727 H   0  0  0  0  0  0  0  0  0  0  0  0
   61.1070   28.1040   49.6260 H   0  0  0  0  0  0  0  0  0  0  0  0
   58.6246   28.8178   45.4544 H   0  0  0  0  0  0  0  0  0  0  0  0
   56.2961   28.2154   44.8029 H   0  0  0  0  0  0  0  0  0  0  0  0
   52.3248   25.3812   45.8226 H   0  0  0  0  0  0  0  0  0  0  0  0
   51.5089   23.0288   45.6103 H   0  0  0  0  0  0  0  0  0  0  0  0
   58.4117   20.8638   43.3842 H   0  0  0  0  0  0  0  0  0  0  0  0
   57.5228   21.8402   46.3489 H   0  0  0  0  0  0  0  0  0  0  0  0
   58.9991   21.3500   46.3763 H   0  0  0  0  0  0  0  0  0  0  0  0
   57.7985   23.7908   44.6207 H   0  0  0  0  0  0  0  0  0  0  0  0
   59.3227   23.6393   44.3479 H   0  0  0  0  0  0  0  0  0  0  0  0
   56.3669   23.9761   45.1400 H   0  0  0  0  0  0  0  0  0  0  0  0
   56.4651   24.7486   47.3884 H   0  0  0  0  0  0  0  0  0  0  0  0
   58.7830   25.3720   48.0714 H   0  0  0  0  0  0  0  0  0  0  0  0
   60.6193   29.8405   51.4506 H   0  0  0  0  0  0  0  0  0  0  0  0
   61.3457   32.0235   52.3910 H   0  0  0  0  0  0  0  0  0  0  0  0
  1  2  1  0
  2  3  1  0
  2  4  1  0
  2  5  1  0
  5  6  2  0
  6  7  1  0
  7  8  1  0
  8  9  1  0
  9 10  2  0
  9 11  1  0
 11 12  1  0
 12 13  2  0
 13 14  1  0
 14 15  2  0
 15 16  1  0
 16 17  1  0
 17 18  1  0
 18 19  2  0
 19 20  1  0
 20 21  1  0
 21 22  2  3
 22 23  1  0
 23 24  2  0
 23 25  1  0
 25 26  1  0
 26 27  1  0
 21 28  1  0
 15 29  1  0
 29 30  2  0
  7 31  2  0
 31 32  1  0
 32 33  2  0
 33 34  1  0
 33  5  1  0
 30 12  1  0
 28 17  2  0
 27 25  1  0
  1 35  1  0
  1 36  1  0
  1 37  1  0
  6 38  1  0
  8 39  1  0
 13 40  1  0
 14 41  1  0
 18 42  1  0
 19 43  1  0
 25 44  1  0
 26 45  1  0
 26 46  1  0
 27 47  1  0
 27 48  1  0
 28 49  1  0
 29 50  1  0
 30 51  1  0
 31 52  1  0
 32 53  1  0
M  CHG  2  11  -1  20  -1
M  END
>  <UniqueID>  (1) 
1

>  <SMILES>  (1) 
CC(F)(F)c1cc(NC(=O)[N-]c2ccc(Oc3cc[n-]c(=NC(=O)C4CC4)c3)cc2)ccc1Cl

>  <Energy>  (1) 
340.95888072353193

>  <Genealogy>  (1) 
CC(F)(F)c1cc(NC(=O)[N-]c2ccc(Oc3cc[n-]c(=NC(=O)C4CC4)c3)cc2)ccc1Cl (protonated)
CC(F)(F)c1cc(NC(=O)[N-]c2ccc(Oc3cc[n-]c(=NC(=O)C4CC4)c3)cc2)ccc1Cl (3D coordinates assigned)
CC(F)(F)c1cc(NC(=O)[N-]c2ccc(Oc3cc[n-]c(=NC(=O)C4CC4)c3)cc2)ccc1Cl (nonaromatic ring conformer: 340.95888072353193 kcal/mol)

>  <smiles>  (1) 
CC(F)(F)c1cc(NC(=O)Nc2ccc(Oc3cc[nH]c(=NC(=O)C4CC4)c3)cc2)ccc1Cl

>  <score_type>  (1) 
oracle

>  <origin>  (1) 
adg

>  <m_score__min__energy>  (1) 
-10.83

>  <m_primary>  (1) 
energy

$$$$
1:0
     RDKit          3D

 25 26  0  0  0  0  0  0  0  0999 V2000
   55.3060   29.3300   44.9740 O   0  0  0  0  0  0  0  0  0  0  0  0
   56.5350   29.3680   44.6920 C   0  0  0  0  0  0  0  0  0  0  0  0
   57.3140   28.0790   44.6720 C   0  0  0  0  0  0  0  0  0  0  0  0
   57.7740   27.6690   46.0770 C   0  0  0  0  0  0  0  0  0  0  0  0
   57.2240   26.3310   46.4720 C   0  0  0  0  0  0  0  0  0  0  0  0
   57.9620   25.3340   46.9910 N   0  0  0  0  0  0  0  0  0  0  0  0
   57.0480   24.3710   47.2450 C   0  0  0  0  0  0  0  0  0  0  0  0
   57.3580   23.2570   47.7400 O   0  0  0  0  0  0  0  0  0  0  0  0
   55.7770   24.6990   46.9290 N   0  0  0  0  0  0  0  0  0  0  0  0
   55.9050   25.9450   46.4470 C   0  0  0  0  0  0  0  0  0  0  0  0
   54.8400   26.7150   45.9970 O   0  0  0  0  0  0  0  0  0  0  0  0
   57.1940   30.6660   44.4240 C   0  0  0  0  0  0  0  0  0  0  0  0
   57.7770   31.4100   45.4640 C   0  0  0  0  0  0  0  0  0  0  0  0
   58.3930   32.6290   45.1750 C   0  0  0  0  0  0  0  0  0  0  0  0
   58.4260   33.0980   43.8610 C   0  0  0  0  0  0  0  0  0  0  0  0
   57.8380   32.3360   42.8510 C   0  0  0  0  0  0  0  0  0  0  0  0
   57.2420   31.1510   43.1510 N   0  0  0  0  0  0  0  0  0  0  0  0
   56.6755   27.2835   44.2602 H   0  0  0  0  0  0  0  0  0  0  0  0
   58.2086   28.2299   44.0500 H   0  0  0  0  0  0  0  0  0  0  0  0
   58.8729   27.6215   46.0927 H   0  0  0  0  0  0  0  0  0  0  0  0
   57.4017   28.4175   46.7919 H   0  0  0  0  0  0  0  0  0  0  0  0
   57.7482   31.0348   46.4976 H   0  0  0  0  0  0  0  0  0  0  0  0
   58.8518   33.2191   45.9820 H   0  0  0  0  0  0  0  0  0  0  0  0
   58.9099   34.0571   43.6244 H   0  0  0  0  0  0  0  0  0  0  0  0
   57.8565   32.6940   41.8111 H   0  0  0  0  0  0  0  0  0  0  0  0
  1  2  2  0
  2  3  1  0
  3  4  1  0
  4  5  1  0
  5  6  1  0
  6  7  1  0
  7  8  2  0
  7  9  1  0
  9 10  1  0
 10 11  1  0
  2 12  1  0
 12 13  2  0
 13 14  1  0
 14 15  2  0
 15 16  1  0
 16 17  2  0
 10  5  2  0
 17 12  1  0
  3 18  1  0
  3 19  1  0
  4 20  1  0
  4 21  1  0
 13 22  1  0
 14 23  1  0
 15 24  1  0
 16 25  1  0
M  CHG  3   6  -1   9  -1  11  -1
M  END
>  <UniqueID>  (2) 
2

>  <SMILES>  (2) 
O=C(CCc1[n-]c(=O)[n-]c1[O-])c1ccccn1

>  <Energy>  (2) 
52.039427968052756

>  <Genealogy>  (2) 
O=C(CCc1[n-]c(=O)[n-]c1[O-])c1ccccn1 (protonated)
O=C(CCc1[n-]c(=O)[n-]c1[O-])c1ccccn1 (3D coordinates assigned)
O=C(CCc1[n-]c(=O)[n-]c1[O-])c1ccccn1 (optimized conformer: 52.039427968052756 kcal/mol)

>  <smiles>  (2) 
O=C(CCc1[nH]c(=O)[nH]c1O)c1ccccn1

>  <score_type>  (2) 
oracle

>  <origin>  (2) 
adg

>  <m_score__min__energy>  (2) 
-15.279999999999999

>  <m_primary>  (2) 
energy

$$$$
2:0
     RDKit          3D

 61 64  0  0  0  0  0  0  0  0999 V2000
   51.1250   32.3670   51.4520 N   0  0  0  0  0  0  0  0  0  0  0  0
   51.6890   30.7400   51.5890 S   0  0  0  0  0  0  0  0  0  0  0  0
   50.7400   29.9730   52.4650 O   0  0  0  0  0  0  0  0  0  0  0  0
   51.7270   30.1140   50.2240 O   0  0  0  0  0  0  0  0  0  0  0  0
   53.3010   30.7110   52.2970 C   0  0  0  0  0  0  0  0  0  0  0  0
   54.4320   30.9730   51.5110 C   0  0  0  0  0  0  0  0  0  0  0  0
   55.7090   30.9320   52.0750 C   0  0  0  0  0  0  0  0  0  0  0  0
   55.8730   30.6390   53.4260 C   0  0  0  0  0  0  0  0  0  0  0  0
   57.2000   30.5590   53.9620 N   0  0  0  0  0  0  0  0  0  0  0  0
   58.4090   30.4340   53.1940 C   0  0  0  0  0  0  0  0  0  0  0  0
   59.0050   31.4800   52.8240 O   0  0  0  0  0  0  0  0  0  0  0  0
   59.0050   29.0900   52.8710 C   0  0  0  0  0  0  0  0  0  0  0  0
   60.6250   29.2730   52.0470 S   0  0  0  0  0  0  0  0  0  0  0  0
   60.0530   28.7390   50.4330 C   0  0  0  0  0  0  0  0  0  0  0  0
   60.7090   27.7160   49.7520 C   0  0  0  0  0  0  0  0  0  0  0  0
   60.2760   27.3580   48.4740 C   0  0  0  0  0  0  0  0  0  0  0  0
   59.1820   28.0130   47.8900 C   0  0  0  0  0  0  0  0  0  0  0  0
   58.7640   27.7160   46.5010 C   0  0  0  0  0  0  0  0  0  0  0  0
   59.4700   26.9690   45.7720 O   0  0  0  0  0  0  0  0  0  0  0  0
   57.5350   28.2200   45.9740 N   0  0  0  0  0  0  0  0  0  0  0  0
   57.3160   29.5880   45.6010 C   0  0  0  0  0  0  0  0  0  0  0  0
   58.2610   30.5870   45.8990 C   0  0  0  0  0  0  0  0  0  0  0  0
   58.0560   31.9100   45.4670 C   0  0  0  0  0  0  0  0  0  0  0  0
   59.2610   33.1530   45.8090 S   0  0  0  0  0  0  0  0  0  0  0  0
   59.5610   33.9020   44.5440 O   0  0  0  0  0  0  0  0  0  0  0  0
   58.7010   34.1300   46.8020 O   0  0  0  0  0  0  0  0  0  0  0  0
   60.7350   32.4660   46.4400 N   0  0  0  0  0  0  0  0  0  0  0  0
   61.7770   33.4980   46.5620 C   0  0  0  0  0  0  0  0  0  0  0  0
   62.9920   32.9630   47.3430 C   0  0  0  0  0  0  0  0  0  0  0  0
   62.9210   31.5590   47.5000 O   0  0  0  0  0  0  0  0  0  0  0  0
   61.7970   31.2140   48.2750 C   0  0  0  0  0  0  0  0  0  0  0  0
   60.4880   31.8370   47.7430 C   0  0  0  0  0  0  0  0  0  0  0  0
   56.8950   32.2340   44.7510 C   0  0  0  0  0  0  0  0  0  0  0  0
   55.9560   31.2450   44.4510 C   0  0  0  0  0  0  0  0  0  0  0  0
   56.1630   29.9260   44.8700 C   0  0  0  0  0  0  0  0  0  0  0  0
   55.2170   28.9530   44.5590 O   0  0  0  0  0  0  0  0  0  0  0  0
   58.5310   29.0090   48.6320 C   0  0  0  0  0  0  0  0  0  0  0  0
   58.9780   29.3460   49.8680 N   0  0  0  0  0  0  0  0  0  0  0  0
   54.7410   30.3430   54.2080 C   0  0  0  0  0  0  0  0  0  0  0  0
   53.4620   30.3870   53.6440 C   0  0  0  0  0  0  0  0  0  0  0  0
   50.2580   32.3410   50.8700 H   0  0  0  0  0  0  0  0  0  0  0  0
   54.3129   31.2122   50.4440 H   0  0  0  0  0  0  0  0  0  0  0  0
   56.5903   31.1324   51.4480 H   0  0  0  0  0  0  0  0  0  0  0  0
   59.1379   28.5220   53.8036 H   0  0  0  0  0  0  0  0  0  0  0  0
   58.3235   28.5590   52.1901 H   0  0  0  0  0  0  0  0  0  0  0  0
   61.5595   27.1956   50.2165 H   0  0  0  0  0  0  0  0  0  0  0  0
   60.7946   26.5595   47.9232 H   0  0  0  0  0  0  0  0  0  0  0  0
   59.1644   30.3323   46.4725 H   0  0  0  0  0  0  0  0  0  0  0  0
   62.1013   33.8029   45.5561 H   0  0  0  0  0  0  0  0  0  0  0  0
   61.3589   34.3567   47.1078 H   0  0  0  0  0  0  0  0  0  0  0  0
   63.9112   33.2167   46.7946 H   0  0  0  0  0  0  0  0  0  0  0  0
   62.9958   33.4255   48.3411 H   0  0  0  0  0  0  0  0  0  0  0  0
   61.6913   30.1191   48.2725 H   0  0  0  0  0  0  0  0  0  0  0  0
   61.9616   31.6063   49.2894 H   0  0  0  0  0  0  0  0  0  0  0  0
   59.7273   31.0503   47.6312 H   0  0  0  0  0  0  0  0  0  0  0  0
   60.1306   32.5971   48.4533 H   0  0  0  0  0  0  0  0  0  0  0  0
   56.7233   33.2703   44.4246 H   0  0  0  0  0  0  0  0  0  0  0  0
   55.0501   31.5037   43.8831 H   0  0  0  0  0  0  0  0  0  0  0  0
   57.6531   29.5199   48.2097 H   0  0  0  0  0  0  0  0  0  0  0  0
   54.8628   30.0757   55.2681 H   0  0  0  0  0  0  0  0  0  0  0  0
   52.5809   30.1656   54.2642 H   0  0  0  0  0  0  0  0  0  0  0  0
  1  2  1  0
  2  3  2  0
  2  4  2  0
  2  5  1  0
  5  6  2  0
  6  7  1  0
  7  8  2  0
  8  9  1  0
  9 10  1  0
 10 11  2  0
 10 12  1  0
 12 13  1  0
 13 14  1  0
 14 15  2  0
 15 16  1  0
 16 17  2  0
 17 18  1  0
 18 19  2  0
 18 20  1  0
 20 21  1  0
 21 22  2  0
 22 23  1  0
 23 24  1  0
 24 25  2  0
 24 26  2  0
 24 27  1  0
 27 28  1  0
 28 29  1  0
 29 30  1  0
 30 31  1  0
 31 32  1  0
 23 33  2  0
 33 34  1  0
 34 35  2  0
 35 36  1  0
 17 37  1  0
 37 38  2  0
  8 39  1  0
 39 40  2  0
 40  5  1  0
 38 14  1  0
 35 21  1  0
 32 27  1  0
  1 41  1  0
  6 42  1  0
  7 43  1  0
 12 44  1  0
 12 45  1  0
 15 46  1  0
 16 47  1  0
 22 48  1  0
 28 49  1  0
 28 50  1  0
 29 51  1  0
 29 52  1  0
 31 53  1  0
 31 54  1  0
 32 55  1  0
 32 56  1  0
 33 57  1  0
 34 58  1  0
 37 59  1  0
 39 60  1  0
 40 61  1  0
M  CHG  4   1  -1   9  -1  20  -1  36  -1
M  END
>  <UniqueID>  (3) 
3

>  <SMILES>  (3) 
[NH-]S(=O)(=O)c1ccc([N-]C(=O)CSc2ccc(C(=O)[N-]c3cc(S(=O)(=O)N4CCOCC4)ccc3[O-])cn2)cc1

>  <Energy>  (3) 
83.21316836938183

>  <Genealogy>  (3) 
[NH-]S(=O)(=O)c1ccc([N-]C(=O)CSc2ccc(C(=O)[N-]c3cc(S(=O)(=O)N4CCOCC4)ccc3[O-])cn2)cc1 (protonated)
[NH-]S(=O)(=O)c1ccc([N-]C(=O)CSc2ccc(C(=O)[N-]c3cc(S(=O)(=O)N4CCOCC4)ccc3[O-])cn2)cc1 (3D coordinates assigned)
[NH-]S(=O)(=O)c1ccc([N-]C(=O)CSc2ccc(C(=O)[N-]c3cc(S(=O)(=O)N4CCOCC4)ccc3[O-])cn2)cc1 (nonaromatic ring conformer: 83.21316836938183 kcal/mol)

>  <smiles>  (3) 
NS(=O)(=O)c1ccc(NC(=O)CSc2ccc(C(=O)Nc3cc(S(=O)(=O)N4CCOCC4)ccc3O)cn2)cc1

>  <score_type>  (3) 
oracle

>  <origin>  (3) 
adg

>  <m_score__min__energy>  (3) 
-16.629999999999999

>  <m_primary>  (3) 
energy

$$$$
3:0
     RDKit          3D

 69 72  0  0  0  0  0  0  0  0999 V2000
   56.9590   27.3540   46.3050 O   0  0  0  0  0  0  0  0  0  0  0  0
   57.2990   28.3590   45.6200 C   0  0  0  0  0  0  0  0  0  0  0  0
   58.7590   28.7060   45.5050 C   0  0  0  0  0  0  0  0  0  0  0  0
   59.2330   29.4690   46.7170 C   0  0  0  0  0  0  0  0  0  0  0  0
   60.3820   30.2730   46.6460 C   0  0  0  0  0  0  0  0  0  0  0  0
   60.7880   31.0250   47.7530 C   0  0  0  0  0  0  0  0  0  0  0  0
   60.0550   30.9770   48.9490 C   0  0  0  0  0  0  0  0  0  0  0  0
   60.4800   31.8060   50.1320 C   0  0  0  0  0  0  0  0  0  0  0  0
   61.9190   32.2110   50.0120 C   0  0  0  0  0  0  0  0  0  0  0  0
   62.2550   33.0260   49.1090 O   0  0  0  0  0  0  0  0  0  0  0  0
   62.8850   31.7400   50.9630 N   0  0  0  0  0  0  0  0  0  0  0  0
   64.3100   31.8690   50.8070 C   0  0  0  0  0  0  0  0  0  0  0  0
   64.8830   32.9870   50.1810 C   0  0  0  0  0  0  0  0  0  0  0  0
   66.2690   33.0860   50.0450 C   0  0  0  0  0  0  0  0  0  0  0  0
   67.0970   32.0610   50.5090 C   0  0  0  0  0  0  0  0  0  0  0  0
   66.5400   30.9150   51.0970 C   0  0  0  0  0  0  0  0  0  0  0  0
   67.4110   29.8290   51.6130 C   0  0  0  0  0  0  0  0  0  0  0  0
   68.3510   30.1130   52.4070 O   0  0  0  0  0  0  0  0  0  0  0  0
   67.2230   28.4640   51.2080 N   0  0  0  0  0  0  0  0  0  0  0  0
   68.3210   27.7860   50.5060 C   0  0  0  0  0  0  0  0  0  0  0  0
   68.1570   26.2580   50.5360 C   0  0  0  0  0  0  0  0  0  0  0  0
   66.8220   25.8780   50.2730 O   0  0  0  0  0  0  0  0  0  0  0  0
   65.9990   26.3210   51.3310 C   0  0  0  0  0  0  0  0  0  0  0  0
   65.8950   27.8460   51.3310 C   0  0  0  0  0  0  0  0  0  0  0  0
   65.1430   30.8300   51.2450 C   0  0  0  0  0  0  0  0  0  0  0  0
   58.9310   30.1400   49.0350 C   0  0  0  0  0  0  0  0  0  0  0  0
   58.5190   29.3960   47.9260 C   0  0  0  0  0  0  0  0  0  0  0  0
   56.2810   29.1160   44.9530 N   0  0  0  0  0  0  0  0  0  0  0  0
   56.5270   30.0890   43.8940 C   0  0  0  0  0  0  0  0  0  0  0  0
   56.6320   31.4970   44.4810 C   0  0  0  0  0  0  0  0  0  0  0  0
   57.9430   32.1870   44.0810 C   0  0  0  0  0  0  0  0  0  0  0  0
   58.4030   33.1250   45.1650 C   0  0  0  0  0  0  0  0  0  0  0  0
   58.0640   32.8760   46.5040 C   0  0  0  0  0  0  0  0  0  0  0  0
   58.5130   33.7290   47.5180 C   0  0  0  0  0  0  0  0  0  0  0  0
   59.3070   34.8340   47.1990 C   0  0  0  0  0  0  0  0  0  0  0  0
   59.6560   35.0820   45.8690 C   0  0  0  0  0  0  0  0  0  0  0  0
   59.2160   34.2280   44.8540 C   0  0  0  0  0  0  0  0  0  0  0  0
   59.3427   27.7781   45.4137 H   0  0  0  0  0  0  0  0  0  0  0  0
   58.8986   29.3396   44.6167 H   0  0  0  0  0  0  0  0  0  0  0  0
   60.9659   30.3116   45.7146 H   0  0  0  0  0  0  0  0  0  0  0  0
   61.6859   31.6570   47.6861 H   0  0  0  0  0  0  0  0  0  0  0  0
   59.8545   32.7095   50.1821 H   0  0  0  0  0  0  0  0  0  0  0  0
   60.3591   31.2041   51.0447 H   0  0  0  0  0  0  0  0  0  0  0  0
   62.5270   31.2840   51.8340 H   0  0  0  0  0  0  0  0  0  0  0  0
   64.2367   33.7893   49.7956 H   0  0  0  0  0  0  0  0  0  0  0  0
   66.7108   33.9747   49.5706 H   0  0  0  0  0  0  0  0  0  0  0  0
   68.1890   32.1525   50.4132 H   0  0  0  0  0  0  0  0  0  0  0  0
   68.3362   28.1224   49.4588 H   0  0  0  0  0  0  0  0  0  0  0  0
   69.2623   28.0400   51.0153 H   0  0  0  0  0  0  0  0  0  0  0  0
   68.8128   25.8125   49.7735 H   0  0  0  0  0  0  0  0  0  0  0  0
   68.4275   25.9003   51.5404 H   0  0  0  0  0  0  0  0  0  0  0  0
   64.9939   25.8903   51.2116 H   0  0  0  0  0  0  0  0  0  0  0  0
   66.4420   25.9963   52.2841 H   0  0  0  0  0  0  0  0  0  0  0  0
   65.2702   28.1641   50.4834 H   0  0  0  0  0  0  0  0  0  0  0  0
   65.4456   28.1669   52.2824 H   0  0  0  0  0  0  0  0  0  0  0  0
   64.6993   29.9373   51.7101 H   0  0  0  0  0  0  0  0  0  0  0  0
   58.3720   30.0695   49.9798 H   0  0  0  0  0  0  0  0  0  0  0  0
   57.6317   28.7501   47.9994 H   0  0  0  0  0  0  0  0  0  0  0  0
   57.4678   29.8382   43.3821 H   0  0  0  0  0  0  0  0  0  0  0  0
   55.6904   30.0603   43.1803 H   0  0  0  0  0  0  0  0  0  0  0  0
   55.7872   32.0989   44.1149 H   0  0  0  0  0  0  0  0  0  0  0  0
   56.6122   31.4117   45.5775 H   0  0  0  0  0  0  0  0  0  0  0  0
   58.7163   31.4231   43.9124 H   0  0  0  0  0  0  0  0  0  0  0  0
   57.7716   32.7660   43.1616 H   0  0  0  0  0  0  0  0  0  0  0  0
   57.4417   32.0051   46.7577 H   0  0  0  0  0  0  0  0  0  0  0  0
   58.2414   33.5301   48.5652 H   0  0  0  0  0  0  0  0  0  0  0  0
   59.6570   35.5081   47.9946 H   0  0  0  0  0  0  0  0  0  0  0  0
   60.2797   35.9531   45.6198 H   0  0  0  0  0  0  0  0  0  0  0  0
   59.5065   34.4195   43.8105 H   0  0  0  0  0  0  0  0  0  0  0  0
  1  2  2  0
  2  3  1  0
  3  4  1  0
  4  5  2  0
  5  6  1  0
  6  7  2  0
  7  8  1  0
  8  9  1  0
  9 10  2  0
  9 11  1  0
 11 12  1  0
 12 13  2  0
 13 14  1  0
 14 15  2  0
 15 16  1  0
 16 17  1  0
 17 18  2  0
 17 19  1  0
 19 20  1  0
 20 21  1  0
 21 22  1  0
 22 23  1  0
 23 24  1  0
 16 25  2  0
  7 26  1  0
 26 27  2  0
  2 28  1  0
 28 29  1  0
 29 30  1  0
 30 31  1  0
 31 32  1  0
 32 33  2  0
 33 34  1  0
 34 35  2  0
 35 36  1  0
 36 37  2  0
 27  4  1  0
 37 32  1  0
 25 12  1  0
 24 19  1  0
  3 38  1  0
  3 39  1  0
  5 40  1  0
  6 41  1  0
  8 42  1  0
  8 43  1  0
 11 44  1  0
 13 45  1  0
 14 46  1  0
 15 47  1  0
 20 48  1  0
 20 49  1  0
 21 50  1  0
 21 51  1  0
 23 52  1  0
 23 53  1  0
 24 54  1  0
 24 55  1  0
 25 56  1  0
 26 57  1  0
 27 58  1  0
 29 59  1  0
 29 60  1  0
 30 61  1  0
 30 62  1  0
 31 63  1  0
 31 64  1  0
 33 65  1  0
 34 66  1  0
 35 67  1  0
 36 68  1  0
 37 69  1  0
M  CHG  1  28  -1
M  END
>  <UniqueID>  (4) 
4

>  <SMILES>  (4) 
O=C(Cc1ccc(CC(=O)Nc2cccc(C(=O)N3CCOCC3)c2)cc1)[N-]CCCc1ccccc1

>  <Energy>  (4) 
73.91626665697183

>  <Genealogy>  (4) 
O=C(Cc1ccc(CC(=O)Nc2cccc(C(=O)N3CCOCC3)c2)cc1)[N-]CCCc1ccccc1 (protonated)
O=C(Cc1ccc(CC(=O)Nc2cccc(C(=O)N3CCOCC3)c2)cc1)[N-]CCCc1ccccc1 (3D coordinates assigned)
O=C(Cc1ccc(CC(=O)Nc2cccc(C(=O)N3CCOCC3)c2)cc1)[N-]CCCc1ccccc1 (nonaromatic ring conformer: 73.91626665697183 kcal/mol)

>  <smiles>  (4) 
O=C(Cc1ccc(CC(=O)Nc2cccc(C(=O)N3CCOCC3)c2)cc1)NCCCc1ccccc1

>  <score_type>  (4) 
oracle

>  <origin>  (4) 
adg

>  <m_score__min__energy>  (4) 
-11.85

>  <m_primary>  (4) 
energy

$$$$
4:0
     RDKit          3D

 41 43  0  0  0  0  0  0  0  0999 V2000
   57.0300   32.3500   52.0450 C   0  0  0  0  0  0  0  0  0  0  0  0
   57.5660   31.3970   51.2800 C   0  0  0  0  0  0  0  0  0  0  0  0
   57.3960   30.0850   51.5560 N   0  0  0  0  0  0  0  0  0  0  0  0
   58.0930   29.4080   50.6900 O   0  0  0  0  0  0  0  0  0  0  0  0
   58.7110   30.2140   49.8630 C   0  0  0  0  0  0  0  0  0  0  0  0
   59.4550   29.8210   48.9270 O   0  0  0  0  0  0  0  0  0  0  0  0
   58.4100   31.5260   50.1700 C   0  0  0  0  0  0  0  0  0  0  0  0
   58.8700   32.6040   49.5040 C   0  0  0  0  0  0  0  0  0  0  0  0
   60.1740   32.6800   48.8230 C   0  0  0  0  0  0  0  0  0  0  0  0
   61.3460   32.5140   49.5800 C   0  0  0  0  0  0  0  0  0  0  0  0
   62.5990   32.6350   48.9780 C   0  0  0  0  0  0  0  0  0  0  0  0
   62.6950   32.9390   47.6200 C   0  0  0  0  0  0  0  0  0  0  0  0
   61.5370   33.1250   46.8600 C   0  0  0  0  0  0  0  0  0  0  0  0
   60.2690   32.9990   47.4490 C   0  0  0  0  0  0  0  0  0  0  0  0
   58.8260   33.2120   46.4470 S   0  0  0  0  0  0  0  0  0  0  0  0
   57.8990   34.1750   47.1330 O   0  0  0  0  0  0  0  0  0  0  0  0
   59.1880   33.7740   45.1000 O   0  0  0  0  0  0  0  0  0  0  0  0
   58.0080   31.6950   46.2190 N   0  0  0  0  0  0  0  0  0  0  0  0
   58.6170   30.5210   45.6380 C   0  0  0  0  0  0  0  0  0  0  0  0
   59.9220   30.1310   46.0070 C   0  0  0  0  0  0  0  0  0  0  0  0
   60.4890   28.9620   45.5000 C   0  0  0  0  0  0  0  0  0  0  0  0
   59.7740   28.1640   44.6140 C   0  0  0  0  0  0  0  0  0  0  0  0
   58.4910   28.5400   44.2170 C   0  0  0  0  0  0  0  0  0  0  0  0
   57.9040   29.7170   44.7090 C   0  0  0  0  0  0  0  0  0  0  0  0
   56.3010   30.1730   44.1090 S   0  0  0  0  0  0  0  0  0  0  0  0
   55.1450   28.9750   44.5680 N   0  0  0  0  0  0  0  0  0  0  0  0
   55.9100   31.5070   44.6810 O   0  0  0  0  0  0  0  0  0  0  0  0
   56.3170   30.2820   42.6100 O   0  0  0  0  0  0  0  0  0  0  0  0
   57.1864   33.4095   51.7941 H   0  0  0  0  0  0  0  0  0  0  0  0
   56.4317   32.0761   52.9265 H   0  0  0  0  0  0  0  0  0  0  0  0
   58.2234   33.4931   49.4663 H   0  0  0  0  0  0  0  0  0  0  0  0
   61.2753   32.2872   50.6540 H   0  0  0  0  0  0  0  0  0  0  0  0
   63.5117   32.4906   49.5747 H   0  0  0  0  0  0  0  0  0  0  0  0
   63.6835   33.0325   47.1466 H   0  0  0  0  0  0  0  0  0  0  0  0
   61.6198   33.3722   45.7913 H   0  0  0  0  0  0  0  0  0  0  0  0
   57.0290   31.6630   46.5700 H   0  0  0  0  0  0  0  0  0  0  0  0
   60.4994   30.7569   46.7033 H   0  0  0  0  0  0  0  0  0  0  0  0
   61.5056   28.6703   45.8022 H   0  0  0  0  0  0  0  0  0  0  0  0
   60.2201   27.2363   44.2262 H   0  0  0  0  0  0  0  0  0  0  0  0
   57.9328   27.9077   43.5108 H   0  0  0  0  0  0  0  0  0  0  0  0
   54.5540   29.3930   45.3210 H   0  0  0  0  0  0  0  0  0  0  0  0
  1  2  2  0
  2  3  1  0
  3  4  1  0
  4  5  1  0
  5  6  2  0
  5  7  1  0
  7  8  2  3
  8  9  1  0
  9 10  2  0
 10 11  1  0
 11 12  2  0
 12 13  1  0
 13 14  2  0
 14 15  1  0
 15 16  2  0
 15 17  2  0
 15 18  1  0
 18 19  1  0
 19 20  2  0
 20 21  1  0
 21 22  2  0
 22 23  1  0
 23 24  2  0
 24 25  1  0
 25 26  1  0
 25 27  2  0
 25 28  2  0
  7  2  1  0
 14  9  1  0
 24 19  1  0
  1 29  1  0
  1 30  1  0
  8 31  1  0
 10 32  1  0
 11 33  1  0
 12 34  1  0
 13 35  1  0
 18 36  1  0
 20 37  1  0
 21 38  1  0
 22 39  1  0
 23 40  1  0
 26 41  1  0
M  CHG  2   3  -1  26  -1
M  END
>  <UniqueID>  (5) 
5

>  <SMILES>  (5) 
C=c1[n-]oc(=O)c1=Cc1ccccc1S(=O)(=O)Nc1ccccc1S([NH-])(=O)=O

>  <Energy>  (5) 
91.2954537725998

>  <Genealogy>  (5) 
C=c1[n-]oc(=O)c1=Cc1ccccc1S(=O)(=O)Nc1ccccc1S([NH-])(=O)=O (protonated)
C=c1[n-]oc(=O)c1=Cc1ccccc1S(=O)(=O)Nc1ccccc1S([NH-])(=O)=O (3D coordinates assigned)
C=c1[n-]oc(=O)c1=Cc1ccccc1S(=O)(=O)Nc1ccccc1S([NH-])(=O)=O (optimized conformer: 91.2954537725998 kcal/mol)

>  <smiles>  (5) 
C=c1[nH]oc(=O)c1=Cc1ccccc1S(=O)(=O)Nc1ccccc1S(N)(=O)=O

>  <score_type>  (5) 
oracle

>  <origin>  (5) 
adg

>  <m_score__min__energy>  (5) 
-13.550000000000001

>  <m_primary>  (5) 
energy

$$$$
5:0
     RDKit          3D

 63 66  0  0  0  0  0  0  0  0999 V2000
   58.2170   32.0110   54.6290 C   0  0  0  0  0  0  0  0  0  0  0  0
   57.9680   31.7080   53.2210 N   0  0  0  0  0  0  0  0  0  0  0  0
   58.8000   32.0140   52.2050 C   0  0  0  0  0  0  0  0  0  0  0  0
   58.2750   31.5230   51.0230 C   0  0  0  0  0  0  0  0  0  0  0  0
   58.8580   31.5660   49.7110 N   0  0  0  0  0  0  0  0  0  0  0  0
   59.4320   32.7340   49.0960 C   0  0  0  0  0  0  0  0  0  0  0  0
   59.3680   33.8610   49.6580 O   0  0  0  0  0  0  0  0  0  0  0  0
   60.1310   32.6210   47.7720 C   0  0  0  0  0  0  0  0  0  0  0  0
   59.1760   32.8850   46.6400 C   0  0  0  0  0  0  0  0  0  0  0  0
   59.1300   34.1500   46.0330 C   0  0  0  0  0  0  0  0  0  0  0  0
   58.2630   34.3850   44.9600 C   0  0  0  0  0  0  0  0  0  0  0  0
   57.4320   33.3630   44.4920 C   0  0  0  0  0  0  0  0  0  0  0  0
   57.4510   32.1020   45.1090 C   0  0  0  0  0  0  0  0  0  0  0  0
   56.6350   31.0270   44.6280 N   0  0  0  0  0  0  0  0  0  0  0  0
   56.6400   29.6770   45.1140 C   0  0  0  0  0  0  0  0  0  0  0  0
   55.5340   29.0860   45.2390 O   0  0  0  0  0  0  0  0  0  0  0  0
   57.9340   28.9130   45.3260 C   0  0  0  0  0  0  0  0  0  0  0  0
   58.2920   28.8730   46.8310 C   0  0  0  0  0  0  0  0  0  0  0  0
   59.7850   28.5900   47.1040 C   0  0  0  0  0  0  0  0  0  0  0  0
   60.4520   27.8370   45.9470 C   0  0  0  0  0  0  0  0  0  0  0  0
   60.3750   28.6360   44.6300 C   0  0  0  0  0  0  0  0  0  0  0  0
   59.1010   29.4990   44.5060 C   0  0  0  0  0  0  0  0  0  0  0  0
   58.3470   31.8590   46.1570 C   0  0  0  0  0  0  0  0  0  0  0  0
   57.1000   30.8670   51.3340 C   0  0  0  0  0  0  0  0  0  0  0  0
   56.9320   31.0050   52.7020 C   0  0  0  0  0  0  0  0  0  0  0  0
   55.8490   30.3870   53.5030 C   0  0  0  0  0  0  0  0  0  0  0  0
   56.0990   30.0080   54.6760 O   0  0  0  0  0  0  0  0  0  0  0  0
   54.5140   30.2250   53.0030 N   0  0  0  0  0  0  0  0  0  0  0  0
   53.9040   31.0040   51.9320 C   0  0  0  0  0  0  0  0  0  0  0  0
   52.3800   30.9510   52.0430 C   0  0  0  0  0  0  0  0  0  0  0  0
   51.7190   31.1490   50.7120 C   0  0  0  0  0  0  0  0  0  0  0  0
   51.6800   30.2000   49.7510 N   0  0  0  0  0  0  0  0  0  0  0  0
   51.0020   30.7110   48.7390 N   0  0  0  0  0  0  0  0  0  0  0  0
   50.6460   31.9520   49.1200 C   0  0  0  0  0  0  0  0  0  0  0  0
   49.9830   32.7340   48.3890 O   0  0  0  0  0  0  0  0  0  0  0  0
   51.0680   32.2770   50.3570 N   0  0  0  0  0  0  0  0  0  0  0  0
   57.6452   31.3151   55.2605 H   0  0  0  0  0  0  0  0  0  0  0  0
   59.2905   31.9027   54.8431 H   0  0  0  0  0  0  0  0  0  0  0  0
   57.9027   33.0432   54.8431 H   0  0  0  0  0  0  0  0  0  0  0  0
   59.7463   32.5665   52.3008 H   0  0  0  0  0  0  0  0  0  0  0  0
   58.7870   30.6970   49.1360 H   0  0  0  0  0  0  0  0  0  0  0  0
   60.9492   33.3551   47.7323 H   0  0  0  0  0  0  0  0  0  0  0  0
   60.5274   31.6002   47.6683 H   0  0  0  0  0  0  0  0  0  0  0  0
   59.7775   34.9590   46.4020 H   0  0  0  0  0  0  0  0  0  0  0  0
   58.2353   35.3762   44.4837 H   0  0  0  0  0  0  0  0  0  0  0  0
   56.7622   33.5470   43.6391 H   0  0  0  0  0  0  0  0  0  0  0  0
   57.7718   27.8864   44.9656 H   0  0  0  0  0  0  0  0  0  0  0  0
   58.0356   29.8460   47.2754 H   0  0  0  0  0  0  0  0  0  0  0  0
   57.7202   28.0457   47.2767 H   0  0  0  0  0  0  0  0  0  0  0  0
   60.3061   29.5475   47.2508 H   0  0  0  0  0  0  0  0  0  0  0  0
   59.8505   27.9573   48.0014 H   0  0  0  0  0  0  0  0  0  0  0  0
   61.5088   27.6621   46.1971 H   0  0  0  0  0  0  0  0  0  0  0  0
   59.9194   26.8853   45.8036 H   0  0  0  0  0  0  0  0  0  0  0  0
   61.2511   29.2987   44.5732 H   0  0  0  0  0  0  0  0  0  0  0  0
   60.3509   27.9043   43.8090 H   0  0  0  0  0  0  0  0  0  0  0  0
   59.3201   30.5130   44.8719 H   0  0  0  0  0  0  0  0  0  0  0  0
   58.8012   29.5183   43.4478 H   0  0  0  0  0  0  0  0  0  0  0  0
   58.4023   30.8563   46.6059 H   0  0  0  0  0  0  0  0  0  0  0  0
   56.4322   30.3409   50.6360 H   0  0  0  0  0  0  0  0  0  0  0  0
   54.2377   32.0494   52.0076 H   0  0  0  0  0  0  0  0  0  0  0  0
   54.2083   30.5819   50.9629 H   0  0  0  0  0  0  0  0  0  0  0  0
   52.0859   29.9700   52.4445 H   0  0  0  0  0  0  0  0  0  0  0  0
   52.0567   31.7636   52.7103 H   0  0  0  0  0  0  0  0  0  0  0  0
  1  2  1  0
  2  3  1  0
  3  4  2  0
  4  5  1  0
  5  6  1  0
  6  7  2  0
  6  8  1  0
  8  9  1  0
  9 10  2  0
 10 11  1  0
 11 12  2  0
 12 13  1  0
 13 14  1  0
 14 15  1  0
 15 16  2  0
 15 17  1  0
 17 18  1  0
 18 19  1  0
 19 20  1  0
 20 21  1  0
 21 22  1  0
 13 23  2  0
  4 24  1  0
 24 25  2  0
 25 26  1  0
 26 27  2  0
 26 28  1  0
 28 29  1  0
 29 30  1  0
 30 31  1  0
 31 32  2  0
 32 33  1  0
 33 34  1  0
 34 35  2  0
 34 36  1  0
 25  2  1  0
 36 31  1  0
 23  9  1  0
 22 17  1  0
  1 37  1  0
  1 38  1  0
  1 39  1  0
  3 40  1  0
  5 41  1  0
  8 42  1  0
  8 43  1  0
 10 44  1  0
 11 45  1  0
 12 46  1  0
 17 47  1  0
 18 48  1  0
 18 49  1  0
 19 50  1  0
 19 51  1  0
 20 52  1  0
 20 53  1  0
 21 54  1  0
 21 55  1  0
 22 56  1  0
 22 57  1  0
 23 58  1  0
 24 59  1  0
 29 60  1  0
 29 61  1  0
 30 62  1  0
 30 63  1  0
M  CHG  4  14  -1  28  -1  33  -1  36  -1
M  END
>  <UniqueID>  (6) 
6

>  <SMILES>  (6) 
Cn1cc(NC(=O)Cc2cccc([N-]C(=O)C3CCCCC3)c2)cc1C(=O)[N-]CCc1n[n-]c(=O)[n-]1

>  <Energy>  (6) 
132.63661193669452

>  <Genealogy>  (6) 
Cn1cc(NC(=O)Cc2cccc([N-]C(=O)C3CCCCC3)c2)cc1C(=O)[N-]CCc1n[n-]c(=O)[n-]1 (protonated)
Cn1cc(NC(=O)Cc2cccc([N-]C(=O)C3CCCCC3)c2)cc1C(=O)[N-]CCc1n[n-]c(=O)[n-]1 (3D coordinates assigned)
Cn1cc(NC(=O)Cc2cccc([N-]C(=O)C3CCCCC3)c2)cc1C(=O)[N-]CCc1n[n-]c(=O)[n-]1 (nonaromatic ring conformer: 132.63661193669452 kcal/mol)

>  <smiles>  (6) 
Cn1cc(NC(=O)Cc2cccc(NC(=O)C3CCCCC3)c2)cc1C(=O)NCCc1n[nH]c(=O)[nH]1

>  <score_type>  (6) 
oracle

>  <origin>  (6) 
adg

>  <m_score__min__energy>  (6) 
-18.699999999999999

>  <m_primary>  (6) 
energy

$$$$
6:0
     RDKit          3D

 56 59  0  0  0  0  0  0  0  0999 V2000
   57.3884   33.0010   47.4836 H   0  0  0  0  0  0  0  0  0  0  0  0
   58.4480   32.8010   47.7010 C   0  0  0  0  0  0  0  0  0  0  0  0
   59.0980   33.5410   48.6360 N   0  0  0  0  0  0  0  0  0  0  0  0
   60.4120   33.3400   48.9340 C   0  0  0  0  0  0  0  0  0  0  0  0
   61.0130   34.0600   49.8340 N   0  0  0  0  0  0  0  0  0  0  0  0
   60.9750   33.8030   51.2740 C   0  0  0  0  0  0  0  0  0  0  0  0
   60.9526   34.7616   51.8130 H   0  0  0  0  0  0  0  0  0  0  0  0
   61.8703   33.2309   51.5587 H   0  0  0  0  0  0  0  0  0  0  0  0
   59.7500   33.0040   51.6310 C   0  0  0  0  0  0  0  0  0  0  0  0
   59.7510   31.6030   51.5220 C   0  0  0  0  0  0  0  0  0  0  0  0
   60.6643   31.0787   51.2043 H   0  0  0  0  0  0  0  0  0  0  0  0
   58.5950   30.8730   51.8160 C   0  0  0  0  0  0  0  0  0  0  0  0
   58.6020   29.7768   51.7249 H   0  0  0  0  0  0  0  0  0  0  0  0
   57.4280   31.5310   52.2260 C   0  0  0  0  0  0  0  0  0  0  0  0
   55.9790   30.5980   52.5900 S   0  0  0  0  0  0  0  0  0  0  0  0
   56.1960   29.1490   52.2570 O   0  0  0  0  0  0  0  0  0  0  0  0
   55.6610   30.7210   54.0540 O   0  0  0  0  0  0  0  0  0  0  0  0
   54.6480   31.1890   51.6550 N   0  0  0  0  0  0  0  0  0  0  0  0
   54.4610   32.1680   51.9660 H   0  0  0  0  0  0  0  0  0  0  0  0
   54.9710   31.2430   50.6630 H   0  0  0  0  0  0  0  0  0  0  0  0
   57.4240   32.9290   52.3320 C   0  0  0  0  0  0  0  0  0  0  0  0
   56.5104   33.4516   52.6518 H   0  0  0  0  0  0  0  0  0  0  0  0
   58.5760   33.6610   52.0330 C   0  0  0  0  0  0  0  0  0  0  0  0
   58.5631   34.7580   52.1130 H   0  0  0  0  0  0  0  0  0  0  0  0
   61.1270   32.3460   48.2570 C   0  0  0  0  0  0  0  0  0  0  0  0
   62.1891   32.1737   48.4857 H   0  0  0  0  0  0  0  0  0  0  0  0
   60.4810   31.5740   47.2880 C   0  0  0  0  0  0  0  0  0  0  0  0
   61.0400   30.8006   46.7409 H   0  0  0  0  0  0  0  0  0  0  0  0
   59.1230   31.7820   47.0110 C   0  0  0  0  0  0  0  0  0  0  0  0
   58.4190   30.9780   45.9880 C   0  0  0  0  0  0  0  0  0  0  0  0
   57.5340   31.5320   45.2790 O   0  0  0  0  0  0  0  0  0  0  0  0
   58.7030   29.5770   45.8030 N   0  0  0  0  0  0  0  0  0  0  0  0
   58.5260   28.9570   44.4830 C   0  0  0  0  0  0  0  0  0  0  0  0
   58.2739   29.7366   43.7491 H   0  0  0  0  0  0  0  0  0  0  0  0
   59.4629   28.4545   44.2005 H   0  0  0  0  0  0  0  0  0  0  0  0
   57.3970   27.9130   44.5180 C   0  0  0  0  0  0  0  0  0  0  0  0
   56.4402   28.4267   44.3430 H   0  0  0  0  0  0  0  0  0  0  0  0
   57.6153   27.1691   43.7377 H   0  0  0  0  0  0  0  0  0  0  0  0
   57.3090   27.1530   45.8680 C   0  0  0  0  0  0  0  0  0  0  0  0
   56.5279   27.6412   46.4693 H   0  0  0  0  0  0  0  0  0  0  0  0
   56.9240   25.7540   45.6500 N   0  0  0  0  0  0  0  0  0  0  0  0
   55.5920   25.2820   45.6170 C   0  0  0  0  0  0  0  0  0  0  0  0
   54.6010   25.9690   45.9820 O   0  0  0  0  0  0  0  0  0  0  0  0
   55.4720   23.9700   45.1140 N   0  0  0  0  0  0  0  0  0  0  0  0
   56.8180   23.5240   44.7710 C   0  0  0  0  0  0  0  0  0  0  0  0
   56.8665   23.2450   43.7081 H   0  0  0  0  0  0  0  0  0  0  0  0
   57.1062   22.6405   45.3596 H   0  0  0  0  0  0  0  0  0  0  0  0
   57.7620   24.7170   45.0540 C   0  0  0  0  0  0  0  0  0  0  0  0
   58.2127   25.0794   44.1183 H   0  0  0  0  0  0  0  0  0  0  0  0
   58.5881   24.4305   45.7214 H   0  0  0  0  0  0  0  0  0  0  0  0
   58.6200   27.2460   46.6720 C   0  0  0  0  0  0  0  0  0  0  0  0
   58.5071   26.6957   47.6177 H   0  0  0  0  0  0  0  0  0  0  0  0
   59.4378   26.8083   46.0807 H   0  0  0  0  0  0  0  0  0  0  0  0
   58.9480   28.7160   46.9750 C   0  0  0  0  0  0  0  0  0  0  0  0
   58.3170   29.0586   47.8084 H   0  0  0  0  0  0  0  0  0  0  0  0
   60.0141   28.7848   47.2371 H   0  0  0  0  0  0  0  0  0  0  0  0
  1  2  1  0
  2  3  1  0
  3  4  1  0
  4  5  2  0
  5  6  1  0
  6  7  1  0
  6  8  1  0
  6  9  1  0
  9 10  2  0
 10 11  1  0
 10 12  1  0
 12 13  1  0
 12 14  2  0
 14 15  1  0
 15 16  2  0
 15 17  2  0
 15 18  1  0
 18 19  1  0
 18 20  1  0
 14 21  1  0
 21 22  1  0
 21 23  2  0
 23 24  1  0
  4 25  1  0
 25 26  1  0
 25 27  2  0
 27 28  1  0
 27 29  1  0
 29 30  1  0
 30 31  2  0
 30 32  1  0
 32 33  1  0
 33 34  1  0
 33 35  1  0
 33 36  1  0
 36 37  1  0
 36 38  1  0
 36 39  1  0
 39 40  1  0
 39 41  1  0
 41 42  1  0
 42 43  2  0
 42 44  1  0
 44 45  1  0
 45 46  1  0
 45 47  1  0
 45 48  1  0
 48 49  1  0
 48 50  1  0
 39 51  1  0
 51 52  1  0
 51 53  1  0
 51 54  1  0
 54 55  1  0
 54 56  1  0
 29  2  2  0
 54 32  1  0
 23  9  1  0
 48 41  1  0
M  CHG  2   3  -1  44  -1
M  END
>  <UniqueID>  (7) 
7

>  <SMILES>  (7) 
NS(=O)(=O)c1ccc(C/N=c2/ccc(C(=O)N3CCC(N4CC[N-]C4=O)CC3)c[n-]2)cc1

>  <Energy>  (7) 
77.29464387643084

>  <Genealogy>  (7) 
NS(=O)(=O)c1ccc(CN=c2ccc(C(=O)N3CCC(N4CC[N-]C4=O)CC3)c[n-]2)cc1 (protonated)
NS(=O)(=O)c1ccc(C/N=c2/ccc(C(=O)N3CCC(N4CC[N-]C4=O)CC3)c[n-]2)cc1 (cis-trans isomerization)
NS(=O)(=O)c1ccc(C/N=c2/ccc(C(=O)N3CCC(N4CC[N-]C4=O)CC3)c[n-]2)cc1 (3D coordinates assigned)
NS(=O)(=O)c1ccc(C/N=c2/ccc(C(=O)N3CCC(N4CC[N-]C4=O)CC3)c[n-]2)cc1 (nonaromatic ring conformer: 77.29464387643084 kcal/mol)

>  <smiles>  (7) 
NS(=O)(=O)c1ccc(CN=c2ccc(C(=O)N3CCC(N4CCNC4=O)CC3)c[nH]2)cc1

>  <score_type>  (7) 
oracle

>  <origin>  (7) 
adg

>  <m_score__min__energy>  (7) 
-12.49

>  <m_primary>  (7) 
energy

$$$$
7:0
     RDKit          3D

 49 52  0  0  0  0  0  0  0  0999 V2000
   53.4460   28.7480   53.9630 C   0  0  0  0  0  0  0  0  0  0  0  0
   54.4640   29.3230   53.3030 C   0  0  0  0  0  0  0  0  0  0  0  0
   54.4530   30.5660   52.6480 C   0  0  0  0  0  0  0  0  0  0  0  0
   53.4380   31.3910   52.3270 C   0  0  0  0  0  0  0  0  0  0  0  0
   52.4660   31.1710   51.2440 C   0  0  0  0  0  0  0  0  0  0  0  0
   52.5690   30.2130   50.3040 N   0  0  0  0  0  0  0  0  0  0  0  0
   51.5380   30.4790   49.4730 C   0  0  0  0  0  0  0  0  0  0  0  0
   51.2870   29.7780   48.4590 O   0  0  0  0  0  0  0  0  0  0  0  0
   50.8050   31.5630   49.8090 N   0  0  0  0  0  0  0  0  0  0  0  0
   51.4170   31.9960   50.9220 C   0  0  0  0  0  0  0  0  0  0  0  0
   51.0270   33.1280   51.6270 O   0  0  0  0  0  0  0  0  0  0  0  0
   55.7720   30.8430   52.3270 C   0  0  0  0  0  0  0  0  0  0  0  0
   56.5220   29.7640   52.7420 C   0  0  0  0  0  0  0  0  0  0  0  0
   57.9850   29.6680   52.5730 C   0  0  0  0  0  0  0  0  0  0  0  0
   58.5170   28.5250   52.5650 O   0  0  0  0  0  0  0  0  0  0  0  0
   58.8040   30.8380   52.3840 N   0  0  0  0  0  0  0  0  0  0  0  0
   60.2130   30.7950   52.8080 C   0  0  0  0  0  0  0  0  0  0  0  0
   60.9070   32.1370   52.5680 C   0  0  0  0  0  0  0  0  0  0  0  0
   60.6210   32.5970   51.2030 N   0  0  0  0  0  0  0  0  0  0  0  0
   61.6920   32.9350   50.2990 C   0  0  0  0  0  0  0  0  0  0  0  0
   63.0190   33.0100   50.7600 C   0  0  0  0  0  0  0  0  0  0  0  0
   64.0570   33.3240   49.8790 C   0  0  0  0  0  0  0  0  0  0  0  0
   63.7830   33.5620   48.5300 C   0  0  0  0  0  0  0  0  0  0  0  0
   62.4710   33.4780   48.0560 C   0  0  0  0  0  0  0  0  0  0  0  0
   62.1310   33.7680   46.3600 Cl  0  0  0  0  0  0  0  0  0  0  0  0
   61.4290   33.1670   48.9360 C   0  0  0  0  0  0  0  0  0  0  0  0
   59.2330   32.6060   50.7140 C   0  0  0  0  0  0  0  0  0  0  0  0
   58.2580   32.0550   51.7640 C   0  0  0  0  0  0  0  0  0  0  0  0
   55.7270   28.8250   53.3080 N   0  0  0  0  0  0  0  0  0  0  0  0
   56.1460   27.5190   53.8270 C   0  0  0  0  0  0  0  0  0  0  0  0
   53.5830   27.7646   54.4364 H   0  0  0  0  0  0  0  0  0  0  0  0
   52.4749   29.2603   54.0303 H   0  0  0  0  0  0  0  0  0  0  0  0
   53.3259   32.3073   52.9252 H   0  0  0  0  0  0  0  0  0  0  0  0
   56.1489   31.7515   51.8345 H   0  0  0  0  0  0  0  0  0  0  0  0
   60.2572   30.5555   53.8807 H   0  0  0  0  0  0  0  0  0  0  0  0
   60.7304   30.0258   52.2158 H   0  0  0  0  0  0  0  0  0  0  0  0
   60.5337   32.8776   53.2906 H   0  0  0  0  0  0  0  0  0  0  0  0
   61.9930   32.0169   52.6952 H   0  0  0  0  0  0  0  0  0  0  0  0
   63.2408   32.8203   51.8206 H   0  0  0  0  0  0  0  0  0  0  0  0
   65.0915   33.3839   50.2482 H   0  0  0  0  0  0  0  0  0  0  0  0
   64.6011   33.8159   47.8399 H   0  0  0  0  0  0  0  0  0  0  0  0
   60.3972   33.1033   48.5602 H   0  0  0  0  0  0  0  0  0  0  0  0
   58.9475   33.6400   50.4702 H   0  0  0  0  0  0  0  0  0  0  0  0
   59.1786   31.9620   49.8239 H   0  0  0  0  0  0  0  0  0  0  0  0
   58.0951   32.8158   52.5416 H   0  0  0  0  0  0  0  0  0  0  0  0
   57.3062   31.8075   51.2712 H   0  0  0  0  0  0  0  0  0  0  0  0
   56.1386   27.5420   54.9267 H   0  0  0  0  0  0  0  0  0  0  0  0
   55.4516   26.7433   53.4718 H   0  0  0  0  0  0  0  0  0  0  0  0
   57.1620   27.2921   53.4718 H   0  0  0  0  0  0  0  0  0  0  0  0
  1  2  2  0
  2  3  1  0
  3  4  2  3
  4  5  1  0
  5  6  1  0
  6  7  1  0
  7  8  2  0
  7  9  1  0
  9 10  1  0
 10 11  1  0
  3 12  1  0
 12 13  2  0
 13 14  1  0
 14 15  2  0
 14 16  1  0
 16 17  1  0
 17 18  1  0
 18 19  1  0
 19 20  1  0
 20 21  2  0
 21 22  1  0
 22 23  2  0
 23 24  1  0
 24 25  1  0
 24 26  2  0
 19 27  1  0
 27 28  1  0
 13 29  1  0
 29 30  1  0
 29  2  1  0
 10  5  2  0
 28 16  1  0
 26 20  1  0
  1 31  1  0
  1 32  1  0
  4 33  1  0
 12 34  1  0
 17 35  1  0
 17 36  1  0
 18 37  1  0
 18 38  1  0
 21 39  1  0
 22 40  1  0
 23 41  1  0
 26 42  1  0
 27 43  1  0
 27 44  1  0
 28 45  1  0
 28 46  1  0
 30 47  1  0
 30 48  1  0
 30 49  1  0
M  CHG  3   6  -1   9  -1  11  -1
M  END
>  <UniqueID>  (8) 
8

>  <SMILES>  (8) 
C=c1c(=Cc2[n-]c(=O)[n-]c2[O-])cc(C(=O)N2CCN(c3cccc(Cl)c3)CC2)n1C

>  <Energy>  (8) 
131.33956701187734

>  <Genealogy>  (8) 
C=c1c(=Cc2[n-]c(=O)[n-]c2[O-])cc(C(=O)N2CCN(c3cccc(Cl)c3)CC2)n1C (protonated)
C=c1c(=Cc2[n-]c(=O)[n-]c2[O-])cc(C(=O)N2CCN(c3cccc(Cl)c3)CC2)n1C (3D coordinates assigned)
C=c1c(=Cc2[n-]c(=O)[n-]c2[O-])cc(C(=O)N2CCN(c3cccc(Cl)c3)CC2)n1C (nonaromatic ring conformer: 131.33956701187734 kcal/mol)

>  <smiles>  (8) 
C=c1c(=Cc2[nH]c(=O)[nH]c2O)cc(C(=O)N2CCN(c3cccc(Cl)c3)CC2)n1C

>  <score_type>  (8) 
oracle

>  <origin>  (8) 
adg

>  <m_score__min__energy>  (8) 
-17.489999999999998

>  <m_primary>  (8) 
energy

$$$$
8:0
     RDKit          3D

 26 27  0  0  0  0  0  0  0  0999 V2000
   57.8530   33.5970   46.8750 C   0  0  0  0  0  0  0  0  0  0  0  0
   57.9100   32.6840   45.9100 C   0  0  0  0  0  0  0  0  0  0  0  0
   57.5540   32.9150   44.5540 N   0  0  0  0  0  0  0  0  0  0  0  0
   57.7440   31.6660   43.8800 C   0  0  0  0  0  0  0  0  0  0  0  0
   57.4180   31.4720   42.4320 C   0  0  0  0  0  0  0  0  0  0  0  0
   58.2250   30.7210   44.7040 C   0  0  0  0  0  0  0  0  0  0  0  0
   58.4580   29.3030   44.3780 C   0  0  0  0  0  0  0  0  0  0  0  0
   57.8960   28.2580   45.0270 C   0  0  0  0  0  0  0  0  0  0  0  0
   58.6780   27.1130   45.5740 C   0  0  0  0  0  0  0  0  0  0  0  0
   59.9370   27.1270   45.5950 O   0  0  0  0  0  0  0  0  0  0  0  0
   57.9980   25.9890   46.1340 N   0  0  0  0  0  0  0  0  0  0  0  0
   56.5780   25.9650   46.2590 C   0  0  0  0  0  0  0  0  0  0  0  0
   56.0090   24.9550   46.7480 O   0  0  0  0  0  0  0  0  0  0  0  0
   55.8040   27.0920   45.8430 N   0  0  0  0  0  0  0  0  0  0  0  0
   56.4270   28.2340   45.2450 C   0  0  0  0  0  0  0  0  0  0  0  0
   55.7070   29.2100   44.8970 O   0  0  0  0  0  0  0  0  0  0  0  0
   58.3270   31.3010   46.0370 C   0  0  0  0  0  0  0  0  0  0  0  0
   58.7020   30.7150   47.0870 O   0  0  0  0  0  0  0  0  0  0  0  0
   58.1483   33.3321   47.9010 H   0  0  0  0  0  0  0  0  0  0  0  0
   57.5105   34.6172   46.6474 H   0  0  0  0  0  0  0  0  0  0  0  0
   57.1910   33.8020   44.1400 H   0  0  0  0  0  0  0  0  0  0  0  0
   56.4760   30.9114   42.3401 H   0  0  0  0  0  0  0  0  0  0  0  0
   57.3099   32.4528   41.9459 H   0  0  0  0  0  0  0  0  0  0  0  0
   58.2285   30.9092   41.9459 H   0  0  0  0  0  0  0  0  0  0  0  0
   59.1398   29.0776   43.5447 H   0  0  0  0  0  0  0  0  0  0  0  0
   54.7660   27.0770   45.9680 H   0  0  0  0  0  0  0  0  0  0  0  0
  1  2  2  0
  2  3  1  0
  3  4  1  0
  4  5  1  0
  4  6  2  0
  6  7  1  0
  7  8  2  3
  8  9  1  0
  9 10  2  0
  9 11  1  0
 11 12  1  0
 12 13  2  0
 12 14  1  0
 14 15  1  0
 15 16  2  0
  6 17  1  0
 17 18  2  0
 17  2  1  0
 15  8  1  0
  1 19  1  0
  1 20  1  0
  3 21  1  0
  5 22  1  0
  5 23  1  0
  5 24  1  0
  7 25  1  0
 14 26  1  0
M  CHG  1  11  -1
M  END
>  <UniqueID>  (9) 
9

>  <SMILES>  (9) 
C=C1NC(C)=C(C=C2C(=O)[N-]C(=O)NC2=O)C1=O

>  <Energy>  (9) 
57.82741842503351

>  <Genealogy>  (9) 
C=C1NC(C)=C(C=C2C(=O)[N-]C(=O)NC2=O)C1=O (protonated)
C=C1NC(C)=C(C=C2C(=O)[N-]C(=O)NC2=O)C1=O (3D coordinates assigned)
C=C1NC(C)=C(C=C2C(=O)[N-]C(=O)NC2=O)C1=O (nonaromatic ring conformer: 57.82741842503351 kcal/mol)

>  <smiles>  (9) 
C=C1NC(C)=C(C=C2C(=O)NC(=O)NC2=O)C1=O

>  <score_type>  (9) 
oracle

>  <origin>  (9) 
adg

>  <m_score__min__energy>  (9) 
-8.8699999999999992

>  <m_primary>  (9) 
energy

$$$$
9:0
     RDKit          3D

 70 74  0  0  0  0  0  0  0  0999 V2000
   60.9340   34.6530   47.4800 O   0  0  0  0  0  0  0  0  0  0  0  0
   59.7480   34.2820   47.6850 C   0  0  0  0  0  0  0  0  0  0  0  0
   58.7640   34.5280   46.6740 N   0  0  0  0  0  0  0  0  0  0  0  0
   58.4520   33.7030   45.7200 C   0  0  0  0  0  0  0  0  0  0  0  0
   58.1230   34.1270   44.4800 N   0  0  0  0  0  0  0  0  0  0  0  0
   57.7340   33.0980   43.6810 C   0  0  0  0  0  0  0  0  0  0  0  0
   57.7630   31.8490   44.2860 C   0  0  0  0  0  0  0  0  0  0  0  0
   57.2290   30.5780   43.7020 C   0  0  0  0  0  0  0  0  0  0  0  0
   57.7530   29.3980   44.4810 C   0  0  0  0  0  0  0  0  0  0  0  0
   59.1250   29.1020   44.4860 C   0  0  0  0  0  0  0  0  0  0  0  0
   59.6060   27.9900   45.1860 C   0  0  0  0  0  0  0  0  0  0  0  0
   58.7200   27.1440   45.8680 C   0  0  0  0  0  0  0  0  0  0  0  0
   59.2360   25.9880   46.6220 C   0  0  0  0  0  0  0  0  0  0  0  0
   59.4660   24.9100   46.0120 O   0  0  0  0  0  0  0  0  0  0  0  0
   59.4710   26.0500   48.0320 N   0  0  0  0  0  0  0  0  0  0  0  0
   60.3470   27.0180   48.6870 C   0  0  0  0  0  0  0  0  0  0  0  0
   59.6130   28.3470   48.9090 C   0  0  0  0  0  0  0  0  0  0  0  0
   60.5310   29.5140   48.6650 C   0  0  0  0  0  0  0  0  0  0  0  0
   61.3440   30.0110   49.6990 C   0  0  0  0  0  0  0  0  0  0  0  0
   62.2120   31.0830   49.4590 C   0  0  0  0  0  0  0  0  0  0  0  0
   62.2790   31.6630   48.1830 C   0  0  0  0  0  0  0  0  0  0  0  0
   63.1360   32.7340   47.9310 O   0  0  0  0  0  0  0  0  0  0  0  0
   61.4770   31.1650   47.1510 C   0  0  0  0  0  0  0  0  0  0  0  0
   60.6150   30.0890   47.3850 C   0  0  0  0  0  0  0  0  0  0  0  0
   57.3480   27.4340   45.8590 C   0  0  0  0  0  0  0  0  0  0  0  0
   56.8660   28.5500   45.1650 C   0  0  0  0  0  0  0  0  0  0  0  0
   58.2680   32.0350   45.8820 S   0  0  0  0  0  0  0  0  0  0  0  0
   59.4200   33.5320   48.9180 C   0  0  0  0  0  0  0  0  0  0  0  0
   60.0530   33.8560   50.1300 C   0  0  0  0  0  0  0  0  0  0  0  0
   59.7780   33.1250   51.2890 C   0  0  0  0  0  0  0  0  0  0  0  0
   58.8710   32.0540   51.2510 C   0  0  0  0  0  0  0  0  0  0  0  0
   58.5810   31.0860   52.6980 S   0  0  0  0  0  0  0  0  0  0  0  0
   58.7270   29.6300   52.3460 O   0  0  0  0  0  0  0  0  0  0  0  0
   59.6320   31.4110   53.7240 O   0  0  0  0  0  0  0  0  0  0  0  0
   56.9970   31.3590   53.3990 N   0  0  0  0  0  0  0  0  0  0  0  0
   56.5980   30.2950   54.3390 C   0  0  0  0  0  0  0  0  0  0  0  0
   55.9800   29.0630   53.6330 C   0  0  0  0  0  0  0  0  0  0  0  0
   55.7270   29.2730   52.2560 O   0  0  0  0  0  0  0  0  0  0  0  0
   55.0370   30.4880   52.0850 C   0  0  0  0  0  0  0  0  0  0  0  0
   55.9670   31.6750   52.3820 C   0  0  0  0  0  0  0  0  0  0  0  0
   58.2410   31.7270   50.0430 C   0  0  0  0  0  0  0  0  0  0  0  0
   58.5090   32.4620   48.8850 C   0  0  0  0  0  0  0  0  0  0  0  0
   57.4208   33.2439   42.6367 H   0  0  0  0  0  0  0  0  0  0  0  0
   56.1301   30.5878   43.7493 H   0  0  0  0  0  0  0  0  0  0  0  0
   57.5543   30.4949   42.6545 H   0  0  0  0  0  0  0  0  0  0  0  0
   59.8259   29.7477   43.9366 H   0  0  0  0  0  0  0  0  0  0  0  0
   60.6853   27.7784   45.2013 H   0  0  0  0  0  0  0  0  0  0  0  0
   60.6678   26.6154   49.6591 H   0  0  0  0  0  0  0  0  0  0  0  0
   61.2203   27.1985   48.0430 H   0  0  0  0  0  0  0  0  0  0  0  0
   58.7608   28.4080   48.2161 H   0  0  0  0  0  0  0  0  0  0  0  0
   59.2639   28.3861   49.9514 H   0  0  0  0  0  0  0  0  0  0  0  0
   61.2979   29.5562   50.6995 H   0  0  0  0  0  0  0  0  0  0  0  0
   62.8427   31.4713   50.2723 H   0  0  0  0  0  0  0  0  0  0  0  0
   62.7930   33.6260   47.5890 H   0  0  0  0  0  0  0  0  0  0  0  0
   61.5245   31.6215   46.1513 H   0  0  0  0  0  0  0  0  0  0  0  0
   60.0003   29.6910   46.5642 H   0  0  0  0  0  0  0  0  0  0  0  0
   56.6471   26.7813   46.4000 H   0  0  0  0  0  0  0  0  0  0  0  0
   55.7871   28.7641   45.1551 H   0  0  0  0  0  0  0  0  0  0  0  0
   60.7693   34.6900   50.1668 H   0  0  0  0  0  0  0  0  0  0  0  0
   60.2740   33.3897   52.2345 H   0  0  0  0  0  0  0  0  0  0  0  0
   57.4879   29.9690   54.8974 H   0  0  0  0  0  0  0  0  0  0  0  0
   55.8273   30.7146   55.0023 H   0  0  0  0  0  0  0  0  0  0  0  0
   56.6759   28.2172   53.7348 H   0  0  0  0  0  0  0  0  0  0  0  0
   55.0113   28.8643   54.1148 H   0  0  0  0  0  0  0  0  0  0  0  0
   54.6781   30.5588   51.0476 H   0  0  0  0  0  0  0  0  0  0  0  0
   54.1855   30.5173   52.7808 H   0  0  0  0  0  0  0  0  0  0  0  0
   56.4722   31.9671   51.4496 H   0  0  0  0  0  0  0  0  0  0  0  0
   55.3457   32.4894   52.7829 H   0  0  0  0  0  0  0  0  0  0  0  0
   57.5316   30.8872   50.0059 H   0  0  0  0  0  0  0  0  0  0  0  0
   58.0044   32.2019   47.9428 H   0  0  0  0  0  0  0  0  0  0  0  0
  1  2  2  0
  2  3  1  0
  3  4  2  3
  4  5  1  0
  5  6  1  0
  6  7  2  0
  7  8  1  0
  8  9  1  0
  9 10  2  0
 10 11  1  0
 11 12  2  0
 12 13  1  0
 13 14  2  0
 13 15  1  0
 15 16  1  0
 16 17  1  0
 17 18  1  0
 18 19  2  0
 19 20  1  0
 20 21  2  0
 21 22  1  0
 21 23  1  0
 23 24  2  0
 12 25  1  0
 25 26  2  0
  7 27  1  0
  2 28  1  0
 28 29  2  0
 29 30  1  0
 30 31  2  0
 31 32  1  0
 32 33  2  0
 32 34  2  0
 32 35  1  0
 35 36  1  0
 36 37  1  0
 37 38  1  0
 38 39  1  0
 39 40  1  0
 31 41  1  0
 41 42  2  0
 27  4  1  0
 42 28  1  0
 26  9  1  0
 40 35  1  0
 24 18  1  0
  6 43  1  0
  8 44  1  0
  8 45  1  0
 10 46  1  0
 11 47  1  0
 16 48  1  0
 16 49  1  0
 17 50  1  0
 17 51  1  0
 19 52  1  0
 20 53  1  0
 22 54  1  0
 23 55  1  0
 24 56  1  0
 25 57  1  0
 26 58  1  0
 29 59  1  0
 30 60  1  0
 36 61  1  0
 36 62  1  0
 37 63  1  0
 37 64  1  0
 39 65  1  0
 39 66  1  0
 40 67  1  0
 40 68  1  0
 41 69  1  0
 42 70  1  0
M  CHG  2   5  -1  15  -1
M  END
>  <UniqueID>  (10) 
10

>  <SMILES>  (10) 
O=C(N=c1[n-]cc(Cc2ccc(C(=O)[N-]CCc3ccc(O)cc3)cc2)s1)c1ccc(S(=O)(=O)N2CCOCC2)cc1

>  <Energy>  (10) 
121.11633900249315

>  <Genealogy>  (10) 
O=C(N=c1[n-]cc(Cc2ccc(C(=O)[N-]CCc3ccc(O)cc3)cc2)s1)c1ccc(S(=O)(=O)N2CCOCC2)cc1 (protonated)
O=C(N=c1[n-]cc(Cc2ccc(C(=O)[N-]CCc3ccc(O)cc3)cc2)s1)c1ccc(S(=O)(=O)N2CCOCC2)cc1 (3D coordinates assigned)
O=C(N=c1[n-]cc(Cc2ccc(C(=O)[N-]CCc3ccc(O)cc3)cc2)s1)c1ccc(S(=O)(=O)N2CCOCC2)cc1 (nonaromatic ring conformer: 121.11633900249315 kcal/mol)

>  <smiles>  (10) 
O=C(N=c1[nH]cc(Cc2ccc(C(=O)NCCc3ccc(O)cc3)cc2)s1)c1ccc(S(=O)(=O)N2CCOCC2)cc1

>  <score_type>  (10) 
oracle

>  <origin>  (10) 
adg

>  <m_score__min__energy>  (10) 
-12.26

>  <m_primary>  (10) 
energy

$$$$
10:0
     RDKit          3D

 56 59  0  0  0  0  0  0  0  0999 V2000
   51.4470   33.0850   48.3300 H   0  0  0  0  0  0  0  0  0  0  0  0
   50.7340   32.7140   48.9980 N   0  0  0  0  0  0  0  0  0  0  0  0
   51.0650   31.9460   49.9830 C   0  0  0  0  0  0  0  0  0  0  0  0
   51.4340   30.6580   49.7550 N   0  0  0  0  0  0  0  0  0  0  0  0
   51.7850   29.8380   50.7790 C   0  0  0  0  0  0  0  0  0  0  0  0
   52.0747   28.7969   50.5736 H   0  0  0  0  0  0  0  0  0  0  0  0
   51.7790   30.3150   52.0970 C   0  0  0  0  0  0  0  0  0  0  0  0
   52.1320   29.3960   53.2390 C   0  0  0  0  0  0  0  0  0  0  0  0
   51.3601   29.4738   54.0188 H   0  0  0  0  0  0  0  0  0  0  0  0
   52.1864   28.3638   52.8628 H   0  0  0  0  0  0  0  0  0  0  0  0
   53.4670   29.7740   53.8230 C   0  0  0  0  0  0  0  0  0  0  0  0
   53.5730   30.1350   55.1740 C   0  0  0  0  0  0  0  0  0  0  0  0
   52.6730   30.1660   55.8057 H   0  0  0  0  0  0  0  0  0  0  0  0
   54.8170   30.4550   55.7190 C   0  0  0  0  0  0  0  0  0  0  0  0
   54.8926   30.7456   56.7772 H   0  0  0  0  0  0  0  0  0  0  0  0
   55.9670   30.4080   54.9270 C   0  0  0  0  0  0  0  0  0  0  0  0
   56.9422   30.6690   55.3638 H   0  0  0  0  0  0  0  0  0  0  0  0
   55.8860   30.0290   53.5740 C   0  0  0  0  0  0  0  0  0  0  0  0
   57.0940   29.9690   52.7070 C   0  0  0  0  0  0  0  0  0  0  0  0
   57.2690   28.9460   51.9850 O   0  0  0  0  0  0  0  0  0  0  0  0
   58.0530   31.0570   52.6500 N   0  0  1  0  0  0  0  0  0  0  0  0
   58.4850   31.1620   53.5970 H   0  0  0  0  0  0  0  0  0  0  0  0
   59.1870   30.7210   51.7410 C   0  0  0  0  0  0  0  0  0  0  0  0
   59.3078   29.6277   51.7268 H   0  0  0  0  0  0  0  0  0  0  0  0
   60.0754   31.2379   52.1329 H   0  0  0  0  0  0  0  0  0  0  0  0
   58.9880   31.2070   50.2910 C   0  0  0  0  0  0  0  0  0  0  0  0
   58.1843   30.6144   49.8296 H   0  0  0  0  0  0  0  0  0  0  0  0
   59.9459   31.0779   49.7658 H   0  0  0  0  0  0  0  0  0  0  0  0
   58.6090   32.7060   50.2030 C   0  0  2  0  0  0  0  0  0  0  0  0
   57.6913   32.7123   49.5966 H   0  0  0  0  0  0  0  0  0  0  0  0
   59.5910   33.5670   49.4250 C   0  0  0  0  0  0  0  0  0  0  0  0
   60.6470   33.9190   50.0210 O   0  0  0  0  0  0  0  0  0  0  0  0
   59.4080   33.9840   48.0510 N   0  0  0  0  0  0  0  0  0  0  0  0
   60.3840   34.8320   47.3840 C   0  0  0  0  0  0  0  0  0  0  0  0
   60.5640   35.7436   47.9728 H   0  0  0  0  0  0  0  0  0  0  0  0
   61.3512   34.3205   47.2706 H   0  0  0  0  0  0  0  0  0  0  0  0
   59.7790   35.1860   46.0330 C   0  0  0  0  0  0  0  0  0  0  0  0
   59.3605   36.2031   46.0544 H   0  0  0  0  0  0  0  0  0  0  0  0
   60.5323   35.1648   45.2317 H   0  0  0  0  0  0  0  0  0  0  0  0
   58.6770   34.1630   45.7970 C   0  0  0  0  0  0  0  0  0  0  0  0
   57.8103   34.6377   45.3138 H   0  0  0  0  0  0  0  0  0  0  0  0
   59.0120   33.3514   45.1343 H   0  0  0  0  0  0  0  0  0  0  0  0
   58.2960   33.6410   47.1760 C   0  0  0  0  0  0  0  0  0  0  0  0
   57.3708   34.1224   47.5257 H   0  0  0  0  0  0  0  0  0  0  0  0
   58.1115   32.5567   47.1617 H   0  0  0  0  0  0  0  0  0  0  0  0
   58.2440   33.3160   51.5650 C   0  0  0  0  0  0  0  0  0  0  0  0
   57.7017   34.2607   51.4119 H   0  0  0  0  0  0  0  0  0  0  0  0
   59.1607   33.5134   52.1400 H   0  0  0  0  0  0  0  0  0  0  0  0
   57.3550   32.3330   52.3330 C   0  0  0  0  0  0  0  0  0  0  0  0
   56.4691   32.1073   51.7213 H   0  0  0  0  0  0  0  0  0  0  0  0
   57.0797   32.8078   53.2863 H   0  0  0  0  0  0  0  0  0  0  0  0
   54.6250   29.7200   53.0300 C   0  0  0  0  0  0  0  0  0  0  0  0
   54.5456   29.4328   51.9711 H   0  0  0  0  0  0  0  0  0  0  0  0
   51.3830   31.6480   52.3090 C   0  0  0  0  0  0  0  0  0  0  0  0
   51.3410   32.1300   53.4720 O   0  0  0  0  0  0  0  0  0  0  0  0
   51.0410   32.4290   51.2520 N   0  0  0  0  0  0  0  0  0  0  0  0
  1  2  1  0
  2  3  2  0
  3  4  1  0
  4  5  1  0
  5  6  1  0
  5  7  2  0
  7  8  1  0
  8  9  1  0
  8 10  1  0
  8 11  1  0
 11 12  2  0
 12 13  1  0
 12 14  1  0
 14 15  1  0
 14 16  2  0
 16 17  1  0
 16 18  1  0
 18 19  1  0
 19 20  2  0
 19 21  1  0
 21 22  1  6
 21 23  1  0
 23 24  1  0
 23 25  1  0
 23 26  1  0
 26 27  1  0
 26 28  1  0
 26 29  1  0
 29 30  1  1
 29 31  1  0
 31 32  2  0
 31 33  1  0
 33 34  1  0
 34 35  1  0
 34 36  1  0
 34 37  1  0
 37 38  1  0
 37 39  1  0
 37 40  1  0
 40 41  1  0
 40 42  1  0
 40 43  1  0
 43 44  1  0
 43 45  1  0
 29 46  1  0
 46 47  1  0
 46 48  1  0
 46 49  1  0
 49 50  1  0
 49 51  1  0
 18 52  2  0
 52 53  1  0
  7 54  1  0
 54 55  2  0
 54 56  1  0
 56  3  1  0
 52 11  1  0
 49 21  1  0
 43 33  1  0
M  CHG  3   4  -1  21   1  56  -1
M  END
>  <UniqueID>  (11) 
11

>  <SMILES>  (11) 
[H]/N=c1\[n-]cc(Cc2cccc(C(=O)[NH+]3CCC(C(=O)N4CCCC4)CC3)c2)c(=O)[n-]1

>  <Energy>  (11) 
75.33842029582048

>  <Genealogy>  (11) 
N=c1[n-]cc(Cc2cccc(C(=O)[NH+]3CCC(C(=O)N4CCCC4)CC3)c2)c(=O)[n-]1 (protonated)
[H]/N=c1\[n-]cc(Cc2cccc(C(=O)[NH+]3CCC(C(=O)N4CCCC4)CC3)c2)c(=O)[n-]1 (cis-trans isomerization)
[H]/N=c1\[n-]cc(Cc2cccc(C(=O)[NH+]3CCC(C(=O)N4CCCC4)CC3)c2)c(=O)[n-]1 (3D coordinates assigned)
[H]/N=c1\[n-]cc(Cc2cccc(C(=O)[NH+]3CCC(C(=O)N4CCCC4)CC3)c2)c(=O)[n-]1 (nonaromatic ring conformer: 75.33842029582048 kcal/mol)

>  <smiles>  (11) 
N=c1[nH]cc(Cc2cccc(C(=O)N3CCC(C(=O)N4CCCC4)CC3)c2)c(=O)[nH]1

>  <score_type>  (11) 
oracle

>  <origin>  (11) 
adg

>  <m_score__min__energy>  (11) 
-13.16

>  <m_primary>  (11) 
energy

$$$$
11:0
     RDKit          3D

 59 62  0  0  0  0  0  0  0  0999 V2000
   62.4680   33.1870   50.3170 C   0  0  0  0  0  0  0  0  0  0  0  0
   61.9470   33.4930   48.9380 C   0  0  0  0  0  0  0  0  0  0  0  0
   62.8560   33.5850   47.8740 C   0  0  0  0  0  0  0  0  0  0  0  0
   62.4070   33.8040   46.5730 C   0  0  0  0  0  0  0  0  0  0  0  0
   61.0410   33.9170   46.3120 C   0  0  0  0  0  0  0  0  0  0  0  0
   60.1100   33.8310   47.3590 C   0  0  0  0  0  0  0  0  0  0  0  0
   58.6440   33.9710   47.0580 C   0  0  0  0  0  0  0  0  0  0  0  0
   60.5650   33.6770   48.6870 C   0  0  0  0  0  0  0  0  0  0  0  0
   59.6080   33.6570   49.7590 N   0  0  0  0  0  0  0  0  0  0  0  0
   58.9610   32.4820   50.2660 C   0  0  0  0  0  0  0  0  0  0  0  0
   57.8730   32.6140   50.8850 O   0  0  0  0  0  0  0  0  0  0  0  0
   59.5580   31.1270   50.1160 C   0  0  0  0  0  0  0  0  0  0  0  0
   60.3990   30.6220   51.1250 C   0  0  0  0  0  0  0  0  0  0  0  0
   60.9370   29.3280   51.0390 C   0  0  0  0  0  0  0  0  0  0  0  0
   61.8930   28.8350   52.1110 C   0  0  2  0  0  0  0  0  0  0  0  0
   63.2510   29.5010   52.0580 C   0  0  0  0  0  0  0  0  0  0  0  0
   64.2290   28.3430   52.1700 C   0  0  0  0  0  0  0  0  0  0  0  0
   63.5250   27.1610   52.4620 O   0  0  0  0  0  0  0  0  0  0  0  0
   62.2150   27.3540   51.9970 C   0  0  0  0  0  0  0  0  0  0  0  0
   60.5660   28.5080   49.9590 C   0  0  0  0  0  0  0  0  0  0  0  0
   59.7270   28.9950   48.9580 C   0  0  0  0  0  0  0  0  0  0  0  0
   59.2700   30.3200   48.9930 C   0  0  0  0  0  0  0  0  0  0  0  0
   58.5250   30.8650   47.8950 N   0  0  0  0  0  0  0  0  0  0  0  0
   58.6000   30.3100   46.2480 S   0  0  0  0  0  0  0  0  0  0  0  0
   59.9010   30.7710   45.6430 O   0  0  0  0  0  0  0  0  0  0  0  0
   57.4600   30.9210   45.4750 O   0  0  0  0  0  0  0  0  0  0  0  0
   58.5320   28.5490   46.1200 C   0  0  0  0  0  0  0  0  0  0  0  0
   59.6730   27.8180   45.7620 C   0  0  0  0  0  0  0  0  0  0  0  0
   59.6020   26.4300   45.6190 C   0  0  0  0  0  0  0  0  0  0  0  0
   58.3920   25.7630   45.8240 C   0  0  0  0  0  0  0  0  0  0  0  0
   57.2370   26.4790   46.1830 C   0  0  0  0  0  0  0  0  0  0  0  0
   55.9460   25.7770   46.3730 C   0  0  0  0  0  0  0  0  0  0  0  0
   54.7520   26.2850   45.7820 N   0  0  0  0  0  0  0  0  0  0  0  0
   55.8940   24.7170   47.0540 O   0  0  0  0  0  0  0  0  0  0  0  0
   57.3240   27.8730   46.3460 C   0  0  0  0  0  0  0  0  0  0  0  0
   61.7758   33.5936   51.0690 H   0  0  0  0  0  0  0  0  0  0  0  0
   62.5496   32.0975   50.4447 H   0  0  0  0  0  0  0  0  0  0  0  0
   63.4593   33.6464   50.4447 H   0  0  0  0  0  0  0  0  0  0  0  0
   63.9339   33.4833   48.0683 H   0  0  0  0  0  0  0  0  0  0  0  0
   63.1315   33.8880   45.7496 H   0  0  0  0  0  0  0  0  0  0  0  0
   60.6920   34.0742   45.2808 H   0  0  0  0  0  0  0  0  0  0  0  0
   58.0797   34.0249   48.0007 H   0  0  0  0  0  0  0  0  0  0  0  0
   58.4751   34.8894   46.4765 H   0  0  0  0  0  0  0  0  0  0  0  0
   58.3044   33.1012   46.4765 H   0  0  0  0  0  0  0  0  0  0  0  0
   60.6387   31.2511   51.9949 H   0  0  0  0  0  0  0  0  0  0  0  0
   61.3488   29.0730   53.0368 H   0  0  0  0  0  0  0  0  0  0  0  0
   63.3870   30.0380   51.1076 H   0  0  0  0  0  0  0  0  0  0  0  0
   63.3877   30.2507   52.8512 H   0  0  0  0  0  0  0  0  0  0  0  0
   64.7666   28.2238   51.2178 H   0  0  0  0  0  0  0  0  0  0  0  0
   64.9499   28.5486   52.9750 H   0  0  0  0  0  0  0  0  0  0  0  0
   62.1402   27.0349   50.9470 H   0  0  0  0  0  0  0  0  0  0  0  0
   61.5055   26.7604   52.5922 H   0  0  0  0  0  0  0  0  0  0  0  0
   60.9403   27.4751   49.9035 H   0  0  0  0  0  0  0  0  0  0  0  0
   59.4209   28.3341   48.1336 H   0  0  0  0  0  0  0  0  0  0  0  0
   60.6272   28.3386   45.5931 H   0  0  0  0  0  0  0  0  0  0  0  0
   60.5021   25.8605   45.3440 H   0  0  0  0  0  0  0  0  0  0  0  0
   58.3427   24.6707   45.7038 H   0  0  0  0  0  0  0  0  0  0  0  0
   54.0090   26.7260   46.3670 H   0  0  0  0  0  0  0  0  0  0  0  0
   56.4336   28.4404   46.6546 H   0  0  0  0  0  0  0  0  0  0  0  0
  1  2  1  0
  2  3  2  0
  3  4  1  0
  4  5  2  0
  5  6  1  0
  6  7  1  0
  6  8  2  0
  8  9  1  0
  9 10  1  0
 10 11  2  0
 10 12  1  0
 12 13  2  0
 13 14  1  0
 14 15  1  0
 15 16  1  0
 16 17  1  0
 17 18  1  0
 18 19  1  0
 14 20  2  0
 20 21  1  0
 21 22  2  0
 22 23  1  0
 23 24  1  0
 24 25  2  0
 24 26  2  0
 24 27  1  0
 27 28  2  0
 28 29  1  0
 29 30  2  0
 30 31  1  0
 31 32  1  0
 32 33  1  0
 32 34  2  0
 31 35  2  0
  8  2  1  0
 22 12  1  0
 35 27  1  0
 19 15  1  0
  1 36  1  0
  1 37  1  0
  1 38  1  0
  3 39  1  0
  4 40  1  0
  5 41  1  0
  7 42  1  0
  7 43  1  0
  7 44  1  0
 13 45  1  0
 15 46  1  1
 16 47  1  0
 16 48  1  0
 17 49  1  0
 17 50  1  0
 19 51  1  0
 19 52  1  0
 20 53  1  0
 21 54  1  0
 28 55  1  0
 29 56  1  0
 30 57  1  0
 33 58  1  0
 35 59  1  0
M  CHG  3   9  -1  23  -1  33  -1
M  END
>  <UniqueID>  (12) 
12

>  <SMILES>  (12) 
Cc1cccc(C)c1[N-]C(=O)c1cc([C@@H]2CCOC2)ccc1[N-]S(=O)(=O)c1cccc(C([NH-])=O)c1

>  <Energy>  (12) 
80.81536567626235

>  <Genealogy>  (12) 
Cc1cccc(C)c1[N-]C(=O)c1cc(C2CCOC2)ccc1[N-]S(=O)(=O)c1cccc(C([NH-])=O)c1 (protonated)
Cc1cccc(C)c1[N-]C(=O)c1cc([C@@H]2CCOC2)ccc1[N-]S(=O)(=O)c1cccc(C([NH-])=O)c1 (chirality)
Cc1cccc(C)c1[N-]C(=O)c1cc([C@@H]2CCOC2)ccc1[N-]S(=O)(=O)c1cccc(C([NH-])=O)c1 (3D coordinates assigned)
Cc1cccc(C)c1[N-]C(=O)c1cc([C@@H]2CCOC2)ccc1[N-]S(=O)(=O)c1cccc(C([NH-])=O)c1 (nonaromatic ring conformer: 80.81536567626235 kcal/mol)

>  <smiles>  (12) 
Cc1cccc(C)c1NC(=O)c1cc(C2CCOC2)ccc1NS(=O)(=O)c1cccc(C(N)=O)c1

>  <score_type>  (12) 
oracle

>  <origin>  (12) 
adg

>  <m_score__min__energy>  (12) 
-15.27

>  <m_primary>  (12) 
energy

$$$$
12:0
     RDKit          3D

 50 52  0  0  1  0  0  0  0  0999 V2000
   59.4290   22.1010   44.3160 C   0  0  0  0  0  0  0  0  0  0  0  0
   59.2600   22.9790   45.2470 C   0  0  0  0  0  0  0  0  0  0  0  0
   58.2680   23.9810   45.5090 C   0  0  0  0  0  0  0  0  0  0  0  0
   58.7030   25.3170   45.6370 C   0  0  0  0  0  0  0  0  0  0  0  0
   57.8640   26.3720   45.8850 C   0  0  0  0  0  0  0  0  0  0  0  0
   58.4900   27.7190   45.9970 C   0  0  0  0  0  0  0  0  0  0  0  0
   57.8910   28.7340   45.0970 C   0  0  0  0  0  0  0  0  0  0  0  0
   57.6060   30.0060   45.5850 C   0  0  0  0  0  0  0  0  0  0  0  0
   57.0280   30.9520   44.7750 C   0  0  0  0  0  0  0  0  0  0  0  0
   56.7060   32.2840   45.2330 N   0  0  0  0  0  0  0  0  0  0  0  0
   57.6450   33.0870   45.6240 C   0  0  0  0  0  0  0  0  0  0  0  0
   57.9860   33.2060   46.9400 N   0  0  0  0  0  0  0  0  0  0  0  0
   58.9570   34.0460   47.3310 C   0  0  0  0  0  0  0  0  0  0  0  0
   59.3760   34.2420   48.6120 O   0  0  0  0  0  0  0  0  0  0  0  0
   60.7270   34.1630   48.9630 C   0  0  0  0  0  0  0  0  0  0  0  0
   59.6050   34.7910   46.3360 C   0  0  0  0  0  0  0  0  0  0  0  0
   59.2510   34.6600   45.0140 C   0  0  0  0  0  0  0  0  0  0  0  0
   58.2590   33.7940   44.6660 N   0  0  0  0  0  0  0  0  0  0  0  0
   56.6930   30.7120   43.4440 C   0  0  0  0  0  0  0  0  0  0  0  0
   56.9750   29.4510   42.9630 C   0  0  0  0  0  0  0  0  0  0  0  0
   57.5620   28.4900   43.7810 C   0  0  0  0  0  0  0  0  0  0  0  0
   57.8040   27.2620   43.1980 O   0  0  0  0  0  0  0  0  0  0  0  0
   56.5580   26.1450   46.0160 N   0  0  0  0  0  0  0  0  0  0  0  0
   56.1150   24.8940   45.9010 C   0  0  0  0  0  0  0  0  0  0  0  0
   54.8490   24.7420   46.0380 O   0  0  0  0  0  0  0  0  0  0  0  0
   56.9210   23.7940   45.6520 C   0  0  0  0  0  0  0  0  0  0  0  0
   56.2730   22.4740   45.5610 C   0  0  0  0  0  0  0  0  0  0  0  0
   56.1650   22.0560   44.1410 C   0  0  0  0  0  0  0  0  0  0  0  0
   55.9650   22.9200   43.2580 O   0  0  0  0  0  0  0  0  0  0  0  0
   56.2730   20.7420   43.7360 O   0  0  0  0  0  0  0  0  0  0  0  0
   60.2992   21.4288   44.3453 H   0  0  0  0  0  0  0  0  0  0  0  0
   58.7028   22.0250   43.4933 H   0  0  0  0  0  0  0  0  0  0  0  0
   60.0532   22.9528   46.0087 H   0  0  0  0  0  0  0  0  0  0  0  0
   59.7782   25.5240   45.5316 H   0  0  0  0  0  0  0  0  0  0  0  0
   58.3800   28.0674   47.0346 H   0  0  0  0  0  0  0  0  0  0  0  0
   59.5432   27.6086   45.6994 H   0  0  0  0  0  0  0  0  0  0  0  0
   57.8460   30.2556   46.6291 H   0  0  0  0  0  0  0  0  0  0  0  0
   60.8214   34.1575   50.0589 H   0  0  0  0  0  0  0  0  0  0  0  0
   61.1589   33.2381   48.5531 H   0  0  0  0  0  0  0  0  0  0  0  0
   61.2637   35.0313   48.5531 H   0  0  0  0  0  0  0  0  0  0  0  0
   60.4071   35.4895   46.6166 H   0  0  0  0  0  0  0  0  0  0  0  0
   59.7657   35.2509   44.2421 H   0  0  0  0  0  0  0  0  0  0  0  0
   58.0450   33.7480   43.6550 H   0  0  0  0  0  0  0  0  0  0  0  0
   56.2298   31.4847   42.8128 H   0  0  0  0  0  0  0  0  0  0  0  0
   56.7330   29.2013   41.9194 H   0  0  0  0  0  0  0  0  0  0  0  0
   56.9880   26.7890   42.8000 H   0  0  0  0  0  0  0  0  0  0  0  0
   55.8960   26.9060   46.1930 H   0  0  0  0  0  0  0  0  0  0  0  0
   56.8727   21.7354   46.1131 H   0  0  0  0  0  0  0  0  0  0  0  0
   55.2644   22.5372   45.9956 H   0  0  0  0  0  0  0  0  0  0  0  0
   57.1090   20.1770   43.7960 H   0  0  0  0  0  0  0  0  0  0  0  0
  1  2  2  0
  2  3  1  0
  3  4  1  0
  4  5  2  0
  5  6  1  0
  6  7  1  0
  7  8  2  0
  8  9  1  0
  9 10  1  0
 10 11  2  0
 11 12  1  0
 12 13  2  0
 13 14  1  0
 14 15  1  0
 13 16  1  0
 16 17  2  0
 17 18  1  0
  9 19  2  0
 19 20  1  0
 20 21  2  0
 21 22  1  0
  5 23  1  0
 23 24  1  0
 24 25  2  0
 24 26  1  0
 26 27  1  0
 27 28  1  0
 28 29  2  0
 28 30  1  0
 26  3  2  0
 21  7  1  0
 18 11  1  0
  1 31  1  0
  1 32  1  0
  2 33  1  0
  4 34  1  0
  6 35  1  0
  6 36  1  0
  8 37  1  0
 15 38  1  0
 15 39  1  0
 15 40  1  0
 16 41  1  0
 17 42  1  0
 18 43  1  0
 19 44  1  0
 20 45  1  0
 22 46  1  0
 23 47  1  0
 27 48  1  0
 27 49  1  0
 30 50  1  0
M  END
>  <smiles>  (13) 
C=Cc1cc(Cc2cc(N=c3nc(OC)cc[nH]3)ccc2O)[nH]c(=O)c1CC(=O)O

>  <score_type>  (13) 
oracle

>  <origin>  (13) 
adg

>  <m_score__min__energy>  (13) 
-8.8800000000000008

>  <m_primary>  (13) 
energy

$$$$
13:0
     RDKit          3D

 54 57  0  0  0  0  0  0  0  0999 V2000
   52.4120   25.7010   53.0740 C   0  0  0  0  0  0  0  0  0  0  0  0
   53.5340   26.2340   53.5570 C   0  0  0  0  0  0  0  0  0  0  0  0
   53.5280   27.2880   54.5950 C   0  0  0  0  0  0  0  0  0  0  0  0
   53.7090   26.9750   55.8040 O   0  0  0  0  0  0  0  0  0  0  0  0
   53.3620   28.6760   54.2340 N   0  0  0  0  0  0  0  0  0  0  0  0
   52.0090   29.2530   54.1780 C   0  0  0  0  0  0  0  0  0  0  0  0
   51.8160   30.1320   52.9540 C   0  0  0  0  0  0  0  0  0  0  0  0
   52.0540   29.6020   51.6700 C   0  0  0  0  0  0  0  0  0  0  0  0
   51.8470   30.3780   50.5280 C   0  0  0  0  0  0  0  0  0  0  0  0
   51.3790   31.6840   50.6440 C   0  0  0  0  0  0  0  0  0  0  0  0
   51.1060   32.2230   51.9040 C   0  0  0  0  0  0  0  0  0  0  0  0
   50.6230   33.5260   51.9960 O   0  0  0  0  0  0  0  0  0  0  0  0
   51.3140   31.4530   53.0630 C   0  0  0  0  0  0  0  0  0  0  0  0
   50.9970   32.0330   54.3490 C   0  0  0  0  0  0  0  0  0  0  0  0
   50.7420   32.4960   55.3780 N   0  0  0  0  0  0  0  0  0  0  0  0
   54.4820   29.4560   53.7650 C   0  0  0  0  0  0  0  0  0  0  0  0
   55.2330   30.2290   54.6630 C   0  0  0  0  0  0  0  0  0  0  0  0
   56.3270   30.9740   54.2130 C   0  0  0  0  0  0  0  0  0  0  0  0
   56.6990   30.9550   52.8570 C   0  0  0  0  0  0  0  0  0  0  0  0
   57.8650   31.7570   52.3980 C   0  0  0  0  0  0  0  0  0  0  0  0
   58.5200   32.6650   53.2470 C   0  0  0  0  0  0  0  0  0  0  0  0
   59.6070   33.3990   52.7670 C   0  0  0  0  0  0  0  0  0  0  0  0
   60.0430   33.2270   51.4450 C   0  0  0  0  0  0  0  0  0  0  0  0
   61.1160   33.9540   50.9110 O   0  0  0  0  0  0  0  0  0  0  0  0
   61.7210   33.7170   49.6680 C   0  0  0  0  0  0  0  0  0  0  0  0
   61.0880   34.0570   48.4570 C   0  0  0  0  0  0  0  0  0  0  0  0
   61.7320   33.8230   47.2370 C   0  0  0  0  0  0  0  0  0  0  0  0
   63.0110   33.2600   47.2170 C   0  0  0  0  0  0  0  0  0  0  0  0
   63.6520   32.9380   48.4170 C   0  0  0  0  0  0  0  0  0  0  0  0
   63.0110   33.1720   49.6380 C   0  0  0  0  0  0  0  0  0  0  0  0
   59.3490   32.3370   50.6230 C   0  0  0  0  0  0  0  0  0  0  0  0
   58.2950   31.6310   51.1100 N   0  0  0  0  0  0  0  0  0  0  0  0
   55.9370   30.1850   51.9580 C   0  0  0  0  0  0  0  0  0  0  0  0
   54.8450   29.4380   52.4100 C   0  0  0  0  0  0  0  0  0  0  0  0
   52.4625   24.9189   52.3021 H   0  0  0  0  0  0  0  0  0  0  0  0
   51.4355   26.0431   53.4473 H   0  0  0  0  0  0  0  0  0  0  0  0
   54.4997   25.8772   53.1697 H   0  0  0  0  0  0  0  0  0  0  0  0
   51.2748   28.4345   54.1469 H   0  0  0  0  0  0  0  0  0  0  0  0
   51.8690   29.8790   55.0716 H   0  0  0  0  0  0  0  0  0  0  0  0
   52.4068   28.5653   51.5664 H   0  0  0  0  0  0  0  0  0  0  0  0
   52.0543   29.9562   49.5335 H   0  0  0  0  0  0  0  0  0  0  0  0
   51.2237   32.2932   49.7414 H   0  0  0  0  0  0  0  0  0  0  0  0
   54.9593   30.2491   55.7282 H   0  0  0  0  0  0  0  0  0  0  0  0
   56.9027   31.5813   54.9270 H   0  0  0  0  0  0  0  0  0  0  0  0
   58.1785   32.7971   54.2843 H   0  0  0  0  0  0  0  0  0  0  0  0
   60.1219   34.1130   53.4266 H   0  0  0  0  0  0  0  0  0  0  0  0
   60.0847   34.5077   48.4701 H   0  0  0  0  0  0  0  0  0  0  0  0
   61.2311   34.0824   46.2927 H   0  0  0  0  0  0  0  0  0  0  0  0
   63.5134   33.0702   46.2570 H   0  0  0  0  0  0  0  0  0  0  0  0
   64.6611   32.5004   48.4009 H   0  0  0  0  0  0  0  0  0  0  0  0
   63.5229   32.9266   50.5802 H   0  0  0  0  0  0  0  0  0  0  0  0
   59.6572   32.2066   49.5752 H   0  0  0  0  0  0  0  0  0  0  0  0
   56.2030   30.1709   50.8907 H   0  0  0  0  0  0  0  0  0  0  0  0
   54.2661   28.8316   51.6978 H   0  0  0  0  0  0  0  0  0  0  0  0
  1  2  2  0
  2  3  1  0
  3  4  2  0
  3  5  1  0
  5  6  1  0
  6  7  1  0
  7  8  2  0
  8  9  1  0
  9 10  2  0
 10 11  1  0
 11 12  1  0
 11 13  2  0
 13 14  1  0
 14 15  3  0
  5 16  1  0
 16 17  2  0
 17 18  1  0
 18 19  2  0
 19 20  1  0
 20 21  2  0
 21 22  1  0
 22 23  2  0
 23 24  1  0
 24 25  1  0
 25 26  2  0
 26 27  1  0
 27 28  2  0
 28 29  1  0
 29 30  2  0
 23 31  1  0
 31 32  2  0
 19 33  1  0
 33 34  2  0
 13  7  1  0
 34 16  1  0
 32 20  1  0
 30 25  1  0
  1 35  1  0
  1 36  1  0
  2 37  1  0
  6 38  1  0
  6 39  1  0
  8 40  1  0
  9 41  1  0
 10 42  1  0
 17 43  1  0
 18 44  1  0
 21 45  1  0
 22 46  1  0
 26 47  1  0
 27 48  1  0
 28 49  1  0
 29 50  1  0
 30 51  1  0
 31 52  1  0
 33 53  1  0
 34 54  1  0
M  CHG  1  12  -1
M  END
>  <UniqueID>  (14) 
13

>  <SMILES>  (14) 
C=CC(=O)N(Cc1cccc([O-])c1C#N)c1ccc(-c2ccc(Oc3ccccc3)cn2)cc1

>  <Energy>  (14) 
77.32180752542715

>  <Genealogy>  (14) 
C=CC(=O)N(Cc1cccc([O-])c1C#N)c1ccc(-c2ccc(Oc3ccccc3)cn2)cc1 (protonated)
C=CC(=O)N(Cc1cccc([O-])c1C#N)c1ccc(-c2ccc(Oc3ccccc3)cn2)cc1 (3D coordinates assigned)
C=CC(=O)N(Cc1cccc([O-])c1C#N)c1ccc(-c2ccc(Oc3ccccc3)cn2)cc1 (optimized conformer: 77.32180752542715 kcal/mol)

>  <smiles>  (14) 
C=CC(=O)N(Cc1cccc(O)c1C#N)c1ccc(-c2ccc(Oc3ccccc3)cn2)cc1

>  <score_type>  (14) 
oracle

>  <origin>  (14) 
adg

>  <m_score__min__energy>  (14) 
-12.289999999999999

>  <m_primary>  (14) 
energy

$$$$
14:0
     RDKit          3D

 52 55  0  0  1  0  0  0  0  0999 V2000
   55.4880   25.2160   46.0040 O   0  0  0  0  0  0  0  0  0  0  0  0
   56.5710   24.8960   45.4840 C   0  0  0  0  0  0  0  0  0  0  0  0
   57.7850   25.6110   45.5340 N   0  0  0  0  0  0  0  0  0  0  0  0
   57.9960   26.7980   45.1110 C   0  0  0  0  0  0  0  0  0  0  0  0
   58.5030   27.8240   45.8700 C   0  0  0  0  0  0  0  0  0  0  0  0
   58.5740   28.9160   45.0140 C   0  0  0  0  0  0  0  0  0  0  0  0
   59.0670   30.2100   45.4590 C   0  0  0  0  0  0  0  0  0  0  0  0
   60.2270   30.3210   45.9280 O   0  0  0  0  0  0  0  0  0  0  0  0
   58.2820   31.4030   45.3930 N   0  0  0  0  0  0  0  0  0  0  0  0
   58.8660   32.6220   45.8580 C   0  0  0  0  0  0  0  0  0  0  0  0
   58.7200   33.7180   44.9960 C   0  0  0  0  0  0  0  0  0  0  0  0
   59.2160   34.9620   45.3090 C   0  0  0  0  0  0  0  0  0  0  0  0
   59.8670   35.0800   46.5220 C   0  0  0  0  0  0  0  0  0  0  0  0
   60.0150   33.9840   47.3900 C   0  0  0  0  0  0  0  0  0  0  0  0
   60.7280   34.2750   48.6230 C   0  0  0  0  0  0  0  0  0  0  0  0
   60.0060   34.6260   49.6150 O   0  0  0  0  0  0  0  0  0  0  0  0
   62.1300   34.1920   48.7850 N   0  0  0  0  0  0  0  0  0  0  0  0
   63.0470   33.8160   47.7220 C   0  0  0  0  0  0  0  0  0  0  0  0
   63.9820   32.7150   48.1690 C   0  0  0  0  0  0  0  0  0  0  0  0
   63.6210   32.3070   49.4550 O   0  0  0  0  0  0  0  0  0  0  0  0
   63.7060   33.3250   50.3920 C   0  0  0  0  0  0  0  0  0  0  0  0
   62.7360   34.4730   50.0840 C   0  0  0  0  0  0  0  0  0  0  0  0
   59.5160   32.7430   47.0660 C   0  0  0  0  0  0  0  0  0  0  0  0
   58.1260   28.5390   43.8050 N   0  0  0  0  0  0  0  0  0  0  0  0
   57.7730   27.2570   43.8560 N   0  0  0  0  0  0  0  0  0  0  0  0
   56.5840   23.6310   44.7320 C   0  0  0  0  0  0  0  0  0  0  0  0
   56.7780   22.4460   45.4450 C   0  0  0  0  0  0  0  0  0  0  0  0
   56.7940   21.2490   44.7590 C   0  0  0  0  0  0  0  0  0  0  0  0
   56.6210   21.2320   43.3810 C   0  0  0  0  0  0  0  0  0  0  0  0
   56.6270   20.0870   42.6580 F   0  0  0  0  0  0  0  0  0  0  0  0
   56.4270   22.4080   42.6600 C   0  0  0  0  0  0  0  0  0  0  0  0
   56.4150   23.5810   43.3660 C   0  0  0  0  0  0  0  0  0  0  0  0
   58.7917   27.7887   46.9308 H   0  0  0  0  0  0  0  0  0  0  0  0
   57.3140   31.3680   45.0100 H   0  0  0  0  0  0  0  0  0  0  0  0
   58.1929   33.5788   44.0406 H   0  0  0  0  0  0  0  0  0  0  0  0
   59.1004   35.8187   44.6288 H   0  0  0  0  0  0  0  0  0  0  0  0
   60.2800   36.0562   46.8160 H   0  0  0  0  0  0  0  0  0  0  0  0
   62.4672   33.4644   46.8559 H   0  0  0  0  0  0  0  0  0  0  0  0
   63.6494   34.6967   47.4545 H   0  0  0  0  0  0  0  0  0  0  0  0
   63.9066   31.8633   47.4769 H   0  0  0  0  0  0  0  0  0  0  0  0
   65.0177   33.0855   48.1734 H   0  0  0  0  0  0  0  0  0  0  0  0
   63.4671   32.9150   51.3844 H   0  0  0  0  0  0  0  0  0  0  0  0
   64.7291   33.7281   50.3634 H   0  0  0  0  0  0  0  0  0  0  0  0
   61.9573   34.5263   50.8592 H   0  0  0  0  0  0  0  0  0  0  0  0
   63.2658   35.4368   50.0666 H   0  0  0  0  0  0  0  0  0  0  0  0
   59.6315   31.8840   47.7434 H   0  0  0  0  0  0  0  0  0  0  0  0
   58.0710   29.1720   42.9720 H   0  0  0  0  0  0  0  0  0  0  0  0
   57.3840   26.6570   43.0640 H   0  0  0  0  0  0  0  0  0  0  0  0
   56.9159   22.4666   46.5361 H   0  0  0  0  0  0  0  0  0  0  0  0
   56.9441   20.3058   45.3048 H   0  0  0  0  0  0  0  0  0  0  0  0
   56.2892   22.3948   41.5687 H   0  0  0  0  0  0  0  0  0  0  0  0
   56.2640   24.5234   42.8191 H   0  0  0  0  0  0  0  0  0  0  0  0
  1  2  2  0
  2  3  1  0
  3  4  2  0
  4  5  1  0
  5  6  2  0
  6  7  1  0
  7  8  2  0
  7  9  1  0
  9 10  1  0
 10 11  2  0
 11 12  1  0
 12 13  2  0
 13 14  1  0
 14 15  1  0
 15 16  2  0
 15 17  1  0
 17 18  1  0
 18 19  1  0
 19 20  1  0
 20 21  1  0
 21 22  1  0
 14 23  2  0
  6 24  1  0
 24 25  1  0
  2 26  1  0
 26 27  2  0
 27 28  1  0
 28 29  2  0
 29 30  1  0
 29 31  1  0
 31 32  2  0
 25  4  1  0
 32 26  1  0
 23 10  1  0
 22 17  1  0
  5 33  1  0
  9 34  1  0
 11 35  1  0
 12 36  1  0
 13 37  1  0
 18 38  1  0
 18 39  1  0
 19 40  1  0
 19 41  1  0
 21 42  1  0
 21 43  1  0
 22 44  1  0
 22 45  1  0
 23 46  1  0
 24 47  1  0
 25 48  1  0
 27 49  1  0
 28 50  1  0
 31 51  1  0
 32 52  1  0
M  END
>  <smiles>  (15) 
O=C(N=c1cc(C(=O)Nc2cccc(C(=O)N3CCOCC3)c2)[nH][nH]1)c1ccc(F)cc1

>  <score_type>  (15) 
oracle

>  <origin>  (15) 
adg

>  <m_score__min__energy>  (15) 
-9.3300000000000001

>  <m_primary>  (15) 
energy

$$$$
15:0
     RDKit          3D

 59 61  0  0  0  0  0  0  0  0999 V2000
   55.4620   26.6790   45.9880 O   0  0  0  0  0  0  0  0  0  0  0  0
   56.7210   26.6780   45.9210 C   0  0  0  0  0  0  0  0  0  0  0  0
   57.4060   26.9850   44.6150 C   0  0  0  0  0  0  0  0  0  0  0  0
   57.8430   28.3800   44.5570 N   0  0  0  0  0  0  0  0  0  0  0  0
   56.9170   29.4750   44.6470 C   0  0  0  0  0  0  0  0  0  0  0  0
   55.7050   29.2430   44.9050 O   0  0  0  0  0  0  0  0  0  0  0  0
   57.3640   30.8760   44.4550 C   0  0  0  0  0  0  0  0  0  0  0  0
   57.7240   31.3560   43.1860 C   0  0  0  0  0  0  0  0  0  0  0  0
   58.1300   32.6810   43.0220 C   0  0  0  0  0  0  0  0  0  0  0  0
   58.1670   33.5480   44.1130 C   0  0  0  0  0  0  0  0  0  0  0  0
   57.7850   33.0960   45.3880 C   0  0  0  0  0  0  0  0  0  0  0  0
   57.7660   33.9300   46.5190 O   0  0  0  0  0  0  0  0  0  0  0  0
   58.8870   34.2470   47.3460 C   0  0  0  0  0  0  0  0  0  0  0  0
   60.1490   34.4750   46.5040 C   0  0  0  0  0  0  0  0  0  0  0  0
   61.3740   33.8840   47.1490 C   0  0  0  0  0  0  0  0  0  0  0  0
   61.3260   33.4360   48.4800 C   0  0  0  0  0  0  0  0  0  0  0  0
   62.4470   32.8340   49.0610 C   0  0  0  0  0  0  0  0  0  0  0  0
   63.6200   32.6720   48.3190 C   0  0  0  0  0  0  0  0  0  0  0  0
   63.6770   33.1200   46.9970 C   0  0  0  0  0  0  0  0  0  0  0  0
   62.5610   33.7250   46.4130 C   0  0  0  0  0  0  0  0  0  0  0  0
   57.4020   31.7590   45.5500 C   0  0  0  0  0  0  0  0  0  0  0  0
   57.4750   26.4300   47.1120 N   0  0  0  0  0  0  0  0  0  0  0  0
   58.8630   25.9810   47.1230 C   0  0  0  0  0  0  0  0  0  0  0  0
   59.6420   26.7070   48.2240 C   0  0  0  0  0  0  0  0  0  0  0  0
   60.1520   28.0480   47.7470 C   0  0  0  0  0  0  0  0  0  0  0  0
   60.2980   28.3030   46.4350 C   0  0  0  0  0  0  0  0  0  0  0  0
   60.7450   29.6690   45.9920 C   0  0  0  0  0  0  0  0  0  0  0  0
   59.9810   30.7660   46.7560 C   0  0  0  0  0  0  0  0  0  0  0  0
   59.7920   30.4670   48.2680 C   0  0  0  0  0  0  0  0  0  0  0  0
   60.4530   29.1550   48.7280 C   0  0  0  0  0  0  0  0  0  0  0  0
   58.2835   26.3303   44.5084 H   0  0  0  0  0  0  0  0  0  0  0  0
   56.6890   26.8124   43.7988 H   0  0  0  0  0  0  0  0  0  0  0  0
   58.8720   28.5650   44.5580 H   0  0  0  0  0  0  0  0  0  0  0  0
   57.6859   30.6840   42.3160 H   0  0  0  0  0  0  0  0  0  0  0  0
   58.4227   33.0436   42.0256 H   0  0  0  0  0  0  0  0  0  0  0  0
   58.4960   34.5886   43.9758 H   0  0  0  0  0  0  0  0  0  0  0  0
   58.6656   35.1614   47.9159 H   0  0  0  0  0  0  0  0  0  0  0  0
   59.0692   33.4016   48.0258 H   0  0  0  0  0  0  0  0  0  0  0  0
   60.0069   34.0081   45.5182 H   0  0  0  0  0  0  0  0  0  0  0  0
   60.3041   35.5602   46.4128 H   0  0  0  0  0  0  0  0  0  0  0  0
   60.4039   33.5591   49.0669 H   0  0  0  0  0  0  0  0  0  0  0  0
   62.4051   32.4874   50.1041 H   0  0  0  0  0  0  0  0  0  0  0  0
   64.4981   32.1919   48.7756 H   0  0  0  0  0  0  0  0  0  0  0  0
   64.6020   32.9963   46.4148 H   0  0  0  0  0  0  0  0  0  0  0  0
   62.6116   34.0785   45.3726 H   0  0  0  0  0  0  0  0  0  0  0  0
   57.1262   31.3928   46.5499 H   0  0  0  0  0  0  0  0  0  0  0  0
   58.8934   24.8974   47.3098 H   0  0  0  0  0  0  0  0  0  0  0  0
   59.3220   26.2058   46.1489 H   0  0  0  0  0  0  0  0  0  0  0  0
   58.9792   26.8630   49.0879 H   0  0  0  0  0  0  0  0  0  0  0  0
   60.5069   26.0869   48.5022 H   0  0  0  0  0  0  0  0  0  0  0  0
   60.0922   27.5188   45.6915 H   0  0  0  0  0  0  0  0  0  0  0  0
   61.8223   29.7771   46.1864 H   0  0  0  0  0  0  0  0  0  0  0  0
   60.5384   29.7774   44.9170 H   0  0  0  0  0  0  0  0  0  0  0  0
   60.5386   31.7090   46.6568 H   0  0  0  0  0  0  0  0  0  0  0  0
   58.9752   30.8205   46.3139 H   0  0  0  0  0  0  0  0  0  0  0  0
   60.2296   31.2963   48.8431 H   0  0  0  0  0  0  0  0  0  0  0  0
   58.7110   30.3597   48.4412 H   0  0  0  0  0  0  0  0  0  0  0  0
   61.5417   29.2991   48.7905 H   0  0  0  0  0  0  0  0  0  0  0  0
   60.0536   28.8785   49.7149 H   0  0  0  0  0  0  0  0  0  0  0  0
  1  2  2  0
  2  3  1  0
  3  4  1  0
  4  5  1  0
  5  6  2  0
  5  7  1  0
  7  8  2  0
  8  9  1  0
  9 10  2  0
 10 11  1  0
 11 12  1  0
 12 13  1  0
 13 14  1  0
 14 15  1  0
 15 16  2  0
 16 17  1  0
 17 18  2  0
 18 19  1  0
 19 20  2  0
 11 21  2  0
  2 22  1  0
 22 23  1  0
 23 24  1  0
 24 25  1  0
 25 26  2  0
 26 27  1  0
 27 28  1  0
 28 29  1  0
 29 30  1  0
 21  7  1  0
 30 25  1  0
 20 15  1  0
  3 31  1  0
  3 32  1  0
  4 33  1  0
  8 34  1  0
  9 35  1  0
 10 36  1  0
 13 37  1  0
 13 38  1  0
 14 39  1  0
 14 40  1  0
 16 41  1  0
 17 42  1  0
 18 43  1  0
 19 44  1  0
 20 45  1  0
 21 46  1  0
 23 47  1  0
 23 48  1  0
 24 49  1  0
 24 50  1  0
 26 51  1  0
 27 52  1  0
 27 53  1  0
 28 54  1  0
 28 55  1  0
 29 56  1  0
 29 57  1  0
 30 58  1  0
 30 59  1  0
M  CHG  1  22  -1
M  END
>  <UniqueID>  (16) 
14

>  <SMILES>  (16) 
O=C(CNC(=O)c1cccc(OCCc2ccccc2)c1)[N-]CCC1=CCCCC1

>  <Energy>  (16) 
53.41696433545221

>  <Genealogy>  (16) 
O=C(CNC(=O)c1cccc(OCCc2ccccc2)c1)[N-]CCC1=CCCCC1 (protonated)
O=C(CNC(=O)c1cccc(OCCc2ccccc2)c1)[N-]CCC1=CCCCC1 (3D coordinates assigned)
O=C(CNC(=O)c1cccc(OCCc2ccccc2)c1)[N-]CCC1=CCCCC1 (nonaromatic ring conformer: 53.41696433545221 kcal/mol)

>  <smiles>  (16) 
O=C(CNC(=O)c1cccc(OCCc2ccccc2)c1)NCCC1=CCCCC1

>  <score_type>  (16) 
oracle

>  <origin>  (16) 
adg

>  <m_score__min__energy>  (16) 
-11.52

>  <m_primary>  (16) 
energy

$$$$
16:0
     RDKit          3D

 49 52  0  0  0  0  0  0  0  0999 V2000
   60.8840   23.4940   45.2280 H   0  0  0  0  0  0  0  0  0  0  0  0
   59.8770   23.3920   45.2630 O   0  0  0  0  0  0  0  0  0  0  0  0
   59.0690   24.3400   45.8870 C   0  0  0  0  0  0  0  0  0  0  0  0
   57.6810   24.1930   45.8540 C   0  0  0  0  0  0  0  0  0  0  0  0
   57.2378   23.3233   45.3469 H   0  0  0  0  0  0  0  0  0  0  0  0
   56.8480   25.1400   46.4590 C   0  0  0  0  0  0  0  0  0  0  0  0
   55.4320   24.9140   46.4500 N   0  0  0  0  0  0  0  0  0  0  0  0
   54.7650   23.6480   46.3550 C   0  0  0  0  0  0  0  0  0  0  0  0
   54.7580   22.8590   47.3350 O   0  0  0  0  0  0  0  0  0  0  0  0
   53.9730   23.3260   45.2020 N   0  0  0  0  0  0  0  0  0  0  0  0
   52.6730   23.2900   45.1000 C   0  0  0  0  0  0  0  0  0  0  0  0
   52.0430   22.1040   45.3260 N   0  0  0  0  0  0  0  0  0  0  0  0
   50.6930   21.9670   45.2370 C   0  0  0  0  0  0  0  0  0  0  0  0
   50.2257   20.9908   45.4336 H   0  0  0  0  0  0  0  0  0  0  0  0
   49.9010   23.0620   44.8970 C   0  0  0  0  0  0  0  0  0  0  0  0
   48.8077   22.9593   44.8320 H   0  0  0  0  0  0  0  0  0  0  0  0
   50.5110   24.2900   44.6400 C   0  0  0  0  0  0  0  0  0  0  0  0
   49.8985   25.1615   44.3656 H   0  0  0  0  0  0  0  0  0  0  0  0
   51.8990   24.4130   44.7310 C   0  0  0  0  0  0  0  0  0  0  0  0
   52.3857   25.3760   44.5172 H   0  0  0  0  0  0  0  0  0  0  0  0
   57.4250   26.2360   47.1280 C   0  0  0  0  0  0  0  0  0  0  0  0
   56.7773   26.9900   47.5991 H   0  0  0  0  0  0  0  0  0  0  0  0
   58.8230   26.3750   47.1990 C   0  0  0  0  0  0  0  0  0  0  0  0
   59.4460   27.5170   47.9120 C   0  0  0  0  0  0  0  0  0  0  0  0
   60.0890   27.2570   49.0860 N   0  0  0  0  0  0  0  0  0  0  0  0
   60.7270   28.2190   49.7990 C   0  0  0  0  0  0  0  0  0  0  0  0
   61.3040   27.9210   50.8770 O   0  0  0  0  0  0  0  0  0  0  0  0
   60.7460   29.5330   49.3340 C   0  0  0  0  0  0  0  0  0  0  0  0
   61.2745   30.3149   49.8991 H   0  0  0  0  0  0  0  0  0  0  0  0
   60.0880   29.8460   48.1450 C   0  0  0  0  0  0  0  0  0  0  0  0
   60.0976   30.8808   47.7720 H   0  0  0  0  0  0  0  0  0  0  0  0
   59.4130   28.8500   47.4200 C   0  0  0  0  0  0  0  0  0  0  0  0
   58.6580   29.2440   46.2050 C   0  0  0  0  0  0  0  0  0  0  0  0
   59.2910   29.9310   45.1570 C   0  0  0  0  0  0  0  0  0  0  0  0
   60.3613   30.1740   45.2303 H   0  0  0  0  0  0  0  0  0  0  0  0
   58.5690   30.3080   44.0210 C   0  0  0  0  0  0  0  0  0  0  0  0
   59.0690   30.8679   43.2170 H   0  0  0  0  0  0  0  0  0  0  0  0
   57.2100   29.9770   43.8990 C   0  0  0  0  0  0  0  0  0  0  0  0
   56.4410   30.3960   42.6730 C   0  0  0  0  0  0  0  0  0  0  0  0
   55.6206   31.0658   42.9702 H   0  0  0  0  0  0  0  0  0  0  0  0
   57.1214   30.9177   41.9839 H   0  0  0  0  0  0  0  0  0  0  0  0
   55.9100   29.2730   42.0270 O   0  0  0  0  0  0  0  0  0  0  0  0
   55.3630   28.7860   42.6980 H   0  0  0  0  0  0  0  0  0  0  0  0
   56.5740   29.2900   44.9490 C   0  0  0  0  0  0  0  0  0  0  0  0
   55.2220   28.9680   44.8680 O   0  0  0  0  0  0  0  0  0  0  0  0
   57.2960   28.9220   46.0880 C   0  0  0  0  0  0  0  0  0  0  0  0
   56.7931   28.3756   46.8995 H   0  0  0  0  0  0  0  0  0  0  0  0
   59.6380   25.4330   46.5530 C   0  0  0  0  0  0  0  0  0  0  0  0
   60.7312   25.5537   46.5697 H   0  0  0  0  0  0  0  0  0  0  0  0
  1  2  1  0
  2  3  1  0
  3  4  2  0
  4  5  1  0
  4  6  1  0
  6  7  1  0
  7  8  1  0
  8  9  2  0
  8 10  1  0
 10 11  2  0
 11 12  1  0
 12 13  1  0
 13 14  1  0
 13 15  2  0
 15 16  1  0
 15 17  1  0
 17 18  1  0
 17 19  2  0
 19 20  1  0
  6 21  2  0
 21 22  1  0
 21 23  1  0
 23 24  1  0
 24 25  1  0
 25 26  1  0
 26 27  2  0
 26 28  1  0
 28 29  1  0
 28 30  2  0
 30 31  1  0
 30 32  1  0
 32 33  1  0
 33 34  2  0
 34 35  1  0
 34 36  1  0
 36 37  1  0
 36 38  2  0
 38 39  1  0
 39 40  1  0
 39 41  1  0
 39 42  1  0
 42 43  1  0
 38 44  1  0
 44 45  1  0
 44 46  2  0
 46 47  1  0
 23 48  2  0
 48 49  1  0
 48  3  1  0
 19 11  1  0
 32 24  2  0
 46 33  1  0
M  CHG  4   7  -1  12  -1  25  -1  45  -1
M  END
>  <UniqueID>  (17) 
15

>  <SMILES>  (17) 
O=C(/N=c1\cccc[n-]1)[N-]c1cc(O)cc(-c2[n-]c(=O)ccc2-c2ccc(CO)c([O-])c2)c1

>  <Energy>  (17) 
75.99175931370313

>  <Genealogy>  (17) 
O=C(N=c1cccc[n-]1)[N-]c1cc(O)cc(-c2[n-]c(=O)ccc2-c2ccc(CO)c([O-])c2)c1 (protonated)
O=C(/N=c1\cccc[n-]1)[N-]c1cc(O)cc(-c2[n-]c(=O)ccc2-c2ccc(CO)c([O-])c2)c1 (cis-trans isomerization)
O=C(/N=c1\cccc[n-]1)[N-]c1cc(O)cc(-c2[n-]c(=O)ccc2-c2ccc(CO)c([O-])c2)c1 (3D coordinates assigned)
O=C(/N=c1\cccc[n-]1)[N-]c1cc(O)cc(-c2[n-]c(=O)ccc2-c2ccc(CO)c([O-])c2)c1 (optimized conformer: 75.99175931370313 kcal/mol)

>  <smiles>  (17) 
O=C(N=c1cccc[nH]1)Nc1cc(O)cc(-c2[nH]c(=O)ccc2-c2ccc(CO)c(O)c2)c1

>  <score_type>  (17) 
oracle

>  <origin>  (17) 
adg

>  <m_score__min__energy>  (17) 
-14.470000000000001

>  <m_primary>  (17) 
energy

$$$$
17:0
     RDKit          3D

 56 59  0  0  0  0  0  0  0  0999 V2000
   54.7720   27.4780   46.3650 H   0  0  0  0  0  0  0  0  0  0  0  0
   55.5450   27.0710   45.8510 O   0  0  0  0  0  0  0  0  0  0  0  0
   56.3290   26.0500   46.3870 C   0  0  0  0  0  0  0  0  0  0  0  0
   55.8130   24.9690   46.9930 N   0  0  0  0  0  0  0  0  0  0  0  0
   56.9100   24.2350   47.2830 C   0  0  0  0  0  0  0  0  0  0  0  0
   56.8460   23.1180   47.8650 O   0  0  0  0  0  0  0  0  0  0  0  0
   58.0810   24.7870   46.8950 N   0  0  0  0  0  0  0  0  0  0  0  0
   57.7070   25.9560   46.3440 C   0  0  0  0  0  0  0  0  0  0  0  0
   58.6610   26.8980   45.7300 C   0  0  0  0  0  0  0  0  0  0  0  0
   59.7025   26.5704   45.5963 H   0  0  0  0  0  0  0  0  0  0  0  0
   58.3260   28.1380   45.3240 C   0  0  0  0  0  0  0  0  0  0  0  0
   58.3480   29.2890   46.0980 C   0  0  0  0  0  0  0  0  0  0  0  0
   58.6098   29.3579   47.1642 H   0  0  0  0  0  0  0  0  0  0  0  0
   57.9780   30.3310   45.2720 C   0  0  0  0  0  0  0  0  0  0  0  0
   57.8990   31.7370   45.7120 C   0  0  0  0  0  0  0  0  0  0  0  0
   56.9250   32.4380   45.3260 O   0  0  0  0  0  0  0  0  0  0  0  0
   58.8910   32.3130   46.5830 N   0  0  0  0  0  0  0  0  0  0  0  0
   59.1540   33.7580   46.4950 C   0  0  0  0  0  0  0  0  0  0  0  0
   59.4464   34.0042   45.4636 H   0  0  0  0  0  0  0  0  0  0  0  0
   58.2358   34.2901   46.7843 H   0  0  0  0  0  0  0  0  0  0  0  0
   60.2770   34.1940   47.4470 C   0  0  0  0  0  0  0  0  0  0  0  0
   60.6575   35.1781   47.1358 H   0  0  0  0  0  0  0  0  0  0  0  0
   59.8801   34.2557   48.4710 H   0  0  0  0  0  0  0  0  0  0  0  0
   61.4240   33.1680   47.4090 C   0  0  0  0  0  0  0  0  0  0  0  0
   61.7372   33.0480   46.3614 H   0  0  0  0  0  0  0  0  0  0  0  0
   62.6160   33.6650   48.1450 N   0  0  0  0  0  0  0  0  0  0  0  0
   63.6240   32.6020   48.3570 C   0  0  0  0  0  0  0  0  0  0  0  0
   63.1629   31.7746   48.9162 H   0  0  0  0  0  0  0  0  0  0  0  0
   63.9779   32.2520   47.3760 H   0  0  0  0  0  0  0  0  0  0  0  0
   64.8220   33.1360   49.1480 C   0  0  0  0  0  0  0  0  0  0  0  0
   65.5510   32.3231   49.2810 H   0  0  0  0  0  0  0  0  0  0  0  0
   65.2585   33.9720   48.5818 H   0  0  0  0  0  0  0  0  0  0  0  0
   64.4070   33.6640   50.5340 C   0  0  0  0  0  0  0  0  0  0  0  0
   64.6890   32.9185   51.2921 H   0  0  0  0  0  0  0  0  0  0  0  0
   64.9234   34.6227   50.6894 H   0  0  0  0  0  0  0  0  0  0  0  0
   62.8960   33.9310   50.6470 C   0  0  0  0  0  0  0  0  0  0  0  0
   62.3812   32.9851   50.8713 H   0  0  0  0  0  0  0  0  0  0  0  0
   62.7331   34.6641   51.4507 H   0  0  0  0  0  0  0  0  0  0  0  0
   62.3300   34.5110   49.3410 C   0  0  0  0  0  0  0  0  0  0  0  0
   61.2394   34.6088   49.4465 H   0  0  0  0  0  0  0  0  0  0  0  0
   62.8200   35.4821   49.1772 H   0  0  0  0  0  0  0  0  0  0  0  0
   60.9580   31.7580   47.8650 C   0  0  0  0  0  0  0  0  0  0  0  0
   61.4887   31.0042   47.2648 H   0  0  0  0  0  0  0  0  0  0  0  0
   61.1865   31.6713   48.9375 H   0  0  0  0  0  0  0  0  0  0  0  0
   59.4430   31.5330   47.7030 C   0  0  0  0  0  0  0  0  0  0  0  0
   59.2596   30.4644   47.5172 H   0  0  0  0  0  0  0  0  0  0  0  0
   58.9474   31.8644   48.6274 H   0  0  0  0  0  0  0  0  0  0  0  0
   57.7130   29.8750   44.0240 N   0  0  0  0  0  0  0  0  0  0  0  0
   57.1860   30.6500   42.8950 C   0  0  0  0  0  0  0  0  0  0  0  0
   56.6056   31.5035   43.2753 H   0  0  0  0  0  0  0  0  0  0  0  0
   58.0214   31.0188   42.2817 H   0  0  0  0  0  0  0  0  0  0  0  0
   56.5360   30.0087   42.2817 H   0  0  0  0  0  0  0  0  0  0  0  0
   57.9330   28.5350   44.0430 C   0  0  0  0  0  0  0  0  0  0  0  0
   57.7760   27.7350   42.9760 C   0  0  0  0  0  0  0  0  0  0  0  0
   57.4611   28.1600   42.0115 H   0  0  0  0  0  0  0  0  0  0  0  0
   57.9623   26.6547   43.0664 H   0  0  0  0  0  0  0  0  0  0  0  0
  1  2  1  0
  2  3  1  0
  3  4  1  0
  4  5  1  0
  5  6  2  0
  5  7  1  0
  7  8  1  0
  8  9  1  0
  9 10  1  0
  9 11  2  0
 11 12  1  0
 12 13  1  0
 12 14  2  0
 14 15  1  0
 15 16  2  0
 15 17  1  0
 17 18  1  0
 18 19  1  0
 18 20  1  0
 18 21  1  0
 21 22  1  0
 21 23  1  0
 21 24  1  0
 24 25  1  0
 24 26  1  0
 26 27  1  0
 27 28  1  0
 27 29  1  0
 27 30  1  0
 30 31  1  0
 30 32  1  0
 30 33  1  0
 33 34  1  0
 33 35  1  0
 33 36  1  0
 36 37  1  0
 36 38  1  0
 36 39  1  0
 39 40  1  0
 39 41  1  0
 24 42  1  0
 42 43  1  0
 42 44  1  0
 42 45  1  0
 45 46  1  0
 45 47  1  0
 14 48  1  0
 48 49  1  0
 49 50  1  0
 49 51  1  0
 49 52  1  0
 48 53  1  0
 53 54  2  0
 54 55  1  0
 54 56  1  0
  8  3  2  0
 53 11  1  0
 45 17  1  0
 39 26  1  0
M  CHG  2   4  -1   7  -1
M  END
>  <UniqueID>  (18) 
16

>  <SMILES>  (18) 
C=c1/c(=C/c2[n-]c(=O)[n-]c2O)cc(C(=O)N2CCC(N3CCCCC3)CC2)n1C

>  <Energy>  (18) 
141.17214959158125

>  <Genealogy>  (18) 
C=c1c(=Cc2[n-]c(=O)[n-]c2O)cc(C(=O)N2CCC(N3CCCCC3)CC2)n1C (protonated)
C=c1/c(=C/c2[n-]c(=O)[n-]c2O)cc(C(=O)N2CCC(N3CCCCC3)CC2)n1C (cis-trans isomerization)
C=c1/c(=C/c2[n-]c(=O)[n-]c2O)cc(C(=O)N2CCC(N3CCCCC3)CC2)n1C (3D coordinates assigned)
C=c1/c(=C/c2[n-]c(=O)[n-]c2O)cc(C(=O)N2CCC(N3CCCCC3)CC2)n1C (nonaromatic ring conformer: 141.17214959158125 kcal/mol)

>  <smiles>  (18) 
C=c1c(=Cc2[nH]c(=O)[nH]c2O)cc(C(=O)N2CCC(N3CCCCC3)CC2)n1C

>  <score_type>  (18) 
oracle

>  <origin>  (18) 
adg

>  <m_score__min__energy>  (18) 
-14.359999999999999

>  <m_primary>  (18) 
energy

$$$$
18:0
     RDKit          3D

 50 53  0  0  0  0  0  0  0  0999 V2000
   58.0834   26.8394   41.5279 H   0  0  0  0  0  0  0  0  0  0  0  0
   58.0710   26.7170   42.6210 C   0  0  0  0  0  0  0  0  0  0  0  0
   57.6200   25.5600   43.1690 N   0  0  0  0  0  0  0  0  0  0  0  0
   57.5890   25.3520   44.5140 C   0  0  0  0  0  0  0  0  0  0  0  0
   57.0340   24.0480   45.0090 C   0  0  0  0  0  0  0  0  0  0  0  0
   57.0324   24.0442   46.1090 H   0  0  0  0  0  0  0  0  0  0  0  0
   56.0051   23.9239   44.6404 H   0  0  0  0  0  0  0  0  0  0  0  0
   57.6579   23.2204   44.6404 H   0  0  0  0  0  0  0  0  0  0  0  0
   58.0590   26.3660   45.3900 C   0  0  0  0  0  0  0  0  0  0  0  0
   58.0860   26.2130   46.8660 C   0  0  0  0  0  0  0  0  0  0  0  0
   57.0000   26.1000   47.4960 O   0  0  0  0  0  0  0  0  0  0  0  0
   59.3290   26.3270   47.5800 N   0  0  0  0  0  0  0  0  0  0  0  0
   59.8520   27.3800   48.1460 C   0  0  0  0  0  0  0  0  0  0  0  0
   60.3950   27.2390   49.4270 C   0  0  0  0  0  0  0  0  0  0  0  0
   60.3857   26.2576   49.9238 H   0  0  0  0  0  0  0  0  0  0  0  0
   60.9490   28.3450   50.0750 C   0  0  0  0  0  0  0  0  0  0  0  0
   61.3820   28.2327   51.0799 H   0  0  0  0  0  0  0  0  0  0  0  0
   60.9540   29.5580   49.4670 N   0  0  0  0  0  0  0  0  0  0  0  0
   60.4350   29.7440   48.2230 C   0  0  0  0  0  0  0  0  0  0  0  0
   60.4090   31.1280   47.6160 C   0  0  1  0  0  0  0  0  0  0  0  0
   61.4525   31.4491   47.4820 H   0  0  0  0  0  0  0  0  0  0  0  0
   59.7040   31.1020   46.2450 C   0  0  0  0  0  0  0  0  0  0  0  0
   58.7755   30.5185   46.3315 H   0  0  0  0  0  0  0  0  0  0  0  0
   60.3871   30.6447   45.5141 H   0  0  0  0  0  0  0  0  0  0  0  0
   59.3740   32.4610   45.7820 N   0  0  0  0  0  0  0  0  0  0  0  0
   58.2800   32.6600   44.8680 C   0  0  0  0  0  0  0  0  0  0  0  0
   58.0060   33.8240   44.4700 O   0  0  0  0  0  0  0  0  0  0  0  0
   57.4510   31.5370   44.3960 C   0  0  0  0  0  0  0  0  0  0  0  0
   56.6830   30.7960   45.2210 N   0  0  0  0  0  0  0  0  0  0  0  0
   56.0590   29.9170   44.4160 C   0  0  0  0  0  0  0  0  0  0  0  0
   55.1670   28.9590   44.8800 O   0  0  0  0  0  0  0  0  0  0  0  0
   56.4050   30.0890   43.0950 C   0  0  0  0  0  0  0  0  0  0  0  0
   56.0439   29.5096   42.2325 H   0  0  0  0  0  0  0  0  0  0  0  0
   57.2970   31.1370   43.0780 C   0  0  0  0  0  0  0  0  0  0  0  0
   57.7893   31.5704   42.1949 H   0  0  0  0  0  0  0  0  0  0  0  0
   59.9870   33.6170   46.4490 C   0  0  0  0  0  0  0  0  0  0  0  0
   59.5610   34.5420   46.0330 H   0  0  0  0  0  0  0  0  0  0  0  0
   61.0736   33.5884   46.2801 H   0  0  0  0  0  0  0  0  0  0  0  0
   59.7200   33.5740   47.9620 C   0  0  0  0  0  0  0  0  0  0  0  0
   58.7402   34.0347   48.1563 H   0  0  0  0  0  0  0  0  0  0  0  0
   60.5404   34.1188   48.4519 H   0  0  0  0  0  0  0  0  0  0  0  0
   59.7120   32.1420   48.5440 C   0  0  0  0  0  0  0  0  0  0  0  0
   58.6687   31.8265   48.6922 H   0  0  0  0  0  0  0  0  0  0  0  0
   60.2651   32.1627   49.4946 H   0  0  0  0  0  0  0  0  0  0  0  0
   59.8540   28.6580   47.5460 C   0  0  0  0  0  0  0  0  0  0  0  0
   59.4029   28.8031   46.5533 H   0  0  0  0  0  0  0  0  0  0  0  0
   58.5070   27.5730   44.8250 C   0  0  0  0  0  0  0  0  0  0  0  0
   58.8521   28.3862   45.4804 H   0  0  0  0  0  0  0  0  0  0  0  0
   58.5180   27.7490   43.4420 C   0  0  0  0  0  0  0  0  0  0  0  0
   58.8758   28.6926   43.0043 H   0  0  0  0  0  0  0  0  0  0  0  0
  1  2  1  0
  2  3  2  0
  3  4  1  0
  4  5  1  0
  5  6  1  0
  5  7  1  0
  5  8  1  0
  4  9  2  0
  9 10  1  0
 10 11  2  0
 10 12  1  0
 12 13  2  0
 13 14  1  0
 14 15  1  0
 14 16  2  0
 16 17  1  0
 16 18  1  0
 18 19  1  0
 19 20  1  0
 20 21  1  6
 20 22  1  0
 22 23  1  0
 22 24  1  0
 22 25  1  0
 25 26  1  0
 26 27  2  0
 26 28  1  0
 28 29  1  0
 29 30  1  0
 30 31  1  0
 30 32  2  0
 32 33  1  0
 32 34  1  0
 34 35  1  0
 25 36  1  0
 36 37  1  0
 36 38  1  0
 36 39  1  0
 39 40  1  0
 39 41  1  0
 39 42  1  0
 42 43  1  0
 42 44  1  0
 19 45  2  0
 45 46  1  0
  9 47  1  0
 47 48  1  0
 47 49  2  0
 49 50  1  0
 49  2  1  0
 45 13  1  0
 42 20  1  0
 34 28  2  0
M  CHG  3  18  -1  29  -1  31  -1
M  END
>  <UniqueID>  (19) 
17

>  <SMILES>  (19) 
Cc1ncccc1C(=O)/N=c1/cc[n-]c([C@@H]2CCCN(C(=O)c3ccc([O-])[n-]3)C2)c1

>  <Energy>  (19) 
97.11235305855331

>  <Genealogy>  (19) 
Cc1ncccc1C(=O)N=c1cc[n-]c(C2CCCN(C(=O)c3ccc([O-])[n-]3)C2)c1 (protonated)
Cc1ncccc1C(=O)N=c1cc[n-]c([C@@H]2CCCN(C(=O)c3ccc([O-])[n-]3)C2)c1 (chirality)
Cc1ncccc1C(=O)/N=c1/cc[n-]c([C@@H]2CCCN(C(=O)c3ccc([O-])[n-]3)C2)c1 (cis-trans isomerization)
Cc1ncccc1C(=O)/N=c1/cc[n-]c([C@@H]2CCCN(C(=O)c3ccc([O-])[n-]3)C2)c1 (3D coordinates assigned)
Cc1ncccc1C(=O)/N=c1/cc[n-]c([C@@H]2CCCN(C(=O)c3ccc([O-])[n-]3)C2)c1 (nonaromatic ring conformer: 97.11235305855331 kcal/mol)

>  <smiles>  (19) 
Cc1ncccc1C(=O)N=c1cc[nH]c(C2CCCN(C(=O)c3ccc(O)[nH]3)C2)c1

>  <score_type>  (19) 
oracle

>  <origin>  (19) 
adg

>  <m_score__min__energy>  (19) 
-15.720000000000001

>  <m_primary>  (19) 
energy

$$$$
19:0
     RDKit          3D

 53 55  0  0  0  0  0  0  0  0999 V2000
   56.4020   30.4310   43.4600 C   0  0  0  0  0  0  0  0  0  0  0  0
   56.7150   30.5290   44.8460 O   0  0  0  0  0  0  0  0  0  0  0  0
   57.7630   29.8390   45.4770 C   0  0  0  0  0  0  0  0  0  0  0  0
   58.9780   30.4710   45.8060 C   0  0  0  0  0  0  0  0  0  0  0  0
   60.0170   29.7520   46.4170 C   0  0  0  0  0  0  0  0  0  0  0  0
   61.3210   30.4340   46.7680 C   0  0  0  0  0  0  0  0  0  0  0  0
   61.1660   31.8440   47.1910 N   0  0  0  0  0  0  0  0  0  0  0  0
   60.4120   32.0670   48.4460 C   0  0  0  0  0  0  0  0  0  0  0  0
   58.9980   32.5800   48.2540 C   0  0  0  0  0  0  0  0  0  0  0  0
   58.1260   32.3660   49.1390 O   0  0  0  0  0  0  0  0  0  0  0  0
   58.6440   33.3590   47.0930 N   0  0  0  0  0  0  0  0  0  0  0  0
   59.5700   34.3550   46.5420 C   0  0  0  0  0  0  0  0  0  0  0  0
   59.2740   34.5690   45.0540 C   0  0  0  0  0  0  0  0  0  0  0  0
   57.9070   34.8770   44.8530 O   0  0  0  0  0  0  0  0  0  0  0  0
   57.1100   33.7690   45.2230 C   0  0  0  0  0  0  0  0  0  0  0  0
   57.2300   33.4880   46.7240 C   0  0  0  0  0  0  0  0  0  0  0  0
   62.3390   32.7150   46.9780 C   0  0  0  0  0  0  0  0  0  0  0  0
   62.9440   33.1070   48.2990 C   0  0  0  0  0  0  0  0  0  0  0  0
   63.9650   32.3260   48.8620 C   0  0  0  0  0  0  0  0  0  0  0  0
   64.5200   32.6740   50.0980 C   0  0  0  0  0  0  0  0  0  0  0  0
   64.0570   33.8030   50.7800 C   0  0  0  0  0  0  0  0  0  0  0  0
   64.8150   34.2760   52.4680 Br  0  0  0  0  0  0  0  0  0  0  0  0
   63.0390   34.5850   50.2260 C   0  0  0  0  0  0  0  0  0  0  0  0
   62.4830   34.2400   48.9900 C   0  0  0  0  0  0  0  0  0  0  0  0
   59.8220   28.3990   46.7330 C   0  0  0  0  0  0  0  0  0  0  0  0
   58.6150   27.7710   46.4250 C   0  0  0  0  0  0  0  0  0  0  0  0
   57.5890   28.4790   45.7910 C   0  0  0  0  0  0  0  0  0  0  0  0
   56.4030   27.8140   45.4830 O   0  0  0  0  0  0  0  0  0  0  0  0
   55.3583   30.1042   43.3420 H   0  0  0  0  0  0  0  0  0  0  0  0
   56.5346   31.4137   42.9838 H   0  0  0  0  0  0  0  0  0  0  0  0
   57.0713   29.6994   42.9838 H   0  0  0  0  0  0  0  0  0  0  0  0
   59.1140   31.5393   45.5817 H   0  0  0  0  0  0  0  0  0  0  0  0
   61.7934   29.8759   47.5898 H   0  0  0  0  0  0  0  0  0  0  0  0
   61.9338   30.4404   45.8545 H   0  0  0  0  0  0  0  0  0  0  0  0
   60.3589   31.1113   48.9881 H   0  0  0  0  0  0  0  0  0  0  0  0
   60.9535   32.8490   48.9985 H   0  0  0  0  0  0  0  0  0  0  0  0
   59.4459   35.3065   47.0799 H   0  0  0  0  0  0  0  0  0  0  0  0
   60.6030   33.9958   46.6596 H   0  0  0  0  0  0  0  0  0  0  0  0
   59.8898   35.4000   44.6796 H   0  0  0  0  0  0  0  0  0  0  0  0
   59.5104   33.6424   44.5105 H   0  0  0  0  0  0  0  0  0  0  0  0
   56.0590   33.9837   44.9794 H   0  0  0  0  0  0  0  0  0  0  0  0
   57.4588   32.8842   44.6702 H   0  0  0  0  0  0  0  0  0  0  0  0
   56.7794   34.3178   47.2882 H   0  0  0  0  0  0  0  0  0  0  0  0
   56.7053   32.5509   46.9616 H   0  0  0  0  0  0  0  0  0  0  0  0
   63.0888   32.1748   46.3813 H   0  0  0  0  0  0  0  0  0  0  0  0
   62.0188   33.6235   46.4469 H   0  0  0  0  0  0  0  0  0  0  0  0
   64.3306   31.4360   48.3289 H   0  0  0  0  0  0  0  0  0  0  0  0
   65.3212   32.0589   50.5335 H   0  0  0  0  0  0  0  0  0  0  0  0
   62.6748   35.4731   50.7632 H   0  0  0  0  0  0  0  0  0  0  0  0
   61.6822   34.8577   48.5575 H   0  0  0  0  0  0  0  0  0  0  0  0
   60.6246   27.8308   47.2259 H   0  0  0  0  0  0  0  0  0  0  0  0
   58.4692   26.7116   46.6826 H   0  0  0  0  0  0  0  0  0  0  0  0
   56.2780   27.3050   44.6160 H   0  0  0  0  0  0  0  0  0  0  0  0
  1  2  1  0
  2  3  1  0
  3  4  2  0
  4  5  1  0
  5  6  1  0
  6  7  1  0
  7  8  1  0
  8  9  1  0
  9 10  2  0
  9 11  1  0
 11 12  1  0
 12 13  1  0
 13 14  1  0
 14 15  1  0
 15 16  1  0
  7 17  1  0
 17 18  1  0
 18 19  2  0
 19 20  1  0
 20 21  2  0
 21 22  1  0
 21 23  1  0
 23 24  2  0
  5 25  2  0
 25 26  1  0
 26 27  2  0
 27 28  1  0
 27  3  1  0
 16 11  1  0
 24 18  1  0
  1 29  1  0
  1 30  1  0
  1 31  1  0
  4 32  1  0
  6 33  1  0
  6 34  1  0
  8 35  1  0
  8 36  1  0
 12 37  1  0
 12 38  1  0
 13 39  1  0
 13 40  1  0
 15 41  1  0
 15 42  1  0
 16 43  1  0
 16 44  1  0
 17 45  1  0
 17 46  1  0
 19 47  1  0
 20 48  1  0
 23 49  1  0
 24 50  1  0
 25 51  1  0
 26 52  1  0
 28 53  1  0
M  END
>  <UniqueID>  (20) 
18

>  <SMILES>  (20) 
COc1cc(CN(CC(=O)N2CCOCC2)Cc2ccc(Br)cc2)ccc1O

>  <Energy>  (20) 
62.56934516483034

>  <Genealogy>  (20) 
COc1cc(CN(CC(=O)N2CCOCC2)Cc2ccc(Br)cc2)ccc1O (3D coordinates assigned)
COc1cc(CN(CC(=O)N2CCOCC2)Cc2ccc(Br)cc2)ccc1O (nonaromatic ring conformer: 62.56934516483034 kcal/mol)

>  <smiles>  (20) 
COc1cc(CN(CC(=O)N2CCOCC2)Cc2ccc(Br)cc2)ccc1O

>  <score_type>  (20) 
oracle

>  <origin>  (20) 
adg

>  <m_score__min__energy>  (20) 
-8.5299999999999994

>  <m_primary>  (20) 
energy

$$$$
20:0
     RDKit          3D

 41 44  0  0  0  0  0  0  0  0999 V2000
   61.0970   30.0700   50.6620 C   0  0  0  0  0  0  0  0  0  0  0  0
   60.7620   30.7200   49.3990 N   0  0  0  0  0  0  0  0  0  0  0  0
   59.5930   30.6120   48.7280 C   0  0  0  0  0  0  0  0  0  0  0  0
   59.6220   31.4000   47.5800 C   0  0  0  0  0  0  0  0  0  0  0  0
   58.5450   31.5340   46.5810 C   0  0  0  0  0  0  0  0  0  0  0  0
   58.0840   30.5800   45.7680 C   0  0  0  0  0  0  0  0  0  0  0  0
   58.4470   29.1450   45.7770 C   0  0  0  0  0  0  0  0  0  0  0  0
   59.7930   28.7450   45.7280 C   0  0  0  0  0  0  0  0  0  0  0  0
   60.1260   27.3890   45.7440 C   0  0  0  0  0  0  0  0  0  0  0  0
   59.1230   26.4190   45.8150 C   0  0  0  0  0  0  0  0  0  0  0  0
   57.7770   26.8050   45.8690 C   0  0  0  0  0  0  0  0  0  0  0  0
   56.5070   25.5890   45.9750 S   0  0  0  0  0  0  0  0  0  0  0  0
   54.9640   26.3660   45.9930 N   0  0  0  0  0  0  0  0  0  0  0  0
   56.5910   24.6630   44.7950 O   0  0  0  0  0  0  0  0  0  0  0  0
   56.6730   24.7830   47.2340 O   0  0  0  0  0  0  0  0  0  0  0  0
   57.4430   28.1660   45.8590 C   0  0  0  0  0  0  0  0  0  0  0  0
   57.1110   31.2080   44.8710 C   0  0  0  0  0  0  0  0  0  0  0  0
   56.4480   30.6040   43.9870 O   0  0  0  0  0  0  0  0  0  0  0  0
   56.9700   32.5990   45.1290 N   0  0  0  0  0  0  0  0  0  0  0  0
   57.8840   32.7850   46.2010 C   0  0  0  0  0  0  0  0  0  0  0  0
   58.1230   33.9110   46.7100 O   0  0  0  0  0  0  0  0  0  0  0  0
   60.8650   32.0090   47.5740 C   0  0  0  0  0  0  0  0  0  0  0  0
   61.4290   32.9420   46.7020 C   0  0  0  0  0  0  0  0  0  0  0  0
   62.7240   33.4120   46.9880 C   0  0  0  0  0  0  0  0  0  0  0  0
   63.4180   32.9570   48.1340 C   0  0  0  0  0  0  0  0  0  0  0  0
   64.6990   33.4250   48.4150 O   0  0  0  0  0  0  0  0  0  0  0  0
   62.8150   32.0300   49.0040 C   0  0  0  0  0  0  0  0  0  0  0  0
   61.5300   31.5760   48.6950 C   0  0  0  0  0  0  0  0  0  0  0  0
   60.7700   30.7045   51.4990 H   0  0  0  0  0  0  0  0  0  0  0  0
   60.5884   29.0963   50.7195 H   0  0  0  0  0  0  0  0  0  0  0  0
   62.1851   29.9193   50.7195 H   0  0  0  0  0  0  0  0  0  0  0  0
   58.7416   29.9911   49.0435 H   0  0  0  0  0  0  0  0  0  0  0  0
   60.5881   29.5035   45.6768 H   0  0  0  0  0  0  0  0  0  0  0  0
   61.1818   27.0834   45.7005 H   0  0  0  0  0  0  0  0  0  0  0  0
   59.3900   25.3520   45.8285 H   0  0  0  0  0  0  0  0  0  0  0  0
   55.1410   27.3950   46.0330 H   0  0  0  0  0  0  0  0  0  0  0  0
   56.3873   28.4697   45.9158 H   0  0  0  0  0  0  0  0  0  0  0  0
   60.8783   33.2985   45.8191 H   0  0  0  0  0  0  0  0  0  0  0  0
   63.2010   34.1395   46.3148 H   0  0  0  0  0  0  0  0  0  0  0  0
   65.5010   33.1310   47.8700 H   0  0  0  0  0  0  0  0  0  0  0  0
   63.3403   31.6727   49.9020 H   0  0  0  0  0  0  0  0  0  0  0  0
  1  2  1  0
  2  3  1  0
  3  4  2  0
  4  5  1  0
  5  6  2  0
  6  7  1  0
  7  8  2  0
  8  9  1  0
  9 10  2  0
 10 11  1  0
 11 12  1  0
 12 13  1  0
 12 14  2  0
 12 15  2  0
 11 16  2  0
  6 17  1  0
 17 18  2  0
 17 19  1  0
 19 20  1  0
 20 21  2  0
  4 22  1  0
 22 23  2  0
 23 24  1  0
 24 25  2  0
 25 26  1  0
 25 27  1  0
 27 28  2  0
 28  2  1  0
 20  5  1  0
 28 22  1  0
 16  7  1  0
  1 29  1  0
  1 30  1  0
  1 31  1  0
  3 32  1  0
  8 33  1  0
  9 34  1  0
 10 35  1  0
 13 36  1  0
 16 37  1  0
 23 38  1  0
 24 39  1  0
 26 40  1  0
 27 41  1  0
M  CHG  2  13  -1  19  -1
M  END
>  <UniqueID>  (21) 
19

>  <SMILES>  (21) 
Cn1cc(C2=C(c3cccc(S([NH-])(=O)=O)c3)C(=O)[N-]C2=O)c2ccc(O)cc21

>  <Energy>  (21) 
110.94586559053405

>  <Genealogy>  (21) 
Cn1cc(C2=C(c3cccc(S([NH-])(=O)=O)c3)C(=O)[N-]C2=O)c2ccc(O)cc21 (protonated)
Cn1cc(C2=C(c3cccc(S([NH-])(=O)=O)c3)C(=O)[N-]C2=O)c2ccc(O)cc21 (3D coordinates assigned)
Cn1cc(C2=C(c3cccc(S([NH-])(=O)=O)c3)C(=O)[N-]C2=O)c2ccc(O)cc21 (nonaromatic ring conformer: 110.94586559053405 kcal/mol)

>  <smiles>  (21) 
Cn1cc(C2=C(c3cccc(S(N)(=O)=O)c3)C(=O)NC2=O)c2ccc(O)cc21

>  <score_type>  (21) 
oracle

>  <origin>  (21) 
adg

>  <m_score__min__energy>  (21) 
-13.48

>  <m_primary>  (21) 
energy

$$$$
21:0
     RDKit          3D

 60 65  0  0  0  0  0  0  0  0999 V2000
   63.8340   26.9010   52.3480 C   0  0  0  0  0  0  0  0  0  0  0  0
   65.2660   27.1760   51.9750 C   0  0  0  0  0  0  0  0  0  0  0  0
   66.0700   26.1250   51.5020 C   0  0  0  0  0  0  0  0  0  0  0  0
   67.3850   26.3610   51.0980 C   0  0  0  0  0  0  0  0  0  0  0  0
   67.9240   27.6450   51.1830 C   0  0  0  0  0  0  0  0  0  0  0  0
   67.1480   28.6980   51.6720 C   0  0  0  0  0  0  0  0  0  0  0  0
   65.8050   28.4840   52.0430 C   0  0  0  0  0  0  0  0  0  0  0  0
   64.9710   29.6210   52.3460 N   0  0  0  0  0  0  0  0  0  0  0  0
   65.2080   30.8740   51.6850 C   0  0  0  0  0  0  0  0  0  0  0  0
   64.1280   31.6860   51.3090 C   0  0  0  0  0  0  0  0  0  0  0  0
   64.3370   32.8300   50.5150 C   0  0  0  0  0  0  0  0  0  0  0  0
   63.2030   33.6910   50.0870 C   0  0  0  0  0  0  0  0  0  0  0  0
   63.1710   34.8910   50.4840 O   0  0  0  0  0  0  0  0  0  0  0  0
   62.1660   33.1990   49.2000 N   0  0  1  0  0  0  0  0  0  0  0  0
   60.8170   33.6000   49.6840 C   0  0  0  0  0  0  0  0  0  0  0  0
   59.7370   33.5650   48.5760 C   0  0  0  0  0  0  0  0  0  0  0  0
   60.1250   32.5970   47.4400 C   0  0  1  0  0  0  0  0  0  0  0  0
   59.0720   32.4820   46.4050 N   0  0  0  0  0  0  0  0  0  0  0  0
   58.3380   33.6390   45.9560 C   0  0  0  0  0  0  0  0  0  0  0  0
   58.8770   34.7780   45.9160 O   0  0  0  0  0  0  0  0  0  0  0  0
   56.9050   33.4780   45.5570 C   0  0  0  0  0  0  0  0  0  0  0  0
   56.7080   32.2480   44.8620 O   0  0  0  0  0  0  0  0  0  0  0  0
   57.5200   31.1220   45.0480 C   0  0  0  0  0  0  0  0  0  0  0  0
   57.1530   29.9150   44.4460 C   0  0  0  0  0  0  0  0  0  0  0  0
   57.9710   28.7910   44.5680 C   0  0  0  0  0  0  0  0  0  0  0  0
   59.1690   28.8740   45.2760 C   0  0  0  0  0  0  0  0  0  0  0  0
   59.5470   30.0760   45.8820 C   0  0  0  0  0  0  0  0  0  0  0  0
   58.7120   31.2120   45.8030 C   0  0  0  0  0  0  0  0  0  0  0  0
   61.4790   32.9880   46.8110 C   0  0  0  0  0  0  0  0  0  0  0  0
   62.4210   33.6730   47.8240 C   0  0  0  0  0  0  0  0  0  0  0  0
   65.6410   33.1300   50.0810 C   0  0  0  0  0  0  0  0  0  0  0  0
   66.7200   32.3320   50.4710 C   0  0  0  0  0  0  0  0  0  0  0  0
   66.5080   31.2200   51.2880 C   0  0  0  0  0  0  0  0  0  0  0  0
   67.9050   30.3040   51.9420 S   0  0  0  0  0  0  0  0  0  0  0  0
   63.7376   26.8825   53.4436 H   0  0  0  0  0  0  0  0  0  0  0  0
   63.1896   27.6918   51.9365 H   0  0  0  0  0  0  0  0  0  0  0  0
   63.5283   25.9277   51.9365 H   0  0  0  0  0  0  0  0  0  0  0  0
   65.6589   25.1061   51.4496 H   0  0  0  0  0  0  0  0  0  0  0  0
   67.9976   25.5330   50.7118 H   0  0  0  0  0  0  0  0  0  0  0  0
   68.9609   27.8280   50.8646 H   0  0  0  0  0  0  0  0  0  0  0  0
   64.0550   29.4840   52.8280 H   0  0  0  0  0  0  0  0  0  0  0  0
   63.1103   31.4273   51.6367 H   0  0  0  0  0  0  0  0  0  0  0  0
   62.1910   32.1520   49.2020 H   0  0  0  0  0  0  0  0  0  0  0  0
   60.8780   34.6242   50.0807 H   0  0  0  0  0  0  0  0  0  0  0  0
   60.5176   32.8754   50.4556 H   0  0  0  0  0  0  0  0  0  0  0  0
   59.6192   34.5762   48.1595 H   0  0  0  0  0  0  0  0  0  0  0  0
   58.7951   33.2137   49.0226 H   0  0  0  0  0  0  0  0  0  0  0  0
   60.2306   31.6024   47.8978 H   0  0  0  0  0  0  0  0  0  0  0  0
   56.2761   33.4871   46.4595 H   0  0  0  0  0  0  0  0  0  0  0  0
   56.6293   34.3081   44.8899 H   0  0  0  0  0  0  0  0  0  0  0  0
   56.2157   29.8509   43.8738 H   0  0  0  0  0  0  0  0  0  0  0  0
   57.6704   27.8393   44.1054 H   0  0  0  0  0  0  0  0  0  0  0  0
   59.8193   27.9906   45.3582 H   0  0  0  0  0  0  0  0  0  0  0  0
   60.5020   30.1372   46.4244 H   0  0  0  0  0  0  0  0  0  0  0  0
   61.2943   33.6800   45.9762 H   0  0  0  0  0  0  0  0  0  0  0  0
   61.9690   32.0649   46.4676 H   0  0  0  0  0  0  0  0  0  0  0  0
   62.2602   34.7605   47.7841 H   0  0  0  0  0  0  0  0  0  0  0  0
   63.4585   33.4228   47.5574 H   0  0  0  0  0  0  0  0  0  0  0  0
   65.8128   33.9995   49.4295 H   0  0  0  0  0  0  0  0  0  0  0  0
   67.7372   32.5803   50.1339 H   0  0  0  0  0  0  0  0  0  0  0  0
  1  2  1  0
  2  3  2  0
  3  4  1  0
  4  5  2  0
  5  6  1  0
  6  7  2  0
  7  8  1  0
  8  9  1  0
  9 10  2  0
 10 11  1  0
 11 12  1  0
 12 13  2  0
 12 14  1  0
 14 15  1  0
 15 16  1  0
 16 17  1  0
 17 18  1  0
 18 19  1  0
 19 20  2  0
 19 21  1  0
 21 22  1  0
 22 23  1  0
 23 24  2  0
 24 25  1  0
 25 26  2  0
 26 27  1  0
 27 28  2  0
 17 29  1  0
 29 30  1  0
 11 31  2  0
 31 32  1  0
 32 33  2  0
 33 34  1  0
  7  2  1  0
 33  9  1  0
 34  6  1  0
 30 14  1  0
 28 18  1  0
 28 23  1  0
  1 35  1  0
  1 36  1  0
  1 37  1  0
  3 38  1  0
  4 39  1  0
  5 40  1  0
  8 41  1  0
 10 42  1  0
 14 43  1  6
 15 44  1  0
 15 45  1  0
 16 46  1  0
 16 47  1  0
 17 48  1  1
 21 49  1  0
 21 50  1  0
 24 51  1  0
 25 52  1  0
 26 53  1  0
 27 54  1  0
 29 55  1  0
 29 56  1  0
 30 57  1  0
 30 58  1  0
 31 59  1  0
 32 60  1  0
M  CHG  1  14   1
M  END
>  <UniqueID>  (22) 
20

>  <SMILES>  (22) 
Cc1cccc2c1Nc1cc(C(=O)[NH+]3CCC(N4C(=O)COc5ccccc54)CC3)ccc1S2

>  <Energy>  (22) 
103.01284471118628

>  <Genealogy>  (22) 
Cc1cccc2c1Nc1cc(C(=O)[NH+]3CCC(N4C(=O)COc5ccccc54)CC3)ccc1S2 (protonated)
Cc1cccc2c1Nc1cc(C(=O)[NH+]3CCC(N4C(=O)COc5ccccc54)CC3)ccc1S2 (3D coordinates assigned)
Cc1cccc2c1Nc1cc(C(=O)[NH+]3CCC(N4C(=O)COc5ccccc54)CC3)ccc1S2 (nonaromatic ring conformer: 103.01284471118628 kcal/mol)

>  <smiles>  (22) 
Cc1cccc2c1Nc1cc(C(=O)N3CCC(N4C(=O)COc5ccccc54)CC3)ccc1S2

>  <score_type>  (22) 
oracle

>  <origin>  (22) 
adg

>  <m_score__min__energy>  (22) 
-8.3900000000000006

>  <m_primary>  (22) 
energy

$$$$
22:0
     RDKit          3D

 52 55  0  0  0  0  0  0  0  0999 V2000
   64.5260   32.2560   47.4440 H   0  0  0  0  0  0  0  0  0  0  0  0
   63.7230   32.1410   48.1060 N   0  0  0  0  0  0  0  0  0  0  0  0
   62.4360   33.1420   47.5320 S   0  0  0  0  0  0  0  0  0  0  0  0
   61.9740   34.0360   48.6520 O   0  0  0  0  0  0  0  0  0  0  0  0
   62.9280   33.9910   46.3910 O   0  0  0  0  0  0  0  0  0  0  0  0
   61.1080   32.1250   46.9760 C   0  0  0  0  0  0  0  0  0  0  0  0
   61.2360   30.7280   47.0290 C   0  0  0  0  0  0  0  0  0  0  0  0
   62.1624   30.2766   47.4137 H   0  0  0  0  0  0  0  0  0  0  0  0
   60.1890   29.9080   46.5940 C   0  0  0  0  0  0  0  0  0  0  0  0
   60.2899   28.8140   46.6482 H   0  0  0  0  0  0  0  0  0  0  0  0
   59.0110   30.4780   46.0890 C   0  0  0  0  0  0  0  0  0  0  0  0
   57.9130   29.6140   45.6330 C   0  0  0  0  0  0  0  0  0  0  0  0
   57.4966   29.7949   44.6310 H   0  0  0  0  0  0  0  0  0  0  0  0
   57.3870   28.6190   46.3620 C   0  0  0  0  0  0  0  0  0  0  0  0
   56.7339   28.8984   47.2019 H   0  0  0  0  0  0  0  0  0  0  0  0
   57.6150   27.1690   46.1270 C   0  0  0  0  0  0  0  0  0  0  0  0
   58.8500   26.6850   46.1390 O   0  0  0  0  0  0  0  0  0  0  0  0
   59.1350   25.4070   45.9440 C   0  0  0  0  0  0  0  0  0  0  0  0
   60.3390   25.0430   45.9960 O   0  0  0  0  0  0  0  0  0  0  0  0
   58.1110   24.4790   45.6830 C   0  0  0  0  0  0  0  0  0  0  0  0
   58.4050   23.1140   45.5120 C   0  0  0  0  0  0  0  0  0  0  0  0
   59.4476   22.7698   45.5787 H   0  0  0  0  0  0  0  0  0  0  0  0
   57.3860   22.1890   45.2580 C   0  0  0  0  0  0  0  0  0  0  0  0
   57.6450   20.8190   45.1020 O   0  0  0  0  0  0  0  0  0  0  0  0
   57.0060   19.7840   45.8450 C   0  0  0  0  0  0  0  0  0  0  0  0
   57.1256   19.9778   46.9212 H   0  0  0  0  0  0  0  0  0  0  0  0
   55.9354   19.7596   45.5936 H   0  0  0  0  0  0  0  0  0  0  0  0
   57.4638   18.8159   45.5936 H   0  0  0  0  0  0  0  0  0  0  0  0
   56.0650   22.6330   45.1490 C   0  0  0  0  0  0  0  0  0  0  0  0
   55.0740   21.7000   44.8490 O   0  0  0  0  0  0  0  0  0  0  0  0
   55.7360   23.9960   45.3160 C   0  0  0  0  0  0  0  0  0  0  0  0
   54.3240   24.4060   45.1310 C   0  0  0  0  0  0  0  0  0  0  0  0
   54.0326   24.9717   44.2337 H   0  0  0  0  0  0  0  0  0  0  0  0
   53.4280   24.1020   46.0210 N   0  0  0  0  0  0  0  0  0  0  0  0
   53.4550   22.9620   46.8970 C   0  0  0  0  0  0  0  0  0  0  0  0
   52.5550   21.8820   46.7680 C   0  0  0  0  0  0  0  0  0  0  0  0
   51.8225   21.8729   45.9475 H   0  0  0  0  0  0  0  0  0  0  0  0
   52.5930   20.8230   47.6820 C   0  0  0  0  0  0  0  0  0  0  0  0
   51.8953   19.9795   47.5741 H   0  0  0  0  0  0  0  0  0  0  0  0
   53.5160   20.8350   48.7320 C   0  0  0  0  0  0  0  0  0  0  0  0
   53.5490   19.7850   49.6420 O   0  0  0  0  0  0  0  0  0  0  0  0
   54.4030   21.9080   48.8740 C   0  0  0  0  0  0  0  0  0  0  0  0
   55.1271   21.9178   49.7020 H   0  0  0  0  0  0  0  0  0  0  0  0
   54.3680   22.9670   47.9630 C   0  0  0  0  0  0  0  0  0  0  0  0
   55.0621   23.8120   48.0824 H   0  0  0  0  0  0  0  0  0  0  0  0
   56.7700   24.9360   45.6130 C   0  0  0  0  0  0  0  0  0  0  0  0
   56.5280   26.3080   45.8880 C   0  0  0  0  0  0  0  0  0  0  0  0
   55.2370   26.8230   45.9730 O   0  0  0  0  0  0  0  0  0  0  0  0
   58.8830   31.8730   46.0300 C   0  0  0  0  0  0  0  0  0  0  0  0
   57.9611   32.3235   45.6336 H   0  0  0  0  0  0  0  0  0  0  0  0
   59.9270   32.6940   46.4750 C   0  0  0  0  0  0  0  0  0  0  0  0
   59.8209   33.7880   46.4316 H   0  0  0  0  0  0  0  0  0  0  0  0
  1  2  1  0
  2  3  1  0
  3  4  2  0
  3  5  2  0
  3  6  1  0
  6  7  2  0
  7  8  1  0
  7  9  1  0
  9 10  1  0
  9 11  2  0
 11 12  1  0
 12 13  1  0
 12 14  2  0
 14 15  1  0
 14 16  1  0
 16 17  1  0
 17 18  1  0
 18 19  2  0
 18 20  1  0
 20 21  2  0
 21 22  1  0
 21 23  1  0
 23 24  1  0
 24 25  1  0
 25 26  1  0
 25 27  1  0
 25 28  1  0
 23 29  2  0
 29 30  1  0
 29 31  1  0
 31 32  1  0
 32 33  1  0
 32 34  2  3
 34 35  1  0
 35 36  2  0
 36 37  1  0
 36 38  1  0
 38 39  1  0
 38 40  2  0
 40 41  1  0
 40 42  1  0
 42 43  1  0
 42 44  2  0
 44 45  1  0
 31 46  2  0
 46 47  1  0
 47 48  1  0
 11 49  1  0
 49 50  1  0
 49 51  2  0
 51 52  1  0
 51  6  1  0
 47 16  2  0
 46 20  1  0
 44 35  1  0
M  CHG  4   2  -1  30  -1  41  -1  48  -1
M  END
>  <UniqueID>  (23) 
21

>  <SMILES>  (23) 
COc1cc2c(=O)oc(/C=C\c3ccc(S([NH-])(=O)=O)cc3)c([O-])c2c(C=Nc2ccc([O-])cc2)c1[O-]

>  <Energy>  (23) 
85.67217498257112

>  <Genealogy>  (23) 
COc1cc2c(=O)oc(C=Cc3ccc(S([NH-])(=O)=O)cc3)c([O-])c2c(C=Nc2ccc([O-])cc2)c1[O-] (protonated)
COc1cc2c(=O)oc(/C=C\c3ccc(S([NH-])(=O)=O)cc3)c([O-])c2c(C=Nc2ccc([O-])cc2)c1[O-] (cis-trans isomerization)
COc1cc2c(=O)oc(/C=C\c3ccc(S([NH-])(=O)=O)cc3)c([O-])c2c(C=Nc2ccc([O-])cc2)c1[O-] (3D coordinates assigned)
COc1cc2c(=O)oc(/C=C\c3ccc(S([NH-])(=O)=O)cc3)c([O-])c2c(C=Nc2ccc([O-])cc2)c1[O-] (optimized conformer: 85.67217498257112 kcal/mol)

>  <smiles>  (23) 
COc1cc2c(=O)oc(C=Cc3ccc(S(N)(=O)=O)cc3)c(O)c2c(C=Nc2ccc(O)cc2)c1O

>  <score_type>  (23) 
oracle

>  <origin>  (23) 
adg

>  <m_score__min__energy>  (23) 
-16.93

>  <m_primary>  (23) 
energy

$$$$
23:0
     RDKit          3D

 45 47  0  0  0  0  0  0  0  0999 V2000
   62.6430   31.4350   50.7430 H   0  0  0  0  0  0  0  0  0  0  0  0
   61.9510   31.5780   50.0150 O   0  0  0  0  0  0  0  0  0  0  0  0
   62.2280   32.3350   48.8790 C   0  0  0  0  0  0  0  0  0  0  0  0
   63.4700   32.2310   48.2390 C   0  0  0  0  0  0  0  0  0  0  0  0
   64.2405   31.5552   48.6384 H   0  0  0  0  0  0  0  0  0  0  0  0
   63.7290   32.9880   47.0910 C   0  0  0  0  0  0  0  0  0  0  0  0
   64.7048   32.9077   46.5896 H   0  0  0  0  0  0  0  0  0  0  0  0
   62.7500   33.8470   46.5790 C   0  0  0  0  0  0  0  0  0  0  0  0
   62.9579   34.4387   45.6753 H   0  0  0  0  0  0  0  0  0  0  0  0
   61.5000   33.9560   47.2170 C   0  0  0  0  0  0  0  0  0  0  0  0
   60.4230   34.8270   46.6300 C   0  0  0  0  0  0  0  0  0  0  0  0
   60.7756   35.2440   45.6751 H   0  0  0  0  0  0  0  0  0  0  0  0
   60.1967   35.6375   47.3384 H   0  0  0  0  0  0  0  0  0  0  0  0
   59.1760   34.0330   46.3900 C   0  0  0  0  0  0  0  0  0  0  0  0
   58.7740   33.2660   44.9470 S   0  0  0  0  0  0  0  0  0  0  0  0
   57.2950   32.7370   45.5400 C   0  0  0  0  0  0  0  0  0  0  0  0
   56.4590   32.0180   44.8510 N   0  0  0  0  0  0  0  0  0  0  0  0
   56.7920   30.8740   44.0510 C   0  0  0  0  0  0  0  0  0  0  0  0
   57.8750   30.8780   43.4100 O   0  0  0  0  0  0  0  0  0  0  0  0
   55.8670   29.6910   43.9100 C   0  0  0  0  0  0  0  0  0  0  0  0
   56.3213   28.9601   43.2248 H   0  0  0  0  0  0  0  0  0  0  0  0
   54.9042   30.0471   43.5148 H   0  0  0  0  0  0  0  0  0  0  0  0
   55.6280   29.0490   45.2020 N   0  0  0  0  0  0  0  0  0  0  0  0
   56.8410   27.8580   45.5790 S   0  0  0  0  0  0  0  0  0  0  0  0
   56.1750   26.7280   46.3120 O   0  0  0  0  0  0  0  0  0  0  0  0
   57.4060   27.3150   44.2980 O   0  0  0  0  0  0  0  0  0  0  0  0
   58.1690   28.5110   46.5610 C   0  0  0  0  0  0  0  0  0  0  0  0
   58.2590   29.9020   46.7430 C   0  0  0  0  0  0  0  0  0  0  0  0
   57.5042   30.5601   46.2878 H   0  0  0  0  0  0  0  0  0  0  0  0
   59.2970   30.4580   47.4960 C   0  0  0  0  0  0  0  0  0  0  0  0
   59.3570   31.5485   47.6275 H   0  0  0  0  0  0  0  0  0  0  0  0
   60.2570   29.6320   48.0810 C   0  0  0  0  0  0  0  0  0  0  0  0
   61.0751   30.0718   48.6703 H   0  0  0  0  0  0  0  0  0  0  0  0
   60.1800   28.2490   47.9190 C   0  0  0  0  0  0  0  0  0  0  0  0
   60.9364   27.6025   48.3879 H   0  0  0  0  0  0  0  0  0  0  0  0
   59.1420   27.6720   47.1600 C   0  0  0  0  0  0  0  0  0  0  0  0
   59.0900   26.1720   47.0260 C   0  0  0  0  0  0  0  0  0  0  0  0
   59.0742   25.7148   48.0264 H   0  0  0  0  0  0  0  0  0  0  0  0
   58.1813   25.8842   46.4769 H   0  0  0  0  0  0  0  0  0  0  0  0
   59.9766   25.8220   46.4769 H   0  0  0  0  0  0  0  0  0  0  0  0
   57.1020   33.0990   46.8260 N   0  0  0  0  0  0  0  0  0  0  0  0
   58.1400   33.8360   47.3010 C   0  0  0  0  0  0  0  0  0  0  0  0
   58.1609   34.2442   48.3222 H   0  0  0  0  0  0  0  0  0  0  0  0
   61.2480   33.1960   48.3700 C   0  0  0  0  0  0  0  0  0  0  0  0
   60.2750   33.2773   48.8766 H   0  0  0  0  0  0  0  0  0  0  0  0
  1  2  1  0
  2  3  1  0
  3  4  2  0
  4  5  1  0
  4  6  1  0
  6  7  1  0
  6  8  2  0
  8  9  1  0
  8 10  1  0
 10 11  1  0
 11 12  1  0
 11 13  1  0
 11 14  1  0
 14 15  1  0
 15 16  1  0
 16 17  2  0
 17 18  1  0
 18 19  2  0
 18 20  1  0
 20 21  1  0
 20 22  1  0
 20 23  1  0
 23 24  1  0
 24 25  2  0
 24 26  2  0
 24 27  1  0
 27 28  2  0
 28 29  1  0
 28 30  1  0
 30 31  1  0
 30 32  2  0
 32 33  1  0
 32 34  1  0
 34 35  1  0
 34 36  2  0
 36 37  1  0
 37 38  1  0
 37 39  1  0
 37 40  1  0
 16 41  1  0
 41 42  1  0
 42 43  1  0
 10 44  2  0
 44 45  1  0
 44  3  1  0
 42 14  2  0
 36 27  1  0
M  CHG  2  23  -1  41  -1
M  END
>  <UniqueID>  (24) 
22

>  <SMILES>  (24) 
Cc1ccccc1S(=O)(=O)[N-]CC(=O)/N=c1\[n-]cc(Cc2cccc(O)c2)s1

>  <Energy>  (24) 
78.98154647143136

>  <Genealogy>  (24) 
Cc1ccccc1S(=O)(=O)[N-]CC(=O)N=c1[n-]cc(Cc2cccc(O)c2)s1 (protonated)
Cc1ccccc1S(=O)(=O)[N-]CC(=O)/N=c1\[n-]cc(Cc2cccc(O)c2)s1 (cis-trans isomerization)
Cc1ccccc1S(=O)(=O)[N-]CC(=O)/N=c1\[n-]cc(Cc2cccc(O)c2)s1 (3D coordinates assigned)
Cc1ccccc1S(=O)(=O)[N-]CC(=O)/N=c1\[n-]cc(Cc2cccc(O)c2)s1 (optimized conformer: 78.98154647143136 kcal/mol)

>  <smiles>  (24) 
Cc1ccccc1S(=O)(=O)NCC(=O)N=c1[nH]cc(Cc2cccc(O)c2)s1

>  <score_type>  (24) 
oracle

>  <origin>  (24) 
adg

>  <m_score__min__energy>  (24) 
-12.119999999999999

>  <m_primary>  (24) 
energy

$$$$
24:0
     RDKit          3D

 21 22  0  0  0  0  0  0  0  0999 V2000
   56.5390   25.9170   45.6210 S   0  0  0  0  0  0  0  0  0  0  0  0
   56.9850   27.4930   45.6270 C   0  0  0  0  0  0  0  0  0  0  0  0
   58.2690   27.8580   46.0260 C   0  0  0  0  0  0  0  0  0  0  0  0
   58.6300   29.2020   46.0230 C   0  0  0  0  0  0  0  0  0  0  0  0
   57.6950   30.1730   45.6170 C   0  0  0  0  0  0  0  0  0  0  0  0
   57.9980   31.6400   45.5840 C   0  0  0  0  0  0  0  0  0  0  0  0
   58.8450   32.2630   46.5290 C   0  0  0  0  0  0  0  0  0  0  0  0
   59.1020   33.6360   46.4610 C   0  0  0  0  0  0  0  0  0  0  0  0
   58.5230   34.4120   45.4570 C   0  0  0  0  0  0  0  0  0  0  0  0
   57.6840   33.8150   44.5150 C   0  0  0  0  0  0  0  0  0  0  0  0
   57.4230   32.4440   44.5760 C   0  0  0  0  0  0  0  0  0  0  0  0
   56.4570   29.7460   45.2390 N   0  0  0  0  0  0  0  0  0  0  0  0
   56.1090   28.4580   45.2400 N   0  0  0  0  0  0  0  0  0  0  0  0
   58.9913   27.0904   46.3407 H   0  0  0  0  0  0  0  0  0  0  0  0
   59.6403   29.5040   46.3361 H   0  0  0  0  0  0  0  0  0  0  0  0
   59.3067   31.6616   47.3260 H   0  0  0  0  0  0  0  0  0  0  0  0
   59.7640   34.1063   47.2030 H   0  0  0  0  0  0  0  0  0  0  0  0
   58.7271   35.4918   45.4078 H   0  0  0  0  0  0  0  0  0  0  0  0
   57.2270   34.4256   43.7224 H   0  0  0  0  0  0  0  0  0  0  0  0
   56.7601   31.9844   43.8281 H   0  0  0  0  0  0  0  0  0  0  0  0
   55.1430   28.1990   44.9390 H   0  0  0  0  0  0  0  0  0  0  0  0
  1  2  2  0
  2  3  1  0
  3  4  2  0
  4  5  1  0
  5  6  1  0
  6  7  2  0
  7  8  1  0
  8  9  2  0
  9 10  1  0
 10 11  2  0
  5 12  2  0
 12 13  1  0
 13  2  1  0
 11  6  1  0
  3 14  1  0
  4 15  1  0
  7 16  1  0
  8 17  1  0
  9 18  1  0
 10 19  1  0
 11 20  1  0
 13 21  1  0
M  END
>  <UniqueID>  (25) 
23

>  <SMILES>  (25) 
S=c1ccc(-c2ccccc2)n[nH]1

>  <Energy>  (25) 
27.3445992479662

>  <Genealogy>  (25) 
S=c1ccc(-c2ccccc2)n[nH]1 (3D coordinates assigned)
S=c1ccc(-c2ccccc2)n[nH]1 (optimized conformer: 27.3445992479662 kcal/mol)

>  <smiles>  (25) 
S=c1ccc(-c2ccccc2)n[nH]1

>  <score_type>  (25) 
oracle

>  <origin>  (25) 
adg

>  <m_score__min__energy>  (25) 
-6.4400000000000004

>  <m_primary>  (25) 
energy

$$$$
25:0
     RDKit          3D

 55 58  0  0  0  0  0  0  0  0999 V2000
   58.5330   30.8060   44.8710 C   0  0  0  0  0  0  0  0  0  0  0  0
   59.5280   29.6530   44.7800 C   0  0  0  0  0  0  0  0  0  0  0  0
   60.5750   29.6850   45.9040 C   0  0  0  0  0  0  0  0  0  0  0  0
   59.9490   29.7560   47.2930 C   0  0  0  0  0  0  0  0  0  0  0  0
   60.2710   30.7990   48.2010 C   0  0  0  0  0  0  0  0  0  0  0  0
   61.3430   31.7850   47.9420 C   0  0  0  0  0  0  0  0  0  0  0  0
   62.5530   31.3490   47.3770 C   0  0  0  0  0  0  0  0  0  0  0  0
   63.5850   32.2560   47.1260 C   0  0  0  0  0  0  0  0  0  0  0  0
   63.4240   33.6050   47.4460 C   0  0  0  0  0  0  0  0  0  0  0  0
   62.2350   34.0480   48.0290 C   0  0  0  0  0  0  0  0  0  0  0  0
   61.1990   33.1450   48.2990 C   0  0  0  0  0  0  0  0  0  0  0  0
   59.6900   33.7670   49.0640 S   0  0  0  0  0  0  0  0  0  0  0  0
   58.8530   34.1730   47.4860 C   0  0  0  0  0  0  0  0  0  0  0  0
   59.8860   34.3210   46.3440 C   0  0  0  0  0  0  0  0  0  0  0  0
   59.3130   33.9880   44.9500 C   0  0  0  0  0  0  0  0  0  0  0  0
   57.8090   34.2680   44.8720 C   0  0  0  0  0  0  0  0  0  0  0  0
   57.0190   33.4200   45.8900 C   0  0  0  0  0  0  0  0  0  0  0  0
   57.8230   33.0820   47.1620 C   0  0  0  0  0  0  0  0  0  0  0  0
   59.6000   30.8960   49.3780 N   0  0  0  0  0  0  0  0  0  0  0  0
   58.6240   30.0220   49.7160 C   0  0  0  0  0  0  0  0  0  0  0  0
   58.0130   30.1510   50.8080 O   0  0  0  0  0  0  0  0  0  0  0  0
   58.3070   29.0060   48.8800 N   0  0  0  0  0  0  0  0  0  0  0  0
   58.9430   28.8360   47.6920 C   0  0  0  0  0  0  0  0  0  0  0  0
   58.5430   27.6820   46.8600 C   0  0  0  0  0  0  0  0  0  0  0  0
   59.2620   26.4800   46.9270 C   0  0  0  0  0  0  0  0  0  0  0  0
   58.8600   25.3820   46.1650 C   0  0  0  0  0  0  0  0  0  0  0  0
   57.7300   25.4890   45.3540 C   0  0  0  0  0  0  0  0  0  0  0  0
   57.0280   26.6530   45.3150 N   0  0  0  0  0  0  0  0  0  0  0  0
   57.3980   27.7400   46.0440 C   0  0  0  0  0  0  0  0  0  0  0  0
   56.7120   28.7940   45.9720 O   0  0  0  0  0  0  0  0  0  0  0  0
   58.3343   31.0363   45.9281 H   0  0  0  0  0  0  0  0  0  0  0  0
   58.9536   31.6933   44.3752 H   0  0  0  0  0  0  0  0  0  0  0  0
   57.5937   30.5197   44.3752 H   0  0  0  0  0  0  0  0  0  0  0  0
   58.9744   28.7044   44.8413 H   0  0  0  0  0  0  0  0  0  0  0  0
   60.0631   29.7498   43.8238 H   0  0  0  0  0  0  0  0  0  0  0  0
   61.1868   28.7731   45.8404 H   0  0  0  0  0  0  0  0  0  0  0  0
   61.1805   30.5930   45.7668 H   0  0  0  0  0  0  0  0  0  0  0  0
   62.6887   30.2856   47.1305 H   0  0  0  0  0  0  0  0  0  0  0  0
   64.5258   31.9068   46.6756 H   0  0  0  0  0  0  0  0  0  0  0  0
   64.2342   34.3196   47.2388 H   0  0  0  0  0  0  0  0  0  0  0  0
   62.1113   35.1124   48.2776 H   0  0  0  0  0  0  0  0  0  0  0  0
   58.3309   35.1359   47.5871 H   0  0  0  0  0  0  0  0  0  0  0  0
   60.2469   35.3601   46.3332 H   0  0  0  0  0  0  0  0  0  0  0  0
   60.6939   33.6014   46.5426 H   0  0  0  0  0  0  0  0  0  0  0  0
   59.8290   34.6017   44.1969 H   0  0  0  0  0  0  0  0  0  0  0  0
   59.4716   32.9158   44.7621 H   0  0  0  0  0  0  0  0  0  0  0  0
   57.6330   35.3333   45.0822 H   0  0  0  0  0  0  0  0  0  0  0  0
   57.4622   34.0038   43.8621 H   0  0  0  0  0  0  0  0  0  0  0  0
   56.1187   33.9790   46.1850 H   0  0  0  0  0  0  0  0  0  0  0  0
   56.7747   32.4670   45.3980 H   0  0  0  0  0  0  0  0  0  0  0  0
   57.1275   32.9850   48.0087 H   0  0  0  0  0  0  0  0  0  0  0  0
   58.3632   32.1398   46.9874 H   0  0  0  0  0  0  0  0  0  0  0  0
   60.1434   26.4024   47.5805 H   0  0  0  0  0  0  0  0  0  0  0  0
   59.4287   24.4412   46.2035 H   0  0  0  0  0  0  0  0  0  0  0  0
   57.4067   24.6314   44.7458 H   0  0  0  0  0  0  0  0  0  0  0  0
  1  2  1  0
  2  3  1  0
  3  4  1  0
  4  5  1  0
  5  6  1  0
  6  7  2  0
  7  8  1  0
  8  9  2  0
  9 10  1  0
 10 11  2  0
 11 12  1  0
 12 13  1  0
 13 14  1  0
 14 15  1  0
 15 16  1  0
 16 17  1  0
 17 18  1  0
  5 19  2  0
 19 20  1  0
 20 21  2  0
 20 22  1  0
 22 23  1  0
 23 24  1  0
 24 25  2  0
 25 26  1  0
 26 27  2  0
 27 28  1  0
 28 29  1  0
 29 30  2  0
 23  4  2  0
 29 24  1  0
 11  6  1  0
 18 13  1  0
  1 31  1  0
  1 32  1  0
  1 33  1  0
  2 34  1  0
  2 35  1  0
  3 36  1  0
  3 37  1  0
  7 38  1  0
  8 39  1  0
  9 40  1  0
 10 41  1  0
 13 42  1  0
 14 43  1  0
 14 44  1  0
 15 45  1  0
 15 46  1  0
 16 47  1  0
 16 48  1  0
 17 49  1  0
 17 50  1  0
 18 51  1  0
 18 52  1  0
 25 53  1  0
 26 54  1  0
 27 55  1  0
M  CHG  2  22  -1  28  -1
M  END
>  <UniqueID>  (26) 
24

>  <SMILES>  (26) 
CCCc1c(-c2ccccc2SC2CCCCC2)nc(=O)[n-]c1-c1ccc[n-]c1=O

>  <Energy>  (26) 
69.15633926254968

>  <Genealogy>  (26) 
CCCc1c(-c2ccccc2SC2CCCCC2)nc(=O)[n-]c1-c1ccc[n-]c1=O (protonated)
CCCc1c(-c2ccccc2SC2CCCCC2)nc(=O)[n-]c1-c1ccc[n-]c1=O (3D coordinates assigned)
CCCc1c(-c2ccccc2SC2CCCCC2)nc(=O)[n-]c1-c1ccc[n-]c1=O (nonaromatic ring conformer: 69.15633926254968 kcal/mol)

>  <smiles>  (26) 
CCCc1c(-c2ccccc2SC2CCCCC2)nc(=O)[nH]c1-c1ccc[nH]c1=O

>  <score_type>  (26) 
oracle

>  <origin>  (26) 
adg

>  <m_score__min__energy>  (26) 
-12.210000000000001

>  <m_primary>  (26) 
energy

$$$$
26:0
     RDKit          3D

 59 62  0  0  0  0  0  0  0  0999 V2000
   61.4147   26.8437   49.0964 H   0  0  0  0  0  0  0  0  0  0  0  0
   60.4710   27.1890   48.6490 C   0  0  0  0  0  0  0  0  0  0  0  0
   59.5890   26.3430   48.0520 N   0  0  0  0  0  0  0  0  0  0  0  0
   58.5090   27.0050   47.5780 C   0  0  0  0  0  0  0  0  0  0  0  0
   57.4950   26.4440   46.9910 N   0  0  0  0  0  0  0  0  0  0  0  0
   56.6280   26.9820   45.9770 C   0  0  0  0  0  0  0  0  0  0  0  0
   55.4120   26.6570   46.0100 O   0  0  0  0  0  0  0  0  0  0  0  0
   57.1090   27.8810   44.8650 C   0  0  0  0  0  0  0  0  0  0  0  0
   58.1051   28.2720   45.1198 H   0  0  0  0  0  0  0  0  0  0  0  0
   57.1591   27.3003   43.9321 H   0  0  0  0  0  0  0  0  0  0  0  0
   56.1850   28.9990   44.6800 N   0  0  0  0  0  0  0  0  0  0  0  0
   56.5730   30.2540   44.1080 C   0  0  0  0  0  0  0  0  0  0  0  0
   56.1950   30.5490   42.9460 O   0  0  0  0  0  0  0  0  0  0  0  0
   57.3850   31.2140   44.8700 C   0  0  0  0  0  0  0  0  0  0  0  0
   58.5580   30.7950   45.5090 C   0  0  0  0  0  0  0  0  0  0  0  0
   58.8444   29.7331   45.4913 H   0  0  0  0  0  0  0  0  0  0  0  0
   59.3660   31.7260   46.1700 C   0  0  0  0  0  0  0  0  0  0  0  0
   60.2921   31.3963   46.6635 H   0  0  0  0  0  0  0  0  0  0  0  0
   58.9980   33.0790   46.2050 C   0  0  0  0  0  0  0  0  0  0  0  0
   60.0180   34.2710   47.0040 S   0  0  0  0  0  0  0  0  0  0  0  0
   59.2670   34.9180   48.1340 O   0  0  0  0  0  0  0  0  0  0  0  0
   60.3890   35.3310   46.0060 O   0  0  0  0  0  0  0  0  0  0  0  0
   61.4600   33.4990   47.6130 N   0  0  0  0  0  0  0  0  0  0  0  0
   61.2290   32.4880   47.7560 H   0  0  0  0  0  0  0  0  0  0  0  0
   62.5430   33.6050   46.6180 C   0  0  0  0  0  0  0  0  0  0  0  0
   62.1774   33.2349   45.6488 H   0  0  0  0  0  0  0  0  0  0  0  0
   62.8439   34.6603   46.5414 H   0  0  0  0  0  0  0  0  0  0  0  0
   63.7720   32.7760   47.0420 C   0  0  0  0  0  0  0  0  0  0  0  0
   63.6935   31.7748   46.5931 H   0  0  0  0  0  0  0  0  0  0  0  0
   64.6692   33.3080   46.6929 H   0  0  0  0  0  0  0  0  0  0  0  0
   63.8850   32.6240   48.5680 C   0  0  0  0  0  0  0  0  0  0  0  0
   63.3211   31.7337   48.8833 H   0  0  0  0  0  0  0  0  0  0  0  0
   64.9480   32.5210   48.8316 H   0  0  0  0  0  0  0  0  0  0  0  0
   63.3230   33.8510   49.2850 C   0  0  0  0  0  0  0  0  0  0  0  0
   63.3983   33.6950   50.3713 H   0  0  0  0  0  0  0  0  0  0  0  0
   63.9070   34.7291   48.9721 H   0  0  0  0  0  0  0  0  0  0  0  0
   61.8440   34.0990   48.9160 C   0  0  0  0  0  0  0  0  0  0  0  0
   61.2094   33.6641   49.7022 H   0  0  0  0  0  0  0  0  0  0  0  0
   61.7056   35.1868   48.8296 H   0  0  0  0  0  0  0  0  0  0  0  0
   57.8210   33.4940   45.5700 C   0  0  0  0  0  0  0  0  0  0  0  0
   57.5275   34.5538   45.5967 H   0  0  0  0  0  0  0  0  0  0  0  0
   57.0190   32.5660   44.9030 C   0  0  0  0  0  0  0  0  0  0  0  0
   56.0974   32.8972   44.4021 H   0  0  0  0  0  0  0  0  0  0  0  0
   58.5870   28.6530   47.8920 S   0  0  0  0  0  0  0  0  0  0  0  0
   60.0850   28.5260   48.6490 C   0  0  0  0  0  0  0  0  0  0  0  0
   60.8030   29.6460   49.3310 C   0  0  0  0  0  0  0  0  0  0  0  0
   61.5202   29.2327   50.0554 H   0  0  0  0  0  0  0  0  0  0  0  0
   61.3388   30.2450   48.5799 H   0  0  0  0  0  0  0  0  0  0  0  0
   59.8140   30.5210   50.0510 C   0  0  0  0  0  0  0  0  0  0  0  0
   59.6450   31.8630   49.6690 C   0  0  0  0  0  0  0  0  0  0  0  0
   60.2709   32.2886   48.8708 H   0  0  0  0  0  0  0  0  0  0  0  0
   58.6840   32.6590   50.3000 C   0  0  0  0  0  0  0  0  0  0  0  0
   58.5601   33.7104   50.0014 H   0  0  0  0  0  0  0  0  0  0  0  0
   57.8800   32.1210   51.3100 C   0  0  0  0  0  0  0  0  0  0  0  0
   57.1266   32.7498   51.8069 H   0  0  0  0  0  0  0  0  0  0  0  0
   58.0340   30.7840   51.6880 C   0  0  0  0  0  0  0  0  0  0  0  0
   57.3995   30.3606   52.4805 H   0  0  0  0  0  0  0  0  0  0  0  0
   58.9950   29.9830   51.0590 C   0  0  0  0  0  0  0  0  0  0  0  0
   59.1094   28.9296   51.3545 H   0  0  0  0  0  0  0  0  0  0  0  0
  1  2  1  0
  2  3  1  0
  3  4  1  0
  4  5  2  0
  5  6  1  0
  6  7  2  0
  6  8  1  0
  8  9  1  0
  8 10  1  0
  8 11  1  0
 11 12  1  0
 12 13  2  0
 12 14  1  0
 14 15  2  0
 15 16  1  0
 15 17  1  0
 17 18  1  0
 17 19  2  0
 19 20  1  0
 20 21  2  0
 20 22  2  0
 20 23  1  0
 23 24  1  0
 23 25  1  0
 25 26  1  0
 25 27  1  0
 25 28  1  0
 28 29  1  0
 28 30  1  0
 28 31  1  0
 31 32  1  0
 31 33  1  0
 31 34  1  0
 34 35  1  0
 34 36  1  0
 34 37  1  0
 37 38  1  0
 37 39  1  0
 19 40  1  0
 40 41  1  0
 40 42  2  0
 42 43  1  0
  4 44  1  0
 44 45  1  0
 45 46  1  0
 46 47  1  0
 46 48  1  0
 46 49  1  0
 49 50  2  0
 50 51  1  0
 50 52  1  0
 52 53  1  0
 52 54  2  0
 54 55  1  0
 54 56  1  0
 56 57  1  0
 56 58  2  0
 58 59  1  0
 45  2  2  0
 58 49  1  0
 42 14  1  0
 37 23  1  0
M  CHG  3   3  -1  11  -1  23   1
M  END
>  <UniqueID>  (27) 
25

>  <SMILES>  (27) 
O=C(C[N-]C(=O)c1ccc(S(=O)(=O)[NH+]2CCCCC2)cc1)/N=c1\[n-]cc(Cc2ccccc2)s1

>  <Energy>  (27) 
98.8560504564705

>  <Genealogy>  (27) 
O=C(C[N-]C(=O)c1ccc(S(=O)(=O)[NH+]2CCCCC2)cc1)N=c1[n-]cc(Cc2ccccc2)s1 (protonated)
O=C(C[N-]C(=O)c1ccc(S(=O)(=O)[NH+]2CCCCC2)cc1)/N=c1\[n-]cc(Cc2ccccc2)s1 (cis-trans isomerization)
O=C(C[N-]C(=O)c1ccc(S(=O)(=O)[NH+]2CCCCC2)cc1)/N=c1\[n-]cc(Cc2ccccc2)s1 (3D coordinates assigned)
O=C(C[N-]C(=O)c1ccc(S(=O)(=O)[NH+]2CCCCC2)cc1)/N=c1\[n-]cc(Cc2ccccc2)s1 (nonaromatic ring conformer: 98.8560504564705 kcal/mol)

>  <smiles>  (27) 
O=C(CNC(=O)c1ccc(S(=O)(=O)N2CCCCC2)cc1)N=c1[nH]cc(Cc2ccccc2)s1

>  <score_type>  (27) 
oracle

>  <origin>  (27) 
adg

>  <m_score__min__energy>  (27) 
-12.630000000000001

>  <m_primary>  (27) 
energy

$$$$
27:0
     RDKit          3D

 44 47  0  0  0  0  0  0  0  0999 V2000
   60.7030   29.7190   47.8250 C   0  0  0  0  0  0  0  0  0  0  0  0
   60.1080   30.4990   46.9080 C   0  0  0  0  0  0  0  0  0  0  0  0
   58.9970   30.1530   46.1160 C   0  0  0  0  0  0  0  0  0  0  0  0
   58.4650   28.9270   45.8500 C   0  0  0  0  0  0  0  0  0  0  0  0
   58.3880   28.4730   44.5170 C   0  0  0  0  0  0  0  0  0  0  0  0
   57.7980   27.2500   44.1980 C   0  0  0  0  0  0  0  0  0  0  0  0
   57.2820   26.4080   45.2030 C   0  0  0  0  0  0  0  0  0  0  0  0
   56.6860   25.2310   44.8850 C   0  0  0  0  0  0  0  0  0  0  0  0
   57.1000   24.3330   43.7440 C   0  0  0  0  0  0  0  0  0  0  0  0
   56.1630   23.1550   43.7540 C   0  0  0  0  0  0  0  0  0  0  0  0
   56.2580   22.2260   42.9100 O   0  0  0  0  0  0  0  0  0  0  0  0
   55.1570   23.1310   44.7600 N   0  0  0  0  0  0  0  0  0  0  0  0
   55.3160   24.5340   45.7270 S   0  0  0  0  0  0  0  0  0  0  0  0
   55.6430   24.1720   47.1480 O   0  0  0  0  0  0  0  0  0  0  0  0
   54.0890   25.3970   45.6300 O   0  0  0  0  0  0  0  0  0  0  0  0
   57.4230   26.8230   46.5420 C   0  0  0  0  0  0  0  0  0  0  0  0
   58.0410   28.0390   46.8710 C   0  0  0  0  0  0  0  0  0  0  0  0
   58.3190   28.3050   48.2140 O   0  0  0  0  0  0  0  0  0  0  0  0
   58.5140   31.3560   45.6080 C   0  0  0  0  0  0  0  0  0  0  0  0
   59.3820   32.3480   46.0150 C   0  0  0  0  0  0  0  0  0  0  0  0
   59.2510   33.7940   45.6450 C   0  0  0  0  0  0  0  0  0  0  0  0
   60.3500   31.8310   46.8030 N   0  0  0  0  0  0  0  0  0  0  0  0
   61.4000   32.5760   47.4490 C   0  0  0  0  0  0  0  0  0  0  0  0
   62.7410   32.3460   47.1140 C   0  0  0  0  0  0  0  0  0  0  0  0
   63.7520   33.0750   47.7430 C   0  0  0  0  0  0  0  0  0  0  0  0
   63.4100   34.0270   48.7060 C   0  0  0  0  0  0  0  0  0  0  0  0
   62.1040   34.2370   49.0220 N   0  0  0  0  0  0  0  0  0  0  0  0
   61.1020   33.5400   48.4220 C   0  0  0  0  0  0  0  0  0  0  0  0
   61.5696   30.0954   48.3883 H   0  0  0  0  0  0  0  0  0  0  0  0
   60.3238   28.7036   48.0128 H   0  0  0  0  0  0  0  0  0  0  0  0
   58.8022   29.0969   43.7113 H   0  0  0  0  0  0  0  0  0  0  0  0
   57.7345   26.9379   43.1451 H   0  0  0  0  0  0  0  0  0  0  0  0
   57.0191   24.8728   42.7890 H   0  0  0  0  0  0  0  0  0  0  0  0
   58.1444   24.0069   43.8579 H   0  0  0  0  0  0  0  0  0  0  0  0
   57.0400   26.1793   47.3476 H   0  0  0  0  0  0  0  0  0  0  0  0
   59.1110   27.8900   48.6900 H   0  0  0  0  0  0  0  0  0  0  0  0
   57.6095   31.4903   44.9965 H   0  0  0  0  0  0  0  0  0  0  0  0
   59.1958   34.4029   46.5594 H   0  0  0  0  0  0  0  0  0  0  0  0
   60.1250   34.1014   45.0520 H   0  0  0  0  0  0  0  0  0  0  0  0
   58.3360   33.9393   45.0520 H   0  0  0  0  0  0  0  0  0  0  0  0
   62.9971   31.5914   46.3557 H   0  0  0  0  0  0  0  0  0  0  0  0
   64.8066   32.9014   47.4829 H   0  0  0  0  0  0  0  0  0  0  0  0
   64.1974   34.6073   49.2092 H   0  0  0  0  0  0  0  0  0  0  0  0
   60.0556   33.7332   48.7009 H   0  0  0  0  0  0  0  0  0  0  0  0
  1  2  2  0
  2  3  1  0
  3  4  2  3
  4  5  1  0
  5  6  2  0
  6  7  1  0
  7  8  2  3
  8  9  1  0
  9 10  1  0
 10 11  2  0
 10 12  1  0
 12 13  1  0
 13 14  2  0
 13 15  2  0
  7 16  1  0
 16 17  2  0
 17 18  1  0
  3 19  1  0
 19 20  2  0
 20 21  1  0
 20 22  1  0
 22 23  1  0
 23 24  2  0
 24 25  1  0
 25 26  2  0
 26 27  1  0
 27 28  2  0
 22  2  1  0
 28 23  1  0
 17  4  1  0
 13  8  1  0
  1 29  1  0
  1 30  1  0
  5 31  1  0
  6 32  1  0
  9 33  1  0
  9 34  1  0
 16 35  1  0
 18 36  1  0
 19 37  1  0
 21 38  1  0
 21 39  1  0
 21 40  1  0
 24 41  1  0
 25 42  1  0
 26 43  1  0
 28 44  1  0
M  CHG  1  12  -1
M  END
>  <UniqueID>  (28) 
26

>  <SMILES>  (28) 
C=c1c(=c2ccc(=C3CC(=O)[N-]S3(=O)=O)cc2O)cc(C)n1-c1cccnc1

>  <Energy>  (28) 
122.81490591635077

>  <Genealogy>  (28) 
C=c1c(=c2ccc(=C3CC(=O)[N-]S3(=O)=O)cc2O)cc(C)n1-c1cccnc1 (protonated)
C=c1c(=c2ccc(=C3CC(=O)[N-]S3(=O)=O)cc2O)cc(C)n1-c1cccnc1 (3D coordinates assigned)
C=c1c(=c2ccc(=C3CC(=O)[N-]S3(=O)=O)cc2O)cc(C)n1-c1cccnc1 (nonaromatic ring conformer: 122.81490591635077 kcal/mol)

>  <smiles>  (28) 
C=c1c(=c2ccc(=C3CC(=O)NS3(=O)=O)cc2O)cc(C)n1-c1cccnc1

>  <score_type>  (28) 
oracle

>  <origin>  (28) 
adg

>  <m_score__min__energy>  (28) 
-11.039999999999999

>  <m_primary>  (28) 
energy

$$$$
28:0
     RDKit          3D

 51 53  0  0  0  0  0  0  0  0999 V2000
   57.7790   22.5650   47.5480 H   0  0  0  0  0  0  0  0  0  0  0  0
   57.6780   22.8730   46.5870 O   0  0  0  0  0  0  0  0  0  0  0  0
   56.6060   23.6690   46.2000 C   0  0  0  0  0  0  0  0  0  0  0  0
   55.5950   23.2730   45.3460 C   0  0  0  0  0  0  0  0  0  0  0  0
   55.4631   22.2786   44.8946 H   0  0  0  0  0  0  0  0  0  0  0  0
   54.7830   24.3770   45.1730 C   0  0  0  0  0  0  0  0  0  0  0  0
   53.8746   24.4397   44.5558 H   0  0  0  0  0  0  0  0  0  0  0  0
   55.3420   25.3850   45.9310 C   0  0  0  0  0  0  0  0  0  0  0  0
   54.8600   26.6870   45.9930 O   0  0  0  0  0  0  0  0  0  0  0  0
   56.4410   24.9510   46.5840 N   0  0  0  0  0  0  0  0  0  0  0  0
   57.3400   25.7450   47.4290 C   0  0  0  0  0  0  0  0  0  0  0  0
   58.1415   25.0923   47.8052 H   0  0  0  0  0  0  0  0  0  0  0  0
   56.7459   26.1645   48.2543 H   0  0  0  0  0  0  0  0  0  0  0  0
   57.9760   26.9190   46.6580 C   0  0  0  0  0  0  0  0  0  0  0  0
   58.8725   27.2459   47.2052 H   0  0  0  0  0  0  0  0  0  0  0  0
   57.2091   27.7045   46.5890 H   0  0  0  0  0  0  0  0  0  0  0  0
   58.3890   26.5760   45.2160 C   0  0  0  0  0  0  0  0  0  0  0  0
   58.0608   25.5499   44.9940 H   0  0  0  0  0  0  0  0  0  0  0  0
   59.4820   26.6849   45.1566 H   0  0  0  0  0  0  0  0  0  0  0  0
   57.7920   27.5030   44.1850 C   0  0  0  0  0  0  0  0  0  0  0  0
   58.2150   27.4410   43.0000 O   0  0  0  0  0  0  0  0  0  0  0  0
   56.9350   28.6000   44.5370 N   0  0  0  0  0  0  0  0  0  0  0  0
   57.2360   29.8550   44.6980 C   0  0  0  0  0  0  0  0  0  0  0  0
   57.3880   30.3930   45.9290 N   0  0  0  0  0  0  0  0  0  0  0  0
   57.7880   31.6900   45.8720 C   0  0  0  0  0  0  0  0  0  0  0  0
   57.9579   32.2996   46.7717 H   0  0  0  0  0  0  0  0  0  0  0  0
   57.9650   32.1840   44.5870 C   0  0  0  0  0  0  0  0  0  0  0  0
   58.5860   33.8150   44.1740 S   0  0  0  0  0  0  0  0  0  0  0  0
   58.2220   34.5620   45.8030 C   0  0  0  0  0  0  0  0  0  0  0  0
   57.3028   34.1116   46.2056 H   0  0  0  0  0  0  0  0  0  0  0  0
   58.0986   35.6464   45.6661 H   0  0  0  0  0  0  0  0  0  0  0  0
   59.3380   34.3350   46.7700 C   0  0  0  0  0  0  0  0  0  0  0  0
   59.2000   34.4170   48.1100 N   0  0  0  0  0  0  0  0  0  0  0  0
   60.4210   34.0750   48.5670 C   0  0  0  0  0  0  0  0  0  0  0  0
   60.7164   34.0280   49.6256 H   0  0  0  0  0  0  0  0  0  0  0  0
   61.2420   33.7930   47.4920 C   0  0  0  0  0  0  0  0  0  0  0  0
   62.6810   33.3230   47.5340 C   0  0  0  0  0  0  0  0  0  0  0  0
   62.7310   31.7810   47.5280 C   0  0  0  0  0  0  0  0  0  0  0  0
   62.7430   31.4105   48.5637 H   0  0  0  0  0  0  0  0  0  0  0  0
   61.8451   31.3874   47.0080 H   0  0  0  0  0  0  0  0  0  0  0  0
   63.6405   31.4456   47.0080 H   0  0  0  0  0  0  0  0  0  0  0  0
   63.3470   33.8430   48.8210 C   0  0  0  0  0  0  0  0  0  0  0  0
   62.8223   33.4333   49.6967 H   0  0  0  0  0  0  0  0  0  0  0  0
   64.4000   33.5257   48.8429 H   0  0  0  0  0  0  0  0  0  0  0  0
   63.2946   34.9415   48.8429 H   0  0  0  0  0  0  0  0  0  0  0  0
   63.4380   33.8560   46.3040 C   0  0  0  0  0  0  0  0  0  0  0  0
   64.2958   34.4600   46.6347 H   0  0  0  0  0  0  0  0  0  0  0  0
   63.7966   33.0101   45.6992 H   0  0  0  0  0  0  0  0  0  0  0  0
   62.7625   34.4788   45.6992 H   0  0  0  0  0  0  0  0  0  0  0  0
   60.5420   33.9660   46.4010 O   0  0  0  0  0  0  0  0  0  0  0  0
   57.6090   30.9700   43.4840 S   0  0  0  0  0  0  0  0  0  0  0  0
  1  2  1  0
  2  3  1  0
  3  4  2  0
  4  5  1  0
  4  6  1  0
  6  7  1  0
  6  8  2  0
  8  9  1  0
  8 10  1  0
 10 11  1  0
 11 12  1  0
 11 13  1  0
 11 14  1  0
 14 15  1  0
 14 16  1  0
 14 17  1  0
 17 18  1  0
 17 19  1  0
 17 20  1  0
 20 21  2  0
 20 22  1  0
 22 23  2  0
 23 24  1  0
 24 25  1  0
 25 26  1  0
 25 27  2  0
 27 28  1  0
 28 29  1  0
 29 30  1  0
 29 31  1  0
 29 32  1  0
 32 33  2  0
 33 34  1  0
 34 35  1  0
 34 36  2  0
 36 37  1  0
 37 38  1  0
 38 39  1  0
 38 40  1  0
 38 41  1  0
 37 42  1  0
 42 43  1  0
 42 44  1  0
 42 45  1  0
 37 46  1  0
 46 47  1  0
 46 48  1  0
 46 49  1  0
 36 50  1  0
 27 51  1  0
 10  3  1  0
 51 23  1  0
 50 32  1  0
M  CHG  2   9  -1  24  -1
M  END
>  <UniqueID>  (29) 
27

>  <SMILES>  (29) 
CC(C)(C)c1cnc(CSc2c[n-]/c(=N/C(=O)CCCn3c([O-])ccc3O)s2)o1

>  <Energy>  (29) 
131.04626765767622

>  <Genealogy>  (29) 
CC(C)(C)c1cnc(CSc2c[n-]c(=NC(=O)CCCn3c([O-])ccc3O)s2)o1 (protonated)
CC(C)(C)c1cnc(CSc2c[n-]/c(=N/C(=O)CCCn3c([O-])ccc3O)s2)o1 (cis-trans isomerization)
CC(C)(C)c1cnc(CSc2c[n-]/c(=N/C(=O)CCCn3c([O-])ccc3O)s2)o1 (3D coordinates assigned)
CC(C)(C)c1cnc(CSc2c[n-]/c(=N/C(=O)CCCn3c([O-])ccc3O)s2)o1 (optimized conformer: 131.04626765767622 kcal/mol)

>  <smiles>  (29) 
CC(C)(C)c1cnc(CSc2c[nH]c(=NC(=O)CCCn3c(O)ccc3O)s2)o1

>  <score_type>  (29) 
oracle

>  <origin>  (29) 
adg

>  <m_score__min__energy>  (29) 
-13.57

>  <m_primary>  (29) 
energy

$$$$
29:0
     RDKit          3D

 56 61  0  0  0  0  0  0  0  0999 V2000
   55.8306   31.0522   44.1779 H   0  0  0  0  0  0  0  0  0  0  0  0
   56.2810   30.1070   44.5150 C   0  0  0  0  0  0  0  0  0  0  0  0
   55.6490   28.9840   44.6820 N   0  0  0  0  0  0  0  0  0  0  0  0
   56.5880   28.0130   45.0630 N   0  0  0  0  0  0  0  0  0  0  0  0
   56.4760   27.0440   46.0060 C   0  0  0  0  0  0  0  0  0  0  0  0
   55.4680   26.2320   46.2000 N   0  0  0  0  0  0  0  0  0  0  0  0
   55.0310   24.9210   45.6860 C   0  0  0  0  0  0  0  0  0  0  0  0
   53.9779   25.2307   45.6142 H   0  0  0  0  0  0  0  0  0  0  0  0
   56.0210   24.2020   44.7930 C   0  0  0  0  0  0  0  0  0  0  0  0
   55.6672   23.6556   43.9063 H   0  0  0  0  0  0  0  0  0  0  0  0
   56.9333   24.4898   44.2501 H   0  0  0  0  0  0  0  0  0  0  0  0
   55.7150   23.6680   46.1960 C   0  0  0  0  0  0  0  0  0  0  0  0
   55.1409   22.7377   46.3185 H   0  0  0  0  0  0  0  0  0  0  0  0
   56.3153   23.4123   47.0816 H   0  0  0  0  0  0  0  0  0  0  0  0
   57.6050   26.9510   46.7510 N   0  0  0  0  0  0  0  0  0  0  0  0
   58.3900   27.9180   46.2170 C   0  0  0  0  0  0  0  0  0  0  0  0
   59.5140   28.3240   46.7320 N   0  0  0  0  0  0  0  0  0  0  0  0
   59.7150   28.8270   48.0620 C   0  0  0  0  0  0  0  0  0  0  0  0
   60.7350   28.2660   48.8440 C   0  0  0  0  0  0  0  0  0  0  0  0
   61.3727   27.4743   48.4238 H   0  0  0  0  0  0  0  0  0  0  0  0
   60.9470   28.7060   50.1540 C   0  0  0  0  0  0  0  0  0  0  0  0
   61.7584   28.2701   50.7553 H   0  0  0  0  0  0  0  0  0  0  0  0
   60.1300   29.6980   50.7000 C   0  0  0  0  0  0  0  0  0  0  0  0
   60.3050   30.0507   51.7271 H   0  0  0  0  0  0  0  0  0  0  0  0
   59.0900   30.2430   49.9420 C   0  0  0  0  0  0  0  0  0  0  0  0
   58.4401   31.0168   50.3766 H   0  0  0  0  0  0  0  0  0  0  0  0
   58.8750   29.8050   48.6310 C   0  0  0  0  0  0  0  0  0  0  0  0
   58.0468   30.2257   48.0418 H   0  0  0  0  0  0  0  0  0  0  0  0
   57.7840   28.5310   45.1860 N   0  0  0  0  0  0  0  0  0  0  0  0
   57.6970   29.9050   44.8510 C   0  0  0  0  0  0  0  0  0  0  0  0
   58.7140   30.7740   44.8240 C   0  0  0  0  0  0  0  0  0  0  0  0
   59.4552   30.6898   44.0156 H   0  0  0  0  0  0  0  0  0  0  0  0
   58.8870   31.8430   45.8320 C   0  0  0  0  0  0  0  0  0  0  0  0
   57.8660   32.7630   46.1070 C   0  0  0  0  0  0  0  0  0  0  0  0
   56.6460   32.6880   45.4420 O   0  0  0  0  0  0  0  0  0  0  0  0
   58.0560   33.7240   47.0460 N   0  0  0  0  0  0  0  0  0  0  0  0
   57.2870   34.4070   47.2340 H   0  0  0  0  0  0  0  0  0  0  0  0
   59.2120   33.8010   47.7560 C   0  0  0  0  0  0  0  0  0  0  0  0
   59.3380   34.7010   48.6320 O   0  0  0  0  0  0  0  0  0  0  0  0
   60.2200   32.8980   47.5350 N   0  0  0  0  0  0  0  0  0  0  0  0
   61.4410   32.9800   48.2990 C   0  0  0  0  0  0  0  0  0  0  0  0
   61.4170   32.8240   49.6940 C   0  0  0  0  0  0  0  0  0  0  0  0
   60.4621   32.6378   50.2073 H   0  0  0  0  0  0  0  0  0  0  0  0
   62.6000   32.9040   50.4340 C   0  0  0  0  0  0  0  0  0  0  0  0
   62.5705   32.7901   51.5277 H   0  0  0  0  0  0  0  0  0  0  0  0
   63.8250   33.1290   49.7880 C   0  0  0  0  0  0  0  0  0  0  0  0
   65.0880   33.2560   50.5860 C   0  0  0  0  0  0  0  0  0  0  0  0
   64.8477   33.2318   51.6591 H   0  0  0  0  0  0  0  0  0  0  0  0
   65.7613   32.4210   50.3421 H   0  0  0  0  0  0  0  0  0  0  0  0
   65.5816   34.2083   50.3421 H   0  0  0  0  0  0  0  0  0  0  0  0
   63.8480   33.3030   48.3950 C   0  0  0  0  0  0  0  0  0  0  0  0
   64.8011   33.5039   47.8838 H   0  0  0  0  0  0  0  0  0  0  0  0
   62.6650   33.2220   47.6550 C   0  0  0  0  0  0  0  0  0  0  0  0
   62.6930   33.3485   46.5627 H   0  0  0  0  0  0  0  0  0  0  0  0
   60.0680   31.9190   46.5870 C   0  0  0  0  0  0  0  0  0  0  0  0
   60.9990   31.0940   46.3690 O   0  0  0  0  0  0  0  0  0  0  0  0
  1  2  1  0
  2  3  2  0
  3  4  1  0
  4  5  1  0
  5  6  2  3
  6  7  1  0
  7  8  1  0
  7  9  1  0
  9 10  1  0
  9 11  1  0
  9 12  1  0
 12 13  1  0
 12 14  1  0
  5 15  1  0
 15 16  1  0
 16 17  2  0
 17 18  1  0
 18 19  2  0
 19 20  1  0
 19 21  1  0
 21 22  1  0
 21 23  2  0
 23 24  1  0
 23 25  1  0
 25 26  1  0
 25 27  2  0
 27 28  1  0
 16 29  1  0
 29 30  1  0
 30 31  2  3
 31 32  1  0
 31 33  1  0
 33 34  2  0
 34 35  1  0
 34 36  1  0
 36 37  1  0
 36 38  1  0
 38 39  2  0
 38 40  1  0
 40 41  1  0
 41 42  2  0
 42 43  1  0
 42 44  1  0
 44 45  1  0
 44 46  2  0
 46 47  1  0
 47 48  1  0
 47 49  1  0
 47 50  1  0
 46 51  1  0
 51 52  1  0
 51 53  2  0
 53 54  1  0
 40 55  1  0
 55 56  2  0
 30  2  1  0
 55 33  1  0
 29  4  1  0
 53 41  1  0
 12  7  1  0
 27 18  1  0
M  CHG  2  15  -1  35  -1
M  END
>  <UniqueID>  (30) 
28

>  <SMILES>  (30) 
Cc1ccc(-n2c(=O)[nH]c([O-])c(C=C3C=Nn4c(=NC5CC5)[n-]/c(=N\c5ccccc5)n43)c2=O)cc1

>  <Energy>  (30) 
462.48656304712824

>  <Genealogy>  (30) 
Cc1ccc(-n2c(=O)[nH]c([O-])c(C=C3C=Nn4c(=NC5CC5)[n-]c(=Nc5ccccc5)n43)c2=O)cc1 (protonated)
Cc1ccc(-n2c(=O)[nH]c([O-])c(C=C3C=Nn4c(=NC5CC5)[n-]/c(=N\c5ccccc5)n43)c2=O)cc1 (cis-trans isomerization)
Cc1ccc(-n2c(=O)[nH]c([O-])c(C=C3C=Nn4c(=NC5CC5)[n-]/c(=N\c5ccccc5)n43)c2=O)cc1 (3D coordinates assigned)
Cc1ccc(-n2c(=O)[nH]c([O-])c(C=C3C=Nn4c(=NC5CC5)[n-]/c(=N\c5ccccc5)n43)c2=O)cc1 (nonaromatic ring conformer: 462.48656304712824 kcal/mol)

>  <smiles>  (30) 
Cc1ccc(-n2c(=O)[nH]c(O)c(C=C3C=Nn4c(=NC5CC5)[nH]c(=Nc5ccccc5)n43)c2=O)cc1

>  <score_type>  (30) 
oracle

>  <origin>  (30) 
adg

>  <m_score__min__energy>  (30) 
-11.77

>  <m_primary>  (30) 
energy

$$$$
30:0
     RDKit          3D

 56 60  0  0  0  0  0  0  0  0999 V2000
   52.1530   24.4550   44.8760 C   0  0  0  0  0  0  0  0  0  0  0  0
   53.5220   23.3740   45.2390 S   0  0  0  0  0  0  0  0  0  0  0  0
   53.0260   22.0060   45.6160 O   0  0  0  0  0  0  0  0  0  0  0  0
   54.3800   23.2520   44.0140 O   0  0  0  0  0  0  0  0  0  0  0  0
   54.4790   24.0400   46.5250 N   0  0  0  0  0  0  0  0  0  0  0  0
   55.7120   24.7580   46.3690 C   0  0  0  0  0  0  0  0  0  0  0  0
   55.6600   26.0850   45.9240 C   0  0  0  0  0  0  0  0  0  0  0  0
   56.8330   26.8270   45.7680 C   0  0  0  0  0  0  0  0  0  0  0  0
   58.0780   26.2480   46.0320 C   0  0  0  0  0  0  0  0  0  0  0  0
   59.2590   27.0490   45.8820 N   0  0  0  0  0  0  0  0  0  0  0  0
   59.8120   27.9350   46.8640 C   0  0  0  0  0  0  0  0  0  0  0  0
   60.7590   27.5430   47.5990 O   0  0  0  0  0  0  0  0  0  0  0  0
   59.3110   29.3310   46.9760 C   0  0  0  0  0  0  0  0  0  0  0  0
   58.5130   29.8960   45.9670 C   0  0  0  0  0  0  0  0  0  0  0  0
   58.1520   29.1590   44.8420 O   0  0  0  0  0  0  0  0  0  0  0  0
   58.0680   31.1700   46.0880 N   0  0  0  0  0  0  0  0  0  0  0  0
   58.3650   31.9290   47.1710 C   0  0  0  0  0  0  0  0  0  0  0  0
   57.9340   33.1130   47.2240 O   0  0  0  0  0  0  0  0  0  0  0  0
   59.1270   31.4140   48.1840 N   0  0  0  0  0  0  0  0  0  0  0  0
   59.4280   32.2210   49.3400 C   0  0  0  0  0  0  0  0  0  0  0  0
   60.5660   33.0050   49.5520 C   0  0  0  0  0  0  0  0  0  0  0  0
   61.6560   33.2610   48.5830 C   0  0  0  0  0  0  0  0  0  0  0  0
   61.3710   33.6080   47.2500 C   0  0  0  0  0  0  0  0  0  0  0  0
   62.4080   33.8480   46.3440 C   0  0  0  0  0  0  0  0  0  0  0  0
   63.7370   33.7460   46.7590 C   0  0  0  0  0  0  0  0  0  0  0  0
   64.0320   33.4110   48.0830 C   0  0  0  0  0  0  0  0  0  0  0  0
   62.9980   33.1750   48.9950 C   0  0  0  0  0  0  0  0  0  0  0  0
   60.5340   33.5330   50.8010 N   0  0  0  0  0  0  0  0  0  0  0  0
   59.3950   33.0910   51.3660 C   0  0  0  0  0  0  0  0  0  0  0  0
   58.9300   33.3630   52.6530 C   0  0  0  0  0  0  0  0  0  0  0  0
   57.7160   32.7740   53.0520 C   0  0  0  0  0  0  0  0  0  0  0  0
   57.0050   31.9310   52.1700 C   0  0  0  0  0  0  0  0  0  0  0  0
   57.4990   31.6710   50.8780 C   0  0  0  0  0  0  0  0  0  0  0  0
   58.6960   32.2820   50.5060 C   0  0  0  0  0  0  0  0  0  0  0  0
   59.6070   30.1330   48.1000 C   0  0  0  0  0  0  0  0  0  0  0  0
   60.3200   29.6680   49.0340 O   0  0  0  0  0  0  0  0  0  0  0  0
   58.1350   24.9220   46.4950 C   0  0  0  0  0  0  0  0  0  0  0  0
   56.9610   24.1810   46.6590 C   0  0  0  0  0  0  0  0  0  0  0  0
   51.7054   24.8084   45.8166 H   0  0  0  0  0  0  0  0  0  0  0  0
   52.5108   25.3169   44.2936 H   0  0  0  0  0  0  0  0  0  0  0  0
   51.3976   23.9071   44.2936 H   0  0  0  0  0  0  0  0  0  0  0  0
   54.6879   26.5464   45.6956 H   0  0  0  0  0  0  0  0  0  0  0  0
   56.7770   27.8739   45.4352 H   0  0  0  0  0  0  0  0  0  0  0  0
   58.4920   28.2140   44.7060 H   0  0  0  0  0  0  0  0  0  0  0  0
   60.3254   33.6910   46.9184 H   0  0  0  0  0  0  0  0  0  0  0  0
   62.1766   34.1175   45.3029 H   0  0  0  0  0  0  0  0  0  0  0  0
   64.5521   33.9294   46.0435 H   0  0  0  0  0  0  0  0  0  0  0  0
   65.0797   33.3327   48.4089 H   0  0  0  0  0  0  0  0  0  0  0  0
   63.2354   32.9211   50.0386 H   0  0  0  0  0  0  0  0  0  0  0  0
   61.2380   34.1700   51.2380 H   0  0  0  0  0  0  0  0  0  0  0  0
   59.4944   34.0170   53.3340 H   0  0  0  0  0  0  0  0  0  0  0  0
   57.3179   32.9716   54.0582 H   0  0  0  0  0  0  0  0  0  0  0  0
   56.0585   31.4744   52.4950 H   0  0  0  0  0  0  0  0  0  0  0  0
   56.9593   31.0085   50.1853 H   0  0  0  0  0  0  0  0  0  0  0  0
   59.1079   24.4653   46.7294 H   0  0  0  0  0  0  0  0  0  0  0  0
   57.0146   23.1421   47.0165 H   0  0  0  0  0  0  0  0  0  0  0  0
  1  2  1  0
  2  3  2  0
  2  4  2  0
  2  5  1  0
  5  6  1  0
  6  7  2  0
  7  8  1  0
  8  9  2  0
  9 10  1  0
 10 11  1  0
 11 12  2  0
 11 13  1  0
 13 14  2  0
 14 15  1  0
 14 16  1  0
 16 17  1  0
 17 18  2  0
 17 19  1  0
 19 20  1  0
 20 21  2  0
 21 22  1  0
 22 23  2  0
 23 24  1  0
 24 25  2  0
 25 26  1  0
 26 27  2  0
 21 28  1  0
 28 29  1  0
 29 30  2  0
 30 31  1  0
 31 32  2  0
 32 33  1  0
 33 34  2  0
 19 35  1  0
 35 36  2  0
  9 37  1  0
 37 38  2  0
 38  6  1  0
 35 13  1  0
 34 20  1  0
 27 22  1  0
 34 29  1  0
  1 39  1  0
  1 40  1  0
  1 41  1  0
  7 42  1  0
  8 43  1  0
 15 44  1  0
 23 45  1  0
 24 46  1  0
 25 47  1  0
 26 48  1  0
 27 49  1  0
 28 50  1  0
 30 51  1  0
 31 52  1  0
 32 53  1  0
 33 54  1  0
 37 55  1  0
 38 56  1  0
M  CHG  3   5  -1  10  -1  16  -1
M  END
>  <UniqueID>  (31) 
29

>  <SMILES>  (31) 
CS(=O)(=O)[N-]c1ccc([N-]C(=O)c2c(O)[n-]c(=O)n(-c3c(-c4ccccc4)[nH]c4ccccc34)c2=O)cc1

>  <Energy>  (31) 
116.69065560368496

>  <Genealogy>  (31) 
CS(=O)(=O)[N-]c1ccc([N-]C(=O)c2c(O)[n-]c(=O)n(-c3c(-c4ccccc4)[nH]c4ccccc34)c2=O)cc1 (protonated)
CS(=O)(=O)[N-]c1ccc([N-]C(=O)c2c(O)[n-]c(=O)n(-c3c(-c4ccccc4)[nH]c4ccccc34)c2=O)cc1 (3D coordinates assigned)
CS(=O)(=O)[N-]c1ccc([N-]C(=O)c2c(O)[n-]c(=O)n(-c3c(-c4ccccc4)[nH]c4ccccc34)c2=O)cc1 (optimized conformer: 116.69065560368496 kcal/mol)

>  <smiles>  (31) 
CS(=O)(=O)Nc1ccc(NC(=O)c2c(O)[nH]c(=O)n(-c3c(-c4ccccc4)[nH]c4ccccc34)c2=O)cc1

>  <score_type>  (31) 
oracle

>  <origin>  (31) 
adg

>  <m_score__min__energy>  (31) 
-13.33

>  <m_primary>  (31) 
energy

$$$$
31:0
     RDKit          3D

 77 81  0  0  0  0  0  0  0  0999 V2000
   60.5130   34.5273   51.1577 H   0  0  0  0  0  0  0  0  0  0  0  0
   60.5240   33.8040   50.3290 C   0  0  0  0  0  0  0  0  0  0  0  0
   59.3530   33.2710   49.9470 C   0  0  0  0  0  0  0  0  0  0  0  0
   58.5006   33.3285   50.6400 H   0  0  0  0  0  0  0  0  0  0  0  0
   59.1530   32.6080   48.6350 C   0  0  0  0  0  0  0  0  0  0  0  0
   59.5210   31.2690   48.4200 C   0  0  0  0  0  0  0  0  0  0  0  0
   59.9607   30.6803   49.2386 H   0  0  0  0  0  0  0  0  0  0  0  0
   59.3280   30.6880   47.1680 C   0  0  0  0  0  0  0  0  0  0  0  0
   59.6094   29.6377   47.0018 H   0  0  0  0  0  0  0  0  0  0  0  0
   58.7770   31.4370   46.1210 C   0  0  0  0  0  0  0  0  0  0  0  0
   58.5650   30.8720   44.8460 C   0  0  0  0  0  0  0  0  0  0  0  0
   58.9080   29.5280   44.6270 O   0  0  0  0  0  0  0  0  0  0  0  0
   58.2020   28.6350   43.7710 C   0  0  0  0  0  0  0  0  0  0  0  0
   58.8694   28.2888   42.9680 H   0  0  0  0  0  0  0  0  0  0  0  0
   57.3390   29.1515   43.3255 H   0  0  0  0  0  0  0  0  0  0  0  0
   57.7300   27.4600   44.5740 C   0  0  0  0  0  0  0  0  0  0  0  0
   57.2470   27.6390   45.8810 C   0  0  0  0  0  0  0  0  0  0  0  0
   57.1809   28.6514   46.3061 H   0  0  0  0  0  0  0  0  0  0  0  0
   56.8500   26.5370   46.6440 C   0  0  0  0  0  0  0  0  0  0  0  0
   56.4515   26.6875   47.6582 H   0  0  0  0  0  0  0  0  0  0  0  0
   56.9580   25.2400   46.1210 C   0  0  0  0  0  0  0  0  0  0  0  0
   56.5280   24.0830   46.9310 C   0  0  0  0  0  0  0  0  0  0  0  0
   57.4020   23.3680   47.4860 O   0  0  0  0  0  0  0  0  0  0  0  0
   55.1460   23.7360   47.0960 N   0  0  0  0  0  0  0  0  0  0  0  0
   54.2950   23.1170   46.0800 C   0  0  0  0  0  0  0  0  0  0  0  0
   53.5442   22.4779   46.5678 H   0  0  0  0  0  0  0  0  0  0  0  0
   53.5580   24.1940   45.2790 C   0  0  0  0  0  0  0  0  0  0  0  0
   53.0751   24.8996   45.9711 H   0  0  0  0  0  0  0  0  0  0  0  0
   54.2759   24.7353   44.6453 H   0  0  0  0  0  0  0  0  0  0  0  0
   52.7935   23.7208   44.6453 H   0  0  0  0  0  0  0  0  0  0  0  0
   55.1630   22.2640   45.1540 C   0  0  0  0  0  0  0  0  0  0  0  0
   55.8190   21.6193   45.7573 H   0  0  0  0  0  0  0  0  0  0  0  0
   54.5176   21.6390   44.5193 H   0  0  0  0  0  0  0  0  0  0  0  0
   55.7767   22.9202   44.5193 H   0  0  0  0  0  0  0  0  0  0  0  0
   57.4340   25.0610   44.8140 C   0  0  0  0  0  0  0  0  0  0  0  0
   57.4975   24.0485   44.3888 H   0  0  0  0  0  0  0  0  0  0  0  0
   57.8280   26.1620   44.0490 C   0  0  0  0  0  0  0  0  0  0  0  0
   58.2166   26.0108   43.0311 H   0  0  0  0  0  0  0  0  0  0  0  0
   58.0130   31.6710   43.8250 C   0  0  0  0  0  0  0  0  0  0  0  0
   57.8429   31.2402   42.8272 H   0  0  0  0  0  0  0  0  0  0  0  0
   57.6800   33.0050   44.0690 C   0  0  0  0  0  0  0  0  0  0  0  0
   57.2505   33.6185   43.2634 H   0  0  0  0  0  0  0  0  0  0  0  0
   57.8900   33.5630   45.3310 C   0  0  0  0  0  0  0  0  0  0  0  0
   57.6251   34.6144   45.5161 H   0  0  0  0  0  0  0  0  0  0  0  0
   58.4370   32.7890   46.3630 C   0  0  0  0  0  0  0  0  0  0  0  0
   58.6400   33.3350   47.6000 N   0  0  0  0  0  0  0  0  0  0  0  0
   58.3830   34.3360   47.7630 H   0  0  0  0  0  0  0  0  0  0  0  0
   61.8340   33.4820   49.7070 C   0  0  0  0  0  0  0  0  0  0  0  0
   62.1780   33.8670   48.3960 C   0  0  0  0  0  0  0  0  0  0  0  0
   61.4562   34.4264   47.7828 H   0  0  0  0  0  0  0  0  0  0  0  0
   63.4310   33.5420   47.8710 C   0  0  0  0  0  0  0  0  0  0  0  0
   63.6909   33.8460   46.8463 H   0  0  0  0  0  0  0  0  0  0  0  0
   64.3550   32.8330   48.6410 C   0  0  0  0  0  0  0  0  0  0  0  0
   65.3391   32.5803   48.2194 H   0  0  0  0  0  0  0  0  0  0  0  0
   64.0350   32.4410   49.9500 C   0  0  0  0  0  0  0  0  0  0  0  0
   65.0220   31.7030   50.7740 C   0  0  0  0  0  0  0  0  0  0  0  0
   64.8950   30.4580   50.9240 O   0  0  0  0  0  0  0  0  0  0  0  0
   66.1380   32.3750   51.3830 N   0  0  0  0  0  0  0  0  0  0  0  0
   65.9360   33.5800   52.1920 C   0  0  0  0  0  0  0  0  0  0  0  0
   64.9538   34.0141   51.9534 H   0  0  0  0  0  0  0  0  0  0  0  0
   65.9840   33.3029   53.2554 H   0  0  0  0  0  0  0  0  0  0  0  0
   67.0340   34.6240   51.9030 C   0  0  0  0  0  0  0  0  0  0  0  0
   66.6994   35.2542   51.0658 H   0  0  0  0  0  0  0  0  0  0  0  0
   67.1815   35.1939   52.8322 H   0  0  0  0  0  0  0  0  0  0  0  0
   68.3530   34.0370   51.5470 N   0  0  0  0  0  0  0  0  0  0  0  0
   68.6530   34.1860   50.1130 C   0  0  0  0  0  0  0  0  0  0  0  0
   69.6322   34.6723   49.9919 H   0  0  0  0  0  0  0  0  0  0  0  0
   68.6750   33.1941   49.6380 H   0  0  0  0  0  0  0  0  0  0  0  0
   67.8759   34.8029   49.6380 H   0  0  0  0  0  0  0  0  0  0  0  0
   68.5200   32.6410   52.0020 C   0  0  0  0  0  0  0  0  0  0  0  0
   69.5114   32.2813   51.6893 H   0  0  0  0  0  0  0  0  0  0  0  0
   68.4195   32.6253   53.0973 H   0  0  0  0  0  0  0  0  0  0  0  0
   67.4460   31.7130   51.4120 C   0  0  0  0  0  0  0  0  0  0  0  0
   67.7326   31.4376   50.3863 H   0  0  0  0  0  0  0  0  0  0  0  0
   67.3712   30.8166   52.0451 H   0  0  0  0  0  0  0  0  0  0  0  0
   62.7790   32.7860   50.4790 C   0  0  0  0  0  0  0  0  0  0  0  0
   62.5323   32.5065   51.5139 H   0  0  0  0  0  0  0  0  0  0  0  0
  1  2  1  0
  2  3  2  0
  3  4  1  0
  3  5  1  0
  5  6  2  0
  6  7  1  0
  6  8  1  0
  8  9  1  0
  8 10  2  0
 10 11  1  0
 11 12  1  0
 12 13  1  0
 13 14  1  0
 13 15  1  0
 13 16  1  0
 16 17  2  0
 17 18  1  0
 17 19  1  0
 19 20  1  0
 19 21  2  0
 21 22  1  0
 22 23  2  0
 22 24  1  0
 24 25  1  0
 25 26  1  0
 25 27  1  0
 27 28  1  0
 27 29  1  0
 27 30  1  0
 25 31  1  0
 31 32  1  0
 31 33  1  0
 31 34  1  0
 21 35  1  0
 35 36  1  0
 35 37  2  0
 37 38  1  0
 11 39  2  0
 39 40  1  0
 39 41  1  0
 41 42  1  0
 41 43  2  0
 43 44  1  0
 43 45  1  0
 45 46  2  0
 46 47  1  0
  2 48  1  0
 48 49  2  0
 49 50  1  0
 49 51  1  0
 51 52  1  0
 51 53  2  0
 53 54  1  0
 53 55  1  0
 55 56  1  0
 56 57  2  0
 56 58  1  0
 58 59  1  0
 59 60  1  0
 59 61  1  0
 59 62  1  0
 62 63  1  0
 62 64  1  0
 62 65  1  0
 65 66  1  0
 66 67  1  0
 66 68  1  0
 66 69  1  0
 65 70  1  0
 70 71  1  0
 70 72  1  0
 70 73  1  0
 73 74  1  0
 73 75  1  0
 55 76  2  0
 76 77  1  0
 46  5  1  0
 76 48  1  0
 45 10  1  0
 73 58  1  0
 37 16  1  0
M  CHG  2  24  -1  46   1
M  END
>  <UniqueID>  (32) 
30

>  <SMILES>  (32) 
CC(C)[N-]C(=O)c1ccc(COc2cccc3[nH+]c(/C=C/c4cccc(C(=O)N5CCN(C)CC5)c4)ccc23)cc1

>  <Energy>  (32) 
100.87550734000514

>  <Genealogy>  (32) 
CC(C)[N-]C(=O)c1ccc(COc2cccc3[nH+]c(C=Cc4cccc(C(=O)N5CCN(C)CC5)c4)ccc23)cc1 (protonated)
CC(C)[N-]C(=O)c1ccc(COc2cccc3[nH+]c(/C=C/c4cccc(C(=O)N5CCN(C)CC5)c4)ccc23)cc1 (cis-trans isomerization)
CC(C)[N-]C(=O)c1ccc(COc2cccc3[nH+]c(/C=C/c4cccc(C(=O)N5CCN(C)CC5)c4)ccc23)cc1 (3D coordinates assigned)
CC(C)[N-]C(=O)c1ccc(COc2cccc3[nH+]c(/C=C/c4cccc(C(=O)N5CCN(C)CC5)c4)ccc23)cc1 (nonaromatic ring conformer: 100.87550734000514 kcal/mol)

>  <smiles>  (32) 
CC(C)NC(=O)c1ccc(COc2cccc3nc(C=Cc4cccc(C(=O)N5CCN(C)CC5)c4)ccc23)cc1

>  <score_type>  (32) 
oracle

>  <origin>  (32) 
adg

>  <m_score__min__energy>  (32) 
-10.91

>  <m_primary>  (32) 
energy

$$$$
32:0
     RDKit          3D

 64 67  0  0  0  0  0  0  0  0999 V2000
   57.7620   32.7180   43.0190 C   0  0  0  0  0  0  0  0  0  0  0  0
   58.1540   32.5470   44.3020 C   0  0  0  0  0  0  0  0  0  0  0  0
   58.9810   33.5380   44.8880 C   0  0  0  0  0  0  0  0  0  0  0  0
   59.3600   34.5430   44.2180 O   0  0  0  0  0  0  0  0  0  0  0  0
   59.3740   33.4010   46.2280 C   0  0  0  0  0  0  0  0  0  0  0  0
   60.1670   34.3120   46.8300 C   0  0  0  0  0  0  0  0  0  0  0  0
   60.9310   34.0290   48.0630 C   0  0  0  0  0  0  0  0  0  0  0  0
   60.2280   33.9140   49.2730 C   0  0  0  0  0  0  0  0  0  0  0  0
   60.9090   33.6460   50.4640 C   0  0  0  0  0  0  0  0  0  0  0  0
   62.2950   33.4780   50.4560 C   0  0  0  0  0  0  0  0  0  0  0  0
   63.0020   33.5610   49.2540 C   0  0  0  0  0  0  0  0  0  0  0  0
   62.3290   33.8240   48.0540 C   0  0  0  0  0  0  0  0  0  0  0  0
   63.2580   33.8170   46.5570 Cl  0  0  0  0  0  0  0  0  0  0  0  0
   58.9550   32.3160   46.9200 N   0  0  0  0  0  0  0  0  0  0  0  0
   58.1690   31.3610   46.3710 C   0  0  0  0  0  0  0  0  0  0  0  0
   57.8190   30.3920   47.0970 O   0  0  0  0  0  0  0  0  0  0  0  0
   57.7620   31.4490   45.0590 N   0  0  0  0  0  0  0  0  0  0  0  0
   56.9650   30.3240   44.5020 C   0  0  0  0  0  0  0  0  0  0  0  0
   57.6220   28.9960   44.8000 C   0  0  0  0  0  0  0  0  0  0  0  0
   56.8660   27.9400   45.3350 C   0  0  0  0  0  0  0  0  0  0  0  0
   57.4700   26.7180   45.6400 C   0  0  0  0  0  0  0  0  0  0  0  0
   58.8450   26.5310   45.4310 C   0  0  0  0  0  0  0  0  0  0  0  0
   59.4890   25.2370   45.7460 C   0  0  0  0  0  0  0  0  0  0  0  0
   60.6660   25.2300   46.1970 O   0  0  0  0  0  0  0  0  0  0  0  0
   58.7950   23.9870   45.5600 N   0  0  0  0  0  0  0  0  0  0  0  0
   57.4300   23.8440   46.0800 C   0  0  0  0  0  0  0  0  0  0  0  0
   56.9620   22.3820   46.0180 C   0  0  0  0  0  0  0  0  0  0  0  0
   57.2900   21.7490   44.7220 N   0  0  0  0  0  0  0  0  0  0  0  0
   56.4490   22.2820   43.6730 C   0  0  0  0  0  0  0  0  0  0  0  0
   56.2980   21.6500   42.5880 O   0  0  0  0  0  0  0  0  0  0  0  0
   55.8420   23.5320   43.8480 O   0  0  0  0  0  0  0  0  0  0  0  0
   54.4520   23.6990   44.1190 C   0  0  0  0  0  0  0  0  0  0  0  0
   54.2450   24.4480   45.4310 C   0  0  0  0  0  0  0  0  0  0  0  0
   58.7390   21.8090   44.3690 C   0  0  0  0  0  0  0  0  0  0  0  0
   59.5660   22.7850   45.2300 C   0  0  0  0  0  0  0  0  0  0  0  0
   59.5970   27.5770   44.8710 C   0  0  0  0  0  0  0  0  0  0  0  0
   58.9920   28.7980   44.5600 C   0  0  0  0  0  0  0  0  0  0  0  0
   57.1200   31.9671   42.5353 H   0  0  0  0  0  0  0  0  0  0  0  0
   58.0851   33.6080   42.4591 H   0  0  0  0  0  0  0  0  0  0  0  0
   60.2486   35.3131   46.3815 H   0  0  0  0  0  0  0  0  0  0  0  0
   59.1348   34.0355   49.2838 H   0  0  0  0  0  0  0  0  0  0  0  0
   60.3519   33.5673   51.4092 H   0  0  0  0  0  0  0  0  0  0  0  0
   62.8304   33.2802   51.3963 H   0  0  0  0  0  0  0  0  0  0  0  0
   64.0928   33.4191   49.2499 H   0  0  0  0  0  0  0  0  0  0  0  0
   55.9609   30.3375   44.9509 H   0  0  0  0  0  0  0  0  0  0  0  0
   56.9005   30.4464   43.4107 H   0  0  0  0  0  0  0  0  0  0  0  0
   55.7895   28.0764   45.5153 H   0  0  0  0  0  0  0  0  0  0  0  0
   56.8631   25.8959   46.0472 H   0  0  0  0  0  0  0  0  0  0  0  0
   57.4071   24.1840   47.1259 H   0  0  0  0  0  0  0  0  0  0  0  0
   56.7554   24.4522   45.4595 H   0  0  0  0  0  0  0  0  0  0  0  0
   57.4541   21.8173   46.8236 H   0  0  0  0  0  0  0  0  0  0  0  0
   55.8682   22.3705   46.1343 H   0  0  0  0  0  0  0  0  0  0  0  0
   57.0380   20.7370   44.8160 H   0  0  0  0  0  0  0  0  0  0  0  0
   53.9906   24.2705   43.3002 H   0  0  0  0  0  0  0  0  0  0  0  0
   53.9859   22.7060   44.2012 H   0  0  0  0  0  0  0  0  0  0  0  0
   54.4329   23.7680   46.2750 H   0  0  0  0  0  0  0  0  0  0  0  0
   54.9421   25.2974   45.4822 H   0  0  0  0  0  0  0  0  0  0  0  0
   53.2107   24.8189   45.4822 H   0  0  0  0  0  0  0  0  0  0  0  0
   59.1637   20.8013   44.4877 H   0  0  0  0  0  0  0  0  0  0  0  0
   58.7944   22.1795   43.3347 H   0  0  0  0  0  0  0  0  0  0  0  0
   59.8596   22.2803   46.1622 H   0  0  0  0  0  0  0  0  0  0  0  0
   60.4540   23.0883   44.6559 H   0  0  0  0  0  0  0  0  0  0  0  0
   60.6701   27.4341   44.6758 H   0  0  0  0  0  0  0  0  0  0  0  0
   59.5929   29.6098   44.1242 H   0  0  0  0  0  0  0  0  0  0  0  0
  1  2  2  0
  2  3  1  0
  3  4  2  0
  3  5  1  0
  5  6  2  3
  6  7  1  0
  7  8  2  0
  8  9  1  0
  9 10  2  0
 10 11  1  0
 11 12  2  0
 12 13  1  0
  5 14  1  0
 14 15  1  0
 15 16  2  0
 15 17  1  0
 17 18  1  0
 18 19  1  0
 19 20  2  0
 20 21  1  0
 21 22  2  0
 22 23  1  0
 23 24  2  0
 23 25  1  0
 25 26  1  0
 26 27  1  0
 27 28  1  0
 28 29  1  0
 29 30  2  0
 29 31  1  0
 31 32  1  0
 32 33  1  0
 28 34  1  0
 34 35  1  0
 22 36  1  0
 36 37  2  0
 17  2  1  0
 37 19  1  0
 12  7  1  0
 35 25  1  0
  1 38  1  0
  1 39  1  0
  6 40  1  0
  8 41  1  0
  9 42  1  0
 10 43  1  0
 11 44  1  0
 18 45  1  0
 18 46  1  0
 20 47  1  0
 21 48  1  0
 26 49  1  0
 26 50  1  0
 27 51  1  0
 27 52  1  0
 28 53  1  0
 32 54  1  0
 32 55  1  0
 33 56  1  0
 33 57  1  0
 33 58  1  0
 34 59  1  0
 34 60  1  0
 35 61  1  0
 35 62  1  0
 36 63  1  0
 37 64  1  0
M  CHG  2  14  -1  28   1
M  END
>  <UniqueID>  (33) 
31

>  <SMILES>  (33) 
C=c1c(=O)c(=Cc2ccccc2Cl)[n-]c(=O)n1Cc1ccc(C(=O)N2CC[NH+](C(=O)OCC)CC2)cc1

>  <Energy>  (33) 
100.1792947666629

>  <Genealogy>  (33) 
C=c1c(=O)c(=Cc2ccccc2Cl)[n-]c(=O)n1Cc1ccc(C(=O)N2CC[NH+](C(=O)OCC)CC2)cc1 (protonated)
C=c1c(=O)c(=Cc2ccccc2Cl)[n-]c(=O)n1Cc1ccc(C(=O)N2CC[NH+](C(=O)OCC)CC2)cc1 (3D coordinates assigned)
C=c1c(=O)c(=Cc2ccccc2Cl)[n-]c(=O)n1Cc1ccc(C(=O)N2CC[NH+](C(=O)OCC)CC2)cc1 (nonaromatic ring conformer: 100.1792947666629 kcal/mol)

>  <smiles>  (33) 
C=c1c(=O)c(=Cc2ccccc2Cl)[nH]c(=O)n1Cc1ccc(C(=O)N2CCN(C(=O)OCC)CC2)cc1

>  <score_type>  (33) 
oracle

>  <origin>  (33) 
adg

>  <m_score__min__energy>  (33) 
-9.8800000000000008

>  <m_primary>  (33) 
energy

$$$$
33:0
     RDKit          3D

 61 64  0  0  0  0  0  0  0  0999 V2000
   59.9110   34.5900   47.0280 C   0  0  0  0  0  0  0  0  0  0  0  0
   59.6970   34.3750   45.6370 O   0  0  0  0  0  0  0  0  0  0  0  0
   58.8370   33.4010   45.1100 C   0  0  0  0  0  0  0  0  0  0  0  0
   58.2610   32.4750   45.9890 C   0  0  0  0  0  0  0  0  0  0  0  0
   57.4050   31.4780   45.5120 C   0  0  0  0  0  0  0  0  0  0  0  0
   57.1060   31.3990   44.1430 C   0  0  0  0  0  0  0  0  0  0  0  0
   56.2440   30.2820   43.6140 C   0  0  0  0  0  0  0  0  0  0  0  0
   57.0290   28.9680   43.4730 C   0  0  0  0  0  0  0  0  0  0  0  0
   57.5650   28.5160   44.7610 N   0  0  0  0  0  0  0  0  0  0  0  0
   56.8710   27.8930   45.7380 C   0  0  0  0  0  0  0  0  0  0  0  0
   55.5450   27.4930   45.6150 O   0  0  0  0  0  0  0  0  0  0  0  0
   57.6330   27.7370   46.8780 C   0  0  0  0  0  0  0  0  0  0  0  0
   58.8630   28.2960   46.5800 C   0  0  0  0  0  0  0  0  0  0  0  0
   59.9370   28.4980   47.5170 N   0  0  0  0  0  0  0  0  0  0  0  0
   60.0770   27.6020   48.6720 C   0  0  0  0  0  0  0  0  0  0  0  0
   60.6160   28.3800   49.8890 C   0  0  0  0  0  0  0  0  0  0  0  0
   60.1070   29.7690   49.9160 N   0  0  0  0  0  0  0  0  0  0  0  0
   58.6420   29.8080   50.1160 C   0  0  0  0  0  0  0  0  0  0  0  0
   58.2580   30.9510   51.0070 C   0  0  0  0  0  0  0  0  0  0  0  0
   58.8280   32.2060   51.0350 C   0  0  0  0  0  0  0  0  0  0  0  0
   58.2200   32.9160   52.0060 N   0  0  0  0  0  0  0  0  0  0  0  0
   58.5790   34.2640   52.4220 C   0  0  0  0  0  0  0  0  0  0  0  0
   57.3090   32.1730   52.6150 N   0  0  0  0  0  0  0  0  0  0  0  0
   57.3000   30.9690   52.0060 C   0  0  0  0  0  0  0  0  0  0  0  0
   56.4500   29.8230   52.4440 C   0  0  0  0  0  0  0  0  0  0  0  0
   60.5410   30.5530   48.7250 C   0  0  0  0  0  0  0  0  0  0  0  0
   60.7870   29.6890   47.4730 C   0  0  0  0  0  0  0  0  0  0  0  0
   58.7840   28.7770   45.2810 C   0  0  0  0  0  0  0  0  0  0  0  0
   59.7900   29.4810   44.6210 O   0  0  0  0  0  0  0  0  0  0  0  0
   57.6800   32.3280   43.2600 C   0  0  0  0  0  0  0  0  0  0  0  0
   58.5390   33.3220   43.7360 C   0  0  0  0  0  0  0  0  0  0  0  0
   59.2513   33.9272   47.6072 H   0  0  0  0  0  0  0  0  0  0  0  0
   60.9601   34.3709   47.2758 H   0  0  0  0  0  0  0  0  0  0  0  0
   59.6870   35.6381   47.2758 H   0  0  0  0  0  0  0  0  0  0  0  0
   58.4843   32.5328   47.0646 H   0  0  0  0  0  0  0  0  0  0  0  0
   56.9643   30.7529   46.2120 H   0  0  0  0  0  0  0  0  0  0  0  0
   55.4048   30.1220   44.3069 H   0  0  0  0  0  0  0  0  0  0  0  0
   55.8849   30.5727   42.6157 H   0  0  0  0  0  0  0  0  0  0  0  0
   56.3581   28.1929   43.0742 H   0  0  0  0  0  0  0  0  0  0  0  0
   57.8749   29.1450   42.7925 H   0  0  0  0  0  0  0  0  0  0  0  0
   57.3269   27.2671   47.8243 H   0  0  0  0  0  0  0  0  0  0  0  0
   59.0947   27.1740   48.9207 H   0  0  0  0  0  0  0  0  0  0  0  0
   60.7842   26.7985   48.4185 H   0  0  0  0  0  0  0  0  0  0  0  0
   60.3009   27.8663   50.8092 H   0  0  0  0  0  0  0  0  0  0  0  0
   61.7129   28.4167   49.8157 H   0  0  0  0  0  0  0  0  0  0  0  0
   58.1477   29.9288   49.1408 H   0  0  0  0  0  0  0  0  0  0  0  0
   58.3252   28.8679   50.5912 H   0  0  0  0  0  0  0  0  0  0  0  0
   59.6362   32.5645   50.3805 H   0  0  0  0  0  0  0  0  0  0  0  0
   58.5932   34.3171   53.5206 H   0  0  0  0  0  0  0  0  0  0  0  0
   59.5755   34.5156   52.0299 H   0  0  0  0  0  0  0  0  0  0  0  0
   57.8397   34.9779   52.0299 H   0  0  0  0  0  0  0  0  0  0  0  0
   56.4225   29.7859   53.5430 H   0  0  0  0  0  0  0  0  0  0  0  0
   55.4292   29.9543   52.0559 H   0  0  0  0  0  0  0  0  0  0  0  0
   56.8719   28.8842   52.0559 H   0  0  0  0  0  0  0  0  0  0  0  0
   59.7591   31.2903   48.4904 H   0  0  0  0  0  0  0  0  0  0  0  0
   61.4996   31.0269   48.9830 H   0  0  0  0  0  0  0  0  0  0  0  0
   60.5487   30.2745   46.5728 H   0  0  0  0  0  0  0  0  0  0  0  0
   61.8426   29.3808   47.4463 H   0  0  0  0  0  0  0  0  0  0  0  0
   59.6860   29.7940   43.6650 H   0  0  0  0  0  0  0  0  0  0  0  0
   57.4516   32.2727   42.1854 H   0  0  0  0  0  0  0  0  0  0  0  0
   58.9835   34.0445   43.0357 H   0  0  0  0  0  0  0  0  0  0  0  0
  1  2  1  0
  2  3  1  0
  3  4  2  0
  4  5  1  0
  5  6  2  0
  6  7  1  0
  7  8  1  0
  8  9  1  0
  9 10  1  0
 10 11  1  0
 10 12  2  0
 12 13  1  0
 13 14  1  0
 14 15  1  0
 15 16  1  0
 16 17  1  0
 17 18  1  0
 18 19  1  0
 19 20  2  0
 20 21  1  0
 21 22  1  0
 21 23  1  0
 23 24  2  0
 24 25  1  0
 17 26  1  0
 26 27  1  0
 13 28  2  0
 28 29  1  0
  6 30  1  0
 30 31  2  0
 31  3  1  0
 28  9  1  0
 27 14  1  0
 24 19  1  0
  1 32  1  0
  1 33  1  0
  1 34  1  0
  4 35  1  0
  5 36  1  0
  7 37  1  0
  7 38  1  0
  8 39  1  0
  8 40  1  0
 12 41  1  0
 15 42  1  0
 15 43  1  0
 16 44  1  0
 16 45  1  0
 18 46  1  0
 18 47  1  0
 20 48  1  0
 22 49  1  0
 22 50  1  0
 22 51  1  0
 25 52  1  0
 25 53  1  0
 25 54  1  0
 26 55  1  0
 26 56  1  0
 27 57  1  0
 27 58  1  0
 29 59  1  0
 30 60  1  0
 31 61  1  0
M  CHG  1  11  -1
M  END
>  <UniqueID>  (34) 
32

>  <SMILES>  (34) 
COc1ccc(CCn2c([O-])cc(N3CCN(Cc4cn(C)nc4C)CC3)c2O)cc1

>  <Energy>  (34) 
123.14126575740146

>  <Genealogy>  (34) 
COc1ccc(CCn2c([O-])cc(N3CCN(Cc4cn(C)nc4C)CC3)c2O)cc1 (protonated)
COc1ccc(CCn2c([O-])cc(N3CCN(Cc4cn(C)nc4C)CC3)c2O)cc1 (3D coordinates assigned)
COc1ccc(CCn2c([O-])cc(N3CCN(Cc4cn(C)nc4C)CC3)c2O)cc1 (nonaromatic ring conformer: 123.14126575740146 kcal/mol)

>  <smiles>  (34) 
COc1ccc(CCn2c(O)cc(N3CCN(Cc4cn(C)nc4C)CC3)c2O)cc1

>  <score_type>  (34) 
oracle

>  <origin>  (34) 
adg

>  <m_score__min__energy>  (34) 
-10.01

>  <m_primary>  (34) 
energy

$$$$
34:0
     RDKit          3D

 53 56  0  0  0  0  0  0  0  0999 V2000
   53.5172   22.4314   49.5466 H   0  0  0  0  0  0  0  0  0  0  0  0
   54.1880   22.9750   48.8650 C   0  0  0  0  0  0  0  0  0  0  0  0
   55.0095   23.5834   49.2711 H   0  0  0  0  0  0  0  0  0  0  0  0
   54.0020   22.8950   47.5230 C   0  0  0  0  0  0  0  0  0  0  0  0
   54.8680   23.5980   46.6160 C   0  0  0  0  0  0  0  0  0  0  0  0
   56.0750   24.0910   47.0190 C   0  0  0  0  0  0  0  0  0  0  0  0
   56.6019   23.5328   47.8069 H   0  0  0  0  0  0  0  0  0  0  0  0
   56.7420   25.3020   46.4990 C   0  0  0  0  0  0  0  0  0  0  0  0
   56.1370   26.4320   45.9960 C   0  0  0  0  0  0  0  0  0  0  0  0
   54.7730   26.7000   46.0060 O   0  0  0  0  0  0  0  0  0  0  0  0
   57.0730   27.2450   45.4660 N   0  0  0  0  0  0  0  0  0  0  0  0
   56.8370   28.5130   44.7820 C   0  0  0  0  0  0  0  0  0  0  0  0
   57.2766   28.4704   43.7745 H   0  0  0  0  0  0  0  0  0  0  0  0
   55.7533   28.6874   44.7100 H   0  0  0  0  0  0  0  0  0  0  0  0
   57.4790   29.6610   45.5670 C   0  0  0  0  0  0  0  0  0  0  0  0
   57.1955   29.5721   46.6261 H   0  0  0  0  0  0  0  0  0  0  0  0
   58.5703   29.5934   45.4465 H   0  0  0  0  0  0  0  0  0  0  0  0
   57.0370   30.9790   45.0600 N   0  0  0  0  0  0  0  0  0  0  0  0
   55.9200   30.8260   44.1120 C   0  0  0  0  0  0  0  0  0  0  0  0
   54.9807   30.6973   44.6698 H   0  0  0  0  0  0  0  0  0  0  0  0
   55.8507   31.7230   43.4791 H   0  0  0  0  0  0  0  0  0  0  0  0
   56.0945   29.9434   43.4791 H   0  0  0  0  0  0  0  0  0  0  0  0
   58.1280   31.8170   44.5010 C   0  0  0  0  0  0  0  0  0  0  0  0
   58.9816   31.1627   44.2701 H   0  0  0  0  0  0  0  0  0  0  0  0
   57.7186   32.3148   43.6096 H   0  0  0  0  0  0  0  0  0  0  0  0
   58.6080   32.9140   45.4300 C   0  0  0  0  0  0  0  0  0  0  0  0
   58.4710   32.7760   46.8240 C   0  0  0  0  0  0  0  0  0  0  0  0
   58.0137   31.8671   47.2421 H   0  0  0  0  0  0  0  0  0  0  0  0
   58.9140   33.7900   47.6800 C   0  0  0  0  0  0  0  0  0  0  0  0
   58.8120   33.6733   48.7690 H   0  0  0  0  0  0  0  0  0  0  0  0
   59.4860   34.9510   47.1530 C   0  0  0  0  0  0  0  0  0  0  0  0
   59.8373   35.7457   47.8276 H   0  0  0  0  0  0  0  0  0  0  0  0
   59.6120   35.1030   45.7700 C   0  0  0  0  0  0  0  0  0  0  0  0
   60.0581   36.0195   45.3565 H   0  0  0  0  0  0  0  0  0  0  0  0
   59.1720   34.0920   44.9110 C   0  0  0  0  0  0  0  0  0  0  0  0
   59.2677   34.2191   43.8226 H   0  0  0  0  0  0  0  0  0  0  0  0
   58.2610   26.6650   45.5520 N   0  0  0  0  0  0  0  0  0  0  0  0
   58.0750   25.4820   46.1690 C   0  0  0  0  0  0  0  0  0  0  0  0
   58.9980   24.6480   46.3660 O   0  0  0  0  0  0  0  0  0  0  0  0
   54.4430   23.6880   45.2650 C   0  0  0  0  0  0  0  0  0  0  0  0
   55.1480   24.2380   44.3790 O   0  0  0  0  0  0  0  0  0  0  0  0
   53.2740   23.1320   44.8830 N   0  0  0  0  0  0  0  0  0  0  0  0
   52.5070   22.4160   45.7300 C   0  0  0  0  0  0  0  0  0  0  0  0
   51.4200   21.9380   45.3030 O   0  0  0  0  0  0  0  0  0  0  0  0
   52.9040   22.2110   47.0250 N   0  0  0  0  0  0  0  0  0  0  0  0
   52.0670   21.3410   47.8830 C   0  0  0  0  0  0  0  0  0  0  0  0
   51.4298   22.1437   48.2827 H   0  0  0  0  0  0  0  0  0  0  0  0
   51.8250   19.9360   47.3300 C   0  0  0  0  0  0  0  0  0  0  0  0
   50.8648   19.4315   47.5131 H   0  0  0  0  0  0  0  0  0  0  0  0
   51.8787   19.4742   46.3331 H   0  0  0  0  0  0  0  0  0  0  0  0
   52.8030   20.1370   48.4690 C   0  0  0  0  0  0  0  0  0  0  0  0
   52.5521   19.7779   49.4780 H   0  0  0  0  0  0  0  0  0  0  0  0
   53.8592   19.8808   48.6390 H   0  0  0  0  0  0  0  0  0  0  0  0
  1  2  1  0
  2  3  1  0
  2  4  2  0
  4  5  1  0
  5  6  2  0
  6  7  1  0
  6  8  1  0
  8  9  2  0
  9 10  1  0
  9 11  1  0
 11 12  1  0
 12 13  1  0
 12 14  1  0
 12 15  1  0
 15 16  1  0
 15 17  1  0
 15 18  1  0
 18 19  1  0
 19 20  1  0
 19 21  1  0
 19 22  1  0
 18 23  1  0
 23 24  1  0
 23 25  1  0
 23 26  1  0
 26 27  2  0
 27 28  1  0
 27 29  1  0
 29 30  1  0
 29 31  2  0
 31 32  1  0
 31 33  1  0
 33 34  1  0
 33 35  2  0
 35 36  1  0
 11 37  1  0
 37 38  1  0
 38 39  2  0
  5 40  1  0
 40 41  2  0
 40 42  1  0
 42 43  1  0
 43 44  2  0
 43 45  1  0
 45 46  1  0
 46 47  1  0
 46 48  1  0
 48 49  1  0
 48 50  1  0
 48 51  1  0
 51 52  1  0
 51 53  1  0
 45  4  1  0
 51 46  1  0
 38  8  1  0
 35 26  1  0
M  CHG  3  10  -1  37  -1  42  -1
M  END
>  <UniqueID>  (35) 
33

>  <SMILES>  (35) 
C=c1/c(=C/c2c([O-])n(CCN(C)Cc3ccccc3)[n-]c2=O)c(=O)[n-]c(=O)n1C1CC1

>  <Energy>  (35) 
386.91377821179276

>  <Genealogy>  (35) 
C=c1c(=Cc2c([O-])n(CCN(C)Cc3ccccc3)[n-]c2=O)c(=O)[n-]c(=O)n1C1CC1 (protonated)
C=c1/c(=C/c2c([O-])n(CCN(C)Cc3ccccc3)[n-]c2=O)c(=O)[n-]c(=O)n1C1CC1 (cis-trans isomerization)
C=c1/c(=C/c2c([O-])n(CCN(C)Cc3ccccc3)[n-]c2=O)c(=O)[n-]c(=O)n1C1CC1 (3D coordinates assigned)
C=c1/c(=C/c2c([O-])n(CCN(C)Cc3ccccc3)[n-]c2=O)c(=O)[n-]c(=O)n1C1CC1 (nonaromatic ring conformer: 386.91377821179276 kcal/mol)

>  <smiles>  (35) 
C=c1c(=Cc2c(O)n(CCN(C)Cc3ccccc3)[nH]c2=O)c(=O)[nH]c(=O)n1C1CC1

>  <score_type>  (35) 
oracle

>  <origin>  (35) 
adg

>  <m_score__min__energy>  (35) 
-14.92

>  <m_primary>  (35) 
energy

$$$$
35:0
     RDKit          3D

 64 67  0  0  0  0  0  0  0  0999 V2000
   56.2040   29.7280   43.3310 C   0  0  0  0  0  0  0  0  0  0  0  0
   56.9240   30.9470   43.8150 C   0  0  0  0  0  0  0  0  0  0  0  0
   57.7380   31.6770   42.9460 C   0  0  0  0  0  0  0  0  0  0  0  0
   58.3910   32.8170   43.4160 C   0  0  0  0  0  0  0  0  0  0  0  0
   58.2350   33.2250   44.7510 C   0  0  0  0  0  0  0  0  0  0  0  0
   58.9310   34.4390   45.2490 C   0  0  0  0  0  0  0  0  0  0  0  0
   58.8840   35.4980   44.5690 O   0  0  0  0  0  0  0  0  0  0  0  0
   59.5800   34.4800   46.5290 N   0  0  0  0  0  0  0  0  0  0  0  0
   59.7890   33.4870   47.3490 C   0  0  0  0  0  0  0  0  0  0  0  0
   59.5930   33.7000   48.7180 C   0  0  0  0  0  0  0  0  0  0  0  0
   59.8220   32.6630   49.6220 C   0  0  0  0  0  0  0  0  0  0  0  0
   60.2310   31.4480   49.1770 N   0  0  0  0  0  0  0  0  0  0  0  0
   60.4290   31.1930   47.8570 C   0  0  0  0  0  0  0  0  0  0  0  0
   60.8590   29.9170   47.4730 O   0  0  0  0  0  0  0  0  0  0  0  0
   60.0150   28.8740   47.0640 C   0  0  0  0  0  0  0  0  0  0  0  0
   59.6000   27.8670   47.9510 C   0  0  0  0  0  0  0  0  0  0  0  0
   58.7800   26.8280   47.5070 C   0  0  0  0  0  0  0  0  0  0  0  0
   58.3400   26.7860   46.1780 C   0  0  0  0  0  0  0  0  0  0  0  0
   57.5050   25.6940   45.7520 N   0  0  0  0  0  0  0  0  0  0  0  0
   56.0720   25.7390   45.6840 C   0  0  0  0  0  0  0  0  0  0  0  0
   55.4280   26.6230   46.3110 O   0  0  0  0  0  0  0  0  0  0  0  0
   55.3740   24.7190   44.9610 N   0  0  0  0  0  0  0  0  0  0  0  0
   55.8770   23.4050   44.6830 C   0  0  0  0  0  0  0  0  0  0  0  0
   56.1760   23.0630   43.3630 C   0  0  0  0  0  0  0  0  0  0  0  0
   56.6440   21.7870   43.0570 C   0  0  0  0  0  0  0  0  0  0  0  0
   56.7910   20.8280   44.0630 C   0  0  0  0  0  0  0  0  0  0  0  0
   56.4610   21.1290   45.4070 C   0  0  0  0  0  0  0  0  0  0  0  0
   56.5800   20.0940   46.5450 C   0  0  0  0  0  0  0  0  0  0  0  0
   58.0340   19.6160   46.7850 C   0  0  0  0  0  0  0  0  0  0  0  0
   55.7320   18.8500   46.1990 C   0  0  0  0  0  0  0  0  0  0  0  0
   56.0630   20.7230   47.8590 C   0  0  0  0  0  0  0  0  0  0  0  0
   56.0080   22.4370   45.6950 C   0  0  0  0  0  0  0  0  0  0  0  0
   58.7960   27.7690   45.2780 C   0  0  0  0  0  0  0  0  0  0  0  0
   59.6250   28.8040   45.7230 C   0  0  0  0  0  0  0  0  0  0  0  0
   60.2380   32.2210   46.9180 C   0  0  0  0  0  0  0  0  0  0  0  0
   57.3980   32.4650   45.5830 C   0  0  0  0  0  0  0  0  0  0  0  0
   56.7710   31.3600   45.1010 N   0  0  0  0  0  0  0  0  0  0  0  0
   55.8569   29.1404   44.1937 H   0  0  0  0  0  0  0  0  0  0  0  0
   55.3395   30.0305   42.7217 H   0  0  0  0  0  0  0  0  0  0  0  0
   56.8862   29.1169   42.7217 H   0  0  0  0  0  0  0  0  0  0  0  0
   57.8631   31.3563   41.9012 H   0  0  0  0  0  0  0  0  0  0  0  0
   59.0315   33.3994   42.7373 H   0  0  0  0  0  0  0  0  0  0  0  0
   59.2590   34.6834   49.0805 H   0  0  0  0  0  0  0  0  0  0  0  0
   59.6707   32.8304   50.6986 H   0  0  0  0  0  0  0  0  0  0  0  0
   59.9231   27.8972   49.0020 H   0  0  0  0  0  0  0  0  0  0  0  0
   58.4769   26.0355   48.2070 H   0  0  0  0  0  0  0  0  0  0  0  0
   57.9640   24.7930   45.4960 H   0  0  0  0  0  0  0  0  0  0  0  0
   56.0415   23.8040   42.5612 H   0  0  0  0  0  0  0  0  0  0  0  0
   56.8993   21.5328   42.0177 H   0  0  0  0  0  0  0  0  0  0  0  0
   57.1678   19.8266   43.8076 H   0  0  0  0  0  0  0  0  0  0  0  0
   58.2255   19.5530   47.8664 H   0  0  0  0  0  0  0  0  0  0  0  0
   58.1739   18.6246   46.3295 H   0  0  0  0  0  0  0  0  0  0  0  0
   58.7349   20.3310   46.3295 H   0  0  0  0  0  0  0  0  0  0  0  0
   55.3999   18.3628   47.1276 H   0  0  0  0  0  0  0  0  0  0  0  0
   54.8540   19.1566   45.6115 H   0  0  0  0  0  0  0  0  0  0  0  0
   56.3383   18.1448   45.6115 H   0  0  0  0  0  0  0  0  0  0  0  0
   56.5001   20.1912   48.7169 H   0  0  0  0  0  0  0  0  0  0  0  0
   56.3543   21.7830   47.8976 H   0  0  0  0  0  0  0  0  0  0  0  0
   54.9666   20.6424   47.8976 H   0  0  0  0  0  0  0  0  0  0  0  0
   55.7529   22.7030   46.7314 H   0  0  0  0  0  0  0  0  0  0  0  0
   58.4987   27.7225   44.2200 H   0  0  0  0  0  0  0  0  0  0  0  0
   59.9727   29.5686   45.0127 H   0  0  0  0  0  0  0  0  0  0  0  0
   60.4377   32.0393   45.8517 H   0  0  0  0  0  0  0  0  0  0  0  0
   57.2489   32.7655   46.6306 H   0  0  0  0  0  0  0  0  0  0  0  0
  1  2  1  0
  2  3  2  0
  3  4  1  0
  4  5  2  0
  5  6  1  0
  6  7  2  0
  6  8  1  0
  8  9  2  3
  9 10  1  0
 10 11  2  0
 11 12  1  0
 12 13  1  0
 13 14  1  0
 14 15  1  0
 15 16  2  0
 16 17  1  0
 17 18  2  0
 18 19  1  0
 19 20  1  0
 20 21  2  0
 20 22  1  0
 22 23  1  0
 23 24  2  0
 24 25  1  0
 25 26  2  0
 26 27  1  0
 27 28  1  0
 28 29  1  0
 28 30  1  0
 28 31  1  0
 27 32  2  0
 18 33  1  0
 33 34  2  0
 13 35  2  0
  5 36  1  0
 36 37  2  0
 37  2  1  0
 35  9  1  0
 34 15  1  0
 32 23  1  0
  1 38  1  0
  1 39  1  0
  1 40  1  0
  3 41  1  0
  4 42  1  0
 10 43  1  0
 11 44  1  0
 16 45  1  0
 17 46  1  0
 19 47  1  0
 24 48  1  0
 25 49  1  0
 26 50  1  0
 29 51  1  0
 29 52  1  0
 29 53  1  0
 30 54  1  0
 30 55  1  0
 30 56  1  0
 31 57  1  0
 31 58  1  0
 31 59  1  0
 32 60  1  0
 33 61  1  0
 34 62  1  0
 35 63  1  0
 36 64  1  0
M  CHG  2  12  -1  22  -1
M  END
>  <UniqueID>  (36) 
34

>  <SMILES>  (36) 
Cc1ccc(C(=O)N=c2cc[n-]c(Oc3ccc(NC(=O)[N-]c4cccc(C(C)(C)C)c4)cc3)c2)cn1

>  <Energy>  (36) 
90.52412334601028

>  <Genealogy>  (36) 
Cc1ccc(C(=O)N=c2cc[n-]c(Oc3ccc(NC(=O)[N-]c4cccc(C(C)(C)C)c4)cc3)c2)cn1 (protonated)
Cc1ccc(C(=O)N=c2cc[n-]c(Oc3ccc(NC(=O)[N-]c4cccc(C(C)(C)C)c4)cc3)c2)cn1 (3D coordinates assigned)
Cc1ccc(C(=O)N=c2cc[n-]c(Oc3ccc(NC(=O)[N-]c4cccc(C(C)(C)C)c4)cc3)c2)cn1 (optimized conformer: 90.52412334601028 kcal/mol)

>  <smiles>  (36) 
Cc1ccc(C(=O)N=c2cc[nH]c(Oc3ccc(NC(=O)Nc4cccc(C(C)(C)C)c4)cc3)c2)cn1

>  <score_type>  (36) 
oracle

>  <origin>  (36) 
adg

>  <m_score__min__energy>  (36) 
-12.380000000000001

>  <m_primary>  (36) 
energy

$$$$
36:0
     RDKit          3D

 50 53  0  0  0  0  0  0  0  0999 V2000
   56.9890   31.2640   52.6340 C   0  0  0  0  0  0  0  0  0  0  0  0
   57.6270   31.0380   51.3060 C   0  0  0  0  0  0  0  0  0  0  0  0
   58.0700   29.8340   50.8870 N   0  0  0  0  0  0  0  0  0  0  0  0
   58.6070   30.1300   49.6850 C   0  0  0  0  0  0  0  0  0  0  0  0
   59.2950   29.0980   48.8460 C   0  0  0  0  0  0  0  0  0  0  0  0
   58.5180   31.4560   49.4160 N   0  0  0  0  0  0  0  0  0  0  0  0
   58.9800   32.2180   48.2460 C   0  0  2  0  0  0  0  0  0  0  0  0
   60.0680   33.2530   48.6290 C   0  0  0  0  0  0  0  0  0  0  0  0
   59.9040   34.5960   47.9020 C   0  0  0  0  0  0  0  0  0  0  0  0
   59.5170   34.3990   46.4310 C   0  0  0  0  0  0  0  0  0  0  0  0
   58.3080   33.5670   46.2940 N   0  0  0  0  0  0  0  0  0  0  0  0
   57.5250   33.6030   45.0810 C   0  0  0  0  0  0  0  0  0  0  0  0
   56.6510   34.5020   44.9310 O   0  0  0  0  0  0  0  0  0  0  0  0
   57.7260   32.6060   43.9680 C   0  0  0  0  0  0  0  0  0  0  0  0
   57.5480   31.2030   44.4810 C   0  0  0  0  0  0  0  0  0  0  0  0
   58.6500   30.4580   44.9210 C   0  0  0  0  0  0  0  0  0  0  0  0
   58.4780   29.1430   45.3580 C   0  0  0  0  0  0  0  0  0  0  0  0
   57.1930   28.5710   45.3450 C   0  0  0  0  0  0  0  0  0  0  0  0
   56.9610   27.2190   45.7820 N   0  0  0  0  0  0  0  0  0  0  0  0
   57.8810   26.2630   46.0310 C   0  0  0  0  0  0  0  0  0  0  0  0
   57.2230   25.1140   46.4120 C   0  0  0  0  0  0  0  0  0  0  0  0
   55.8840   25.4440   46.3720 C   0  0  0  0  0  0  0  0  0  0  0  0
   55.7500   26.7270   45.9860 N   0  0  0  0  0  0  0  0  0  0  0  0
   56.1400   29.3160   44.9060 N   0  0  0  0  0  0  0  0  0  0  0  0
   56.2840   30.5970   44.4750 C   0  0  0  0  0  0  0  0  0  0  0  0
   57.8030   32.8220   47.4570 C   0  0  0  0  0  0  0  0  0  0  0  0
   57.9020   32.0270   50.4360 N   0  0  0  0  0  0  0  0  0  0  0  0
   57.7030   31.0111   53.4316 H   0  0  0  0  0  0  0  0  0  0  0  0
   56.6965   32.3205   52.7252 H   0  0  0  0  0  0  0  0  0  0  0  0
   56.0967   30.6273   52.7252 H   0  0  0  0  0  0  0  0  0  0  0  0
   59.7858   28.3618   49.4996 H   0  0  0  0  0  0  0  0  0  0  0  0
   58.5550   28.5888   48.2111 H   0  0  0  0  0  0  0  0  0  0  0  0
   60.0496   29.5852   48.2111 H   0  0  0  0  0  0  0  0  0  0  0  0
   59.4689   31.5138   47.5567 H   0  0  0  0  0  0  0  0  0  0  0  0
   60.0142   33.4327   49.7129 H   0  0  0  0  0  0  0  0  0  0  0  0
   61.0398   32.8339   48.3289 H   0  0  0  0  0  0  0  0  0  0  0  0
   59.1173   35.1792   48.4029 H   0  0  0  0  0  0  0  0  0  0  0  0
   60.8677   35.1252   47.9360 H   0  0  0  0  0  0  0  0  0  0  0  0
   59.3264   35.3828   45.9773 H   0  0  0  0  0  0  0  0  0  0  0  0
   60.3468   33.8858   45.9230 H   0  0  0  0  0  0  0  0  0  0  0  0
   56.9901   32.7972   43.1731 H   0  0  0  0  0  0  0  0  0  0  0  0
   58.7468   32.7141   43.5727 H   0  0  0  0  0  0  0  0  0  0  0  0
   59.6528   30.9100   44.9222 H   0  0  0  0  0  0  0  0  0  0  0  0
   59.3410   28.5587   45.7098 H   0  0  0  0  0  0  0  0  0  0  0  0
   58.9712   26.3813   45.9444 H   0  0  0  0  0  0  0  0  0  0  0  0
   57.6675   24.1463   46.6875 H   0  0  0  0  0  0  0  0  0  0  0  0
   55.0546   24.7644   46.6174 H   0  0  0  0  0  0  0  0  0  0  0  0
   55.4072   31.1591   44.1209 H   0  0  0  0  0  0  0  0  0  0  0  0
   57.2385   33.5042   48.1097 H   0  0  0  0  0  0  0  0  0  0  0  0
   57.1466   32.0107   47.1094 H   0  0  0  0  0  0  0  0  0  0  0  0
  1  2  1  0
  2  3  1  0
  3  4  2  0
  4  5  1  0
  4  6  1  0
  6  7  1  0
  7  8  1  0
  8  9  1  0
  9 10  1  0
 10 11  1  0
 11 12  1  0
 12 13  2  0
 12 14  1  0
 14 15  1  0
 15 16  2  0
 16 17  1  0
 17 18  2  0
 18 19  1  0
 19 20  1  0
 20 21  2  0
 21 22  1  0
 22 23  2  0
 18 24  1  0
 24 25  2  0
 11 26  1  0
  6 27  1  0
 27  2  2  0
 26  7  1  0
 25 15  1  0
 23 19  1  0
  1 28  1  0
  1 29  1  0
  1 30  1  0
  5 31  1  0
  5 32  1  0
  5 33  1  0
  7 34  1  6
  8 35  1  0
  8 36  1  0
  9 37  1  0
  9 38  1  0
 10 39  1  0
 10 40  1  0
 14 41  1  0
 14 42  1  0
 16 43  1  0
 17 44  1  0
 20 45  1  0
 21 46  1  0
 22 47  1  0
 25 48  1  0
 26 49  1  0
 26 50  1  0
M  END
>  <UniqueID>  (37) 
35

>  <SMILES>  (37) 
Cc1nc(C)n([C@@H]2CCCN(C(=O)Cc3ccc(-n4cccn4)nc3)C2)n1

>  <Energy>  (37) 
118.58592361335756

>  <Genealogy>  (37) 
Cc1nc(C)n([C@@H]2CCCN(C(=O)Cc3ccc(-n4cccn4)nc3)C2)n1 (chirality)
Cc1nc(C)n([C@@H]2CCCN(C(=O)Cc3ccc(-n4cccn4)nc3)C2)n1 (3D coordinates assigned)
Cc1nc(C)n([C@@H]2CCCN(C(=O)Cc3ccc(-n4cccn4)nc3)C2)n1 (nonaromatic ring conformer: 118.58592361335756 kcal/mol)

>  <smiles>  (37) 
Cc1nc(C)n(C2CCCN(C(=O)Cc3ccc(-n4cccn4)nc3)C2)n1

>  <score_type>  (37) 
oracle

>  <origin>  (37) 
adg

>  <m_score__min__energy>  (37) 
-8.8499999999999996

>  <m_primary>  (37) 
energy

$$$$
37:0
     RDKit          3D

 42 44  0  0  0  0  0  0  0  0999 V2000
   57.0310   25.5990   46.9680 C   0  0  0  0  0  0  0  0  0  0  0  0
   57.4240   26.4420   45.7900 C   0  0  0  0  0  0  0  0  0  0  0  0
   57.7600   25.8710   44.5820 C   0  0  0  0  0  0  0  0  0  0  0  0
   58.1090   26.6990   43.5480 C   0  0  0  0  0  0  0  0  0  0  0  0
   58.1300   28.0810   43.7020 C   0  0  0  0  0  0  0  0  0  0  0  0
   57.8010   28.6680   44.8950 C   0  0  0  0  0  0  0  0  0  0  0  0
   57.8070   30.1260   45.1050 C   0  0  0  0  0  0  0  0  0  0  0  0
   56.7450   30.7230   44.9020 O   0  0  0  0  0  0  0  0  0  0  0  0
   58.9510   30.8400   45.5170 N   0  0  0  0  0  0  0  0  0  0  0  0
   59.0700   32.2070   45.7460 C   0  0  0  0  0  0  0  0  0  0  0  0
   58.5980   33.2190   44.9440 C   0  0  0  0  0  0  0  0  0  0  0  0
   58.7590   34.5650   45.2450 C   0  0  0  0  0  0  0  0  0  0  0  0
   59.4180   34.9570   46.3910 C   0  0  0  0  0  0  0  0  0  0  0  0
   59.8990   33.9630   47.2080 C   0  0  0  0  0  0  0  0  0  0  0  0
   60.6060   34.3600   48.4380 C   0  0  0  0  0  0  0  0  0  0  0  0
   61.9790   33.8340   48.4190 C   0  0  0  0  0  0  0  0  0  0  0  0
   62.6260   33.4760   47.2930 N   0  0  0  0  0  0  0  0  0  0  0  0
   63.8410   33.0410   47.5880 N   0  0  0  0  0  0  0  0  0  0  0  0
   63.9830   33.1170   48.9240 C   0  0  0  0  0  0  0  0  0  0  0  0
   65.3290   32.6820   49.7230 S   0  0  0  0  0  0  0  0  0  0  0  0
   62.8320   33.6060   49.4190 N   0  0  0  0  0  0  0  0  0  0  0  0
   62.5750   33.8400   50.8080 C   0  0  0  0  0  0  0  0  0  0  0  0
   59.7370   32.6320   46.9050 C   0  0  0  0  0  0  0  0  0  0  0  0
   57.4480   27.8070   45.9300 C   0  0  0  0  0  0  0  0  0  0  0  0
   57.2789   26.1308   47.8984 H   0  0  0  0  0  0  0  0  0  0  0  0
   55.9490   25.4037   46.9344 H   0  0  0  0  0  0  0  0  0  0  0  0
   57.5771   24.6447   46.9344 H   0  0  0  0  0  0  0  0  0  0  0  0
   57.7483   24.7789   44.4513 H   0  0  0  0  0  0  0  0  0  0  0  0
   58.3783   26.2615   42.5753 H   0  0  0  0  0  0  0  0  0  0  0  0
   58.4162   28.7147   42.8496 H   0  0  0  0  0  0  0  0  0  0  0  0
   59.8210   30.2450   45.6680 H   0  0  0  0  0  0  0  0  0  0  0  0
   58.0671   32.9494   44.0191 H   0  0  0  0  0  0  0  0  0  0  0  0
   58.3563   35.3271   44.5616 H   0  0  0  0  0  0  0  0  0  0  0  0
   59.5527   36.0199   46.6402 H   0  0  0  0  0  0  0  0  0  0  0  0
   60.6370   35.4577   48.5026 H   0  0  0  0  0  0  0  0  0  0  0  0
   60.0738   33.9507   49.3093 H   0  0  0  0  0  0  0  0  0  0  0  0
   64.5050   32.7160   46.8600 H   0  0  0  0  0  0  0  0  0  0  0  0
   63.2531   33.2226   51.4154 H   0  0  0  0  0  0  0  0  0  0  0  0
   62.7419   34.9027   51.0378 H   0  0  0  0  0  0  0  0  0  0  0  0
   61.5326   33.5745   51.0378 H   0  0  0  0  0  0  0  0  0  0  0  0
   60.1432   31.8760   47.5931 H   0  0  0  0  0  0  0  0  0  0  0  0
   57.1761   28.2400   46.9039 H   0  0  0  0  0  0  0  0  0  0  0  0
  1  2  1  0
  2  3  2  0
  3  4  1  0
  4  5  2  0
  5  6  1  0
  6  7  1  0
  7  8  2  0
  7  9  1  0
  9 10  1  0
 10 11  2  0
 11 12  1  0
 12 13  2  0
 13 14  1  0
 14 15  1  0
 15 16  1  0
 16 17  2  0
 17 18  1  0
 18 19  1  0
 19 20  2  0
 19 21  1  0
 21 22  1  0
 14 23  2  0
  6 24  2  0
 24  2  1  0
 23 10  1  0
 21 16  1  0
  1 25  1  0
  1 26  1  0
  1 27  1  0
  3 28  1  0
  4 29  1  0
  5 30  1  0
  9 31  1  0
 11 32  1  0
 12 33  1  0
 13 34  1  0
 15 35  1  0
 15 36  1  0
 18 37  1  0
 22 38  1  0
 22 39  1  0
 22 40  1  0
 23 41  1  0
 24 42  1  0
M  END
>  <smiles>  (38) 
Cc1cccc(C(=O)Nc2cccc(Cc3n[nH]c(=S)n3C)c2)c1

>  <score_type>  (38) 
oracle

>  <origin>  (38) 
adg

>  <m_score__min__energy>  (38) 
-8.6999999999999993

>  <m_primary>  (38) 
energy

$$$$
38:0
     RDKit          3D

 65 68  0  0  0  0  0  0  0  0999 V2000
   57.4828   31.0970   42.3130 H   0  0  0  0  0  0  0  0  0  0  0  0
   57.2570   30.7110   43.3180 C   0  0  0  0  0  0  0  0  0  0  0  0
   57.1940   31.6910   44.4200 C   0  0  0  0  0  0  0  0  0  0  0  0
   57.0210   31.2670   45.5950 O   0  0  0  0  0  0  0  0  0  0  0  0
   57.3960   33.0950   44.1870 N   0  0  0  0  0  0  0  0  0  0  0  0
   57.6910   33.4230   43.2410 H   0  0  0  0  0  0  0  0  0  0  0  0
   57.3330   34.0850   45.2600 C   0  0  0  0  0  0  0  0  0  0  0  0
   56.4996   33.8400   45.9348 H   0  0  0  0  0  0  0  0  0  0  0  0
   57.1758   35.0832   44.8254 H   0  0  0  0  0  0  0  0  0  0  0  0
   58.6210   34.0770   46.0340 C   0  0  0  0  0  0  0  0  0  0  0  0
   59.8440   33.9560   45.3560 C   0  0  0  0  0  0  0  0  0  0  0  0
   59.8627   33.9509   44.2562 H   0  0  0  0  0  0  0  0  0  0  0  0
   61.0380   33.8420   46.0730 C   0  0  0  0  0  0  0  0  0  0  0  0
   61.9937   33.7527   45.5357 H   0  0  0  0  0  0  0  0  0  0  0  0
   61.0220   33.8410   47.4740 C   0  0  0  0  0  0  0  0  0  0  0  0
   62.5050   33.5420   48.3770 S   0  0  0  0  0  0  0  0  0  0  0  0
   62.8940   34.8000   49.1030 O   0  0  0  0  0  0  0  0  0  0  0  0
   63.6130   33.1740   47.4290 O   0  0  0  0  0  0  0  0  0  0  0  0
   62.2330   32.2560   49.5270 N   0  0  0  0  0  0  0  0  0  0  0  0
   63.5000   31.5730   49.8240 C   0  0  0  0  0  0  0  0  0  0  0  0
   64.2224   32.3113   50.2022 H   0  0  0  0  0  0  0  0  0  0  0  0
   63.8618   31.1051   48.8966 H   0  0  0  0  0  0  0  0  0  0  0  0
   63.3190   30.4650   50.8810 C   0  0  0  0  0  0  0  0  0  0  0  0
   64.0087   30.6644   51.7144 H   0  0  0  0  0  0  0  0  0  0  0  0
   63.5288   29.5077   50.3814 H   0  0  0  0  0  0  0  0  0  0  0  0
   61.9480   30.3770   51.4220 N   0  0  0  0  0  0  0  0  0  0  0  0
   61.0680   29.3880   50.7610 C   0  0  0  0  0  0  0  0  0  0  0  0
   60.3166   29.0497   51.4897 H   0  0  0  0  0  0  0  0  0  0  0  0
   61.7118   28.5676   50.4110 H   0  0  0  0  0  0  0  0  0  0  0  0
   60.3490   29.9300   49.5530 C   0  0  0  0  0  0  0  0  0  0  0  0
   60.8550   29.8690   48.3080 N   0  0  0  0  0  0  0  0  0  0  0  0
   59.9030   30.4420   47.5430 C   0  0  0  0  0  0  0  0  0  0  0  0
   60.0290   30.5770   46.0640 C   0  0  0  0  0  0  0  0  0  0  0  0
   60.7622   31.3625   45.8287 H   0  0  0  0  0  0  0  0  0  0  0  0
   60.3655   29.6212   45.6359 H   0  0  0  0  0  0  0  0  0  0  0  0
   59.0523   30.8469   45.6359 H   0  0  0  0  0  0  0  0  0  0  0  0
   58.8230   30.8670   48.2340 N   0  0  0  0  0  0  0  0  0  0  0  0
   59.1120   30.5500   49.5080 C   0  0  0  0  0  0  0  0  0  0  0  0
   58.1640   30.7840   50.6410 C   0  0  0  0  0  0  0  0  0  0  0  0
   58.6943   30.6531   51.5958 H   0  0  0  0  0  0  0  0  0  0  0  0
   57.7655   31.8075   50.5802 H   0  0  0  0  0  0  0  0  0  0  0  0
   57.3350   30.0635   50.5802 H   0  0  0  0  0  0  0  0  0  0  0  0
   61.3170   31.6740   51.7550 C   0  0  0  0  0  0  0  0  0  0  0  0
   61.6546   31.9775   52.7570 H   0  0  0  0  0  0  0  0  0  0  0  0
   60.2283   31.5240   51.7070 H   0  0  0  0  0  0  0  0  0  0  0  0
   61.6610   32.8020   50.7630 C   0  0  0  0  0  0  0  0  0  0  0  0
   62.3908   33.4808   51.2284 H   0  0  0  0  0  0  0  0  0  0  0  0
   60.7371   33.3441   50.5131 H   0  0  0  0  0  0  0  0  0  0  0  0
   59.8060   33.9880   48.1520 C   0  0  0  0  0  0  0  0  0  0  0  0
   59.7918   34.0139   49.2516 H   0  0  0  0  0  0  0  0  0  0  0  0
   58.6100   34.1020   47.4380 C   0  0  0  0  0  0  0  0  0  0  0  0
   57.6575   34.2116   47.9772 H   0  0  0  0  0  0  0  0  0  0  0  0
   57.0620   29.3890   43.4390 C   0  0  0  0  0  0  0  0  0  0  0  0
   56.3816   28.9125   42.7179 H   0  0  0  0  0  0  0  0  0  0  0  0
   57.6850   28.5170   44.4610 C   0  0  0  0  0  0  0  0  0  0  0  0
   56.9950   28.1330   45.6260 C   0  0  0  0  0  0  0  0  0  0  0  0
   55.9585   28.4658   45.7836 H   0  0  0  0  0  0  0  0  0  0  0  0
   57.6220   27.3300   46.5840 C   0  0  0  0  0  0  0  0  0  0  0  0
   57.0729   27.0195   47.4851 H   0  0  0  0  0  0  0  0  0  0  0  0
   58.9440   26.9220   46.3980 C   0  0  0  0  0  0  0  0  0  0  0  0
   59.4330   26.2833   47.1483 H   0  0  0  0  0  0  0  0  0  0  0  0
   59.6470   27.3250   45.2580 C   0  0  0  0  0  0  0  0  0  0  0  0
   60.6908   27.0085   45.1156 H   0  0  0  0  0  0  0  0  0  0  0  0
   59.0240   28.1300   44.2990 C   0  0  0  0  0  0  0  0  0  0  0  0
   59.5863   28.4613   43.4135 H   0  0  0  0  0  0  0  0  0  0  0  0
  1  2  1  0
  2  3  1  0
  3  4  2  0
  3  5  1  0
  5  6  1  0
  5  7  1  0
  7  8  1  0
  7  9  1  0
  7 10  1  0
 10 11  2  0
 11 12  1  0
 11 13  1  0
 13 14  1  0
 13 15  2  0
 15 16  1  0
 16 17  2  0
 16 18  2  0
 16 19  1  0
 19 20  1  0
 20 21  1  0
 20 22  1  0
 20 23  1  0
 23 24  1  0
 23 25  1  0
 23 26  1  0
 26 27  1  0
 27 28  1  0
 27 29  1  0
 27 30  1  0
 30 31  1  0
 31 32  1  0
 32 33  1  0
 33 34  1  0
 33 35  1  0
 33 36  1  0
 32 37  2  0
 37 38  1  0
 38 39  1  0
 39 40  1  0
 39 41  1  0
 39 42  1  0
 26 43  1  0
 43 44  1  0
 43 45  1  0
 43 46  1  0
 46 47  1  0
 46 48  1  0
 15 49  1  0
 49 50  1  0
 49 51  2  0
 51 52  1  0
  2 53  2  0
 53 54  1  0
 53 55  1  0
 55 56  2  0
 56 57  1  0
 56 58  1  0
 58 59  1  0
 58 60  2  0
 60 61  1  0
 60 62  1  0
 62 63  1  0
 62 64  2  0
 64 65  1  0
 51 10  1  0
 64 55  1  0
 46 19  1  0
 38 30  2  0
M  CHG  1  31  -1
M  END
>  <UniqueID>  (39) 
36

>  <SMILES>  (39) 
Cc1nc(C)c(CN2CCN(S(=O)(=O)c3ccc(CNC(=O)/C=C\c4ccccc4)cc3)CC2)[n-]1

>  <Energy>  (39) 
106.10861437777557

>  <Genealogy>  (39) 
Cc1nc(C)c(CN2CCN(S(=O)(=O)c3ccc(CNC(=O)C=Cc4ccccc4)cc3)CC2)[n-]1 (protonated)
Cc1nc(C)c(CN2CCN(S(=O)(=O)c3ccc(CNC(=O)/C=C\c4ccccc4)cc3)CC2)[n-]1 (cis-trans isomerization)
Cc1nc(C)c(CN2CCN(S(=O)(=O)c3ccc(CNC(=O)/C=C\c4ccccc4)cc3)CC2)[n-]1 (3D coordinates assigned)
Cc1nc(C)c(CN2CCN(S(=O)(=O)c3ccc(CNC(=O)/C=C\c4ccccc4)cc3)CC2)[n-]1 (nonaromatic ring conformer: 106.10861437777557 kcal/mol)

>  <smiles>  (39) 
Cc1nc(C)c(CN2CCN(S(=O)(=O)c3ccc(CNC(=O)C=Cc4ccccc4)cc3)CC2)[nH]1

>  <score_type>  (39) 
oracle

>  <origin>  (39) 
adg

>  <m_score__min__energy>  (39) 
-12.619999999999999

>  <m_primary>  (39) 
energy

$$$$
39:0
     RDKit          3D

 63 65  0  0  0  0  0  0  0  0999 V2000
   62.6820   31.4640   48.6840 C   0  0  0  0  0  0  0  0  0  0  0  0
   63.2690   32.6090   48.3100 C   0  0  0  0  0  0  0  0  0  0  0  0
   64.5200   33.0610   49.0160 C   0  0  0  0  0  0  0  0  0  0  0  0
   62.6690   33.4460   47.2360 C   0  0  0  0  0  0  0  0  0  0  0  0
   63.4030   33.8880   46.3070 O   0  0  0  0  0  0  0  0  0  0  0  0
   61.2660   33.7590   47.2400 N   0  0  0  0  0  0  0  0  0  0  0  0
   60.6410   34.5680   46.1930 C   0  0  0  0  0  0  0  0  0  0  0  0
   59.2900   35.1170   46.6570 C   0  0  0  0  0  0  0  0  0  0  0  0
   58.0140   33.8020   46.7140 S   0  0  0  0  0  0  0  0  0  0  0  0
   58.3180   33.0550   45.0690 C   0  0  0  0  0  0  0  0  0  0  0  0
   58.0100   31.5740   45.0500 C   0  0  0  0  0  0  0  0  0  0  0  0
   58.1610   30.8410   46.2400 C   0  0  0  0  0  0  0  0  0  0  0  0
   57.9260   29.4670   46.2670 C   0  0  0  0  0  0  0  0  0  0  0  0
   57.5280   28.7900   45.1070 C   0  0  0  0  0  0  0  0  0  0  0  0
   57.3110   27.3230   45.1280 C   0  0  0  0  0  0  0  0  0  0  0  0
   56.6550   26.7170   46.2150 C   0  0  0  0  0  0  0  0  0  0  0  0
   56.5060   25.3290   46.2670 C   0  0  0  0  0  0  0  0  0  0  0  0
   57.0100   24.5260   45.2380 C   0  0  0  0  0  0  0  0  0  0  0  0
   56.9330   22.7740   45.3900 S   0  0  0  0  0  0  0  0  0  0  0  0
   57.4040   22.3400   46.7520 O   0  0  0  0  0  0  0  0  0  0  0  0
   57.8310   22.1600   44.3550 O   0  0  0  0  0  0  0  0  0  0  0  0
   55.3010   22.2250   45.1260 N   0  0  0  0  0  0  0  0  0  0  0  0
   54.4220   22.5880   46.2430 C   0  0  0  0  0  0  0  0  0  0  0  0
   53.0490   22.9730   45.7530 C   0  0  0  0  0  0  0  0  0  0  0  0
   51.9130   22.2670   46.1850 C   0  0  0  0  0  0  0  0  0  0  0  0
   50.6380   22.6570   45.7630 C   0  0  0  0  0  0  0  0  0  0  0  0
   50.4880   23.7460   44.9000 C   0  0  0  0  0  0  0  0  0  0  0  0
   51.6150   24.4390   44.4480 C   0  0  0  0  0  0  0  0  0  0  0  0
   52.8910   24.0530   44.8690 C   0  0  0  0  0  0  0  0  0  0  0  0
   57.6340   25.1240   44.1350 C   0  0  0  0  0  0  0  0  0  0  0  0
   57.7860   26.5120   44.0810 C   0  0  0  0  0  0  0  0  0  0  0  0
   57.3560   29.5170   43.9170 C   0  0  0  0  0  0  0  0  0  0  0  0
   57.5770   30.9050   43.8770 C   0  0  0  0  0  0  0  0  0  0  0  0
   57.3920   31.6270   42.5670 C   0  0  0  0  0  0  0  0  0  0  0  0
   61.7678   31.1231   48.1760 H   0  0  0  0  0  0  0  0  0  0  0  0
   63.1143   30.8649   49.4990 H   0  0  0  0  0  0  0  0  0  0  0  0
   64.3673   33.0058   50.1040 H   0  0  0  0  0  0  0  0  0  0  0  0
   65.3584   32.4090   48.7299 H   0  0  0  0  0  0  0  0  0  0  0  0
   64.7480   34.0984   48.7299 H   0  0  0  0  0  0  0  0  0  0  0  0
   60.6310   33.2330   47.8830 H   0  0  0  0  0  0  0  0  0  0  0  0
   61.3047   35.4091   45.9440 H   0  0  0  0  0  0  0  0  0  0  0  0
   60.4765   33.9324   45.3104 H   0  0  0  0  0  0  0  0  0  0  0  0
   59.4053   35.5469   47.6629 H   0  0  0  0  0  0  0  0  0  0  0  0
   58.9638   35.8834   45.9385 H   0  0  0  0  0  0  0  0  0  0  0  0
   57.6809   33.5592   44.3274 H   0  0  0  0  0  0  0  0  0  0  0  0
   59.3845   33.1819   44.8316 H   0  0  0  0  0  0  0  0  0  0  0  0
   58.4683   31.3578   47.1611 H   0  0  0  0  0  0  0  0  0  0  0  0
   58.0542   28.9100   47.2069 H   0  0  0  0  0  0  0  0  0  0  0  0
   56.2568   27.3402   47.0293 H   0  0  0  0  0  0  0  0  0  0  0  0
   55.9901   24.8653   47.1207 H   0  0  0  0  0  0  0  0  0  0  0  0
   54.3323   21.7281   46.9232 H   0  0  0  0  0  0  0  0  0  0  0  0
   54.8604   23.4512   46.7652 H   0  0  0  0  0  0  0  0  0  0  0  0
   52.0273   21.4042   46.8577 H   0  0  0  0  0  0  0  0  0  0  0  0
   49.7519   22.1058   46.1108 H   0  0  0  0  0  0  0  0  0  0  0  0
   49.4839   24.0577   44.5766 H   0  0  0  0  0  0  0  0  0  0  0  0
   51.4975   25.2893   43.7601 H   0  0  0  0  0  0  0  0  0  0  0  0
   53.7753   24.5976   44.5063 H   0  0  0  0  0  0  0  0  0  0  0  0
   58.0052   24.4991   43.3094 H   0  0  0  0  0  0  0  0  0  0  0  0
   58.2805   26.9739   43.2138 H   0  0  0  0  0  0  0  0  0  0  0  0
   57.0435   28.9920   43.0023 H   0  0  0  0  0  0  0  0  0  0  0  0
   57.1232   32.6758   42.7612 H   0  0  0  0  0  0  0  0  0  0  0  0
   58.3289   31.5890   41.9919 H   0  0  0  0  0  0  0  0  0  0  0  0
   56.5888   31.1431   41.9919 H   0  0  0  0  0  0  0  0  0  0  0  0
  1  2  2  0
  2  3  1  0
  2  4  1  0
  4  5  2  0
  4  6  1  0
  6  7  1  0
  7  8  1  0
  8  9  1  0
  9 10  1  0
 10 11  1  0
 11 12  2  0
 12 13  1  0
 13 14  2  0
 14 15  1  0
 15 16  2  0
 16 17  1  0
 17 18  2  0
 18 19  1  0
 19 20  2  0
 19 21  2  0
 19 22  1  0
 22 23  1  0
 23 24  1  0
 24 25  2  0
 25 26  1  0
 26 27  2  0
 27 28  1  0
 28 29  2  0
 18 30  1  0
 30 31  2  0
 14 32  1  0
 32 33  2  0
 33 34  1  0
 33 11  1  0
 31 15  1  0
 29 24  1  0
  1 35  1  0
  1 36  1  0
  3 37  1  0
  3 38  1  0
  3 39  1  0
  6 40  1  0
  7 41  1  0
  7 42  1  0
  8 43  1  0
  8 44  1  0
 10 45  1  0
 10 46  1  0
 12 47  1  0
 13 48  1  0
 16 49  1  0
 17 50  1  0
 23 51  1  0
 23 52  1  0
 25 53  1  0
 26 54  1  0
 27 55  1  0
 28 56  1  0
 29 57  1  0
 30 58  1  0
 31 59  1  0
 32 60  1  0
 34 61  1  0
 34 62  1  0
 34 63  1  0
M  CHG  1  22  -1
M  END
>  <UniqueID>  (40) 
37

>  <SMILES>  (40) 
C=C(C)C(=O)NCCSCc1ccc(-c2ccc(S(=O)(=O)[N-]Cc3ccccc3)cc2)cc1C

>  <Energy>  (40) 
59.78743564600157

>  <Genealogy>  (40) 
C=C(C)C(=O)NCCSCc1ccc(-c2ccc(S(=O)(=O)[N-]Cc3ccccc3)cc2)cc1C (protonated)
C=C(C)C(=O)NCCSCc1ccc(-c2ccc(S(=O)(=O)[N-]Cc3ccccc3)cc2)cc1C (3D coordinates assigned)
C=C(C)C(=O)NCCSCc1ccc(-c2ccc(S(=O)(=O)[N-]Cc3ccccc3)cc2)cc1C (optimized conformer: 59.78743564600157 kcal/mol)

>  <smiles>  (40) 
C=C(C)C(=O)NCCSCc1ccc(-c2ccc(S(=O)(=O)NCc3ccccc3)cc2)cc1C

>  <score_type>  (40) 
oracle

>  <origin>  (40) 
adg

>  <m_score__min__energy>  (40) 
-10.300000000000001

>  <m_primary>  (40) 
energy

$$$$
40:0
     RDKit          3D

 67 71  0  0  0  0  0  0  0  0999 V2000
   56.3390   29.4790   44.5860 C   0  0  0  0  0  0  0  0  0  0  0  0
   57.5860   29.0800   44.8850 C   0  0  0  0  0  0  0  0  0  0  0  0
   58.0950   27.7780   44.7580 C   0  0  0  0  0  0  0  0  0  0  0  0
   57.4710   26.6060   44.5350 C   0  0  0  0  0  0  0  0  0  0  0  0
   57.0300   25.6620   45.5760 C   0  0  0  0  0  0  0  0  0  0  0  0
   57.8280   24.2400   46.0150 S   0  0  0  0  0  0  0  0  0  0  0  0
   56.5680   23.7440   47.0080 C   0  0  0  0  0  0  0  0  0  0  0  0
   56.5730   22.6790   47.6790 O   0  0  0  0  0  0  0  0  0  0  0  0
   55.5300   24.6050   47.0030 N   0  0  0  0  0  0  0  0  0  0  0  0
   55.7820   25.6650   46.1910 C   0  0  0  0  0  0  0  0  0  0  0  0
   54.8460   26.6740   45.9970 O   0  0  0  0  0  0  0  0  0  0  0  0
   59.4600   27.8710   44.9530 C   0  0  0  0  0  0  0  0  0  0  0  0
   59.7300   29.1880   45.2620 C   0  0  0  0  0  0  0  0  0  0  0  0
   61.0890   29.7090   45.6220 C   0  0  0  0  0  0  0  0  0  0  0  0
   58.5970   29.9290   45.2240 N   0  0  0  0  0  0  0  0  0  0  0  0
   58.5130   31.3650   45.5430 C   0  0  0  0  0  0  0  0  0  0  0  0
   59.4330   31.7040   46.6880 C   0  0  0  0  0  0  0  0  0  0  0  0
   59.3350   31.0170   47.9080 C   0  0  0  0  0  0  0  0  0  0  0  0
   60.1760   31.3450   48.9750 C   0  0  0  0  0  0  0  0  0  0  0  0
   61.1340   32.3650   48.8430 C   0  0  0  0  0  0  0  0  0  0  0  0
   62.0000   32.7090   49.9470 N   0  0  0  0  0  0  0  0  0  0  0  0
   62.3070   34.1180   50.2360 C   0  0  0  0  0  0  0  0  0  0  0  0
   63.7230   34.2450   50.8020 C   0  0  0  0  0  0  0  0  0  0  0  0
   63.8930   33.4260   52.1150 C   0  0  0  0  0  0  0  0  0  0  0  0
   65.3150   33.0920   52.4440 N   0  0  0  0  0  0  0  0  0  0  0  0
   65.8350   31.8990   51.7160 C   0  0  0  0  0  0  0  0  0  0  0  0
   67.3610   31.7910   51.8260 C   0  0  0  0  0  0  0  0  0  0  0  0
   68.0560   33.0080   51.1920 C   0  0  0  0  0  0  0  0  0  0  0  0
   67.1650   34.2580   51.1670 C   0  0  0  0  0  0  0  0  0  0  0  0
   66.2110   34.2870   52.3710 C   0  0  0  0  0  0  0  0  0  0  0  0
   62.9570   32.1800   52.1740 C   0  0  0  0  0  0  0  0  0  0  0  0
   62.5750   31.6460   50.7870 C   0  0  0  0  0  0  0  0  0  0  0  0
   61.2330   33.0450   47.6160 C   0  0  0  0  0  0  0  0  0  0  0  0
   60.3930   32.7170   46.5500 C   0  0  0  0  0  0  0  0  0  0  0  0
   56.0496   30.5309   44.7263 H   0  0  0  0  0  0  0  0  0  0  0  0
   55.6070   28.7539   44.2008 H   0  0  0  0  0  0  0  0  0  0  0  0
   57.2742   26.3306   43.4884 H   0  0  0  0  0  0  0  0  0  0  0  0
   60.1906   27.0523   44.8765 H   0  0  0  0  0  0  0  0  0  0  0  0
   61.1888   29.7473   46.7168 H   0  0  0  0  0  0  0  0  0  0  0  0
   61.8591   29.0424   45.2067 H   0  0  0  0  0  0  0  0  0  0  0  0
   61.2161   30.7196   45.2067 H   0  0  0  0  0  0  0  0  0  0  0  0
   58.8044   31.9504   44.6585 H   0  0  0  0  0  0  0  0  0  0  0  0
   57.4795   31.6062   45.8324 H   0  0  0  0  0  0  0  0  0  0  0  0
   58.5913   30.2150   48.0252 H   0  0  0  0  0  0  0  0  0  0  0  0
   60.0874   30.8001   49.9264 H   0  0  0  0  0  0  0  0  0  0  0  0
   62.2328   34.7038   49.3079 H   0  0  0  0  0  0  0  0  0  0  0  0
   61.5886   34.4970   50.9778 H   0  0  0  0  0  0  0  0  0  0  0  0
   64.4402   33.8742   50.0550 H   0  0  0  0  0  0  0  0  0  0  0  0
   63.9068   35.3048   51.0323 H   0  0  0  0  0  0  0  0  0  0  0  0
   63.5643   34.1043   52.9162 H   0  0  0  0  0  0  0  0  0  0  0  0
   65.3050   32.8180   53.4570 H   0  0  0  0  0  0  0  0  0  0  0  0
   65.3812   30.9934   52.1449 H   0  0  0  0  0  0  0  0  0  0  0  0
   65.5734   32.0039   50.6527 H   0  0  0  0  0  0  0  0  0  0  0  0
   67.6402   31.7325   52.8884 H   0  0  0  0  0  0  0  0  0  0  0  0
   67.6842   30.8879   51.2876 H   0  0  0  0  0  0  0  0  0  0  0  0
   68.9634   33.2351   51.7708 H   0  0  0  0  0  0  0  0  0  0  0  0
   68.2904   32.7484   50.1491 H   0  0  0  0  0  0  0  0  0  0  0  0
   67.8031   35.1536   51.1937 H   0  0  0  0  0  0  0  0  0  0  0  0
   66.5626   34.2369   50.2468 H   0  0  0  0  0  0  0  0  0  0  0  0
   66.8116   34.3299   53.2915 H   0  0  0  0  0  0  0  0  0  0  0  0
   65.5667   35.1710   52.2552 H   0  0  0  0  0  0  0  0  0  0  0  0
   63.4728   31.3809   52.7266 H   0  0  0  0  0  0  0  0  0  0  0  0
   62.0272   32.4923   52.6720 H   0  0  0  0  0  0  0  0  0  0  0  0
   63.4749   31.2477   50.2956 H   0  0  0  0  0  0  0  0  0  0  0  0
   61.8203   30.8558   50.9138 H   0  0  0  0  0  0  0  0  0  0  0  0
   61.9799   33.8435   47.4948 H   0  0  0  0  0  0  0  0  0  0  0  0
   60.4848   33.2566   45.5958 H   0  0  0  0  0  0  0  0  0  0  0  0
  1  2  2  0
  2  3  1  0
  3  4  2  3
  4  5  1  0
  5  6  1  0
  6  7  1  0
  7  8  2  0
  7  9  1  0
  9 10  1  0
 10 11  1  0
  3 12  1  0
 12 13  2  0
 13 14  1  0
 13 15  1  0
 15 16  1  0
 16 17  1  0
 17 18  2  0
 18 19  1  0
 19 20  2  0
 20 21  1  0
 21 22  1  0
 22 23  1  0
 23 24  1  0
 24 25  1  0
 25 26  1  0
 26 27  1  0
 27 28  1  0
 28 29  1  0
 29 30  1  0
 24 31  1  0
 31 32  1  0
 20 33  1  0
 33 34  2  0
 15  2  1  0
 34 17  1  0
 10  5  2  0
 32 21  1  0
 30 25  1  0
  1 35  1  0
  1 36  1  0
  4 37  1  0
 12 38  1  0
 14 39  1  0
 14 40  1  0
 14 41  1  0
 16 42  1  0
 16 43  1  0
 18 44  1  0
 19 45  1  0
 22 46  1  0
 22 47  1  0
 23 48  1  0
 23 49  1  0
 24 50  1  0
 25 51  1  0
 26 52  1  0
 26 53  1  0
 27 54  1  0
 27 55  1  0
 28 56  1  0
 28 57  1  0
 29 58  1  0
 29 59  1  0
 30 60  1  0
 30 61  1  0
 31 62  1  0
 31 63  1  0
 32 64  1  0
 32 65  1  0
 33 66  1  0
 34 67  1  0
M  CHG  3   9  -1  11  -1  25   1
M  END
>  <UniqueID>  (41) 
38

>  <SMILES>  (41) 
C=c1c(=Cc2sc(=O)[n-]c2[O-])cc(C)n1Cc1ccc(N2CCC([NH+]3CCCCC3)CC2)cc1

>  <Energy>  (41) 
160.90605801572224

>  <Genealogy>  (41) 
C=c1c(=Cc2sc(=O)[n-]c2[O-])cc(C)n1Cc1ccc(N2CCC([NH+]3CCCCC3)CC2)cc1 (protonated)
C=c1c(=Cc2sc(=O)[n-]c2[O-])cc(C)n1Cc1ccc(N2CCC([NH+]3CCCCC3)CC2)cc1 (3D coordinates assigned)
C=c1c(=Cc2sc(=O)[n-]c2[O-])cc(C)n1Cc1ccc(N2CCC([NH+]3CCCCC3)CC2)cc1 (nonaromatic ring conformer: 160.90605801572224 kcal/mol)

>  <smiles>  (41) 
C=c1c(=Cc2sc(=O)[nH]c2O)cc(C)n1Cc1ccc(N2CCC(N3CCCCC3)CC2)cc1

>  <score_type>  (41) 
oracle

>  <origin>  (41) 
adg

>  <m_score__min__energy>  (41) 
-13.949999999999999

>  <m_primary>  (41) 
energy

$$$$
41:0
     RDKit          3D

 56 59  0  0  0  0  0  0  0  0999 V2000
   57.8995   30.8952   44.0644 H   0  0  0  0  0  0  0  0  0  0  0  0
   57.7390   29.8330   44.3010 C   0  0  0  0  0  0  0  0  0  0  0  0
   57.2681   29.1697   43.5606 H   0  0  0  0  0  0  0  0  0  0  0  0
   58.1180   29.3460   45.4940 C   0  0  0  0  0  0  0  0  0  0  0  0
   57.9790   28.0260   45.9330 C   0  0  0  0  0  0  0  0  0  0  0  0
   57.3820   27.0080   45.2840 C   0  0  0  0  0  0  0  0  0  0  0  0
   57.2944   27.0742   44.1895 H   0  0  0  0  0  0  0  0  0  0  0  0
   56.8390   25.8110   45.9500 C   0  0  0  0  0  0  0  0  0  0  0  0
   57.6130   24.8480   46.4830 N   0  0  0  0  0  0  0  0  0  0  0  0
   56.7220   24.0100   47.0540 C   0  0  0  0  0  0  0  0  0  0  0  0
   57.0690   22.9600   47.6550 O   0  0  0  0  0  0  0  0  0  0  0  0
   55.4320   24.3900   46.9420 N   0  0  0  0  0  0  0  0  0  0  0  0
   55.5230   25.5380   46.2520 C   0  0  0  0  0  0  0  0  0  0  0  0
   54.4280   26.3410   45.9510 O   0  0  0  0  0  0  0  0  0  0  0  0
   58.5380   27.9780   47.2050 C   0  0  0  0  0  0  0  0  0  0  0  0
   58.6064   27.0970   47.8600 H   0  0  0  0  0  0  0  0  0  0  0  0
   58.9910   29.2530   47.4860 C   0  0  0  0  0  0  0  0  0  0  0  0
   59.6510   29.6600   48.7670 C   0  0  0  0  0  0  0  0  0  0  0  0
   59.0574   29.2940   49.6177 H   0  0  0  0  0  0  0  0  0  0  0  0
   60.6616   29.2280   48.8122 H   0  0  0  0  0  0  0  0  0  0  0  0
   59.7188   30.7570   48.8122 H   0  0  0  0  0  0  0  0  0  0  0  0
   58.7430   30.0810   46.4470 N   0  0  0  0  0  0  0  0  0  0  0  0
   59.0620   31.4830   46.4000 C   0  0  0  0  0  0  0  0  0  0  0  0
   58.0750   32.4190   46.0700 C   0  0  0  0  0  0  0  0  0  0  0  0
   57.0498   32.0823   45.8564 H   0  0  0  0  0  0  0  0  0  0  0  0
   58.3870   33.7780   46.0110 C   0  0  0  0  0  0  0  0  0  0  0  0
   57.6011   34.5069   45.7638 H   0  0  0  0  0  0  0  0  0  0  0  0
   59.6940   34.2240   46.2640 C   0  0  0  0  0  0  0  0  0  0  0  0
   60.0010   35.6960   46.1850 C   0  0  0  0  0  0  0  0  0  0  0  0
   60.0869   36.1077   47.2014 H   0  0  0  0  0  0  0  0  0  0  0  0
   60.9494   35.8444   45.6479 H   0  0  0  0  0  0  0  0  0  0  0  0
   59.1910   36.2112   45.6479 H   0  0  0  0  0  0  0  0  0  0  0  0
   60.6950   33.2800   46.5990 C   0  0  0  0  0  0  0  0  0  0  0  0
   62.0790   33.6950   46.9010 C   0  0  0  0  0  0  0  0  0  0  0  0
   62.7450   34.2920   46.0120 O   0  0  0  0  0  0  0  0  0  0  0  0
   62.6750   33.4310   48.1830 N   0  0  0  0  0  0  0  0  0  0  0  0
   64.0590   33.0130   48.3360 C   0  0  0  0  0  0  0  0  0  0  0  0
   64.2966   32.2059   47.6274 H   0  0  0  0  0  0  0  0  0  0  0  0
   64.7575   33.8377   48.1313 H   0  0  0  0  0  0  0  0  0  0  0  0
   64.1820   32.5140   49.7710 C   0  0  0  0  0  0  0  0  0  0  0  0
   64.1398   31.4152   49.7999 H   0  0  0  0  0  0  0  0  0  0  0  0
   65.1390   32.8123   50.2239 H   0  0  0  0  0  0  0  0  0  0  0  0
   62.9820   33.1180   50.5270 C   0  0  0  0  0  0  0  0  0  0  0  0
   62.4510   32.1520   51.6030 C   0  0  0  0  0  0  0  0  0  0  0  0
   62.6736   32.5569   52.6013 H   0  0  0  0  0  0  0  0  0  0  0  0
   61.3631   32.0373   51.4881 H   0  0  0  0  0  0  0  0  0  0  0  0
   62.9372   31.1720   51.4881 H   0  0  0  0  0  0  0  0  0  0  0  0
   63.3930   34.4500   51.1890 C   0  0  0  0  0  0  0  0  0  0  0  0
   63.3595   34.3414   52.2831 H   0  0  0  0  0  0  0  0  0  0  0  0
   64.4145   34.7142   50.8779 H   0  0  0  0  0  0  0  0  0  0  0  0
   62.6980   35.2439   50.8779 H   0  0  0  0  0  0  0  0  0  0  0  0
   61.9300   33.3710   49.4320 C   0  0  0  0  0  0  0  0  0  0  0  0
   61.1988   32.5497   49.4043 H   0  0  0  0  0  0  0  0  0  0  0  0
   61.3652   34.2970   49.6150 H   0  0  0  0  0  0  0  0  0  0  0  0
   60.3660   31.9170   46.6670 C   0  0  0  0  0  0  0  0  0  0  0  0
   61.1406   31.1825   46.9327 H   0  0  0  0  0  0  0  0  0  0  0  0
  1  2  1  0
  2  3  1  0
  2  4  2  0
  4  5  1  0
  5  6  2  0
  6  7  1  0
  6  8  1  0
  8  9  1  0
  9 10  1  0
 10 11  2  0
 10 12  1  0
 12 13  1  0
 13 14  1  0
  5 15  1  0
 15 16  1  0
 15 17  2  0
 17 18  1  0
 18 19  1  0
 18 20  1  0
 18 21  1  0
 17 22  1  0
 22 23  1  0
 23 24  2  0
 24 25  1  0
 24 26  1  0
 26 27  1  0
 26 28  2  0
 28 29  1  0
 29 30  1  0
 29 31  1  0
 29 32  1  0
 28 33  1  0
 33 34  1  0
 34 35  2  0
 34 36  1  0
 36 37  1  0
 37 38  1  0
 37 39  1  0
 37 40  1  0
 40 41  1  0
 40 42  1  0
 40 43  1  0
 43 44  1  0
 44 45  1  0
 44 46  1  0
 44 47  1  0
 43 48  1  0
 48 49  1  0
 48 50  1  0
 48 51  1  0
 43 52  1  0
 52 53  1  0
 52 54  1  0
 33 55  2  0
 55 56  1  0
 22  4  1  0
 55 23  1  0
 13  8  2  0
 52 36  1  0
M  CHG  3   9  -1  12  -1  14  -1
M  END
>  <UniqueID>  (42) 
39

>  <SMILES>  (42) 
C=c1/c(=C/c2[n-]c(=O)[n-]c2[O-])cc(C)n1-c1ccc(C)c(C(=O)N2CCC(C)(C)C2)c1

>  <Energy>  (42) 
133.77133856627955

>  <Genealogy>  (42) 
C=c1c(=Cc2[n-]c(=O)[n-]c2[O-])cc(C)n1-c1ccc(C)c(C(=O)N2CCC(C)(C)C2)c1 (protonated)
C=c1/c(=C/c2[n-]c(=O)[n-]c2[O-])cc(C)n1-c1ccc(C)c(C(=O)N2CCC(C)(C)C2)c1 (cis-trans isomerization)
C=c1/c(=C/c2[n-]c(=O)[n-]c2[O-])cc(C)n1-c1ccc(C)c(C(=O)N2CCC(C)(C)C2)c1 (3D coordinates assigned)
C=c1/c(=C/c2[n-]c(=O)[n-]c2[O-])cc(C)n1-c1ccc(C)c(C(=O)N2CCC(C)(C)C2)c1 (nonaromatic ring conformer: 133.77133856627955 kcal/mol)

>  <smiles>  (42) 
C=c1c(=Cc2[nH]c(=O)[nH]c2O)cc(C)n1-c1ccc(C)c(C(=O)N2CCC(C)(C)C2)c1

>  <score_type>  (42) 
oracle

>  <origin>  (42) 
adg

>  <m_score__min__energy>  (42) 
-17.09

>  <m_primary>  (42) 
energy

$$$$
42:0
     RDKit          3D

 50 52  0  0  0  0  0  0  0  0999 V2000
   63.1530   33.9610   46.3620 C   0  0  0  0  0  0  0  0  0  0  0  0
   63.2320   32.7680   47.3230 C   0  0  0  0  0  0  0  0  0  0  0  0
   61.9110   32.4170   47.9080 N   0  0  2  0  0  0  0  0  0  0  0  0
   61.5970   33.2550   49.1000 C   0  0  0  0  0  0  0  0  0  0  0  0
   60.4490   34.2900   48.9300 C   0  0  0  0  0  0  0  0  0  0  0  0
   59.4520   33.8950   47.9060 N   0  0  0  0  0  0  0  0  0  0  0  0
   59.2390   34.6330   46.7550 C   0  0  0  0  0  0  0  0  0  0  0  0
   60.0310   35.7830   46.4180 N   0  0  0  0  0  0  0  0  0  0  0  0
   58.2220   34.2630   45.8680 C   0  0  0  0  0  0  0  0  0  0  0  0
   57.4830   33.1170   46.1250 C   0  0  0  0  0  0  0  0  0  0  0  0
   56.5660   32.7610   45.3380 O   0  0  0  0  0  0  0  0  0  0  0  0
   57.7600   32.3740   47.2180 N   0  0  0  0  0  0  0  0  0  0  0  0
   58.7300   32.7360   48.0950 C   0  0  0  0  0  0  0  0  0  0  0  0
   58.9620   31.9840   49.0810 O   0  0  0  0  0  0  0  0  0  0  0  0
   61.8040   30.9580   48.1600 C   0  0  0  0  0  0  0  0  0  0  0  0
   60.7330   30.2960   47.3360 C   0  0  0  0  0  0  0  0  0  0  0  0
   60.3550   28.9750   47.4170 C   0  0  0  0  0  0  0  0  0  0  0  0
   59.4430   28.7720   46.5000 O   0  0  0  0  0  0  0  0  0  0  0  0
   59.2690   29.9100   45.8630 C   0  0  0  0  0  0  0  0  0  0  0  0
   58.3110   30.0880   44.7520 C   0  0  0  0  0  0  0  0  0  0  0  0
   57.1940   29.2450   44.6430 C   0  0  0  0  0  0  0  0  0  0  0  0
   56.2870   29.4060   43.5920 C   0  0  0  0  0  0  0  0  0  0  0  0
   56.4830   30.4130   42.6440 C   0  0  0  0  0  0  0  0  0  0  0  0
   57.5840   31.2750   42.7480 C   0  0  0  0  0  0  0  0  0  0  0  0
   57.8150   32.3310   41.7070 C   0  0  0  0  0  0  0  0  0  0  0  0
   58.5040   31.0990   43.7940 C   0  0  0  0  0  0  0  0  0  0  0  0
   60.0630   30.8960   46.3350 N   0  0  0  0  0  0  0  0  0  0  0  0
   63.0912   34.8945   46.9406 H   0  0  0  0  0  0  0  0  0  0  0  0
   64.0518   33.9814   45.7281 H   0  0  0  0  0  0  0  0  0  0  0  0
   62.2594   33.8627   45.7281 H   0  0  0  0  0  0  0  0  0  0  0  0
   63.6162   31.8967   46.7723 H   0  0  0  0  0  0  0  0  0  0  0  0
   63.8987   33.0506   48.1510 H   0  0  0  0  0  0  0  0  0  0  0  0
   61.1790   32.6590   47.1970 H   0  0  0  0  0  0  0  0  0  0  0  0
   61.3197   32.5785   49.9219 H   0  0  0  0  0  0  0  0  0  0  0  0
   62.5032   33.8496   49.2881 H   0  0  0  0  0  0  0  0  0  0  0  0
   59.9332   34.4014   49.8952 H   0  0  0  0  0  0  0  0  0  0  0  0
   60.9062   35.2324   48.5940 H   0  0  0  0  0  0  0  0  0  0  0  0
   59.7420   36.7290   46.7550 H   0  0  0  0  0  0  0  0  0  0  0  0
   60.7640   35.7670   45.6790 H   0  0  0  0  0  0  0  0  0  0  0  0
   58.0108   34.8733   44.9776 H   0  0  0  0  0  0  0  0  0  0  0  0
   62.7700   30.4892   47.9211 H   0  0  0  0  0  0  0  0  0  0  0  0
   61.5339   30.8258   49.2181 H   0  0  0  0  0  0  0  0  0  0  0  0
   60.7470   28.2275   48.1224 H   0  0  0  0  0  0  0  0  0  0  0  0
   57.0316   28.4531   45.3891 H   0  0  0  0  0  0  0  0  0  0  0  0
   55.4167   28.7381   43.5111 H   0  0  0  0  0  0  0  0  0  0  0  0
   55.7715   30.5301   41.8133 H   0  0  0  0  0  0  0  0  0  0  0  0
   58.0252   33.2918   42.1997 H   0  0  0  0  0  0  0  0  0  0  0  0
   58.6720   32.0457   41.0791 H   0  0  0  0  0  0  0  0  0  0  0  0
   56.9172   32.4296   41.0791 H   0  0  0  0  0  0  0  0  0  0  0  0
   59.3826   31.7571   43.8646 H   0  0  0  0  0  0  0  0  0  0  0  0
  1  2  1  0
  2  3  1  0
  3  4  1  0
  4  5  1  0
  5  6  1  0
  6  7  1  0
  7  8  1  0
  7  9  2  0
  9 10  1  0
 10 11  2  0
 10 12  1  0
 12 13  1  0
 13 14  2  0
  3 15  1  0
 15 16  1  0
 16 17  2  0
 17 18  1  0
 18 19  1  0
 19 20  1  0
 20 21  2  0
 21 22  1  0
 22 23  2  0
 23 24  1  0
 24 25  1  0
 24 26  2  0
 19 27  2  0
 13  6  1  0
 27 16  1  0
 26 20  1  0
  1 28  1  0
  1 29  1  0
  1 30  1  0
  2 31  1  0
  2 32  1  0
  3 33  1  6
  4 34  1  0
  4 35  1  0
  5 36  1  0
  5 37  1  0
  8 38  1  0
  8 39  1  0
  9 40  1  0
 15 41  1  0
 15 42  1  0
 17 43  1  0
 21 44  1  0
 22 45  1  0
 23 46  1  0
 25 47  1  0
 25 48  1  0
 25 49  1  0
 26 50  1  0
M  CHG  2   3   1  12  -1
M  END
>  <UniqueID>  (43) 
40

>  <SMILES>  (43) 
CC[N@H+](CCn1c(N)cc(=O)[n-]c1=O)Cc1coc(-c2cccc(C)c2)n1

>  <Energy>  (43) 
93.39915509300583

>  <Genealogy>  (43) 
CC[NH+](CCn1c(N)cc(=O)[n-]c1=O)Cc1coc(-c2cccc(C)c2)n1 (protonated)
CC[N@H+](CCn1c(N)cc(=O)[n-]c1=O)Cc1coc(-c2cccc(C)c2)n1 (chirality)
CC[N@H+](CCn1c(N)cc(=O)[n-]c1=O)Cc1coc(-c2cccc(C)c2)n1 (3D coordinates assigned)
CC[N@H+](CCn1c(N)cc(=O)[n-]c1=O)Cc1coc(-c2cccc(C)c2)n1 (optimized conformer: 93.39915509300583 kcal/mol)

>  <smiles>  (43) 
CCN(CCn1c(N)cc(=O)[nH]c1=O)Cc1coc(-c2cccc(C)c2)n1

>  <score_type>  (43) 
oracle

>  <origin>  (43) 
adg

>  <m_score__min__energy>  (43) 
-8.3300000000000001

>  <m_primary>  (43) 
energy

$$$$
43:0
     RDKit          3D

 56 60  0  0  0  0  0  0  0  0999 V2000
   60.5923   31.0607   47.7224 H   0  0  0  0  0  0  0  0  0  0  0  0
   60.0610   30.3890   47.0320 C   0  0  0  0  0  0  0  0  0  0  0  0
   59.6586   30.7793   46.0856 H   0  0  0  0  0  0  0  0  0  0  0  0
   59.9040   29.0950   47.3440 C   0  0  0  0  0  0  0  0  0  0  0  0
   59.2610   28.1110   46.5890 C   0  0  0  0  0  0  0  0  0  0  0  0
   58.6410   28.2730   45.4060 C   0  0  0  0  0  0  0  0  0  0  0  0
   58.7536   27.4787   44.6534 H   0  0  0  0  0  0  0  0  0  0  0  0
   57.8190   29.4480   45.0520 C   0  0  0  0  0  0  0  0  0  0  0  0
   58.3590   30.6210   44.6830 N   0  0  0  0  0  0  0  0  0  0  0  0
   57.2940   31.4200   44.4510 C   0  0  0  0  0  0  0  0  0  0  0  0
   57.4220   32.8600   44.0530 C   0  0  0  0  0  0  0  0  0  0  0  0
   58.3904   33.0063   43.5522 H   0  0  0  0  0  0  0  0  0  0  0  0
   56.5877   33.1041   43.3790 H   0  0  0  0  0  0  0  0  0  0  0  0
   57.3440   33.7970   45.2690 C   0  0  0  0  0  0  0  0  0  0  0  0
   57.2384   34.8328   44.9141 H   0  0  0  0  0  0  0  0  0  0  0  0
   56.4777   33.4968   45.8767 H   0  0  0  0  0  0  0  0  0  0  0  0
   58.5770   33.7000   46.1310 C   0  0  0  0  0  0  0  0  0  0  0  0
   59.8530   33.8800   45.5760 C   0  0  0  0  0  0  0  0  0  0  0  0
   59.9604   34.0379   44.4927 H   0  0  0  0  0  0  0  0  0  0  0  0
   60.9890   33.8600   46.3910 C   0  0  0  0  0  0  0  0  0  0  0  0
   61.9842   34.0018   45.9444 H   0  0  0  0  0  0  0  0  0  0  0  0
   60.8680   33.6600   47.7770 C   0  0  0  0  0  0  0  0  0  0  0  0
   62.0660   33.6650   48.6470 C   0  0  0  0  0  0  0  0  0  0  0  0
   63.1920   32.9780   48.3580 N   0  0  0  0  0  0  0  0  0  0  0  0
   64.0110   33.2410   49.3910 C   0  0  0  0  0  0  0  0  0  0  0  0
   65.0325   32.8507   49.5099 H   0  0  0  0  0  0  0  0  0  0  0  0
   63.3700   34.0740   50.2740 C   0  0  0  0  0  0  0  0  0  0  0  0
   63.7973   34.4577   51.2122 H   0  0  0  0  0  0  0  0  0  0  0  0
   62.1370   34.3470   49.8110 N   0  0  0  0  0  0  0  0  0  0  0  0
   59.5900   33.4680   48.3280 C   0  0  0  0  0  0  0  0  0  0  0  0
   59.4819   33.2990   49.4096 H   0  0  0  0  0  0  0  0  0  0  0  0
   58.4550   33.4900   47.5130 C   0  0  0  0  0  0  0  0  0  0  0  0
   57.4598   33.3418   47.9576 H   0  0  0  0  0  0  0  0  0  0  0  0
   56.1020   30.8110   44.6330 N   0  0  0  0  0  0  0  0  0  0  0  0
   56.4450   29.5660   44.9970 C   0  0  0  0  0  0  0  0  0  0  0  0
   55.5200   28.5580   45.2240 O   0  0  0  0  0  0  0  0  0  0  0  0
   59.3070   26.9390   47.2580 N   0  0  0  0  0  0  0  0  0  0  0  0
   59.9830   27.2250   48.3860 C   0  0  0  0  0  0  0  0  0  0  0  0
   60.2370   26.3600   49.2650 O   0  0  0  0  0  0  0  0  0  0  0  0
   60.3590   28.5180   48.4810 N   0  0  0  0  0  0  0  0  0  0  0  0
   61.1250   29.1290   49.5750 C   0  0  0  0  0  0  0  0  0  0  0  0
   61.3852   28.3533   50.3103 H   0  0  0  0  0  0  0  0  0  0  0  0
   62.0365   29.5817   49.1576 H   0  0  0  0  0  0  0  0  0  0  0  0
   60.3190   30.2050   50.2560 C   0  0  0  0  0  0  0  0  0  0  0  0
   58.9160   30.1570   50.2450 C   0  0  0  0  0  0  0  0  0  0  0  0
   58.4022   29.3253   49.7407 H   0  0  0  0  0  0  0  0  0  0  0  0
   58.1670   31.1580   50.8700 C   0  0  0  0  0  0  0  0  0  0  0  0
   57.0684   31.1018   50.8654 H   0  0  0  0  0  0  0  0  0  0  0  0
   58.8090   32.2370   51.5050 C   0  0  0  0  0  0  0  0  0  0  0  0
   58.0220   33.3020   52.1650 C   0  0  0  0  0  0  0  0  0  0  0  0
   56.7930   33.1440   52.3880 O   0  0  0  0  0  0  0  0  0  0  0  0
   58.6280   34.4910   52.5520 O   0  0  0  0  0  0  0  0  0  0  0  0
   60.2120   32.2920   51.5000 C   0  0  0  0  0  0  0  0  0  0  0  0
   60.7267   33.1328   51.9880 H   0  0  0  0  0  0  0  0  0  0  0  0
   60.9600   31.2870   50.8800 C   0  0  0  0  0  0  0  0  0  0  0  0
   62.0585   31.3443   50.8810 H   0  0  0  0  0  0  0  0  0  0  0  0
  1  2  1  0
  2  3  1  0
  2  4  2  0
  4  5  1  0
  5  6  2  0
  6  7  1  0
  6  8  1  0
  8  9  1  0
  9 10  2  0
 10 11  1  0
 11 12  1  0
 11 13  1  0
 11 14  1  0
 14 15  1  0
 14 16  1  0
 14 17  1  0
 17 18  2  0
 18 19  1  0
 18 20  1  0
 20 21  1  0
 20 22  2  0
 22 23  1  0
 23 24  2  0
 24 25  1  0
 25 26  1  0
 25 27  2  0
 27 28  1  0
 27 29  1  0
 22 30  1  0
 30 31  1  0
 30 32  2  0
 32 33  1  0
 10 34  1  0
 34 35  1  0
 35 36  1  0
  5 37  1  0
 37 38  1  0
 38 39  2  0
 38 40  1  0
 40 41  1  0
 41 42  1  0
 41 43  1  0
 41 44  1  0
 44 45  2  0
 45 46  1  0
 45 47  1  0
 47 48  1  0
 47 49  2  0
 49 50  1  0
 50 51  2  0
 50 52  1  0
 49 53  1  0
 53 54  1  0
 53 55  2  0
 55 56  1  0
 40  4  1  0
 55 44  1  0
 35  8  2  0
 32 17  1  0
 29 23  1  0
M  CHG  5  29  -1  34  -1  36  -1  37  -1  52  -1
M  END
>  <UniqueID>  (44) 
41

>  <SMILES>  (44) 
C=c1/c(=C/c2nc(CCc3ccc(-c4ncc[n-]4)cc3)[n-]c2[O-])[n-]c(=O)n1Cc1ccc(C(=O)[O-])cc1

>  <Energy>  (44) 
153.8207210959933

>  <Genealogy>  (44) 
C=c1c(=Cc2nc(CCc3ccc(-c4ncc[n-]4)cc3)[n-]c2[O-])[n-]c(=O)n1Cc1ccc(C(=O)[O-])cc1 (protonated)
C=c1/c(=C/c2nc(CCc3ccc(-c4ncc[n-]4)cc3)[n-]c2[O-])[n-]c(=O)n1Cc1ccc(C(=O)[O-])cc1 (cis-trans isomerization)
C=c1/c(=C/c2nc(CCc3ccc(-c4ncc[n-]4)cc3)[n-]c2[O-])[n-]c(=O)n1Cc1ccc(C(=O)[O-])cc1 (3D coordinates assigned)
C=c1/c(=C/c2nc(CCc3ccc(-c4ncc[n-]4)cc3)[n-]c2[O-])[n-]c(=O)n1Cc1ccc(C(=O)[O-])cc1 (optimized conformer: 153.8207210959933 kcal/mol)

>  <smiles>  (44) 
C=c1c(=Cc2nc(CCc3ccc(-c4ncc[nH]4)cc3)[nH]c2O)[nH]c(=O)n1Cc1ccc(C(=O)O)cc1

>  <score_type>  (44) 
oracle

>  <origin>  (44) 
adg

>  <m_score__min__energy>  (44) 
-17.84

>  <m_primary>  (44) 
energy

$$$$
44:0
     RDKit          3D

 52 55  0  0  0  0  0  0  0  0999 V2000
   59.4463   31.8277   45.5549 H   0  0  0  0  0  0  0  0  0  0  0  0
   59.1810   30.7610   45.5960 C   0  0  0  0  0  0  0  0  0  0  0  0
   59.0632   30.1873   44.6649 H   0  0  0  0  0  0  0  0  0  0  0  0
   59.0010   30.1590   46.7830 C   0  0  0  0  0  0  0  0  0  0  0  0
   58.6630   28.8150   46.9800 C   0  0  0  0  0  0  0  0  0  0  0  0
   58.4140   27.8870   46.0350 C   0  0  0  0  0  0  0  0  0  0  0  0
   59.1491   27.7647   45.2259 H   0  0  0  0  0  0  0  0  0  0  0  0
   57.2170   27.0250   46.0180 C   0  0  0  0  0  0  0  0  0  0  0  0
   57.1990   25.7780   46.5180 N   0  0  0  0  0  0  0  0  0  0  0  0
   55.9100   25.4010   46.3780 C   0  0  0  0  0  0  0  0  0  0  0  0
   55.4940   24.2650   46.7280 O   0  0  0  0  0  0  0  0  0  0  0  0
   55.1000   26.3400   45.8430 N   0  0  0  0  0  0  0  0  0  0  0  0
   55.9390   27.3670   45.6320 C   0  0  0  0  0  0  0  0  0  0  0  0
   55.5320   28.6030   45.1450 O   0  0  0  0  0  0  0  0  0  0  0  0
   58.5780   28.6310   48.3520 C   0  0  0  0  0  0  0  0  0  0  0  0
   58.3323   27.6952   48.8753 H   0  0  0  0  0  0  0  0  0  0  0  0
   58.8610   29.8480   48.9320 C   0  0  0  0  0  0  0  0  0  0  0  0
   58.8930   30.0680   50.3900 C   0  0  0  0  0  0  0  0  0  0  0  0
   57.8100   30.3280   50.9840 O   0  0  0  0  0  0  0  0  0  0  0  0
   60.1440   30.0970   51.1160 N   0  0  0  0  0  0  0  0  0  0  0  0
   60.0860   29.4010   51.8950 H   0  0  0  0  0  0  0  0  0  0  0  0
   61.2370   29.6340   50.2240 C   0  0  0  0  0  0  0  0  0  0  0  0
   61.2315   28.5343   50.1977 H   0  0  0  0  0  0  0  0  0  0  0  0
   61.0610   30.0581   49.2244 H   0  0  0  0  0  0  0  0  0  0  0  0
   62.6130   30.1100   50.7030 C   0  0  0  0  0  0  0  0  0  0  0  0
   62.8160   29.6931   51.7005 H   0  0  0  0  0  0  0  0  0  0  0  0
   63.3810   29.7686   49.9933 H   0  0  0  0  0  0  0  0  0  0  0  0
   62.6390   31.5760   50.7740 N   0  0  0  0  0  0  0  0  0  0  0  0
   63.8900   32.2800   50.6280 C   0  0  0  0  0  0  0  0  0  0  0  0
   64.9790   31.6530   50.7370 O   0  0  0  0  0  0  0  0  0  0  0  0
   63.9340   33.7560   50.3700 C   0  0  0  0  0  0  0  0  0  0  0  0
   63.9501   34.2954   51.3285 H   0  0  0  0  0  0  0  0  0  0  0  0
   64.8398   34.0011   49.7961 H   0  0  0  0  0  0  0  0  0  0  0  0
   63.0444   34.0546   49.7961 H   0  0  0  0  0  0  0  0  0  0  0  0
   61.3740   32.3000   50.9560 C   0  0  0  0  0  0  0  0  0  0  0  0
   61.5634   33.2276   51.5160 H   0  0  0  0  0  0  0  0  0  0  0  0
   60.9508   32.5374   49.9688 H   0  0  0  0  0  0  0  0  0  0  0  0
   60.3740   31.4320   51.7350 C   0  0  0  0  0  0  0  0  0  0  0  0
   60.7613   31.2823   52.7536 H   0  0  0  0  0  0  0  0  0  0  0  0
   59.4105   31.9627   51.7312 H   0  0  0  0  0  0  0  0  0  0  0  0
   59.1330   30.7800   47.9860 N   0  0  0  0  0  0  0  0  0  0  0  0
   59.5760   32.1620   48.2380 C   0  0  0  0  0  0  0  0  0  0  0  0
   58.8720   32.8549   47.7540 H   0  0  0  0  0  0  0  0  0  0  0  0
   59.6016   32.3185   49.3265 H   0  0  0  0  0  0  0  0  0  0  0  0
   60.9570   32.4160   47.6980 C   0  0  0  0  0  0  0  0  0  0  0  0
   61.3620   33.6760   47.2670 C   0  0  0  0  0  0  0  0  0  0  0  0
   60.7397   34.5829   47.2501 H   0  0  0  0  0  0  0  0  0  0  0  0
   62.9660   33.5720   46.7770 S   0  0  0  0  0  0  0  0  0  0  0  0
   63.1740   31.9430   47.1250 C   0  0  0  0  0  0  0  0  0  0  0  0
   64.0977   31.3645   46.9762 H   0  0  0  0  0  0  0  0  0  0  0  0
   61.9790   31.4520   47.6330 C   0  0  0  0  0  0  0  0  0  0  0  0
   61.8443   30.4086   47.9540 H   0  0  0  0  0  0  0  0  0  0  0  0
  1  2  1  0
  2  3  1  0
  2  4  2  0
  4  5  1  0
  5  6  2  0
  6  7  1  0
  6  8  1  0
  8  9  1  0
  9 10  1  0
 10 11  2  0
 10 12  1  0
 12 13  1  0
 13 14  1  0
  5 15  1  0
 15 16  1  0
 15 17  2  0
 17 18  1  0
 18 19  2  0
 18 20  1  0
 20 21  1  0
 20 22  1  0
 22 23  1  0
 22 24  1  0
 22 25  1  0
 25 26  1  0
 25 27  1  0
 25 28  1  0
 28 29  1  0
 29 30  2  0
 29 31  1  0
 31 32  1  0
 31 33  1  0
 31 34  1  0
 28 35  1  0
 35 36  1  0
 35 37  1  0
 35 38  1  0
 38 39  1  0
 38 40  1  0
 17 41  1  0
 41 42  1  0
 42 43  1  0
 42 44  1  0
 42 45  1  0
 45 46  2  0
 46 47  1  0
 46 48  1  0
 48 49  1  0
 49 50  1  0
 49 51  2  0
 51 52  1  0
 41  4  1  0
 51 45  1  0
 13  8  2  0
 38 20  1  0
M  CHG  4   9  -1  12  -1  14  -1  20   1
M  END
>  <UniqueID>  (45) 
42

>  <SMILES>  (45) 
C=c1/c(=C/c2[n-]c(=O)[n-]c2[O-])cc(C(=O)[NH+]2CCN(C(C)=O)CC2)n1Cc1ccsc1

>  <Energy>  (45) 
157.73207061677277

>  <Genealogy>  (45) 
C=c1c(=Cc2[n-]c(=O)[n-]c2[O-])cc(C(=O)[NH+]2CCN(C(C)=O)CC2)n1Cc1ccsc1 (protonated)
C=c1/c(=C/c2[n-]c(=O)[n-]c2[O-])cc(C(=O)[NH+]2CCN(C(C)=O)CC2)n1Cc1ccsc1 (cis-trans isomerization)
C=c1/c(=C/c2[n-]c(=O)[n-]c2[O-])cc(C(=O)[NH+]2CCN(C(C)=O)CC2)n1Cc1ccsc1 (3D coordinates assigned)
C=c1/c(=C/c2[n-]c(=O)[n-]c2[O-])cc(C(=O)[NH+]2CCN(C(C)=O)CC2)n1Cc1ccsc1 (nonaromatic ring conformer: 157.73207061677277 kcal/mol)

>  <smiles>  (45) 
C=c1c(=Cc2[nH]c(=O)[nH]c2O)cc(C(=O)N2CCN(C(C)=O)CC2)n1Cc1ccsc1

>  <score_type>  (45) 
oracle

>  <origin>  (45) 
adg

>  <m_score__min__energy>  (45) 
-15.4

>  <m_primary>  (45) 
energy

$$$$
45:0
     RDKit          3D

 35 36  0  0  0  0  0  0  0  0999 V2000
   59.5310   35.3130   45.5530 C   0  0  0  0  0  0  0  0  0  0  0  0
   60.1780   34.7970   46.5980 C   0  0  0  0  0  0  0  0  0  0  0  0
   60.1460   33.3520   46.9350 C   0  0  0  0  0  0  0  0  0  0  0  0
   58.9450   32.6310   46.7820 C   0  0  0  0  0  0  0  0  0  0  0  0
   58.9030   31.2550   47.0000 C   0  0  0  0  0  0  0  0  0  0  0  0
   60.0630   30.5610   47.3600 C   0  0  0  0  0  0  0  0  0  0  0  0
   60.0200   29.0780   47.6150 C   0  0  0  0  0  0  0  0  0  0  0  0
   58.8290   28.4940   47.0000 N   0  0  0  0  0  0  0  0  0  0  0  0
   58.7570   28.1870   45.6010 C   0  0  0  0  0  0  0  0  0  0  0  0
   59.7580   28.3680   44.8560 O   0  0  0  0  0  0  0  0  0  0  0  0
   57.5060   27.6000   45.0230 C   0  0  0  0  0  0  0  0  0  0  0  0
   57.1680   26.3240   45.7270 C   0  0  0  0  0  0  0  0  0  0  0  0
   58.2800   25.1420   46.1780 S   0  0  0  0  0  0  0  0  0  0  0  0
   57.1030   24.2060   46.9300 C   0  0  0  0  0  0  0  0  0  0  0  0
   57.3290   23.1060   47.4980 O   0  0  0  0  0  0  0  0  0  0  0  0
   55.8760   24.7620   46.8660 N   0  0  0  0  0  0  0  0  0  0  0  0
   55.9120   25.9460   46.2010 C   0  0  0  0  0  0  0  0  0  0  0  0
   54.7700   26.7150   46.0170 O   0  0  0  0  0  0  0  0  0  0  0  0
   61.2640   31.2640   47.5190 C   0  0  0  0  0  0  0  0  0  0  0  0
   61.3250   32.6550   47.3180 C   0  0  0  0  0  0  0  0  0  0  0  0
   62.6170   33.3440   47.5640 C   0  0  0  0  0  0  0  0  0  0  0  0
   63.7270   33.1130   46.6990 N   0  0  0  0  0  0  0  0  0  0  0  0
   62.7600   34.1090   48.5560 O   0  0  0  0  0  0  0  0  0  0  0  0
   59.5886   36.3923   45.3487 H   0  0  0  0  0  0  0  0  0  0  0  0
   58.9394   34.6595   44.8950 H   0  0  0  0  0  0  0  0  0  0  0  0
   60.7622   35.4729   47.2397 H   0  0  0  0  0  0  0  0  0  0  0  0
   58.0278   33.1615   46.4864 H   0  0  0  0  0  0  0  0  0  0  0  0
   57.9529   30.7120   46.8884 H   0  0  0  0  0  0  0  0  0  0  0  0
   60.9177   28.6093   47.1854 H   0  0  0  0  0  0  0  0  0  0  0  0
   59.9868   28.9013   48.7002 H   0  0  0  0  0  0  0  0  0  0  0  0
   58.0050   28.2900   47.6080 H   0  0  0  0  0  0  0  0  0  0  0  0
   56.6782   28.3140   45.1452 H   0  0  0  0  0  0  0  0  0  0  0  0
   57.6643   27.3923   43.9544 H   0  0  0  0  0  0  0  0  0  0  0  0
   62.1753   30.7189   47.8060 H   0  0  0  0  0  0  0  0  0  0  0  0
   64.5080   32.4810   46.9850 H   0  0  0  0  0  0  0  0  0  0  0  0
  1  2  2  0
  2  3  1  0
  3  4  2  0
  4  5  1  0
  5  6  2  0
  6  7  1  0
  7  8  1  0
  8  9  1  0
  9 10  2  0
  9 11  1  0
 11 12  1  0
 12 13  1  0
 13 14  1  0
 14 15  2  0
 14 16  1  0
 16 17  1  0
 17 18  1  0
  6 19  1  0
 19 20  2  0
 20 21  1  0
 21 22  1  0
 21 23  2  0
 20  3  1  0
 17 12  2  0
  1 24  1  0
  1 25  1  0
  2 26  1  0
  4 27  1  0
  5 28  1  0
  7 29  1  0
  7 30  1  0
  8 31  1  0
 11 32  1  0
 11 33  1  0
 19 34  1  0
 22 35  1  0
M  CHG  3  16  -1  18  -1  22  -1
M  END
>  <UniqueID>  (46) 
43

>  <SMILES>  (46) 
C=Cc1ccc(CNC(=O)Cc2sc(=O)[n-]c2[O-])cc1C([NH-])=O

>  <Energy>  (46) 
68.05763473283989

>  <Genealogy>  (46) 
C=Cc1ccc(CNC(=O)Cc2sc(=O)[n-]c2[O-])cc1C([NH-])=O (protonated)
C=Cc1ccc(CNC(=O)Cc2sc(=O)[n-]c2[O-])cc1C([NH-])=O (3D coordinates assigned)
C=Cc1ccc(CNC(=O)Cc2sc(=O)[n-]c2[O-])cc1C([NH-])=O (optimized conformer: 68.05763473283989 kcal/mol)

>  <smiles>  (46) 
C=Cc1ccc(CNC(=O)Cc2sc(=O)[nH]c2O)cc1C(N)=O

>  <score_type>  (46) 
oracle

>  <origin>  (46) 
adg

>  <m_score__min__energy>  (46) 
-15.48

>  <m_primary>  (46) 
energy

$$$$
46:0
     RDKit          3D

 61 64  0  0  0  0  0  0  0  0999 V2000
   59.8870   27.0840   48.2990 C   0  0  0  0  0  0  0  0  0  0  0  0
   59.7650   28.2550   47.6500 C   0  0  0  0  0  0  0  0  0  0  0  0
   59.2240   28.4530   46.3670 C   0  0  0  0  0  0  0  0  0  0  0  0
   58.5630   27.6140   45.5440 C   0  0  0  0  0  0  0  0  0  0  0  0
   57.3300   26.8850   45.8720 C   0  0  0  0  0  0  0  0  0  0  0  0
   57.3160   25.6160   46.3130 N   0  0  0  0  0  0  0  0  0  0  0  0
   56.0000   25.3240   46.3880 C   0  0  0  0  0  0  0  0  0  0  0  0
   55.5730   24.2100   46.7840 O   0  0  0  0  0  0  0  0  0  0  0  0
   55.1760   26.3190   45.9980 N   0  0  0  0  0  0  0  0  0  0  0  0
   56.0310   27.3000   45.6600 C   0  0  0  0  0  0  0  0  0  0  0  0
   55.6220   28.5280   45.1460 O   0  0  0  0  0  0  0  0  0  0  0  0
   59.4410   29.7810   46.0520 C   0  0  0  0  0  0  0  0  0  0  0  0
   60.0390   30.3560   47.1510 C   0  0  0  0  0  0  0  0  0  0  0  0
   60.3370   31.7920   47.2770 C   0  0  0  0  0  0  0  0  0  0  0  0
   59.4170   32.6180   47.0210 O   0  0  0  0  0  0  0  0  0  0  0  0
   61.6400   32.2680   47.6790 N   0  0  0  0  0  0  0  0  0  0  0  0
   62.8220   31.3910   47.6640 C   0  0  0  0  0  0  0  0  0  0  0  0
   63.7510   31.6800   48.8620 C   0  0  0  0  0  0  0  0  0  0  0  0
   63.6200   33.0580   49.4020 N   0  0  0  0  0  0  0  0  0  0  0  0
   64.8490   33.4890   50.1070 C   0  0  0  0  0  0  0  0  0  0  0  0
   65.6210   32.2890   50.6920 C   0  0  0  0  0  0  0  0  0  0  0  0
   67.1390   32.4040   50.4870 C   0  0  0  0  0  0  0  0  0  0  0  0
   67.6370   33.8030   50.8420 C   0  0  0  0  0  0  0  0  0  0  0  0
   63.2570   34.0190   48.3460 C   0  0  0  0  0  0  0  0  0  0  0  0
   61.8380   33.7110   47.8640 C   0  0  0  0  0  0  0  0  0  0  0  0
   60.2500   29.4370   48.1210 N   0  0  0  0  0  0  0  0  0  0  0  0
   60.7780   29.7430   49.4610 C   0  0  0  0  0  0  0  0  0  0  0  0
   59.8230   30.6330   50.1990 C   0  0  0  0  0  0  0  0  0  0  0  0
   58.5660   30.1590   50.6020 C   0  0  0  0  0  0  0  0  0  0  0  0
   57.6790   31.0250   51.2420 C   0  0  0  0  0  0  0  0  0  0  0  0
   58.0490   32.3520   51.4730 C   0  0  0  0  0  0  0  0  0  0  0  0
   59.3090   32.7920   51.0590 C   0  0  0  0  0  0  0  0  0  0  0  0
   60.1570   31.9320   50.4330 N   0  0  0  0  0  0  0  0  0  0  0  0
   60.3296   27.0566   49.3057 H   0  0  0  0  0  0  0  0  0  0  0  0
   59.5442   26.1533   47.8234 H   0  0  0  0  0  0  0  0  0  0  0  0
   58.9836   27.4619   44.5390 H   0  0  0  0  0  0  0  0  0  0  0  0
   54.7610   28.9700   45.4460 H   0  0  0  0  0  0  0  0  0  0  0  0
   59.1855   30.2817   45.1065 H   0  0  0  0  0  0  0  0  0  0  0  0
   62.4911   30.3431   47.7120 H   0  0  0  0  0  0  0  0  0  0  0  0
   63.3827   31.5804   46.7368 H   0  0  0  0  0  0  0  0  0  0  0  0
   63.5124   30.9681   49.6659 H   0  0  0  0  0  0  0  0  0  0  0  0
   64.7842   31.5741   48.4998 H   0  0  0  0  0  0  0  0  0  0  0  0
   65.5000   34.0198   49.3967 H   0  0  0  0  0  0  0  0  0  0  0  0
   64.5549   34.1462   50.9387 H   0  0  0  0  0  0  0  0  0  0  0  0
   65.4150   32.2302   51.7709 H   0  0  0  0  0  0  0  0  0  0  0  0
   65.2818   31.3860   50.1634 H   0  0  0  0  0  0  0  0  0  0  0  0
   67.6451   31.6686   51.1297 H   0  0  0  0  0  0  0  0  0  0  0  0
   67.3642   32.2113   49.4277 H   0  0  0  0  0  0  0  0  0  0  0  0
   67.6757   33.9118   51.9359 H   0  0  0  0  0  0  0  0  0  0  0  0
   68.6432   33.9514   50.4229 H   0  0  0  0  0  0  0  0  0  0  0  0
   66.9509   34.5538   50.4229 H   0  0  0  0  0  0  0  0  0  0  0  0
   63.2968   35.0422   48.7480 H   0  0  0  0  0  0  0  0  0  0  0  0
   63.9628   33.9353   47.5064 H   0  0  0  0  0  0  0  0  0  0  0  0
   61.1182   34.0789   48.6100 H   0  0  0  0  0  0  0  0  0  0  0  0
   61.6837   34.2100   46.8959 H   0  0  0  0  0  0  0  0  0  0  0  0
   60.9108   28.8065   50.0225 H   0  0  0  0  0  0  0  0  0  0  0  0
   61.7448   30.2577   49.3587 H   0  0  0  0  0  0  0  0  0  0  0  0
   58.2818   29.1129   50.4150 H   0  0  0  0  0  0  0  0  0  0  0  0
   56.6911   30.6638   51.5638 H   0  0  0  0  0  0  0  0  0  0  0  0
   57.3561   33.0431   51.9753 H   0  0  0  0  0  0  0  0  0  0  0  0
   59.6150   33.8331   51.2392 H   0  0  0  0  0  0  0  0  0  0  0  0
  1  2  2  0
  2  3  1  0
  3  4  2  3
  4  5  1  0
  5  6  1  0
  6  7  1  0
  7  8  2  0
  7  9  1  0
  9 10  1  0
 10 11  1  0
  3 12  1  0
 12 13  2  0
 13 14  1  0
 14 15  2  0
 14 16  1  0
 16 17  1  0
 17 18  1  0
 18 19  1  0
 19 20  1  0
 20 21  1  0
 21 22  1  0
 22 23  1  0
 19 24  1  0
 24 25  1  0
 13 26  1  0
 26 27  1  0
 27 28  1  0
 28 29  2  0
 29 30  1  0
 30 31  2  0
 31 32  1  0
 32 33  2  0
 26  2  1  0
 33 28  1  0
 10  5  2  0
 25 16  1  0
  1 34  1  0
  1 35  1  0
  4 36  1  0
 11 37  1  0
 12 38  1  0
 17 39  1  0
 17 40  1  0
 18 41  1  0
 18 42  1  0
 20 43  1  0
 20 44  1  0
 21 45  1  0
 21 46  1  0
 22 47  1  0
 22 48  1  0
 23 49  1  0
 23 50  1  0
 23 51  1  0
 24 52  1  0
 24 53  1  0
 25 54  1  0
 25 55  1  0
 27 56  1  0
 27 57  1  0
 29 58  1  0
 30 59  1  0
 31 60  1  0
 32 61  1  0
M  CHG  2   6  -1   9  -1
M  END
>  <UniqueID>  (47) 
44

>  <SMILES>  (47) 
C=c1c(=Cc2[n-]c(=O)[n-]c2O)cc(C(=O)N2CCN(CCCC)CC2)n1Cc1ccccn1

>  <Energy>  (47) 
140.74210400633584

>  <Genealogy>  (47) 
C=c1c(=Cc2[n-]c(=O)[n-]c2O)cc(C(=O)N2CCN(CCCC)CC2)n1Cc1ccccn1 (protonated)
C=c1c(=Cc2[n-]c(=O)[n-]c2O)cc(C(=O)N2CCN(CCCC)CC2)n1Cc1ccccn1 (3D coordinates assigned)
C=c1c(=Cc2[n-]c(=O)[n-]c2O)cc(C(=O)N2CCN(CCCC)CC2)n1Cc1ccccn1 (nonaromatic ring conformer: 140.74210400633584 kcal/mol)

>  <smiles>  (47) 
C=c1c(=Cc2[nH]c(=O)[nH]c2O)cc(C(=O)N2CCN(CCCC)CC2)n1Cc1ccccn1

>  <score_type>  (47) 
oracle

>  <origin>  (47) 
adg

>  <m_score__min__energy>  (47) 
-13.15

>  <m_primary>  (47) 
energy

$$$$
47:0
     RDKit          3D

 54 56  0  0  0  0  0  0  0  0999 V2000
   54.4800   29.6040   45.5710 H   0  0  0  0  0  0  0  0  0  0  0  0
   55.1680   29.4000   44.8120 N   0  0  0  0  0  0  0  0  0  0  0  0
   56.4710   29.9770   44.8330 C   0  0  0  0  0  0  0  0  0  0  0  0
   56.6300   31.1720   44.4670 O   0  0  0  0  0  0  0  0  0  0  0  0
   57.5870   29.1890   45.2660 N   0  0  0  0  0  0  0  0  0  0  0  0
   57.4230   28.1900   45.5210 H   0  0  0  0  0  0  0  0  0  0  0  0
   58.9630   29.6820   45.2460 C   0  0  0  0  0  0  0  0  0  0  0  0
   59.0149   30.5777   44.6096 H   0  0  0  0  0  0  0  0  0  0  0  0
   59.6136   28.8888   44.8491 H   0  0  0  0  0  0  0  0  0  0  0  0
   59.4380   30.0420   46.6570 C   0  0  0  0  0  0  0  0  0  0  0  0
   60.4677   29.6787   46.7904 H   0  0  0  0  0  0  0  0  0  0  0  0
   58.7573   29.5689   47.3800 H   0  0  0  0  0  0  0  0  0  0  0  0
   59.4110   31.5290   46.8890 C   0  0  0  0  0  0  0  0  0  0  0  0
   59.0150   32.4590   45.9470 C   0  0  0  0  0  0  0  0  0  0  0  0
   58.6095   32.2712   44.9419 H   0  0  0  0  0  0  0  0  0  0  0  0
   59.2440   33.6770   46.5540 C   0  0  0  0  0  0  0  0  0  0  0  0
   59.0550   35.0150   45.9210 C   0  0  0  0  0  0  0  0  0  0  0  0
   58.9470   35.7794   46.7046 H   0  0  0  0  0  0  0  0  0  0  0  0
   59.9286   35.2516   45.2959 H   0  0  0  0  0  0  0  0  0  0  0  0
   58.1500   35.0003   45.2959 H   0  0  0  0  0  0  0  0  0  0  0  0
   59.7760   33.4930   47.7770 N   0  0  0  0  0  0  0  0  0  0  0  0
   59.8690   32.1880   47.9820 N   0  0  0  0  0  0  0  0  0  0  0  0
   60.4180   31.6250   49.2170 C   0  0  0  0  0  0  0  0  0  0  0  0
   61.1248   32.3412   49.6614 H   0  0  0  0  0  0  0  0  0  0  0  0
   60.9377   30.6836   48.9854 H   0  0  0  0  0  0  0  0  0  0  0  0
   59.3060   31.3490   50.1950 C   0  0  0  0  0  0  0  0  0  0  0  0
   58.6980   32.4160   50.8730 C   0  0  0  0  0  0  0  0  0  0  0  0
   59.0514   33.4435   50.7020 H   0  0  0  0  0  0  0  0  0  0  0  0
   57.6480   32.1840   51.7630 C   0  0  0  0  0  0  0  0  0  0  0  0
   57.1733   33.0298   52.2819 H   0  0  0  0  0  0  0  0  0  0  0  0
   57.1950   30.8770   51.9990 C   0  0  0  0  0  0  0  0  0  0  0  0
   56.0680   30.6060   52.9190 C   0  0  0  0  0  0  0  0  0  0  0  0
   56.2066   30.8669   53.9786 H   0  0  0  0  0  0  0  0  0  0  0  0
   54.8890   30.0670   52.5650 C   0  0  0  0  0  0  0  0  0  0  0  0
   54.8716   28.9892   52.3459 H   0  0  0  0  0  0  0  0  0  0  0  0
   53.6130   30.8050   52.4460 C   0  0  0  0  0  0  0  0  0  0  0  0
   52.7180   30.9080   53.5280 C   0  0  0  0  0  0  0  0  0  0  0  0
   52.9725   30.4492   54.4948 H   0  0  0  0  0  0  0  0  0  0  0  0
   51.5070   31.5910   53.3790 C   0  0  0  0  0  0  0  0  0  0  0  0
   50.8189   31.6821   54.2324 H   0  0  0  0  0  0  0  0  0  0  0  0
   51.1700   32.1580   52.1470 C   0  0  0  0  0  0  0  0  0  0  0  0
   49.9660   32.8390   52.0010 O   0  0  0  0  0  0  0  0  0  0  0  0
   52.0410   32.0360   51.0600 C   0  0  0  0  0  0  0  0  0  0  0  0
   51.7725   32.4771   50.0887 H   0  0  0  0  0  0  0  0  0  0  0  0
   53.2530   31.3540   51.2060 C   0  0  0  0  0  0  0  0  0  0  0  0
   53.9279   31.2473   50.3439 H   0  0  0  0  0  0  0  0  0  0  0  0
   57.7680   29.8130   51.2890 C   0  0  0  0  0  0  0  0  0  0  0  0
   57.3864   28.7920   51.4371 H   0  0  0  0  0  0  0  0  0  0  0  0
   58.8270   30.0370   50.3880 C   0  0  0  0  0  0  0  0  0  0  0  0
   59.4210   28.9870   49.6690 O   0  0  0  0  0  0  0  0  0  0  0  0
   60.5700   28.2610   50.0940 C   0  0  0  0  0  0  0  0  0  0  0  0
   60.6042   28.2394   51.1933 H   0  0  0  0  0  0  0  0  0  0  0  0
   60.5169   27.2321   49.7085 H   0  0  0  0  0  0  0  0  0  0  0  0
   61.4764   28.7507   49.7085 H   0  0  0  0  0  0  0  0  0  0  0  0
  1  2  1  0
  2  3  1  0
  3  4  2  0
  3  5  1  0
  5  6  1  0
  5  7  1  0
  7  8  1  0
  7  9  1  0
  7 10  1  0
 10 11  1  0
 10 12  1  0
 10 13  1  0
 13 14  2  0
 14 15  1  0
 14 16  1  0
 16 17  1  0
 17 18  1  0
 17 19  1  0
 17 20  1  0
 16 21  2  0
 21 22  1  0
 22 23  1  0
 23 24  1  0
 23 25  1  0
 23 26  1  0
 26 27  2  0
 27 28  1  0
 27 29  1  0
 29 30  1  0
 29 31  2  0
 31 32  1  0
 32 33  1  0
 32 34  2  0
 34 35  1  0
 34 36  1  0
 36 37  2  0
 37 38  1  0
 37 39  1  0
 39 40  1  0
 39 41  2  0
 41 42  1  0
 41 43  1  0
 43 44  1  0
 43 45  2  0
 45 46  1  0
 31 47  1  0
 47 48  1  0
 47 49  2  0
 49 50  1  0
 50 51  1  0
 51 52  1  0
 51 53  1  0
 51 54  1  0
 22 13  1  0
 49 26  1  0
 45 36  1  0
M  CHG  2   2  -1  42  -1
M  END
>  <UniqueID>  (48) 
45

>  <SMILES>  (48) 
COc1cc(/C=C\c2ccc([O-])cc2)ccc1Cn1nc(C)cc1CCNC([NH-])=O

>  <Energy>  (48) 
86.27991226095125

>  <Genealogy>  (48) 
COc1cc(C=Cc2ccc([O-])cc2)ccc1Cn1nc(C)cc1CCNC([NH-])=O (protonated)
COc1cc(/C=C\c2ccc([O-])cc2)ccc1Cn1nc(C)cc1CCNC([NH-])=O (cis-trans isomerization)
COc1cc(/C=C\c2ccc([O-])cc2)ccc1Cn1nc(C)cc1CCNC([NH-])=O (3D coordinates assigned)
COc1cc(/C=C\c2ccc([O-])cc2)ccc1Cn1nc(C)cc1CCNC([NH-])=O (optimized conformer: 86.27991226095125 kcal/mol)

>  <smiles>  (48) 
COc1cc(C=Cc2ccc(O)cc2)ccc1Cn1nc(C)cc1CCNC(N)=O

>  <score_type>  (48) 
oracle

>  <origin>  (48) 
adg

>  <m_score__min__energy>  (48) 
-14.74

>  <m_primary>  (48) 
energy

$$$$
48:0
     RDKit          3D

 42 44  0  0  0  0  0  0  0  0999 V2000
   54.0000   23.2680   46.1210 C   0  0  0  0  0  0  0  0  0  0  0  0
   55.2670   23.5510   45.4350 N   0  0  0  0  0  0  0  0  0  0  0  0
   55.9270   22.5370   44.7980 C   0  0  0  0  0  0  0  0  0  0  0  0
   57.1280   22.7780   44.1340 C   0  0  0  0  0  0  0  0  0  0  0  0
   57.6550   24.0640   44.1140 C   0  0  0  0  0  0  0  0  0  0  0  0
   56.9830   25.1150   44.7540 C   0  0  0  0  0  0  0  0  0  0  0  0
   57.5630   26.4840   44.7330 C   0  0  0  0  0  0  0  0  0  0  0  0
   58.6110   26.7100   44.0700 O   0  0  0  0  0  0  0  0  0  0  0  0
   56.9560   27.5450   45.4910 N   0  0  0  0  0  0  0  0  0  0  0  0
   57.2000   28.9410   45.2460 C   0  0  0  0  0  0  0  0  0  0  0  0
   56.7750   29.5600   44.0630 C   0  0  0  0  0  0  0  0  0  0  0  0
   57.0030   30.9220   43.8590 C   0  0  0  0  0  0  0  0  0  0  0  0
   57.6730   31.7060   44.8200 C   0  0  0  0  0  0  0  0  0  0  0  0
   57.8490   33.1990   44.5060 C   0  0  1  0  0  0  0  0  0  0  0  0
   57.1610   34.2330   45.4310 C   0  0  0  0  0  0  0  0  0  0  0  0
   57.8110   34.2940   46.7450 N   0  0  0  0  0  0  0  0  0  0  0  0
   59.2440   34.5580   46.5810 C   0  0  0  0  0  0  0  0  0  0  0  0
   59.8780   33.5370   45.6260 C   0  0  0  0  0  0  0  0  0  0  0  0
   59.2240   33.5350   44.3680 O   0  0  0  0  0  0  0  0  0  0  0  0
   58.0470   31.0830   46.0380 C   0  0  0  0  0  0  0  0  0  0  0  0
   58.6270   31.7620   47.0540 F   0  0  0  0  0  0  0  0  0  0  0  0
   57.8130   29.7180   46.2350 C   0  0  0  0  0  0  0  0  0  0  0  0
   55.7670   24.8310   45.4180 C   0  0  0  0  0  0  0  0  0  0  0  0
   55.1310   25.7590   45.9890 O   0  0  0  0  0  0  0  0  0  0  0  0
   54.1565   23.3030   47.2092 H   0  0  0  0  0  0  0  0  0  0  0  0
   53.2514   24.0211   45.8338 H   0  0  0  0  0  0  0  0  0  0  0  0
   53.6430   22.2680   45.8338 H   0  0  0  0  0  0  0  0  0  0  0  0
   55.5057   21.5210   44.8099 H   0  0  0  0  0  0  0  0  0  0  0  0
   57.6558   21.9557   43.6288 H   0  0  0  0  0  0  0  0  0  0  0  0
   58.6043   24.2582   43.5933 H   0  0  0  0  0  0  0  0  0  0  0  0
   56.3920   27.2870   46.3320 H   0  0  0  0  0  0  0  0  0  0  0  0
   56.2592   28.9698   43.2913 H   0  0  0  0  0  0  0  0  0  0  0  0
   56.6525   31.3933   42.9289 H   0  0  0  0  0  0  0  0  0  0  0  0
   57.2998   33.2908   43.5573 H   0  0  0  0  0  0  0  0  0  0  0  0
   57.2137   35.2254   44.9595 H   0  0  0  0  0  0  0  0  0  0  0  0
   56.1153   33.9243   45.5768 H   0  0  0  0  0  0  0  0  0  0  0  0
   57.6950   33.3760   47.2320 H   0  0  0  0  0  0  0  0  0  0  0  0
   59.3802   35.5694   46.1705 H   0  0  0  0  0  0  0  0  0  0  0  0
   59.7334   34.4754   47.5627 H   0  0  0  0  0  0  0  0  0  0  0  0
   60.9375   33.7934   45.4789 H   0  0  0  0  0  0  0  0  0  0  0  0
   59.7787   32.5360   46.0712 H   0  0  0  0  0  0  0  0  0  0  0  0
   58.1157   29.2481   47.1824 H   0  0  0  0  0  0  0  0  0  0  0  0
  1  2  1  0
  2  3  1  0
  3  4  2  0
  4  5  1  0
  5  6  2  0
  6  7  1  0
  7  8  2  0
  7  9  1  0
  9 10  1  0
 10 11  2  0
 11 12  1  0
 12 13  2  0
 13 14  1  0
 14 15  1  0
 15 16  1  0
 16 17  1  0
 17 18  1  0
 18 19  1  0
 13 20  1  0
 20 21  1  0
 20 22  2  0
  6 23  1  0
 23 24  2  0
 23  2  1  0
 22 10  1  0
 19 14  1  0
  1 25  1  0
  1 26  1  0
  1 27  1  0
  3 28  1  0
  4 29  1  0
  5 30  1  0
  9 31  1  0
 11 32  1  0
 12 33  1  0
 14 34  1  6
 15 35  1  0
 15 36  1  0
 16 37  1  0
 17 38  1  0
 17 39  1  0
 18 40  1  0
 18 41  1  0
 22 42  1  0
M  END
>  <UniqueID>  (49) 
46

>  <SMILES>  (49) 
Cn1cccc(C(=O)Nc2ccc([C@H]3CNCCO3)c(F)c2)c1=O

>  <Energy>  (49) 
64.37013231221412

>  <Genealogy>  (49) 
Cn1cccc(C(=O)Nc2ccc([C@H]3CNCCO3)c(F)c2)c1=O (chirality)
Cn1cccc(C(=O)Nc2ccc([C@H]3CNCCO3)c(F)c2)c1=O (3D coordinates assigned)
Cn1cccc(C(=O)Nc2ccc([C@H]3CNCCO3)c(F)c2)c1=O (nonaromatic ring conformer: 64.37013231221412 kcal/mol)

>  <smiles>  (49) 
Cn1cccc(C(=O)Nc2ccc(C3CNCCO3)c(F)c2)c1=O

>  <score_type>  (49) 
oracle

>  <origin>  (49) 
adg

>  <m_score__min__energy>  (49) 
-7.54

>  <m_primary>  (49) 
energy

$$$$
49:0
     RDKit          3D

 42 44  0  0  0  0  0  0  0  0999 V2000
   55.1800   29.3400   44.7980 N   0  0  0  0  0  0  0  0  0  0  0  0
   55.9850   30.1020   44.1430 C   0  0  0  0  0  0  0  0  0  0  0  0
   56.6880   31.0900   44.6680 N   0  0  0  0  0  0  0  0  0  0  0  0
   57.4190   31.6630   43.6640 C   0  0  0  0  0  0  0  0  0  0  0  0
   58.4890   33.0060   43.9870 S   0  0  0  0  0  0  0  0  0  0  0  0
   58.9140   33.4140   45.6060 C   0  0  0  0  0  0  0  0  0  0  0  0
   58.9380   34.6390   46.2200 C   0  0  0  0  0  0  0  0  0  0  0  0
   59.2890   34.8370   47.5460 C   0  0  0  0  0  0  0  0  0  0  0  0
   59.6430   33.7700   48.3380 C   0  0  0  0  0  0  0  0  0  0  0  0
   59.6310   32.5290   47.7560 C   0  0  0  0  0  0  0  0  0  0  0  0
   59.2850   32.3380   46.4550 C   0  0  0  0  0  0  0  0  0  0  0  0
   59.3040   31.0010   45.9530 N   0  0  0  0  0  0  0  0  0  0  0  0
   60.4850   30.2580   46.1350 C   0  0  0  0  0  0  0  0  0  0  0  0
   61.4470   30.8110   46.7260 O   0  0  0  0  0  0  0  0  0  0  0  0
   60.6220   28.8400   45.6450 C   0  0  0  0  0  0  0  0  0  0  0  0
   59.2930   28.1540   45.6890 C   0  0  0  0  0  0  0  0  0  0  0  0
   58.7200   27.9120   46.9270 C   0  0  0  0  0  0  0  0  0  0  0  0
   57.4850   27.2760   46.9810 C   0  0  0  0  0  0  0  0  0  0  0  0
   56.8290   26.8880   45.8200 C   0  0  0  0  0  0  0  0  0  0  0  0
   55.6020   26.2610   45.9590 O   0  0  0  0  0  0  0  0  0  0  0  0
   55.3430   24.9190   45.6900 C   0  0  0  0  0  0  0  0  0  0  0  0
   55.6830   24.1910   46.8340 F   0  0  0  0  0  0  0  0  0  0  0  0
   54.0390   24.6310   45.4240 F   0  0  0  0  0  0  0  0  0  0  0  0
   56.1410   24.4360   44.6790 F   0  0  0  0  0  0  0  0  0  0  0  0
   57.4270   27.1440   44.6040 C   0  0  0  0  0  0  0  0  0  0  0  0
   58.6550   27.7740   44.5060 C   0  0  0  0  0  0  0  0  0  0  0  0
   57.1040   30.9660   42.5670 N   0  0  0  0  0  0  0  0  0  0  0  0
   56.2200   29.9990   42.8450 N   0  0  0  0  0  0  0  0  0  0  0  0
   55.5870   28.8300   45.6220 H   0  0  0  0  0  0  0  0  0  0  0  0
   58.6613   35.5204   45.6229 H   0  0  0  0  0  0  0  0  0  0  0  0
   59.2844   35.8531   47.9672 H   0  0  0  0  0  0  0  0  0  0  0  0
   59.9236   33.9065   49.3928 H   0  0  0  0  0  0  0  0  0  0  0  0
   59.9115   31.6559   48.3635 H   0  0  0  0  0  0  0  0  0  0  0  0
   58.4730   30.5790   45.4640 H   0  0  0  0  0  0  0  0  0  0  0  0
   60.9948   28.8464   44.6101 H   0  0  0  0  0  0  0  0  0  0  0  0
   61.3290   28.3005   46.2923 H   0  0  0  0  0  0  0  0  0  0  0  0
   59.2331   28.2177   47.8507 H   0  0  0  0  0  0  0  0  0  0  0  0
   57.0204   27.0771   47.9580 H   0  0  0  0  0  0  0  0  0  0  0  0
   56.9110   26.8374   43.6822 H   0  0  0  0  0  0  0  0  0  0  0  0
   59.1149   27.9697   43.5261 H   0  0  0  0  0  0  0  0  0  0  0  0
   57.4370   31.0840   41.5900 H   0  0  0  0  0  0  0  0  0  0  0  0
   55.8020   29.3020   42.1630 H   0  0  0  0  0  0  0  0  0  0  0  0
  1  2  2  3
  2  3  1  0
  3  4  2  0
  4  5  1  0
  5  6  1  0
  6  7  2  0
  7  8  1  0
  8  9  2  0
  9 10  1  0
 10 11  2  0
 11 12  1  0
 12 13  1  0
 13 14  2  0
 13 15  1  0
 15 16  1  0
 16 17  2  0
 17 18  1  0
 18 19  2  0
 19 20  1  0
 20 21  1  0
 21 22  1  0
 21 23  1  0
 21 24  1  0
 19 25  1  0
 25 26  2  0
  4 27  1  0
 27 28  1  0
 28  2  1  0
 11  6  1  0
 26 16  1  0
  1 29  1  0
  7 30  1  0
  8 31  1  0
  9 32  1  0
 10 33  1  0
 12 34  1  0
 15 35  1  0
 15 36  1  0
 17 37  1  0
 18 38  1  0
 25 39  1  0
 26 40  1  0
 27 41  1  0
 28 42  1  0
M  END
>  <smiles>  (50) 
N=c1nc(Sc2ccccc2NC(=O)Cc2ccc(OC(F)(F)F)cc2)[nH][nH]1

>  <score_type>  (50) 
oracle

>  <origin>  (50) 
adg

>  <m_score__min__energy>  (50) 
-8.5800000000000001

>  <m_primary>  (50) 
energy

$$$$
50:0
     RDKit          3D

 37 39  0  0  0  0  0  0  0  0999 V2000
   59.5490   24.1990   53.6980 H   0  0  0  0  0  0  0  0  0  0  0  0
   58.5940   24.4540   53.9180 O   0  0  0  0  0  0  0  0  0  0  0  0
   58.1970   25.7840   54.0550 C   0  0  0  0  0  0  0  0  0  0  0  0
   56.8770   26.0680   54.4190 C   0  0  0  0  0  0  0  0  0  0  0  0
   56.1689   25.2446   54.5938 H   0  0  0  0  0  0  0  0  0  0  0  0
   56.4520   27.3920   54.5620 C   0  0  0  0  0  0  0  0  0  0  0  0
   55.4122   27.6053   54.8506 H   0  0  0  0  0  0  0  0  0  0  0  0
   57.3460   28.4500   54.3390 C   0  0  0  0  0  0  0  0  0  0  0  0
   56.8840   29.8790   54.4810 C   0  0  0  0  0  0  0  0  0  0  0  0
   57.7372   30.5528   54.3134 H   0  0  0  0  0  0  0  0  0  0  0  0
   56.4791   30.0209   55.4939 H   0  0  0  0  0  0  0  0  0  0  0  0
   55.8270   30.1840   53.5010 N   0  0  0  0  0  0  0  0  0  0  0  0
   56.0360   30.4790   52.1970 C   0  0  0  0  0  0  0  0  0  0  0  0
   57.3780   30.5480   51.5310 C   0  0  0  0  0  0  0  0  0  0  0  0
   58.1660   30.5885   52.2974 H   0  0  0  0  0  0  0  0  0  0  0  0
   57.5222   29.6561   50.9036 H   0  0  0  0  0  0  0  0  0  0  0  0
   57.4300   31.4500   50.9036 H   0  0  0  0  0  0  0  0  0  0  0  0
   54.8380   30.6620   51.5390 C   0  0  0  0  0  0  0  0  0  0  0  0
   54.7049   30.9072   50.4750 H   0  0  0  0  0  0  0  0  0  0  0  0
   53.8310   30.4770   52.4790 C   0  0  0  0  0  0  0  0  0  0  0  0
   52.4990   30.5760   52.2740 C   0  0  0  0  0  0  0  0  0  0  0  0
   51.8432   30.3742   53.1338 H   0  0  0  0  0  0  0  0  0  0  0  0
   51.8440   30.9320   50.9950 C   0  0  0  0  0  0  0  0  0  0  0  0
   51.7570   30.1490   49.9040 N   0  0  0  0  0  0  0  0  0  0  0  0
   51.0410   30.8940   49.0350 C   0  0  0  0  0  0  0  0  0  0  0  0
   50.7520   30.4940   47.8770 O   0  0  0  0  0  0  0  0  0  0  0  0
   50.6570   32.0990   49.5050 N   0  0  0  0  0  0  0  0  0  0  0  0
   51.1680   32.1050   50.7460 C   0  0  0  0  0  0  0  0  0  0  0  0
   51.0200   33.1620   51.6350 O   0  0  0  0  0  0  0  0  0  0  0  0
   54.4790   30.1790   53.6870 C   0  0  0  0  0  0  0  0  0  0  0  0
   53.8740   29.9120   54.8580 C   0  0  0  0  0  0  0  0  0  0  0  0
   54.4772   29.6896   55.7506 H   0  0  0  0  0  0  0  0  0  0  0  0
   52.7759   29.9160   54.9232 H   0  0  0  0  0  0  0  0  0  0  0  0
   58.6730   28.1640   53.9770 C   0  0  0  0  0  0  0  0  0  0  0  0
   59.3823   28.9871   53.8057 H   0  0  0  0  0  0  0  0  0  0  0  0
   59.0980   26.8390   53.8330 C   0  0  0  0  0  0  0  0  0  0  0  0
   60.4140   26.5780   53.4710 O   0  0  0  0  0  0  0  0  0  0  0  0
  1  2  1  0
  2  3  1  0
  3  4  2  0
  4  5  1  0
  4  6  1  0
  6  7  1  0
  6  8  2  0
  8  9  1  0
  9 10  1  0
  9 11  1  0
  9 12  1  0
 12 13  1  0
 13 14  1  0
 14 15  1  0
 14 16  1  0
 14 17  1  0
 13 18  2  0
 18 19  1  0
 18 20  1  0
 20 21  2  0
 21 22  1  0
 21 23  1  0
 23 24  1  0
 24 25  1  0
 25 26  2  0
 25 27  1  0
 27 28  1  0
 28 29  1  0
 20 30  1  0
 30 31  2  0
 31 32  1  0
 31 33  1  0
  8 34  1  0
 34 35  1  0
 34 36  2  0
 36 37  1  0
 36  3  1  0
 30 12  1  0
 28 23  2  0
M  CHG  4  24  -1  27  -1  29  -1  37  -1
M  END
>  <UniqueID>  (51) 
47

>  <SMILES>  (51) 
C=c1/c(=C/c2[n-]c(=O)[n-]c2[O-])cc(C)n1Cc1ccc(O)c([O-])c1

>  <Energy>  (51) 
101.42715271800658

>  <Genealogy>  (51) 
C=c1c(=Cc2[n-]c(=O)[n-]c2[O-])cc(C)n1Cc1ccc(O)c([O-])c1 (protonated)
C=c1/c(=C/c2[n-]c(=O)[n-]c2[O-])cc(C)n1Cc1ccc(O)c([O-])c1 (cis-trans isomerization)
C=c1/c(=C/c2[n-]c(=O)[n-]c2[O-])cc(C)n1Cc1ccc(O)c([O-])c1 (3D coordinates assigned)
C=c1/c(=C/c2[n-]c(=O)[n-]c2[O-])cc(C)n1Cc1ccc(O)c([O-])c1 (optimized conformer: 101.42715271800658 kcal/mol)

>  <smiles>  (51) 
C=c1c(=Cc2[nH]c(=O)[nH]c2O)cc(C)n1Cc1ccc(O)c(O)c1

>  <score_type>  (51) 
oracle

>  <origin>  (51) 
adg

>  <m_score__min__energy>  (51) 
-16.550000000000001

>  <m_primary>  (51) 
energy

$$$$
51:0
     RDKit          3D

 63 67  0  0  0  0  0  0  0  0999 V2000
   56.1790   30.0950   43.8170 C   0  0  0  0  0  0  0  0  0  0  0  0
   57.4160   30.2310   44.5840 N   0  0  0  0  0  0  0  0  0  0  0  0
   58.1830   31.3430   44.7600 C   0  0  0  0  0  0  0  0  0  0  0  0
   57.9550   32.6570   44.0680 C   0  0  0  0  0  0  0  0  0  0  0  0
   57.0170   33.5700   44.8640 C   0  0  0  0  0  0  0  0  0  0  0  0
   57.7810   34.3970   45.8280 N   0  0  0  0  0  0  0  0  0  0  0  0
   59.0300   34.9630   45.2470 C   0  0  0  0  0  0  0  0  0  0  0  0
   60.2830   34.1370   45.5840 C   0  0  0  0  0  0  0  0  0  0  0  0
   60.3620   33.8500   47.0220 N   0  0  0  0  0  0  0  0  0  0  0  0
   61.5550   33.2380   47.5510 C   0  0  0  0  0  0  0  0  0  0  0  0
   62.8300   33.7440   47.2450 C   0  0  0  0  0  0  0  0  0  0  0  0
   63.9600   33.1450   47.8050 C   0  0  0  0  0  0  0  0  0  0  0  0
   63.8150   32.0590   48.6710 C   0  0  0  0  0  0  0  0  0  0  0  0
   62.5360   31.5890   48.9660 C   0  0  0  0  0  0  0  0  0  0  0  0
   61.4460   32.1850   48.4120 N   0  0  0  0  0  0  0  0  0  0  0  0
   59.2120   34.1740   47.8710 C   0  0  0  0  0  0  0  0  0  0  0  0
   57.9420   33.7310   47.1460 C   0  0  0  0  0  0  0  0  0  0  0  0
   59.2390   31.1430   45.5920 N   0  0  0  0  0  0  0  0  0  0  0  0
   59.0940   29.8590   45.9620 C   0  0  0  0  0  0  0  0  0  0  0  0
   59.9030   29.1330   46.8290 C   0  0  0  0  0  0  0  0  0  0  0  0
   59.5570   27.7960   47.0900 C   0  0  0  0  0  0  0  0  0  0  0  0
   58.4120   27.2100   46.4820 C   0  0  0  0  0  0  0  0  0  0  0  0
   58.0370   25.8420   46.7360 N   0  0  0  0  0  0  0  0  0  0  0  0
   58.7940   24.6790   46.2700 C   0  0  0  0  0  0  0  0  0  0  0  0
   58.0220   23.9270   45.2170 C   0  0  0  0  0  0  0  0  0  0  0  0
   58.3250   22.5840   44.9450 C   0  0  0  0  0  0  0  0  0  0  0  0
   57.6190   21.8880   43.9590 C   0  0  0  0  0  0  0  0  0  0  0  0
   56.6110   22.5290   43.2280 C   0  0  0  0  0  0  0  0  0  0  0  0
   55.9000   21.8460   42.2430 O   0  0  0  0  0  0  0  0  0  0  0  0
   56.3150   23.8690   43.4880 C   0  0  0  0  0  0  0  0  0  0  0  0
   57.0190   24.5670   44.4730 C   0  0  0  0  0  0  0  0  0  0  0  0
   57.6150   27.9870   45.6110 C   0  0  0  0  0  0  0  0  0  0  0  0
   57.9970   29.3080   45.3710 C   0  0  0  0  0  0  0  0  0  0  0  0
   55.3278   30.0014   44.5075 H   0  0  0  0  0  0  0  0  0  0  0  0
   56.0410   30.9834   43.1832 H   0  0  0  0  0  0  0  0  0  0  0  0
   56.2373   29.1979   43.1832 H   0  0  0  0  0  0  0  0  0  0  0  0
   58.9227   33.1648   43.9425 H   0  0  0  0  0  0  0  0  0  0  0  0
   57.4842   32.4514   43.0953 H   0  0  0  0  0  0  0  0  0  0  0  0
   56.4803   34.2311   44.1676 H   0  0  0  0  0  0  0  0  0  0  0  0
   56.3055   32.9440   45.4225 H   0  0  0  0  0  0  0  0  0  0  0  0
   58.9205   35.0018   44.1532 H   0  0  0  0  0  0  0  0  0  0  0  0
   59.1701   35.9628   45.6838 H   0  0  0  0  0  0  0  0  0  0  0  0
   60.2455   33.1871   45.0306 H   0  0  0  0  0  0  0  0  0  0  0  0
   61.1706   34.7199   45.2970 H   0  0  0  0  0  0  0  0  0  0  0  0
   62.9368   34.6055   46.5694 H   0  0  0  0  0  0  0  0  0  0  0  0
   64.9628   33.5278   47.5645 H   0  0  0  0  0  0  0  0  0  0  0  0
   64.6999   31.5799   49.1153 H   0  0  0  0  0  0  0  0  0  0  0  0
   62.4082   30.7351   49.6476 H   0  0  0  0  0  0  0  0  0  0  0  0
   59.2969   33.6435   48.8309 H   0  0  0  0  0  0  0  0  0  0  0  0
   59.1787   35.2557   48.0682 H   0  0  0  0  0  0  0  0  0  0  0  0
   57.9860   32.6431   46.9891 H   0  0  0  0  0  0  0  0  0  0  0  0
   57.0826   34.0135   47.7718 H   0  0  0  0  0  0  0  0  0  0  0  0
   60.7871   29.5912   47.2965 H   0  0  0  0  0  0  0  0  0  0  0  0
   60.1781   27.1963   47.7716 H   0  0  0  0  0  0  0  0  0  0  0  0
   57.1400   25.6570   47.2400 H   0  0  0  0  0  0  0  0  0  0  0  0
   59.7499   25.0177   45.8438 H   0  0  0  0  0  0  0  0  0  0  0  0
   58.9724   24.0085   47.1236 H   0  0  0  0  0  0  0  0  0  0  0  0
   59.1211   22.0768   45.5098 H   0  0  0  0  0  0  0  0  0  0  0  0
   57.8562   20.8331   43.7567 H   0  0  0  0  0  0  0  0  0  0  0  0
   56.0300   22.0490   41.2580 H   0  0  0  0  0  0  0  0  0  0  0  0
   55.5249   24.3768   42.9154 H   0  0  0  0  0  0  0  0  0  0  0  0
   56.7855   25.6244   44.6662 H   0  0  0  0  0  0  0  0  0  0  0  0
   56.7185   27.5625   45.1354 H   0  0  0  0  0  0  0  0  0  0  0  0
  1  2  1  0
  2  3  1  0
  3  4  1  0
  4  5  1  0
  5  6  1  0
  6  7  1  0
  7  8  1  0
  8  9  1  0
  9 10  1  0
 10 11  2  0
 11 12  1  0
 12 13  2  0
 13 14  1  0
 14 15  2  0
  9 16  1  0
 16 17  1  0
  3 18  2  0
 18 19  1  0
 19 20  2  0
 20 21  1  0
 21 22  2  0
 22 23  1  0
 23 24  1  0
 24 25  1  0
 25 26  2  0
 26 27  1  0
 27 28  2  0
 28 29  1  0
 28 30  1  0
 30 31  2  0
 22 32  1  0
 32 33  2  0
 33  2  1  0
 17  6  1  0
 33 19  1  0
 15 10  1  0
 31 25  1  0
  1 34  1  0
  1 35  1  0
  1 36  1  0
  4 37  1  0
  4 38  1  0
  5 39  1  0
  5 40  1  0
  7 41  1  0
  7 42  1  0
  8 43  1  0
  8 44  1  0
 11 45  1  0
 12 46  1  0
 13 47  1  0
 14 48  1  0
 16 49  1  0
 16 50  1  0
 17 51  1  0
 17 52  1  0
 20 53  1  0
 21 54  1  0
 23 55  1  0
 24 56  1  0
 24 57  1  0
 26 58  1  0
 27 59  1  0
 29 60  1  0
 30 61  1  0
 31 62  1  0
 32 63  1  0
M  END
>  <UniqueID>  (52) 
48

>  <SMILES>  (52) 
Cn1c(CCN2CCN(c3ccccn3)CC2)nc2ccc(NCc3ccc(O)cc3)cc21

>  <Energy>  (52) 
115.16885453801015

>  <Genealogy>  (52) 
Cn1c(CCN2CCN(c3ccccn3)CC2)nc2ccc(NCc3ccc(O)cc3)cc21 (3D coordinates assigned)
Cn1c(CCN2CCN(c3ccccn3)CC2)nc2ccc(NCc3ccc(O)cc3)cc21 (nonaromatic ring conformer: 115.16885453801015 kcal/mol)

>  <smiles>  (52) 
Cn1c(CCN2CCN(c3ccccn3)CC2)nc2ccc(NCc3ccc(O)cc3)cc21

>  <score_type>  (52) 
oracle

>  <origin>  (52) 
adg

>  <m_score__min__energy>  (52) 
-9.6999999999999993

>  <m_primary>  (52) 
energy

$$$$
52:0
     RDKit          3D

 35 37  0  0  0  0  0  0  0  0999 V2000
   55.2030   26.6880   46.0020 O   0  0  0  0  0  0  0  0  0  0  0  0
   56.4510   26.8600   46.0120 C   0  0  0  0  0  0  0  0  0  0  0  0
   57.3030   25.7050   46.0370 N   0  0  0  0  0  0  0  0  0  0  0  0
   57.0670   24.4550   45.3700 C   0  0  0  0  0  0  0  0  0  0  0  0
   56.6130   24.4720   44.0470 C   0  0  0  0  0  0  0  0  0  0  0  0
   56.3950   23.2750   43.3600 C   0  0  0  0  0  0  0  0  0  0  0  0
   56.6130   22.0460   43.9900 C   0  0  0  0  0  0  0  0  0  0  0  0
   56.3940   20.8740   43.2660 O   0  0  0  0  0  0  0  0  0  0  0  0
   57.0420   22.0210   45.3310 C   0  0  0  0  0  0  0  0  0  0  0  0
   57.3230   20.5050   46.1800 Cl  0  0  0  0  0  0  0  0  0  0  0  0
   57.2540   23.2220   46.0180 C   0  0  0  0  0  0  0  0  0  0  0  0
   56.9940   28.2410   45.9520 C   0  0  0  0  0  0  0  0  0  0  0  0
   56.3190   29.2420   45.2400 C   0  0  0  0  0  0  0  0  0  0  0  0
   55.1430   28.9610   44.5540 O   0  0  0  0  0  0  0  0  0  0  0  0
   56.8010   30.5070   45.2310 N   0  0  0  0  0  0  0  0  0  0  0  0
   57.9310   30.8440   45.9030 C   0  0  0  0  0  0  0  0  0  0  0  0
   58.3180   32.0430   45.8860 O   0  0  0  0  0  0  0  0  0  0  0  0
   58.6270   29.8910   46.6010 N   0  0  0  0  0  0  0  0  0  0  0  0
   59.8100   30.2570   47.3420 C   0  0  0  0  0  0  0  0  0  0  0  0
   60.8920   30.8690   46.6870 C   0  0  0  0  0  0  0  0  0  0  0  0
   62.0380   31.2280   47.4040 C   0  0  0  0  0  0  0  0  0  0  0  0
   62.1120   30.9770   48.7770 C   0  0  0  0  0  0  0  0  0  0  0  0
   63.2510   31.3330   49.4880 O   0  0  0  0  0  0  0  0  0  0  0  0
   61.0390   30.3670   49.4360 C   0  0  0  0  0  0  0  0  0  0  0  0
   59.8920   30.0080   48.7220 C   0  0  0  0  0  0  0  0  0  0  0  0
   58.1880   28.5920   46.6110 C   0  0  0  0  0  0  0  0  0  0  0  0
   58.8670   27.7010   47.1920 O   0  0  0  0  0  0  0  0  0  0  0  0
   56.4266   25.4328   43.5448 H   0  0  0  0  0  0  0  0  0  0  0  0
   56.0494   23.2997   42.3160 H   0  0  0  0  0  0  0  0  0  0  0  0
   56.9490   20.0380   43.3980 H   0  0  0  0  0  0  0  0  0  0  0  0
   57.5690   23.2006   47.0717 H   0  0  0  0  0  0  0  0  0  0  0  0
   60.8376   31.0665   45.6062 H   0  0  0  0  0  0  0  0  0  0  0  0
   62.8818   31.7083   46.8869 H   0  0  0  0  0  0  0  0  0  0  0  0
   61.0980   30.1698   50.5166 H   0  0  0  0  0  0  0  0  0  0  0  0
   59.0502   29.5285   49.2430 H   0  0  0  0  0  0  0  0  0  0  0  0
  1  2  2  0
  2  3  1  0
  3  4  1  0
  4  5  2  0
  5  6  1  0
  6  7  2  0
  7  8  1  0
  7  9  1  0
  9 10  1  0
  9 11  2  0
  2 12  1  0
 12 13  2  0
 13 14  1  0
 13 15  1  0
 15 16  1  0
 16 17  2  0
 16 18  1  0
 18 19  1  0
 19 20  2  0
 20 21  1  0
 21 22  2  0
 22 23  1  0
 22 24  1  0
 24 25  2  0
 18 26  1  0
 26 27  2  0
 11  4  1  0
 26 12  1  0
 25 19  1  0
  5 28  1  0
  6 29  1  0
  8 30  1  0
 11 31  1  0
 20 32  1  0
 21 33  1  0
 24 34  1  0
 25 35  1  0
M  CHG  4   3  -1  14  -1  15  -1  23  -1
M  END
>  <UniqueID>  (53) 
49

>  <SMILES>  (53) 
O=C([N-]c1ccc(O)c(Cl)c1)c1c([O-])[n-]c(=O)n(-c2ccc([O-])cc2)c1=O

>  <Energy>  (53) 
58.614486443632345

>  <Genealogy>  (53) 
O=C([N-]c1ccc(O)c(Cl)c1)c1c([O-])[n-]c(=O)n(-c2ccc([O-])cc2)c1=O (protonated)
O=C([N-]c1ccc(O)c(Cl)c1)c1c([O-])[n-]c(=O)n(-c2ccc([O-])cc2)c1=O (3D coordinates assigned)
O=C([N-]c1ccc(O)c(Cl)c1)c1c([O-])[n-]c(=O)n(-c2ccc([O-])cc2)c1=O (optimized conformer: 58.614486443632345 kcal/mol)

>  <smiles>  (53) 
O=C(Nc1ccc(O)c(Cl)c1)c1c(O)[nH]c(=O)n(-c2ccc(O)cc2)c1=O

>  <score_type>  (53) 
oracle

>  <origin>  (53) 
adg

>  <m_score__min__energy>  (53) 
-14.5

>  <m_primary>  (53) 
energy

$$$$
53:0
     RDKit          3D

 53 55  0  0  0  0  0  0  0  0999 V2000
   54.5474   27.3385   54.0239 H   0  0  0  0  0  0  0  0  0  0  0  0
   53.8750   28.0770   53.5630 C   0  0  0  0  0  0  0  0  0  0  0  0
   52.7940   27.8798   53.5114 H   0  0  0  0  0  0  0  0  0  0  0  0
   54.3740   29.2200   53.0630 C   0  0  0  0  0  0  0  0  0  0  0  0
   53.6440   30.2460   52.4510 C   0  0  0  0  0  0  0  0  0  0  0  0
   52.3090   30.3050   52.2630 C   0  0  0  0  0  0  0  0  0  0  0  0
   51.6540   29.9986   53.0919 H   0  0  0  0  0  0  0  0  0  0  0  0
   51.6790   30.7570   51.0090 C   0  0  0  0  0  0  0  0  0  0  0  0
   51.6480   30.0160   49.8860 N   0  0  0  0  0  0  0  0  0  0  0  0
   51.0430   30.8310   48.9930 C   0  0  0  0  0  0  0  0  0  0  0  0
   50.8290   30.4890   47.8000 O   0  0  0  0  0  0  0  0  0  0  0  0
   50.7040   32.0500   49.4710 N   0  0  0  0  0  0  0  0  0  0  0  0
   51.1200   31.9920   50.7490 C   0  0  0  0  0  0  0  0  0  0  0  0
   51.0260   33.0560   51.6380 O   0  0  0  0  0  0  0  0  0  0  0  0
   54.5610   31.2390   52.1310 C   0  0  0  0  0  0  0  0  0  0  0  0
   54.3448   32.2022   51.6457 H   0  0  0  0  0  0  0  0  0  0  0  0
   55.7930   30.7820   52.5400 C   0  0  0  0  0  0  0  0  0  0  0  0
   57.0480   31.5490   52.3920 C   0  0  0  0  0  0  0  0  0  0  0  0
   57.5860   32.0020   53.4410 O   0  0  0  0  0  0  0  0  0  0  0  0
   57.6160   31.8880   51.0970 N   0  0  0  0  0  0  0  0  0  0  0  0
   56.8110   32.1620   50.4840 H   0  0  0  0  0  0  0  0  0  0  0  0
   58.3180   30.7580   50.4470 C   0  0  0  0  0  0  0  0  0  0  0  0
   59.2075   30.4976   51.0395 H   0  0  0  0  0  0  0  0  0  0  0  0
   57.6299   29.9016   50.3912 H   0  0  0  0  0  0  0  0  0  0  0  0
   58.7570   31.1340   49.0130 C   0  0  0  0  0  0  0  0  0  0  0  0
   59.7285   30.6621   48.8042 H   0  0  0  0  0  0  0  0  0  0  0  0
   57.9828   30.7781   48.3173 H   0  0  0  0  0  0  0  0  0  0  0  0
   58.8900   32.6010   48.8370 N   0  0  0  0  0  0  0  0  0  0  0  0
   59.6800   32.9350   47.6350 C   0  0  0  0  0  0  0  0  0  0  0  0
   60.6012   33.4524   47.9410 H   0  0  0  0  0  0  0  0  0  0  0  0
   59.9232   32.0037   47.1026 H   0  0  0  0  0  0  0  0  0  0  0  0
   58.8940   33.8300   46.7100 C   0  0  0  0  0  0  0  0  0  0  0  0
   59.0530   35.0790   46.8000 O   0  0  0  0  0  0  0  0  0  0  0  0
   58.0090   33.2950   45.7010 N   0  0  0  0  0  0  0  0  0  0  0  0
   57.2200   34.2240   44.8810 C   0  0  0  0  0  0  0  0  0  0  0  0
   56.6483   34.8971   45.5368 H   0  0  0  0  0  0  0  0  0  0  0  0
   57.8950   34.8167   44.2461 H   0  0  0  0  0  0  0  0  0  0  0  0
   56.5259   33.6539   44.2461 H   0  0  0  0  0  0  0  0  0  0  0  0
   57.9030   31.8480   45.4760 C   0  0  0  0  0  0  0  0  0  0  0  0
   57.8649   31.3281   46.4447 H   0  0  0  0  0  0  0  0  0  0  0  0
   56.9866   31.6315   44.9074 H   0  0  0  0  0  0  0  0  0  0  0  0
   58.7781   31.5003   44.9074 H   0  0  0  0  0  0  0  0  0  0  0  0
   59.4820   33.2180   50.0360 C   0  0  0  0  0  0  0  0  0  0  0  0
   60.4367   32.7233   50.2678 H   0  0  0  0  0  0  0  0  0  0  0  0
   59.6555   34.2875   49.8463 H   0  0  0  0  0  0  0  0  0  0  0  0
   58.5200   33.0620   51.2330 C   0  0  0  0  0  0  0  0  0  0  0  0
   59.1161   32.9422   52.1497 H   0  0  0  0  0  0  0  0  0  0  0  0
   57.8897   33.9627   51.2709 H   0  0  0  0  0  0  0  0  0  0  0  0
   55.6900   29.5490   53.0910 N   0  0  0  0  0  0  0  0  0  0  0  0
   56.7760   28.7780   53.7060 C   0  0  0  0  0  0  0  0  0  0  0  0
   56.6929   28.8370   54.8013 H   0  0  0  0  0  0  0  0  0  0  0  0
   56.7048   27.7271   53.3889 H   0  0  0  0  0  0  0  0  0  0  0  0
   57.7446   29.1918   53.3889 H   0  0  0  0  0  0  0  0  0  0  0  0
  1  2  1  0
  2  3  1  0
  2  4  2  0
  4  5  1  0
  5  6  2  0
  6  7  1  0
  6  8  1  0
  8  9  1  0
  9 10  1  0
 10 11  2  0
 10 12  1  0
 12 13  1  0
 13 14  1  0
  5 15  1  0
 15 16  1  0
 15 17  2  0
 17 18  1  0
 18 19  2  0
 18 20  1  0
 20 21  1  0
 20 22  1  0
 22 23  1  0
 22 24  1  0
 22 25  1  0
 25 26  1  0
 25 27  1  0
 25 28  1  0
 28 29  1  0
 29 30  1  0
 29 31  1  0
 29 32  1  0
 32 33  2  0
 32 34  1  0
 34 35  1  0
 35 36  1  0
 35 37  1  0
 35 38  1  0
 34 39  1  0
 39 40  1  0
 39 41  1  0
 39 42  1  0
 28 43  1  0
 43 44  1  0
 43 45  1  0
 43 46  1  0
 46 47  1  0
 46 48  1  0
 17 49  1  0
 49 50  1  0
 50 51  1  0
 50 52  1  0
 50 53  1  0
 49  4  1  0
 13  8  2  0
 46 20  1  0
M  CHG  4   9  -1  12  -1  14  -1  20   1
M  END
>  <UniqueID>  (54) 
50

>  <SMILES>  (54) 
C=c1/c(=C/c2[n-]c(=O)[n-]c2[O-])cc(C(=O)[NH+]2CCN(CC(=O)N(C)C)CC2)n1C

>  <Energy>  (54) 
136.55157379886342

>  <Genealogy>  (54) 
C=c1c(=Cc2[n-]c(=O)[n-]c2[O-])cc(C(=O)[NH+]2CCN(CC(=O)N(C)C)CC2)n1C (protonated)
C=c1/c(=C/c2[n-]c(=O)[n-]c2[O-])cc(C(=O)[NH+]2CCN(CC(=O)N(C)C)CC2)n1C (cis-trans isomerization)
C=c1/c(=C/c2[n-]c(=O)[n-]c2[O-])cc(C(=O)[NH+]2CCN(CC(=O)N(C)C)CC2)n1C (3D coordinates assigned)
C=c1/c(=C/c2[n-]c(=O)[n-]c2[O-])cc(C(=O)[NH+]2CCN(CC(=O)N(C)C)CC2)n1C (nonaromatic ring conformer: 136.55157379886342 kcal/mol)

>  <smiles>  (54) 
C=c1c(=Cc2[nH]c(=O)[nH]c2O)cc(C(=O)N2CCN(CC(=O)N(C)C)CC2)n1C

>  <score_type>  (54) 
oracle

>  <origin>  (54) 
adg

>  <m_score__min__energy>  (54) 
-16.57

>  <m_primary>  (54) 
energy

$$$$
54:0
     RDKit          3D

 60 64  0  0  0  0  0  0  0  0999 V2000
   55.7470   28.7270   43.9670 H   0  0  0  0  0  0  0  0  0  0  0  0
   55.6340   28.5900   44.9630 O   0  0  0  0  0  0  0  0  0  0  0  0
   56.1330   27.4650   45.6150 C   0  0  0  0  0  0  0  0  0  0  0  0
   55.3520   26.4630   46.0500 N   0  0  0  0  0  0  0  0  0  0  0  0
   56.2380   25.6100   46.6020 C   0  0  0  0  0  0  0  0  0  0  0  0
   55.8930   24.5210   47.1290 O   0  0  0  0  0  0  0  0  0  0  0  0
   57.5240   26.0150   46.5430 N   0  0  0  0  0  0  0  0  0  0  0  0
   57.4580   27.1960   45.9020 C   0  0  0  0  0  0  0  0  0  0  0  0
   58.6100   28.0880   45.6350 C   0  0  0  0  0  0  0  0  0  0  0  0
   59.4757   27.6566   45.1111 H   0  0  0  0  0  0  0  0  0  0  0  0
   58.6790   29.3920   45.9860 C   0  0  0  0  0  0  0  0  0  0  0  0
   58.9900   29.8910   47.2370 C   0  0  0  0  0  0  0  0  0  0  0  0
   59.2046   29.3032   48.1417 H   0  0  0  0  0  0  0  0  0  0  0  0
   58.9800   31.2620   47.1350 C   0  0  0  0  0  0  0  0  0  0  0  0
   59.2270   32.1490   48.2900 C   0  0  0  0  0  0  0  0  0  0  0  0
   58.2480   32.7310   48.8310 O   0  0  0  0  0  0  0  0  0  0  0  0
   60.5480   32.2980   48.8470 N   0  0  0  0  0  0  0  0  0  0  0  0
   61.2290   31.1260   49.4130 C   0  0  0  0  0  0  0  0  0  0  0  0
   60.4942   30.5191   49.9623 H   0  0  0  0  0  0  0  0  0  0  0  0
   61.6735   30.5574   48.5829 H   0  0  0  0  0  0  0  0  0  0  0  0
   62.3600   31.5260   50.3740 C   0  0  0  0  0  0  0  0  0  0  0  0
   61.9085   31.8900   51.3087 H   0  0  0  0  0  0  0  0  0  0  0  0
   62.9817   30.6316   50.5274 H   0  0  0  0  0  0  0  0  0  0  0  0
   63.2530   32.5880   49.8400 N   0  0  0  0  0  0  0  0  0  0  0  0
   64.7110   32.3210   49.7380 C   0  0  0  0  0  0  0  0  0  0  0  0
   64.7397   31.9983   48.6868 H   0  0  0  0  0  0  0  0  0  0  0  0
   65.5950   33.4690   50.2240 C   0  0  0  0  0  0  0  0  0  0  0  0
   66.3371   33.8091   49.4867 H   0  0  0  0  0  0  0  0  0  0  0  0
   65.1545   34.4429   50.4839 H   0  0  0  0  0  0  0  0  0  0  0  0
   66.1640   32.5610   51.3090 C   0  0  0  0  0  0  0  0  0  0  0  0
   67.2422   32.3671   51.2100 H   0  0  0  0  0  0  0  0  0  0  0  0
   66.1375   32.8753   52.3628 H   0  0  0  0  0  0  0  0  0  0  0  0
   65.2810   31.4140   50.8290 C   0  0  0  0  0  0  0  0  0  0  0  0
   65.8384   30.5459   50.4473 H   0  0  0  0  0  0  0  0  0  0  0  0
   64.6119   30.8921   51.5290 H   0  0  0  0  0  0  0  0  0  0  0  0
   62.7020   33.4930   48.8020 C   0  0  1  0  0  0  0  0  0  0  0  0
   63.1636   34.4780   48.9656 H   0  0  0  0  0  0  0  0  0  0  0  0
   63.0770   33.0640   47.3690 C   0  0  0  0  0  0  0  0  0  0  0  0
   63.8004   32.2364   47.4115 H   0  0  0  0  0  0  0  0  0  0  0  0
   62.1728   32.7337   46.8367 H   0  0  0  0  0  0  0  0  0  0  0  0
   63.5253   33.9159   46.8367 H   0  0  0  0  0  0  0  0  0  0  0  0
   61.1780   33.6210   48.9490 C   0  0  0  0  0  0  0  0  0  0  0  0
   60.9428   34.0613   49.9292 H   0  0  0  0  0  0  0  0  0  0  0  0
   60.7919   34.2664   48.1463 H   0  0  0  0  0  0  0  0  0  0  0  0
   58.6820   31.6620   45.8720 N   0  0  0  0  0  0  0  0  0  0  0  0
   58.6840   33.0860   45.4460 C   0  0  0  0  0  0  0  0  0  0  0  0
   58.3946   32.9094   44.3995 H   0  0  0  0  0  0  0  0  0  0  0  0
   57.8620   34.0400   46.3060 C   0  0  0  0  0  0  0  0  0  0  0  0
   57.0659   34.5677   45.7604 H   0  0  0  0  0  0  0  0  0  0  0  0
   57.2656   33.6639   47.1503 H   0  0  0  0  0  0  0  0  0  0  0  0
   59.1180   34.8770   46.5480 C   0  0  0  0  0  0  0  0  0  0  0  0
   59.0839   35.8776   46.0924 H   0  0  0  0  0  0  0  0  0  0  0  0
   59.4063   35.1599   47.5711 H   0  0  0  0  0  0  0  0  0  0  0  0
   59.9540   33.8650   45.7650 C   0  0  0  0  0  0  0  0  0  0  0  0
   60.4601   34.2840   44.8828 H   0  0  0  0  0  0  0  0  0  0  0  0
   60.8162   33.3669   46.2325 H   0  0  0  0  0  0  0  0  0  0  0  0
   58.4860   30.5100   45.1580 C   0  0  0  0  0  0  0  0  0  0  0  0
   58.1380   30.4490   43.8610 C   0  0  0  0  0  0  0  0  0  0  0  0
   58.0068   31.3754   43.2826 H   0  0  0  0  0  0  0  0  0  0  0  0
   57.9844   29.4727   43.3781 H   0  0  0  0  0  0  0  0  0  0  0  0
  1  2  1  0
  2  3  1  0
  3  4  1  0
  4  5  1  0
  5  6  2  0
  5  7  1  0
  7  8  1  0
  8  9  1  0
  9 10  1  0
  9 11  2  0
 11 12  1  0
 12 13  1  0
 12 14  2  0
 14 15  1  0
 15 16  2  0
 15 17  1  0
 17 18  1  0
 18 19  1  0
 18 20  1  0
 18 21  1  0
 21 22  1  0
 21 23  1  0
 21 24  1  0
 24 25  1  0
 25 26  1  0
 25 27  1  0
 27 28  1  0
 27 29  1  0
 27 30  1  0
 30 31  1  0
 30 32  1  0
 30 33  1  0
 33 34  1  0
 33 35  1  0
 24 36  1  0
 36 37  1  1
 36 38  1  0
 38 39  1  0
 38 40  1  0
 38 41  1  0
 36 42  1  0
 42 43  1  0
 42 44  1  0
 14 45  1  0
 45 46  1  0
 46 47  1  0
 46 48  1  0
 48 49  1  0
 48 50  1  0
 48 51  1  0
 51 52  1  0
 51 53  1  0
 51 54  1  0
 54 55  1  0
 54 56  1  0
 45 57  1  0
 57 58  2  0
 58 59  1  0
 58 60  1  0
  8  3  2  0
 57 11  1  0
 42 17  1  0
 54 46  1  0
 33 25  1  0
M  CHG  2   4  -1   7  -1
M  END
>  <UniqueID>  (55) 
51

>  <SMILES>  (55) 
C=c1/c(=C/c2[n-]c(=O)[n-]c2O)cc(C(=O)N2CCN(C3CCC3)[C@@H](C)C2)n1C1CCC1

>  <Energy>  (55) 
273.4833436870103

>  <Genealogy>  (55) 
C=c1c(=Cc2[n-]c(=O)[n-]c2O)cc(C(=O)N2CCN(C3CCC3)C(C)C2)n1C1CCC1 (protonated)
C=c1c(=Cc2[n-]c(=O)[n-]c2O)cc(C(=O)N2CCN(C3CCC3)[C@@H](C)C2)n1C1CCC1 (chirality)
C=c1/c(=C/c2[n-]c(=O)[n-]c2O)cc(C(=O)N2CCN(C3CCC3)[C@@H](C)C2)n1C1CCC1 (cis-trans isomerization)
C=c1/c(=C/c2[n-]c(=O)[n-]c2O)cc(C(=O)N2CCN(C3CCC3)[C@@H](C)C2)n1C1CCC1 (3D coordinates assigned)
C=c1/c(=C/c2[n-]c(=O)[n-]c2O)cc(C(=O)N2CCN(C3CCC3)[C@@H](C)C2)n1C1CCC1 (nonaromatic ring conformer: 273.4833436870103 kcal/mol)

>  <smiles>  (55) 
C=c1c(=Cc2[nH]c(=O)[nH]c2O)cc(C(=O)N2CCN(C3CCC3)C(C)C2)n1C1CCC1

>  <score_type>  (55) 
oracle

>  <origin>  (55) 
adg

>  <m_score__min__energy>  (55) 
-14.08

>  <m_primary>  (55) 
energy

$$$$
55:0
     RDKit          3D

 41 44  0  0  0  0  0  0  0  0999 V2000
   54.3370   29.3480   44.2650 H   0  0  0  0  0  0  0  0  0  0  0  0
   55.1570   29.3730   44.9110 N   0  0  0  0  0  0  0  0  0  0  0  0
   56.5490   29.7060   43.9430 S   0  0  0  0  0  0  0  0  0  0  0  0
   56.1170   30.1120   42.5620 O   0  0  0  0  0  0  0  0  0  0  0  0
   57.3930   28.4670   43.8390 O   0  0  0  0  0  0  0  0  0  0  0  0
   57.4820   31.0040   44.6810 C   0  0  0  0  0  0  0  0  0  0  0  0
   58.6480   30.7140   45.4030 C   0  0  0  0  0  0  0  0  0  0  0  0
   58.9873   29.6723   45.5019 H   0  0  0  0  0  0  0  0  0  0  0  0
   59.3810   31.7460   45.9980 C   0  0  0  0  0  0  0  0  0  0  0  0
   60.2869   31.5113   46.5762 H   0  0  0  0  0  0  0  0  0  0  0  0
   58.9670   33.0760   45.8610 C   0  0  0  0  0  0  0  0  0  0  0  0
   59.7070   34.1120   46.5190 N   0  0  0  0  0  0  0  0  0  0  0  0
   60.1190   34.1060   47.7550 C   0  0  0  0  0  0  0  0  0  0  0  0
   59.2640   34.0330   48.8010 N   0  0  0  0  0  0  0  0  0  0  0  0
   60.1080   33.9340   49.8550 C   0  0  0  0  0  0  0  0  0  0  0  0
   59.6730   33.7420   51.0670 N   0  0  0  0  0  0  0  0  0  0  0  0
   59.1590   32.4990   51.6270 C   0  0  0  0  0  0  0  0  0  0  0  0
   59.5528   32.6143   52.6476 H   0  0  0  0  0  0  0  0  0  0  0  0
   57.8350   32.1120   50.9880 C   0  0  0  0  0  0  0  0  0  0  0  0
   57.0488   31.6391   51.5949 H   0  0  0  0  0  0  0  0  0  0  0  0
   57.0669   32.6437   50.4072 H   0  0  0  0  0  0  0  0  0  0  0  0
   59.0960   31.3410   50.6460 C   0  0  0  0  0  0  0  0  0  0  0  0
   59.2237   30.3090   51.0048 H   0  0  0  0  0  0  0  0  0  0  0  0
   59.6202   31.0823   49.7142 H   0  0  0  0  0  0  0  0  0  0  0  0
   61.4050   33.9760   49.4620 N   0  0  0  0  0  0  0  0  0  0  0  0
   61.4080   34.0690   48.1600 N   0  0  0  0  0  0  0  0  0  0  0  0
   62.6160   33.5510   47.5460 C   0  0  0  0  0  0  0  0  0  0  0  0
   62.3803   32.7658   46.8126 H   0  0  0  0  0  0  0  0  0  0  0  0
   63.1792   34.3150   46.9900 H   0  0  0  0  0  0  0  0  0  0  0  0
   63.4010   32.9720   48.7450 C   0  0  0  0  0  0  0  0  0  0  0  0
   63.3600   31.5880   48.7050 F   0  0  0  0  0  0  0  0  0  0  0  0
   64.7250   33.3850   48.7100 F   0  0  0  0  0  0  0  0  0  0  0  0
   62.6550   33.4820   50.0100 C   0  0  1  0  0  0  0  0  0  0  0  0
   62.5259   32.7129   50.7858 H   0  0  0  0  0  0  0  0  0  0  0  0
   63.4000   34.5790   50.6280 N   0  0  0  0  0  0  0  0  0  0  0  0
   64.4220   34.4410   50.4660 H   0  0  0  0  0  0  0  0  0  0  0  0
   63.1350   35.4660   50.1400 H   0  0  0  0  0  0  0  0  0  0  0  0
   57.7750   33.3610   45.1770 C   0  0  0  0  0  0  0  0  0  0  0  0
   57.4164   34.3987   45.1098 H   0  0  0  0  0  0  0  0  0  0  0  0
   57.0420   32.3310   44.5810 C   0  0  0  0  0  0  0  0  0  0  0  0
   56.1173   32.5624   44.0320 H   0  0  0  0  0  0  0  0  0  0  0  0
  1  2  1  0
  2  3  1  0
  3  4  2  0
  3  5  2  0
  3  6  1  0
  6  7  2  0
  7  8  1  0
  7  9  1  0
  9 10  1  0
  9 11  2  0
 11 12  1  0
 12 13  2  3
 13 14  1  0
 14 15  1  0
 15 16  2  0
 16 17  1  0
 17 18  1  0
 17 19  1  0
 19 20  1  0
 19 21  1  0
 19 22  1  0
 22 23  1  0
 22 24  1  0
 15 25  1  0
 25 26  1  0
 26 27  1  0
 27 28  1  0
 27 29  1  0
 27 30  1  0
 30 31  1  0
 30 32  1  0
 30 33  1  0
 33 34  1  1
 33 35  1  0
 35 36  1  0
 35 37  1  0
 11 38  1  0
 38 39  1  0
 38 40  2  0
 40 41  1  0
 40  6  1  0
 26 13  1  0
 22 17  1  0
 33 25  1  0
M  CHG  2   2  -1  14  -1
M  END
>  <UniqueID>  (56) 
52

>  <SMILES>  (56) 
[NH-]S(=O)(=O)c1ccc(N=c2[n-]/c(=N/C3CC3)n3n2CC(F)(F)[C@H]3N)cc1

>  <Energy>  (56) 
377.82537562150986

>  <Genealogy>  (56) 
[NH-]S(=O)(=O)c1ccc(N=c2[n-]c(=NC3CC3)n3n2CC(F)(F)C3N)cc1 (protonated)
[NH-]S(=O)(=O)c1ccc(N=c2[n-]c(=NC3CC3)n3n2CC(F)(F)[C@H]3N)cc1 (chirality)
[NH-]S(=O)(=O)c1ccc(N=c2[n-]/c(=N/C3CC3)n3n2CC(F)(F)[C@H]3N)cc1 (cis-trans isomerization)
[NH-]S(=O)(=O)c1ccc(N=c2[n-]/c(=N/C3CC3)n3n2CC(F)(F)[C@H]3N)cc1 (3D coordinates assigned)
[NH-]S(=O)(=O)c1ccc(N=c2[n-]/c(=N/C3CC3)n3n2CC(F)(F)[C@H]3N)cc1 (nonaromatic ring conformer: 377.82537562150986 kcal/mol)

>  <smiles>  (56) 
NC1n2c(=NC3CC3)[nH]c(=Nc3ccc(S(N)(=O)=O)cc3)n2CC1(F)F

>  <score_type>  (56) 
oracle

>  <origin>  (56) 
adg

>  <m_score__min__energy>  (56) 
-11.039999999999999

>  <m_primary>  (56) 
energy

$$$$
56:0
     RDKit          3D

 36 38  0  0  0  0  0  0  0  0999 V2000
   59.3300   30.0260   48.2820 C   0  0  0  0  0  0  0  0  0  0  0  0
   58.6150   30.1250   47.1510 C   0  0  0  0  0  0  0  0  0  0  0  0
   58.0470   28.8680   46.5380 C   0  0  0  0  0  0  0  0  0  0  0  0
   57.1130   29.1690   45.4110 C   0  0  0  0  0  0  0  0  0  0  0  0
   56.0930   28.4470   45.2450 O   0  0  0  0  0  0  0  0  0  0  0  0
   57.3790   30.3180   44.5230 C   0  0  0  0  0  0  0  0  0  0  0  0
   57.0530   30.2920   43.1450 C   0  0  0  0  0  0  0  0  0  0  0  0
   56.5840   29.1440   42.5010 O   0  0  0  0  0  0  0  0  0  0  0  0
   57.2330   31.4370   42.3710 C   0  0  0  0  0  0  0  0  0  0  0  0
   57.7590   32.5970   42.9310 C   0  0  0  0  0  0  0  0  0  0  0  0
   58.1270   32.6350   44.2830 C   0  0  0  0  0  0  0  0  0  0  0  0
   58.6540   33.9100   44.8280 C   0  0  0  0  0  0  0  0  0  0  0  0
   57.9050   34.9210   44.8770 O   0  0  0  0  0  0  0  0  0  0  0  0
   60.0270   34.0520   45.2180 N   0  0  0  0  0  0  0  0  0  0  0  0
   60.5370   33.9900   46.5580 C   0  0  0  0  0  0  0  0  0  0  0  0
   59.6960   34.3500   47.6200 C   0  0  0  0  0  0  0  0  0  0  0  0
   60.1580   34.2870   48.9390 C   0  0  0  0  0  0  0  0  0  0  0  0
   61.4580   33.8500   49.2060 C   0  0  0  0  0  0  0  0  0  0  0  0
   62.2940   33.4650   48.1550 C   0  0  0  0  0  0  0  0  0  0  0  0
   61.8360   33.5260   46.8350 C   0  0  0  0  0  0  0  0  0  0  0  0
   57.9660   31.4760   45.0860 C   0  0  0  0  0  0  0  0  0  0  0  0
   58.3600   31.4960   46.5540 C   0  0  0  0  0  0  0  0  0  0  0  0
   59.7532   30.9291   48.7460 H   0  0  0  0  0  0  0  0  0  0  0  0
   59.4929   29.0417   48.7453 H   0  0  0  0  0  0  0  0  0  0  0  0
   58.8755   28.2521   46.1581 H   0  0  0  0  0  0  0  0  0  0  0  0
   57.4807   28.3356   47.3164 H   0  0  0  0  0  0  0  0  0  0  0  0
   56.3000   28.3060   42.9900 H   0  0  0  0  0  0  0  0  0  0  0  0
   56.9564   31.4235   41.3064 H   0  0  0  0  0  0  0  0  0  0  0  0
   57.8874   33.4933   42.3064 H   0  0  0  0  0  0  0  0  0  0  0  0
   58.6680   34.6836   47.4154 H   0  0  0  0  0  0  0  0  0  0  0  0
   59.4968   34.5819   49.7672 H   0  0  0  0  0  0  0  0  0  0  0  0
   61.8229   33.8091   50.2429 H   0  0  0  0  0  0  0  0  0  0  0  0
   63.3146   33.1132   48.3661 H   0  0  0  0  0  0  0  0  0  0  0  0
   62.4931   33.2104   46.0112 H   0  0  0  0  0  0  0  0  0  0  0  0
   59.2787   32.0924   46.6560 H   0  0  0  0  0  0  0  0  0  0  0  0
   57.5085   31.9249   47.1027 H   0  0  0  0  0  0  0  0  0  0  0  0
  1  2  2  0
  2  3  1  0
  3  4  1  0
  4  5  2  0
  4  6  1  0
  6  7  2  0
  7  8  1  0
  7  9  1  0
  9 10  2  0
 10 11  1  0
 11 12  1  0
 12 13  2  0
 12 14  1  0
 14 15  1  0
 15 16  2  0
 16 17  1  0
 17 18  2  0
 18 19  1  0
 19 20  2  0
 11 21  2  0
 21 22  1  0
 22  2  1  0
 21  6  1  0
 20 15  1  0
  1 23  1  0
  1 24  1  0
  3 25  1  0
  3 26  1  0
  8 27  1  0
  9 28  1  0
 10 29  1  0
 16 30  1  0
 17 31  1  0
 18 32  1  0
 19 33  1  0
 20 34  1  0
 22 35  1  0
 22 36  1  0
M  CHG  1  14  -1
M  END
>  <UniqueID>  (57) 
53

>  <SMILES>  (57) 
C=C1CC(=O)c2c(O)ccc(C(=O)[N-]c3ccccc3)c2C1

>  <Energy>  (57) 
54.72389232181867

>  <Genealogy>  (57) 
C=C1CC(=O)c2c(O)ccc(C(=O)[N-]c3ccccc3)c2C1 (protonated)
C=C1CC(=O)c2c(O)ccc(C(=O)[N-]c3ccccc3)c2C1 (3D coordinates assigned)
C=C1CC(=O)c2c(O)ccc(C(=O)[N-]c3ccccc3)c2C1 (nonaromatic ring conformer: 54.72389232181867 kcal/mol)

>  <smiles>  (57) 
C=C1CC(=O)c2c(O)ccc(C(=O)Nc3ccccc3)c2C1

>  <score_type>  (57) 
oracle

>  <origin>  (57) 
adg

>  <m_score__min__energy>  (57) 
-8.8800000000000008

>  <m_primary>  (57) 
energy

$$$$
57:0
     RDKit          3D

 41 44  0  0  0  0  0  0  0  0999 V2000
   60.6406   29.7840   46.1138 H   0  0  0  0  0  0  0  0  0  0  0  0
   60.0420   28.8950   45.8660 C   0  0  0  0  0  0  0  0  0  0  0  0
   60.4650   27.8897   46.0090 H   0  0  0  0  0  0  0  0  0  0  0  0
   58.7950   29.0370   45.3890 C   0  0  0  0  0  0  0  0  0  0  0  0
   57.9200   28.0050   45.0320 C   0  0  0  0  0  0  0  0  0  0  0  0
   58.1460   26.6780   45.1120 C   0  0  0  0  0  0  0  0  0  0  0  0
   58.9184   26.2453   44.4592 H   0  0  0  0  0  0  0  0  0  0  0  0
   57.4210   25.7720   46.0210 C   0  0  0  0  0  0  0  0  0  0  0  0
   56.0840   25.8020   46.3670 C   0  0  0  0  0  0  0  0  0  0  0  0
   55.1500   26.7380   45.9400 O   0  0  0  0  0  0  0  0  0  0  0  0
   55.7760   24.7490   47.1490 N   0  0  0  0  0  0  0  0  0  0  0  0
   56.9510   24.0890   47.2410 C   0  0  0  0  0  0  0  0  0  0  0  0
   57.0870   23.0230   47.8950 O   0  0  0  0  0  0  0  0  0  0  0  0
   57.9610   24.6670   46.5610 N   0  0  0  0  0  0  0  0  0  0  0  0
   58.9450   24.3300   46.4720 H   0  0  0  0  0  0  0  0  0  0  0  0
   56.7370   28.6160   44.6410 C   0  0  0  0  0  0  0  0  0  0  0  0
   55.8169   28.1127   44.3091 H   0  0  0  0  0  0  0  0  0  0  0  0
   56.9380   29.9770   44.7490 C   0  0  0  0  0  0  0  0  0  0  0  0
   55.8960   31.0140   44.4600 C   0  0  0  0  0  0  0  0  0  0  0  0
   55.4992   31.4089   45.4069 H   0  0  0  0  0  0  0  0  0  0  0  0
   56.3454   31.8338   43.8805 H   0  0  0  0  0  0  0  0  0  0  0  0
   55.0783   30.5606   43.8805 H   0  0  0  0  0  0  0  0  0  0  0  0
   58.1830   30.2350   45.2090 N   0  0  0  0  0  0  0  0  0  0  0  0
   58.7370   31.5410   45.4490 C   0  0  0  0  0  0  0  0  0  0  0  0
   58.2450   32.6540   44.7520 C   0  0  0  0  0  0  0  0  0  0  0  0
   57.4274   32.5294   44.0267 H   0  0  0  0  0  0  0  0  0  0  0  0
   58.7900   33.9200   44.9760 C   0  0  0  0  0  0  0  0  0  0  0  0
   58.4056   34.7890   44.4219 H   0  0  0  0  0  0  0  0  0  0  0  0
   59.8230   34.0850   45.9030 C   0  0  0  0  0  0  0  0  0  0  0  0
   60.2562   35.0827   46.0673 H   0  0  0  0  0  0  0  0  0  0  0  0
   60.3110   32.9840   46.6260 C   0  0  0  0  0  0  0  0  0  0  0  0
   61.4140   33.1670   47.5910 C   0  0  0  0  0  0  0  0  0  0  0  0
   63.0430   33.2470   47.1720 S   0  0  0  0  0  0  0  0  0  0  0  0
   63.6370   33.4600   48.7300 C   0  0  0  0  0  0  0  0  0  0  0  0
   64.6963   33.5626   49.0083 H   0  0  0  0  0  0  0  0  0  0  0  0
   62.5600   33.4840   49.6040 C   0  0  0  0  0  0  0  0  0  0  0  0
   62.6711   33.6172   50.6902 H   0  0  0  0  0  0  0  0  0  0  0  0
   61.3170   33.3230   48.9760 C   0  0  0  0  0  0  0  0  0  0  0  0
   59.6800   33.4470   49.9590 Br  0  0  0  0  0  0  0  0  0  0  0  0
   59.7700   31.7100   46.3840 C   0  0  0  0  0  0  0  0  0  0  0  0
   60.1589   30.8387   46.9314 H   0  0  0  0  0  0  0  0  0  0  0  0
  1  2  1  0
  2  3  1  0
  2  4  2  0
  4  5  1  0
  5  6  2  0
  6  7  1  0
  6  8  1  0
  8  9  2  0
  9 10  1  0
  9 11  1  0
 11 12  1  0
 12 13  2  0
 12 14  1  0
 14 15  1  0
  5 16  1  0
 16 17  1  0
 16 18  2  0
 18 19  1  0
 19 20  1  0
 19 21  1  0
 19 22  1  0
 18 23  1  0
 23 24  1  0
 24 25  2  0
 25 26  1  0
 25 27  1  0
 27 28  1  0
 27 29  2  0
 29 30  1  0
 29 31  1  0
 31 32  1  0
 32 33  1  0
 33 34  1  0
 34 35  1  0
 34 36  2  0
 36 37  1  0
 36 38  1  0
 38 39  1  0
 31 40  2  0
 40 41  1  0
 23  4  1  0
 40 24  1  0
 14  8  1  0
 38 32  2  0
M  CHG  2  10  -1  11  -1
M  END
>  <UniqueID>  (58) 
54

>  <SMILES>  (58) 
C=c1/c(=C/c2[nH]c(=O)[n-]c2[O-])cc(C)n1-c1cccc(-c2sccc2Br)c1

>  <Energy>  (58) 
148.11942825051204

>  <Genealogy>  (58) 
C=c1c(=Cc2[nH]c(=O)[n-]c2[O-])cc(C)n1-c1cccc(-c2sccc2Br)c1 (protonated)
C=c1/c(=C/c2[nH]c(=O)[n-]c2[O-])cc(C)n1-c1cccc(-c2sccc2Br)c1 (cis-trans isomerization)
C=c1/c(=C/c2[nH]c(=O)[n-]c2[O-])cc(C)n1-c1cccc(-c2sccc2Br)c1 (3D coordinates assigned)
C=c1/c(=C/c2[nH]c(=O)[n-]c2[O-])cc(C)n1-c1cccc(-c2sccc2Br)c1 (optimized conformer: 148.11942825051204 kcal/mol)

>  <smiles>  (58) 
C=c1c(=Cc2[nH]c(=O)[nH]c2O)cc(C)n1-c1cccc(-c2sccc2Br)c1

>  <score_type>  (58) 
oracle

>  <origin>  (58) 
adg

>  <m_score__min__energy>  (58) 
-15.24

>  <m_primary>  (58) 
energy

$$$$
58:0
     RDKit          3D

 53 56  0  0  0  0  0  0  0  0999 V2000
   59.3740   35.7340   49.6120 H   0  0  0  0  0  0  0  0  0  0  0  0
   59.8970   34.9450   49.2550 O   0  0  0  0  0  0  0  0  0  0  0  0
   59.4710   34.2360   48.1340 C   0  0  0  0  0  0  0  0  0  0  0  0
   58.9020   32.9690   48.2930 C   0  0  0  0  0  0  0  0  0  0  0  0
   58.7952   32.5384   49.2995 H   0  0  0  0  0  0  0  0  0  0  0  0
   58.4680   32.2470   47.1760 C   0  0  0  0  0  0  0  0  0  0  0  0
   58.0256   31.2485   47.3070 H   0  0  0  0  0  0  0  0  0  0  0  0
   58.5950   32.7920   45.8890 C   0  0  0  0  0  0  0  0  0  0  0  0
   58.1630   31.9980   44.6840 C   0  0  0  0  0  0  0  0  0  0  0  0
   58.6908   31.0329   44.6781 H   0  0  0  0  0  0  0  0  0  0  0  0
   58.4065   32.5688   43.7758 H   0  0  0  0  0  0  0  0  0  0  0  0
   56.6510   31.7460   44.7210 C   0  0  0  0  0  0  0  0  0  0  0  0
   56.1547   32.4238   44.0109 H   0  0  0  0  0  0  0  0  0  0  0  0
   56.2873   31.9298   45.7427 H   0  0  0  0  0  0  0  0  0  0  0  0
   56.3470   30.3620   44.3560 N   0  0  0  0  0  0  0  0  0  0  0  0
   56.7410   29.3130   45.0150 C   0  0  0  0  0  0  0  0  0  0  0  0
   55.9010   28.2650   45.2330 N   0  0  0  0  0  0  0  0  0  0  0  0
   56.3290   27.1760   45.9180 C   0  0  0  0  0  0  0  0  0  0  0  0
   55.4560   26.1060   46.1250 O   0  0  0  0  0  0  0  0  0  0  0  0
   55.8960   24.7540   46.1700 C   0  0  0  0  0  0  0  0  0  0  0  0
   55.9993   24.4367   47.2182 H   0  0  0  0  0  0  0  0  0  0  0  0
   55.1604   24.1120   45.6633 H   0  0  0  0  0  0  0  0  0  0  0  0
   56.8685   24.6679   45.6633 H   0  0  0  0  0  0  0  0  0  0  0  0
   57.6010   27.1390   46.3930 N   0  0  0  0  0  0  0  0  0  0  0  0
   58.4430   28.1880   46.1940 C   0  0  0  0  0  0  0  0  0  0  0  0
   59.6700   28.1630   46.6250 N   0  0  0  0  0  0  0  0  0  0  0  0
   60.1130   28.3100   47.9860 C   0  0  0  0  0  0  0  0  0  0  0  0
   60.4370   27.2000   48.7900 C   0  0  0  0  0  0  0  0  0  0  0  0
   60.3695   26.1833   48.3755 H   0  0  0  0  0  0  0  0  0  0  0  0
   60.8440   27.3880   50.1130 C   0  0  0  0  0  0  0  0  0  0  0  0
   61.1196   26.5204   50.7305 H   0  0  0  0  0  0  0  0  0  0  0  0
   60.9020   28.6740   50.6540 C   0  0  0  0  0  0  0  0  0  0  0  0
   61.2430   28.8165   51.6901 H   0  0  0  0  0  0  0  0  0  0  0  0
   60.5290   29.7820   49.8860 C   0  0  0  0  0  0  0  0  0  0  0  0
   60.5970   31.0580   50.4660 O   0  0  0  0  0  0  0  0  0  0  0  0
   59.5380   31.7170   51.1080 C   0  0  0  0  0  0  0  0  0  0  0  0
   59.7830   32.9610   51.7040 C   0  0  0  0  0  0  0  0  0  0  0  0
   60.7878   33.4052   51.6491 H   0  0  0  0  0  0  0  0  0  0  0  0
   58.7580   33.6410   52.3680 C   0  0  0  0  0  0  0  0  0  0  0  0
   58.9565   34.6202   52.8281 H   0  0  0  0  0  0  0  0  0  0  0  0
   57.4810   33.0780   52.4480 C   0  0  0  0  0  0  0  0  0  0  0  0
   56.6729   33.6176   52.9635 H   0  0  0  0  0  0  0  0  0  0  0  0
   57.2320   31.8300   51.8730 C   0  0  0  0  0  0  0  0  0  0  0  0
   56.2286   31.3845   51.9413 H   0  0  0  0  0  0  0  0  0  0  0  0
   58.2550   31.1460   51.2110 C   0  0  0  0  0  0  0  0  0  0  0  0
   58.0574   30.1583   50.7689 H   0  0  0  0  0  0  0  0  0  0  0  0
   60.1430   29.5930   48.5460 C   0  0  0  0  0  0  0  0  0  0  0  0
   59.8621   30.4617   47.9325 H   0  0  0  0  0  0  0  0  0  0  0  0
   58.0100   29.2670   45.4950 N   0  0  0  0  0  0  0  0  0  0  0  0
   59.1790   34.0590   45.7320 C   0  0  0  0  0  0  0  0  0  0  0  0
   59.2985   34.4865   44.7255 H   0  0  0  0  0  0  0  0  0  0  0  0
   59.6090   34.7790   46.8500 C   0  0  0  0  0  0  0  0  0  0  0  0
   60.0572   35.7753   46.7213 H   0  0  0  0  0  0  0  0  0  0  0  0
  1  2  1  0
  2  3  1  0
  3  4  2  0
  4  5  1  0
  4  6  1  0
  6  7  1  0
  6  8  2  0
  8  9  1  0
  9 10  1  0
  9 11  1  0
  9 12  1  0
 12 13  1  0
 12 14  1  0
 12 15  1  0
 15 16  2  0
 16 17  1  0
 17 18  1  0
 18 19  1  0
 19 20  1  0
 20 21  1  0
 20 22  1  0
 20 23  1  0
 18 24  2  0
 24 25  1  0
 25 26  2  0
 26 27  1  0
 27 28  2  0
 28 29  1  0
 28 30  1  0
 30 31  1  0
 30 32  2  0
 32 33  1  0
 32 34  1  0
 34 35  1  0
 35 36  1  0
 36 37  2  0
 37 38  1  0
 37 39  1  0
 39 40  1  0
 39 41  2  0
 41 42  1  0
 41 43  1  0
 43 44  1  0
 43 45  2  0
 45 46  1  0
 34 47  2  0
 47 48  1  0
 25 49  1  0
  8 50  1  0
 50 51  1  0
 50 52  2  0
 52 53  1  0
 52  3  1  0
 49 16  1  0
 47 27  1  0
 45 36  1  0
M  CHG  2  17  -1  49  -1
M  END
>  <UniqueID>  (59) 
55

>  <SMILES>  (59) 
COc1n/c(=N\c2cccc(Oc3ccccc3)c2)[n-]/c(=N/CCc2ccc(O)cc2)[n-]1

>  <Energy>  (59) 
65.35435072444795

>  <Genealogy>  (59) 
COc1nc(=Nc2cccc(Oc3ccccc3)c2)[n-]c(=NCCc2ccc(O)cc2)[n-]1 (protonated)
COc1n/c(=N\c2cccc(Oc3ccccc3)c2)[n-]/c(=N/CCc2ccc(O)cc2)[n-]1 (cis-trans isomerization)
COc1n/c(=N\c2cccc(Oc3ccccc3)c2)[n-]/c(=N/CCc2ccc(O)cc2)[n-]1 (3D coordinates assigned)
COc1n/c(=N\c2cccc(Oc3ccccc3)c2)[n-]/c(=N/CCc2ccc(O)cc2)[n-]1 (optimized conformer: 65.35435072444795 kcal/mol)

>  <smiles>  (59) 
COc1nc(=Nc2cccc(Oc3ccccc3)c2)[nH]c(=NCCc2ccc(O)cc2)[nH]1

>  <score_type>  (59) 
oracle

>  <origin>  (59) 
adg

>  <m_score__min__energy>  (59) 
-12.220000000000001

>  <m_primary>  (59) 
energy

$$$$
59:0
     RDKit          3D

 37 39  0  0  0  0  0  0  0  0999 V2000
   57.7757   27.0498   43.9051 H   0  0  0  0  0  0  0  0  0  0  0  0
   57.6600   27.2240   44.9850 C   0  0  0  0  0  0  0  0  0  0  0  0
   57.1590   26.0950   45.7920 C   0  0  0  0  0  0  0  0  0  0  0  0
   57.9580   25.1530   46.3220 N   0  0  0  0  0  0  0  0  0  0  0  0
   57.1110   24.3980   47.0530 C   0  0  0  0  0  0  0  0  0  0  0  0
   57.4900   23.3870   47.7010 O   0  0  0  0  0  0  0  0  0  0  0  0
   55.8270   24.8160   47.0450 N   0  0  0  0  0  0  0  0  0  0  0  0
   55.8760   25.8990   46.2530 C   0  0  0  0  0  0  0  0  0  0  0  0
   54.7780   26.7080   45.9880 O   0  0  0  0  0  0  0  0  0  0  0  0
   57.9920   28.4570   45.4460 C   0  0  0  0  0  0  0  0  0  0  0  0
   58.6790   28.5090   46.6770 C   0  0  0  0  0  0  0  0  0  0  0  0
   59.0331   27.5730   47.1337 H   0  0  0  0  0  0  0  0  0  0  0  0
   58.9210   29.7210   47.3310 C   0  0  0  0  0  0  0  0  0  0  0  0
   59.6020   29.7000   48.6050 C   0  0  0  0  0  0  0  0  0  0  0  0
   60.1470   29.6830   49.6250 N   0  0  0  0  0  0  0  0  0  0  0  0
   58.5050   30.9290   46.7470 C   0  0  0  0  0  0  0  0  0  0  0  0
   58.7130   32.2200   47.4510 C   0  0  0  0  0  0  0  0  0  0  0  0
   58.0748   32.4326   48.3214 H   0  0  0  0  0  0  0  0  0  0  0  0
   59.6210   33.1480   47.1060 C   0  0  0  0  0  0  0  0  0  0  0  0
   59.2910   33.9551   46.4354 H   0  0  0  0  0  0  0  0  0  0  0  0
   61.0300   33.1700   47.5570 C   0  0  0  0  0  0  0  0  0  0  0  0
   61.3300   32.8150   48.8810 C   0  0  0  0  0  0  0  0  0  0  0  0
   60.5186   32.5374   49.5699 H   0  0  0  0  0  0  0  0  0  0  0  0
   62.6550   32.8120   49.3300 C   0  0  0  0  0  0  0  0  0  0  0  0
   62.8809   32.5456   50.3731 H   0  0  0  0  0  0  0  0  0  0  0  0
   63.6920   33.1470   48.4550 C   0  0  0  0  0  0  0  0  0  0  0  0
   64.9750   33.1440   48.8920 F   0  0  0  0  0  0  0  0  0  0  0  0
   63.4060   33.4750   47.1270 C   0  0  0  0  0  0  0  0  0  0  0  0
   64.2230   33.7321   46.4368 H   0  0  0  0  0  0  0  0  0  0  0  0
   62.0830   33.4770   46.6740 C   0  0  0  0  0  0  0  0  0  0  0  0
   61.8640   33.7194   45.6236 H   0  0  0  0  0  0  0  0  0  0  0  0
   57.8700   30.9010   45.4970 C   0  0  0  0  0  0  0  0  0  0  0  0
   57.5133   31.8425   45.0540 H   0  0  0  0  0  0  0  0  0  0  0  0
   57.6790   29.6960   44.7970 C   0  0  0  0  0  0  0  0  0  0  0  0
   57.3240   29.7870   43.5010 C   0  0  0  0  0  0  0  0  0  0  0  0
   57.1626   28.8737   42.9095 H   0  0  0  0  0  0  0  0  0  0  0  0
   57.1955   30.7746   43.0340 H   0  0  0  0  0  0  0  0  0  0  0  0
  1  2  1  0
  2  3  1  0
  3  4  1  0
  4  5  1  0
  5  6  2  0
  5  7  1  0
  7  8  1  0
  8  9  1  0
  2 10  2  3
 10 11  1  0
 11 12  1  0
 11 13  2  0
 13 14  1  0
 14 15  3  0
 13 16  1  0
 16 17  1  0
 17 18  1  0
 17 19  2  0
 19 20  1  0
 19 21  1  0
 21 22  2  0
 22 23  1  0
 22 24  1  0
 24 25  1  0
 24 26  2  0
 26 27  1  0
 26 28  1  0
 28 29  1  0
 28 30  2  0
 30 31  1  0
 16 32  2  0
 32 33  1  0
 32 34  1  0
 34 35  2  0
 35 36  1  0
 35 37  1  0
  8  3  2  0
 34 10  1  0
 30 21  1  0
M  CHG  3   4  -1   7  -1   9  -1
M  END
>  <UniqueID>  (60) 
56

>  <SMILES>  (60) 
C=c1cc(/C=C\c2ccc(F)cc2)c(C#N)cc1=Cc1[n-]c(=O)[n-]c1[O-]

>  <Energy>  (60) 
100.72100388227622

>  <Genealogy>  (60) 
C=c1cc(C=Cc2ccc(F)cc2)c(C#N)cc1=Cc1[n-]c(=O)[n-]c1[O-] (protonated)
C=c1cc(/C=C\c2ccc(F)cc2)c(C#N)cc1=Cc1[n-]c(=O)[n-]c1[O-] (cis-trans isomerization)
C=c1cc(/C=C\c2ccc(F)cc2)c(C#N)cc1=Cc1[n-]c(=O)[n-]c1[O-] (3D coordinates assigned)
C=c1cc(/C=C\c2ccc(F)cc2)c(C#N)cc1=Cc1[n-]c(=O)[n-]c1[O-] (optimized conformer: 100.72100388227622 kcal/mol)

>  <smiles>  (60) 
C=c1cc(C=Cc2ccc(F)cc2)c(C#N)cc1=Cc1[nH]c(=O)[nH]c1O

>  <score_type>  (60) 
oracle

>  <origin>  (60) 
adg

>  <m_score__min__energy>  (60) 
-16.190000000000001

>  <m_primary>  (60) 
energy

$$$$
60:0
     RDKit          3D

 54 57  0  0  1  0  0  0  0  0999 V2000
   58.5770   31.1950   48.9630 O   0  0  0  0  0  0  0  0  0  0  0  0
   58.6990   32.4160   48.6240 C   0  0  0  0  0  0  0  0  0  0  0  0
   58.9390   33.3020   49.6760 O   0  0  0  0  0  0  0  0  0  0  0  0
   58.5980   32.8510   47.2400 C   0  0  0  0  0  0  0  0  0  0  0  0
   58.0360   31.9870   46.3350 C   0  0  0  0  0  0  0  0  0  0  0  0
   57.9070   32.3360   45.0000 C   0  0  0  0  0  0  0  0  0  0  0  0
   57.1760   31.1590   43.9230 S   0  0  0  0  0  0  0  0  0  0  0  0
   57.0230   31.6970   42.5430 O   0  0  0  0  0  0  0  0  0  0  0  0
   55.7960   30.8220   44.4140 O   0  0  0  0  0  0  0  0  0  0  0  0
   58.0930   29.6940   43.8950 N   0  0  0  0  0  0  0  0  0  0  0  0
   58.5920   29.1040   45.0900 C   0  0  0  0  0  0  0  0  0  0  0  0
   59.9330   29.0510   45.4070 C   0  0  0  0  0  0  0  0  0  0  0  0
   60.4150   28.4780   46.5660 C   0  0  0  0  0  0  0  0  0  0  0  0
   59.5100   27.9300   47.4560 C   0  0  0  0  0  0  0  0  0  0  0  0
   60.0310   27.3430   48.6470 N   0  0  0  0  0  0  0  0  0  0  0  0
   60.6310   28.0930   49.5100 C   0  0  0  0  0  0  0  0  0  0  0  0
   61.1900   27.4640   50.5700 N   0  0  0  0  0  0  0  0  0  0  0  0
   61.8400   28.1550   51.5280 C   0  0  0  0  0  0  0  0  0  0  0  0
   61.9080   29.5240   51.3740 C   0  0  0  0  0  0  0  0  0  0  0  0
   61.3330   30.1420   50.2880 C   0  0  0  0  0  0  0  0  0  0  0  0
   61.4400   31.4250   50.2200 N   0  0  0  0  0  0  0  0  0  0  0  0
   62.0830   32.0340   49.0970 C   0  0  0  0  0  0  0  0  0  0  0  0
   62.7710   31.2170   48.2020 C   0  0  0  0  0  0  0  0  0  0  0  0
   63.3920   31.7970   47.1180 C   0  0  0  0  0  0  0  0  0  0  0  0
   63.3590   33.1650   46.8810 C   0  0  0  0  0  0  0  0  0  0  0  0
   62.6650   33.9650   47.7880 C   0  0  0  0  0  0  0  0  0  0  0  0
   62.0270   33.4130   48.8920 C   0  0  0  0  0  0  0  0  0  0  0  0
   61.3340   34.2120   49.7980 O   0  0  0  0  0  0  0  0  0  0  0  0
   60.6860   29.4270   49.3420 N   0  0  0  0  0  0  0  0  0  0  0  0
   58.1590   27.9650   47.1710 C   0  0  0  0  0  0  0  0  0  0  0  0
   57.7050   28.5480   45.9970 C   0  0  0  0  0  0  0  0  0  0  0  0
   58.3470   33.5710   44.5590 C   0  0  0  0  0  0  0  0  0  0  0  0
   58.9170   34.4610   45.4530 C   0  0  0  0  0  0  0  0  0  0  0  0
   59.0280   34.0720   46.7830 C   0  0  0  0  0  0  0  0  0  0  0  0
   59.5990   34.9520   47.7060 O   0  0  0  0  0  0  0  0  0  0  0  0
   59.1640   34.2810   49.4710 H   0  0  0  0  0  0  0  0  0  0  0  0
   57.6823   31.0021   46.6740 H   0  0  0  0  0  0  0  0  0  0  0  0
   58.3010   29.2070   42.9870 H   0  0  0  0  0  0  0  0  0  0  0  0
   60.6545   29.4873   44.7006 H   0  0  0  0  0  0  0  0  0  0  0  0
   61.4944   28.4577   46.7770 H   0  0  0  0  0  0  0  0  0  0  0  0
   61.1270   26.4250   50.6670 H   0  0  0  0  0  0  0  0  0  0  0  0
   62.2952   27.6501   52.3928 H   0  0  0  0  0  0  0  0  0  0  0  0
   62.4291   30.1298   52.1299 H   0  0  0  0  0  0  0  0  0  0  0  0
   62.8173   30.1291   48.3583 H   0  0  0  0  0  0  0  0  0  0  0  0
   63.9354   31.1514   46.4124 H   0  0  0  0  0  0  0  0  0  0  0  0
   63.8635   33.6028   46.0070 H   0  0  0  0  0  0  0  0  0  0  0  0
   62.6218   35.0522   47.6267 H   0  0  0  0  0  0  0  0  0  0  0  0
   60.8280   33.8390   50.5900 H   0  0  0  0  0  0  0  0  0  0  0  0
   60.2520   29.9100   48.5200 H   0  0  0  0  0  0  0  0  0  0  0  0
   57.4391   27.5282   47.8788 H   0  0  0  0  0  0  0  0  0  0  0  0
   56.6261   28.5690   45.7835 H   0  0  0  0  0  0  0  0  0  0  0  0
   58.2441   33.8457   43.4988 H   0  0  0  0  0  0  0  0  0  0  0  0
   59.2719   35.4477   45.1206 H   0  0  0  0  0  0  0  0  0  0  0  0
   60.1790   34.6260   48.4830 H   0  0  0  0  0  0  0  0  0  0  0  0
  1  2  2  0
  2  3  1  0
  2  4  1  0
  4  5  2  0
  5  6  1  0
  6  7  1  0
  7  8  2  0
  7  9  2  0
  7 10  1  0
 10 11  1  0
 11 12  2  0
 12 13  1  0
 13 14  2  0
 14 15  1  0
 15 16  2  0
 16 17  1  0
 17 18  1  0
 18 19  2  0
 19 20  1  0
 20 21  2  0
 21 22  1  0
 22 23  2  0
 23 24  1  0
 24 25  2  0
 25 26  1  0
 26 27  2  0
 27 28  1  0
 20 29  1  0
 14 30  1  0
 30 31  2  0
  6 32  2  0
 32 33  1  0
 33 34  2  0
 34 35  1  0
 34  4  1  0
 31 11  1  0
 29 16  1  0
 27 22  1  0
  3 36  1  0
  5 37  1  0
 10 38  1  0
 12 39  1  0
 13 40  1  0
 17 41  1  0
 18 42  1  0
 19 43  1  0
 23 44  1  0
 24 45  1  0
 25 46  1  0
 26 47  1  0
 28 48  1  0
 29 49  1  0
 30 50  1  0
 31 51  1  0
 32 52  1  0
 33 53  1  0
 35 54  1  0
M  END
>  <smiles>  (61) 
O=C(O)c1cc(S(=O)(=O)Nc2ccc(N=c3[nH]ccc(=Nc4ccccc4O)[nH]3)cc2)ccc1O

>  <score_type>  (61) 
oracle

>  <origin>  (61) 
adg

>  <m_score__min__energy>  (61) 
-10.4

>  <m_primary>  (61) 
energy

$$$$
61:0
     RDKit          3D

 40 42  0  0  0  0  0  0  0  0999 V2000
   58.9290   22.7530   44.8810 C   0  0  0  0  0  0  0  0  0  0  0  0
   58.7150   24.0130   45.2920 C   0  0  0  0  0  0  0  0  0  0  0  0
   59.7230   24.6050   45.9890 N   0  0  0  0  0  0  0  0  0  0  0  0
   59.6370   25.8570   46.5010 C   0  0  0  0  0  0  0  0  0  0  0  0
   58.4720   26.6060   46.3340 C   0  0  0  0  0  0  0  0  0  0  0  0
   58.3760   27.9830   46.8740 C   0  0  0  0  0  0  0  0  0  0  0  0
   58.2910   28.1680   48.1180 O   0  0  0  0  0  0  0  0  0  0  0  0
   58.3930   29.1190   45.9990 N   0  0  0  0  0  0  0  0  0  0  0  0
   57.3040   29.2990   45.0280 C   0  0  0  0  0  0  0  0  0  0  0  0
   57.6530   30.3700   43.9920 C   0  0  0  0  0  0  0  0  0  0  0  0
   58.1440   31.5780   44.6640 N   0  0  0  0  0  0  0  0  0  0  0  0
   57.7560   32.8680   44.1670 C   0  0  0  0  0  0  0  0  0  0  0  0
   58.1620   33.9230   44.7230 O   0  0  0  0  0  0  0  0  0  0  0  0
   59.0820   31.4790   45.7930 C   0  0  0  0  0  0  0  0  0  0  0  0
   59.5390   30.0340   46.0290 C   0  0  0  0  0  0  0  0  0  0  0  0
   57.4160   26.0440   45.6070 C   0  0  0  0  0  0  0  0  0  0  0  0
   57.5000   24.7380   45.0670 C   0  0  0  0  0  0  0  0  0  0  0  0
   56.4760   24.2420   44.3220 C   0  0  0  0  0  0  0  0  0  0  0  0
   55.0850   24.0770   44.7890 C   0  0  0  0  0  0  0  0  0  0  0  0
   54.3770   22.9460   44.6280 N   0  0  0  0  0  0  0  0  0  0  0  0
   53.2200   23.2080   45.2730 C   0  0  0  0  0  0  0  0  0  0  0  0
   52.2760   22.3770   45.3340 O   0  0  0  0  0  0  0  0  0  0  0  0
   53.1570   24.4230   45.8570 N   0  0  0  0  0  0  0  0  0  0  0  0
   54.3520   24.9570   45.5530 C   0  0  0  0  0  0  0  0  0  0  0  0
   54.7780   26.2050   45.9950 O   0  0  0  0  0  0  0  0  0  0  0  0
   58.1521   22.2203   44.3130 H   0  0  0  0  0  0  0  0  0  0  0  0
   59.8813   22.2533   45.1123 H   0  0  0  0  0  0  0  0  0  0  0  0
   60.4890   26.2841   47.0503 H   0  0  0  0  0  0  0  0  0  0  0  0
   57.1243   28.3451   44.5105 H   0  0  0  0  0  0  0  0  0  0  0  0
   56.4043   29.6227   45.5719 H   0  0  0  0  0  0  0  0  0  0  0  0
   58.4333   29.9850   43.3190 H   0  0  0  0  0  0  0  0  0  0  0  0
   56.7512   30.6201   43.4138 H   0  0  0  0  0  0  0  0  0  0  0  0
   57.0959   32.9359   43.2897 H   0  0  0  0  0  0  0  0  0  0  0  0
   59.9638   32.1008   45.5789 H   0  0  0  0  0  0  0  0  0  0  0  0
   58.5640   31.8261   46.6992 H   0  0  0  0  0  0  0  0  0  0  0  0
   60.2516   29.7470   45.2417 H   0  0  0  0  0  0  0  0  0  0  0  0
   60.0180   29.9703   47.0172 H   0  0  0  0  0  0  0  0  0  0  0  0
   56.4989   26.6312   45.4516 H   0  0  0  0  0  0  0  0  0  0  0  0
   56.7021   23.9395   43.2889 H   0  0  0  0  0  0  0  0  0  0  0  0
   55.1430   26.3240   46.9310 H   0  0  0  0  0  0  0  0  0  0  0  0
  1  2  2  0
  2  3  1  0
  3  4  2  0
  4  5  1  0
  5  6  1  0
  6  7  2  0
  6  8  1  0
  8  9  1  0
  9 10  1  0
 10 11  1  0
 11 12  1  0
 12 13  2  0
 11 14  1  0
 14 15  1  0
  5 16  2  0
 16 17  1  0
 17 18  2  3
 18 19  1  0
 19 20  1  0
 20 21  1  0
 21 22  2  0
 21 23  1  0
 23 24  1  0
 24 25  1  0
 17  2  1  0
 24 19  2  0
 15  8  1  0
  1 26  1  0
  1 27  1  0
  4 28  1  0
  9 29  1  0
  9 30  1  0
 10 31  1  0
 10 32  1  0
 12 33  1  0
 14 34  1  0
 14 35  1  0
 15 36  1  0
 15 37  1  0
 16 38  1  0
 18 39  1  0
 25 40  1  0
M  CHG  2  20  -1  23  -1
M  END
>  <UniqueID>  (62) 
57

>  <SMILES>  (62) 
C=c1ncc(C(=O)N2CCN(C=O)CC2)cc1=Cc1[n-]c(=O)[n-]c1O

>  <Energy>  (62) 
89.22801848878711

>  <Genealogy>  (62) 
C=c1ncc(C(=O)N2CCN(C=O)CC2)cc1=Cc1[n-]c(=O)[n-]c1O (protonated)
C=c1ncc(C(=O)N2CCN(C=O)CC2)cc1=Cc1[n-]c(=O)[n-]c1O (3D coordinates assigned)
C=c1ncc(C(=O)N2CCN(C=O)CC2)cc1=Cc1[n-]c(=O)[n-]c1O (nonaromatic ring conformer: 89.22801848878711 kcal/mol)

>  <smiles>  (62) 
C=c1ncc(C(=O)N2CCN(C=O)CC2)cc1=Cc1[nH]c(=O)[nH]c1O

>  <score_type>  (62) 
oracle

>  <origin>  (62) 
adg

>  <m_score__min__energy>  (62) 
-12.119999999999999

>  <m_primary>  (62) 
energy

$$$$
62:0
     RDKit          3D

 53 56  0  0  0  0  0  0  0  0999 V2000
   58.2870   32.2130   48.6190 C   0  0  0  0  0  0  0  0  0  0  0  0
   59.0460   31.3340   47.7280 N   0  0  0  0  0  0  0  0  0  0  0  0
   59.4380   30.0630   47.9650 C   0  0  0  0  0  0  0  0  0  0  0  0
   59.3630   29.3470   49.2530 C   0  0  0  0  0  0  0  0  0  0  0  0
   59.6540   28.1220   49.2860 O   0  0  0  0  0  0  0  0  0  0  0  0
   58.9910   30.0430   50.4560 N   0  0  0  0  0  0  0  0  0  0  0  0
   58.8490   29.4150   51.7380 C   0  0  0  0  0  0  0  0  0  0  0  0
   59.9110   28.7150   52.3350 C   0  0  0  0  0  0  0  0  0  0  0  0
   59.7520   28.1380   53.5970 C   0  0  0  0  0  0  0  0  0  0  0  0
   58.5440   28.2730   54.2850 C   0  0  0  0  0  0  0  0  0  0  0  0
   57.4830   29.0010   53.7210 C   0  0  0  0  0  0  0  0  0  0  0  0
   56.2090   29.1530   54.4640 C   0  0  0  0  0  0  0  0  0  0  0  0
   56.2320   29.5840   55.6480 O   0  0  0  0  0  0  0  0  0  0  0  0
   54.9450   28.7760   53.8970 N   0  0  0  0  0  0  0  0  0  0  0  0
   53.9970   29.6580   53.2780 C   0  0  0  0  0  0  0  0  0  0  0  0
   54.3470   30.2970   52.0840 C   0  0  0  0  0  0  0  0  0  0  0  0
   53.4480   31.1620   51.4540 C   0  0  0  0  0  0  0  0  0  0  0  0
   52.1740   31.3900   52.0020 C   0  0  0  0  0  0  0  0  0  0  0  0
   51.2260   32.3090   51.3360 C   0  0  0  0  0  0  0  0  0  0  0  0
   51.3980   32.6460   50.1340 O   0  0  0  0  0  0  0  0  0  0  0  0
   50.1300   32.8120   52.0260 O   0  0  0  0  0  0  0  0  0  0  0  0
   51.8150   30.7240   53.1880 C   0  0  0  0  0  0  0  0  0  0  0  0
   52.7150   29.8600   53.8170 C   0  0  0  0  0  0  0  0  0  0  0  0
   57.6430   29.5600   52.4410 C   0  0  0  0  0  0  0  0  0  0  0  0
   59.9240   29.5260   46.7940 C   0  0  0  0  0  0  0  0  0  0  0  0
   59.8730   30.4540   45.8200 N   0  0  0  0  0  0  0  0  0  0  0  0
   59.3440   31.5430   46.4210 C   0  0  0  0  0  0  0  0  0  0  0  0
   59.1420   32.7840   45.7180 N   0  0  0  0  0  0  0  0  0  0  0  0
   57.9740   33.0810   44.9050 C   0  0  0  0  0  0  0  0  0  0  0  0
   57.9020   34.6010   44.8300 C   0  0  0  0  0  0  0  0  0  0  0  0
   59.2930   35.0940   45.2070 C   0  0  0  0  0  0  0  0  0  0  0  0
   59.9100   33.9760   46.0350 C   0  0  0  0  0  0  0  0  0  0  0  0
   58.5094   31.9554   49.6650 H   0  0  0  0  0  0  0  0  0  0  0  0
   58.5704   33.2591   48.4308 H   0  0  0  0  0  0  0  0  0  0  0  0
   57.2108   32.0851   48.4308 H   0  0  0  0  0  0  0  0  0  0  0  0
   58.7400   31.0550   50.3880 H   0  0  0  0  0  0  0  0  0  0  0  0
   60.8712   28.6211   51.8065 H   0  0  0  0  0  0  0  0  0  0  0  0
   60.5811   27.5752   54.0507 H   0  0  0  0  0  0  0  0  0  0  0  0
   58.4227   27.8068   55.2739 H   0  0  0  0  0  0  0  0  0  0  0  0
   55.3363   30.1175   51.6379 H   0  0  0  0  0  0  0  0  0  0  0  0
   53.7398   31.6683   50.5220 H   0  0  0  0  0  0  0  0  0  0  0  0
   50.8178   30.8847   53.6236 H   0  0  0  0  0  0  0  0  0  0  0  0
   52.4189   29.3359   54.7377 H   0  0  0  0  0  0  0  0  0  0  0  0
   56.8123   30.1182   51.9846 H   0  0  0  0  0  0  0  0  0  0  0  0
   60.2963   28.4980   46.6730 H   0  0  0  0  0  0  0  0  0  0  0  0
   58.0877   32.6520   43.8985 H   0  0  0  0  0  0  0  0  0  0  0  0
   57.0580   32.6512   45.3366 H   0  0  0  0  0  0  0  0  0  0  0  0
   57.6430   34.9237   43.8108 H   0  0  0  0  0  0  0  0  0  0  0  0
   57.1300   35.0063   45.5006 H   0  0  0  0  0  0  0  0  0  0  0  0
   59.8930   35.2796   44.3039 H   0  0  0  0  0  0  0  0  0  0  0  0
   59.2530   36.0409   45.7653 H   0  0  0  0  0  0  0  0  0  0  0  0
   60.9666   33.8354   45.7632 H   0  0  0  0  0  0  0  0  0  0  0  0
   59.8817   34.2037   47.1108 H   0  0  0  0  0  0  0  0  0  0  0  0
  1  2  1  0
  2  3  1  0
  3  4  1  0
  4  5  2  0
  4  6  1  0
  6  7  1  0
  7  8  2  0
  8  9  1  0
  9 10  2  0
 10 11  1  0
 11 12  1  0
 12 13  2  0
 12 14  1  0
 14 15  1  0
 15 16  2  0
 16 17  1  0
 17 18  2  0
 18 19  1  0
 19 20  2  0
 19 21  1  0
 18 22  1  0
 22 23  2  0
 11 24  2  0
  3 25  2  0
 25 26  1  0
 26 27  2  0
 27 28  1  0
 28 29  1  0
 29 30  1  0
 30 31  1  0
 31 32  1  0
 27  2  1  0
 32 28  1  0
 24  7  1  0
 23 15  1  0
  1 33  1  0
  1 34  1  0
  1 35  1  0
  6 36  1  0
  8 37  1  0
  9 38  1  0
 10 39  1  0
 16 40  1  0
 17 41  1  0
 22 42  1  0
 23 43  1  0
 24 44  1  0
 25 45  1  0
 29 46  1  0
 29 47  1  0
 30 48  1  0
 30 49  1  0
 31 50  1  0
 31 51  1  0
 32 52  1  0
 32 53  1  0
M  CHG  2  14  -1  21  -1
M  END
>  <UniqueID>  (63) 
58

>  <SMILES>  (63) 
Cn1c(C(=O)Nc2cccc(C(=O)[N-]c3ccc(C(=O)[O-])cc3)c2)cnc1N1CCCC1

>  <Energy>  (63) 
103.09784244717582

>  <Genealogy>  (63) 
Cn1c(C(=O)Nc2cccc(C(=O)[N-]c3ccc(C(=O)[O-])cc3)c2)cnc1N1CCCC1 (protonated)
Cn1c(C(=O)Nc2cccc(C(=O)[N-]c3ccc(C(=O)[O-])cc3)c2)cnc1N1CCCC1 (3D coordinates assigned)
Cn1c(C(=O)Nc2cccc(C(=O)[N-]c3ccc(C(=O)[O-])cc3)c2)cnc1N1CCCC1 (nonaromatic ring conformer: 103.09784244717582 kcal/mol)

>  <smiles>  (63) 
Cn1c(C(=O)Nc2cccc(C(=O)Nc3ccc(C(=O)O)cc3)c2)cnc1N1CCCC1

>  <score_type>  (63) 
oracle

>  <origin>  (63) 
adg

>  <m_score__min__energy>  (63) 
-13.74

>  <m_primary>  (63) 
energy

$$$$
63:0
     RDKit          3D

 50 53  0  0  0  0  0  0  0  0999 V2000
   60.4110   27.3750   45.7490 C   0  0  0  0  0  0  0  0  0  0  0  0
   59.1970   27.8610   45.4620 C   0  0  0  0  0  0  0  0  0  0  0  0
   59.0240   29.0260   44.8060 N   0  0  0  0  0  0  0  0  0  0  0  0
   57.6960   29.2290   44.7080 C   0  0  0  0  0  0  0  0  0  0  0  0
   57.0830   30.4420   44.1370 C   0  0  0  0  0  0  0  0  0  0  0  0
   55.9050   30.7570   44.4600 O   0  0  0  0  0  0  0  0  0  0  0  0
   57.8340   31.2980   43.2670 N   0  0  0  0  0  0  0  0  0  0  0  0
   57.7540   32.7520   43.3820 C   0  0  0  0  0  0  0  0  0  0  0  0
   58.1240   33.1720   44.7800 C   0  0  0  0  0  0  0  0  0  0  0  0
   57.1720   33.1560   45.8110 C   0  0  0  0  0  0  0  0  0  0  0  0
   57.5540   33.4280   47.1290 C   0  0  0  0  0  0  0  0  0  0  0  0
   58.8980   33.6950   47.4350 C   0  0  0  0  0  0  0  0  0  0  0  0
   59.3250   33.8710   48.8380 C   0  0  0  0  0  0  0  0  0  0  0  0
   59.8370   34.9620   49.2010 O   0  0  0  0  0  0  0  0  0  0  0  0
   59.2000   32.8090   49.7950 N   0  0  0  0  0  0  0  0  0  0  0  0
   59.6300   31.4550   49.5850 C   0  0  0  0  0  0  0  0  0  0  0  0
   60.7960   30.9520   50.1910 C   0  0  0  0  0  0  0  0  0  0  0  0
   61.1960   29.6320   49.9620 C   0  0  0  0  0  0  0  0  0  0  0  0
   60.4410   28.8070   49.1240 C   0  0  0  0  0  0  0  0  0  0  0  0
   59.2940   29.3080   48.5020 C   0  0  0  0  0  0  0  0  0  0  0  0
   58.8960   30.6310   48.7230 C   0  0  0  0  0  0  0  0  0  0  0  0
   59.8400   33.7580   46.3950 C   0  0  0  0  0  0  0  0  0  0  0  0
   59.4540   33.5050   45.0780 C   0  0  0  0  0  0  0  0  0  0  0  0
   57.0030   28.1920   45.3040 C   0  0  0  0  0  0  0  0  0  0  0  0
   57.9580   27.3040   45.7940 C   0  0  0  0  0  0  0  0  0  0  0  0
   57.7460   26.1550   46.4710 C   0  0  0  0  0  0  0  0  0  0  0  0
   56.6880   25.1610   46.1850 C   0  0  0  0  0  0  0  0  0  0  0  0
   56.8640   23.8360   46.0380 N   0  0  0  0  0  0  0  0  0  0  0  0
   55.6220   23.3780   45.7730 C   0  0  0  0  0  0  0  0  0  0  0  0
   55.3770   22.1590   45.5730 O   0  0  0  0  0  0  0  0  0  0  0  0
   54.6650   24.3270   45.7380 N   0  0  0  0  0  0  0  0  0  0  0  0
   55.3560   25.4480   45.9990 C   0  0  0  0  0  0  0  0  0  0  0  0
   54.7790   26.7110   46.0630 O   0  0  0  0  0  0  0  0  0  0  0  0
   60.5082   26.4200   46.2862 H   0  0  0  0  0  0  0  0  0  0  0  0
   61.3112   27.9306   45.4476 H   0  0  0  0  0  0  0  0  0  0  0  0
   59.7800   29.6660   44.4750 H   0  0  0  0  0  0  0  0  0  0  0  0
   58.5810   30.8880   42.6640 H   0  0  0  0  0  0  0  0  0  0  0  0
   58.4489   33.2142   42.6654 H   0  0  0  0  0  0  0  0  0  0  0  0
   56.7266   33.0786   43.1636 H   0  0  0  0  0  0  0  0  0  0  0  0
   56.1205   32.9285   45.5817 H   0  0  0  0  0  0  0  0  0  0  0  0
   56.7986   33.4327   47.9286 H   0  0  0  0  0  0  0  0  0  0  0  0
   61.3953   31.5999   50.8476 H   0  0  0  0  0  0  0  0  0  0  0  0
   62.1059   29.2425   50.4419 H   0  0  0  0  0  0  0  0  0  0  0  0
   60.7490   27.7647   48.9541 H   0  0  0  0  0  0  0  0  0  0  0  0
   58.7030   28.6608   47.8373 H   0  0  0  0  0  0  0  0  0  0  0  0
   58.0024   31.0256   48.2173 H   0  0  0  0  0  0  0  0  0  0  0  0
   60.8874   34.0080   46.6198 H   0  0  0  0  0  0  0  0  0  0  0  0
   60.1967   33.5670   44.2689 H   0  0  0  0  0  0  0  0  0  0  0  0
   55.9104   28.0882   45.3771 H   0  0  0  0  0  0  0  0  0  0  0  0
   58.4214   25.9383   47.3117 H   0  0  0  0  0  0  0  0  0  0  0  0
  1  2  2  0
  2  3  1  0
  3  4  1  0
  4  5  1  0
  5  6  2  0
  5  7  1  0
  7  8  1  0
  8  9  1  0
  9 10  2  0
 10 11  1  0
 11 12  2  0
 12 13  1  0
 13 14  2  0
 13 15  1  0
 15 16  1  0
 16 17  2  0
 17 18  1  0
 18 19  2  0
 19 20  1  0
 20 21  2  0
 12 22  1  0
 22 23  2  0
  4 24  2  0
 24 25  1  0
 25 26  2  3
 26 27  1  0
 27 28  1  0
 28 29  1  0
 29 30  2  0
 29 31  1  0
 31 32  1  0
 32 33  1  0
 25  2  1  0
 32 27  2  0
 23  9  1  0
 21 16  1  0
  1 34  1  0
  1 35  1  0
  3 36  1  0
  7 37  1  0
  8 38  1  0
  8 39  1  0
 10 40  1  0
 11 41  1  0
 17 42  1  0
 18 43  1  0
 19 44  1  0
 20 45  1  0
 21 46  1  0
 22 47  1  0
 23 48  1  0
 24 49  1  0
 26 50  1  0
M  CHG  4  15  -1  28  -1  31  -1  33  -1
M  END
>  <UniqueID>  (64) 
59

>  <SMILES>  (64) 
C=c1[nH]c(C(=O)NCc2ccc(C(=O)[N-]c3ccccc3)cc2)cc1=Cc1[n-]c(=O)[n-]c1[O-]

>  <Energy>  (64) 
117.86797605859564

>  <Genealogy>  (64) 
C=c1[nH]c(C(=O)NCc2ccc(C(=O)[N-]c3ccccc3)cc2)cc1=Cc1[n-]c(=O)[n-]c1[O-] (protonated)
C=c1[nH]c(C(=O)NCc2ccc(C(=O)[N-]c3ccccc3)cc2)cc1=Cc1[n-]c(=O)[n-]c1[O-] (3D coordinates assigned)
C=c1[nH]c(C(=O)NCc2ccc(C(=O)[N-]c3ccccc3)cc2)cc1=Cc1[n-]c(=O)[n-]c1[O-] (optimized conformer: 117.86797605859564 kcal/mol)

>  <smiles>  (64) 
C=c1[nH]c(C(=O)NCc2ccc(C(=O)Nc3ccccc3)cc2)cc1=Cc1[nH]c(=O)[nH]c1O

>  <score_type>  (64) 
oracle

>  <origin>  (64) 
adg

>  <m_score__min__energy>  (64) 
-19.530000000000001

>  <m_primary>  (64) 
energy

$$$$
64:0
     RDKit          3D

 54 57  0  0  0  0  0  0  0  0999 V2000
   59.8160   29.5070   47.2350 C   0  0  0  0  0  0  0  0  0  0  0  0
   59.0540   30.1920   46.3620 C   0  0  0  0  0  0  0  0  0  0  0  0
   58.3760   29.6640   45.2550 C   0  0  0  0  0  0  0  0  0  0  0  0
   58.3900   28.3890   44.8150 C   0  0  0  0  0  0  0  0  0  0  0  0
   57.5890   27.3050   45.4360 C   0  0  0  0  0  0  0  0  0  0  0  0
   56.2010   27.4290   45.6240 C   0  0  0  0  0  0  0  0  0  0  0  0
   55.5310   28.5870   45.2440 O   0  0  0  0  0  0  0  0  0  0  0  0
   55.5010   26.4170   46.1980 N   0  0  0  0  0  0  0  0  0  0  0  0
   56.1230   25.2850   46.6160 C   0  0  0  0  0  0  0  0  0  0  0  0
   55.4540   24.3580   47.1390 O   0  0  0  0  0  0  0  0  0  0  0  0
   57.4660   25.1550   46.4790 N   0  0  0  0  0  0  0  0  0  0  0  0
   58.2110   26.1380   45.9080 C   0  0  0  0  0  0  0  0  0  0  0  0
   59.4540   25.9850   45.7990 O   0  0  0  0  0  0  0  0  0  0  0  0
   57.6960   30.7260   44.6680 C   0  0  0  0  0  0  0  0  0  0  0  0
   57.9810   31.8460   45.4270 C   0  0  0  0  0  0  0  0  0  0  0  0
   57.4290   33.2170   45.1640 C   0  0  0  0  0  0  0  0  0  0  0  0
   58.7950   31.5220   46.4610 N   0  0  0  0  0  0  0  0  0  0  0  0
   59.2940   32.4360   47.4530 C   0  0  0  0  0  0  0  0  0  0  0  0
   60.2710   33.3810   47.1130 C   0  0  0  0  0  0  0  0  0  0  0  0
   60.7790   34.2430   48.0860 C   0  0  0  0  0  0  0  0  0  0  0  0
   60.3130   34.1670   49.4020 C   0  0  0  0  0  0  0  0  0  0  0  0
   59.3290   33.2290   49.7520 C   0  0  0  0  0  0  0  0  0  0  0  0
   58.8710   33.0900   51.1480 C   0  0  0  0  0  0  0  0  0  0  0  0
   59.0820   34.0470   51.9470 O   0  0  0  0  0  0  0  0  0  0  0  0
   58.2330   31.8910   51.6300 N   0  0  0  0  0  0  0  0  0  0  0  0
   58.8770   30.5870   51.7020 C   0  0  0  0  0  0  0  0  0  0  0  0
   58.0020   29.7370   52.6250 C   0  0  0  0  0  0  0  0  0  0  0  0
   56.6680   30.4960   52.7600 C   0  0  2  0  0  0  0  0  0  0  0  0
   55.5460   29.8320   52.0490 N   0  0  0  0  0  0  0  0  0  0  0  0
   54.3360   30.6630   51.8750 C   0  0  0  0  0  0  0  0  0  0  0  0
   56.9280   31.9260   52.2700 C   0  0  0  0  0  0  0  0  0  0  0  0
   58.8320   32.3570   48.7730 C   0  0  0  0  0  0  0  0  0  0  0  0
   60.3018   30.0318   48.0708 H   0  0  0  0  0  0  0  0  0  0  0  0
   59.9528   28.4224   47.1126 H   0  0  0  0  0  0  0  0  0  0  0  0
   59.0267   28.1404   43.9531 H   0  0  0  0  0  0  0  0  0  0  0  0
   57.0562   30.6831   43.7742 H   0  0  0  0  0  0  0  0  0  0  0  0
   57.2263   33.7204   46.1208 H   0  0  0  0  0  0  0  0  0  0  0  0
   58.1613   33.8030   44.5892 H   0  0  0  0  0  0  0  0  0  0  0  0
   56.4950   33.1322   44.5892 H   0  0  0  0  0  0  0  0  0  0  0  0
   60.6381   33.4436   46.0779 H   0  0  0  0  0  0  0  0  0  0  0  0
   61.5470   34.9832   47.8171 H   0  0  0  0  0  0  0  0  0  0  0  0
   60.7193   34.8454   50.1667 H   0  0  0  0  0  0  0  0  0  0  0  0
   58.9327   30.1322   50.7020 H   0  0  0  0  0  0  0  0  0  0  0  0
   59.9065   30.6657   52.0814 H   0  0  0  0  0  0  0  0  0  0  0  0
   57.8338   28.7432   52.1844 H   0  0  0  0  0  0  0  0  0  0  0  0
   58.4792   29.5822   53.6039 H   0  0  0  0  0  0  0  0  0  0  0  0
   56.3367   30.5048   53.8089 H   0  0  0  0  0  0  0  0  0  0  0  0
   55.2880   28.9730   52.5930 H   0  0  0  0  0  0  0  0  0  0  0  0
   53.9352   30.9382   52.8617 H   0  0  0  0  0  0  0  0  0  0  0  0
   54.5946   31.5749   51.3169 H   0  0  0  0  0  0  0  0  0  0  0  0
   53.5777   30.0942   51.3169 H   0  0  0  0  0  0  0  0  0  0  0  0
   56.1552   32.2309   51.5490 H   0  0  0  0  0  0  0  0  0  0  0  0
   56.9008   32.6502   53.0976 H   0  0  0  0  0  0  0  0  0  0  0  0
   58.0747   31.6063   49.0431 H   0  0  0  0  0  0  0  0  0  0  0  0
  1  2  2  0
  2  3  1  0
  3  4  2  3
  4  5  1  0
  5  6  2  0
  6  7  1  0
  6  8  1  0
  8  9  1  0
  9 10  2  0
  9 11  1  0
 11 12  1  0
 12 13  2  0
  3 14  1  0
 14 15  2  0
 15 16  1  0
 15 17  1  0
 17 18  1  0
 18 19  2  0
 19 20  1  0
 20 21  2  0
 21 22  1  0
 22 23  1  0
 23 24  2  0
 23 25  1  0
 25 26  1  0
 26 27  1  0
 27 28  1  0
 28 29  1  0
 29 30  1  0
 28 31  1  0
 22 32  2  0
 17  2  1  0
 32 18  1  0
 12  5  1  0
 31 25  1  0
  1 33  1  0
  1 34  1  0
  4 35  1  0
 14 36  1  0
 16 37  1  0
 16 38  1  0
 16 39  1  0
 19 40  1  0
 20 41  1  0
 21 42  1  0
 26 43  1  0
 26 44  1  0
 27 45  1  0
 27 46  1  0
 28 47  1  1
 29 48  1  0
 30 49  1  0
 30 50  1  0
 30 51  1  0
 31 52  1  0
 31 53  1  0
 32 54  1  0
M  CHG  3   7  -1   8  -1  11  -1
M  END
>  <UniqueID>  (65) 
60

>  <SMILES>  (65) 
C=c1c(=Cc2c([O-])[n-]c(=O)[n-]c2=O)cc(C)n1-c1cccc(C(=O)N2CC[C@H](NC)C2)c1

>  <Energy>  (65) 
111.95988128251362

>  <Genealogy>  (65) 
C=c1c(=Cc2c([O-])[n-]c(=O)[n-]c2=O)cc(C)n1-c1cccc(C(=O)N2CCC(NC)C2)c1 (protonated)
C=c1c(=Cc2c([O-])[n-]c(=O)[n-]c2=O)cc(C)n1-c1cccc(C(=O)N2CC[C@H](NC)C2)c1 (chirality)
C=c1c(=Cc2c([O-])[n-]c(=O)[n-]c2=O)cc(C)n1-c1cccc(C(=O)N2CC[C@H](NC)C2)c1 (3D coordinates assigned)
C=c1c(=Cc2c([O-])[n-]c(=O)[n-]c2=O)cc(C)n1-c1cccc(C(=O)N2CC[C@H](NC)C2)c1 (nonaromatic ring conformer: 111.95988128251362 kcal/mol)

>  <smiles>  (65) 
C=c1c(=Cc2c(O)[nH]c(=O)[nH]c2=O)cc(C)n1-c1cccc(C(=O)N2CCC(NC)C2)c1

>  <score_type>  (65) 
oracle

>  <origin>  (65) 
adg

>  <m_score__min__energy>  (65) 
-17.079999999999998

>  <m_primary>  (65) 
energy

$$$$
65:0
     RDKit          3D

 59 62  0  0  0  0  0  0  0  0999 V2000
   58.2364   34.5100   44.4442 H   0  0  0  0  0  0  0  0  0  0  0  0
   58.5040   34.2030   45.4660 C   0  0  0  0  0  0  0  0  0  0  0  0
   59.5450   34.8460   46.1400 C   0  0  0  0  0  0  0  0  0  0  0  0
   60.0928   35.6640   45.6493 H   0  0  0  0  0  0  0  0  0  0  0  0
   59.8930   34.4540   47.4350 C   0  0  0  0  0  0  0  0  0  0  0  0
   60.7180   34.9609   47.9569 H   0  0  0  0  0  0  0  0  0  0  0  0
   59.1930   33.4130   48.0760 C   0  0  0  0  0  0  0  0  0  0  0  0
   59.5670   32.9830   49.4440 C   0  0  0  0  0  0  0  0  0  0  0  0
   59.8270   33.8450   50.3280 O   0  0  0  0  0  0  0  0  0  0  0  0
   59.5590   31.5880   49.7820 N   0  0  0  0  0  0  0  0  0  0  0  0
   60.1770   30.6220   49.1620 C   0  0  0  0  0  0  0  0  0  0  0  0
   59.4130   29.8250   48.1710 C   0  0  0  0  0  0  0  0  0  0  0  0
   58.1510   29.8380   48.2000 O   0  0  0  0  0  0  0  0  0  0  0  0
   60.0980   29.0010   47.2070 N   0  0  0  0  0  0  0  0  0  0  0  0
   61.1070   28.7790   47.3710 H   0  0  0  0  0  0  0  0  0  0  0  0
   59.4380   28.3240   46.1230 C   0  0  0  0  0  0  0  0  0  0  0  0
   59.8630   28.4870   44.7910 C   0  0  0  0  0  0  0  0  0  0  0  0
   60.7308   29.1251   44.5680 H   0  0  0  0  0  0  0  0  0  0  0  0
   59.1890   27.8430   43.7510 C   0  0  0  0  0  0  0  0  0  0  0  0
   59.5155   27.9902   42.7109 H   0  0  0  0  0  0  0  0  0  0  0  0
   58.1020   27.0130   44.0290 C   0  0  0  0  0  0  0  0  0  0  0  0
   57.5576   26.5287   43.2049 H   0  0  0  0  0  0  0  0  0  0  0  0
   57.7010   26.7940   45.3550 C   0  0  0  0  0  0  0  0  0  0  0  0
   56.5470   25.9180   45.6350 C   0  0  0  0  0  0  0  0  0  0  0  0
   55.6270   26.3620   46.3740 O   0  0  0  0  0  0  0  0  0  0  0  0
   56.4410   24.5920   45.0700 N   0  0  0  0  0  0  0  0  0  0  0  0
   55.3420   23.7350   45.5290 C   0  0  0  0  0  0  0  0  0  0  0  0
   55.2658   23.8007   46.6244 H   0  0  0  0  0  0  0  0  0  0  0  0
   54.4070   24.0767   45.0610 H   0  0  0  0  0  0  0  0  0  0  0  0
   55.5900   22.2800   45.1290 C   0  0  0  0  0  0  0  0  0  0  0  0
   56.4530   21.8922   45.6900 H   0  0  0  0  0  0  0  0  0  0  0  0
   54.6915   21.6889   45.3601 H   0  0  0  0  0  0  0  0  0  0  0  0
   55.8550   22.1870   43.7460 O   0  0  0  0  0  0  0  0  0  0  0  0
   57.0890   22.8120   43.4670 C   0  0  0  0  0  0  0  0  0  0  0  0
   57.8698   22.3617   44.0976 H   0  0  0  0  0  0  0  0  0  0  0  0
   57.3193   22.6672   42.4012 H   0  0  0  0  0  0  0  0  0  0  0  0
   57.0250   24.3220   43.7500 C   0  0  0  0  0  0  0  0  0  0  0  0
   58.0434   24.7365   43.7169 H   0  0  0  0  0  0  0  0  0  0  0  0
   56.3890   24.7924   42.9856 H   0  0  0  0  0  0  0  0  0  0  0  0
   58.3710   27.4510   46.3980 C   0  0  0  0  0  0  0  0  0  0  0  0
   58.0589   27.2817   47.4391 H   0  0  0  0  0  0  0  0  0  0  0  0
   61.6760   30.4150   49.2950 C   0  0  0  0  0  0  0  0  0  0  0  0
   61.9407   30.3521   50.3608 H   0  0  0  0  0  0  0  0  0  0  0  0
   61.9560   29.4830   48.7822 H   0  0  0  0  0  0  0  0  0  0  0  0
   62.4190   31.5640   48.6650 C   0  0  0  0  0  0  0  0  0  0  0  0
   62.2030   31.8860   47.3150 C   0  0  0  0  0  0  0  0  0  0  0  0
   61.5323   31.2649   46.7031 H   0  0  0  0  0  0  0  0  0  0  0  0
   62.8380   32.9930   46.7480 C   0  0  0  0  0  0  0  0  0  0  0  0
   62.6705   33.2360   45.6883 H   0  0  0  0  0  0  0  0  0  0  0  0
   63.6830   33.7920   47.5170 C   0  0  0  0  0  0  0  0  0  0  0  0
   64.1664   34.6728   47.0693 H   0  0  0  0  0  0  0  0  0  0  0  0
   63.9150   33.4720   48.8580 C   0  0  0  0  0  0  0  0  0  0  0  0
   64.5905   34.0944   49.4632 H   0  0  0  0  0  0  0  0  0  0  0  0
   63.2890   32.3620   49.4290 C   0  0  0  0  0  0  0  0  0  0  0  0
   63.4776   32.1103   50.4831 H   0  0  0  0  0  0  0  0  0  0  0  0
   58.1440   32.7750   47.3880 C   0  0  0  0  0  0  0  0  0  0  0  0
   57.5881   31.9598   47.8741 H   0  0  0  0  0  0  0  0  0  0  0  0
   57.8040   33.1700   46.0920 C   0  0  0  0  0  0  0  0  0  0  0  0
   56.9821   32.6655   45.5630 H   0  0  0  0  0  0  0  0  0  0  0  0
  1  2  1  0
  2  3  2  0
  3  4  1  0
  3  5  1  0
  5  6  1  0
  5  7  2  0
  7  8  1  0
  8  9  2  0
  8 10  1  0
 10 11  2  0
 11 12  1  0
 12 13  2  0
 12 14  1  0
 14 15  1  0
 14 16  1  0
 16 17  2  0
 17 18  1  0
 17 19  1  0
 19 20  1  0
 19 21  2  0
 21 22  1  0
 21 23  1  0
 23 24  1  0
 24 25  2  0
 24 26  1  0
 26 27  1  0
 27 28  1  0
 27 29  1  0
 27 30  1  0
 30 31  1  0
 30 32  1  0
 30 33  1  0
 33 34  1  0
 34 35  1  0
 34 36  1  0
 34 37  1  0
 37 38  1  0
 37 39  1  0
 23 40  2  0
 40 41  1  0
 11 42  1  0
 42 43  1  0
 42 44  1  0
 42 45  1  0
 45 46  2  0
 46 47  1  0
 46 48  1  0
 48 49  1  0
 48 50  2  0
 50 51  1  0
 50 52  1  0
 52 53  1  0
 52 54  2  0
 54 55  1  0
  7 56  1  0
 56 57  1  0
 56 58  2  0
 58 59  1  0
 58  2  1  0
 40 16  1  0
 54 45  1  0
 37 26  1  0
M  END
>  <UniqueID>  (66) 
61

>  <SMILES>  (66) 
O=C(Nc1cccc(C(=O)N2CCOCC2)c1)/C(Cc1ccccc1)=N/C(=O)c1ccccc1

>  <Energy>  (66) 
79.27170365612866

>  <Genealogy>  (66) 
O=C(Nc1cccc(C(=O)N2CCOCC2)c1)/C(Cc1ccccc1)=N/C(=O)c1ccccc1 (cis-trans isomerization)
O=C(Nc1cccc(C(=O)N2CCOCC2)c1)/C(Cc1ccccc1)=N/C(=O)c1ccccc1 (3D coordinates assigned)
O=C(Nc1cccc(C(=O)N2CCOCC2)c1)/C(Cc1ccccc1)=N/C(=O)c1ccccc1 (nonaromatic ring conformer: 79.27170365612866 kcal/mol)

>  <smiles>  (66) 
O=C(Nc1cccc(C(=O)N2CCOCC2)c1)C(Cc1ccccc1)=NC(=O)c1ccccc1

>  <score_type>  (66) 
oracle

>  <origin>  (66) 
adg

>  <m_score__min__energy>  (66) 
-10.48

>  <m_primary>  (66) 
energy

$$$$
66:0
     RDKit          3D

 52 54  0  0  0  0  0  0  0  0999 V2000
   60.7940   30.0530   47.9170 C   0  0  0  0  0  0  0  0  0  0  0  0
   61.8230   31.1350   48.0240 C   0  0  0  0  0  0  0  0  0  0  0  0
   62.8850   31.3170   47.1580 C   0  0  0  0  0  0  0  0  0  0  0  0
   63.6720   32.3140   47.5990 N   0  0  0  0  0  0  0  0  0  0  0  0
   63.1340   32.7720   48.7430 C   0  0  0  0  0  0  0  0  0  0  0  0
   63.7720   33.8360   49.5800 C   0  0  0  0  0  0  0  0  0  0  0  0
   61.9830   32.0550   49.0500 C   0  0  0  0  0  0  0  0  0  0  0  0
   61.1430   32.1890   50.2920 C   0  0  0  0  0  0  0  0  0  0  0  0
   60.3000   33.4700   50.2850 C   0  0  0  0  0  0  0  0  0  0  0  0
   59.6150   33.6760   48.9690 C   0  0  0  0  0  0  0  0  0  0  0  0
   58.5470   33.0540   48.7170 O   0  0  0  0  0  0  0  0  0  0  0  0
   60.1650   34.5950   48.0190 N   0  0  0  0  0  0  0  0  0  0  0  0
   60.3670   34.2840   46.6080 C   0  0  0  0  0  0  0  0  0  0  0  0
   59.2160   33.4790   46.0610 C   0  0  0  0  0  0  0  0  0  0  0  0
   59.2870   32.0780   46.0140 C   0  0  0  0  0  0  0  0  0  0  0  0
   58.2200   31.3350   45.5040 C   0  0  0  0  0  0  0  0  0  0  0  0
   57.0780   31.9780   45.0100 C   0  0  0  0  0  0  0  0  0  0  0  0
   55.9980   31.1810   44.5030 N   0  0  0  0  0  0  0  0  0  0  0  0
   56.0670   29.7870   44.1750 C   0  0  0  0  0  0  0  0  0  0  0  0
   56.4520   29.4190   43.0330 O   0  0  0  0  0  0  0  0  0  0  0  0
   55.8060   28.7910   45.1700 N   0  0  0  0  0  0  0  0  0  0  0  0
   56.7260   27.7890   45.6240 C   0  0  0  0  0  0  0  0  0  0  0  0
   56.2980   26.5040   46.0020 C   0  0  0  0  0  0  0  0  0  0  0  0
   57.2310   25.5430   46.4030 C   0  0  0  0  0  0  0  0  0  0  0  0
   58.5940   25.8530   46.4190 C   0  0  0  0  0  0  0  0  0  0  0  0
   59.0280   27.1180   46.0170 C   0  0  0  0  0  0  0  0  0  0  0  0
   58.0980   28.0820   45.6150 C   0  0  0  0  0  0  0  0  0  0  0  0
   56.9980   33.3800   45.0730 C   0  0  0  0  0  0  0  0  0  0  0  0
   58.0610   34.1240   45.5890 C   0  0  0  0  0  0  0  0  0  0  0  0
   60.4909   29.7343   48.9252 H   0  0  0  0  0  0  0  0  0  0  0  0
   59.9167   30.4338   47.3736 H   0  0  0  0  0  0  0  0  0  0  0  0
   61.2183   29.1959   47.3736 H   0  0  0  0  0  0  0  0  0  0  0  0
   63.0604   30.7323   46.2429 H   0  0  0  0  0  0  0  0  0  0  0  0
   64.5500   32.6510   47.1450 H   0  0  0  0  0  0  0  0  0  0  0  0
   63.6300   33.5992   50.6448 H   0  0  0  0  0  0  0  0  0  0  0  0
   64.8477   33.8835   49.3552 H   0  0  0  0  0  0  0  0  0  0  0  0
   63.3072   34.8073   49.3552 H   0  0  0  0  0  0  0  0  0  0  0  0
   60.4695   31.3219   50.3595 H   0  0  0  0  0  0  0  0  0  0  0  0
   61.8223   32.2361   51.1559 H   0  0  0  0  0  0  0  0  0  0  0  0
   59.5387   33.3999   51.0759 H   0  0  0  0  0  0  0  0  0  0  0  0
   60.9720   34.3233   50.4587 H   0  0  0  0  0  0  0  0  0  0  0  0
   60.4504   35.2231   46.0412 H   0  0  0  0  0  0  0  0  0  0  0  0
   61.2877   33.6903   46.5088 H   0  0  0  0  0  0  0  0  0  0  0  0
   60.1871   31.5628   46.3805 H   0  0  0  0  0  0  0  0  0  0  0  0
   58.2770   30.2366   45.4902 H   0  0  0  0  0  0  0  0  0  0  0  0
   55.2269   26.2543   45.9822 H   0  0  0  0  0  0  0  0  0  0  0  0
   56.8920   24.5415   46.7064 H   0  0  0  0  0  0  0  0  0  0  0  0
   59.3251   25.1001   46.7484 H   0  0  0  0  0  0  0  0  0  0  0  0
   60.1019   27.3563   46.0165 H   0  0  0  0  0  0  0  0  0  0  0  0
   58.4438   29.0745   45.2903 H   0  0  0  0  0  0  0  0  0  0  0  0
   56.0938   33.8934   44.7141 H   0  0  0  0  0  0  0  0  0  0  0  0
   57.9935   35.2213   45.6260 H   0  0  0  0  0  0  0  0  0  0  0  0
  1  2  1  0
  2  3  2  0
  3  4  1  0
  4  5  1  0
  5  6  1  0
  5  7  2  0
  7  8  1  0
  8  9  1  0
  9 10  1  0
 10 11  2  0
 10 12  1  0
 12 13  1  0
 13 14  1  0
 14 15  2  0
 15 16  1  0
 16 17  2  0
 17 18  1  0
 18 19  1  0
 19 20  2  0
 19 21  1  0
 21 22  1  0
 22 23  2  0
 23 24  1  0
 24 25  2  0
 25 26  1  0
 26 27  2  0
 17 28  1  0
 28 29  2  0
  7  2  1  0
 29 14  1  0
 27 22  1  0
  1 30  1  0
  1 31  1  0
  1 32  1  0
  3 33  1  0
  4 34  1  0
  6 35  1  0
  6 36  1  0
  6 37  1  0
  8 38  1  0
  8 39  1  0
  9 40  1  0
  9 41  1  0
 13 42  1  0
 13 43  1  0
 15 44  1  0
 16 45  1  0
 23 46  1  0
 24 47  1  0
 25 48  1  0
 26 49  1  0
 27 50  1  0
 28 51  1  0
 29 52  1  0
M  CHG  3  12  -1  18  -1  21  -1
M  END
>  <UniqueID>  (67) 
62

>  <SMILES>  (67) 
Cc1c[nH]c(C)c1CCC(=O)[N-]Cc1ccc([N-]C(=O)[N-]c2ccccc2)cc1

>  <Energy>  (67) 
77.44211949194562

>  <Genealogy>  (67) 
Cc1c[nH]c(C)c1CCC(=O)[N-]Cc1ccc([N-]C(=O)[N-]c2ccccc2)cc1 (protonated)
Cc1c[nH]c(C)c1CCC(=O)[N-]Cc1ccc([N-]C(=O)[N-]c2ccccc2)cc1 (3D coordinates assigned)
Cc1c[nH]c(C)c1CCC(=O)[N-]Cc1ccc([N-]C(=O)[N-]c2ccccc2)cc1 (optimized conformer: 77.44211949194562 kcal/mol)

>  <smiles>  (67) 
Cc1c[nH]c(C)c1CCC(=O)NCc1ccc(NC(=O)Nc2ccccc2)cc1

>  <score_type>  (67) 
oracle

>  <origin>  (67) 
adg

>  <m_score__min__energy>  (67) 
-12.73

>  <m_primary>  (67) 
energy

$$$$
67:0
     RDKit          3D

 49 52  0  0  1  0  0  0  0  0999 V2000
   57.4720   31.0390   43.8600 C   0  0  0  0  0  0  0  0  0  0  0  0
   57.8670   32.2460   43.3150 C   0  0  0  0  0  0  0  0  0  0  0  0
   58.3800   33.2650   44.1080 C   0  0  0  0  0  0  0  0  0  0  0  0
   58.5100   33.0930   45.4750 C   0  0  0  0  0  0  0  0  0  0  0  0
   59.0510   34.1540   46.3400 C   0  0  0  0  0  0  0  0  0  0  0  0
   60.4090   34.3410   45.9680 O   0  0  0  0  0  0  0  0  0  0  0  0
   61.3550   33.5300   46.5340 C   0  0  0  0  0  0  0  0  0  0  0  0
   62.6920   33.8880   46.5190 C   0  0  0  0  0  0  0  0  0  0  0  0
   63.6480   33.0570   47.0970 C   0  0  0  0  0  0  0  0  0  0  0  0
   63.2920   31.8950   47.6800 N   0  0  0  0  0  0  0  0  0  0  0  0
   61.9970   31.5720   47.6820 C   0  0  0  0  0  0  0  0  0  0  0  0
   61.6200   30.4690   48.2290 N   0  0  0  0  0  0  0  0  0  0  0  0
   60.7150   29.5480   47.6160 C   0  0  0  0  0  0  0  0  0  0  0  0
   60.7580   29.3900   46.2510 C   0  0  0  0  0  0  0  0  0  0  0  0
   59.8920   28.5030   45.6250 C   0  0  0  0  0  0  0  0  0  0  0  0
   58.9690   27.7590   46.3280 C   0  0  0  0  0  0  0  0  0  0  0  0
   58.0330   26.7980   45.6490 C   0  0  2  0  0  0  0  0  0  0  0  0
   56.6470   27.3250   45.6460 C   0  0  0  0  0  0  0  0  0  0  0  0
   55.6370   26.5180   46.2460 N   0  0  0  0  0  0  0  0  0  0  0  0
   55.9440   25.1160   46.0380 C   0  0  0  0  0  0  0  0  0  0  0  0
   57.2650   24.9070   46.7940 C   0  0  0  0  0  0  0  0  0  0  0  0
   58.2300   25.5110   46.0450 O   0  0  0  0  0  0  0  0  0  0  0  0
   58.9530   27.9450   47.7020 C   0  0  0  0  0  0  0  0  0  0  0  0
   59.8020   28.8190   48.3480 C   0  0  0  0  0  0  0  0  0  0  0  0
   61.0530   32.3600   47.1280 N   0  0  0  0  0  0  0  0  0  0  0  0
   58.1070   31.8720   46.0040 C   0  0  0  0  0  0  0  0  0  0  0  0
   57.5990   30.8640   45.2250 C   0  0  0  0  0  0  0  0  0  0  0  0
   57.0670   30.2383   43.2238 H   0  0  0  0  0  0  0  0  0  0  0  0
   57.7733   32.4033   42.2303 H   0  0  0  0  0  0  0  0  0  0  0  0
   58.6851   34.2155   43.6459 H   0  0  0  0  0  0  0  0  0  0  0  0
   58.4868   35.0866   46.1917 H   0  0  0  0  0  0  0  0  0  0  0  0
   58.9694   33.8752   47.4010 H   0  0  0  0  0  0  0  0  0  0  0  0
   63.0006   34.8331   46.0484 H   0  0  0  0  0  0  0  0  0  0  0  0
   64.7074   33.3525   47.0776 H   0  0  0  0  0  0  0  0  0  0  0  0
   63.9960   31.2620   48.1180 H   0  0  0  0  0  0  0  0  0  0  0  0
   61.4794   29.9670   45.6538 H   0  0  0  0  0  0  0  0  0  0  0  0
   59.9444   28.3905   44.5320 H   0  0  0  0  0  0  0  0  0  0  0  0
   58.2751   26.7274   44.5783 H   0  0  0  0  0  0  0  0  0  0  0  0
   56.6590   28.2879   46.1777 H   0  0  0  0  0  0  0  0  0  0  0  0
   56.3691   27.3792   44.5831 H   0  0  0  0  0  0  0  0  0  0  0  0
   55.3990   26.7250   47.2260 H   0  0  0  0  0  0  0  0  0  0  0  0
   55.1509   24.4766   46.4530 H   0  0  0  0  0  0  0  0  0  0  0  0
   56.0206   24.8536   44.9725 H   0  0  0  0  0  0  0  0  0  0  0  0
   57.2112   25.3686   47.7910 H   0  0  0  0  0  0  0  0  0  0  0  0
   57.4798   23.8379   46.9388 H   0  0  0  0  0  0  0  0  0  0  0  0
   58.2322   27.3708   48.3025 H   0  0  0  0  0  0  0  0  0  0  0  0
   59.7510   28.9338   49.4408 H   0  0  0  0  0  0  0  0  0  0  0  0
   58.1990   31.7083   47.0879 H   0  0  0  0  0  0  0  0  0  0  0  0
   57.2920   29.9144   45.6876 H   0  0  0  0  0  0  0  0  0  0  0  0
  1  2  2  0
  2  3  1  0
  3  4  2  0
  4  5  1  0
  5  6  1  0
  6  7  1  0
  7  8  1  0
  8  9  2  0
  9 10  1  0
 10 11  1  0
 11 12  2  0
 12 13  1  0
 13 14  2  0
 14 15  1  0
 15 16  2  0
 16 17  1  0
 17 18  1  0
 18 19  1  0
 19 20  1  0
 20 21  1  0
 21 22  1  0
 16 23  1  0
 23 24  2  0
 11 25  1  0
  4 26  1  0
 26 27  2  0
 27  1  1  0
 25  7  2  0
 24 13  1  0
 22 17  1  0
  1 28  1  0
  2 29  1  0
  3 30  1  0
  5 31  1  0
  5 32  1  0
  8 33  1  0
  9 34  1  0
 10 35  1  0
 14 36  1  0
 15 37  1  0
 17 38  1  6
 18 39  1  0
 18 40  1  0
 19 41  1  0
 20 42  1  0
 20 43  1  0
 21 44  1  0
 21 45  1  0
 23 46  1  0
 24 47  1  0
 26 48  1  0
 27 49  1  0
M  END
>  <smiles>  (68) 
c1ccc(COc2cc[nH]c(=Nc3ccc(C4CNCCO4)cc3)n2)cc1

>  <score_type>  (68) 
oracle

>  <origin>  (68) 
adg

>  <m_score__min__energy>  (68) 
-9.1699999999999999

>  <m_primary>  (68) 
energy

$$$$
68:0
     RDKit          3D

 54 57  0  0  0  0  0  0  0  0999 V2000
   56.1790   29.2250   45.1040 O   0  0  0  0  0  0  0  0  0  0  0  0
   57.0210   30.1600   45.0820 C   0  0  0  0  0  0  0  0  0  0  0  0
   56.6430   31.4110   44.4970 N   0  0  0  0  0  0  0  0  0  0  0  0
   57.5850   32.3590   43.9130 C   0  0  0  0  0  0  0  0  0  0  0  0
   57.4430   33.7270   44.5830 C   0  0  0  0  0  0  0  0  0  0  0  0
   58.2190   33.7900   45.8740 C   0  0  0  0  0  0  0  0  0  0  0  0
   57.8360   33.0040   46.9740 C   0  0  0  0  0  0  0  0  0  0  0  0
   58.5780   33.0430   48.1600 C   0  0  0  0  0  0  0  0  0  0  0  0
   59.7090   33.8590   48.2520 C   0  0  0  0  0  0  0  0  0  0  0  0
   60.1030   34.6360   47.1590 C   0  0  0  0  0  0  0  0  0  0  0  0
   59.3640   34.6000   45.9710 C   0  0  0  0  0  0  0  0  0  0  0  0
   58.3230   29.9790   45.6670 N   0  0  0  0  0  0  0  0  0  0  0  0
   58.8700   28.6960   46.0170 C   0  0  0  0  0  0  0  0  0  0  0  0
   60.2030   28.4070   45.6940 C   0  0  0  0  0  0  0  0  0  0  0  0
   60.7540   27.1630   46.0130 C   0  0  0  0  0  0  0  0  0  0  0  0
   59.9740   26.1900   46.6380 C   0  0  0  0  0  0  0  0  0  0  0  0
   58.6240   26.4420   46.9310 C   0  0  0  0  0  0  0  0  0  0  0  0
   57.7750   25.3870   47.5960 C   0  0  0  0  0  0  0  0  0  0  0  0
   56.7100   24.8670   46.6630 C   0  0  0  0  0  0  0  0  0  0  0  0
   55.5550   25.5780   46.5540 N   0  0  0  0  0  0  0  0  0  0  0  0
   54.5680   25.2060   45.7410 N   0  0  0  0  0  0  0  0  0  0  0  0
   54.6630   24.0970   44.9670 C   0  0  0  0  0  0  0  0  0  0  0  0
   53.6980   23.7760   44.2230 O   0  0  0  0  0  0  0  0  0  0  0  0
   55.8330   23.3250   45.0080 C   0  0  0  0  0  0  0  0  0  0  0  0
   56.8740   23.7080   45.8700 C   0  0  0  0  0  0  0  0  0  0  0  0
   58.0960   22.8190   45.9220 C   0  0  0  0  0  0  0  0  0  0  0  0
   58.5380   22.4480   44.5010 C   0  0  0  0  0  0  0  0  0  0  0  0
   57.3910   21.9240   43.6010 C   0  0  0  0  0  0  0  0  0  0  0  0
   55.9820   22.0500   44.2120 C   0  0  0  0  0  0  0  0  0  0  0  0
   58.0810   27.7030   46.6270 C   0  0  0  0  0  0  0  0  0  0  0  0
   58.6104   31.9882   44.0581 H   0  0  0  0  0  0  0  0  0  0  0  0
   57.3708   32.4618   42.8390 H   0  0  0  0  0  0  0  0  0  0  0  0
   57.8217   34.5013   43.8996 H   0  0  0  0  0  0  0  0  0  0  0  0
   56.3795   33.8929   44.8097 H   0  0  0  0  0  0  0  0  0  0  0  0
   56.9501   32.3559   46.9027 H   0  0  0  0  0  0  0  0  0  0  0  0
   58.2707   32.4308   49.0207 H   0  0  0  0  0  0  0  0  0  0  0  0
   60.2897   33.8898   49.1857 H   0  0  0  0  0  0  0  0  0  0  0  0
   60.9945   35.2762   47.2326 H   0  0  0  0  0  0  0  0  0  0  0  0
   59.6801   35.2075   45.1102 H   0  0  0  0  0  0  0  0  0  0  0  0
   58.8640   30.8270   45.9460 H   0  0  0  0  0  0  0  0  0  0  0  0
   60.8190   29.1639   45.1864 H   0  0  0  0  0  0  0  0  0  0  0  0
   61.8057   26.9505   45.7706 H   0  0  0  0  0  0  0  0  0  0  0  0
   60.4191   25.2196   46.9029 H   0  0  0  0  0  0  0  0  0  0  0  0
   58.4199   24.5508   47.9041 H   0  0  0  0  0  0  0  0  0  0  0  0
   57.2798   25.8405   48.4673 H   0  0  0  0  0  0  0  0  0  0  0  0
   58.9130   23.3527   46.4296 H   0  0  0  0  0  0  0  0  0  0  0  0
   57.8498   21.9001   46.4742 H   0  0  0  0  0  0  0  0  0  0  0  0
   58.9677   23.3431   44.0276 H   0  0  0  0  0  0  0  0  0  0  0  0
   59.2661   21.6291   44.5977 H   0  0  0  0  0  0  0  0  0  0  0  0
   57.4079   22.4924   42.6594 H   0  0  0  0  0  0  0  0  0  0  0  0
   57.5733   20.8482   43.4616 H   0  0  0  0  0  0  0  0  0  0  0  0
   55.2394   22.0470   43.4005 H   0  0  0  0  0  0  0  0  0  0  0  0
   55.8245   21.1997   44.8918 H   0  0  0  0  0  0  0  0  0  0  0  0
   57.0290   27.9154   46.8684 H   0  0  0  0  0  0  0  0  0  0  0  0
  1  2  2  0
  2  3  1  0
  3  4  1  0
  4  5  1  0
  5  6  1  0
  6  7  2  0
  7  8  1  0
  8  9  2  0
  9 10  1  0
 10 11  2  0
  2 12  1  0
 12 13  1  0
 13 14  2  0
 14 15  1  0
 15 16  2  0
 16 17  1  0
 17 18  1  0
 18 19  1  0
 19 20  2  0
 20 21  1  0
 21 22  1  0
 22 23  2  0
 22 24  1  0
 24 25  2  0
 25 26  1  0
 26 27  1  0
 27 28  1  0
 28 29  1  0
 17 30  2  0
 11  6  1  0
 30 13  1  0
 25 19  1  0
 29 24  1  0
  4 31  1  0
  4 32  1  0
  5 33  1  0
  5 34  1  0
  7 35  1  0
  8 36  1  0
  9 37  1  0
 10 38  1  0
 11 39  1  0
 12 40  1  0
 14 41  1  0
 15 42  1  0
 16 43  1  0
 18 44  1  0
 18 45  1  0
 26 46  1  0
 26 47  1  0
 27 48  1  0
 27 49  1  0
 28 50  1  0
 28 51  1  0
 29 52  1  0
 29 53  1  0
 30 54  1  0
M  CHG  2   3  -1  21  -1
M  END
>  <UniqueID>  (69) 
63

>  <SMILES>  (69) 
O=C([N-]CCc1ccccc1)Nc1cccc(Cc2n[n-]c(=O)c3c2CCCC3)c1

>  <Energy>  (69) 
63.58493408941477

>  <Genealogy>  (69) 
O=C([N-]CCc1ccccc1)Nc1cccc(Cc2n[n-]c(=O)c3c2CCCC3)c1 (protonated)
O=C([N-]CCc1ccccc1)Nc1cccc(Cc2n[n-]c(=O)c3c2CCCC3)c1 (3D coordinates assigned)
O=C([N-]CCc1ccccc1)Nc1cccc(Cc2n[n-]c(=O)c3c2CCCC3)c1 (nonaromatic ring conformer: 63.58493408941477 kcal/mol)

>  <smiles>  (69) 
O=C(NCCc1ccccc1)Nc1cccc(Cc2n[nH]c(=O)c3c2CCCC3)c1

>  <score_type>  (69) 
oracle

>  <origin>  (69) 
adg

>  <m_score__min__energy>  (69) 
-13.68

>  <m_primary>  (69) 
energy

$$$$
69:0
     RDKit          3D

 43 45  0  0  0  0  0  0  0  0999 V2000
   54.4260   29.3390   45.1440 H   0  0  0  0  0  0  0  0  0  0  0  0
   55.3800   29.0140   44.8690 N   0  0  0  0  0  0  0  0  0  0  0  0
   56.2230   29.8240   44.0500 C   0  0  0  0  0  0  0  0  0  0  0  0
   55.8890   30.0390   42.8540 O   0  0  0  0  0  0  0  0  0  0  0  0
   57.4740   30.4170   44.5900 C   0  0  0  0  0  0  0  0  0  0  0  0
   58.0370   29.8950   45.7030 C   0  0  0  0  0  0  0  0  0  0  0  0
   58.1269   30.5506   46.5817 H   0  0  0  0  0  0  0  0  0  0  0  0
   58.5410   28.5110   45.8300 C   0  0  0  0  0  0  0  0  0  0  0  0
   57.9410   27.4640   45.1090 C   0  0  0  0  0  0  0  0  0  0  0  0
   57.0644   27.6683   44.4767 H   0  0  0  0  0  0  0  0  0  0  0  0
   58.4500   26.1670   45.1900 C   0  0  0  0  0  0  0  0  0  0  0  0
   57.9664   25.3509   44.6331 H   0  0  0  0  0  0  0  0  0  0  0  0
   59.5720   25.9050   45.9770 C   0  0  0  0  0  0  0  0  0  0  0  0
   59.9677   24.8809   46.0450 H   0  0  0  0  0  0  0  0  0  0  0  0
   60.1940   26.9410   46.6790 C   0  0  0  0  0  0  0  0  0  0  0  0
   61.0813   26.7293   47.2937 H   0  0  0  0  0  0  0  0  0  0  0  0
   59.6910   28.2560   46.6040 C   0  0  0  0  0  0  0  0  0  0  0  0
   60.2950   29.3260   47.2890 O   0  0  0  0  0  0  0  0  0  0  0  0
   59.7090   30.0530   48.3700 C   0  0  0  0  0  0  0  0  0  0  0  0
   58.6142   29.9612   48.3154 H   0  0  0  0  0  0  0  0  0  0  0  0
   60.0800   29.6370   49.3183 H   0  0  0  0  0  0  0  0  0  0  0  0
   60.0870   31.5080   48.2990 C   0  0  0  0  0  0  0  0  0  0  0  0
   59.2390   32.4930   48.8370 C   0  0  0  0  0  0  0  0  0  0  0  0
   58.2941   32.2002   49.3180 H   0  0  0  0  0  0  0  0  0  0  0  0
   59.5940   33.8430   48.7620 C   0  0  0  0  0  0  0  0  0  0  0  0
   58.9318   34.6093   49.1913 H   0  0  0  0  0  0  0  0  0  0  0  0
   60.7880   34.2210   48.1430 C   0  0  0  0  0  0  0  0  0  0  0  0
   61.0653   35.2840   48.0866 H   0  0  0  0  0  0  0  0  0  0  0  0
   61.6310   33.2490   47.5950 C   0  0  0  0  0  0  0  0  0  0  0  0
   63.2620   33.7670   46.7460 Br  0  0  0  0  0  0  0  0  0  0  0  0
   61.2790   31.8970   47.6670 C   0  0  0  0  0  0  0  0  0  0  0  0
   61.9390   31.1352   47.2265 H   0  0  0  0  0  0  0  0  0  0  0  0
   58.1080   31.5600   43.8160 C   0  0  0  0  0  0  0  0  0  0  0  0
   59.0975   31.2423   43.4556 H   0  0  0  0  0  0  0  0  0  0  0  0
   57.4482   31.8147   42.9735 H   0  0  0  0  0  0  0  0  0  0  0  0
   58.2660   32.7510   44.6530 N   0  0  0  0  0  0  0  0  0  0  0  0
   57.4750   33.1090   45.6840 C   0  0  0  0  0  0  0  0  0  0  0  0
   56.6465   32.4913   46.0608 H   0  0  0  0  0  0  0  0  0  0  0  0
   57.8110   34.3080   46.2030 N   0  0  0  0  0  0  0  0  0  0  0  0
   58.8530   34.7170   45.4500 C   0  0  0  0  0  0  0  0  0  0  0  0
   59.3993   35.6624   45.5834 H   0  0  0  0  0  0  0  0  0  0  0  0
   59.1280   33.7700   44.4890 C   0  0  0  0  0  0  0  0  0  0  0  0
   59.9141   33.8355   43.7224 H   0  0  0  0  0  0  0  0  0  0  0  0
  1  2  1  0
  2  3  1  0
  3  4  2  0
  3  5  1  0
  5  6  2  0
  6  7  1  0
  6  8  1  0
  8  9  2  0
  9 10  1  0
  9 11  1  0
 11 12  1  0
 11 13  2  0
 13 14  1  0
 13 15  1  0
 15 16  1  0
 15 17  2  0
 17 18  1  0
 18 19  1  0
 19 20  1  0
 19 21  1  0
 19 22  1  0
 22 23  2  0
 23 24  1  0
 23 25  1  0
 25 26  1  0
 25 27  2  0
 27 28  1  0
 27 29  1  0
 29 30  1  0
 29 31  2  0
 31 32  1  0
  5 33  1  0
 33 34  1  0
 33 35  1  0
 33 36  1  0
 36 37  1  0
 37 38  1  0
 37 39  2  0
 39 40  1  0
 40 41  1  0
 40 42  2  0
 42 43  1  0
 17  8  1  0
 31 22  1  0
 42 36  1  0
M  CHG  1   2  -1
M  END
>  <UniqueID>  (70) 
64

>  <SMILES>  (70) 
[NH-]C(=O)/C(=C/c1ccccc1OCc1cccc(Br)c1)Cn1ccnc1

>  <Energy>  (70) 
81.4596299313942

>  <Genealogy>  (70) 
[NH-]C(=O)C(=Cc1ccccc1OCc1cccc(Br)c1)Cn1ccnc1 (protonated)
[NH-]C(=O)/C(=C/c1ccccc1OCc1cccc(Br)c1)Cn1ccnc1 (cis-trans isomerization)
[NH-]C(=O)/C(=C/c1ccccc1OCc1cccc(Br)c1)Cn1ccnc1 (3D coordinates assigned)
[NH-]C(=O)/C(=C/c1ccccc1OCc1cccc(Br)c1)Cn1ccnc1 (optimized conformer: 81.4596299313942 kcal/mol)

>  <smiles>  (70) 
NC(=O)C(=Cc1ccccc1OCc1cccc(Br)c1)Cn1ccnc1

>  <score_type>  (70) 
oracle

>  <origin>  (70) 
adg

>  <m_score__min__energy>  (70) 
-12.789999999999999

>  <m_primary>  (70) 
energy

$$$$
70:0
     RDKit          3D

 51 53  0  0  0  0  0  0  0  0999 V2000
   59.1380   28.1060   47.6550 C   0  0  0  0  0  0  0  0  0  0  0  0
   59.0290   29.5440   47.2280 C   0  0  0  0  0  0  0  0  0  0  0  0
   59.0520   30.5650   48.1870 C   0  0  0  0  0  0  0  0  0  0  0  0
   58.9840   31.9110   47.8060 C   0  0  0  0  0  0  0  0  0  0  0  0
   59.0910   33.1650   49.0980 S   0  0  0  0  0  0  0  0  0  0  0  0
   60.7020   32.6050   49.7680 C   0  0  0  0  0  0  0  0  0  0  0  0
   61.7930   32.6990   48.7380 C   0  0  0  0  0  0  0  0  0  0  0  0
   62.3150   31.5380   48.1440 C   0  0  0  0  0  0  0  0  0  0  0  0
   63.3030   31.6330   47.1610 C   0  0  0  0  0  0  0  0  0  0  0  0
   63.7800   32.8850   46.7640 C   0  0  0  0  0  0  0  0  0  0  0  0
   63.2690   34.0460   47.3540 C   0  0  0  0  0  0  0  0  0  0  0  0
   62.2790   33.9550   48.3360 C   0  0  0  0  0  0  0  0  0  0  0  0
   58.8270   32.2450   46.4420 C   0  0  0  0  0  0  0  0  0  0  0  0
   58.5450   33.9100   45.9070 S   0  0  0  0  0  0  0  0  0  0  0  0
   59.4580   34.9920   46.9020 N   0  0  0  0  0  0  0  0  0  0  0  0
   58.9460   34.0850   44.4710 O   0  0  0  0  0  0  0  0  0  0  0  0
   57.0860   34.2510   46.0330 O   0  0  0  0  0  0  0  0  0  0  0  0
   58.8030   31.2190   45.4850 C   0  0  0  0  0  0  0  0  0  0  0  0
   58.9160   29.8690   45.8660 C   0  0  0  0  0  0  0  0  0  0  0  0
   58.9120   28.8290   44.9210 O   0  0  0  0  0  0  0  0  0  0  0  0
   57.7880   28.4620   44.1230 C   0  0  0  0  0  0  0  0  0  0  0  0
   56.5360   28.6280   44.9170 C   0  0  0  0  0  0  0  0  0  0  0  0
   56.0250   29.7740   45.0410 O   0  0  0  0  0  0  0  0  0  0  0  0
   55.9900   27.5030   45.6160 N   0  0  0  0  0  0  0  0  0  0  0  0
   56.6170   26.2240   45.7960 C   0  0  0  0  0  0  0  0  0  0  0  0
   57.1160   25.5570   44.6700 C   0  0  0  0  0  0  0  0  0  0  0  0
   57.7270   24.3060   44.8020 C   0  0  0  0  0  0  0  0  0  0  0  0
   57.8280   23.7050   46.0600 C   0  0  0  0  0  0  0  0  0  0  0  0
   58.4230   22.4930   46.1850 F   0  0  0  0  0  0  0  0  0  0  0  0
   57.3100   24.3510   47.1860 C   0  0  0  0  0  0  0  0  0  0  0  0
   57.3890   23.7610   48.4050 F   0  0  0  0  0  0  0  0  0  0  0  0
   56.7000   25.6040   47.0570 C   0  0  0  0  0  0  0  0  0  0  0  0
   59.1423   28.0490   48.7535 H   0  0  0  0  0  0  0  0  0  0  0  0
   58.2801   27.5407   47.2619 H   0  0  0  0  0  0  0  0  0  0  0  0
   60.0713   27.6765   47.2619 H   0  0  0  0  0  0  0  0  0  0  0  0
   59.1244   30.3060   49.2536 H   0  0  0  0  0  0  0  0  0  0  0  0
   60.9689   33.2353   50.6291 H   0  0  0  0  0  0  0  0  0  0  0  0
   60.6021   31.5514   50.0680 H   0  0  0  0  0  0  0  0  0  0  0  0
   61.9442   30.5499   48.4542 H   0  0  0  0  0  0  0  0  0  0  0  0
   63.7064   30.7202   46.6984 H   0  0  0  0  0  0  0  0  0  0  0  0
   64.5565   32.9576   45.9883 H   0  0  0  0  0  0  0  0  0  0  0  0
   63.6469   35.0316   47.0446 H   0  0  0  0  0  0  0  0  0  0  0  0
   61.8784   34.8702   48.7963 H   0  0  0  0  0  0  0  0  0  0  0  0
   60.0570   34.4040   47.5240 H   0  0  0  0  0  0  0  0  0  0  0  0
   58.7800   35.4890   47.5210 H   0  0  0  0  0  0  0  0  0  0  0  0
   58.6942   31.4739   44.4205 H   0  0  0  0  0  0  0  0  0  0  0  0
   57.7451   29.1063   43.2325 H   0  0  0  0  0  0  0  0  0  0  0  0
   57.8874   27.4114   43.8124 H   0  0  0  0  0  0  0  0  0  0  0  0
   57.0268   26.0198   43.6761 H   0  0  0  0  0  0  0  0  0  0  0  0
   58.1286   23.7944   43.9149 H   0  0  0  0  0  0  0  0  0  0  0  0
   56.2843   26.1056   47.9433 H   0  0  0  0  0  0  0  0  0  0  0  0
  1  2  1  0
  2  3  2  0
  3  4  1  0
  4  5  1  0
  5  6  1  0
  6  7  1  0
  7  8  2  0
  8  9  1  0
  9 10  2  0
 10 11  1  0
 11 12  2  0
  4 13  2  0
 13 14  1  0
 14 15  1  0
 14 16  2  0
 14 17  2  0
 13 18  1  0
 18 19  2  0
 19 20  1  0
 20 21  1  0
 21 22  1  0
 22 23  2  0
 22 24  1  0
 24 25  1  0
 25 26  2  0
 26 27  1  0
 27 28  2  0
 28 29  1  0
 28 30  1  0
 30 31  1  0
 30 32  2  0
 19  2  1  0
 32 25  1  0
 12  7  1  0
  1 33  1  0
  1 34  1  0
  1 35  1  0
  3 36  1  0
  6 37  1  0
  6 38  1  0
  8 39  1  0
  9 40  1  0
 10 41  1  0
 11 42  1  0
 12 43  1  0
 15 44  1  0
 15 45  1  0
 18 46  1  0
 21 47  1  0
 21 48  1  0
 26 49  1  0
 27 50  1  0
 32 51  1  0
M  CHG  1  24  -1
M  END
>  <UniqueID>  (71) 
65

>  <SMILES>  (71) 
Cc1cc(SCc2ccccc2)c(S(N)(=O)=O)cc1OCC(=O)[N-]c1ccc(F)c(F)c1

>  <Energy>  (71) 
51.05003347157354

>  <Genealogy>  (71) 
Cc1cc(SCc2ccccc2)c(S(N)(=O)=O)cc1OCC(=O)[N-]c1ccc(F)c(F)c1 (protonated)
Cc1cc(SCc2ccccc2)c(S(N)(=O)=O)cc1OCC(=O)[N-]c1ccc(F)c(F)c1 (3D coordinates assigned)
Cc1cc(SCc2ccccc2)c(S(N)(=O)=O)cc1OCC(=O)[N-]c1ccc(F)c(F)c1 (optimized conformer: 51.05003347157354 kcal/mol)

>  <smiles>  (71) 
Cc1cc(SCc2ccccc2)c(S(N)(=O)=O)cc1OCC(=O)Nc1ccc(F)c(F)c1

>  <score_type>  (71) 
oracle

>  <origin>  (71) 
adg

>  <m_score__min__energy>  (71) 
-11.16

>  <m_primary>  (71) 
energy

$$$$
71:0
     RDKit          3D

 44 46  0  0  0  0  0  0  0  0999 V2000
   56.9670   34.0600   47.1010 H   0  0  0  0  0  0  0  0  0  0  0  0
   57.6250   34.2130   46.3720 O   0  0  0  0  0  0  0  0  0  0  0  0
   58.5710   33.1840   46.4640 C   0  0  0  0  0  0  0  0  0  0  0  0
   59.4089   33.3982   45.7842 H   0  0  0  0  0  0  0  0  0  0  0  0
   58.0959   32.2322   46.1842 H   0  0  0  0  0  0  0  0  0  0  0  0
   59.0870   33.0810   47.8720 C   0  0  0  0  0  0  0  0  0  0  0  0
   60.4020   33.4670   48.1720 C   0  0  0  0  0  0  0  0  0  0  0  0
   61.0637   33.8270   47.3704 H   0  0  0  0  0  0  0  0  0  0  0  0
   60.8740   33.3960   49.4840 C   0  0  0  0  0  0  0  0  0  0  0  0
   61.9103   33.6870   49.7108 H   0  0  0  0  0  0  0  0  0  0  0  0
   60.0330   32.9560   50.5100 C   0  0  0  0  0  0  0  0  0  0  0  0
   60.4147   32.8888   51.5395 H   0  0  0  0  0  0  0  0  0  0  0  0
   58.7020   32.5990   50.2330 C   0  0  0  0  0  0  0  0  0  0  0  0
   57.8210   32.1270   51.2670 N   0  0  0  0  0  0  0  0  0  0  0  0
   57.6080   32.7650   52.0640 H   0  0  0  0  0  0  0  0  0  0  0  0
   57.3330   30.7810   51.3450 C   0  0  0  0  0  0  0  0  0  0  0  0
   58.0200   29.8350   50.8730 O   0  0  0  0  0  0  0  0  0  0  0  0
   56.0750   30.4670   52.0550 C   0  0  0  0  0  0  0  0  0  0  0  0
   54.8390   30.9090   51.6320 C   0  0  0  0  0  0  0  0  0  0  0  0
   54.6255   31.4634   50.7062 H   0  0  0  0  0  0  0  0  0  0  0  0
   53.9190   30.5250   52.5890 C   0  0  0  0  0  0  0  0  0  0  0  0
   52.6150   30.8590   52.5140 C   0  0  0  0  0  0  0  0  0  0  0  0
   52.0754   30.9850   53.4642 H   0  0  0  0  0  0  0  0  0  0  0  0
   51.8490   31.0700   51.2770 C   0  0  0  0  0  0  0  0  0  0  0  0
   51.8550   30.2110   50.2430 N   0  0  0  0  0  0  0  0  0  0  0  0
   51.1430   30.8580   49.2950 C   0  0  0  0  0  0  0  0  0  0  0  0
   50.9090   30.3600   48.1640 O   0  0  0  0  0  0  0  0  0  0  0  0
   50.7110   32.0880   49.6510 N   0  0  0  0  0  0  0  0  0  0  0  0
   51.1800   32.2130   50.9020 C   0  0  0  0  0  0  0  0  0  0  0  0
   51.0240   33.3570   51.6740 O   0  0  0  0  0  0  0  0  0  0  0  0
   54.6400   29.8100   53.5600 C   0  0  0  0  0  0  0  0  0  0  0  0
   54.1310   29.1440   54.6100 C   0  0  0  0  0  0  0  0  0  0  0  0
   54.8018   28.6188   55.3058 H   0  0  0  0  0  0  0  0  0  0  0  0
   53.0435   29.1239   54.7738 H   0  0  0  0  0  0  0  0  0  0  0  0
   55.9630   29.8050   53.2340 N   0  0  0  0  0  0  0  0  0  0  0  0
   57.0640   29.2320   54.0270 C   0  0  0  0  0  0  0  0  0  0  0  0
   56.6483   28.5253   54.7603 H   0  0  0  0  0  0  0  0  0  0  0  0
   57.7558   28.7184   53.3432 H   0  0  0  0  0  0  0  0  0  0  0  0
   57.8360   30.3230   54.7680 C   0  0  0  0  0  0  0  0  0  0  0  0
   57.7308   30.1743   55.8528 H   0  0  0  0  0  0  0  0  0  0  0  0
   58.8996   30.2712   54.4923 H   0  0  0  0  0  0  0  0  0  0  0  0
   57.4333   31.3088   54.4923 H   0  0  0  0  0  0  0  0  0  0  0  0
   58.2410   32.6550   48.9080 C   0  0  0  0  0  0  0  0  0  0  0  0
   57.2057   32.3619   48.6793 H   0  0  0  0  0  0  0  0  0  0  0  0
  1  2  1  0
  2  3  1  0
  3  4  1  0
  3  5  1  0
  3  6  1  0
  6  7  2  0
  7  8  1  0
  7  9  1  0
  9 10  1  0
  9 11  2  0
 11 12  1  0
 11 13  1  0
 13 14  1  0
 14 15  1  0
 14 16  1  0
 16 17  2  0
 16 18  1  0
 18 19  2  0
 19 20  1  0
 19 21  1  0
 21 22  2  0
 22 23  1  0
 22 24  1  0
 24 25  1  0
 25 26  1  0
 26 27  2  0
 26 28  1  0
 28 29  1  0
 29 30  1  0
 21 31  1  0
 31 32  2  0
 32 33  1  0
 32 34  1  0
 31 35  1  0
 35 36  1  0
 36 37  1  0
 36 38  1  0
 36 39  1  0
 39 40  1  0
 39 41  1  0
 39 42  1  0
 13 43  2  0
 43 44  1  0
 43  6  1  0
 35 18  1  0
 29 24  2  0
M  CHG  3  25  -1  28  -1  30  -1
M  END
>  <UniqueID>  (72) 
66

>  <SMILES>  (72) 
C=c1/c(=C\c2[n-]c(=O)[n-]c2[O-])cc(C(=O)Nc2cccc(CO)c2)n1CC

>  <Energy>  (72) 
121.17897822975583

>  <Genealogy>  (72) 
C=c1c(=Cc2[n-]c(=O)[n-]c2[O-])cc(C(=O)Nc2cccc(CO)c2)n1CC (protonated)
C=c1/c(=C\c2[n-]c(=O)[n-]c2[O-])cc(C(=O)Nc2cccc(CO)c2)n1CC (cis-trans isomerization)
C=c1/c(=C\c2[n-]c(=O)[n-]c2[O-])cc(C(=O)Nc2cccc(CO)c2)n1CC (3D coordinates assigned)
C=c1/c(=C\c2[n-]c(=O)[n-]c2[O-])cc(C(=O)Nc2cccc(CO)c2)n1CC (optimized conformer: 121.17897822975583 kcal/mol)

>  <smiles>  (72) 
C=c1c(=Cc2[nH]c(=O)[nH]c2O)cc(C(=O)Nc2cccc(CO)c2)n1CC

>  <score_type>  (72) 
oracle

>  <origin>  (72) 
adg

>  <m_score__min__energy>  (72) 
-16.550000000000001

>  <m_primary>  (72) 
energy

$$$$
72:0
     RDKit          3D

 46 46  0  0  0  0  0  0  0  0999 V2000
   59.3430   30.9060   47.7450 H   0  0  0  0  0  0  0  0  0  0  0  0
   60.0430   31.3510   48.3270 O   0  0  0  0  0  0  0  0  0  0  0  0
   61.0260   32.1770   47.7850 C   0  0  0  0  0  0  0  0  0  0  0  0
   62.3680   31.7710   47.7940 C   0  0  0  0  0  0  0  0  0  0  0  0
   62.6478   30.8136   48.2578 H   0  0  0  0  0  0  0  0  0  0  0  0
   63.3510   32.5780   47.2160 C   0  0  0  0  0  0  0  0  0  0  0  0
   64.4035   32.2586   47.2315 H   0  0  0  0  0  0  0  0  0  0  0  0
   62.9980   33.7910   46.6180 C   0  0  0  0  0  0  0  0  0  0  0  0
   63.7717   34.4211   46.1549 H   0  0  0  0  0  0  0  0  0  0  0  0
   61.6630   34.2040   46.6080 C   0  0  0  0  0  0  0  0  0  0  0  0
   61.3871   35.1528   46.1246 H   0  0  0  0  0  0  0  0  0  0  0  0
   60.6740   33.4150   47.2110 C   0  0  0  0  0  0  0  0  0  0  0  0
   59.2710   33.8710   47.1800 C   0  0  0  0  0  0  0  0  0  0  0  0
   58.6252   33.5997   48.0281 H   0  0  0  0  0  0  0  0  0  0  0  0
   57.9870   32.0790   43.5490 C   0  0  0  0  0  0  0  0  0  0  0  0
   58.8820   35.6832   46.2065 H   0  0  0  0  0  0  0  0  0  0  0  0
   58.7290   34.5940   46.1880 C   0  0  0  0  0  0  0  0  0  0  0  0
   56.6090   34.2900   44.9710 F   0  0  0  0  0  0  0  0  0  0  0  0
   57.9400   34.0290   45.0710 C   0  0  0  0  0  0  0  0  0  0  0  0
   59.5014   33.7107   43.6989 H   0  0  0  0  0  0  0  0  0  0  0  0
   58.5490   33.3350   44.1010 C   0  0  0  0  0  0  0  0  0  0  0  0
   57.8050   30.9710   44.3220 C   0  0  0  0  0  0  0  0  0  0  0  0
   58.4640   30.8070   45.6440 C   0  0  0  0  0  0  0  0  0  0  0  0
   57.8750   31.1520   46.7050 O   0  0  0  0  0  0  0  0  0  0  0  0
   59.8010   30.2960   45.7080 N   0  0  0  0  0  0  0  0  0  0  0  0
   60.1630   28.9250   45.3690 C   0  0  0  0  0  0  0  0  0  0  0  0
   59.5403   28.5829   44.5293 H   0  0  0  0  0  0  0  0  0  0  0  0
   61.2261   28.8961   45.0880 H   0  0  0  0  0  0  0  0  0  0  0  0
   59.9420   28.0020   46.5690 C   0  0  0  0  0  0  0  0  0  0  0  0
   59.0598   27.3712   46.3849 H   0  0  0  0  0  0  0  0  0  0  0  0
   60.8324   27.3707   46.7057 H   0  0  0  0  0  0  0  0  0  0  0  0
   59.7270   28.7910   47.7770 N   0  0  0  0  0  0  0  0  0  0  0  0
   60.6140   29.3040   47.9840 H   0  0  0  0  0  0  0  0  0  0  0  0
   59.0060   29.5190   47.5680 H   0  0  0  0  0  0  0  0  0  0  0  0
   56.8640   29.8960   43.9060 C   0  0  0  0  0  0  0  0  0  0  0  0
   55.5440   30.0900   43.9960 C   0  0  0  0  0  0  0  0  0  0  0  0
   55.1532   31.0423   44.3838 H   0  0  0  0  0  0  0  0  0  0  0  0
   54.8489   29.2973   43.6822 H   0  0  0  0  0  0  0  0  0  0  0  0
   57.3910   28.5920   43.3750 C   0  0  0  0  0  0  0  0  0  0  0  0
   57.6568   27.9343   44.2157 H   0  0  0  0  0  0  0  0  0  0  0  0
   56.6182   28.1072   42.7604 H   0  0  0  0  0  0  0  0  0  0  0  0
   58.2836   28.7803   42.7604 H   0  0  0  0  0  0  0  0  0  0  0  0
   57.6350   32.1020   42.0840 C   0  0  0  0  0  0  0  0  0  0  0  0
   56.5432   32.1733   41.9703 H   0  0  0  0  0  0  0  0  0  0  0  0
   58.1110   32.9710   41.6061 H   0  0  0  0  0  0  0  0  0  0  0  0
   57.9938   31.1785   41.6061 H   0  0  0  0  0  0  0  0  0  0  0  0
  1  2  1  0
  2  3  1  0
  3  4  2  0
  4  5  1  0
  4  6  1  0
  6  7  1  0
  6  8  2  0
  8  9  1  0
  8 10  1  0
 10 11  1  0
 10 12  2  0
 12 13  1  0
 13 14  1  0
 13 15  2  0
 15 16  1  0
 15 17  1  0
 17 18  1  0
 17 19  2  0
 19 20  1  0
 19 21  1  0
 21 22  2  3
 22 23  1  0
 23 24  2  0
 23 25  1  0
 25 26  1  0
 26 27  1  0
 26 28  1  0
 26 29  1  0
 29 30  1  0
 29 31  1  0
 29 32  1  0
 32 33  1  0
 32 34  1  0
 22 35  1  0
 35 36  2  0
 36 37  1  0
 36 38  1  0
 35 39  1  0
 39 40  1  0
 39 41  1  0
 39 42  1  0
 21 43  1  0
 43 44  1  0
 43 45  1  0
 43 46  1  0
 12  3  1  0
M  CHG  1  25  -1
M  END
>  <UniqueID>  (73) 
67

>  <SMILES>  (73) 
C=C(C)C(C(=O)[N-]CCN)=C(C)/C=C(\F)C=Cc1ccccc1O

>  <Energy>  (73) 
57.97872728010098

>  <Genealogy>  (73) 
C=C(C)C(C(=O)[N-]CCN)=C(C)C=C(F)C=Cc1ccccc1O (protonated)
C=C(C)C(C(=O)[N-]CCN)=C(C)/C=C(\F)C=Cc1ccccc1O (cis-trans isomerization)
C=C(C)C(C(=O)[N-]CCN)=C(C)/C=C(\F)C=Cc1ccccc1O (3D coordinates assigned)
C=C(C)C(C(=O)[N-]CCN)=C(C)/C=C(\F)C=Cc1ccccc1O (optimized conformer: 57.97872728010098 kcal/mol)

>  <smiles>  (73) 
C=C(C)C(C(=O)NCCN)=C(C)C=C(F)C=Cc1ccccc1O

>  <score_type>  (73) 
oracle

>  <origin>  (73) 
adg

>  <m_score__min__energy>  (73) 
-10.24

>  <m_primary>  (73) 
energy

$$$$
73:0
     RDKit          3D

 38 41  0  0  0  0  0  0  0  0999 V2000
   55.1470   29.3320   44.8520 O   0  0  0  0  0  0  0  0  0  0  0  0
   56.4230   29.9370   44.3410 S   0  0  0  0  0  0  0  0  0  0  0  0
   56.4120   29.9090   42.8370 O   0  0  0  0  0  0  0  0  0  0  0  0
   56.5250   31.5840   44.8740 N   0  0  0  0  0  0  0  0  0  0  0  0
   57.6970   32.2030   45.4230 C   0  0  0  0  0  0  0  0  0  0  0  0
   58.2420   33.3960   44.8820 C   0  0  0  0  0  0  0  0  0  0  0  0
   59.3980   33.9700   45.4360 C   0  0  0  0  0  0  0  0  0  0  0  0
   59.9990   33.3490   46.5290 C   0  0  0  0  0  0  0  0  0  0  0  0
   61.1160   33.8040   47.1530 N   0  0  0  0  0  0  0  0  0  0  0  0
   61.4720   32.9990   48.1870 C   0  0  0  0  0  0  0  0  0  0  0  0
   62.6540   33.2550   49.0430 C   0  0  0  0  0  0  0  0  0  0  0  0
   62.5340   33.9780   50.2450 C   0  0  0  0  0  0  0  0  0  0  0  0
   63.6580   34.2120   51.0460 C   0  0  0  0  0  0  0  0  0  0  0  0
   64.9090   33.7270   50.6580 C   0  0  0  0  0  0  0  0  0  0  0  0
   66.0220   33.9590   51.4550 O   0  0  0  0  0  0  0  0  0  0  0  0
   65.0390   33.0090   49.4660 C   0  0  0  0  0  0  0  0  0  0  0  0
   63.9190   32.7740   48.6620 C   0  0  0  0  0  0  0  0  0  0  0  0
   60.3980   31.6930   48.3550 S   0  0  0  0  0  0  0  0  0  0  0  0
   59.4610   32.1890   47.0570 C   0  0  0  0  0  0  0  0  0  0  0  0
   58.3170   31.5970   46.5300 C   0  0  0  0  0  0  0  0  0  0  0  0
   57.7840   29.0140   44.9700 C   0  0  0  0  0  0  0  0  0  0  0  0
   59.0820   29.2480   44.4930 C   0  0  0  0  0  0  0  0  0  0  0  0
   60.1620   28.5260   45.0130 C   0  0  0  0  0  0  0  0  0  0  0  0
   59.9480   27.5680   46.0090 C   0  0  0  0  0  0  0  0  0  0  0  0
   58.6550   27.3280   46.4820 C   0  0  0  0  0  0  0  0  0  0  0  0
   58.4480   26.3990   47.4480 F   0  0  0  0  0  0  0  0  0  0  0  0
   57.5730   28.0470   45.9620 C   0  0  0  0  0  0  0  0  0  0  0  0
   57.7546   33.8759   44.0205 H   0  0  0  0  0  0  0  0  0  0  0  0
   59.8214   34.8936   45.0144 H   0  0  0  0  0  0  0  0  0  0  0  0
   61.5512   34.3613   50.5566 H   0  0  0  0  0  0  0  0  0  0  0  0
   63.5557   34.7791   51.9830 H   0  0  0  0  0  0  0  0  0  0  0  0
   66.0243   32.6279   49.1595 H   0  0  0  0  0  0  0  0  0  0  0  0
   64.0286   32.2087   47.7247 H   0  0  0  0  0  0  0  0  0  0  0  0
   57.9071   30.6757   46.9696 H   0  0  0  0  0  0  0  0  0  0  0  0
   59.2513   30.0005   43.7087 H   0  0  0  0  0  0  0  0  0  0  0  0
   61.1793   28.7120   44.6383 H   0  0  0  0  0  0  0  0  0  0  0  0
   60.7976   27.0032   46.4203 H   0  0  0  0  0  0  0  0  0  0  0  0
   56.5556   27.8529   46.3324 H   0  0  0  0  0  0  0  0  0  0  0  0
  1  2  2  0
  2  3  2  0
  2  4  1  0
  4  5  1  0
  5  6  2  0
  6  7  1  0
  7  8  2  0
  8  9  1  0
  9 10  2  0
 10 11  1  0
 11 12  2  0
 12 13  1  0
 13 14  2  0
 14 15  1  0
 14 16  1  0
 16 17  2  0
 10 18  1  0
 18 19  1  0
 19 20  2  0
  2 21  1  0
 21 22  2  0
 22 23  1  0
 23 24  2  0
 24 25  1  0
 25 26  1  0
 25 27  2  0
 20  5  1  0
 27 21  1  0
 19  8  1  0
 17 11  1  0
  6 28  1  0
  7 29  1  0
 12 30  1  0
 13 31  1  0
 16 32  1  0
 17 33  1  0
 20 34  1  0
 22 35  1  0
 23 36  1  0
 24 37  1  0
 27 38  1  0
M  CHG  2   4  -1  15  -1
M  END
>  <UniqueID>  (74) 
68

>  <SMILES>  (74) 
O=S(=O)([N-]c1ccc2nc(-c3ccc([O-])cc3)sc2c1)c1cccc(F)c1

>  <Energy>  (74) 
81.59252350292189

>  <Genealogy>  (74) 
O=S(=O)([N-]c1ccc2nc(-c3ccc([O-])cc3)sc2c1)c1cccc(F)c1 (protonated)
O=S(=O)([N-]c1ccc2nc(-c3ccc([O-])cc3)sc2c1)c1cccc(F)c1 (3D coordinates assigned)
O=S(=O)([N-]c1ccc2nc(-c3ccc([O-])cc3)sc2c1)c1cccc(F)c1 (optimized conformer: 81.59252350292189 kcal/mol)

>  <smiles>  (74) 
O=S(=O)(Nc1ccc2nc(-c3ccc(O)cc3)sc2c1)c1cccc(F)c1

>  <score_type>  (74) 
oracle

>  <origin>  (74) 
adg

>  <m_score__min__energy>  (74) 
-10.970000000000001

>  <m_primary>  (74) 
energy

$$$$
74:0
     RDKit          3D

 61 65  0  0  0  0  0  0  0  0999 V2000
   56.6760   20.8660   42.9250 C   0  0  0  0  0  0  0  0  0  0  0  0
   56.8390   21.6540   44.1350 N   0  0  0  0  0  0  0  0  0  0  0  0
   56.5190   20.8180   45.2480 C   0  0  0  0  0  0  0  0  0  0  0  0
   57.0170   21.3610   46.5670 C   0  0  0  0  0  0  0  0  0  0  0  0
   57.4240   22.7320   46.3470 N   0  0  0  0  0  0  0  0  0  0  0  0
   56.7840   23.8040   47.0250 C   0  0  0  0  0  0  0  0  0  0  0  0
   55.8540   23.4930   47.8190 O   0  0  0  0  0  0  0  0  0  0  0  0
   57.1650   25.1930   46.8290 C   0  0  0  0  0  0  0  0  0  0  0  0
   56.4480   26.0630   46.0140 C   0  0  0  0  0  0  0  0  0  0  0  0
   56.9130   27.3710   45.9060 C   0  0  0  0  0  0  0  0  0  0  0  0
   58.0370   27.8140   46.5700 C   0  0  0  0  0  0  0  0  0  0  0  0
   58.4930   29.1200   46.4550 C   0  0  0  0  0  0  0  0  0  0  0  0
   59.6200   29.5300   47.1320 C   0  0  0  0  0  0  0  0  0  0  0  0
   60.1600   30.9170   47.0480 C   0  0  0  0  0  0  0  0  0  0  0  0
   59.0170   31.8800   47.3300 C   0  0  0  0  0  0  0  0  0  0  0  0
   59.0910   33.0630   46.4720 C   0  0  0  0  0  0  0  0  0  0  0  0
   59.6950   34.2360   46.8010 N   0  0  0  0  0  0  0  0  0  0  0  0
   59.5720   35.0720   45.7850 N   0  0  0  0  0  0  0  0  0  0  0  0
   58.8970   34.4710   44.7930 C   0  0  0  0  0  0  0  0  0  0  0  0
   58.5770   33.1770   45.2120 C   0  0  0  0  0  0  0  0  0  0  0  0
   57.8420   32.2610   44.3750 C   0  0  0  0  0  0  0  0  0  0  0  0
   57.9840   32.3880   42.9960 C   0  0  0  0  0  0  0  0  0  0  0  0
   57.3210   31.5690   42.1080 C   0  0  0  0  0  0  0  0  0  0  0  0
   56.5110   30.6180   42.5780 N   0  0  0  0  0  0  0  0  0  0  0  0
   56.3440   30.4600   43.9120 C   0  0  0  0  0  0  0  0  0  0  0  0
   55.5420   29.5160   44.2970 N   0  0  0  0  0  0  0  0  0  0  0  0
   57.0020   31.2740   44.8200 C   0  0  0  0  0  0  0  0  0  0  0  0
   60.3380   28.6540   47.9500 C   0  0  0  0  0  0  0  0  0  0  0  0
   59.8560   27.3730   48.0360 C   0  0  0  0  0  0  0  0  0  0  0  0
   58.7310   26.9340   47.3710 C   0  0  0  0  0  0  0  0  0  0  0  0
   58.2900   25.6350   47.4930 C   0  0  0  0  0  0  0  0  0  0  0  0
   58.5150   22.9380   45.3990 C   0  0  0  0  0  0  0  0  0  0  0  0
   58.1530   22.2120   44.1240 C   0  0  0  0  0  0  0  0  0  0  0  0
   56.4599   19.8215   43.1940 H   0  0  0  0  0  0  0  0  0  0  0  0
   55.8428   21.2719   42.3325 H   0  0  0  0  0  0  0  0  0  0  0  0
   57.6019   20.9081   42.3325 H   0  0  0  0  0  0  0  0  0  0  0  0
   55.4253   20.7146   45.3038 H   0  0  0  0  0  0  0  0  0  0  0  0
   57.0192   19.8522   45.0840 H   0  0  0  0  0  0  0  0  0  0  0  0
   56.2125   21.3237   47.3163 H   0  0  0  0  0  0  0  0  0  0  0  0
   57.8607   20.7613   46.9391 H   0  0  0  0  0  0  0  0  0  0  0  0
   55.5483   25.7304   45.4756 H   0  0  0  0  0  0  0  0  0  0  0  0
   56.3629   28.0773   45.2669 H   0  0  0  0  0  0  0  0  0  0  0  0
   57.9497   29.8333   45.8179 H   0  0  0  0  0  0  0  0  0  0  0  0
   60.9570   31.0539   47.7937 H   0  0  0  0  0  0  0  0  0  0  0  0
   60.5824   31.1046   46.0498 H   0  0  0  0  0  0  0  0  0  0  0  0
   58.0621   31.3651   47.1479 H   0  0  0  0  0  0  0  0  0  0  0  0
   59.0907   32.2072   48.3776 H   0  0  0  0  0  0  0  0  0  0  0  0
   60.1850   34.4960   47.6780 H   0  0  0  0  0  0  0  0  0  0  0  0
   58.6408   34.9183   43.8212 H   0  0  0  0  0  0  0  0  0  0  0  0
   58.6492   33.1700   42.6011 H   0  0  0  0  0  0  0  0  0  0  0  0
   57.4578   31.6975   41.0241 H   0  0  0  0  0  0  0  0  0  0  0  0
   56.0040   29.9910   41.8930 H   0  0  0  0  0  0  0  0  0  0  0  0
   55.7870   28.5430   44.0410 H   0  0  0  0  0  0  0  0  0  0  0  0
   56.8498   31.1277   45.8996 H   0  0  0  0  0  0  0  0  0  0  0  0
   61.2389   28.9737   48.4942 H   0  0  0  0  0  0  0  0  0  0  0  0
   60.3971   26.6559   48.6709 H   0  0  0  0  0  0  0  0  0  0  0  0
   58.8468   24.9353   48.1336 H   0  0  0  0  0  0  0  0  0  0  0  0
   58.6391   24.0122   45.1971 H   0  0  0  0  0  0  0  0  0  0  0  0
   59.4610   22.5537   45.8081 H   0  0  0  0  0  0  0  0  0  0  0  0
   58.2213   22.9234   43.2878 H   0  0  0  0  0  0  0  0  0  0  0  0
   58.8576   21.3737   44.0201 H   0  0  0  0  0  0  0  0  0  0  0  0
  1  2  1  0
  2  3  1  0
  3  4  1  0
  4  5  1  0
  5  6  1  0
  6  7  2  0
  6  8  1  0
  8  9  2  0
  9 10  1  0
 10 11  2  0
 11 12  1  0
 12 13  2  0
 13 14  1  0
 14 15  1  0
 15 16  1  0
 16 17  1  0
 17 18  1  0
 18 19  2  0
 19 20  1  0
 20 21  1  0
 21 22  1  0
 22 23  2  0
 23 24  1  0
 24 25  1  0
 25 26  2  3
 25 27  1  0
 13 28  1  0
 28 29  2  0
 29 30  1  0
 30 31  2  0
  5 32  1  0
 32 33  1  0
 33  2  1  0
 31  8  1  0
 30 11  1  0
 20 16  2  0
 27 21  2  0
  1 34  1  0
  1 35  1  0
  1 36  1  0
  3 37  1  0
  3 38  1  0
  4 39  1  0
  4 40  1  0
  9 41  1  0
 10 42  1  0
 12 43  1  0
 14 44  1  0
 14 45  1  0
 15 46  1  0
 15 47  1  0
 17 48  1  0
 19 49  1  0
 22 50  1  0
 23 51  1  0
 24 52  1  0
 26 53  1  0
 27 54  1  0
 28 55  1  0
 29 56  1  0
 31 57  1  0
 32 58  1  0
 32 59  1  0
 33 60  1  0
 33 61  1  0
M  END
>  <smiles>  (75) 
CN1CCN(C(=O)c2ccc3cc(CCc4[nH]ncc4-c4cc[nH]c(=N)c4)ccc3c2)CC1

>  <score_type>  (75) 
oracle

>  <origin>  (75) 
adg

>  <m_score__min__energy>  (75) 
-10.85

>  <m_primary>  (75) 
energy

$$$$
75:0
     RDKit          3D

 51 54  0  0  0  0  0  0  0  0999 V2000
   60.0960   27.4930   46.9910 O   0  0  0  0  0  0  0  0  0  0  0  0
   58.9580   28.0180   46.8550 C   0  0  0  0  0  0  0  0  0  0  0  0
   57.7470   27.3030   47.3590 C   0  0  0  0  0  0  0  0  0  0  0  0
   57.4410   26.1630   46.4960 N   0  0  0  0  0  0  0  0  0  0  0  0
   56.2700   25.9140   45.8690 C   0  0  0  0  0  0  0  0  0  0  0  0
   55.1320   26.7040   45.9910 O   0  0  0  0  0  0  0  0  0  0  0  0
   56.3780   24.7790   45.0850 C   0  0  0  0  0  0  0  0  0  0  0  0
   57.6670   24.3290   45.2240 C   0  0  0  0  0  0  0  0  0  0  0  0
   58.3020   25.2070   46.0840 C   0  0  0  0  0  0  0  0  0  0  0  0
   59.6350   25.1400   46.4780 O   0  0  0  0  0  0  0  0  0  0  0  0
   58.2150   23.1290   44.5200 C   0  0  0  0  0  0  0  0  0  0  0  0
   57.1690   22.4560   43.6560 C   0  0  0  0  0  0  0  0  0  0  0  0
   55.8990   22.9030   43.5180 C   0  0  0  0  0  0  0  0  0  0  0  0
   55.3520   24.1350   44.2120 C   0  0  0  0  0  0  0  0  0  0  0  0
   58.8010   29.2880   46.2070 N   0  0  0  0  0  0  0  0  0  0  0  0
   58.0400   29.5870   45.0250 C   0  0  0  0  0  0  0  0  0  0  0  0
   57.7880   28.5990   44.0530 C   0  0  0  0  0  0  0  0  0  0  0  0
   57.0080   28.8900   42.9340 C   0  0  0  0  0  0  0  0  0  0  0  0
   56.4790   30.1670   42.7610 C   0  0  0  0  0  0  0  0  0  0  0  0
   56.7510   31.1690   43.6940 C   0  0  0  0  0  0  0  0  0  0  0  0
   57.5490   30.9000   44.8220 C   0  0  0  0  0  0  0  0  0  0  0  0
   57.8640   32.0080   45.7580 C   0  0  0  0  0  0  0  0  0  0  0  0
   58.2510   31.7600   46.9320 O   0  0  0  0  0  0  0  0  0  0  0  0
   57.7700   33.3690   45.3190 N   0  0  0  0  0  0  0  0  0  0  0  0
   58.9290   34.2360   45.1320 C   0  0  0  0  0  0  0  0  0  0  0  0
   59.7900   34.2100   46.3660 C   0  0  0  0  0  0  0  0  0  0  0  0
   59.2770   34.6120   47.6100 C   0  0  0  0  0  0  0  0  0  0  0  0
   60.0780   34.5470   48.7550 C   0  0  0  0  0  0  0  0  0  0  0  0
   61.3900   34.0770   48.6690 C   0  0  0  0  0  0  0  0  0  0  0  0
   61.9060   33.6710   47.4360 C   0  0  0  0  0  0  0  0  0  0  0  0
   61.1090   33.7330   46.2880 C   0  0  0  0  0  0  0  0  0  0  0  0
   57.9354   26.9448   48.3818 H   0  0  0  0  0  0  0  0  0  0  0  0
   56.8927   27.9960   47.3565 H   0  0  0  0  0  0  0  0  0  0  0  0
   60.2310   25.9580   46.4480 H   0  0  0  0  0  0  0  0  0  0  0  0
   59.0547   23.4430   43.8826 H   0  0  0  0  0  0  0  0  0  0  0  0
   58.5445   22.4071   45.2818 H   0  0  0  0  0  0  0  0  0  0  0  0
   57.4593   21.5481   43.1069 H   0  0  0  0  0  0  0  0  0  0  0  0
   55.2215   22.3373   42.8615 H   0  0  0  0  0  0  0  0  0  0  0  0
   55.0275   24.8588   43.4499 H   0  0  0  0  0  0  0  0  0  0  0  0
   54.5083   23.8249   44.8461 H   0  0  0  0  0  0  0  0  0  0  0  0
   58.2095   27.5906   44.1775 H   0  0  0  0  0  0  0  0  0  0  0  0
   56.8099   28.1086   42.1856 H   0  0  0  0  0  0  0  0  0  0  0  0
   55.8463   30.3860   41.8883 H   0  0  0  0  0  0  0  0  0  0  0  0
   56.3381   32.1778   43.5465 H   0  0  0  0  0  0  0  0  0  0  0  0
   59.5146   33.8820   44.2707 H   0  0  0  0  0  0  0  0  0  0  0  0
   58.5867   35.2654   44.9498 H   0  0  0  0  0  0  0  0  0  0  0  0
   58.2427   34.9789   47.6842 H   0  0  0  0  0  0  0  0  0  0  0  0
   59.6729   34.8672   49.7263 H   0  0  0  0  0  0  0  0  0  0  0  0
   62.0168   34.0265   49.5715 H   0  0  0  0  0  0  0  0  0  0  0  0
   62.9401   33.3022   47.3677 H   0  0  0  0  0  0  0  0  0  0  0  0
   61.5170   33.4068   45.3199 H   0  0  0  0  0  0  0  0  0  0  0  0
  1  2  2  0
  2  3  1  0
  3  4  1  0
  4  5  1  0
  5  6  1  0
  5  7  2  0
  7  8  1  0
  8  9  2  0
  9 10  1  0
  8 11  1  0
 11 12  1  0
 12 13  2  0
 13 14  1  0
  2 15  1  0
 15 16  1  0
 16 17  2  0
 17 18  1  0
 18 19  2  0
 19 20  1  0
 20 21  2  0
 21 22  1  0
 22 23  2  0
 22 24  1  0
 24 25  1  0
 25 26  1  0
 26 27  2  0
 27 28  1  0
 28 29  2  0
 29 30  1  0
 30 31  2  0
  9  4  1  0
 21 16  1  0
 31 26  1  0
 14  7  1  0
  3 32  1  0
  3 33  1  0
 10 34  1  0
 11 35  1  0
 11 36  1  0
 12 37  1  0
 13 38  1  0
 14 39  1  0
 14 40  1  0
 17 41  1  0
 18 42  1  0
 19 43  1  0
 20 44  1  0
 25 45  1  0
 25 46  1  0
 27 47  1  0
 28 48  1  0
 29 49  1  0
 30 50  1  0
 31 51  1  0
M  CHG  3   6  -1  15  -1  24  -1
M  END
>  <UniqueID>  (76) 
69

>  <SMILES>  (76) 
O=C(Cn1c([O-])c2c(c1O)CC=CC2)[N-]c1ccccc1C(=O)[N-]Cc1ccccc1

>  <Energy>  (76) 
89.34555717281478

>  <Genealogy>  (76) 
O=C(Cn1c([O-])c2c(c1O)CC=CC2)[N-]c1ccccc1C(=O)[N-]Cc1ccccc1 (protonated)
O=C(Cn1c([O-])c2c(c1O)CC=CC2)[N-]c1ccccc1C(=O)[N-]Cc1ccccc1 (3D coordinates assigned)
O=C(Cn1c([O-])c2c(c1O)CC=CC2)[N-]c1ccccc1C(=O)[N-]Cc1ccccc1 (nonaromatic ring conformer: 89.34555717281478 kcal/mol)

>  <smiles>  (76) 
O=C(Cn1c(O)c2c(c1O)CC=CC2)Nc1ccccc1C(=O)NCc1ccccc1

>  <score_type>  (76) 
oracle

>  <origin>  (76) 
adg

>  <m_score__min__energy>  (76) 
-14.31

>  <m_primary>  (76) 
energy

$$$$
76:0
     RDKit          3D

 44 46  0  0  0  0  0  0  0  0999 V2000
   57.2919   31.7168   44.5273 H   0  0  0  0  0  0  0  0  0  0  0  0
   57.4760   30.6720   44.8180 C   0  0  0  0  0  0  0  0  0  0  0  0
   57.1006   29.8517   44.1886 H   0  0  0  0  0  0  0  0  0  0  0  0
   58.1590   30.3980   45.9410 C   0  0  0  0  0  0  0  0  0  0  0  0
   58.4760   29.1270   46.4480 C   0  0  0  0  0  0  0  0  0  0  0  0
   58.3990   27.9050   45.8870 C   0  0  0  0  0  0  0  0  0  0  0  0
   59.2851   27.5445   45.3439 H   0  0  0  0  0  0  0  0  0  0  0  0
   57.2320   27.0110   45.9380 C   0  0  0  0  0  0  0  0  0  0  0  0
   57.2420   25.7650   46.4450 N   0  0  0  0  0  0  0  0  0  0  0  0
   55.9400   25.4010   46.4050 C   0  0  0  0  0  0  0  0  0  0  0  0
   55.5400   24.2720   46.7900 O   0  0  0  0  0  0  0  0  0  0  0  0
   55.1030   26.3480   45.9320 N   0  0  0  0  0  0  0  0  0  0  0  0
   55.9350   27.3650   45.6540 C   0  0  0  0  0  0  0  0  0  0  0  0
   55.5170   28.5930   45.1590 O   0  0  0  0  0  0  0  0  0  0  0  0
   58.9500   29.3330   47.7340 C   0  0  0  0  0  0  0  0  0  0  0  0
   59.2473   28.5565   48.4542 H   0  0  0  0  0  0  0  0  0  0  0  0
   58.9780   30.6960   47.9390 C   0  0  0  0  0  0  0  0  0  0  0  0
   59.4870   31.3550   49.1840 C   0  0  0  0  0  0  0  0  0  0  0  0
   59.0847   30.8341   50.0653 H   0  0  0  0  0  0  0  0  0  0  0  0
   60.5859   31.3084   49.2005 H   0  0  0  0  0  0  0  0  0  0  0  0
   59.1643   32.4065   49.2005 H   0  0  0  0  0  0  0  0  0  0  0  0
   58.4950   31.3440   46.8550 N   0  0  0  0  0  0  0  0  0  0  0  0
   58.3260   32.7670   46.7220 C   0  0  0  0  0  0  0  0  0  0  0  0
   57.6220   33.3850   47.5710 O   0  0  0  0  0  0  0  0  0  0  0  0
   59.0370   33.4950   45.6970 N   0  0  1  0  0  0  0  0  0  0  0  0
   59.7380   32.8560   45.2570 H   0  0  0  0  0  0  0  0  0  0  0  0
   58.1010   33.9450   44.6500 C   0  0  0  0  0  0  0  0  0  0  0  0
   57.2047   34.3759   45.1200 H   0  0  0  0  0  0  0  0  0  0  0  0
   58.5892   34.7068   44.0245 H   0  0  0  0  0  0  0  0  0  0  0  0
   57.8109   33.0879   44.0245 H   0  0  0  0  0  0  0  0  0  0  0  0
   59.7550   34.6330   46.3160 C   0  0  0  0  0  0  0  0  0  0  0  0
   60.0644   35.3315   45.5245 H   0  0  0  0  0  0  0  0  0  0  0  0
   59.0734   35.1195   47.0292 H   0  0  0  0  0  0  0  0  0  0  0  0
   60.9810   34.1790   47.0740 C   0  0  0  0  0  0  0  0  0  0  0  0
   62.1260   33.7590   46.3780 C   0  0  0  0  0  0  0  0  0  0  0  0
   62.1245   33.7454   45.2781 H   0  0  0  0  0  0  0  0  0  0  0  0
   63.2680   33.3580   47.0780 C   0  0  0  0  0  0  0  0  0  0  0  0
   64.1607   33.0255   46.5280 H   0  0  0  0  0  0  0  0  0  0  0  0
   63.2770   33.3790   48.4750 C   0  0  0  0  0  0  0  0  0  0  0  0
   64.1764   33.0632   49.0239 H   0  0  0  0  0  0  0  0  0  0  0  0
   62.1440   33.8010   49.1750 C   0  0  0  0  0  0  0  0  0  0  0  0
   62.1527   33.8181   50.2748 H   0  0  0  0  0  0  0  0  0  0  0  0
   60.9980   34.2020   48.4790 C   0  0  0  0  0  0  0  0  0  0  0  0
   60.1084   34.5360   49.0331 H   0  0  0  0  0  0  0  0  0  0  0  0
  1  2  1  0
  2  3  1  0
  2  4  2  0
  4  5  1  0
  5  6  2  0
  6  7  1  0
  6  8  1  0
  8  9  1  0
  9 10  1  0
 10 11  2  0
 10 12  1  0
 12 13  1  0
 13 14  1  0
  5 15  1  0
 15 16  1  0
 15 17  2  0
 17 18  1  0
 18 19  1  0
 18 20  1  0
 18 21  1  0
 17 22  1  0
 22 23  1  0
 23 24  2  0
 23 25  1  0
 25 26  1  6
 25 27  1  0
 27 28  1  0
 27 29  1  0
 27 30  1  0
 25 31  1  0
 31 32  1  0
 31 33  1  0
 31 34  1  0
 34 35  2  0
 35 36  1  0
 35 37  1  0
 37 38  1  0
 37 39  2  0
 39 40  1  0
 39 41  1  0
 41 42  1  0
 41 43  2  0
 43 44  1  0
 22  4  1  0
 43 34  1  0
 13  8  2  0
M  CHG  4   9  -1  12  -1  14  -1  25   1
M  END
>  <UniqueID>  (77) 
70

>  <SMILES>  (77) 
C=c1/c(=C\c2[n-]c(=O)[n-]c2[O-])cc(C)n1C(=O)[N@@H+](C)Cc1ccccc1

>  <Energy>  (77) 
121.61268338020015

>  <Genealogy>  (77) 
C=c1c(=Cc2[n-]c(=O)[n-]c2[O-])cc(C)n1C(=O)[NH+](C)Cc1ccccc1 (protonated)
C=c1c(=Cc2[n-]c(=O)[n-]c2[O-])cc(C)n1C(=O)[N@@H+](C)Cc1ccccc1 (chirality)
C=c1/c(=C\c2[n-]c(=O)[n-]c2[O-])cc(C)n1C(=O)[N@@H+](C)Cc1ccccc1 (cis-trans isomerization)
C=c1/c(=C\c2[n-]c(=O)[n-]c2[O-])cc(C)n1C(=O)[N@@H+](C)Cc1ccccc1 (3D coordinates assigned)
C=c1/c(=C\c2[n-]c(=O)[n-]c2[O-])cc(C)n1C(=O)[N@@H+](C)Cc1ccccc1 (optimized conformer: 121.61268338020015 kcal/mol)

>  <smiles>  (77) 
C=c1c(=Cc2[nH]c(=O)[nH]c2O)cc(C)n1C(=O)N(C)Cc1ccccc1

>  <score_type>  (77) 
oracle

>  <origin>  (77) 
adg

>  <m_score__min__energy>  (77) 
-14.779999999999999

>  <m_primary>  (77) 
energy

$$$$
77:0
     RDKit          3D

 56 60  0  0  0  0  0  0  0  0999 V2000
   58.5290   28.9580   48.1690 C   0  0  0  0  0  0  0  0  0  0  0  0
   59.7320   29.7140   47.7000 C   0  0  0  0  0  0  0  0  0  0  0  0
   60.3010   30.7010   48.4180 N   0  0  0  0  0  0  0  0  0  0  0  0
   61.3690   31.1290   47.7170 C   0  0  0  0  0  0  0  0  0  0  0  0
   62.2750   32.2030   48.1510 C   0  0  0  0  0  0  0  0  0  0  0  0
   63.0490   33.0020   47.3290 C   0  0  0  0  0  0  0  0  0  0  0  0
   63.7330   33.8490   48.1760 C   0  0  0  0  0  0  0  0  0  0  0  0
   63.3350   33.5180   49.4550 C   0  0  0  0  0  0  0  0  0  0  0  0
   62.4660   32.5350   49.4080 O   0  0  0  0  0  0  0  0  0  0  0  0
   61.4930   30.4170   46.5390 C   0  0  0  0  0  0  0  0  0  0  0  0
   60.4370   29.5240   46.5150 C   0  0  0  0  0  0  0  0  0  0  0  0
   60.1780   28.5440   45.4410 C   0  0  0  0  0  0  0  0  0  0  0  0
   61.1570   27.9830   44.8790 O   0  0  0  0  0  0  0  0  0  0  0  0
   58.8390   28.2440   45.0010 N   0  0  0  0  0  0  0  0  0  0  0  0
   58.2040   29.1380   44.0170 C   0  0  0  0  0  0  0  0  0  0  0  0
   57.5420   30.2980   44.6980 C   0  0  0  0  0  0  0  0  0  0  0  0
   56.6700   30.0900   45.5850 O   0  0  0  0  0  0  0  0  0  0  0  0
   57.8820   31.6340   44.3190 N   0  0  0  0  0  0  0  0  0  0  0  0
   57.2520   32.8090   44.9060 C   0  0  0  0  0  0  0  0  0  0  0  0
   58.1040   33.3320   46.0290 C   0  0  0  0  0  0  0  0  0  0  0  0
   58.9990   34.4110   45.8110 C   0  0  0  0  0  0  0  0  0  0  0  0
   59.7870   34.9100   46.8650 C   0  0  0  0  0  0  0  0  0  0  0  0
   59.6590   34.3080   48.1140 C   0  0  0  0  0  0  0  0  0  0  0  0
   58.8010   33.2790   48.3310 C   0  0  0  0  0  0  0  0  0  0  0  0
   57.9970   32.7620   47.3190 C   0  0  0  0  0  0  0  0  0  0  0  0
   58.8850   32.8820   49.6510 O   0  0  0  0  0  0  0  0  0  0  0  0
   59.8550   33.7130   50.3040 C   0  0  0  0  0  0  0  0  0  0  0  0
   60.3200   34.6120   49.2860 O   0  0  0  0  0  0  0  0  0  0  0  0
   58.0700   27.2070   45.6600 C   0  0  0  0  0  0  0  0  0  0  0  0
   56.6620   27.2140   45.6190 C   0  0  0  0  0  0  0  0  0  0  0  0
   55.9260   26.2390   46.3000 C   0  0  0  0  0  0  0  0  0  0  0  0
   56.5830   25.2500   47.0340 C   0  0  0  0  0  0  0  0  0  0  0  0
   55.8500   24.2920   47.7220 O   0  0  0  0  0  0  0  0  0  0  0  0
   57.9800   25.2250   47.0780 C   0  0  0  0  0  0  0  0  0  0  0  0
   58.7210   26.1950   46.3970 C   0  0  0  0  0  0  0  0  0  0  0  0
   58.5094   28.9457   49.2688 H   0  0  0  0  0  0  0  0  0  0  0  0
   57.6187   29.4467   47.7915 H   0  0  0  0  0  0  0  0  0  0  0  0
   58.5745   27.9258   47.7915 H   0  0  0  0  0  0  0  0  0  0  0  0
   59.9780   31.0540   49.3480 H   0  0  0  0  0  0  0  0  0  0  0  0
   63.1069   32.9689   46.2310 H   0  0  0  0  0  0  0  0  0  0  0  0
   64.4514   34.6312   47.8894 H   0  0  0  0  0  0  0  0  0  0  0  0
   63.6918   34.0042   50.3749 H   0  0  0  0  0  0  0  0  0  0  0  0
   62.2745   30.5365   45.7742 H   0  0  0  0  0  0  0  0  0  0  0  0
   58.9716   29.5162   43.3258 H   0  0  0  0  0  0  0  0  0  0  0  0
   57.4392   28.5696   43.4675 H   0  0  0  0  0  0  0  0  0  0  0  0
   57.1421   33.5878   44.1370 H   0  0  0  0  0  0  0  0  0  0  0  0
   56.2613   32.5344   45.2973 H   0  0  0  0  0  0  0  0  0  0  0  0
   59.0777   34.8611   44.8104 H   0  0  0  0  0  0  0  0  0  0  0  0
   60.4814   35.7484   46.7072 H   0  0  0  0  0  0  0  0  0  0  0  0
   57.2993   31.9349   47.5167 H   0  0  0  0  0  0  0  0  0  0  0  0
   59.3917   34.2715   51.1307 H   0  0  0  0  0  0  0  0  0  0  0  0
   60.6751   33.1249   50.7417 H   0  0  0  0  0  0  0  0  0  0  0  0
   56.1369   27.9929   45.0466 H   0  0  0  0  0  0  0  0  0  0  0  0
   54.8269   26.2515   46.2571 H   0  0  0  0  0  0  0  0  0  0  0  0
   58.4972   24.4404   47.6497 H   0  0  0  0  0  0  0  0  0  0  0  0
   59.8200   26.1693   46.4359 H   0  0  0  0  0  0  0  0  0  0  0  0
  1  2  1  0
  2  3  1  0
  3  4  1  0
  4  5  1  0
  5  6  2  0
  6  7  1  0
  7  8  2  0
  8  9  1  0
  4 10  2  0
 10 11  1  0
 11 12  1  0
 12 13  2  0
 12 14  1  0
 14 15  1  0
 15 16  1  0
 16 17  2  0
 16 18  1  0
 18 19  1  0
 19 20  1  0
 20 21  2  0
 21 22  1  0
 22 23  2  0
 23 24  1  0
 24 25  2  0
 24 26  1  0
 26 27  1  0
 27 28  1  0
 14 29  1  0
 29 30  2  0
 30 31  1  0
 31 32  2  0
 32 33  1  0
 32 34  1  0
 34 35  2  0
 11  2  2  0
 25 20  1  0
 35 29  1  0
  9  5  1  0
 28 23  1  0
  1 36  1  0
  1 37  1  0
  1 38  1  0
  3 39  1  0
  6 40  1  0
  7 41  1  0
  8 42  1  0
 10 43  1  0
 15 44  1  0
 15 45  1  0
 19 46  1  0
 19 47  1  0
 21 48  1  0
 22 49  1  0
 25 50  1  0
 27 51  1  0
 27 52  1  0
 30 53  1  0
 31 54  1  0
 34 55  1  0
 35 56  1  0
M  CHG  2  18  -1  33  -1
M  END
>  <UniqueID>  (78) 
71

>  <SMILES>  (78) 
Cc1[nH]c(-c2ccco2)cc1C(=O)N(CC(=O)[N-]Cc1ccc2c(c1)OCO2)c1ccc([O-])cc1

>  <Energy>  (78) 
143.51997830677536

>  <Genealogy>  (78) 
Cc1[nH]c(-c2ccco2)cc1C(=O)N(CC(=O)[N-]Cc1ccc2c(c1)OCO2)c1ccc([O-])cc1 (protonated)
Cc1[nH]c(-c2ccco2)cc1C(=O)N(CC(=O)[N-]Cc1ccc2c(c1)OCO2)c1ccc([O-])cc1 (3D coordinates assigned)
Cc1[nH]c(-c2ccco2)cc1C(=O)N(CC(=O)[N-]Cc1ccc2c(c1)OCO2)c1ccc([O-])cc1 (nonaromatic ring conformer: 143.51997830677536 kcal/mol)

>  <smiles>  (78) 
Cc1[nH]c(-c2ccco2)cc1C(=O)N(CC(=O)NCc1ccc2c(c1)OCO2)c1ccc(O)cc1

>  <score_type>  (78) 
oracle

>  <origin>  (78) 
adg

>  <m_score__min__energy>  (78) 
-12.289999999999999

>  <m_primary>  (78) 
energy

$$$$
78:0
     RDKit          3D

 49 51  0  0  0  0  0  0  0  0999 V2000
   55.9044   32.9845   44.8158 H   0  0  0  0  0  0  0  0  0  0  0  0
   56.9400   32.6170   44.8660 C   0  0  0  0  0  0  0  0  0  0  0  0
   57.2490   31.5520   44.1090 C   0  0  0  0  0  0  0  0  0  0  0  0
   56.9288   31.5650   43.0567 H   0  0  0  0  0  0  0  0  0  0  0  0
   57.9860   30.3660   44.5840 C   0  0  0  0  0  0  0  0  0  0  0  0
   57.6320   29.0790   44.1520 C   0  0  0  0  0  0  0  0  0  0  0  0
   56.8013   28.9490   43.4427 H   0  0  0  0  0  0  0  0  0  0  0  0
   58.3290   27.9620   44.6180 C   0  0  0  0  0  0  0  0  0  0  0  0
   58.0442   26.9569   44.2735 H   0  0  0  0  0  0  0  0  0  0  0  0
   59.3950   28.1150   45.5270 C   0  0  0  0  0  0  0  0  0  0  0  0
   60.1330   26.9610   46.0880 C   0  0  0  0  0  0  0  0  0  0  0  0
   61.2259   26.9342   45.9659 H   0  0  0  0  0  0  0  0  0  0  0  0
   59.5430   25.9460   46.7370 C   0  0  0  0  0  0  0  0  0  0  0  0
   59.4314   26.0122   47.8293 H   0  0  0  0  0  0  0  0  0  0  0  0
   59.0370   24.7430   46.0450 C   0  0  0  0  0  0  0  0  0  0  0  0
   59.8620   23.8350   45.7550 O   0  0  0  0  0  0  0  0  0  0  0  0
   57.6160   24.5700   45.6600 C   0  0  0  0  0  0  0  0  0  0  0  0
   56.6500   25.5320   46.0090 C   0  0  0  0  0  0  0  0  0  0  0  0
   56.9460   26.4188   46.5886 H   0  0  0  0  0  0  0  0  0  0  0  0
   55.3150   25.3670   45.6230 C   0  0  0  0  0  0  0  0  0  0  0  0
   54.3670   26.3190   45.9790 O   0  0  0  0  0  0  0  0  0  0  0  0
   54.9350   24.2480   44.8790 C   0  0  0  0  0  0  0  0  0  0  0  0
   53.8840   24.1157   44.5825 H   0  0  0  0  0  0  0  0  0  0  0  0
   55.8900   23.2960   44.5110 C   0  0  0  0  0  0  0  0  0  0  0  0
   55.5120   22.1870   43.7640 O   0  0  0  0  0  0  0  0  0  0  0  0
   57.2260   23.4580   44.8940 C   0  0  0  0  0  0  0  0  0  0  0  0
   57.9754   22.7108   44.5939 H   0  0  0  0  0  0  0  0  0  0  0  0
   59.7840   29.4110   45.9030 C   0  0  0  0  0  0  0  0  0  0  0  0
   60.6442   29.5481   46.5748 H   0  0  0  0  0  0  0  0  0  0  0  0
   59.0890   30.5280   45.4320 C   0  0  0  0  0  0  0  0  0  0  0  0
   59.4092   31.5379   45.7281 H   0  0  0  0  0  0  0  0  0  0  0  0
   57.8700   33.3400   45.7620 C   0  0  0  0  0  0  0  0  0  0  0  0
   58.1360   32.8920   47.0180 N   0  0  0  0  0  0  0  0  0  0  0  0
   59.0300   33.5230   47.8280 C   0  0  0  0  0  0  0  0  0  0  0  0
   59.2570   33.0320   49.2400 C   0  0  0  0  0  0  0  0  0  0  0  0
   58.3717   33.2950   49.8375 H   0  0  0  0  0  0  0  0  0  0  0  0
   60.4670   33.7160   49.8890 C   0  0  0  0  0  0  0  0  0  0  0  0
   60.3743   33.6636   50.9838 H   0  0  0  0  0  0  0  0  0  0  0  0
   61.3892   33.2056   49.5743 H   0  0  0  0  0  0  0  0  0  0  0  0
   60.5052   34.7693   49.5743 H   0  0  0  0  0  0  0  0  0  0  0  0
   59.4290   31.5100   49.2460 C   0  0  0  0  0  0  0  0  0  0  0  0
   59.4697   31.1497   50.2845 H   0  0  0  0  0  0  0  0  0  0  0  0
   58.5779   31.0428   48.7289 H   0  0  0  0  0  0  0  0  0  0  0  0
   60.3629   31.2445   48.7289 H   0  0  0  0  0  0  0  0  0  0  0  0
   59.6820   34.6700   47.3610 C   0  0  0  0  0  0  0  0  0  0  0  0
   60.3933   35.2121   48.0014 H   0  0  0  0  0  0  0  0  0  0  0  0
   59.4100   35.1110   46.0650 C   0  0  0  0  0  0  0  0  0  0  0  0
   59.9880   36.1320   45.6100 O   0  0  0  0  0  0  0  0  0  0  0  0
   58.5190   34.4370   45.2920 N   0  0  0  0  0  0  0  0  0  0  0  0
  1  2  1  0
  2  3  2  3
  3  4  1  0
  3  5  1  0
  5  6  2  0
  6  7  1  0
  6  8  1  0
  8  9  1  0
  8 10  2  0
 10 11  1  0
 11 12  1  0
 11 13  2  0
 13 14  1  0
 13 15  1  0
 15 16  2  0
 15 17  1  0
 17 18  2  0
 18 19  1  0
 18 20  1  0
 20 21  1  0
 20 22  2  0
 22 23  1  0
 22 24  1  0
 24 25  1  0
 24 26  2  0
 26 27  1  0
 10 28  1  0
 28 29  1  0
 28 30  2  0
 30 31  1  0
  2 32  1  0
 32 33  2  0
 33 34  1  0
 34 35  1  0
 35 36  1  0
 35 37  1  0
 37 38  1  0
 37 39  1  0
 37 40  1  0
 35 41  1  0
 41 42  1  0
 41 43  1  0
 41 44  1  0
 34 45  2  0
 45 46  1  0
 45 47  1  0
 47 48  2  0
 47 49  1  0
 30  5  1  0
 49 32  1  0
 26 17  1  0
M  CHG  3  21  -1  25  -1  49  -1
M  END
>  <UniqueID>  (79) 
72

>  <SMILES>  (79) 
CC(C)c1cc(=O)[n-]c(C=Cc2ccc(/C=C/C(=O)c3cc([O-])cc([O-])c3)cc2)n1

>  <Energy>  (79) 
60.21774098944364

>  <Genealogy>  (79) 
CC(C)c1cc(=O)[n-]c(C=Cc2ccc(C=CC(=O)c3cc([O-])cc([O-])c3)cc2)n1 (protonated)
CC(C)c1cc(=O)[n-]c(C=Cc2ccc(/C=C/C(=O)c3cc([O-])cc([O-])c3)cc2)n1 (cis-trans isomerization)
CC(C)c1cc(=O)[n-]c(C=Cc2ccc(/C=C/C(=O)c3cc([O-])cc([O-])c3)cc2)n1 (3D coordinates assigned)
CC(C)c1cc(=O)[n-]c(C=Cc2ccc(/C=C/C(=O)c3cc([O-])cc([O-])c3)cc2)n1 (optimized conformer: 60.21774098944364 kcal/mol)

>  <smiles>  (79) 
CC(C)c1cc(=O)[nH]c(C=Cc2ccc(C=CC(=O)c3cc(O)cc(O)c3)cc2)n1

>  <score_type>  (79) 
oracle

>  <origin>  (79) 
adg

>  <m_score__min__energy>  (79) 
-16.460000000000001

>  <m_primary>  (79) 
energy

$$$$
79:0
     RDKit          3D

 46 48  0  0  0  0  0  0  0  0999 V2000
   58.1530   31.9720   42.2740 C   0  0  0  0  0  0  0  0  0  0  0  0
   57.7720   32.7120   43.3150 C   0  0  0  0  0  0  0  0  0  0  0  0
   58.1560   32.4390   44.7310 C   0  0  0  0  0  0  0  0  0  0  0  0
   57.8940   31.2070   45.3890 C   0  0  0  0  0  0  0  0  0  0  0  0
   57.1780   30.0950   44.7200 C   0  0  0  0  0  0  0  0  0  0  0  0
   55.9190   30.0760   44.7800 O   0  0  0  0  0  0  0  0  0  0  0  0
   57.8490   29.0340   43.9220 C   0  0  0  0  0  0  0  0  0  0  0  0
   58.7190   28.1050   44.3540 C   0  0  0  0  0  0  0  0  0  0  0  0
   58.3770   26.7780   44.8980 C   0  0  0  0  0  0  0  0  0  0  0  0
   58.5960   26.4670   46.2480 C   0  0  0  0  0  0  0  0  0  0  0  0
   58.2570   25.2060   46.7440 C   0  0  0  0  0  0  0  0  0  0  0  0
   57.6730   24.2560   45.9010 C   0  0  0  0  0  0  0  0  0  0  0  0
   57.4220   24.5690   44.5620 C   0  0  0  0  0  0  0  0  0  0  0  0
   56.6190   23.2720   43.4120 Br  0  0  0  0  0  0  0  0  0  0  0  0
   57.7600   25.8330   44.0650 C   0  0  0  0  0  0  0  0  0  0  0  0
   58.4100   31.0010   46.6800 C   0  0  0  0  0  0  0  0  0  0  0  0
   58.2540   29.7670   47.3150 O   0  0  0  0  0  0  0  0  0  0  0  0
   59.0940   32.0300   47.3250 C   0  0  0  0  0  0  0  0  0  0  0  0
   59.3190   33.2230   46.7050 N   0  0  0  0  0  0  0  0  0  0  0  0
   60.0390   34.2710   47.4500 C   0  0  0  0  0  0  0  0  0  0  0  0
   61.4540   33.8380   47.7300 C   0  0  0  0  0  0  0  0  0  0  0  0
   62.3410   33.5850   46.6700 C   0  0  0  0  0  0  0  0  0  0  0  0
   63.6580   33.1930   46.9310 C   0  0  0  0  0  0  0  0  0  0  0  0
   64.1000   33.0590   48.2510 C   0  0  0  0  0  0  0  0  0  0  0  0
   63.2300   33.3290   49.3100 C   0  0  0  0  0  0  0  0  0  0  0  0
   61.9130   33.7240   49.0520 C   0  0  0  0  0  0  0  0  0  0  0  0
   58.8720   33.4390   45.4260 C   0  0  0  0  0  0  0  0  0  0  0  0
   59.0950   34.5460   44.8590 O   0  0  0  0  0  0  0  0  0  0  0  0
   57.8259   32.2411   41.2588 H   0  0  0  0  0  0  0  0  0  0  0  0
   58.7945   31.0922   42.4300 H   0  0  0  0  0  0  0  0  0  0  0  0
   57.1307   33.5835   43.1169 H   0  0  0  0  0  0  0  0  0  0  0  0
   57.6038   29.0064   42.8500 H   0  0  0  0  0  0  0  0  0  0  0  0
   59.7877   28.3589   44.2962 H   0  0  0  0  0  0  0  0  0  0  0  0
   59.0365   27.2192   46.9189 H   0  0  0  0  0  0  0  0  0  0  0  0
   58.4497   24.9603   47.7987 H   0  0  0  0  0  0  0  0  0  0  0  0
   57.4109   23.2617   46.2916 H   0  0  0  0  0  0  0  0  0  0  0  0
   57.5410   26.0863   43.0172 H   0  0  0  0  0  0  0  0  0  0  0  0
   58.9840   29.3700   47.8930 H   0  0  0  0  0  0  0  0  0  0  0  0
   59.4584   31.8768   48.3515 H   0  0  0  0  0  0  0  0  0  0  0  0
   60.0540   35.1948   46.8530 H   0  0  0  0  0  0  0  0  0  0  0  0
   59.5240   34.4471   48.4059 H   0  0  0  0  0  0  0  0  0  0  0  0
   61.9982   33.6957   45.6307 H   0  0  0  0  0  0  0  0  0  0  0  0
   64.3465   32.9900   46.0975 H   0  0  0  0  0  0  0  0  0  0  0  0
   65.1330   32.7409   48.4554 H   0  0  0  0  0  0  0  0  0  0  0  0
   63.5808   33.2309   50.3479 H   0  0  0  0  0  0  0  0  0  0  0  0
   61.2341   33.9462   49.8885 H   0  0  0  0  0  0  0  0  0  0  0  0
  1  2  2  0
  2  3  1  0
  3  4  2  0
  4  5  1  0
  5  6  2  0
  5  7  1  0
  7  8  2  3
  8  9  1  0
  9 10  2  0
 10 11  1  0
 11 12  2  0
 12 13  1  0
 13 14  1  0
 13 15  2  0
  4 16  1  0
 16 17  1  0
 16 18  2  0
 18 19  1  0
 19 20  1  0
 20 21  1  0
 21 22  2  0
 22 23  1  0
 23 24  2  0
 24 25  1  0
 25 26  2  0
 19 27  1  0
 27 28  2  0
 27  3  1  0
 15  9  1  0
 26 21  1  0
  1 29  1  0
  1 30  1  0
  2 31  1  0
  7 32  1  0
  8 33  1  0
 10 34  1  0
 11 35  1  0
 12 36  1  0
 15 37  1  0
 17 38  1  0
 18 39  1  0
 20 40  1  0
 20 41  1  0
 22 42  1  0
 23 43  1  0
 24 44  1  0
 25 45  1  0
 26 46  1  0
M  END
>  <UniqueID>  (80) 
73

>  <SMILES>  (80) 
C=Cc1c(C(=O)C=Cc2cccc(Br)c2)c(O)cn(Cc2ccccc2)c1=O

>  <Energy>  (80) 
66.7536127459103

>  <Genealogy>  (80) 
C=Cc1c(C(=O)C=Cc2cccc(Br)c2)c(O)cn(Cc2ccccc2)c1=O (3D coordinates assigned)
C=Cc1c(C(=O)C=Cc2cccc(Br)c2)c(O)cn(Cc2ccccc2)c1=O (optimized conformer: 66.7536127459103 kcal/mol)

>  <smiles>  (80) 
C=Cc1c(C(=O)C=Cc2cccc(Br)c2)c(O)cn(Cc2ccccc2)c1=O

>  <score_type>  (80) 
oracle

>  <origin>  (80) 
adg

>  <m_score__min__energy>  (80) 
-9.2400000000000002

>  <m_primary>  (80) 
energy

$$$$
80:0
     RDKit          3D

 49 51  0  0  0  0  0  0  0  0999 V2000
   52.1660   32.7430   49.3970 H   0  0  0  0  0  0  0  0  0  0  0  0
   51.3760   32.3200   49.8680 O   0  0  0  0  0  0  0  0  0  0  0  0
   51.3280   32.2570   51.2570 C   0  0  0  0  0  0  0  0  0  0  0  0
   50.6120   33.0980   52.0200 N   0  0  0  0  0  0  0  0  0  0  0  0
   50.9150   32.6940   53.2720 C   0  0  0  0  0  0  0  0  0  0  0  0
   50.4390   33.2480   54.2970 O   0  0  0  0  0  0  0  0  0  0  0  0
   51.7790   31.6570   53.3400 N   0  0  0  0  0  0  0  0  0  0  0  0
   52.0180   31.3660   52.0500 C   0  0  0  0  0  0  0  0  0  0  0  0
   52.9960   30.3520   51.6140 C   0  0  0  0  0  0  0  0  0  0  0  0
   52.6662   29.6459   50.8377 H   0  0  0  0  0  0  0  0  0  0  0  0
   54.2630   30.2050   52.0770 C   0  0  0  0  0  0  0  0  0  0  0  0
   55.1200   31.3180   51.9580 C   0  0  0  0  0  0  0  0  0  0  0  0
   54.7036   32.2884   51.6498 H   0  0  0  0  0  0  0  0  0  0  0  0
   56.4890   31.2130   52.2240 C   0  0  0  0  0  0  0  0  0  0  0  0
   57.3580   32.3860   51.9970 C   0  0  0  0  0  0  0  0  0  0  0  0
   57.1310   33.4500   52.6360 O   0  0  0  0  0  0  0  0  0  0  0  0
   58.4370   32.3350   51.0470 N   0  0  0  0  0  0  0  0  0  0  0  0
   59.6350   33.1550   51.2620 C   0  0  0  0  0  0  0  0  0  0  0  0
   59.5554   34.0712   50.6584 H   0  0  0  0  0  0  0  0  0  0  0  0
   59.7016   33.3994   52.3324 H   0  0  0  0  0  0  0  0  0  0  0  0
   60.9110   32.3960   50.8560 C   0  0  0  0  0  0  0  0  0  0  0  0
   61.6861   33.1337   50.6010 H   0  0  0  0  0  0  0  0  0  0  0  0
   61.1924   31.7652   51.7121 H   0  0  0  0  0  0  0  0  0  0  0  0
   60.7210   31.4460   49.6400 C   0  0  0  0  0  0  0  0  0  0  0  0
   60.6043   30.4301   50.0453 H   0  0  0  0  0  0  0  0  0  0  0  0
   61.9560   31.4550   48.7170 C   0  0  0  0  0  0  0  0  0  0  0  0
   62.7221   30.7839   49.1326 H   0  0  0  0  0  0  0  0  0  0  0  0
   61.6517   31.1142   47.7164 H   0  0  0  0  0  0  0  0  0  0  0  0
   62.4920   32.7620   48.6090 O   0  0  0  0  0  0  0  0  0  0  0  0
   63.3480   32.8540   47.4920 C   0  0  0  0  0  0  0  0  0  0  0  0
   64.3873   32.9657   47.8347 H   0  0  0  0  0  0  0  0  0  0  0  0
   63.2582   31.9410   46.8850 H   0  0  0  0  0  0  0  0  0  0  0  0
   63.0662   33.7270   46.8850 H   0  0  0  0  0  0  0  0  0  0  0  0
   59.4500   31.7840   48.8450 C   0  0  0  0  0  0  0  0  0  0  0  0
   59.5258   32.8104   48.4567 H   0  0  0  0  0  0  0  0  0  0  0  0
   59.3479   31.0750   48.0102 H   0  0  0  0  0  0  0  0  0  0  0  0
   58.2180   31.6740   49.7510 C   0  0  0  0  0  0  0  0  0  0  0  0
   57.3621   32.1484   49.2486 H   0  0  0  0  0  0  0  0  0  0  0  0
   58.0228   30.6077   49.9377 H   0  0  0  0  0  0  0  0  0  0  0  0
   56.9980   29.9880   52.6900 C   0  0  0  0  0  0  0  0  0  0  0  0
   58.4500   29.8010   53.0290 C   0  0  0  0  0  0  0  0  0  0  0  0
   58.5722   29.7853   54.1221 H   0  0  0  0  0  0  0  0  0  0  0  0
   58.8056   28.8496   52.6065 H   0  0  0  0  0  0  0  0  0  0  0  0
   59.0350   30.6312   52.6065 H   0  0  0  0  0  0  0  0  0  0  0  0
   56.1470   28.9510   52.8980 N   0  0  0  0  0  0  0  0  0  0  0  0
   54.8100   29.0130   52.6510 C   0  0  0  0  0  0  0  0  0  0  0  0
   54.0720   27.9830   53.0870 C   0  0  0  0  0  0  0  0  0  0  0  0
   52.9851   27.9746   52.9178 H   0  0  0  0  0  0  0  0  0  0  0  0
   54.5531   27.1459   53.6141 H   0  0  0  0  0  0  0  0  0  0  0  0
  1  2  1  0
  2  3  1  0
  3  4  1  0
  4  5  1  0
  5  6  2  0
  5  7  1  0
  7  8  1  0
  8  9  1  0
  9 10  1  0
  9 11  2  0
 11 12  1  0
 12 13  1  0
 12 14  2  0
 14 15  1  0
 15 16  2  0
 15 17  1  0
 17 18  1  0
 18 19  1  0
 18 20  1  0
 18 21  1  0
 21 22  1  0
 21 23  1  0
 21 24  1  0
 24 25  1  0
 24 26  1  0
 26 27  1  0
 26 28  1  0
 26 29  1  0
 29 30  1  0
 30 31  1  0
 30 32  1  0
 30 33  1  0
 24 34  1  0
 34 35  1  0
 34 36  1  0
 34 37  1  0
 37 38  1  0
 37 39  1  0
 14 40  1  0
 40 41  1  0
 41 42  1  0
 41 43  1  0
 41 44  1  0
 40 45  2  0
 45 46  1  0
 46 47  2  0
 47 48  1  0
 47 49  1  0
  8  3  2  0
 46 11  1  0
 37 17  1  0
M  CHG  2   4  -1   7  -1
M  END
>  <UniqueID>  (81) 
74

>  <SMILES>  (81) 
C=c1nc(C)c(C(=O)N2CCC(COC)CC2)c/c1=C/c1[n-]c(=O)[n-]c1O

>  <Energy>  (81) 
107.28566771034372

>  <Genealogy>  (81) 
C=c1nc(C)c(C(=O)N2CCC(COC)CC2)cc1=Cc1[n-]c(=O)[n-]c1O (protonated)
C=c1nc(C)c(C(=O)N2CCC(COC)CC2)c/c1=C/c1[n-]c(=O)[n-]c1O (cis-trans isomerization)
C=c1nc(C)c(C(=O)N2CCC(COC)CC2)c/c1=C/c1[n-]c(=O)[n-]c1O (3D coordinates assigned)
C=c1nc(C)c(C(=O)N2CCC(COC)CC2)c/c1=C/c1[n-]c(=O)[n-]c1O (nonaromatic ring conformer: 107.28566771034372 kcal/mol)

>  <smiles>  (81) 
C=c1nc(C)c(C(=O)N2CCC(COC)CC2)cc1=Cc1[nH]c(=O)[nH]c1O

>  <score_type>  (81) 
oracle

>  <origin>  (81) 
adg

>  <m_score__min__energy>  (81) 
-12.83

>  <m_primary>  (81) 
energy

$$$$
81:0
     RDKit          3D

 40 42  0  0  0  0  0  0  0  0999 V2000
   64.4710   32.7420   47.2780 H   0  0  0  0  0  0  0  0  0  0  0  0
   63.5570   32.3130   47.3460 O   0  0  0  0  0  0  0  0  0  0  0  0
   62.4100   33.0890   47.4720 C   0  0  0  0  0  0  0  0  0  0  0  0
   61.7980   33.3300   48.6490 N   0  0  0  0  0  0  0  0  0  0  0  0
   60.7530   34.1050   48.2910 C   0  0  0  0  0  0  0  0  0  0  0  0
   59.9080   34.5390   49.1190 O   0  0  0  0  0  0  0  0  0  0  0  0
   60.6940   34.3590   46.9670 N   0  0  0  0  0  0  0  0  0  0  0  0
   59.6710   35.1090   46.2420 C   0  0  0  0  0  0  0  0  0  0  0  0
   60.1394   35.9659   45.7356 H   0  0  0  0  0  0  0  0  0  0  0  0
   58.9124   35.4627   46.9558 H   0  0  0  0  0  0  0  0  0  0  0  0
   58.9970   34.2140   45.2010 C   0  0  0  0  0  0  0  0  0  0  0  0
   59.7678   33.6411   44.6647 H   0  0  0  0  0  0  0  0  0  0  0  0
   58.4353   34.8495   44.5005 H   0  0  0  0  0  0  0  0  0  0  0  0
   58.0410   33.2590   45.8570 C   0  0  0  0  0  0  0  0  0  0  0  0
   57.0060   33.7160   46.4140 O   0  0  0  0  0  0  0  0  0  0  0  0
   58.3340   31.8500   45.9140 N   0  0  0  0  0  0  0  0  0  0  0  0
   58.9640   31.3110   46.9450 N   0  0  0  0  0  0  0  0  0  0  0  0
   59.0360   29.9830   46.7500 C   0  0  0  0  0  0  0  0  0  0  0  0
   59.6910   29.0510   47.7210 C   0  0  0  0  0  0  0  0  0  0  0  0
   59.4646   29.3731   48.7481 H   0  0  0  0  0  0  0  0  0  0  0  0
   59.3100   28.0311   47.5642 H   0  0  0  0  0  0  0  0  0  0  0  0
   60.7797   29.0639   47.5642 H   0  0  0  0  0  0  0  0  0  0  0  0
   58.4440   29.6470   45.5370 C   0  0  0  0  0  0  0  0  0  0  0  0
   58.3820   28.3930   45.0390 C   0  0  0  0  0  0  0  0  0  0  0  0
   59.0267   28.1593   44.1789 H   0  0  0  0  0  0  0  0  0  0  0  0
   57.5230   27.3130   45.5520 C   0  0  0  0  0  0  0  0  0  0  0  0
   56.1300   27.4680   45.6150 C   0  0  0  0  0  0  0  0  0  0  0  0
   55.5320   28.6610   45.2240 O   0  0  0  0  0  0  0  0  0  0  0  0
   55.3550   26.4450   46.0590 N   0  0  0  0  0  0  0  0  0  0  0  0
   55.9040   25.2630   46.4350 C   0  0  0  0  0  0  0  0  0  0  0  0
   55.1670   24.3300   46.8480 O   0  0  0  0  0  0  0  0  0  0  0  0
   57.2490   25.0850   46.3700 N   0  0  0  0  0  0  0  0  0  0  0  0
   58.0670   26.0770   45.9330 C   0  0  0  0  0  0  0  0  0  0  0  0
   59.3110   25.8790   45.8840 O   0  0  0  0  0  0  0  0  0  0  0  0
   57.9910   30.8770   45.0280 C   0  0  0  0  0  0  0  0  0  0  0  0
   57.3290   31.0990   43.8810 C   0  0  0  0  0  0  0  0  0  0  0  0
   57.0336   32.1222   43.6056 H   0  0  0  0  0  0  0  0  0  0  0  0
   57.0821   30.2577   43.2168 H   0  0  0  0  0  0  0  0  0  0  0  0
   61.7420   33.7050   46.4360 C   0  0  0  0  0  0  0  0  0  0  0  0
   62.0156   33.6684   45.3712 H   0  0  0  0  0  0  0  0  0  0  0  0
  1  2  1  0
  2  3  1  0
  3  4  1  0
  4  5  1  0
  5  6  2  0
  5  7  1  0
  7  8  1  0
  8  9  1  0
  8 10  1  0
  8 11  1  0
 11 12  1  0
 11 13  1  0
 11 14  1  0
 14 15  2  0
 14 16  1  0
 16 17  1  0
 17 18  2  0
 18 19  1  0
 19 20  1  0
 19 21  1  0
 19 22  1  0
 18 23  1  0
 23 24  2  0
 24 25  1  0
 24 26  1  0
 26 27  2  0
 27 28  1  0
 27 29  1  0
 29 30  1  0
 30 31  2  0
 30 32  1  0
 32 33  1  0
 33 34  2  0
 23 35  1  0
 35 36  2  0
 36 37  1  0
 36 38  1  0
  7 39  1  0
 39 40  1  0
 39  3  2  0
 35 16  1  0
 33 26  1  0
M  CHG  4   4  -1  28  -1  29  -1  32  -1
M  END
>  <UniqueID>  (82) 
75

>  <SMILES>  (82) 
C=c1/c(=C\c2c([O-])[n-]c(=O)[n-]c2=O)c(C)nn1C(=O)CCn1cc(O)[n-]c1=O

>  <Energy>  (82) 
120.53730540566731

>  <Genealogy>  (82) 
C=c1c(=Cc2c([O-])[n-]c(=O)[n-]c2=O)c(C)nn1C(=O)CCn1cc(O)[n-]c1=O (protonated)
C=c1/c(=C\c2c([O-])[n-]c(=O)[n-]c2=O)c(C)nn1C(=O)CCn1cc(O)[n-]c1=O (cis-trans isomerization)
C=c1/c(=C\c2c([O-])[n-]c(=O)[n-]c2=O)c(C)nn1C(=O)CCn1cc(O)[n-]c1=O (3D coordinates assigned)
C=c1/c(=C\c2c([O-])[n-]c(=O)[n-]c2=O)c(C)nn1C(=O)CCn1cc(O)[n-]c1=O (optimized conformer: 120.53730540566731 kcal/mol)

>  <smiles>  (82) 
C=c1c(=Cc2c(O)[nH]c(=O)[nH]c2=O)c(C)nn1C(=O)CCn1cc(O)[nH]c1=O

>  <score_type>  (82) 
oracle

>  <origin>  (82) 
adg

>  <m_score__min__energy>  (82) 
-16.949999999999999

>  <m_primary>  (82) 
energy

$$$$
82:0
     RDKit          3D

 44 46  0  0  0  0  0  0  0  0999 V2000
   58.4950   26.4550   47.8330 O   0  0  0  0  0  0  0  0  0  0  0  0
   58.7870   27.6780   47.7400 C   0  0  0  0  0  0  0  0  0  0  0  0
   59.0310   28.2870   46.3980 C   0  0  0  0  0  0  0  0  0  0  0  0
   57.7370   28.7060   45.7700 C   0  0  0  0  0  0  0  0  0  0  0  0
   57.5060   29.9410   45.2880 N   0  0  0  0  0  0  0  0  0  0  0  0
   56.2360   29.8700   44.8380 C   0  0  0  0  0  0  0  0  0  0  0  0
   55.6510   30.8450   44.3010 O   0  0  0  0  0  0  0  0  0  0  0  0
   55.6400   28.6710   45.0120 N   0  0  0  0  0  0  0  0  0  0  0  0
   56.5980   27.9440   45.6100 C   0  0  0  0  0  0  0  0  0  0  0  0
   56.4210   26.6200   46.0020 O   0  0  0  0  0  0  0  0  0  0  0  0
   58.8600   28.4960   48.9090 N   0  0  0  0  0  0  0  0  0  0  0  0
   60.0620   28.6210   49.7230 C   0  0  0  0  0  0  0  0  0  0  0  0
   59.7240   29.3430   50.9960 C   0  0  0  0  0  0  0  0  0  0  0  0
   60.2760   28.9910   52.0720 O   0  0  0  0  0  0  0  0  0  0  0  0
   58.8470   30.4760   51.0030 N   0  0  0  0  0  0  0  0  0  0  0  0
   57.5450   30.4820   51.5970 C   0  0  0  0  0  0  0  0  0  0  0  0
   57.1280   29.3850   52.3560 C   0  0  0  0  0  0  0  0  0  0  0  0
   55.8740   29.3950   52.9760 C   0  0  0  0  0  0  0  0  0  0  0  0
   55.0170   30.5000   52.8310 C   0  0  0  0  0  0  0  0  0  0  0  0
   53.7110   30.5250   53.5320 C   0  0  0  0  0  0  0  0  0  0  0  0
   53.6310   30.0600   54.7010 O   0  0  0  0  0  0  0  0  0  0  0  0
   52.5150   31.0180   52.9100 N   0  0  0  0  0  0  0  0  0  0  0  0
   52.1210   30.8510   51.5380 C   0  0  0  0  0  0  0  0  0  0  0  0
   52.4880   29.7120   50.7970 C   0  0  0  0  0  0  0  0  0  0  0  0
   52.0950   29.5830   49.4620 C   0  0  0  0  0  0  0  0  0  0  0  0
   51.3530   30.5950   48.8490 C   0  0  0  0  0  0  0  0  0  0  0  0
   51.0060   31.7400   49.5710 C   0  0  0  0  0  0  0  0  0  0  0  0
   51.3910   31.8710   50.9100 C   0  0  0  0  0  0  0  0  0  0  0  0
   51.0400   33.0170   51.6150 O   0  0  0  0  0  0  0  0  0  0  0  0
   55.4130   31.5650   52.0040 C   0  0  0  0  0  0  0  0  0  0  0  0
   56.6720   31.5600   51.3990 C   0  0  0  0  0  0  0  0  0  0  0  0
   59.6799   29.1678   46.5125 H   0  0  0  0  0  0  0  0  0  0  0  0
   59.5158   27.5410   45.7511 H   0  0  0  0  0  0  0  0  0  0  0  0
   57.0150   26.1880   46.6980 H   0  0  0  0  0  0  0  0  0  0  0  0
   60.4514   27.6199   49.9601 H   0  0  0  0  0  0  0  0  0  0  0  0
   60.8260   29.1865   49.1693 H   0  0  0  0  0  0  0  0  0  0  0  0
   57.7875   28.5115   52.4661 H   0  0  0  0  0  0  0  0  0  0  0  0
   55.5565   28.5328   53.5808 H   0  0  0  0  0  0  0  0  0  0  0  0
   53.0867   28.9200   51.2706 H   0  0  0  0  0  0  0  0  0  0  0  0
   52.3706   28.6828   48.8931 H   0  0  0  0  0  0  0  0  0  0  0  0
   51.0421   30.4909   47.7990 H   0  0  0  0  0  0  0  0  0  0  0  0
   50.4286   32.5406   49.0855 H   0  0  0  0  0  0  0  0  0  0  0  0
   54.7273   32.4077   51.8321 H   0  0  0  0  0  0  0  0  0  0  0  0
   56.9791   32.4049   50.7652 H   0  0  0  0  0  0  0  0  0  0  0  0
  1  2  2  0
  2  3  1  0
  3  4  1  0
  4  5  1  0
  5  6  1  0
  6  7  2  0
  6  8  1  0
  8  9  1  0
  9 10  1  0
  2 11  1  0
 11 12  1  0
 12 13  1  0
 13 14  2  0
 13 15  1  0
 15 16  1  0
 16 17  2  0
 17 18  1  0
 18 19  2  0
 19 20  1  0
 20 21  2  0
 20 22  1  0
 22 23  1  0
 23 24  2  0
 24 25  1  0
 25 26  2  0
 26 27  1  0
 27 28  2  0
 28 29  1  0
 19 30  1  0
 30 31  2  0
  9  4  2  0
 31 16  1  0
 28 23  1  0
  3 32  1  0
  3 33  1  0
 10 34  1  0
 12 35  1  0
 12 36  1  0
 17 37  1  0
 18 38  1  0
 24 39  1  0
 25 40  1  0
 26 41  1  0
 27 42  1  0
 30 43  1  0
 31 44  1  0
M  CHG  6   5  -1   8  -1  11  -1  15  -1  22  -1  29  -1
M  END
>  <UniqueID>  (83) 
76

>  <SMILES>  (83) 
O=C(Cc1[n-]c(=O)[n-]c1O)[N-]CC(=O)[N-]c1ccc(C(=O)[N-]c2ccccc2[O-])cc1

>  <Energy>  (83) 
77.77692064145498

>  <Genealogy>  (83) 
O=C(Cc1[n-]c(=O)[n-]c1O)[N-]CC(=O)[N-]c1ccc(C(=O)[N-]c2ccccc2[O-])cc1 (protonated)
O=C(Cc1[n-]c(=O)[n-]c1O)[N-]CC(=O)[N-]c1ccc(C(=O)[N-]c2ccccc2[O-])cc1 (3D coordinates assigned)
O=C(Cc1[n-]c(=O)[n-]c1O)[N-]CC(=O)[N-]c1ccc(C(=O)[N-]c2ccccc2[O-])cc1 (optimized conformer: 77.77692064145498 kcal/mol)

>  <smiles>  (83) 
O=C(Cc1[nH]c(=O)[nH]c1O)NCC(=O)Nc1ccc(C(=O)Nc2ccccc2O)cc1

>  <score_type>  (83) 
oracle

>  <origin>  (83) 
adg

>  <m_score__min__energy>  (83) 
-18.760000000000002

>  <m_primary>  (83) 
energy

$$$$
83:0
     RDKit          3D

 62 65  0  0  0  0  0  0  0  0999 V2000
   58.1520   32.4820   42.9530 C   0  0  0  0  0  0  0  0  0  0  0  0
   58.2580   32.9540   44.2040 C   0  0  0  0  0  0  0  0  0  0  0  0
   59.2190   34.0750   44.4930 C   0  0  0  0  0  0  0  0  0  0  0  0
   57.4230   32.3720   45.3210 C   0  0  0  0  0  0  0  0  0  0  0  0
   57.7130   30.9390   45.4860 N   0  0  0  0  0  0  0  0  0  0  0  0
   58.7000   30.3870   46.2350 C   0  0  0  0  0  0  0  0  0  0  0  0
   59.7780   31.1240   46.9220 C   0  0  0  0  0  0  0  0  0  0  0  0
   59.4640   32.1690   47.8030 C   0  0  0  0  0  0  0  0  0  0  0  0
   60.4790   32.8590   48.4710 C   0  0  0  0  0  0  0  0  0  0  0  0
   61.8240   32.5110   48.2700 C   0  0  0  0  0  0  0  0  0  0  0  0
   62.9010   33.2270   48.9850 C   0  0  0  0  0  0  0  0  0  0  0  0
   62.8860   34.4880   49.0090 O   0  0  0  0  0  0  0  0  0  0  0  0
   63.9530   32.5160   49.6690 N   0  0  0  0  0  0  0  0  0  0  0  0
   65.3220   33.0490   49.6760 C   0  0  0  0  0  0  0  0  0  0  0  0
   65.9740   32.9200   51.0750 C   0  0  0  0  0  0  0  0  0  0  0  0
   65.2110   32.1580   51.9960 O   0  0  0  0  0  0  0  0  0  0  0  0
   64.7720   30.9610   51.3920 C   0  0  0  0  0  0  0  0  0  0  0  0
   63.6520   31.2780   50.4010 C   0  0  0  0  0  0  0  0  0  0  0  0
   62.1350   31.4370   47.4210 C   0  0  0  0  0  0  0  0  0  0  0  0
   61.1190   30.7500   46.7510 C   0  0  0  0  0  0  0  0  0  0  0  0
   58.5610   29.0140   46.2780 C   0  0  0  0  0  0  0  0  0  0  0  0
   57.4420   28.7090   45.5310 C   0  0  0  0  0  0  0  0  0  0  0  0
   56.9180   27.3460   45.3260 C   0  0  0  0  0  0  0  0  0  0  0  0
   55.7380   27.0910   45.6880 O   0  0  0  0  0  0  0  0  0  0  0  0
   57.7250   26.3290   44.7070 N   0  0  0  0  0  0  0  0  0  0  0  0
   57.2850   24.9810   44.4780 C   0  0  0  0  0  0  0  0  0  0  0  0
   57.0140   24.5620   43.1660 C   0  0  0  0  0  0  0  0  0  0  0  0
   56.5610   23.2620   42.9170 C   0  0  0  0  0  0  0  0  0  0  0  0
   56.3570   22.3760   43.9790 C   0  0  0  0  0  0  0  0  0  0  0  0
   55.9060   21.0850   43.7310 O   0  0  0  0  0  0  0  0  0  0  0  0
   56.6010   22.7920   45.2910 C   0  0  0  0  0  0  0  0  0  0  0  0
   57.0560   24.0900   45.5420 C   0  0  0  0  0  0  0  0  0  0  0  0
   56.9510   29.9120   45.0330 C   0  0  0  0  0  0  0  0  0  0  0  0
   55.7600   30.0720   44.1310 C   0  0  0  0  0  0  0  0  0  0  0  0
   57.4522   31.6626   42.7317 H   0  0  0  0  0  0  0  0  0  0  0  0
   58.7648   32.9143   42.1483 H   0  0  0  0  0  0  0  0  0  0  0  0
   59.3235   34.1969   45.5812 H   0  0  0  0  0  0  0  0  0  0  0  0
   60.1999   33.8393   44.0545 H   0  0  0  0  0  0  0  0  0  0  0  0
   58.8362   35.0084   44.0545 H   0  0  0  0  0  0  0  0  0  0  0  0
   57.6543   32.8988   46.2586 H   0  0  0  0  0  0  0  0  0  0  0  0
   56.3587   32.4939   45.0712 H   0  0  0  0  0  0  0  0  0  0  0  0
   58.4128   32.4470   47.9691 H   0  0  0  0  0  0  0  0  0  0  0  0
   60.2227   33.6791   49.1579 H   0  0  0  0  0  0  0  0  0  0  0  0
   65.9269   32.4901   48.9468 H   0  0  0  0  0  0  0  0  0  0  0  0
   65.2783   34.1161   49.4126 H   0  0  0  0  0  0  0  0  0  0  0  0
   66.9559   32.4384   50.9565 H   0  0  0  0  0  0  0  0  0  0  0  0
   66.0497   33.9370   51.4872 H   0  0  0  0  0  0  0  0  0  0  0  0
   65.6108   30.4884   50.8600 H   0  0  0  0  0  0  0  0  0  0  0  0
   64.3975   30.2735   52.1647 H   0  0  0  0  0  0  0  0  0  0  0  0
   63.5550   30.4481   49.6856 H   0  0  0  0  0  0  0  0  0  0  0  0
   62.7111   31.4102   50.9552 H   0  0  0  0  0  0  0  0  0  0  0  0
   63.1835   31.1347   47.2825 H   0  0  0  0  0  0  0  0  0  0  0  0
   61.3724   29.9113   46.0859 H   0  0  0  0  0  0  0  0  0  0  0  0
   59.2144   28.3028   46.8046 H   0  0  0  0  0  0  0  0  0  0  0  0
   58.7100   26.5590   44.4490 H   0  0  0  0  0  0  0  0  0  0  0  0
   57.1587   25.2602   42.3284 H   0  0  0  0  0  0  0  0  0  0  0  0
   56.3651   22.9367   41.8846 H   0  0  0  0  0  0  0  0  0  0  0  0
   56.4348   22.0971   46.1273 H   0  0  0  0  0  0  0  0  0  0  0  0
   57.2358   24.4161   46.5770 H   0  0  0  0  0  0  0  0  0  0  0  0
   54.8523   30.1939   44.7403 H   0  0  0  0  0  0  0  0  0  0  0  0
   55.8975   30.9597   43.4962 H   0  0  0  0  0  0  0  0  0  0  0  0
   55.6583   29.1795   43.4962 H   0  0  0  0  0  0  0  0  0  0  0  0
  1  2  2  0
  2  3  1  0
  2  4  1  0
  4  5  1  0
  5  6  1  0
  6  7  1  0
  7  8  2  0
  8  9  1  0
  9 10  2  0
 10 11  1  0
 11 12  2  0
 11 13  1  0
 13 14  1  0
 14 15  1  0
 15 16  1  0
 16 17  1  0
 17 18  1  0
 10 19  1  0
 19 20  2  0
  6 21  2  0
 21 22  1  0
 22 23  1  0
 23 24  2  0
 23 25  1  0
 25 26  1  0
 26 27  2  0
 27 28  1  0
 28 29  2  0
 29 30  1  0
 29 31  1  0
 31 32  2  0
 22 33  2  0
 33 34  1  0
 33  5  1  0
 20  7  1  0
 32 26  1  0
 18 13  1  0
  1 35  1  0
  1 36  1  0
  3 37  1  0
  3 38  1  0
  3 39  1  0
  4 40  1  0
  4 41  1  0
  8 42  1  0
  9 43  1  0
 14 44  1  0
 14 45  1  0
 15 46  1  0
 15 47  1  0
 17 48  1  0
 17 49  1  0
 18 50  1  0
 18 51  1  0
 19 52  1  0
 20 53  1  0
 21 54  1  0
 25 55  1  0
 27 56  1  0
 28 57  1  0
 31 58  1  0
 32 59  1  0
 34 60  1  0
 34 61  1  0
 34 62  1  0
M  CHG  1  30  -1
M  END
>  <UniqueID>  (84) 
77

>  <SMILES>  (84) 
C=C(C)Cn1c(-c2ccc(C(=O)N3CCOCC3)cc2)cc(C(=O)Nc2ccc([O-])cc2)c1C

>  <Energy>  (84) 
111.6602483497094

>  <Genealogy>  (84) 
C=C(C)Cn1c(-c2ccc(C(=O)N3CCOCC3)cc2)cc(C(=O)Nc2ccc([O-])cc2)c1C (protonated)
C=C(C)Cn1c(-c2ccc(C(=O)N3CCOCC3)cc2)cc(C(=O)Nc2ccc([O-])cc2)c1C (3D coordinates assigned)
C=C(C)Cn1c(-c2ccc(C(=O)N3CCOCC3)cc2)cc(C(=O)Nc2ccc([O-])cc2)c1C (nonaromatic ring conformer: 111.6602483497094 kcal/mol)

>  <smiles>  (84) 
C=C(C)Cn1c(-c2ccc(C(=O)N3CCOCC3)cc2)cc(C(=O)Nc2ccc(O)cc2)c1C

>  <score_type>  (84) 
oracle

>  <origin>  (84) 
adg

>  <m_score__min__energy>  (84) 
-10.880000000000001

>  <m_primary>  (84) 
energy

$$$$
84:0
     RDKit          3D

 40 42  0  0  0  0  0  0  0  0999 V2000
   55.5140   28.9900   45.2150 N   0  0  0  0  0  0  0  0  0  0  0  0
   56.3830   29.4230   44.1710 C   0  0  0  0  0  0  0  0  0  0  0  0
   57.1550   28.5980   43.6140 O   0  0  0  0  0  0  0  0  0  0  0  0
   56.3420   30.8400   43.7070 C   0  0  0  0  0  0  0  0  0  0  0  0
   58.0420   31.4860   43.5940 S   0  0  0  0  0  0  0  0  0  0  0  0
   58.5070   30.8720   45.2220 C   0  0  0  0  0  0  0  0  0  0  0  0
   59.0810   29.6440   45.2820 N   0  0  0  0  0  0  0  0  0  0  0  0
   59.4690   29.0960   46.4560 C   0  0  0  0  0  0  0  0  0  0  0  0
   60.0540   27.8240   46.4760 C   0  0  0  0  0  0  0  0  0  0  0  0
   60.4540   27.2570   47.6900 C   0  0  0  0  0  0  0  0  0  0  0  0
   60.2710   27.9580   48.8850 C   0  0  0  0  0  0  0  0  0  0  0  0
   59.6880   29.2300   48.8720 C   0  0  0  0  0  0  0  0  0  0  0  0
   59.2830   29.8080   47.6540 C   0  0  0  0  0  0  0  0  0  0  0  0
   58.6870   31.0790   47.5850 C   0  0  0  0  0  0  0  0  0  0  0  0
   58.5040   31.7350   48.6500 O   0  0  0  0  0  0  0  0  0  0  0  0
   58.2980   31.6010   46.3720 N   0  0  0  0  0  0  0  0  0  0  0  0
   57.6040   32.9060   46.3200 C   0  0  0  0  0  0  0  0  0  0  0  0
   58.5770   34.0510   46.0000 C   0  0  0  0  0  0  0  0  0  0  0  0
   59.8070   33.9960   46.8670 C   0  0  0  0  0  0  0  0  0  0  0  0
   61.0260   33.5390   46.3400 C   0  0  0  0  0  0  0  0  0  0  0  0
   62.1540   33.4380   47.1590 C   0  0  0  0  0  0  0  0  0  0  0  0
   62.0720   33.7860   48.5100 C   0  0  0  0  0  0  0  0  0  0  0  0
   60.8620   34.2350   49.0440 C   0  0  0  0  0  0  0  0  0  0  0  0
   59.7310   34.3390   48.2290 C   0  0  0  0  0  0  0  0  0  0  0  0
   54.5360   29.3490   45.2810 H   0  0  0  0  0  0  0  0  0  0  0  0
   55.8638   30.8890   42.7176 H   0  0  0  0  0  0  0  0  0  0  0  0
   55.7645   31.4451   44.4214 H   0  0  0  0  0  0  0  0  0  0  0  0
   60.1989   27.2706   45.5365 H   0  0  0  0  0  0  0  0  0  0  0  0
   60.9134   26.2576   47.7044 H   0  0  0  0  0  0  0  0  0  0  0  0
   60.5861   27.5087   49.8383 H   0  0  0  0  0  0  0  0  0  0  0  0
   59.5460   29.7789   49.8146 H   0  0  0  0  0  0  0  0  0  0  0  0
   56.8291   32.8675   45.5402 H   0  0  0  0  0  0  0  0  0  0  0  0
   57.1584   33.0986   47.3071 H   0  0  0  0  0  0  0  0  0  0  0  0
   58.8807   33.9764   44.9454 H   0  0  0  0  0  0  0  0  0  0  0  0
   58.0620   35.0031   46.1957 H   0  0  0  0  0  0  0  0  0  0  0  0
   61.0932   33.2594   45.2783 H   0  0  0  0  0  0  0  0  0  0  0  0
   63.1074   33.0842   46.7397 H   0  0  0  0  0  0  0  0  0  0  0  0
   62.9608   33.7063   49.1531 H   0  0  0  0  0  0  0  0  0  0  0  0
   60.7989   34.5073   50.1079 H   0  0  0  0  0  0  0  0  0  0  0  0
   58.7791   34.6900   48.6540 H   0  0  0  0  0  0  0  0  0  0  0  0
  1  2  1  0
  2  3  2  0
  2  4  1  0
  4  5  1  0
  5  6  1  0
  6  7  2  0
  7  8  1  0
  8  9  2  0
  9 10  1  0
 10 11  2  0
 11 12  1  0
 12 13  2  0
 13 14  1  0
 14 15  2  0
 14 16  1  0
 16 17  1  0
 17 18  1  0
 18 19  1  0
 19 20  2  0
 20 21  1  0
 21 22  2  0
 22 23  1  0
 23 24  2  0
 16  6  1  0
 24 19  1  0
 13  8  1  0
  1 25  1  0
  4 26  1  0
  4 27  1  0
  9 28  1  0
 10 29  1  0
 11 30  1  0
 12 31  1  0
 17 32  1  0
 17 33  1  0
 18 34  1  0
 18 35  1  0
 20 36  1  0
 21 37  1  0
 22 38  1  0
 23 39  1  0
 24 40  1  0
M  CHG  1   1  -1
M  END
>  <UniqueID>  (85) 
78

>  <SMILES>  (85) 
[NH-]C(=O)CSc1nc2ccccc2c(=O)n1CCc1ccccc1

>  <Energy>  (85) 
41.14681289842064

>  <Genealogy>  (85) 
[NH-]C(=O)CSc1nc2ccccc2c(=O)n1CCc1ccccc1 (protonated)
[NH-]C(=O)CSc1nc2ccccc2c(=O)n1CCc1ccccc1 (3D coordinates assigned)
[NH-]C(=O)CSc1nc2ccccc2c(=O)n1CCc1ccccc1 (optimized conformer: 41.14681289842064 kcal/mol)

>  <smiles>  (85) 
NC(=O)CSc1nc2ccccc2c(=O)n1CCc1ccccc1

>  <score_type>  (85) 
oracle

>  <origin>  (85) 
adg

>  <m_score__min__energy>  (85) 
-10.74

>  <m_primary>  (85) 
energy

$$$$
85:0
     RDKit          3D

 55 58  0  0  0  0  0  0  0  0999 V2000
   58.6850   27.0880   47.8040 H   0  0  0  0  0  0  0  0  0  0  0  0
   59.0310   27.8200   48.4130 O   0  0  0  0  0  0  0  0  0  0  0  0
   59.3920   29.0630   47.9040 C   0  0  0  0  0  0  0  0  0  0  0  0
   59.1680   30.2290   48.5300 N   0  0  0  0  0  0  0  0  0  0  0  0
   59.6730   31.1400   47.6670 C   0  0  0  0  0  0  0  0  0  0  0  0
   59.6830   32.6080   47.9470 C   0  0  0  0  0  0  0  0  0  0  0  0
   59.1069   33.1301   47.1689 H   0  0  0  0  0  0  0  0  0  0  0  0
   59.2312   32.7880   48.9337 H   0  0  0  0  0  0  0  0  0  0  0  0
   61.0950   33.1270   47.9520 C   0  0  0  0  0  0  0  0  0  0  0  0
   61.7650   33.3680   46.7410 C   0  0  0  0  0  0  0  0  0  0  0  0
   61.2517   33.1852   45.7854 H   0  0  0  0  0  0  0  0  0  0  0  0
   63.0810   33.8390   46.7450 C   0  0  0  0  0  0  0  0  0  0  0  0
   63.5999   34.0293   45.7939 H   0  0  0  0  0  0  0  0  0  0  0  0
   63.7370   34.0680   47.9560 C   0  0  0  0  0  0  0  0  0  0  0  0
   64.7699   34.4462   47.9587 H   0  0  0  0  0  0  0  0  0  0  0  0
   63.0820   33.8170   49.1650 C   0  0  0  0  0  0  0  0  0  0  0  0
   63.6022   33.9930   50.1181 H   0  0  0  0  0  0  0  0  0  0  0  0
   61.7680   33.3430   49.1650 C   0  0  0  0  0  0  0  0  0  0  0  0
   61.2590   33.1383   50.1184 H   0  0  0  0  0  0  0  0  0  0  0  0
   60.2110   30.6050   46.5470 N   0  0  0  0  0  0  0  0  0  0  0  0
   60.0200   29.2850   46.7030 C   0  0  0  0  0  0  0  0  0  0  0  0
   60.4190   28.2510   45.6930 C   0  0  0  0  0  0  0  0  0  0  0  0
   61.4790   27.9955   45.8383 H   0  0  0  0  0  0  0  0  0  0  0  0
   60.2582   28.6625   44.6856 H   0  0  0  0  0  0  0  0  0  0  0  0
   59.6100   27.0410   45.8390 N   0  0  0  0  0  0  0  0  0  0  0  0
   58.3090   27.0130   45.8210 C   0  0  0  0  0  0  0  0  0  0  0  0
   57.6250   28.0830   45.3430 N   0  0  0  0  0  0  0  0  0  0  0  0
   56.2680   28.0800   45.3280 C   0  0  0  0  0  0  0  0  0  0  0  0
   55.6330   29.1190   44.8760 N   0  0  0  0  0  0  0  0  0  0  0  0
   55.8230   29.7010   43.5470 C   0  0  0  0  0  0  0  0  0  0  0  0
   56.2738   28.9489   42.8829 H   0  0  0  0  0  0  0  0  0  0  0  0
   54.8459   30.0163   43.1522 H   0  0  0  0  0  0  0  0  0  0  0  0
   56.7290   30.9010   43.6250 C   0  0  0  0  0  0  0  0  0  0  0  0
   57.0940   31.4440   44.8680 C   0  0  0  0  0  0  0  0  0  0  0  0
   56.6859   31.0147   45.7949 H   0  0  0  0  0  0  0  0  0  0  0  0
   57.9740   32.5280   44.9310 C   0  0  0  0  0  0  0  0  0  0  0  0
   58.2504   32.9543   45.9066 H   0  0  0  0  0  0  0  0  0  0  0  0
   58.5030   33.0710   43.7590 C   0  0  0  0  0  0  0  0  0  0  0  0
   59.2017   33.9190   43.8116 H   0  0  0  0  0  0  0  0  0  0  0  0
   58.1440   32.5360   42.5180 C   0  0  0  0  0  0  0  0  0  0  0  0
   58.5566   32.9676   41.5941 H   0  0  0  0  0  0  0  0  0  0  0  0
   57.2620   31.4540   42.4490 C   0  0  0  0  0  0  0  0  0  0  0  0
   56.9844   31.0343   41.4708 H   0  0  0  0  0  0  0  0  0  0  0  0
   55.5940   26.9940   45.7920 N   0  0  0  0  0  0  0  0  0  0  0  0
   56.2680   25.9210   46.2730 C   0  0  0  0  0  0  0  0  0  0  0  0
   55.6040   24.8990   46.7230 N   0  0  0  0  0  0  0  0  0  0  0  0
   55.4530   23.6380   46.0000 C   0  0  0  0  0  0  0  0  0  0  0  0
   55.1430   22.8492   46.7011 H   0  0  0  0  0  0  0  0  0  0  0  0
   56.4135   23.3648   45.5386 H   0  0  0  0  0  0  0  0  0  0  0  0
   54.4150   23.7910   44.9320 C   0  0  0  0  0  0  0  0  0  0  0  0
   54.7011   23.6500   43.8793 H   0  0  0  0  0  0  0  0  0  0  0  0
   53.1490   24.0950   45.2300 C   0  0  0  0  0  0  0  0  0  0  0  0
   52.4053   24.2018   44.4266 H   0  0  0  0  0  0  0  0  0  0  0  0
   52.8501   24.2385   46.2788 H   0  0  0  0  0  0  0  0  0  0  0  0
   57.6270   25.9330   46.2840 N   0  0  0  0  0  0  0  0  0  0  0  0
  1  2  1  0
  2  3  1  0
  3  4  1  0
  4  5  1  0
  5  6  1  0
  6  7  1  0
  6  8  1  0
  6  9  1  0
  9 10  2  0
 10 11  1  0
 10 12  1  0
 12 13  1  0
 12 14  2  0
 14 15  1  0
 14 16  1  0
 16 17  1  0
 16 18  2  0
 18 19  1  0
  5 20  2  0
 20 21  1  0
 21 22  1  0
 22 23  1  0
 22 24  1  0
 22 25  1  0
 25 26  2  0
 26 27  1  0
 27 28  1  0
 28 29  2  3
 29 30  1  0
 30 31  1  0
 30 32  1  0
 30 33  1  0
 33 34  2  0
 34 35  1  0
 34 36  1  0
 36 37  1  0
 36 38  2  0
 38 39  1  0
 38 40  1  0
 40 41  1  0
 40 42  2  0
 42 43  1  0
 28 44  1  0
 44 45  1  0
 45 46  2  0
 46 47  1  0
 47 48  1  0
 47 49  1  0
 47 50  1  0
 50 51  1  0
 50 52  2  0
 52 53  1  0
 52 54  1  0
 45 55  1  0
 21  3  2  0
 55 26  1  0
 18  9  1  0
 42 33  1  0
M  CHG  4   4  -1  27  -1  44  -1  55  -1
M  END
>  <UniqueID>  (86) 
79

>  <SMILES>  (86) 
C=CC/N=c1/[n-]c(=NCc2ccccc2)[n-]/c(=N/Cc2nc(Cc3ccccc3)[n-]c2O)[n-]1

>  <Energy>  (86) 
78.221261081316

>  <Genealogy>  (86) 
C=CCN=c1[n-]c(=NCc2ccccc2)[n-]c(=NCc2nc(Cc3ccccc3)[n-]c2O)[n-]1 (protonated)
C=CC/N=c1/[n-]c(=NCc2ccccc2)[n-]/c(=N/Cc2nc(Cc3ccccc3)[n-]c2O)[n-]1 (cis-trans isomerization)
C=CC/N=c1/[n-]c(=NCc2ccccc2)[n-]/c(=N/Cc2nc(Cc3ccccc3)[n-]c2O)[n-]1 (3D coordinates assigned)
C=CC/N=c1/[n-]c(=NCc2ccccc2)[n-]/c(=N/Cc2nc(Cc3ccccc3)[n-]c2O)[n-]1 (optimized conformer: 78.221261081316 kcal/mol)

>  <smiles>  (86) 
C=CCN=c1[nH]c(=NCc2ccccc2)[nH]c(=NCc2nc(Cc3ccccc3)[nH]c2O)[nH]1

>  <score_type>  (86) 
oracle

>  <origin>  (86) 
adg

>  <m_score__min__energy>  (86) 
-14.98

>  <m_primary>  (86) 
energy

$$$$
86:0
     RDKit          3D

 56 59  0  0  0  0  0  0  0  0999 V2000
   60.1590   29.3170   44.9100 C   0  0  0  0  0  0  0  0  0  0  0  0
   59.6030   29.1960   46.1270 C   0  0  0  0  0  0  0  0  0  0  0  0
   58.7860   28.1400   46.5670 C   0  0  0  0  0  0  0  0  0  0  0  0
   58.1870   27.1410   45.8910 C   0  0  0  0  0  0  0  0  0  0  0  0
   57.4260   26.0340   46.4940 C   0  0  0  0  0  0  0  0  0  0  0  0
   57.9750   24.9480   47.0670 N   0  0  0  0  0  0  0  0  0  0  0  0
   56.9080   24.1680   47.3430 C   0  0  0  0  0  0  0  0  0  0  0  0
   57.0160   23.0480   47.9070 O   0  0  0  0  0  0  0  0  0  0  0  0
   55.7190   24.6760   46.9570 N   0  0  0  0  0  0  0  0  0  0  0  0
   56.0660   25.8520   46.4070 C   0  0  0  0  0  0  0  0  0  0  0  0
   55.1630   26.7380   45.8320 O   0  0  0  0  0  0  0  0  0  0  0  0
   58.6190   28.3200   47.9270 C   0  0  0  0  0  0  0  0  0  0  0  0
   59.2680   29.4890   48.2580 C   0  0  0  0  0  0  0  0  0  0  0  0
   59.2350   30.0950   49.6020 C   0  0  0  0  0  0  0  0  0  0  0  0
   58.1670   30.0420   50.2700 O   0  0  0  0  0  0  0  0  0  0  0  0
   60.3860   30.7710   50.1430 N   0  0  0  0  0  0  0  0  0  0  0  0
   61.7480   30.3070   49.8370 C   0  0  0  0  0  0  0  0  0  0  0  0
   62.7130   31.4950   49.6460 C   0  0  0  0  0  0  0  0  0  0  0  0
   62.2310   32.7400   50.2840 N   0  0  0  0  0  0  0  0  0  0  0  0
   63.5570   33.8430   50.5630 S   0  0  0  0  0  0  0  0  0  0  0  0
   64.2140   33.6870   52.2140 C   0  0  0  0  0  0  0  0  0  0  0  0
   64.6550   33.5690   49.5730 O   0  0  0  0  0  0  0  0  0  0  0  0
   63.0730   35.2520   50.3680 O   0  0  0  0  0  0  0  0  0  0  0  0
   61.5130   32.4730   51.5370 C   0  0  0  0  0  0  0  0  0  0  0  0
   60.1960   31.7650   51.2070 C   0  0  0  0  0  0  0  0  0  0  0  0
   59.8690   30.0290   47.1710 N   0  0  0  0  0  0  0  0  0  0  0  0
   60.5050   31.3580   47.1340 C   0  0  0  0  0  0  0  0  0  0  0  0
   59.5780   32.3500   46.4820 C   0  0  0  0  0  0  0  0  0  0  0  0
   60.0300   33.6420   46.1590 C   0  0  0  0  0  0  0  0  0  0  0  0
   59.1500   34.5760   45.6050 C   0  0  0  0  0  0  0  0  0  0  0  0
   57.8150   34.2330   45.3730 C   0  0  0  0  0  0  0  0  0  0  0  0
   57.3590   32.9510   45.6940 C   0  0  0  0  0  0  0  0  0  0  0  0
   58.2350   32.0130   46.2490 C   0  0  0  0  0  0  0  0  0  0  0  0
   60.7840   30.1912   44.6753 H   0  0  0  0  0  0  0  0  0  0  0  0
   59.9892   28.5418   44.1482 H   0  0  0  0  0  0  0  0  0  0  0  0
   58.2737   27.1531   44.7945 H   0  0  0  0  0  0  0  0  0  0  0  0
   54.3820   27.0980   46.3660 H   0  0  0  0  0  0  0  0  0  0  0  0
   58.0725   27.6568   48.6136 H   0  0  0  0  0  0  0  0  0  0  0  0
   62.1088   29.6817   50.6669 H   0  0  0  0  0  0  0  0  0  0  0  0
   61.7170   29.7299   48.9011 H   0  0  0  0  0  0  0  0  0  0  0  0
   63.6862   31.2302   50.0851 H   0  0  0  0  0  0  0  0  0  0  0  0
   62.7885   31.6870   48.5655 H   0  0  0  0  0  0  0  0  0  0  0  0
   63.4151   33.8767   52.9460 H   0  0  0  0  0  0  0  0  0  0  0  0
   64.6085   32.6702   52.3571 H   0  0  0  0  0  0  0  0  0  0  0  0
   65.0235   34.4179   52.3571 H   0  0  0  0  0  0  0  0  0  0  0  0
   62.1265   31.8301   52.1854 H   0  0  0  0  0  0  0  0  0  0  0  0
   61.3091   33.4185   52.0609 H   0  0  0  0  0  0  0  0  0  0  0  0
   59.8234   31.2590   52.1098 H   0  0  0  0  0  0  0  0  0  0  0  0
   59.4713   32.5162   50.8599 H   0  0  0  0  0  0  0  0  0  0  0  0
   60.7265   31.6854   48.1605 H   0  0  0  0  0  0  0  0  0  0  0  0
   61.4379   31.2978   46.5543 H   0  0  0  0  0  0  0  0  0  0  0  0
   61.0788   33.9182   46.3428 H   0  0  0  0  0  0  0  0  0  0  0  0
   59.5092   35.5841   45.3508 H   0  0  0  0  0  0  0  0  0  0  0  0
   57.1242   34.9706   44.9385 H   0  0  0  0  0  0  0  0  0  0  0  0
   56.3091   32.6797   45.5096 H   0  0  0  0  0  0  0  0  0  0  0  0
   57.8705   31.0070   46.5041 H   0  0  0  0  0  0  0  0  0  0  0  0
  1  2  2  0
  2  3  1  0
  3  4  2  3
  4  5  1  0
  5  6  1  0
  6  7  1  0
  7  8  2  0
  7  9  1  0
  9 10  1  0
 10 11  1  0
  3 12  1  0
 12 13  2  0
 13 14  1  0
 14 15  2  0
 14 16  1  0
 16 17  1  0
 17 18  1  0
 18 19  1  0
 19 20  1  0
 20 21  1  0
 20 22  2  0
 20 23  2  0
 19 24  1  0
 24 25  1  0
 13 26  1  0
 26 27  1  0
 27 28  1  0
 28 29  2  0
 29 30  1  0
 30 31  2  0
 31 32  1  0
 32 33  2  0
 26  2  1  0
 33 28  1  0
 10  5  2  0
 25 16  1  0
  1 34  1  0
  1 35  1  0
  4 36  1  0
 11 37  1  0
 12 38  1  0
 17 39  1  0
 17 40  1  0
 18 41  1  0
 18 42  1  0
 21 43  1  0
 21 44  1  0
 21 45  1  0
 24 46  1  0
 24 47  1  0
 25 48  1  0
 25 49  1  0
 27 50  1  0
 27 51  1  0
 29 52  1  0
 30 53  1  0
 31 54  1  0
 32 55  1  0
 33 56  1  0
M  CHG  2   6  -1   9  -1
M  END
>  <UniqueID>  (87) 
80

>  <SMILES>  (87) 
C=c1c(=Cc2[n-]c(=O)[n-]c2O)cc(C(=O)N2CCN(S(C)(=O)=O)CC2)n1Cc1ccccc1

>  <Energy>  (87) 
131.09043994600927

>  <Genealogy>  (87) 
C=c1c(=Cc2[n-]c(=O)[n-]c2O)cc(C(=O)N2CCN(S(C)(=O)=O)CC2)n1Cc1ccccc1 (protonated)
C=c1c(=Cc2[n-]c(=O)[n-]c2O)cc(C(=O)N2CCN(S(C)(=O)=O)CC2)n1Cc1ccccc1 (3D coordinates assigned)
C=c1c(=Cc2[n-]c(=O)[n-]c2O)cc(C(=O)N2CCN(S(C)(=O)=O)CC2)n1Cc1ccccc1 (nonaromatic ring conformer: 131.09043994600927 kcal/mol)

>  <smiles>  (87) 
C=c1c(=Cc2[nH]c(=O)[nH]c2O)cc(C(=O)N2CCN(S(C)(=O)=O)CC2)n1Cc1ccccc1

>  <score_type>  (87) 
oracle

>  <origin>  (87) 
adg

>  <m_score__min__energy>  (87) 
-13.56

>  <m_primary>  (87) 
energy

$$$$
87:0
     RDKit          3D

 53 56  0  0  0  0  0  0  0  0999 V2000
   58.1430   20.7230   45.9640 C   0  0  0  0  0  0  0  0  0  0  0  0
   58.7450   21.4630   44.8400 N   0  0  0  0  0  0  0  0  0  0  0  0
   59.3200   22.7640   45.2710 C   0  0  0  0  0  0  0  0  0  0  0  0
   58.2540   23.7750   45.7550 C   0  0  0  0  0  0  0  0  0  0  0  0
   57.0640   23.7460   44.8470 C   0  0  0  0  0  0  0  0  0  0  0  0
   56.8220   22.7230   43.9670 C   0  0  0  0  0  0  0  0  0  0  0  0
   55.5680   22.9240   43.4330 C   0  0  0  0  0  0  0  0  0  0  0  0
   55.0170   24.0210   43.9910 N   0  0  0  0  0  0  0  0  0  0  0  0
   55.9180   24.5200   44.8680 C   0  0  0  0  0  0  0  0  0  0  0  0
   55.6460   25.6530   45.7740 C   0  0  0  0  0  0  0  0  0  0  0  0
   54.4570   26.0070   45.9840 O   0  0  0  0  0  0  0  0  0  0  0  0
   56.7050   26.3400   46.4530 N   0  0  0  0  0  0  0  0  0  0  0  0
   57.5140   27.3910   45.9040 C   0  0  0  0  0  0  0  0  0  0  0  0
   58.9010   27.2140   45.8330 C   0  0  0  0  0  0  0  0  0  0  0  0
   59.7160   28.2250   45.3150 C   0  0  0  0  0  0  0  0  0  0  0  0
   59.1520   29.4220   44.8680 C   0  0  0  0  0  0  0  0  0  0  0  0
   57.7670   29.6180   44.9460 C   0  0  0  0  0  0  0  0  0  0  0  0
   57.0490   31.1260   44.3810 S   0  0  0  0  0  0  0  0  0  0  0  0
   57.4130   31.3210   42.9340 O   0  0  0  0  0  0  0  0  0  0  0  0
   55.5510   31.0420   44.4870 O   0  0  0  0  0  0  0  0  0  0  0  0
   57.6480   32.4650   45.3260 N   0  0  0  0  0  0  0  0  0  0  0  0
   58.5700   33.2800   44.5180 C   0  0  0  0  0  0  0  0  0  0  0  0
   58.9460   34.5740   45.2660 C   0  0  0  0  0  0  0  0  0  0  0  0
   58.7800   34.4420   46.7890 C   0  0  0  0  0  0  0  0  0  0  0  0
   59.1550   33.0350   47.2600 C   0  0  0  0  0  0  0  0  0  0  0  0
   58.3240   31.9500   46.5370 C   0  0  0  0  0  0  0  0  0  0  0  0
   56.9550   28.6120   45.4850 C   0  0  0  0  0  0  0  0  0  0  0  0
   57.7940   21.6140   43.7100 C   0  0  0  0  0  0  0  0  0  0  0  0
   58.4923   21.1523   46.9146 H   0  0  0  0  0  0  0  0  0  0  0  0
   57.0471   20.7990   45.9080 H   0  0  0  0  0  0  0  0  0  0  0  0
   58.4405   19.6655   45.9080 H   0  0  0  0  0  0  0  0  0  0  0  0
   60.0244   22.5783   46.0952 H   0  0  0  0  0  0  0  0  0  0  0  0
   59.8146   23.2075   44.3943 H   0  0  0  0  0  0  0  0  0  0  0  0
   57.9391   23.5105   46.7752 H   0  0  0  0  0  0  0  0  0  0  0  0
   58.6878   24.7858   45.7460 H   0  0  0  0  0  0  0  0  0  0  0  0
   55.0913   22.2895   42.6713 H   0  0  0  0  0  0  0  0  0  0  0  0
   54.0620   24.3920   43.7960 H   0  0  0  0  0  0  0  0  0  0  0  0
   59.3517   26.2749   46.1865 H   0  0  0  0  0  0  0  0  0  0  0  0
   60.8046   28.0773   45.2593 H   0  0  0  0  0  0  0  0  0  0  0  0
   59.7961   30.2119   44.4542 H   0  0  0  0  0  0  0  0  0  0  0  0
   59.4830   32.7005   44.3163 H   0  0  0  0  0  0  0  0  0  0  0  0
   58.0732   33.5473   43.5737 H   0  0  0  0  0  0  0  0  0  0  0  0
   59.9958   34.8170   45.0451 H   0  0  0  0  0  0  0  0  0  0  0  0
   58.2668   35.3683   44.9229 H   0  0  0  0  0  0  0  0  0  0  0  0
   59.4325   35.1742   47.2871 H   0  0  0  0  0  0  0  0  0  0  0  0
   57.7266   34.6289   47.0449 H   0  0  0  0  0  0  0  0  0  0  0  0
   60.2219   32.8628   47.0547 H   0  0  0  0  0  0  0  0  0  0  0  0
   58.9451   32.9666   48.3376 H   0  0  0  0  0  0  0  0  0  0  0  0
   58.9950   31.1291   46.2439 H   0  0  0  0  0  0  0  0  0  0  0  0
   57.5447   31.6074   47.2337 H   0  0  0  0  0  0  0  0  0  0  0  0
   55.8719   28.7780   45.5814 H   0  0  0  0  0  0  0  0  0  0  0  0
   57.2391   20.6732   43.5795 H   0  0  0  0  0  0  0  0  0  0  0  0
   58.3663   21.8550   42.8020 H   0  0  0  0  0  0  0  0  0  0  0  0
  1  2  1  0
  2  3  1  0
  3  4  1  0
  4  5  1  0
  5  6  1  0
  6  7  2  0
  7  8  1  0
  8  9  1  0
  9 10  1  0
 10 11  2  0
 10 12  1  0
 12 13  1  0
 13 14  2  0
 14 15  1  0
 15 16  2  0
 16 17  1  0
 17 18  1  0
 18 19  2  0
 18 20  2  0
 18 21  1  0
 21 22  1  0
 22 23  1  0
 23 24  1  0
 24 25  1  0
 25 26  1  0
 17 27  2  0
  6 28  1  0
 28  2  1  0
  9  5  2  0
 27 13  1  0
 26 21  1  0
  1 29  1  0
  1 30  1  0
  1 31  1  0
  3 32  1  0
  3 33  1  0
  4 34  1  0
  4 35  1  0
  7 36  1  0
  8 37  1  0
 14 38  1  0
 15 39  1  0
 16 40  1  0
 22 41  1  0
 22 42  1  0
 23 43  1  0
 23 44  1  0
 24 45  1  0
 24 46  1  0
 25 47  1  0
 25 48  1  0
 26 49  1  0
 26 50  1  0
 27 51  1  0
 28 52  1  0
 28 53  1  0
M  CHG  1  12  -1
M  END
>  <UniqueID>  (88) 
81

>  <SMILES>  (88) 
CN1CCc2c(c[nH]c2C(=O)[N-]c2cccc(S(=O)(=O)N3CCCCC3)c2)C1

>  <Energy>  (88) 
94.52399146883675

>  <Genealogy>  (88) 
CN1CCc2c(c[nH]c2C(=O)[N-]c2cccc(S(=O)(=O)N3CCCCC3)c2)C1 (protonated)
CN1CCc2c(c[nH]c2C(=O)[N-]c2cccc(S(=O)(=O)N3CCCCC3)c2)C1 (3D coordinates assigned)
CN1CCc2c(c[nH]c2C(=O)[N-]c2cccc(S(=O)(=O)N3CCCCC3)c2)C1 (nonaromatic ring conformer: 94.52399146883675 kcal/mol)

>  <smiles>  (88) 
CN1CCc2c(c[nH]c2C(=O)Nc2cccc(S(=O)(=O)N3CCCCC3)c2)C1

>  <score_type>  (88) 
oracle

>  <origin>  (88) 
adg

>  <m_score__min__energy>  (88) 
-11.800000000000001

>  <m_primary>  (88) 
energy

$$$$
88:0
     RDKit          3D

 59 62  0  0  0  0  0  0  0  0999 V2000
   63.4570   32.7900   47.1430 C   0  0  0  0  0  0  0  0  0  0  0  0
   63.7240   33.8330   48.1810 C   0  0  0  0  0  0  0  0  0  0  0  0
   64.3350   33.2100   49.3770 C   0  0  0  0  0  0  0  0  0  0  0  0
   65.6630   32.8940   49.3890 N   0  0  0  0  0  0  0  0  0  0  0  0
   66.2520   32.3320   50.4620 C   0  0  0  0  0  0  0  0  0  0  0  0
   67.5090   32.0260   50.4930 N   0  0  0  0  0  0  0  0  0  0  0  0
   65.4970   32.0810   51.5420 N   0  0  0  0  0  0  0  0  0  0  0  0
   64.1900   32.3760   51.5700 C   0  0  0  0  0  0  0  0  0  0  0  0
   63.4490   32.1430   52.5970 N   0  0  0  0  0  0  0  0  0  0  0  0
   63.5410   32.9620   50.4760 C   0  0  0  0  0  0  0  0  0  0  0  0
   62.0940   33.2670   50.5370 C   0  0  0  0  0  0  0  0  0  0  0  0
   61.3910   32.3400   49.6440 N   0  0  0  0  0  0  0  0  0  0  0  0
   61.3780   30.9360   49.8640 C   0  0  0  0  0  0  0  0  0  0  0  0
   61.9590   30.3970   50.8270 O   0  0  0  0  0  0  0  0  0  0  0  0
   60.6440   30.0820   48.9110 C   0  0  0  0  0  0  0  0  0  0  0  0
   60.3220   30.4000   47.6040 C   0  0  0  0  0  0  0  0  0  0  0  0
   59.6370   29.3340   47.0610 C   0  0  0  0  0  0  0  0  0  0  0  0
   59.0650   29.0310   45.8540 C   0  0  0  0  0  0  0  0  0  0  0  0
   58.4200   27.8270   45.6050 C   0  0  0  0  0  0  0  0  0  0  0  0
   57.7940   27.5430   44.2620 C   0  0  0  0  0  0  0  0  0  0  0  0
   57.8860   28.7670   43.5230 N   0  0  0  0  0  0  0  0  0  0  0  0
   56.6710   29.9130   43.9500 S   0  0  0  0  0  0  0  0  0  0  0  0
   55.6950   30.0470   42.8070 O   0  0  0  0  0  0  0  0  0  0  0  0
   55.9740   29.4230   45.1860 O   0  0  0  0  0  0  0  0  0  0  0  0
   57.4070   31.4400   44.2970 C   0  0  0  0  0  0  0  0  0  0  0  0
   57.4220   31.8640   45.6230 C   0  0  0  0  0  0  0  0  0  0  0  0
   57.9700   33.0480   46.0200 C   0  0  0  0  0  0  0  0  0  0  0  0
   58.5330   33.8580   45.0550 C   0  0  0  0  0  0  0  0  0  0  0  0
   58.5240   33.4470   43.7330 C   0  0  0  0  0  0  0  0  0  0  0  0
   57.9630   32.2380   43.3350 C   0  0  0  0  0  0  0  0  0  0  0  0
   58.3400   26.8690   46.6090 C   0  0  0  0  0  0  0  0  0  0  0  0
   58.9040   27.1540   47.8110 C   0  0  0  0  0  0  0  0  0  0  0  0
   59.5450   28.3570   48.0540 C   0  0  0  0  0  0  0  0  0  0  0  0
   60.1620   28.8560   49.1400 N   0  0  0  0  0  0  0  0  0  0  0  0
   63.2130   31.8370   47.6351 H   0  0  0  0  0  0  0  0  0  0  0  0
   62.6107   33.1057   46.5152 H   0  0  0  0  0  0  0  0  0  0  0  0
   64.3509   32.6602   46.5152 H   0  0  0  0  0  0  0  0  0  0  0  0
   64.4118   34.5874   47.7713 H   0  0  0  0  0  0  0  0  0  0  0  0
   62.7751   34.3104   48.4666 H   0  0  0  0  0  0  0  0  0  0  0  0
   66.2830   33.0750   48.5670 H   0  0  0  0  0  0  0  0  0  0  0  0
   68.2600   32.7030   50.6940 H   0  0  0  0  0  0  0  0  0  0  0  0
   65.9590   31.6460   52.3700 H   0  0  0  0  0  0  0  0  0  0  0  0
   62.6280   31.5050   52.5630 H   0  0  0  0  0  0  0  0  0  0  0  0
   61.7299   33.1395   51.5671 H   0  0  0  0  0  0  0  0  0  0  0  0
   61.9117   34.3060   50.2251 H   0  0  0  0  0  0  0  0  0  0  0  0
   60.8660   32.7050   48.7950 H   0  0  0  0  0  0  0  0  0  0  0  0
   60.5693   31.3394   47.0880 H   0  0  0  0  0  0  0  0  0  0  0  0
   59.1190   29.7750   45.0456 H   0  0  0  0  0  0  0  0  0  0  0  0
   58.3422   26.7413   43.7455 H   0  0  0  0  0  0  0  0  0  0  0  0
   56.7511   27.2083   44.3636 H   0  0  0  0  0  0  0  0  0  0  0  0
   57.7850   28.6080   42.4800 H   0  0  0  0  0  0  0  0  0  0  0  0
   56.9706   31.2133   46.3864 H   0  0  0  0  0  0  0  0  0  0  0  0
   57.9634   33.3485   47.0781 H   0  0  0  0  0  0  0  0  0  0  0  0
   58.9848   34.8215   45.3336 H   0  0  0  0  0  0  0  0  0  0  0  0
   58.9761   34.0990   42.9711 H   0  0  0  0  0  0  0  0  0  0  0  0
   57.9663   31.9327   42.2782 H   0  0  0  0  0  0  0  0  0  0  0  0
   57.8344   25.9077   46.4349 H   0  0  0  0  0  0  0  0  0  0  0  0
   58.8500   26.4064   48.6161 H   0  0  0  0  0  0  0  0  0  0  0  0
   60.2390   28.3260   50.0340 H   0  0  0  0  0  0  0  0  0  0  0  0
  1  2  1  0
  2  3  1  0
  3  4  1  0
  4  5  1  0
  5  6  2  3
  5  7  1  0
  7  8  1  0
  8  9  2  3
  8 10  1  0
 10 11  1  0
 11 12  1  0
 12 13  1  0
 13 14  2  0
 13 15  1  0
 15 16  2  0
 16 17  1  0
 17 18  2  0
 18 19  1  0
 19 20  1  0
 20 21  1  0
 21 22  1  0
 22 23  2  0
 22 24  2  0
 22 25  1  0
 25 26  2  0
 26 27  1  0
 27 28  2  0
 28 29  1  0
 29 30  2  0
 19 31  2  0
 31 32  1  0
 32 33  2  0
 33 34  1  0
 10  3  2  0
 34 15  1  0
 33 17  1  0
 30 25  1  0
  1 35  1  0
  1 36  1  0
  1 37  1  0
  2 38  1  0
  2 39  1  0
  4 40  1  0
  6 41  1  0
  7 42  1  0
  9 43  1  0
 11 44  1  0
 11 45  1  0
 12 46  1  0
 16 47  1  0
 18 48  1  0
 20 49  1  0
 20 50  1  0
 21 51  1  0
 26 52  1  0
 27 53  1  0
 28 54  1  0
 29 55  1  0
 30 56  1  0
 31 57  1  0
 32 58  1  0
 34 59  1  0
M  END
>  <smiles>  (89) 
CCc1[nH]c(=N)[nH]c(=N)c1CNC(=O)c1cc2cc(CNS(=O)(=O)c3ccccc3)ccc2[nH]1

>  <score_type>  (89) 
oracle

>  <origin>  (89) 
adg

>  <m_score__min__energy>  (89) 
-10.539999999999999

>  <m_primary>  (89) 
energy

$$$$
