0:0
     RDKit          3D

 45 47  0  0  0  0  0  0  0  0999 V2000
   59.5120   29.3160   49.0230 C   0  0  0  0  0  0  0  0  0  0  0  0
   59.5000   30.5470   48.3080 O   0  0  0  0  0  0  0  0  0  0  0  0
   60.6250   31.3620   48.1010 C   0  0  0  0  0  0  0  0  0  0  0  0
   61.9300   30.8990   48.3670 C   0  0  0  0  0  0  0  0  0  0  0  0
   63.0340   31.7230   48.1420 C   0  0  0  0  0  0  0  0  0  0  0  0
   62.8550   33.0130   47.6480 C   0  0  0  0  0  0  0  0  0  0  0  0
   61.5710   33.4880   47.3810 C   0  0  0  0  0  0  0  0  0  0  0  0
   60.4450   32.6770   47.6150 C   0  0  0  0  0  0  0  0  0  0  0  0
   59.0680   33.2270   47.3140 C   0  0  0  0  0  0  0  0  0  0  0  0
   58.5880   32.7980   45.9430 C   0  0  0  0  0  0  0  0  0  0  0  0
   58.0720   31.5030   45.7820 C   0  0  0  0  0  0  0  0  0  0  0  0
   57.6460   31.0560   44.5280 C   0  0  0  0  0  0  0  0  0  0  0  0
   56.9830   29.4300   44.3500 S   0  0  0  0  0  0  0  0  0  0  0  0
   56.9470   29.0330   42.9000 O   0  0  0  0  0  0  0  0  0  0  0  0
   55.5740   29.4000   44.8760 O   0  0  0  0  0  0  0  0  0  0  0  0
   57.9950   28.2960   45.2350 C   0  0  0  0  0  0  0  0  0  0  0  0
   57.4200   27.2670   45.9950 C   0  0  0  0  0  0  0  0  0  0  0  0
   58.2340   26.3830   46.7110 C   0  0  0  0  0  0  0  0  0  0  0  0
   59.6250   26.5250   46.6730 C   0  0  0  0  0  0  0  0  0  0  0  0
   60.2020   27.5540   45.9220 C   0  0  0  0  0  0  0  0  0  0  0  0
   59.3900   28.4390   45.2070 C   0  0  0  0  0  0  0  0  0  0  0  0
   57.7310   31.9270   43.4340 C   0  0  0  0  0  0  0  0  0  0  0  0
   57.3390   31.5560   42.2940 O   0  0  0  0  0  0  0  0  0  0  0  0
   58.2380   33.1790   43.5950 N   0  0  0  0  0  0  0  0  0  0  0  0
   58.6650   33.6420   44.8080 C   0  0  0  0  0  0  0  0  0  0  0  0
   59.2350   35.0330   44.8980 C   0  0  0  0  0  0  0  0  0  0  0  0
   59.5100   29.5198   50.1040 H   0  0  0  0  0  0  0  0  0  0  0  0
   58.6195   28.7298   48.7588 H   0  0  0  0  0  0  0  0  0  0  0  0
   60.4157   28.7473   48.7588 H   0  0  0  0  0  0  0  0  0  0  0  0
   62.0792   29.8805   48.7548 H   0  0  0  0  0  0  0  0  0  0  0  0
   64.0476   31.3528   48.3553 H   0  0  0  0  0  0  0  0  0  0  0  0
   63.7276   33.6582   47.4682 H   0  0  0  0  0  0  0  0  0  0  0  0
   61.4374   34.5052   46.9842 H   0  0  0  0  0  0  0  0  0  0  0  0
   58.3617   32.8576   48.0721 H   0  0  0  0  0  0  0  0  0  0  0  0
   59.1227   34.3255   47.3331 H   0  0  0  0  0  0  0  0  0  0  0  0
   58.0020   30.8328   46.6515 H   0  0  0  0  0  0  0  0  0  0  0  0
   56.3262   27.1548   46.0281 H   0  0  0  0  0  0  0  0  0  0  0  0
   57.7799   25.5757   47.3043 H   0  0  0  0  0  0  0  0  0  0  0  0
   60.2648   25.8276   47.2336 H   0  0  0  0  0  0  0  0  0  0  0  0
   61.2958   27.6670   45.8939 H   0  0  0  0  0  0  0  0  0  0  0  0
   59.8464   29.2501   44.6206 H   0  0  0  0  0  0  0  0  0  0  0  0
   58.2970   33.8010   42.7560 H   0  0  0  0  0  0  0  0  0  0  0  0
   59.3503   35.3143   45.9551 H   0  0  0  0  0  0  0  0  0  0  0  0
   60.2166   35.0598   44.4023 H   0  0  0  0  0  0  0  0  0  0  0  0
   58.5545   35.7409   44.4023 H   0  0  0  0  0  0  0  0  0  0  0  0
  1  2  1  0
  2  3  1  0
  3  4  2  0
  4  5  1  0
  5  6  2  0
  6  7  1  0
  7  8  2  0
  8  9  1  0
  9 10  1  0
 10 11  1  0
 11 12  2  0
 12 13  1  0
 13 14  2  0
 13 15  2  0
 13 16  1  0
 16 17  2  0
 17 18  1  0
 18 19  2  0
 19 20  1  0
 20 21  2  0
 12 22  1  0
 22 23  2  0
 22 24  1  0
 24 25  1  0
 25 26  1  0
  8  3  1  0
 25 10  2  0
 21 16  1  0
  1 27  1  0
  1 28  1  0
  1 29  1  0
  4 30  1  0
  5 31  1  0
  6 32  1  0
  7 33  1  0
  9 34  1  0
  9 35  1  0
 11 36  1  0
 17 37  1  0
 18 38  1  0
 19 39  1  0
 20 40  1  0
 21 41  1  0
 24 42  1  0
 26 43  1  0
 26 44  1  0
 26 45  1  0
M  END
>  <UniqueID>  (1) 
1

>  <SMILES>  (1) 
COc1ccccc1Cc1cc(S(=O)(=O)c2ccccc2)c(=O)[nH]c1C

>  <Energy>  (1) 
50.92990829617429

>  <Genealogy>  (1) 
COc1ccccc1Cc1cc(S(=O)(=O)c2ccccc2)c(=O)[nH]c1C (3D coordinates assigned)
COc1ccccc1Cc1cc(S(=O)(=O)c2ccccc2)c(=O)[nH]c1C (optimized conformer: 50.92990829617429 kcal/mol)

>  <smiles>  (1) 
COc1ccccc1Cc1cc(S(=O)(=O)c2ccccc2)c(=O)[nH]c1C

>  <score_type>  (1) 
oracle

>  <origin>  (1) 
adg

>  <m_score__min__energy>  (1) 
-8.7699999999999996

>  <m_primary>  (1) 
energy

$$$$
1:0
     RDKit          3D

 45 47  0  0  0  0  0  0  0  0999 V2000
   58.5050   27.1060   43.5170 C   0  0  0  0  0  0  0  0  0  0  0  0
   58.6700   27.1400   44.9680 N   0  0  0  0  0  0  0  0  0  0  0  0
   59.8340   27.0430   45.6310 C   0  0  0  0  0  0  0  0  0  0  0  0
   59.5670   27.1280   46.9770 C   0  0  0  0  0  0  0  0  0  0  0  0
   58.2400   27.2800   47.1660 N   0  0  0  0  0  0  0  0  0  0  0  0
   57.7160   27.2770   45.9210 C   0  0  0  0  0  0  0  0  0  0  0  0
   56.2700   27.4450   45.6460 C   0  0  0  0  0  0  0  0  0  0  0  0
   55.4750   26.5260   45.9780 O   0  0  0  0  0  0  0  0  0  0  0  0
   55.7280   28.6000   44.9860 N   0  0  0  0  0  0  0  0  0  0  0  0
   56.3670   29.4390   43.9730 C   0  0  0  0  0  0  0  0  0  0  0  0
   56.2820   30.9280   44.3420 C   0  0  0  0  0  0  0  0  0  0  0  0
   57.4750   31.3870   45.1370 C   0  0  0  0  0  0  0  0  0  0  0  0
   58.4070   30.4660   45.6340 C   0  0  0  0  0  0  0  0  0  0  0  0
   59.5320   30.9140   46.3280 C   0  0  0  0  0  0  0  0  0  0  0  0
   59.7290   32.2930   46.5170 C   0  0  0  0  0  0  0  0  0  0  0  0
   60.9010   32.7980   47.1930 N   0  0  0  0  0  0  0  0  0  0  0  0
   60.8530   34.1250   47.8290 C   0  0  0  0  0  0  0  0  0  0  0  0
   61.8220   34.1800   49.0140 C   0  0  0  0  0  0  0  0  0  0  0  0
   63.2690   33.8330   48.6100 C   0  0  0  0  0  0  0  0  0  0  0  0
   63.3670   33.0040   47.3180 C   0  0  0  0  0  0  0  0  0  0  0  0
   62.1740   32.0590   47.1450 C   0  0  0  0  0  0  0  0  0  0  0  0
   58.7970   33.1650   46.0410 N   0  0  0  0  0  0  0  0  0  0  0  0
   57.6890   32.7510   45.3710 C   0  0  0  0  0  0  0  0  0  0  0  0
   57.4546   26.8896   43.2724 H   0  0  0  0  0  0  0  0  0  0  0  0
   58.7868   28.0811   43.0930 H   0  0  0  0  0  0  0  0  0  0  0  0
   59.1493   26.3218   43.0930 H   0  0  0  0  0  0  0  0  0  0  0  0
   60.8277   26.9174   45.1763 H   0  0  0  0  0  0  0  0  0  0  0  0
   60.3201   27.0795   47.7773 H   0  0  0  0  0  0  0  0  0  0  0  0
   57.4253   29.1518   43.8863 H   0  0  0  0  0  0  0  0  0  0  0  0
   55.8418   29.2888   43.0182 H   0  0  0  0  0  0  0  0  0  0  0  0
   56.2246   31.5194   43.4163 H   0  0  0  0  0  0  0  0  0  0  0  0
   55.3866   31.0704   44.9649 H   0  0  0  0  0  0  0  0  0  0  0  0
   58.2517   29.3884   45.4769 H   0  0  0  0  0  0  0  0  0  0  0  0
   60.2606   30.1919   46.7250 H   0  0  0  0  0  0  0  0  0  0  0  0
   61.1362   34.8913   47.0924 H   0  0  0  0  0  0  0  0  0  0  0  0
   59.8316   34.3118   48.1921 H   0  0  0  0  0  0  0  0  0  0  0  0
   61.8073   35.1962   49.4349 H   0  0  0  0  0  0  0  0  0  0  0  0
   61.4922   33.4325   49.7505 H   0  0  0  0  0  0  0  0  0  0  0  0
   63.8235   34.7717   48.4635 H   0  0  0  0  0  0  0  0  0  0  0  0
   63.6909   33.2190   49.4193 H   0  0  0  0  0  0  0  0  0  0  0  0
   63.4031   33.6900   46.4588 H   0  0  0  0  0  0  0  0  0  0  0  0
   64.2779   32.3903   47.3788 H   0  0  0  0  0  0  0  0  0  0  0  0
   62.2572   31.5494   46.1737 H   0  0  0  0  0  0  0  0  0  0  0  0
   62.1850   31.3282   47.9671 H   0  0  0  0  0  0  0  0  0  0  0  0
   56.9579   33.4901   45.0114 H   0  0  0  0  0  0  0  0  0  0  0  0
  1  2  1  0
  2  3  1  0
  3  4  2  0
  4  5  1  0
  5  6  2  0
  6  7  1  0
  7  8  2  0
  7  9  1  0
  9 10  1  0
 10 11  1  0
 11 12  1  0
 12 13  2  0
 13 14  1  0
 14 15  2  0
 15 16  1  0
 16 17  1  0
 17 18  1  0
 18 19  1  0
 19 20  1  0
 20 21  1  0
 15 22  1  0
 22 23  2  0
  6  2  1  0
 23 12  1  0
 21 16  1  0
  1 24  1  0
  1 25  1  0
  1 26  1  0
  3 27  1  0
  4 28  1  0
 10 29  1  0
 10 30  1  0
 11 31  1  0
 11 32  1  0
 13 33  1  0
 14 34  1  0
 17 35  1  0
 17 36  1  0
 18 37  1  0
 18 38  1  0
 19 39  1  0
 19 40  1  0
 20 41  1  0
 20 42  1  0
 21 43  1  0
 21 44  1  0
 23 45  1  0
M  CHG  1   9  -1
M  END
>  <UniqueID>  (2) 
2

>  <SMILES>  (2) 
Cn1ccnc1C(=O)[N-]CCc1ccc(N2CCCCC2)nc1

>  <Energy>  (2) 
73.60192779387212

>  <Genealogy>  (2) 
Cn1ccnc1C(=O)[N-]CCc1ccc(N2CCCCC2)nc1 (protonated)
Cn1ccnc1C(=O)[N-]CCc1ccc(N2CCCCC2)nc1 (3D coordinates assigned)
Cn1ccnc1C(=O)[N-]CCc1ccc(N2CCCCC2)nc1 (nonaromatic ring conformer: 73.60192779387212 kcal/mol)

>  <smiles>  (2) 
Cn1ccnc1C(=O)NCCc1ccc(N2CCCCC2)nc1

>  <score_type>  (2) 
oracle

>  <origin>  (2) 
adg

>  <m_score__min__energy>  (2) 
-9.5

>  <m_primary>  (2) 
energy

$$$$
2:0
     RDKit          3D

 43 46  0  0  0  0  0  0  0  0999 V2000
   55.9470   29.1810   44.8770 O   0  0  0  0  0  0  0  0  0  0  0  0
   57.1920   29.3790   44.9210 C   0  0  0  0  0  0  0  0  0  0  0  0
   58.0970   28.2590   44.9740 N   0  0  0  0  0  0  0  0  0  0  0  0
   57.6780   26.8860   44.8820 C   0  0  0  0  0  0  0  0  0  0  0  0
   57.2370   26.2240   46.0370 C   0  0  0  0  0  0  0  0  0  0  0  0
   56.8500   24.8820   45.9810 C   0  0  0  0  0  0  0  0  0  0  0  0
   56.9110   24.1820   44.7690 C   0  0  0  0  0  0  0  0  0  0  0  0
   56.4520   22.4830   44.6850 S   0  0  0  0  0  0  0  0  0  0  0  0
   56.1250   22.0860   43.2720 O   0  0  0  0  0  0  0  0  0  0  0  0
   57.6010   21.6430   45.1690 O   0  0  0  0  0  0  0  0  0  0  0  0
   55.0710   22.1990   45.6950 N   0  0  0  0  0  0  0  0  0  0  0  0
   53.8910   22.6850   45.4550 C   0  0  0  0  0  0  0  0  0  0  0  0
   53.6890   23.5660   44.4360 N   0  0  0  0  0  0  0  0  0  0  0  0
   52.4560   24.0800   44.1870 C   0  0  0  0  0  0  0  0  0  0  0  0
   51.3740   23.7040   44.9810 C   0  0  0  0  0  0  0  0  0  0  0  0
   51.5960   22.8000   46.0200 C   0  0  0  0  0  0  0  0  0  0  0  0
   52.8440   22.3100   46.2370 N   0  0  0  0  0  0  0  0  0  0  0  0
   57.3770   24.8290   43.6190 C   0  0  0  0  0  0  0  0  0  0  0  0
   57.7640   26.1710   43.6730 C   0  0  0  0  0  0  0  0  0  0  0  0
   57.6950   30.7740   44.9220 C   0  0  0  0  0  0  0  0  0  0  0  0
   57.5940   31.5500   43.7530 C   0  0  0  0  0  0  0  0  0  0  0  0
   58.0570   32.8690   43.7290 C   0  0  0  0  0  0  0  0  0  0  0  0
   58.6190   33.4350   44.8750 C   0  0  0  0  0  0  0  0  0  0  0  0
   59.0680   34.7190   44.8530 N   0  0  0  0  0  0  0  0  0  0  0  0
   59.6140   35.3030   45.9530 C   0  0  0  0  0  0  0  0  0  0  0  0
   59.7240   34.5870   47.1470 C   0  0  0  0  0  0  0  0  0  0  0  0
   59.2720   33.2670   47.2020 C   0  0  0  0  0  0  0  0  0  0  0  0
   58.7140   32.6740   46.0610 C   0  0  0  0  0  0  0  0  0  0  0  0
   58.2490   31.3510   46.0810 C   0  0  0  0  0  0  0  0  0  0  0  0
   59.1130   28.4310   45.1370 H   0  0  0  0  0  0  0  0  0  0  0  0
   57.1953   26.7648   46.9940 H   0  0  0  0  0  0  0  0  0  0  0  0
   56.4967   24.3744   46.8907 H   0  0  0  0  0  0  0  0  0  0  0  0
   52.3121   24.7914   43.3604 H   0  0  0  0  0  0  0  0  0  0  0  0
   50.3692   24.1103   44.7929 H   0  0  0  0  0  0  0  0  0  0  0  0
   50.7611   22.4843   46.6629 H   0  0  0  0  0  0  0  0  0  0  0  0
   57.4390   24.2790   42.6684 H   0  0  0  0  0  0  0  0  0  0  0  0
   58.1373   26.6703   42.7667 H   0  0  0  0  0  0  0  0  0  0  0  0
   57.1458   31.1143   42.8479 H   0  0  0  0  0  0  0  0  0  0  0  0
   57.9784   33.4618   42.8058 H   0  0  0  0  0  0  0  0  0  0  0  0
   59.9701   36.3425   45.9022 H   0  0  0  0  0  0  0  0  0  0  0  0
   60.1636   35.0595   48.0378 H   0  0  0  0  0  0  0  0  0  0  0  0
   59.3535   32.6944   48.1376 H   0  0  0  0  0  0  0  0  0  0  0  0
   58.3174   30.7610   47.0068 H   0  0  0  0  0  0  0  0  0  0  0  0
  1  2  2  0
  2  3  1  0
  3  4  1  0
  4  5  2  0
  5  6  1  0
  6  7  2  0
  7  8  1  0
  8  9  2  0
  8 10  2  0
  8 11  1  0
 11 12  2  3
 12 13  1  0
 13 14  2  0
 14 15  1  0
 15 16  2  0
 16 17  1  0
  7 18  1  0
 18 19  2  0
  2 20  1  0
 20 21  2  0
 21 22  1  0
 22 23  2  0
 23 24  1  0
 24 25  2  0
 25 26  1  0
 26 27  2  0
 27 28  1  0
 28 29  2  0
 19  4  1  0
 29 20  1  0
 17 12  1  0
 28 23  1  0
  3 30  1  0
  5 31  1  0
  6 32  1  0
 14 33  1  0
 15 34  1  0
 16 35  1  0
 18 36  1  0
 19 37  1  0
 21 38  1  0
 22 39  1  0
 25 40  1  0
 26 41  1  0
 27 42  1  0
 29 43  1  0
M  CHG  1  17  -1
M  END
>  <UniqueID>  (3) 
3

>  <SMILES>  (3) 
O=C(Nc1ccc(S(=O)(=O)N=c2nccc[n-]2)cc1)c1ccc2ncccc2c1

>  <Energy>  (3) 
62.423093202807735

>  <Genealogy>  (3) 
O=C(Nc1ccc(S(=O)(=O)N=c2nccc[n-]2)cc1)c1ccc2ncccc2c1 (protonated)
O=C(Nc1ccc(S(=O)(=O)N=c2nccc[n-]2)cc1)c1ccc2ncccc2c1 (3D coordinates assigned)
O=C(Nc1ccc(S(=O)(=O)N=c2nccc[n-]2)cc1)c1ccc2ncccc2c1 (optimized conformer: 62.423093202807735 kcal/mol)

>  <smiles>  (3) 
O=C(Nc1ccc(S(=O)(=O)N=c2nccc[nH]2)cc1)c1ccc2ncccc2c1

>  <score_type>  (3) 
oracle

>  <origin>  (3) 
adg

>  <m_score__min__energy>  (3) 
-10.789999999999999

>  <m_primary>  (3) 
energy

$$$$
3:0
     RDKit          3D

 42 44  0  0  0  0  0  0  0  0999 V2000
   57.8070   34.7850   44.8430 O   0  0  0  0  0  0  0  0  0  0  0  0
   58.6610   34.2490   45.5990 C   0  0  0  0  0  0  0  0  0  0  0  0
   59.5610   35.1190   46.4230 C   0  0  0  0  0  0  0  0  0  0  0  0
   60.6040   34.2810   47.1090 C   0  0  0  0  0  0  0  0  0  0  0  0
   61.7550   33.8700   46.4150 C   0  0  0  0  0  0  0  0  0  0  0  0
   62.7060   33.0620   47.0460 C   0  0  0  0  0  0  0  0  0  0  0  0
   62.5130   32.6550   48.3690 C   0  0  0  0  0  0  0  0  0  0  0  0
   61.3660   33.0510   49.0620 C   0  0  0  0  0  0  0  0  0  0  0  0
   60.4120   33.8580   48.4350 C   0  0  0  0  0  0  0  0  0  0  0  0
   58.7180   32.8210   45.7450 N   0  0  0  0  0  0  0  0  0  0  0  0
   57.9960   31.8970   44.9130 C   0  0  0  0  0  0  0  0  0  0  0  0
   57.8300   32.1230   43.5360 C   0  0  0  0  0  0  0  0  0  0  0  0
   57.1370   31.2000   42.7500 C   0  0  0  0  0  0  0  0  0  0  0  0
   56.6240   30.0340   43.3230 C   0  0  0  0  0  0  0  0  0  0  0  0
   56.8180   29.7710   44.6840 C   0  0  0  0  0  0  0  0  0  0  0  0
   56.2820   28.5600   45.2380 N   0  0  0  0  0  0  0  0  0  0  0  0
   57.0230   27.5300   45.9060 C   0  0  0  0  0  0  0  0  0  0  0  0
   57.8900   27.8650   46.7570 O   0  0  0  0  0  0  0  0  0  0  0  0
   56.7800   26.0920   45.6510 C   0  0  0  0  0  0  0  0  0  0  0  0
   57.8720   25.2430   45.3960 C   0  0  0  0  0  0  0  0  0  0  0  0
   57.6670   23.8870   45.1280 C   0  0  0  0  0  0  0  0  0  0  0  0
   56.3730   23.3630   45.1230 C   0  0  0  0  0  0  0  0  0  0  0  0
   55.2820   24.1900   45.3980 C   0  0  0  0  0  0  0  0  0  0  0  0
   55.4780   25.5480   45.6720 C   0  0  0  0  0  0  0  0  0  0  0  0
   54.3790   26.3400   45.9830 O   0  0  0  0  0  0  0  0  0  0  0  0
   57.4920   30.7150   45.4790 C   0  0  0  0  0  0  0  0  0  0  0  0
   60.0558   35.8526   45.7696 H   0  0  0  0  0  0  0  0  0  0  0  0
   58.9606   35.6398   47.1834 H   0  0  0  0  0  0  0  0  0  0  0  0
   61.9082   34.1849   45.3722 H   0  0  0  0  0  0  0  0  0  0  0  0
   63.6074   32.7463   46.5002 H   0  0  0  0  0  0  0  0  0  0  0  0
   63.2642   32.0227   48.8649 H   0  0  0  0  0  0  0  0  0  0  0  0
   61.2135   32.7273   50.1022 H   0  0  0  0  0  0  0  0  0  0  0  0
   59.5076   34.1630   48.9819 H   0  0  0  0  0  0  0  0  0  0  0  0
   59.2420   32.4360   46.5620 H   0  0  0  0  0  0  0  0  0  0  0  0
   58.2476   33.0305   43.0755 H   0  0  0  0  0  0  0  0  0  0  0  0
   56.9947   31.3918   41.6762 H   0  0  0  0  0  0  0  0  0  0  0  0
   56.0648   29.3190   42.7016 H   0  0  0  0  0  0  0  0  0  0  0  0
   58.8942   25.6492   45.4076 H   0  0  0  0  0  0  0  0  0  0  0  0
   58.5260   23.2318   44.9208 H   0  0  0  0  0  0  0  0  0  0  0  0
   56.2127   22.2974   44.9022 H   0  0  0  0  0  0  0  0  0  0  0  0
   54.2644   23.7722   45.3992 H   0  0  0  0  0  0  0  0  0  0  0  0
   57.6256   30.5257   46.5543 H   0  0  0  0  0  0  0  0  0  0  0  0
  1  2  2  0
  2  3  1  0
  3  4  1  0
  4  5  2  0
  5  6  1  0
  6  7  2  0
  7  8  1  0
  8  9  2  0
  2 10  1  0
 10 11  1  0
 11 12  2  0
 12 13  1  0
 13 14  2  0
 14 15  1  0
 15 16  1  0
 16 17  1  0
 17 18  2  0
 17 19  1  0
 19 20  2  0
 20 21  1  0
 21 22  2  0
 22 23  1  0
 23 24  2  0
 24 25  1  0
 15 26  2  0
  9  4  1  0
 26 11  1  0
 24 19  1  0
  3 27  1  0
  3 28  1  0
  5 29  1  0
  6 30  1  0
  7 31  1  0
  8 32  1  0
  9 33  1  0
 10 34  1  0
 12 35  1  0
 13 36  1  0
 14 37  1  0
 20 38  1  0
 21 39  1  0
 22 40  1  0
 23 41  1  0
 26 42  1  0
M  CHG  2  16  -1  25  -1
M  END
>  <UniqueID>  (4) 
4

>  <SMILES>  (4) 
O=C(Cc1ccccc1)Nc1cccc([N-]C(=O)c2ccccc2[O-])c1

>  <Energy>  (4) 
54.142118196207704

>  <Genealogy>  (4) 
O=C(Cc1ccccc1)Nc1cccc([N-]C(=O)c2ccccc2[O-])c1 (protonated)
O=C(Cc1ccccc1)Nc1cccc([N-]C(=O)c2ccccc2[O-])c1 (3D coordinates assigned)
O=C(Cc1ccccc1)Nc1cccc([N-]C(=O)c2ccccc2[O-])c1 (optimized conformer: 54.142118196207704 kcal/mol)

>  <smiles>  (4) 
O=C(Cc1ccccc1)Nc1cccc(NC(=O)c2ccccc2O)c1

>  <score_type>  (4) 
oracle

>  <origin>  (4) 
adg

>  <m_score__min__energy>  (4) 
-14.880000000000001

>  <m_primary>  (4) 
energy

$$$$
4:0
     RDKit          3D

 82 86  0  0  0  0  0  0  0  0999 V2000
   62.5370   33.8870   48.0630 O   0  0  0  0  0  0  0  0  0  0  0  0
   61.9380   34.4000   49.0460 C   0  0  0  0  0  0  0  0  0  0  0  0
   60.4470   34.5090   49.0380 C   0  0  0  0  0  0  0  0  0  0  0  0
   59.9170   34.0560   47.7010 C   0  0  0  0  0  0  0  0  0  0  0  0
   59.2950   34.9720   46.8380 C   0  0  0  0  0  0  0  0  0  0  0  0
   58.7260   34.5320   45.6360 C   0  0  0  0  0  0  0  0  0  0  0  0
   58.7600   33.1770   45.2840 C   0  0  0  0  0  0  0  0  0  0  0  0
   58.0410   32.7610   44.1110 N   0  0  0  0  0  0  0  0  0  0  0  0
   57.6010   31.4400   43.7660 C   0  0  0  0  0  0  0  0  0  0  0  0
   57.2400   31.1740   42.5890 O   0  0  0  0  0  0  0  0  0  0  0  0
   57.5970   30.3790   44.8430 C   0  0  0  0  0  0  0  0  0  0  0  0
   58.9680   29.6560   44.8940 C   0  0  0  0  0  0  0  0  0  0  0  0
   58.9190   28.2930   44.1860 C   0  0  0  0  0  0  0  0  0  0  0  0
   57.9040   27.3770   44.7740 N   0  0  0  0  0  0  0  0  0  0  0  0
   58.6410   26.2170   45.8650 S   0  0  0  0  0  0  0  0  0  0  0  0
   57.9750   26.3120   47.2090 O   0  0  0  0  0  0  0  0  0  0  0  0
   60.1020   26.5460   46.0450 O   0  0  0  0  0  0  0  0  0  0  0  0
   58.4810   24.5660   45.2580 C   0  0  0  0  0  0  0  0  0  0  0  0
   59.4250   23.5940   45.6070 C   0  0  0  0  0  0  0  0  0  0  0  0
   59.2740   22.2770   45.1670 C   0  0  0  0  0  0  0  0  0  0  0  0
   58.1800   21.9210   44.3720 C   0  0  0  0  0  0  0  0  0  0  0  0
   57.2180   22.8870   44.0150 C   0  0  0  0  0  0  0  0  0  0  0  0
   56.0730   22.5110   43.2220 N   0  0  0  0  0  0  0  0  0  0  0  0
   54.9710   23.0730   43.3870 O   0  0  0  0  0  0  0  0  0  0  0  0
   56.1670   21.4820   42.3130 O   0  0  0  0  0  0  0  0  0  0  0  0
   57.3880   24.2140   44.4540 C   0  0  0  0  0  0  0  0  0  0  0  0
   56.7560   28.0550   45.4170 C   0  0  0  0  0  0  0  0  0  0  0  0
   56.4180   29.3760   44.7140 C   0  0  0  0  0  0  0  0  0  0  0  0
   59.3860   32.2590   46.1510 C   0  0  0  0  0  0  0  0  0  0  0  0
   59.9750   32.7010   47.3420 C   0  0  0  0  0  0  0  0  0  0  0  0
   62.6760   34.8410   50.1880 N   0  0  0  0  0  0  0  0  0  0  0  0
   63.8120   34.1120   50.7380 C   0  0  0  0  0  0  0  0  0  0  0  0
   63.4120   32.7030   51.1090 C   0  0  0  0  0  0  0  0  0  0  0  0
   63.4670   31.6880   50.1390 C   0  0  0  0  0  0  0  0  0  0  0  0
   63.1570   30.3690   50.4760 C   0  0  0  0  0  0  0  0  0  0  0  0
   62.7760   30.0430   51.7860 C   0  0  0  0  0  0  0  0  0  0  0  0
   62.5420   28.3490   52.2250 S   0  0  0  0  0  0  0  0  0  0  0  0
   63.8200   27.5670   52.0850 O   0  0  0  0  0  0  0  0  0  0  0  0
   62.0830   28.2750   53.6530 O   0  0  0  0  0  0  0  0  0  0  0  0
   61.3250   27.6510   51.2030 N   0  0  0  0  0  0  0  0  0  0  0  0
   60.4790   28.4000   50.3170 C   0  0  0  0  0  0  0  0  0  0  0  0
   60.4290   28.1290   48.9380 C   0  0  0  0  0  0  0  0  0  0  0  0
   59.6450   28.9160   48.0940 C   0  0  0  0  0  0  0  0  0  0  0  0
   58.9040   29.9800   48.6110 C   0  0  0  0  0  0  0  0  0  0  0  0
   58.9360   30.2570   49.9850 C   0  0  0  0  0  0  0  0  0  0  0  0
   58.1390   31.4070   50.5470 C   0  0  0  0  0  0  0  0  0  0  0  0
   56.9350   30.9440   51.1010 O   0  0  0  0  0  0  0  0  0  0  0  0
   59.7160   29.4530   50.8330 C   0  0  0  0  0  0  0  0  0  0  0  0
   62.6680   31.0560   52.7450 C   0  0  0  0  0  0  0  0  0  0  0  0
   62.9770   32.3800   52.4190 C   0  0  0  0  0  0  0  0  0  0  0  0
   62.8370   33.7000   53.8000 Br  0  0  0  0  0  0  0  0  0  0  0  0
   60.0287   33.8737   49.8326 H   0  0  0  0  0  0  0  0  0  0  0  0
   60.1549   35.5550   49.2129 H   0  0  0  0  0  0  0  0  0  0  0  0
   59.2543   36.0380   47.1064 H   0  0  0  0  0  0  0  0  0  0  0  0
   58.2478   35.2579   44.9620 H   0  0  0  0  0  0  0  0  0  0  0  0
   57.4365   30.8945   45.8014 H   0  0  0  0  0  0  0  0  0  0  0  0
   59.7222   30.2869   44.4008 H   0  0  0  0  0  0  0  0  0  0  0  0
   59.2261   29.4848   45.9495 H   0  0  0  0  0  0  0  0  0  0  0  0
   58.6743   28.4556   43.1260 H   0  0  0  0  0  0  0  0  0  0  0  0
   59.9044   27.8195   44.3078 H   0  0  0  0  0  0  0  0  0  0  0  0
   60.2891   23.8680   46.2301 H   0  0  0  0  0  0  0  0  0  0  0  0
   60.0184   21.5170   45.4469 H   0  0  0  0  0  0  0  0  0  0  0  0
   58.0700   20.8833   44.0241 H   0  0  0  0  0  0  0  0  0  0  0  0
   56.6560   24.9819   44.1632 H   0  0  0  0  0  0  0  0  0  0  0  0
   55.8792   27.3922   45.3734 H   0  0  0  0  0  0  0  0  0  0  0  0
   57.0265   28.2781   46.4596 H   0  0  0  0  0  0  0  0  0  0  0  0
   56.2246   29.1800   43.6490 H   0  0  0  0  0  0  0  0  0  0  0  0
   55.5264   29.8127   45.1877 H   0  0  0  0  0  0  0  0  0  0  0  0
   59.4120   31.1905   45.8909 H   0  0  0  0  0  0  0  0  0  0  0  0
   60.4858   31.9821   47.9995 H   0  0  0  0  0  0  0  0  0  0  0  0
   64.6147   34.0738   49.9869 H   0  0  0  0  0  0  0  0  0  0  0  0
   64.1612   34.6309   51.6429 H   0  0  0  0  0  0  0  0  0  0  0  0
   63.7564   31.9343   49.1067 H   0  0  0  0  0  0  0  0  0  0  0  0
   63.2118   29.5813   49.7101 H   0  0  0  0  0  0  0  0  0  0  0  0
   61.0107   27.2927   48.5229 H   0  0  0  0  0  0  0  0  0  0  0  0
   59.6106   28.6971   47.0165 H   0  0  0  0  0  0  0  0  0  0  0  0
   58.2941   30.6020   47.9394 H   0  0  0  0  0  0  0  0  0  0  0  0
   58.7284   31.9086   51.3287 H   0  0  0  0  0  0  0  0  0  0  0  0
   57.9098   32.1127   49.7349 H   0  0  0  0  0  0  0  0  0  0  0  0
   56.2320   31.5830   50.8180 H   0  0  0  0  0  0  0  0  0  0  0  0
   59.7269   29.6537   51.9145 H   0  0  0  0  0  0  0  0  0  0  0  0
   62.3371   30.8086   53.7644 H   0  0  0  0  0  0  0  0  0  0  0  0
  1  2  2  0
  2  3  1  0
  3  4  1  0
  4  5  2  0
  5  6  1  0
  6  7  2  0
  7  8  1  0
  8  9  1  0
  9 10  2  0
  9 11  1  0
 11 12  1  0
 12 13  1  0
 13 14  1  0
 14 15  1  0
 15 16  2  0
 15 17  2  0
 15 18  1  0
 18 19  2  0
 19 20  1  0
 20 21  2  0
 21 22  1  0
 22 23  1  0
 23 24  2  0
 23 25  1  0
 22 26  2  0
 14 27  1  0
 27 28  1  0
  7 29  1  0
 29 30  2  0
  2 31  1  0
 31 32  1  0
 32 33  1  0
 33 34  2  0
 34 35  1  0
 35 36  2  0
 36 37  1  0
 37 38  2  0
 37 39  2  0
 37 40  1  0
 40 41  1  0
 41 42  2  0
 42 43  1  0
 43 44  2  0
 44 45  1  0
 45 46  1  0
 46 47  1  0
 45 48  2  0
 36 49  1  0
 49 50  2  0
 50 51  1  0
 30  4  1  0
 50 33  1  0
 28 11  1  0
 48 41  1  0
 26 18  1  0
  3 52  1  0
  3 53  1  0
  5 54  1  0
  6 55  1  0
 11 56  1  0
 12 57  1  0
 12 58  1  0
 13 59  1  0
 13 60  1  0
 19 61  1  0
 20 62  1  0
 21 63  1  0
 26 64  1  0
 27 65  1  0
 27 66  1  0
 28 67  1  0
 28 68  1  0
 29 69  1  0
 30 70  1  0
 32 71  1  0
 32 72  1  0
 34 73  1  0
 35 74  1  0
 42 75  1  0
 43 76  1  0
 44 77  1  0
 46 78  1  0
 46 79  1  0
 47 80  1  0
 48 81  1  0
 49 82  1  0
M  CHG  5   8  -1  23   1  25  -1  31  -1  40  -1
M  END
>  <UniqueID>  (5) 
5

>  <SMILES>  (5) 
O=C(Cc1ccc([N-]C(=O)C2CCN(S(=O)(=O)c3cccc([N+](=O)[O-])c3)CC2)cc1)[N-]Cc1ccc(S(=O)(=O)[N-]c2cccc(CO)c2)cc1Br

>  <Energy>  (5) 
99.27219129844498

>  <Genealogy>  (5) 
O=C(Cc1ccc([N-]C(=O)C2CCN(S(=O)(=O)c3cccc([N+](=O)[O-])c3)CC2)cc1)[N-]Cc1ccc(S(=O)(=O)[N-]c2cccc(CO)c2)cc1Br (protonated)
O=C(Cc1ccc([N-]C(=O)C2CCN(S(=O)(=O)c3cccc([N+](=O)[O-])c3)CC2)cc1)[N-]Cc1ccc(S(=O)(=O)[N-]c2cccc(CO)c2)cc1Br (3D coordinates assigned)
O=C(Cc1ccc([N-]C(=O)C2CCN(S(=O)(=O)c3cccc([N+](=O)[O-])c3)CC2)cc1)[N-]Cc1ccc(S(=O)(=O)[N-]c2cccc(CO)c2)cc1Br (nonaromatic ring conformer: 99.27219129844498 kcal/mol)

>  <smiles>  (5) 
O=C(Cc1ccc(NC(=O)C2CCN(S(=O)(=O)c3cccc([N+](=O)[O-])c3)CC2)cc1)NCc1ccc(S(=O)(=O)Nc2cccc(CO)c2)cc1Br

>  <score_type>  (5) 
oracle

>  <origin>  (5) 
adg

>  <m_score__min__energy>  (5) 
-16.530000000000001

>  <m_primary>  (5) 
energy

$$$$
5:0
     RDKit          3D

 44 46  0  0  0  0  0  0  0  0999 V2000
   60.1980   29.3990   48.1270 C   0  0  0  0  0  0  0  0  0  0  0  0
   61.0310   30.3710   48.7510 O   0  0  0  0  0  0  0  0  0  0  0  0
   61.5320   31.5250   48.1250 C   0  0  0  0  0  0  0  0  0  0  0  0
   62.8800   31.5990   47.7140 C   0  0  0  0  0  0  0  0  0  0  0  0
   63.3710   32.7420   47.0860 C   0  0  0  0  0  0  0  0  0  0  0  0
   62.5300   33.8280   46.8570 C   0  0  0  0  0  0  0  0  0  0  0  0
   61.1960   33.7770   47.2570 C   0  0  0  0  0  0  0  0  0  0  0  0
   60.6750   32.6340   47.8970 C   0  0  0  0  0  0  0  0  0  0  0  0
   59.2450   32.6330   48.3180 C   0  0  0  0  0  0  0  0  0  0  0  0
   58.9200   33.1380   49.4280 O   0  0  0  0  0  0  0  0  0  0  0  0
   58.2450   32.0040   47.5060 N   0  0  0  0  0  0  0  0  0  0  0  0
   58.0740   32.1230   46.0850 C   0  0  0  0  0  0  0  0  0  0  0  0
   58.1410   33.3730   45.4460 C   0  0  0  0  0  0  0  0  0  0  0  0
   58.0740   33.4610   44.0540 C   0  0  0  0  0  0  0  0  0  0  0  0
   57.9670   32.3030   43.2690 C   0  0  0  0  0  0  0  0  0  0  0  0
   57.9120   32.4020   41.7940 C   0  0  0  0  0  0  0  0  0  0  0  0
   56.9830   31.8470   41.1490 O   0  0  0  0  0  0  0  0  0  0  0  0
   58.8870   33.1080   41.0990 O   0  0  0  0  0  0  0  0  0  0  0  0
   57.9220   31.0520   43.9070 C   0  0  0  0  0  0  0  0  0  0  0  0
   57.9540   30.9540   45.3030 C   0  0  0  0  0  0  0  0  0  0  0  0
   57.9180   29.6490   45.8980 N   0  0  0  0  0  0  0  0  0  0  0  0
   56.9310   28.6470   45.6210 C   0  0  0  0  0  0  0  0  0  0  0  0
   55.8500   28.9820   45.0620 O   0  0  0  0  0  0  0  0  0  0  0  0
   57.1670   27.2240   45.9770 C   0  0  0  0  0  0  0  0  0  0  0  0
   58.4890   26.7640   46.1390 C   0  0  0  0  0  0  0  0  0  0  0  0
   58.7470   25.4240   46.4380 C   0  0  0  0  0  0  0  0  0  0  0  0
   57.6910   24.5230   46.5830 C   0  0  0  0  0  0  0  0  0  0  0  0
   57.9500   23.1900   46.8770 O   0  0  0  0  0  0  0  0  0  0  0  0
   56.3740   24.9610   46.4320 C   0  0  0  0  0  0  0  0  0  0  0  0
   56.1040   26.3020   46.1320 C   0  0  0  0  0  0  0  0  0  0  0  0
   54.7770   26.6980   46.0010 O   0  0  0  0  0  0  0  0  0  0  0  0
   59.6878   28.8037   48.8986 H   0  0  0  0  0  0  0  0  0  0  0  0
   59.4494   29.9057   47.5002 H   0  0  0  0  0  0  0  0  0  0  0  0
   60.8134   28.7368   47.5002 H   0  0  0  0  0  0  0  0  0  0  0  0
   63.5505   30.7451   47.8913 H   0  0  0  0  0  0  0  0  0  0  0  0
   64.4240   32.7864   46.7709 H   0  0  0  0  0  0  0  0  0  0  0  0
   62.9195   34.7283   46.3592 H   0  0  0  0  0  0  0  0  0  0  0  0
   60.5405   34.6405   47.0708 H   0  0  0  0  0  0  0  0  0  0  0  0
   58.2470   34.2884   46.0466 H   0  0  0  0  0  0  0  0  0  0  0  0
   58.1054   34.4475   43.5683 H   0  0  0  0  0  0  0  0  0  0  0  0
   57.8607   30.1363   43.3007 H   0  0  0  0  0  0  0  0  0  0  0  0
   59.3271   27.4678   46.0288 H   0  0  0  0  0  0  0  0  0  0  0  0
   59.7842   25.0784   46.5594 H   0  0  0  0  0  0  0  0  0  0  0  0
   55.5439   24.2489   46.5493 H   0  0  0  0  0  0  0  0  0  0  0  0
  1  2  1  0
  2  3  1  0
  3  4  2  0
  4  5  1  0
  5  6  2  0
  6  7  1  0
  7  8  2  0
  8  9  1  0
  9 10  2  0
  9 11  1  0
 11 12  1  0
 12 13  2  0
 13 14  1  0
 14 15  2  0
 15 16  1  0
 16 17  2  0
 16 18  1  0
 15 19  1  0
 19 20  2  0
 20 21  1  0
 21 22  1  0
 22 23  2  0
 22 24  1  0
 24 25  2  0
 25 26  1  0
 26 27  2  0
 27 28  1  0
 27 29  1  0
 29 30  2  0
 30 31  1  0
  8  3  1  0
 20 12  1  0
 30 24  1  0
  1 32  1  0
  1 33  1  0
  1 34  1  0
  4 35  1  0
  5 36  1  0
  6 37  1  0
  7 38  1  0
 13 39  1  0
 14 40  1  0
 19 41  1  0
 25 42  1  0
 26 43  1  0
 29 44  1  0
M  CHG  5  11  -1  18  -1  21  -1  28  -1  31  -1
M  END
>  <UniqueID>  (6) 
6

>  <SMILES>  (6) 
COc1ccccc1C(=O)[N-]c1ccc(C(=O)[O-])cc1[N-]C(=O)c1ccc([O-])cc1[O-]

>  <Energy>  (6) 
59.66645180643399

>  <Genealogy>  (6) 
COc1ccccc1C(=O)[N-]c1ccc(C(=O)[O-])cc1[N-]C(=O)c1ccc([O-])cc1[O-] (protonated)
COc1ccccc1C(=O)[N-]c1ccc(C(=O)[O-])cc1[N-]C(=O)c1ccc([O-])cc1[O-] (3D coordinates assigned)
COc1ccccc1C(=O)[N-]c1ccc(C(=O)[O-])cc1[N-]C(=O)c1ccc([O-])cc1[O-] (optimized conformer: 59.66645180643399 kcal/mol)

>  <smiles>  (6) 
COc1ccccc1C(=O)Nc1ccc(C(=O)O)cc1NC(=O)c1ccc(O)cc1O

>  <score_type>  (6) 
oracle

>  <origin>  (6) 
adg

>  <m_score__min__energy>  (6) 
-17.289999999999999

>  <m_primary>  (6) 
energy

$$$$
6:0
     RDKit          3D

 34 35  0  0  0  0  0  0  0  0999 V2000
   55.5600   28.9680   44.9550 N   0  0  0  0  0  0  0  0  0  0  0  0
   56.6590   29.6580   43.8110 S   0  0  0  0  0  0  0  0  0  0  0  0
   55.8830   30.1200   42.6100 O   0  0  0  0  0  0  0  0  0  0  0  0
   57.6510   28.6070   43.3980 O   0  0  0  0  0  0  0  0  0  0  0  0
   57.5180   31.0300   44.5200 C   0  0  0  0  0  0  0  0  0  0  0  0
   57.7640   31.0580   45.9010 C   0  0  0  0  0  0  0  0  0  0  0  0
   58.4340   32.1370   46.4810 C   0  0  0  0  0  0  0  0  0  0  0  0
   58.8800   33.2030   45.6890 C   0  0  0  0  0  0  0  0  0  0  0  0
   59.5550   34.3920   46.3230 C   0  0  0  0  0  0  0  0  0  0  0  0
   60.6930   33.9570   47.2540 C   0  0  0  0  0  0  0  0  0  0  0  0
   60.2280   32.9750   48.2330 N   0  0  0  0  0  0  0  0  0  0  0  0
   59.5510   33.3510   49.4420 C   0  0  0  0  0  0  0  0  0  0  0  0
   59.5460   34.5580   49.8080 O   0  0  0  0  0  0  0  0  0  0  0  0
   58.8480   32.3330   50.2520 C   0  0  0  0  0  0  0  0  0  0  0  0
   58.2750   32.6560   51.4900 C   0  0  0  0  0  0  0  0  0  0  0  0
   57.6080   31.6690   52.2130 C   0  0  0  0  0  0  0  0  0  0  0  0
   57.5250   30.3820   51.6850 C   0  0  0  0  0  0  0  0  0  0  0  0
   56.9280   29.4710   52.3170 O   0  0  0  0  0  0  0  0  0  0  0  0
   58.0930   30.1140   50.4820 N   0  0  0  0  0  0  0  0  0  0  0  0
   58.7320   31.0580   49.7890 N   0  0  0  0  0  0  0  0  0  0  0  0
   58.6320   33.1830   44.3070 C   0  0  0  0  0  0  0  0  0  0  0  0
   57.9560   32.1080   43.7210 C   0  0  0  0  0  0  0  0  0  0  0  0
   57.6670   32.1560   41.9850 Cl  0  0  0  0  0  0  0  0  0  0  0  0
   54.6130   29.3490   44.7370 H   0  0  0  0  0  0  0  0  0  0  0  0
   57.4262   30.2228   46.5321 H   0  0  0  0  0  0  0  0  0  0  0  0
   58.6127   32.1501   47.5663 H   0  0  0  0  0  0  0  0  0  0  0  0
   59.9663   35.0349   45.5308 H   0  0  0  0  0  0  0  0  0  0  0  0
   58.8086   34.9374   46.9192 H   0  0  0  0  0  0  0  0  0  0  0  0
   61.4983   33.5104   46.6523 H   0  0  0  0  0  0  0  0  0  0  0  0
   61.0589   34.8423   47.7948 H   0  0  0  0  0  0  0  0  0  0  0  0
   60.3910   31.9640   48.0250 H   0  0  0  0  0  0  0  0  0  0  0  0
   58.3512   33.6790   51.8870 H   0  0  0  0  0  0  0  0  0  0  0  0
   57.1533   31.9025   53.1870 H   0  0  0  0  0  0  0  0  0  0  0  0
   58.9724   34.0201   43.6798 H   0  0  0  0  0  0  0  0  0  0  0  0
  1  2  1  0
  2  3  2  0
  2  4  2  0
  2  5  1  0
  5  6  2  0
  6  7  1  0
  7  8  2  0
  8  9  1  0
  9 10  1  0
 10 11  1  0
 11 12  1  0
 12 13  2  0
 12 14  1  0
 14 15  1  0
 15 16  2  0
 16 17  1  0
 17 18  2  0
 17 19  1  0
 19 20  1  0
  8 21  1  0
 21 22  2  0
 22 23  1  0
 22  5  1  0
 20 14  2  0
  1 24  1  0
  6 25  1  0
  7 26  1  0
  9 27  1  0
  9 28  1  0
 10 29  1  0
 10 30  1  0
 11 31  1  0
 15 32  1  0
 16 33  1  0
 21 34  1  0
M  CHG  2   1  -1  19  -1
M  END
>  <UniqueID>  (7) 
7

>  <SMILES>  (7) 
[NH-]S(=O)(=O)c1ccc(CCNC(=O)c2ccc(=O)[n-]n2)cc1Cl

>  <Energy>  (7) 
32.11616551462253

>  <Genealogy>  (7) 
[NH-]S(=O)(=O)c1ccc(CCNC(=O)c2ccc(=O)[n-]n2)cc1Cl (protonated)
[NH-]S(=O)(=O)c1ccc(CCNC(=O)c2ccc(=O)[n-]n2)cc1Cl (3D coordinates assigned)
[NH-]S(=O)(=O)c1ccc(CCNC(=O)c2ccc(=O)[n-]n2)cc1Cl (optimized conformer: 32.11616551462253 kcal/mol)

>  <smiles>  (7) 
NS(=O)(=O)c1ccc(CCNC(=O)c2ccc(=O)[nH]n2)cc1Cl

>  <score_type>  (7) 
oracle

>  <origin>  (7) 
adg

>  <m_score__min__energy>  (7) 
-12.26

>  <m_primary>  (7) 
energy

$$$$
7:0
     RDKit          3D

 47 49  0  0  0  0  0  0  0  0999 V2000
   55.5210   29.0360   45.2160 N   0  0  0  0  0  0  0  0  0  0  0  0
   56.4600   29.6520   43.9020 S   0  0  0  0  0  0  0  0  0  0  0  0
   55.5510   30.0820   42.7830 O   0  0  0  0  0  0  0  0  0  0  0  0
   57.3700   28.5680   43.3960 O   0  0  0  0  0  0  0  0  0  0  0  0
   57.4040   31.0340   44.4580 C   0  0  0  0  0  0  0  0  0  0  0  0
   57.6140   32.1380   43.6180 C   0  0  0  0  0  0  0  0  0  0  0  0
   58.3690   33.2240   44.0670 C   0  0  0  0  0  0  0  0  0  0  0  0
   58.9200   33.2130   45.3520 C   0  0  0  0  0  0  0  0  0  0  0  0
   58.7220   32.1070   46.1940 C   0  0  0  0  0  0  0  0  0  0  0  0
   59.3820   32.0910   47.8280 S   0  0  0  0  0  0  0  0  0  0  0  0
   60.1110   33.3840   48.0580 O   0  0  0  0  0  0  0  0  0  0  0  0
   58.2630   31.9940   48.8290 O   0  0  0  0  0  0  0  0  0  0  0  0
   60.4960   30.7570   48.0370 N   0  0  0  0  0  0  0  0  0  0  0  0
   60.8190   30.1040   46.7530 C   0  0  0  0  0  0  0  0  0  0  0  0
   59.7120   29.1470   46.2940 C   0  0  0  0  0  0  0  0  0  0  0  0
   59.3250   28.2310   47.3730 N   0  0  0  0  0  0  0  0  0  0  0  0
   58.4840   27.0960   47.0830 C   0  0  0  0  0  0  0  0  0  0  0  0
   58.4070   26.1460   47.9090 O   0  0  0  0  0  0  0  0  0  0  0  0
   57.7070   27.0500   45.8740 N   0  0  0  0  0  0  0  0  0  0  0  0
   57.2060   25.8370   45.2840 C   0  0  0  0  0  0  0  0  0  0  0  0
   56.3240   24.9890   45.9810 C   0  0  0  0  0  0  0  0  0  0  0  0
   55.8740   23.8010   45.3920 C   0  0  0  0  0  0  0  0  0  0  0  0
   56.3080   23.4460   44.1130 C   0  0  0  0  0  0  0  0  0  0  0  0
   57.2010   24.2700   43.4220 C   0  0  0  0  0  0  0  0  0  0  0  0
   57.6510   25.4580   44.0060 C   0  0  0  0  0  0  0  0  0  0  0  0
   59.9770   28.3590   48.6820 C   0  0  0  0  0  0  0  0  0  0  0  0
   60.0360   29.8350   49.1070 C   0  0  0  0  0  0  0  0  0  0  0  0
   57.9590   31.0220   45.7440 C   0  0  0  0  0  0  0  0  0  0  0  0
   54.5350   29.3520   45.0580 H   0  0  0  0  0  0  0  0  0  0  0  0
   57.1840   32.1483   42.6056 H   0  0  0  0  0  0  0  0  0  0  0  0
   58.5305   34.0899   43.4081 H   0  0  0  0  0  0  0  0  0  0  0  0
   59.5096   34.0723   45.7039 H   0  0  0  0  0  0  0  0  0  0  0  0
   60.9566   30.8802   45.9858 H   0  0  0  0  0  0  0  0  0  0  0  0
   61.7366   29.5145   46.8959 H   0  0  0  0  0  0  0  0  0  0  0  0
   58.8333   29.7341   45.9886 H   0  0  0  0  0  0  0  0  0  0  0  0
   60.0918   28.5523   45.4501 H   0  0  0  0  0  0  0  0  0  0  0  0
   57.4290   27.9550   45.4310 H   0  0  0  0  0  0  0  0  0  0  0  0
   55.9872   25.2609   46.9922 H   0  0  0  0  0  0  0  0  0  0  0  0
   55.1779   23.1467   45.9373 H   0  0  0  0  0  0  0  0  0  0  0  0
   55.9466   22.5166   43.6487 H   0  0  0  0  0  0  0  0  0  0  0  0
   57.5497   23.9838   42.4188 H   0  0  0  0  0  0  0  0  0  0  0  0
   58.3584   26.1006   43.4613 H   0  0  0  0  0  0  0  0  0  0  0  0
   59.4055   27.7889   49.4292 H   0  0  0  0  0  0  0  0  0  0  0  0
   61.0020   27.9660   48.6110 H   0  0  0  0  0  0  0  0  0  0  0  0
   59.0280   30.1448   49.4200 H   0  0  0  0  0  0  0  0  0  0  0  0
   60.7731   29.9012   49.9208 H   0  0  0  0  0  0  0  0  0  0  0  0
   57.7950   30.1569   46.4033 H   0  0  0  0  0  0  0  0  0  0  0  0
  1  2  1  0
  2  3  2  0
  2  4  2  0
  2  5  1  0
  5  6  2  0
  6  7  1  0
  7  8  2  0
  8  9  1  0
  9 10  1  0
 10 11  2  0
 10 12  2  0
 10 13  1  0
 13 14  1  0
 14 15  1  0
 15 16  1  0
 16 17  1  0
 17 18  2  0
 17 19  1  0
 19 20  1  0
 20 21  2  0
 21 22  1  0
 22 23  2  0
 23 24  1  0
 24 25  2  0
 16 26  1  0
 26 27  1  0
  9 28  2  0
 28  5  1  0
 27 13  1  0
 25 20  1  0
  1 29  1  0
  6 30  1  0
  7 31  1  0
  8 32  1  0
 14 33  1  0
 14 34  1  0
 15 35  1  0
 15 36  1  0
 19 37  1  0
 21 38  1  0
 22 39  1  0
 23 40  1  0
 24 41  1  0
 25 42  1  0
 26 43  1  0
 26 44  1  0
 27 45  1  0
 27 46  1  0
 28 47  1  0
M  CHG  1   1  -1
M  END
>  <UniqueID>  (8) 
8

>  <SMILES>  (8) 
[NH-]S(=O)(=O)c1cccc(S(=O)(=O)N2CCN(C(=O)Nc3ccccc3)CC2)c1

>  <Energy>  (8) 
58.82315343892422

>  <Genealogy>  (8) 
[NH-]S(=O)(=O)c1cccc(S(=O)(=O)N2CCN(C(=O)Nc3ccccc3)CC2)c1 (protonated)
[NH-]S(=O)(=O)c1cccc(S(=O)(=O)N2CCN(C(=O)Nc3ccccc3)CC2)c1 (3D coordinates assigned)
[NH-]S(=O)(=O)c1cccc(S(=O)(=O)N2CCN(C(=O)Nc3ccccc3)CC2)c1 (nonaromatic ring conformer: 58.82315343892422 kcal/mol)

>  <smiles>  (8) 
NS(=O)(=O)c1cccc(S(=O)(=O)N2CCN(C(=O)Nc3ccccc3)CC2)c1

>  <score_type>  (8) 
oracle

>  <origin>  (8) 
adg

>  <m_score__min__energy>  (8) 
-11.52

>  <m_primary>  (8) 
energy

$$$$
8:0
     RDKit          3D

 42 44  0  0  0  0  0  0  0  0999 V2000
   53.3270   24.3280   45.7680 N   0  0  0  0  0  0  0  0  0  0  0  0
   54.0200   23.0580   45.5670 C   0  0  0  0  0  0  0  0  0  0  0  0
   55.4810   23.1670   45.9980 C   0  0  0  0  0  0  0  0  0  0  0  0
   55.6670   24.3310   46.8530 N   0  0  0  0  0  0  0  0  0  0  0  0
   55.8950   25.6470   46.3370 C   0  0  0  0  0  0  0  0  0  0  0  0
   54.9120   26.3610   45.9940 O   0  0  0  0  0  0  0  0  0  0  0  0
   57.2750   26.1700   46.2090 C   0  0  0  0  0  0  0  0  0  0  0  0
   58.3540   25.4970   46.8100 C   0  0  0  0  0  0  0  0  0  0  0  0
   59.6550   25.9850   46.6760 C   0  0  0  0  0  0  0  0  0  0  0  0
   59.8970   27.1530   45.9520 C   0  0  0  0  0  0  0  0  0  0  0  0
   58.8360   27.8550   45.3630 C   0  0  0  0  0  0  0  0  0  0  0  0
   59.1100   29.0480   44.6080 N   0  0  0  0  0  0  0  0  0  0  0  0
   58.8730   30.3750   45.1140 C   0  0  0  0  0  0  0  0  0  0  0  0
   59.8710   31.0130   45.7840 N   0  0  0  0  0  0  0  0  0  0  0  0
   59.7230   32.2450   46.3280 C   0  0  0  0  0  0  0  0  0  0  0  0
   60.7910   32.8400   47.0120 C   0  0  0  0  0  0  0  0  0  0  0  0
   61.9770   32.1890   47.1300 F   0  0  0  0  0  0  0  0  0  0  0  0
   60.6400   34.1080   47.5800 C   0  0  0  0  0  0  0  0  0  0  0  0
   59.4230   34.7860   47.4680 C   0  0  0  0  0  0  0  0  0  0  0  0
   58.3520   34.2010   46.7870 C   0  0  0  0  0  0  0  0  0  0  0  0
   58.4910   32.9230   46.2110 C   0  0  0  0  0  0  0  0  0  0  0  0
   57.4380   32.3010   45.5150 C   0  0  0  0  0  0  0  0  0  0  0  0
   56.3310   32.8930   45.3870 O   0  0  0  0  0  0  0  0  0  0  0  0
   57.6230   31.0210   44.9470 C   0  0  0  0  0  0  0  0  0  0  0  0
   56.5040   30.3790   44.2230 C   0  0  0  0  0  0  0  0  0  0  0  0
   55.5940   29.7890   44.8630 O   0  0  0  0  0  0  0  0  0  0  0  0
   56.4090   30.4730   42.8400 O   0  0  0  0  0  0  0  0  0  0  0  0
   57.5290   27.3460   45.4780 C   0  0  0  0  0  0  0  0  0  0  0  0
   53.6700   24.7520   46.6600 H   0  0  0  0  0  0  0  0  0  0  0  0
   53.6230   24.9760   45.0020 H   0  0  0  0  0  0  0  0  0  0  0  0
   53.5246   22.2778   46.1636 H   0  0  0  0  0  0  0  0  0  0  0  0
   53.9845   22.8007   44.4981 H   0  0  0  0  0  0  0  0  0  0  0  0
   55.7652   22.2601   46.5518 H   0  0  0  0  0  0  0  0  0  0  0  0
   56.1123   23.2738   45.1036 H   0  0  0  0  0  0  0  0  0  0  0  0
   58.1714   24.5800   47.3895 H   0  0  0  0  0  0  0  0  0  0  0  0
   60.4928   25.4466   47.1431 H   0  0  0  0  0  0  0  0  0  0  0  0
   60.9263   27.5252   45.8427 H   0  0  0  0  0  0  0  0  0  0  0  0
   59.5980   28.9260   43.6940 H   0  0  0  0  0  0  0  0  0  0  0  0
   61.4804   34.5731   48.1161 H   0  0  0  0  0  0  0  0  0  0  0  0
   59.3078   35.7834   47.9174 H   0  0  0  0  0  0  0  0  0  0  0  0
   57.3972   34.7403   46.7005 H   0  0  0  0  0  0  0  0  0  0  0  0
   56.6957   27.8735   44.9908 H   0  0  0  0  0  0  0  0  0  0  0  0
  1  2  1  0
  2  3  1  0
  3  4  1  0
  4  5  1  0
  5  6  2  0
  5  7  1  0
  7  8  2  0
  8  9  1  0
  9 10  2  0
 10 11  1  0
 11 12  1  0
 12 13  1  0
 13 14  1  0
 14 15  1  0
 15 16  2  0
 16 17  1  0
 16 18  1  0
 18 19  2  0
 19 20  1  0
 20 21  2  0
 21 22  1  0
 22 23  2  0
 22 24  1  0
 24 25  1  0
 25 26  2  0
 25 27  1  0
 11 28  2  0
 28  7  1  0
 24 13  2  0
 21 15  1  0
  1 29  1  0
  1 30  1  0
  2 31  1  0
  2 32  1  0
  3 33  1  0
  3 34  1  0
  8 35  1  0
  9 36  1  0
 10 37  1  0
 12 38  1  0
 18 39  1  0
 19 40  1  0
 20 41  1  0
 28 42  1  0
M  CHG  3   4  -1  14  -1  27  -1
M  END
>  <UniqueID>  (9) 
9

>  <SMILES>  (9) 
NCC[N-]C(=O)c1cccc(Nc2[n-]c3c(F)cccc3c(=O)c2C(=O)[O-])c1

>  <Energy>  (9) 
56.65297999798774

>  <Genealogy>  (9) 
NCC[N-]C(=O)c1cccc(Nc2[n-]c3c(F)cccc3c(=O)c2C(=O)[O-])c1 (protonated)
NCC[N-]C(=O)c1cccc(Nc2[n-]c3c(F)cccc3c(=O)c2C(=O)[O-])c1 (3D coordinates assigned)
NCC[N-]C(=O)c1cccc(Nc2[n-]c3c(F)cccc3c(=O)c2C(=O)[O-])c1 (optimized conformer: 56.65297999798774 kcal/mol)

>  <smiles>  (9) 
NCCNC(=O)c1cccc(Nc2[nH]c3c(F)cccc3c(=O)c2C(=O)O)c1

>  <score_type>  (9) 
oracle

>  <origin>  (9) 
adg

>  <m_score__min__energy>  (9) 
-12.99

>  <m_primary>  (9) 
energy

$$$$
9:0
     RDKit          3D

 31 32  0  0  0  0  0  0  0  0999 V2000
   55.7380   27.4820   46.3170 H   0  0  0  0  0  0  0  0  0  0  0  0
   55.1490   26.7200   46.0020 O   0  0  0  0  0  0  0  0  0  0  0  0
   55.6790   25.4850   45.6330 C   0  0  0  0  0  0  0  0  0  0  0  0
   54.8050   24.4280   45.3490 C   0  0  0  0  0  0  0  0  0  0  0  0
   53.7182   24.5973   45.3652 H   0  0  0  0  0  0  0  0  0  0  0  0
   55.3050   23.1630   45.0460 C   0  0  0  0  0  0  0  0  0  0  0  0
   54.6190   22.3335   44.8196 H   0  0  0  0  0  0  0  0  0  0  0  0
   56.6810   22.9610   45.0330 C   0  0  0  0  0  0  0  0  0  0  0  0
   57.0881   21.9645   44.8065 H   0  0  0  0  0  0  0  0  0  0  0  0
   57.5230   23.9940   45.3000 N   0  0  0  0  0  0  0  0  0  0  0  0
   57.0800   25.2510   45.5790 C   0  0  0  0  0  0  0  0  0  0  0  0
   57.9800   26.1620   45.8320 N   0  0  0  0  0  0  0  0  0  0  0  0
   57.8880   27.5860   45.6800 C   0  0  0  0  0  0  0  0  0  0  0  0
   57.6760   28.3190   46.6830 O   0  0  0  0  0  0  0  0  0  0  0  0
   57.8830   28.1910   44.3100 C   0  0  0  0  0  0  0  0  0  0  0  0
   58.8933   28.5586   44.0770 H   0  0  0  0  0  0  0  0  0  0  0  0
   57.5742   27.4183   43.5906 H   0  0  0  0  0  0  0  0  0  0  0  0
   56.7300   29.5520   44.2050 S   0  0  0  0  0  0  0  0  0  0  0  0
   55.5480   29.2780   45.0910 O   0  0  0  0  0  0  0  0  0  0  0  0
   56.2500   29.6770   42.7850 O   0  0  0  0  0  0  0  0  0  0  0  0
   57.5030   31.0510   44.7180 C   0  0  0  0  0  0  0  0  0  0  0  0
   58.1610   31.1330   45.9540 C   0  0  0  0  0  0  0  0  0  0  0  0
   58.2241   30.2462   46.6017 H   0  0  0  0  0  0  0  0  0  0  0  0
   58.7370   32.3390   46.3650 C   0  0  0  0  0  0  0  0  0  0  0  0
   59.2502   32.4002   47.3360 H   0  0  0  0  0  0  0  0  0  0  0  0
   58.6610   33.4680   45.5420 C   0  0  0  0  0  0  0  0  0  0  0  0
   59.1133   34.4169   45.8660 H   0  0  0  0  0  0  0  0  0  0  0  0
   58.0100   33.3890   44.3080 C   0  0  0  0  0  0  0  0  0  0  0  0
   57.9529   34.2760   43.6600 H   0  0  0  0  0  0  0  0  0  0  0  0
   57.4310   32.1850   43.8950 C   0  0  0  0  0  0  0  0  0  0  0  0
   56.9184   32.1269   42.9235 H   0  0  0  0  0  0  0  0  0  0  0  0
  1  2  1  0
  2  3  1  0
  3  4  2  0
  4  5  1  0
  4  6  1  0
  6  7  1  0
  6  8  2  0
  8  9  1  0
  8 10  1  0
 10 11  1  0
 11 12  2  0
 12 13  1  0
 13 14  2  0
 13 15  1  0
 15 16  1  0
 15 17  1  0
 15 18  1  0
 18 19  2  0
 18 20  2  0
 18 21  1  0
 21 22  2  0
 22 23  1  0
 22 24  1  0
 24 25  1  0
 24 26  2  0
 26 27  1  0
 26 28  1  0
 28 29  1  0
 28 30  2  0
 30 31  1  0
 11  3  1  0
 30 21  1  0
M  CHG  1  10  -1
M  END
>  <UniqueID>  (10) 
10

>  <SMILES>  (10) 
O=C(CS(=O)(=O)c1ccccc1)/N=c1/[n-]cccc1O

>  <Energy>  (10) 
37.33433436582091

>  <Genealogy>  (10) 
O=C(CS(=O)(=O)c1ccccc1)N=c1[n-]cccc1O (protonated)
O=C(CS(=O)(=O)c1ccccc1)/N=c1/[n-]cccc1O (cis-trans isomerization)
O=C(CS(=O)(=O)c1ccccc1)/N=c1/[n-]cccc1O (3D coordinates assigned)
O=C(CS(=O)(=O)c1ccccc1)/N=c1/[n-]cccc1O (optimized conformer: 37.33433436582091 kcal/mol)

>  <smiles>  (10) 
O=C(CS(=O)(=O)c1ccccc1)N=c1[nH]cccc1O

>  <score_type>  (10) 
oracle

>  <origin>  (10) 
adg

>  <m_score__min__energy>  (10) 
-10.59

>  <m_primary>  (10) 
energy

$$$$
10:0
     RDKit          3D

 61 64  0  0  0  0  0  0  0  0999 V2000
   55.5150   29.1680   44.8530 N   0  0  0  0  0  0  0  0  0  0  0  0
   57.2330   29.2450   45.0470 S   0  0  0  0  0  0  0  0  0  0  0  0
   57.5640   28.7650   46.4330 O   0  0  0  0  0  0  0  0  0  0  0  0
   57.8840   28.3440   44.0330 O   0  0  0  0  0  0  0  0  0  0  0  0
   57.8030   30.9110   44.8280 C   0  0  0  0  0  0  0  0  0  0  0  0
   57.4340   31.5960   43.6590 C   0  0  0  0  0  0  0  0  0  0  0  0
   57.7830   32.9350   43.4750 C   0  0  0  0  0  0  0  0  0  0  0  0
   58.4980   33.6110   44.4600 C   0  0  0  0  0  0  0  0  0  0  0  0
   58.8850   32.9460   45.6230 C   0  0  0  0  0  0  0  0  0  0  0  0
   58.5700   31.5890   45.8130 C   0  0  0  0  0  0  0  0  0  0  0  0
   59.0730   30.9220   47.0350 C   0  0  0  0  0  0  0  0  0  0  0  0
   60.1640   30.0390   46.9720 C   0  0  0  0  0  0  0  0  0  0  0  0
   60.6840   29.4730   48.1400 C   0  0  0  0  0  0  0  0  0  0  0  0
   60.1420   29.8120   49.3940 C   0  0  0  0  0  0  0  0  0  0  0  0
   60.6730   29.3450   50.6060 O   0  0  0  0  0  0  0  0  0  0  0  0
   62.0610   29.1970   50.9020 C   0  0  0  0  0  0  0  0  0  0  0  0
   62.5650   30.4390   51.6500 C   0  0  0  0  0  0  0  0  0  0  0  0
   64.0100   30.2820   52.1680 C   0  0  0  0  0  0  0  0  0  0  0  0
   65.0120   30.7150   51.1750 N   0  0  0  0  0  0  0  0  0  0  0  0
   65.6440   31.9430   51.6020 C   0  0  0  0  0  0  0  0  0  0  0  0
   66.1230   32.0550   52.9210 C   0  0  0  0  0  0  0  0  0  0  0  0
   66.7260   33.2330   53.3600 C   0  0  0  0  0  0  0  0  0  0  0  0
   66.8720   34.3110   52.4860 C   0  0  0  0  0  0  0  0  0  0  0  0
   66.4170   34.2150   51.1710 C   0  0  0  0  0  0  0  0  0  0  0  0
   65.7940   33.0410   50.7140 C   0  0  0  0  0  0  0  0  0  0  0  0
   65.3850   32.9360   49.3370 N   0  0  0  0  0  0  0  0  0  0  0  0
   64.0310   33.0960   48.8780 C   0  0  0  0  0  0  0  0  0  0  0  0
   63.6610   32.7900   47.5550 C   0  0  0  0  0  0  0  0  0  0  0  0
   62.3420   32.9770   47.1290 C   0  0  0  0  0  0  0  0  0  0  0  0
   61.3850   33.4850   48.0120 C   0  0  0  0  0  0  0  0  0  0  0  0
   61.7490   33.8140   49.3200 C   0  0  0  0  0  0  0  0  0  0  0  0
   63.0650   33.6200   49.7530 C   0  0  0  0  0  0  0  0  0  0  0  0
   59.0430   30.6770   49.4520 C   0  0  0  0  0  0  0  0  0  0  0  0
   58.5160   31.2340   48.2850 C   0  0  0  0  0  0  0  0  0  0  0  0
   55.1410   28.5820   45.6340 H   0  0  0  0  0  0  0  0  0  0  0  0
   56.8631   31.0711   42.8789 H   0  0  0  0  0  0  0  0  0  0  0  0
   57.4929   33.4565   42.5510 H   0  0  0  0  0  0  0  0  0  0  0  0
   58.7579   34.6707   44.3207 H   0  0  0  0  0  0  0  0  0  0  0  0
   59.4428   33.4890   46.4002 H   0  0  0  0  0  0  0  0  0  0  0  0
   60.6117   29.7915   45.9982 H   0  0  0  0  0  0  0  0  0  0  0  0
   61.5196   28.7603   48.0787 H   0  0  0  0  0  0  0  0  0  0  0  0
   62.2080   28.3066   51.5309 H   0  0  0  0  0  0  0  0  0  0  0  0
   62.6238   29.0831   49.9637 H   0  0  0  0  0  0  0  0  0  0  0  0
   62.5288   31.2996   50.9659 H   0  0  0  0  0  0  0  0  0  0  0  0
   61.9144   30.5844   52.5250 H   0  0  0  0  0  0  0  0  0  0  0  0
   64.1277   30.8899   53.0772 H   0  0  0  0  0  0  0  0  0  0  0  0
   64.1794   29.2146   52.3730 H   0  0  0  0  0  0  0  0  0  0  0  0
   65.7430   29.9910   51.0250 H   0  0  0  0  0  0  0  0  0  0  0  0
   64.5380   30.8630   50.2530 H   0  0  0  0  0  0  0  0  0  0  0  0
   66.0206   31.2051   53.6118 H   0  0  0  0  0  0  0  0  0  0  0  0
   67.0869   33.3127   54.3961 H   0  0  0  0  0  0  0  0  0  0  0  0
   67.3474   35.2394   52.8352 H   0  0  0  0  0  0  0  0  0  0  0  0
   66.5469   35.0655   50.4857 H   0  0  0  0  0  0  0  0  0  0  0  0
   66.1210   32.7610   48.6150 H   0  0  0  0  0  0  0  0  0  0  0  0
   64.4131   32.4018   46.8524 H   0  0  0  0  0  0  0  0  0  0  0  0
   62.0573   32.7238   46.0971 H   0  0  0  0  0  0  0  0  0  0  0  0
   60.3466   33.6256   47.6774 H   0  0  0  0  0  0  0  0  0  0  0  0
   60.9991   34.2265   50.0110 H   0  0  0  0  0  0  0  0  0  0  0  0
   63.3450   33.8793   50.7847 H   0  0  0  0  0  0  0  0  0  0  0  0
   58.5908   30.9200   50.4249 H   0  0  0  0  0  0  0  0  0  0  0  0
   57.6593   31.9213   48.3457 H   0  0  0  0  0  0  0  0  0  0  0  0
  1  2  1  0
  2  3  2  0
  2  4  2  0
  2  5  1  0
  5  6  2  0
  6  7  1  0
  7  8  2  0
  8  9  1  0
  9 10  2  0
 10 11  1  0
 11 12  2  0
 12 13  1  0
 13 14  2  0
 14 15  1  0
 15 16  1  0
 16 17  1  0
 17 18  1  0
 18 19  1  0
 19 20  1  0
 20 21  2  0
 21 22  1  0
 22 23  2  0
 23 24  1  0
 24 25  2  0
 25 26  1  0
 26 27  1  0
 27 28  2  0
 28 29  1  0
 29 30  2  0
 30 31  1  0
 31 32  2  0
 14 33  1  0
 33 34  2  0
 10  5  1  0
 34 11  1  0
 25 20  1  0
 32 27  1  0
  1 35  1  0
  6 36  1  0
  7 37  1  0
  8 38  1  0
  9 39  1  0
 12 40  1  0
 13 41  1  0
 16 42  1  0
 16 43  1  0
 17 44  1  0
 17 45  1  0
 18 46  1  0
 18 47  1  0
 19 48  1  0
 19 49  1  0
 21 50  1  0
 22 51  1  0
 23 52  1  0
 24 53  1  0
 26 54  1  0
 28 55  1  0
 29 56  1  0
 30 57  1  0
 31 58  1  0
 32 59  1  0
 33 60  1  0
 34 61  1  0
M  CHG  2   1  -1  19   1
M  END
>  <UniqueID>  (11) 
11

>  <SMILES>  (11) 
[NH-]S(=O)(=O)c1ccccc1-c1ccc(OCCC[NH2+]c2ccccc2Nc2ccccc2)cc1

>  <Energy>  (11) 
74.8078327679438

>  <Genealogy>  (11) 
[NH-]S(=O)(=O)c1ccccc1-c1ccc(OCCC[NH2+]c2ccccc2Nc2ccccc2)cc1 (protonated)
[NH-]S(=O)(=O)c1ccccc1-c1ccc(OCCC[NH2+]c2ccccc2Nc2ccccc2)cc1 (3D coordinates assigned)
[NH-]S(=O)(=O)c1ccccc1-c1ccc(OCCC[NH2+]c2ccccc2Nc2ccccc2)cc1 (optimized conformer: 74.8078327679438 kcal/mol)

>  <smiles>  (11) 
NS(=O)(=O)c1ccccc1-c1ccc(OCCCNc2ccccc2Nc2ccccc2)cc1

>  <score_type>  (11) 
oracle

>  <origin>  (11) 
adg

>  <m_score__min__energy>  (11) 
-10.56

>  <m_primary>  (11) 
energy

$$$$
11:0
     RDKit          3D

 47 50  0  0  0  0  0  0  0  0999 V2000
   55.5330   26.6690   46.2820 O   0  0  0  0  0  0  0  0  0  0  0  0
   56.6160   26.5830   45.6410 C   0  0  0  0  0  0  0  0  0  0  0  0
   57.0950   25.2410   45.2480 C   0  0  0  0  0  0  0  0  0  0  0  0
   56.5090   24.4390   44.2700 C   0  0  0  0  0  0  0  0  0  0  0  0
   57.1900   23.2350   44.0500 C   0  0  0  0  0  0  0  0  0  0  0  0
   58.3290   23.1000   44.8340 C   0  0  0  0  0  0  0  0  0  0  0  0
   59.2260   21.9050   44.8750 C   0  0  0  0  0  0  0  0  0  0  0  0
   60.3900   22.2030   45.5960 O   0  0  0  0  0  0  0  0  0  0  0  0
   58.4740   24.4560   45.8160 S   0  0  0  0  0  0  0  0  0  0  0  0
   57.3350   27.7870   45.3120 N   0  0  0  0  0  0  0  0  0  0  0  0
   56.7170   28.9650   44.7140 C   0  0  0  0  0  0  0  0  0  0  0  0
   57.8600   29.7710   44.1040 C   0  0  0  0  0  0  0  0  0  0  0  0
   59.1520   29.2100   44.7200 C   0  0  2  0  0  0  0  0  0  0  0  0
   58.7910   27.8170   45.2140 C   0  0  1  0  0  0  0  0  0  0  0  0
   59.4690   27.6760   46.5700 C   0  0  0  0  0  0  0  0  0  0  0  0
   60.4000   28.8740   46.6410 C   0  0  0  0  0  0  0  0  0  0  0  0
   59.7630   29.9510   45.8610 N   0  0  2  0  0  0  0  0  0  0  0  0
   58.8370   30.7280   46.7410 C   0  0  0  0  0  0  0  0  0  0  0  0
   58.8320   32.2160   46.4570 C   0  0  0  0  0  0  0  0  0  0  0  0
   57.8030   32.8000   45.6960 C   0  0  0  0  0  0  0  0  0  0  0  0
   57.8320   34.1660   45.3970 C   0  0  0  0  0  0  0  0  0  0  0  0
   58.8980   34.9570   45.8320 C   0  0  0  0  0  0  0  0  0  0  0  0
   59.9440   34.3800   46.5540 C   0  0  0  0  0  0  0  0  0  0  0  0
   59.9220   33.0150   46.8540 C   0  0  0  0  0  0  0  0  0  0  0  0
   55.5983   24.7245   43.7230 H   0  0  0  0  0  0  0  0  0  0  0  0
   56.8568   22.4735   43.3295 H   0  0  0  0  0  0  0  0  0  0  0  0
   58.6995   21.0710   45.3621 H   0  0  0  0  0  0  0  0  0  0  0  0
   59.5002   21.6243   43.8473 H   0  0  0  0  0  0  0  0  0  0  0  0
   61.1420   22.1650   44.9490 H   0  0  0  0  0  0  0  0  0  0  0  0
   56.0000   28.6673   43.9348 H   0  0  0  0  0  0  0  0  0  0  0  0
   56.1608   29.5523   45.4594 H   0  0  0  0  0  0  0  0  0  0  0  0
   57.8733   29.6480   43.0110 H   0  0  0  0  0  0  0  0  0  0  0  0
   57.7495   30.8458   44.3106 H   0  0  0  0  0  0  0  0  0  0  0  0
   59.9165   29.2716   43.9315 H   0  0  0  0  0  0  0  0  0  0  0  0
   59.1150   26.9917   44.5629 H   0  0  0  0  0  0  0  0  0  0  0  0
   58.7284   27.7075   47.3827 H   0  0  0  0  0  0  0  0  0  0  0  0
   60.0006   26.7193   46.6804 H   0  0  0  0  0  0  0  0  0  0  0  0
   60.5324   29.1900   47.6863 H   0  0  0  0  0  0  0  0  0  0  0  0
   61.3937   28.6279   46.2385 H   0  0  0  0  0  0  0  0  0  0  0  0
   60.5220   30.5730   45.4950 H   0  0  0  0  0  0  0  0  0  0  0  0
   57.8165   30.3435   46.5966 H   0  0  0  0  0  0  0  0  0  0  0  0
   59.1919   30.5992   47.7742 H   0  0  0  0  0  0  0  0  0  0  0  0
   56.9706   32.1786   45.3340 H   0  0  0  0  0  0  0  0  0  0  0  0
   57.0135   34.6185   44.8180 H   0  0  0  0  0  0  0  0  0  0  0  0
   58.9131   36.0334   45.6058 H   0  0  0  0  0  0  0  0  0  0  0  0
   60.7881   35.0013   46.8879 H   0  0  0  0  0  0  0  0  0  0  0  0
   60.7606   32.5622   47.4032 H   0  0  0  0  0  0  0  0  0  0  0  0
  1  2  2  0
  2  3  1  0
  3  4  2  0
  4  5  1  0
  5  6  2  0
  6  7  1  0
  7  8  1  0
  6  9  1  0
  2 10  1  0
 10 11  1  0
 11 12  1  0
 12 13  1  0
 13 14  1  0
 14 15  1  0
 15 16  1  0
 16 17  1  0
 17 18  1  0
 18 19  1  0
 19 20  2  0
 20 21  1  0
 21 22  2  0
 22 23  1  0
 23 24  2  0
  9  3  1  0
 14 10  1  0
 24 19  1  0
 17 13  1  0
  4 25  1  0
  5 26  1  0
  7 27  1  0
  7 28  1  0
  8 29  1  0
 11 30  1  0
 11 31  1  0
 12 32  1  0
 12 33  1  0
 13 34  1  6
 14 35  1  6
 15 36  1  0
 15 37  1  0
 16 38  1  0
 16 39  1  0
 17 40  1  6
 18 41  1  0
 18 42  1  0
 20 43  1  0
 21 44  1  0
 22 45  1  0
 23 46  1  0
 24 47  1  0
M  CHG  1  17   1
M  END
>  <UniqueID>  (12) 
12

>  <SMILES>  (12) 
O=C(c1ccc(CO)s1)N1CC[C@@H]2[C@H]1CC[NH+]2Cc1ccccc1

>  <Energy>  (12) 
92.48989913872984

>  <Genealogy>  (12) 
O=C(c1ccc(CO)s1)N1CCC2C1CC[NH+]2Cc1ccccc1 (protonated)
O=C(c1ccc(CO)s1)N1CC[C@@H]2[C@H]1CC[NH+]2Cc1ccccc1 (chirality)
O=C(c1ccc(CO)s1)N1CC[C@@H]2[C@H]1CC[NH+]2Cc1ccccc1 (3D coordinates assigned)
O=C(c1ccc(CO)s1)N1CC[C@@H]2[C@H]1CC[NH+]2Cc1ccccc1 (nonaromatic ring conformer: 92.48989913872984 kcal/mol)

>  <smiles>  (12) 
O=C(c1ccc(CO)s1)N1CCC2C1CCN2Cc1ccccc1

>  <score_type>  (12) 
oracle

>  <origin>  (12) 
adg

>  <m_score__min__energy>  (12) 
-7.54

>  <m_primary>  (12) 
energy

$$$$
12:0
     RDKit          3D

 32 33  0  0  1  0  0  0  0  0999 V2000
   59.6430   35.6800   45.8310 C   0  0  0  0  0  0  0  0  0  0  0  0
   59.2800   34.9750   47.1310 C   0  0  0  0  0  0  0  0  0  0  0  0
   59.0340   33.5530   46.8230 C   0  0  0  0  0  0  0  0  0  0  0  0
   58.8530   33.1000   45.5470 N   0  0  0  0  0  0  0  0  0  0  0  0
   58.6300   31.8000   45.2960 C   0  0  0  0  0  0  0  0  0  0  0  0
   58.3930   31.2340   43.5960 S   0  0  0  0  0  0  0  0  0  0  0  0
   56.6860   30.7020   43.3430 C   0  0  0  0  0  0  0  0  0  0  0  0
   56.3560   29.7050   44.4010 C   0  0  0  0  0  0  0  0  0  0  0  0
   55.1940   29.6370   44.8590 O   0  0  0  0  0  0  0  0  0  0  0  0
   57.4170   28.8640   44.8370 N   0  0  0  0  0  0  0  0  0  0  0  0
   57.1990   27.7340   45.2910 C   0  0  0  0  0  0  0  0  0  0  0  0
   56.0940   27.0250   45.6210 N   0  0  0  0  0  0  0  0  0  0  0  0
   56.1530   25.8360   46.0850 C   0  0  0  0  0  0  0  0  0  0  0  0
   57.3820   25.1960   46.2800 C   0  0  0  0  0  0  0  0  0  0  0  0
   58.5890   26.5210   45.7030 S   0  0  0  0  0  0  0  0  0  0  0  0
   58.5770   30.8900   46.3130 N   0  0  0  0  0  0  0  0  0  0  0  0
   58.7540   31.3160   47.5870 C   0  0  0  0  0  0  0  0  0  0  0  0
   58.7040   30.4690   48.5310 O   0  0  0  0  0  0  0  0  0  0  0  0
   58.9880   32.6640   47.8750 C   0  0  0  0  0  0  0  0  0  0  0  0
   59.1690   33.0760   49.2360 C   0  0  0  0  0  0  0  0  0  0  0  0
   59.3310   33.4070   50.3290 N   0  0  0  0  0  0  0  0  0  0  0  0
   60.1357   36.6369   46.0580 H   0  0  0  0  0  0  0  0  0  0  0  0
   60.3263   35.0450   45.2479 H   0  0  0  0  0  0  0  0  0  0  0  0
   58.7292   35.8673   45.2479 H   0  0  0  0  0  0  0  0  0  0  0  0
   60.1091   35.0639   47.8484 H   0  0  0  0  0  0  0  0  0  0  0  0
   58.3836   35.4310   47.5765 H   0  0  0  0  0  0  0  0  0  0  0  0
   56.0098   31.5662   43.4197 H   0  0  0  0  0  0  0  0  0  0  0  0
   56.5675   30.2553   42.3448 H   0  0  0  0  0  0  0  0  0  0  0  0
   55.1450   27.5390   45.4620 H   0  0  0  0  0  0  0  0  0  0  0  0
   55.2219   25.3065   46.3354 H   0  0  0  0  0  0  0  0  0  0  0  0
   57.5881   24.1873   46.6673 H   0  0  0  0  0  0  0  0  0  0  0  0
   58.4040   29.8840   46.1060 H   0  0  0  0  0  0  0  0  0  0  0  0
  1  2  1  0
  2  3  1  0
  3  4  1  0
  4  5  2  0
  5  6  1  0
  6  7  1  0
  7  8  1  0
  8  9  2  0
  8 10  1  0
 10 11  2  0
 11 12  1  0
 12 13  1  0
 13 14  2  0
 14 15  1  0
  5 16  1  0
 16 17  1  0
 17 18  2  0
 17 19  1  0
 19 20  1  0
 20 21  3  0
 19  3  2  0
 15 11  1  0
  1 22  1  0
  1 23  1  0
  1 24  1  0
  2 25  1  0
  2 26  1  0
  7 27  1  0
  7 28  1  0
 12 29  1  0
 13 30  1  0
 14 31  1  0
 16 32  1  0
M  END
>  <smiles>  (13) 
CCc1nc(SCC(=O)N=c2[nH]ccs2)[nH]c(=O)c1C#N

>  <score_type>  (13) 
oracle

>  <origin>  (13) 
adg

>  <m_score__min__energy>  (13) 
-6.6699999999999999

>  <m_primary>  (13) 
energy

$$$$
13:0
     RDKit          3D

 35 36  0  0  0  0  0  0  0  0999 V2000
   55.7820   24.0720   44.0280 C   0  0  0  0  0  0  0  0  0  0  0  0
   56.9420   24.5180   44.8700 C   0  0  0  0  0  0  0  0  0  0  0  0
   58.1030   23.7540   44.9720 C   0  0  0  0  0  0  0  0  0  0  0  0
   59.1740   24.5440   45.9920 S   0  0  0  0  0  0  0  0  0  0  0  0
   58.1940   25.8760   46.2990 C   0  0  0  0  0  0  0  0  0  0  0  0
   58.4810   26.9320   47.2280 N   0  0  0  0  0  0  0  0  0  0  0  0
   59.6160   27.8100   47.2400 C   0  0  0  0  0  0  0  0  0  0  0  0
   60.7680   27.3050   47.2550 O   0  0  0  0  0  0  0  0  0  0  0  0
   59.4830   29.3050   47.2730 C   0  0  0  0  0  0  0  0  0  0  0  0
   58.1010   29.6900   46.9800 N   0  0  0  0  0  0  0  0  0  0  0  0
   58.0360   30.5600   45.4770 S   0  0  0  0  0  0  0  0  0  0  0  0
   58.9780   29.9170   44.4970 O   0  0  0  0  0  0  0  0  0  0  0  0
   56.6470   30.4910   44.9050 O   0  0  0  0  0  0  0  0  0  0  0  0
   58.5170   32.2410   45.7200 C   0  0  0  0  0  0  0  0  0  0  0  0
   59.0020   32.6420   46.9740 C   0  0  0  0  0  0  0  0  0  0  0  0
   59.3680   33.9730   47.1970 C   0  0  0  0  0  0  0  0  0  0  0  0
   59.2440   34.9130   46.1700 C   0  0  0  0  0  0  0  0  0  0  0  0
   58.7510   34.5230   44.9220 C   0  0  0  0  0  0  0  0  0  0  0  0
   58.3860   33.1930   44.6920 C   0  0  0  0  0  0  0  0  0  0  0  0
   57.8880   32.8440   43.4800 F   0  0  0  0  0  0  0  0  0  0  0  0
   56.9770   25.7140   45.6320 C   0  0  0  0  0  0  0  0  0  0  0  0
   55.8680   26.6960   45.7260 C   0  0  0  0  0  0  0  0  0  0  0  0
   56.0790   27.9290   45.5900 O   0  0  0  0  0  0  0  0  0  0  0  0
   54.5690   26.2660   45.9710 O   0  0  0  0  0  0  0  0  0  0  0  0
   54.9557   23.7543   44.6809 H   0  0  0  0  0  0  0  0  0  0  0  0
   55.4478   24.9058   43.3930 H   0  0  0  0  0  0  0  0  0  0  0  0
   56.0925   23.2291   43.3930 H   0  0  0  0  0  0  0  0  0  0  0  0
   58.2861   22.7936   44.4679 H   0  0  0  0  0  0  0  0  0  0  0  0
   59.7602   29.6737   48.2716 H   0  0  0  0  0  0  0  0  0  0  0  0
   60.1491   29.7442   46.5158 H   0  0  0  0  0  0  0  0  0  0  0  0
   57.5380   28.8180   46.8500 H   0  0  0  0  0  0  0  0  0  0  0  0
   59.0948   31.9056   47.7858 H   0  0  0  0  0  0  0  0  0  0  0  0
   59.7534   34.2802   48.1804 H   0  0  0  0  0  0  0  0  0  0  0  0
   59.5344   35.9596   46.3442 H   0  0  0  0  0  0  0  0  0  0  0  0
   58.6496   35.2657   44.1169 H   0  0  0  0  0  0  0  0  0  0  0  0
  1  2  1  0
  2  3  2  0
  3  4  1  0
  4  5  1  0
  5  6  1  0
  6  7  1  0
  7  8  2  0
  7  9  1  0
  9 10  1  0
 10 11  1  0
 11 12  2  0
 11 13  2  0
 11 14  1  0
 14 15  2  0
 15 16  1  0
 16 17  2  0
 17 18  1  0
 18 19  2  0
 19 20  1  0
  5 21  2  0
 21 22  1  0
 22 23  2  0
 22 24  1  0
 21  2  1  0
 19 14  1  0
  1 25  1  0
  1 26  1  0
  1 27  1  0
  3 28  1  0
  9 29  1  0
  9 30  1  0
 10 31  1  0
 15 32  1  0
 16 33  1  0
 17 34  1  0
 18 35  1  0
M  CHG  2   6  -1  24  -1
M  END
>  <UniqueID>  (14) 
13

>  <SMILES>  (14) 
Cc1csc([N-]C(=O)CNS(=O)(=O)c2ccccc2F)c1C(=O)[O-]

>  <Energy>  (14) 
63.6836861984145

>  <Genealogy>  (14) 
Cc1csc([N-]C(=O)CNS(=O)(=O)c2ccccc2F)c1C(=O)[O-] (protonated)
Cc1csc([N-]C(=O)CNS(=O)(=O)c2ccccc2F)c1C(=O)[O-] (3D coordinates assigned)
Cc1csc([N-]C(=O)CNS(=O)(=O)c2ccccc2F)c1C(=O)[O-] (optimized conformer: 63.6836861984145 kcal/mol)

>  <smiles>  (14) 
Cc1csc(NC(=O)CNS(=O)(=O)c2ccccc2F)c1C(=O)O

>  <score_type>  (14) 
oracle

>  <origin>  (14) 
adg

>  <m_score__min__energy>  (14) 
-13.109999999999999

>  <m_primary>  (14) 
energy

$$$$
14:0
     RDKit          3D

 42 44  0  0  0  0  0  0  0  0999 V2000
   58.0230   26.7560   45.8630 C   0  0  0  0  0  0  0  0  0  0  0  0
   57.1880   27.9120   45.4230 C   0  0  0  0  0  0  0  0  0  0  0  0
   57.6490   29.1710   45.0970 C   0  0  0  0  0  0  0  0  0  0  0  0
   56.4950   29.8320   44.7450 C   0  0  0  0  0  0  0  0  0  0  0  0
   56.4430   31.0670   44.3550 N   0  0  0  0  0  0  0  0  0  0  0  0
   57.8560   31.9970   43.9730 S   0  0  0  0  0  0  0  0  0  0  0  0
   57.4940   33.0640   42.9790 O   0  0  0  0  0  0  0  0  0  0  0  0
   58.8920   31.0960   43.3590 O   0  0  0  0  0  0  0  0  0  0  0  0
   58.4740   32.7610   45.4340 C   0  0  0  0  0  0  0  0  0  0  0  0
   57.9010   32.4490   46.6730 C   0  0  0  0  0  0  0  0  0  0  0  0
   58.3950   33.0320   47.8440 C   0  0  0  0  0  0  0  0  0  0  0  0
   59.4570   33.9490   47.7840 C   0  0  0  0  0  0  0  0  0  0  0  0
   60.0080   34.5420   48.9680 N   0  0  0  0  0  0  0  0  0  0  0  0
   60.4280   33.8540   50.1530 C   0  0  0  0  0  0  0  0  0  0  0  0
   59.5560   33.5280   51.0020 O   0  0  0  0  0  0  0  0  0  0  0  0
   61.8680   33.4770   50.3830 C   0  0  0  0  0  0  0  0  0  0  0  0
   62.0880   32.0910   50.1090 O   0  0  0  0  0  0  0  0  0  0  0  0
   61.4560   31.3430   49.0990 C   0  0  0  0  0  0  0  0  0  0  0  0
   60.3860   30.4630   49.3630 C   0  0  0  0  0  0  0  0  0  0  0  0
   59.7930   29.7400   48.3240 C   0  0  0  0  0  0  0  0  0  0  0  0
   60.2590   29.8830   47.0160 C   0  0  0  0  0  0  0  0  0  0  0  0
   61.3190   30.7500   46.7420 C   0  0  0  0  0  0  0  0  0  0  0  0
   61.9170   31.4780   47.7770 C   0  0  0  0  0  0  0  0  0  0  0  0
   63.2490   32.5620   47.4050 Cl  0  0  0  0  0  0  0  0  0  0  0  0
   60.0490   34.2340   46.5460 C   0  0  0  0  0  0  0  0  0  0  0  0
   59.5560   33.6510   45.3750 C   0  0  0  0  0  0  0  0  0  0  0  0
   55.4260   29.0190   44.8520 N   0  0  0  0  0  0  0  0  0  0  0  0
   55.8840   27.8720   45.2610 O   0  0  0  0  0  0  0  0  0  0  0  0
   58.0491   26.7198   46.9621 H   0  0  0  0  0  0  0  0  0  0  0  0
   57.5896   25.8221   45.4756 H   0  0  0  0  0  0  0  0  0  0  0  0
   59.0457   26.8739   45.4756 H   0  0  0  0  0  0  0  0  0  0  0  0
   58.6811   29.5511   45.1143 H   0  0  0  0  0  0  0  0  0  0  0  0
   57.0593   31.7428   46.7253 H   0  0  0  0  0  0  0  0  0  0  0  0
   57.9502   32.7714   48.8157 H   0  0  0  0  0  0  0  0  0  0  0  0
   62.5072   34.0798   49.7211 H   0  0  0  0  0  0  0  0  0  0  0  0
   62.1146   33.6677   51.4379 H   0  0  0  0  0  0  0  0  0  0  0  0
   60.0161   30.3449   50.3922 H   0  0  0  0  0  0  0  0  0  0  0  0
   58.9575   29.0571   48.5375 H   0  0  0  0  0  0  0  0  0  0  0  0
   59.7909   29.3123   46.2004 H   0  0  0  0  0  0  0  0  0  0  0  0
   61.6847   30.8610   45.7105 H   0  0  0  0  0  0  0  0  0  0  0  0
   60.9069   34.9207   46.4955 H   0  0  0  0  0  0  0  0  0  0  0  0
   60.0176   33.8908   44.4057 H   0  0  0  0  0  0  0  0  0  0  0  0
  1  2  1  0
  2  3  2  0
  3  4  1  0
  4  5  2  3
  5  6  1  0
  6  7  2  0
  6  8  2  0
  6  9  1  0
  9 10  2  0
 10 11  1  0
 11 12  2  0
 12 13  1  0
 13 14  1  0
 14 15  2  0
 14 16  1  0
 16 17  1  0
 17 18  1  0
 18 19  2  0
 19 20  1  0
 20 21  2  0
 21 22  1  0
 22 23  2  0
 23 24  1  0
 12 25  1  0
 25 26  2  0
  4 27  1  0
 27 28  1  0
 28  2  1  0
 26  9  1  0
 23 18  1  0
  1 29  1  0
  1 30  1  0
  1 31  1  0
  3 32  1  0
 10 33  1  0
 11 34  1  0
 16 35  1  0
 16 36  1  0
 19 37  1  0
 20 38  1  0
 21 39  1  0
 22 40  1  0
 25 41  1  0
 26 42  1  0
M  CHG  2  13  -1  27  -1
M  END
>  <UniqueID>  (15) 
14

>  <SMILES>  (15) 
Cc1cc(=NS(=O)(=O)c2ccc([N-]C(=O)COc3ccccc3Cl)cc2)[n-]o1

>  <Energy>  (15) 
82.9112102884333

>  <Genealogy>  (15) 
Cc1cc(=NS(=O)(=O)c2ccc([N-]C(=O)COc3ccccc3Cl)cc2)[n-]o1 (protonated)
Cc1cc(=NS(=O)(=O)c2ccc([N-]C(=O)COc3ccccc3Cl)cc2)[n-]o1 (3D coordinates assigned)
Cc1cc(=NS(=O)(=O)c2ccc([N-]C(=O)COc3ccccc3Cl)cc2)[n-]o1 (optimized conformer: 82.9112102884333 kcal/mol)

>  <smiles>  (15) 
Cc1cc(=NS(=O)(=O)c2ccc(NC(=O)COc3ccccc3Cl)cc2)[nH]o1

>  <score_type>  (15) 
oracle

>  <origin>  (15) 
adg

>  <m_score__min__energy>  (15) 
-11.6

>  <m_primary>  (15) 
energy

$$$$
15:0
     RDKit          3D

 44 47  0  0  0  0  0  0  0  0999 V2000
   55.3970   29.6070   44.8370 O   0  0  0  0  0  0  0  0  0  0  0  0
   56.6240   29.7390   45.0910 C   0  0  0  0  0  0  0  0  0  0  0  0
   57.2040   31.0470   45.0080 N   0  0  0  0  0  0  0  0  0  0  0  0
   57.9150   31.7150   46.0570 C   0  0  0  0  0  0  0  0  0  0  0  0
   58.5660   30.9370   47.0230 C   0  0  0  0  0  0  0  0  0  0  0  0
   59.2570   31.5450   48.0740 C   0  0  0  0  0  0  0  0  0  0  0  0
   59.3200   32.9360   48.1570 C   0  0  0  0  0  0  0  0  0  0  0  0
   58.7040   33.7220   47.1800 C   0  0  0  0  0  0  0  0  0  0  0  0
   58.0090   33.1240   46.1220 C   0  0  0  0  0  0  0  0  0  0  0  0
   57.3390   34.1650   44.8730 Cl  0  0  0  0  0  0  0  0  0  0  0  0
   57.4150   28.5800   45.4220 N   0  0  0  0  0  0  0  0  0  0  0  0
   58.8260   28.4990   45.0080 C   0  0  0  0  0  0  0  0  0  0  0  0
   59.2540   27.0430   44.8030 C   0  0  0  0  0  0  0  0  0  0  0  0
   59.0230   26.2000   46.0770 C   0  0  0  0  0  0  0  0  0  0  0  0
   58.9860   24.7400   45.7230 C   0  0  0  0  0  0  0  0  0  0  0  0
   57.8580   24.0620   45.4460 N   0  0  0  0  0  0  0  0  0  0  0  0
   58.3410   22.8250   45.2030 C   0  0  0  0  0  0  0  0  0  0  0  0
   57.4960   21.6680   44.8400 C   0  0  0  0  0  0  0  0  0  0  0  0
   57.1620   20.6940   45.7940 C   0  0  0  0  0  0  0  0  0  0  0  0
   56.3610   19.6060   45.4340 C   0  0  0  0  0  0  0  0  0  0  0  0
   55.9020   19.4990   44.1210 C   0  0  0  0  0  0  0  0  0  0  0  0
   56.2330   20.4480   43.2050 N   0  0  0  0  0  0  0  0  0  0  0  0
   57.0080   21.5170   43.5290 C   0  0  0  0  0  0  0  0  0  0  0  0
   59.6830   22.7650   45.3290 N   0  0  0  0  0  0  0  0  0  0  0  0
   60.0440   23.9690   45.6510 O   0  0  0  0  0  0  0  0  0  0  0  0
   57.7500   26.6110   46.8620 C   0  0  0  0  0  0  0  0  0  0  0  0
   56.7570   27.4020   46.0050 C   0  0  0  0  0  0  0  0  0  0  0  0
   58.5329   29.8397   46.9535 H   0  0  0  0  0  0  0  0  0  0  0  0
   59.7519   30.9261   48.8369 H   0  0  0  0  0  0  0  0  0  0  0  0
   59.8544   33.4138   48.9913 H   0  0  0  0  0  0  0  0  0  0  0  0
   58.7655   34.8185   47.2425 H   0  0  0  0  0  0  0  0  0  0  0  0
   58.9563   29.0487   44.0642 H   0  0  0  0  0  0  0  0  0  0  0  0
   59.4498   28.9400   45.7995 H   0  0  0  0  0  0  0  0  0  0  0  0
   58.6687   26.6112   43.9777 H   0  0  0  0  0  0  0  0  0  0  0  0
   60.3290   27.0289   44.5701 H   0  0  0  0  0  0  0  0  0  0  0  0
   59.8698   26.3958   46.7512 H   0  0  0  0  0  0  0  0  0  0  0  0
   57.5309   20.7868   46.8261 H   0  0  0  0  0  0  0  0  0  0  0  0
   56.0953   18.8416   46.1791 H   0  0  0  0  0  0  0  0  0  0  0  0
   55.2721   18.6467   43.8265 H   0  0  0  0  0  0  0  0  0  0  0  0
   57.2546   22.2670   42.7630 H   0  0  0  0  0  0  0  0  0  0  0  0
   57.2524   25.7005   47.2272 H   0  0  0  0  0  0  0  0  0  0  0  0
   58.0661   27.2619   47.6905 H   0  0  0  0  0  0  0  0  0  0  0  0
   56.3817   26.7580   45.1961 H   0  0  0  0  0  0  0  0  0  0  0  0
   55.9216   27.7346   46.6387 H   0  0  0  0  0  0  0  0  0  0  0  0
  1  2  2  0
  2  3  1  0
  3  4  1  0
  4  5  2  0
  5  6  1  0
  6  7  2  0
  7  8  1  0
  8  9  2  0
  9 10  1  0
  2 11  1  0
 11 12  1  0
 12 13  1  0
 13 14  1  0
 14 15  1  0
 15 16  2  0
 16 17  1  0
 17 18  1  0
 18 19  2  0
 19 20  1  0
 20 21  2  0
 21 22  1  0
 22 23  2  0
 17 24  2  0
 24 25  1  0
 14 26  1  0
 26 27  1  0
  9  4  1  0
 27 11  1  0
 25 15  1  0
 23 18  1  0
  5 28  1  0
  6 29  1  0
  7 30  1  0
  8 31  1  0
 12 32  1  0
 12 33  1  0
 13 34  1  0
 13 35  1  0
 14 36  1  0
 19 37  1  0
 20 38  1  0
 21 39  1  0
 23 40  1  0
 26 41  1  0
 26 42  1  0
 27 43  1  0
 27 44  1  0
M  CHG  1   3  -1
M  END
>  <UniqueID>  (16) 
15

>  <SMILES>  (16) 
O=C([N-]c1ccccc1Cl)N1CCC(c2nc(-c3cccnc3)no2)CC1

>  <Energy>  (16) 
90.91355537672688

>  <Genealogy>  (16) 
O=C([N-]c1ccccc1Cl)N1CCC(c2nc(-c3cccnc3)no2)CC1 (protonated)
O=C([N-]c1ccccc1Cl)N1CCC(c2nc(-c3cccnc3)no2)CC1 (3D coordinates assigned)
O=C([N-]c1ccccc1Cl)N1CCC(c2nc(-c3cccnc3)no2)CC1 (nonaromatic ring conformer: 90.91355537672688 kcal/mol)

>  <smiles>  (16) 
O=C(Nc1ccccc1Cl)N1CCC(c2nc(-c3cccnc3)no2)CC1

>  <score_type>  (16) 
oracle

>  <origin>  (16) 
adg

>  <m_score__min__energy>  (16) 
-10.199999999999999

>  <m_primary>  (16) 
energy

$$$$
16:0
     RDKit          3D

 31 32  0  0  0  0  0  0  0  0999 V2000
   56.3166   23.1587   44.9001 H   0  0  0  0  0  0  0  0  0  0  0  0
   56.1960   24.2140   45.1860 C   0  0  0  0  0  0  0  0  0  0  0  0
   57.3950   25.3930   45.1490 S   0  0  0  0  0  0  0  0  0  0  0  0
   56.3720   26.6000   45.7370 C   0  0  0  0  0  0  0  0  0  0  0  0
   56.6770   27.8510   45.9200 N   0  0  0  0  0  0  0  0  0  0  0  0
   56.4300   28.9420   45.0200 C   0  0  0  0  0  0  0  0  0  0  0  0
   55.2730   29.4190   44.8680 O   0  0  0  0  0  0  0  0  0  0  0  0
   57.5790   29.5440   44.2770 C   0  0  0  0  0  0  0  0  0  0  0  0
   57.9765   28.8028   43.5680 H   0  0  0  0  0  0  0  0  0  0  0  0
   58.3513   29.8359   45.0039 H   0  0  0  0  0  0  0  0  0  0  0  0
   57.0560   31.0350   43.3530 S   0  0  0  0  0  0  0  0  0  0  0  0
   57.7110   32.2120   44.5430 C   0  0  0  0  0  0  0  0  0  0  0  0
   58.1690   33.4650   44.1180 C   0  0  0  0  0  0  0  0  0  0  0  0
   58.0913   33.7473   43.0577 H   0  0  0  0  0  0  0  0  0  0  0  0
   58.7250   34.3580   45.0390 C   0  0  0  0  0  0  0  0  0  0  0  0
   59.0977   35.3355   44.6990 H   0  0  0  0  0  0  0  0  0  0  0  0
   58.8090   34.0100   46.3980 C   0  0  0  0  0  0  0  0  0  0  0  0
   59.4590   34.9410   47.3780 C   0  0  0  0  0  0  0  0  0  0  0  0
   59.2300   34.6130   48.4027 H   0  0  0  0  0  0  0  0  0  0  0  0
   60.5483   34.9323   47.2250 H   0  0  0  0  0  0  0  0  0  0  0  0
   59.0754   35.9605   47.2250 H   0  0  0  0  0  0  0  0  0  0  0  0
   58.3460   32.7550   46.8190 C   0  0  0  0  0  0  0  0  0  0  0  0
   58.4231   32.4694   47.8785 H   0  0  0  0  0  0  0  0  0  0  0  0
   57.7870   31.8660   45.8970 C   0  0  0  0  0  0  0  0  0  0  0  0
   57.4057   30.8916   46.2364 H   0  0  0  0  0  0  0  0  0  0  0  0
   55.1260   26.1310   45.9550 N   0  0  0  0  0  0  0  0  0  0  0  0
   55.0230   24.8110   45.6430 C   0  0  0  0  0  0  0  0  0  0  0  0
   53.7490   24.0550   45.8330 C   0  0  0  0  0  0  0  0  0  0  0  0
   53.5497   23.9367   46.9083 H   0  0  0  0  0  0  0  0  0  0  0  0
   52.9212   24.6081   45.3653 H   0  0  0  0  0  0  0  0  0  0  0  0
   53.8378   23.0633   45.3653 H   0  0  0  0  0  0  0  0  0  0  0  0
  1  2  1  0
  2  3  1  0
  3  4  1  0
  4  5  2  0
  5  6  1  0
  6  7  2  0
  6  8  1  0
  8  9  1  0
  8 10  1  0
  8 11  1  0
 11 12  1  0
 12 13  2  0
 13 14  1  0
 13 15  1  0
 15 16  1  0
 15 17  2  0
 17 18  1  0
 18 19  1  0
 18 20  1  0
 18 21  1  0
 17 22  1  0
 22 23  1  0
 22 24  2  0
 24 25  1  0
  4 26  1  0
 26 27  1  0
 27 28  1  0
 28 29  1  0
 28 30  1  0
 28 31  1  0
 27  2  2  0
 24 12  1  0
M  CHG  1  26  -1
M  END
>  <UniqueID>  (17) 
16

>  <SMILES>  (17) 
Cc1ccc(SCC(=O)/N=c2/[n-]c(C)cs2)cc1

>  <Energy>  (17) 
55.627825983406154

>  <Genealogy>  (17) 
Cc1ccc(SCC(=O)N=c2[n-]c(C)cs2)cc1 (protonated)
Cc1ccc(SCC(=O)/N=c2/[n-]c(C)cs2)cc1 (cis-trans isomerization)
Cc1ccc(SCC(=O)/N=c2/[n-]c(C)cs2)cc1 (3D coordinates assigned)
Cc1ccc(SCC(=O)/N=c2/[n-]c(C)cs2)cc1 (optimized conformer: 55.627825983406154 kcal/mol)

>  <smiles>  (17) 
Cc1ccc(SCC(=O)N=c2[nH]c(C)cs2)cc1

>  <score_type>  (17) 
oracle

>  <origin>  (17) 
adg

>  <m_score__min__energy>  (17) 
-9.4299999999999997

>  <m_primary>  (17) 
energy

$$$$
17:0
     RDKit          3D

 43 45  0  0  0  0  0  0  0  0999 V2000
   59.4794   35.8677   46.8582 H   0  0  0  0  0  0  0  0  0  0  0  0
   59.5150   34.8320   47.2270 C   0  0  0  0  0  0  0  0  0  0  0  0
   59.4500   33.7700   46.3260 C   0  0  0  0  0  0  0  0  0  0  0  0
   59.3594   33.9733   45.2488 H   0  0  0  0  0  0  0  0  0  0  0  0
   59.4990   32.4500   46.7800 C   0  0  0  0  0  0  0  0  0  0  0  0
   59.4360   31.4270   45.8270 O   0  0  0  0  0  0  0  0  0  0  0  0
   58.2480   30.8460   45.3740 C   0  0  0  0  0  0  0  0  0  0  0  0
   57.1960   31.6420   45.0390 N   0  0  0  0  0  0  0  0  0  0  0  0
   56.0410   31.1330   44.6130 N   0  0  0  0  0  0  0  0  0  0  0  0
   55.8780   29.7930   44.5030 C   0  0  0  0  0  0  0  0  0  0  0  0
   54.7840   29.3200   44.1010 O   0  0  0  0  0  0  0  0  0  0  0  0
   56.8990   28.9640   44.8300 N   0  0  0  0  0  0  0  0  0  0  0  0
   58.0930   29.4430   45.2660 C   0  0  0  0  0  0  0  0  0  0  0  0
   59.0240   28.5720   45.5500 N   0  0  0  0  0  0  0  0  0  0  0  0
   58.9640   27.1680   46.5750 S   0  0  0  0  0  0  0  0  0  0  0  0
   58.4790   27.5840   47.9340 O   0  0  0  0  0  0  0  0  0  0  0  0
   60.3470   26.5920   46.7180 O   0  0  0  0  0  0  0  0  0  0  0  0
   57.8390   25.9770   45.9260 C   0  0  0  0  0  0  0  0  0  0  0  0
   58.3290   24.8420   45.2710 C   0  0  0  0  0  0  0  0  0  0  0  0
   59.4124   24.7182   45.1262 H   0  0  0  0  0  0  0  0  0  0  0  0
   57.4480   23.8650   44.8000 C   0  0  0  0  0  0  0  0  0  0  0  0
   57.8426   22.9760   44.2863 H   0  0  0  0  0  0  0  0  0  0  0  0
   56.0600   24.0100   44.9780 C   0  0  0  0  0  0  0  0  0  0  0  0
   55.1320   22.9620   44.5040 C   0  0  0  0  0  0  0  0  0  0  0  0
   55.5450   22.0240   43.7710 O   0  0  0  0  0  0  0  0  0  0  0  0
   53.7880   22.9990   44.8560 O   0  0  0  0  0  0  0  0  0  0  0  0
   55.5740   25.1630   45.6220 C   0  0  0  0  0  0  0  0  0  0  0  0
   54.4909   25.2949   45.7617 H   0  0  0  0  0  0  0  0  0  0  0  0
   56.4570   26.1410   46.0850 C   0  0  0  0  0  0  0  0  0  0  0  0
   56.0656   27.0438   46.5766 H   0  0  0  0  0  0  0  0  0  0  0  0
   59.5610   32.1850   48.1720 C   0  0  0  0  0  0  0  0  0  0  0  0
   59.5310   30.7760   48.7050 C   0  0  0  0  0  0  0  0  0  0  0  0
   59.5315   30.7999   49.8047 H   0  0  0  0  0  0  0  0  0  0  0  0
   58.6219   30.2688   48.3497 H   0  0  0  0  0  0  0  0  0  0  0  0
   60.4177   30.2306   48.3497 H   0  0  0  0  0  0  0  0  0  0  0  0
   59.6490   33.2630   49.0810 C   0  0  0  0  0  0  0  0  0  0  0  0
   59.7530   32.9860   50.4550 O   0  0  0  0  0  0  0  0  0  0  0  0
   59.2120   33.8040   51.4890 C   0  0  0  0  0  0  0  0  0  0  0  0
   59.4879   33.3868   52.4687 H   0  0  0  0  0  0  0  0  0  0  0  0
   59.6144   34.8237   51.3982 H   0  0  0  0  0  0  0  0  0  0  0  0
   58.1161   33.8328   51.3982 H   0  0  0  0  0  0  0  0  0  0  0  0
   59.6250   34.5840   48.5940 C   0  0  0  0  0  0  0  0  0  0  0  0
   59.6936   35.4266   49.2978 H   0  0  0  0  0  0  0  0  0  0  0  0
  1  2  1  0
  2  3  2  0
  3  4  1  0
  3  5  1  0
  5  6  1  0
  6  7  1  0
  7  8  2  0
  8  9  1  0
  9 10  1  0
 10 11  2  0
 10 12  1  0
 12 13  1  0
 13 14  2  0
 14 15  1  0
 15 16  2  0
 15 17  2  0
 15 18  1  0
 18 19  2  0
 19 20  1  0
 19 21  1  0
 21 22  1  0
 21 23  2  0
 23 24  1  0
 24 25  2  0
 24 26  1  0
 23 27  1  0
 27 28  1  0
 27 29  2  0
 29 30  1  0
  5 31  2  0
 31 32  1  0
 32 33  1  0
 32 34  1  0
 32 35  1  0
 31 36  1  0
 36 37  1  0
 37 38  1  0
 38 39  1  0
 38 40  1  0
 38 41  1  0
 36 42  2  0
 42 43  1  0
 42  2  1  0
 13  7  1  0
 29 18  1  0
M  CHG  3   9  -1  12  -1  26  -1
M  END
>  <UniqueID>  (18) 
17

>  <SMILES>  (18) 
COc1cccc(Oc2n[n-]c(=O)[n-]/c2=N/S(=O)(=O)c2ccc(C(=O)[O-])cc2)c1C

>  <Energy>  (18) 
61.181754915744804

>  <Genealogy>  (18) 
COc1cccc(Oc2n[n-]c(=O)[n-]c2=NS(=O)(=O)c2ccc(C(=O)[O-])cc2)c1C (protonated)
COc1cccc(Oc2n[n-]c(=O)[n-]/c2=N/S(=O)(=O)c2ccc(C(=O)[O-])cc2)c1C (cis-trans isomerization)
COc1cccc(Oc2n[n-]c(=O)[n-]/c2=N/S(=O)(=O)c2ccc(C(=O)[O-])cc2)c1C (3D coordinates assigned)
COc1cccc(Oc2n[n-]c(=O)[n-]/c2=N/S(=O)(=O)c2ccc(C(=O)[O-])cc2)c1C (optimized conformer: 61.181754915744804 kcal/mol)

>  <smiles>  (18) 
COc1cccc(Oc2n[nH]c(=O)[nH]c2=NS(=O)(=O)c2ccc(C(=O)O)cc2)c1C

>  <score_type>  (18) 
oracle

>  <origin>  (18) 
adg

>  <m_score__min__energy>  (18) 
-13.640000000000001

>  <m_primary>  (18) 
energy

$$$$
18:0
     RDKit          3D

 56 59  0  0  0  0  0  0  0  0999 V2000
   58.7480   34.8773   46.8431 H   0  0  0  0  0  0  0  0  0  0  0  0
   58.4740   33.9650   46.2930 C   0  0  0  0  0  0  0  0  0  0  0  0
   58.1750   34.0350   44.9290 C   0  0  0  0  0  0  0  0  0  0  0  0
   58.2118   35.0027   44.4073 H   0  0  0  0  0  0  0  0  0  0  0  0
   57.8290   32.8750   44.2270 C   0  0  0  0  0  0  0  0  0  0  0  0
   57.5939   32.9329   43.1540 H   0  0  0  0  0  0  0  0  0  0  0  0
   57.7810   31.6360   44.8890 C   0  0  0  0  0  0  0  0  0  0  0  0
   57.3750   30.3880   44.1510 C   0  0  0  0  0  0  0  0  0  0  0  0
   58.2683   29.7775   43.9527 H   0  0  0  0  0  0  0  0  0  0  0  0
   56.8946   30.6743   43.2038 H   0  0  0  0  0  0  0  0  0  0  0  0
   56.4270   29.6100   44.9470 N   0  0  0  0  0  0  0  0  0  0  0  0
   56.7320   28.5500   45.6340 C   0  0  0  0  0  0  0  0  0  0  0  0
   57.8760   28.5350   46.3620 N   0  0  0  0  0  0  0  0  0  0  0  0
   58.2080   27.4450   47.1040 C   0  0  0  0  0  0  0  0  0  0  0  0
   59.2910   27.4270   47.8230 N   0  0  0  0  0  0  0  0  0  0  0  0
   59.5350   28.2810   48.9870 C   0  0  0  0  0  0  0  0  0  0  0  0
   60.1382   27.7272   49.7214 H   0  0  0  0  0  0  0  0  0  0  0  0
   58.5677   28.5663   49.4262 H   0  0  0  0  0  0  0  0  0  0  0  0
   60.2720   29.5310   48.5830 C   0  0  0  0  0  0  0  0  0  0  0  0
   60.7240   29.6840   47.2630 C   0  0  0  0  0  0  0  0  0  0  0  0
   60.5106   28.9040   46.5173 H   0  0  0  0  0  0  0  0  0  0  0  0
   56.6060   22.4190   42.8430 C   0  0  0  0  0  0  0  0  0  0  0  0
   56.9916   22.4150   41.8128 H   0  0  0  0  0  0  0  0  0  0  0  0
   56.7500   21.2870   43.6450 C   0  0  0  0  0  0  0  0  0  0  0  0
   57.2488   20.3913   43.2463 H   0  0  0  0  0  0  0  0  0  0  0  0
   56.2620   21.2890   44.9530 C   0  0  0  0  0  0  0  0  0  0  0  0
   56.3783   20.3939   45.5817 H   0  0  0  0  0  0  0  0  0  0  0  0
   55.6250   22.4250   45.4690 C   0  0  0  0  0  0  0  0  0  0  0  0
   55.0240   22.3710   47.1230 Cl  0  0  0  0  0  0  0  0  0  0  0  0
   57.3890   26.3630   47.1060 N   0  0  0  0  0  0  0  0  0  0  0  0
   56.2430   26.3650   46.3730 C   0  0  0  0  0  0  0  0  0  0  0  0
   55.4530   25.3340   46.3640 N   0  0  0  0  0  0  0  0  0  0  0  0
   54.7750   24.8090   45.1780 C   0  0  0  0  0  0  0  0  0  0  0  0
   53.7382   24.5508   45.4395 H   0  0  0  0  0  0  0  0  0  0  0  0
   54.7902   25.5787   44.3923 H   0  0  0  0  0  0  0  0  0  0  0  0
   55.4780   23.5760   44.6630 C   0  0  0  0  0  0  0  0  0  0  0  0
   60.5520   30.5320   49.5260 C   0  0  0  0  0  0  0  0  0  0  0  0
   60.2023   30.4203   50.5629 H   0  0  0  0  0  0  0  0  0  0  0  0
   61.4440   30.8230   46.8920 C   0  0  0  0  0  0  0  0  0  0  0  0
   61.7969   30.9347   45.8562 H   0  0  0  0  0  0  0  0  0  0  0  0
   61.7180   31.8230   47.8340 C   0  0  0  0  0  0  0  0  0  0  0  0
   62.6490   33.2430   47.3700 S   0  0  0  0  0  0  0  0  0  0  0  0
   62.8880   34.1110   48.5740 O   0  0  0  0  0  0  0  0  0  0  0  0
   61.8900   34.0360   46.3440 O   0  0  0  0  0  0  0  0  0  0  0  0
   64.1670   32.7420   46.7120 N   0  0  0  0  0  0  0  0  0  0  0  0
   64.9130   33.1570   47.3140 H   0  0  0  0  0  0  0  0  0  0  0  0
   64.2250   31.7060   46.8320 H   0  0  0  0  0  0  0  0  0  0  0  0
   61.2730   31.6700   49.1540 C   0  0  0  0  0  0  0  0  0  0  0  0
   61.4919   32.4483   49.8999 H   0  0  0  0  0  0  0  0  0  0  0  0
   55.9720   23.5590   43.3470 C   0  0  0  0  0  0  0  0  0  0  0  0
   55.8591   24.4483   42.7095 H   0  0  0  0  0  0  0  0  0  0  0  0
   55.9180   27.4600   45.6430 N   0  0  0  0  0  0  0  0  0  0  0  0
   58.0780   31.5760   46.2610 C   0  0  0  0  0  0  0  0  0  0  0  0
   58.0373   30.6117   46.7887 H   0  0  0  0  0  0  0  0  0  0  0  0
   58.4250   32.7370   46.9580 C   0  0  0  0  0  0  0  0  0  0  0  0
   58.6598   32.6838   48.0313 H   0  0  0  0  0  0  0  0  0  0  0  0
  1  2  1  0
  2  3  2  0
  3  4  1  0
  3  5  1  0
  5  6  1  0
  5  7  2  0
  7  8  1  0
  8  9  1  0
  8 10  1  0
  8 11  1  0
 11 12  2  3
 12 13  1  0
 13 14  1  0
 14 15  2  0
 15 16  1  0
 16 17  1  0
 16 18  1  0
 16 19  1  0
 19 20  2  0
 20 21  1  0
 20 22  1  0
 22 23  1  0
 22 24  2  0
 24 25  1  0
 24 26  1  0
 26 27  1  0
 26 28  2  0
 28 29  1  0
 14 30  1  0
 30 31  1  0
 31 32  2  0
 32 33  1  0
 33 34  1  0
 33 35  1  0
 33 36  1  0
 36 37  2  0
 37 38  1  0
 37 39  1  0
 39 40  1  0
 39 41  2  0
 41 42  1  0
 42 43  2  0
 42 44  2  0
 42 45  1  0
 45 46  1  0
 45 47  1  0
 41 48  1  0
 48 49  1  0
 48 50  2  0
 50 51  1  0
 31 52  1  0
  7 53  1  0
 53 54  1  0
 53 55  2  0
 55 56  1  0
 55  2  1  0
 52 12  1  0
 28 19  1  0
 50 36  1  0
M  CHG  3  13  -1  30  -1  52  -1
M  END
>  <UniqueID>  (19) 
18

>  <SMILES>  (19) 
NS(=O)(=O)c1ccc(C/N=c2\[n-]c(=NCc3ccccc3)[n-]/c(=N/Cc3ccccc3Cl)[n-]2)cc1

>  <Energy>  (19) 
57.323283065261826

>  <Genealogy>  (19) 
NS(=O)(=O)c1ccc(CN=c2[n-]c(=NCc3ccccc3)[n-]c(=NCc3ccccc3Cl)[n-]2)cc1 (protonated)
NS(=O)(=O)c1ccc(C/N=c2\[n-]c(=NCc3ccccc3)[n-]/c(=N/Cc3ccccc3Cl)[n-]2)cc1 (cis-trans isomerization)
NS(=O)(=O)c1ccc(C/N=c2\[n-]c(=NCc3ccccc3)[n-]/c(=N/Cc3ccccc3Cl)[n-]2)cc1 (3D coordinates assigned)
NS(=O)(=O)c1ccc(C/N=c2\[n-]c(=NCc3ccccc3)[n-]/c(=N/Cc3ccccc3Cl)[n-]2)cc1 (optimized conformer: 57.323283065261826 kcal/mol)

>  <smiles>  (19) 
NS(=O)(=O)c1ccc(CN=c2[nH]c(=NCc3ccccc3)[nH]c(=NCc3ccccc3Cl)[nH]2)cc1

>  <score_type>  (19) 
oracle

>  <origin>  (19) 
adg

>  <m_score__min__energy>  (19) 
-15.470000000000001

>  <m_primary>  (19) 
energy

$$$$
19:0
     RDKit          3D

 73 77  0  0  0  0  0  0  0  0999 V2000
   55.6653   28.4530   44.6908 H   0  0  0  0  0  0  0  0  0  0  0  0
   56.4540   29.1990   44.8680 C   0  0  0  0  0  0  0  0  0  0  0  0
   56.2720   30.4860   44.4680 N   0  0  0  0  0  0  0  0  0  0  0  0
   57.2360   31.4340   44.6440 C   0  0  0  0  0  0  0  0  0  0  0  0
   57.0470   32.6670   44.2790 N   0  0  0  0  0  0  0  0  0  0  0  0
   57.3930   33.8330   45.0380 C   0  0  0  0  0  0  0  0  0  0  0  0
   56.7700   34.9060   44.8000 O   0  0  0  0  0  0  0  0  0  0  0  0
   58.3980   33.7970   46.1290 C   0  0  0  0  0  0  0  0  0  0  0  0
   59.6790   34.3410   45.9220 C   0  0  0  0  0  0  0  0  0  0  0  0
   59.9374   34.7700   44.9426 H   0  0  0  0  0  0  0  0  0  0  0  0
   60.6260   34.3410   46.9500 C   0  0  0  0  0  0  0  0  0  0  0  0
   61.6191   34.7815   46.7779 H   0  0  0  0  0  0  0  0  0  0  0  0
   60.3180   33.7820   48.2020 C   0  0  0  0  0  0  0  0  0  0  0  0
   61.2620   33.8000   49.2860 N   0  0  0  0  0  0  0  0  0  0  0  0
   60.8980   33.7510   50.2650 H   0  0  0  0  0  0  0  0  0  0  0  0
   62.6860   33.8540   49.1180 C   0  0  0  0  0  0  0  0  0  0  0  0
   63.2160   33.5150   48.0250 O   0  0  0  0  0  0  0  0  0  0  0  0
   63.5040   34.2130   50.2370 N   0  0  0  0  0  0  0  0  0  0  0  0
   64.6750   33.5100   50.6930 C   0  0  0  0  0  0  0  0  0  0  0  0
   65.0690   32.2940   50.1040 C   0  0  0  0  0  0  0  0  0  0  0  0
   64.4644   31.8588   49.2946 H   0  0  0  0  0  0  0  0  0  0  0  0
   66.2220   31.6350   50.5390 C   0  0  0  0  0  0  0  0  0  0  0  0
   66.5148   30.6785   50.0813 H   0  0  0  0  0  0  0  0  0  0  0  0
   67.0010   32.1900   51.5530 C   0  0  0  0  0  0  0  0  0  0  0  0
   67.9047   31.6669   51.8988 H   0  0  0  0  0  0  0  0  0  0  0  0
   66.6370   33.4100   52.1320 C   0  0  0  0  0  0  0  0  0  0  0  0
   67.2599   33.8463   52.9268 H   0  0  0  0  0  0  0  0  0  0  0  0
   65.4790   34.0810   51.7030 C   0  0  0  0  0  0  0  0  0  0  0  0
   65.1100   35.4040   52.3150 C   0  0  0  0  0  0  0  0  0  0  0  0
   65.1334   35.3200   53.4115 H   0  0  0  0  0  0  0  0  0  0  0  0
   65.8284   36.1712   51.9906 H   0  0  0  0  0  0  0  0  0  0  0  0
   64.0982   35.6886   51.9906 H   0  0  0  0  0  0  0  0  0  0  0  0
   59.0310   33.2690   48.4190 C   0  0  0  0  0  0  0  0  0  0  0  0
   58.7700   32.8501   49.4021 H   0  0  0  0  0  0  0  0  0  0  0  0
   58.0770   33.2850   47.3980 C   0  0  0  0  0  0  0  0  0  0  0  0
   57.0668   32.8938   47.5890 H   0  0  0  0  0  0  0  0  0  0  0  0
   58.4450   31.0880   45.2610 C   0  0  0  0  0  0  0  0  0  0  0  0
   59.2392   31.8401   45.3774 H   0  0  0  0  0  0  0  0  0  0  0  0
   58.6410   29.7810   45.7300 C   0  0  0  0  0  0  0  0  0  0  0  0
   59.8820   29.4150   46.4510 C   0  0  0  0  0  0  0  0  0  0  0  0
   60.7340   28.6860   45.8720 O   0  0  0  0  0  0  0  0  0  0  0  0
   60.1420   29.8750   47.7940 N   0  0  0  0  0  0  0  0  0  0  0  0
   61.5410   30.0860   48.2130 C   0  0  0  0  0  0  0  0  0  0  0  0
   62.0576   29.1151   48.2355 H   0  0  0  0  0  0  0  0  0  0  0  0
   62.0179   30.7670   47.4926 H   0  0  0  0  0  0  0  0  0  0  0  0
   61.6210   30.7250   49.6040 C   0  0  0  0  0  0  0  0  0  0  0  0
   62.6575   30.6745   49.9689 H   0  0  0  0  0  0  0  0  0  0  0  0
   61.2992   31.7748   49.5379 H   0  0  0  0  0  0  0  0  0  0  0  0
   60.7410   30.0090   50.5380 N   0  0  0  0  0  0  0  0  0  0  0  0
   61.2070   29.6370   51.8450 C   0  0  0  0  0  0  0  0  0  0  0  0
   60.8940   28.5050   52.3140 O   0  0  0  0  0  0  0  0  0  0  0  0
   62.0200   30.5300   52.6300 N   0  0  0  0  0  0  0  0  0  0  0  0
   63.0670   29.9560   53.4890 C   0  0  0  0  0  0  0  0  0  0  0  0
   62.6251   29.1737   54.1236 H   0  0  0  0  0  0  0  0  0  0  0  0
   63.8544   29.5290   52.8505 H   0  0  0  0  0  0  0  0  0  0  0  0
   63.6830   31.0300   54.3750 C   0  0  0  0  0  0  0  0  0  0  0  0
   62.9736   31.3077   55.1685 H   0  0  0  0  0  0  0  0  0  0  0  0
   64.6057   30.6511   54.8388 H   0  0  0  0  0  0  0  0  0  0  0  0
   63.9710   32.1560   53.5810 O   0  0  0  0  0  0  0  0  0  0  0  0
   62.7750   32.8490   53.2650 C   0  0  0  0  0  0  0  0  0  0  0  0
   62.4328   33.3743   54.1689 H   0  0  0  0  0  0  0  0  0  0  0  0
   63.0176   33.5320   52.4376 H   0  0  0  0  0  0  0  0  0  0  0  0
   61.6200   31.9410   52.7650 C   0  0  0  0  0  0  0  0  0  0  0  0
   60.7884   32.0033   53.4823 H   0  0  0  0  0  0  0  0  0  0  0  0
   61.3262   32.2986   51.7671 H   0  0  0  0  0  0  0  0  0  0  0  0
   59.3940   29.5930   50.1180 C   0  0  0  0  0  0  0  0  0  0  0  0
   59.3522   28.4942   50.0882 H   0  0  0  0  0  0  0  0  0  0  0  0
   58.6679   29.9928   50.8412 H   0  0  0  0  0  0  0  0  0  0  0  0
   59.0450   30.1410   48.7350 C   0  0  0  0  0  0  0  0  0  0  0  0
   58.1280   29.6540   48.3716 H   0  0  0  0  0  0  0  0  0  0  0  0
   58.8888   31.2274   48.8075 H   0  0  0  0  0  0  0  0  0  0  0  0
   57.6410   28.8210   45.5040 C   0  0  0  0  0  0  0  0  0  0  0  0
   57.7902   27.7795   45.8248 H   0  0  0  0  0  0  0  0  0  0  0  0
  1  2  1  0
  2  3  1  0
  3  4  1  0
  4  5  2  0
  5  6  1  0
  6  7  2  0
  6  8  1  0
  8  9  2  0
  9 10  1  0
  9 11  1  0
 11 12  1  0
 11 13  2  0
 13 14  1  0
 14 15  1  0
 14 16  1  0
 16 17  2  0
 16 18  1  0
 18 19  1  0
 19 20  2  0
 20 21  1  0
 20 22  1  0
 22 23  1  0
 22 24  2  0
 24 25  1  0
 24 26  1  0
 26 27  1  0
 26 28  2  0
 28 29  1  0
 29 30  1  0
 29 31  1  0
 29 32  1  0
 13 33  1  0
 33 34  1  0
 33 35  2  0
 35 36  1  0
  4 37  1  0
 37 38  1  0
 37 39  2  0
 39 40  1  0
 40 41  2  0
 40 42  1  0
 42 43  1  0
 43 44  1  0
 43 45  1  0
 43 46  1  0
 46 47  1  0
 46 48  1  0
 46 49  1  0
 49 50  1  0
 50 51  2  0
 50 52  1  0
 52 53  1  0
 53 54  1  0
 53 55  1  0
 53 56  1  0
 56 57  1  0
 56 58  1  0
 56 59  1  0
 59 60  1  0
 60 61  1  0
 60 62  1  0
 60 63  1  0
 63 64  1  0
 63 65  1  0
 49 66  1  0
 66 67  1  0
 66 68  1  0
 66 69  1  0
 69 70  1  0
 69 71  1  0
 39 72  1  0
 72 73  1  0
 72  2  2  0
 35  8  1  0
 69 42  1  0
 28 19  1  0
 63 52  1  0
M  CHG  2   3  -1  18  -1
M  END
>  <UniqueID>  (20) 
19

>  <SMILES>  (20) 
Cc1ccccc1[N-]C(=O)Nc1ccc(C(=O)/N=c2/cc(C(=O)N3CCN(C(=O)N4CCOCC4)CC3)cc[n-]2)cc1

>  <Energy>  (20) 
108.57700916320805

>  <Genealogy>  (20) 
Cc1ccccc1[N-]C(=O)Nc1ccc(C(=O)N=c2cc(C(=O)N3CCN(C(=O)N4CCOCC4)CC3)cc[n-]2)cc1 (protonated)
Cc1ccccc1[N-]C(=O)Nc1ccc(C(=O)/N=c2/cc(C(=O)N3CCN(C(=O)N4CCOCC4)CC3)cc[n-]2)cc1 (cis-trans isomerization)
Cc1ccccc1[N-]C(=O)Nc1ccc(C(=O)/N=c2/cc(C(=O)N3CCN(C(=O)N4CCOCC4)CC3)cc[n-]2)cc1 (3D coordinates assigned)
Cc1ccccc1[N-]C(=O)Nc1ccc(C(=O)/N=c2/cc(C(=O)N3CCN(C(=O)N4CCOCC4)CC3)cc[n-]2)cc1 (nonaromatic ring conformer: 108.57700916320805 kcal/mol)

>  <smiles>  (20) 
Cc1ccccc1NC(=O)Nc1ccc(C(=O)N=c2cc(C(=O)N3CCN(C(=O)N4CCOCC4)CC3)cc[nH]2)cc1

>  <score_type>  (20) 
oracle

>  <origin>  (20) 
adg

>  <m_score__min__energy>  (20) 
-13.34

>  <m_primary>  (20) 
energy

$$$$
20:0
     RDKit          3D

 67 70  0  0  0  0  0  0  0  0999 V2000
   57.3760   27.8000   42.2960 O   0  0  0  0  0  0  0  0  0  0  0  0
   57.8580   27.9960   43.4460 C   0  0  0  0  0  0  0  0  0  0  0  0
   59.2400   27.7280   43.7090 N   0  0  0  0  0  0  0  0  0  0  0  0
   60.0540   28.2610   45.1420 S   0  0  0  0  0  0  0  0  0  0  0  0
   61.5360   28.2640   44.8920 O   0  0  0  0  0  0  0  0  0  0  0  0
   59.6200   29.6650   45.4700 O   0  0  0  0  0  0  0  0  0  0  0  0
   59.7020   27.1800   46.4550 N   0  0  0  0  0  0  0  0  0  0  0  0
   60.4130   27.2780   47.7330 C   0  0  0  0  0  0  0  0  0  0  0  0
   60.0880   28.5860   48.3980 C   0  0  0  0  0  0  0  0  0  0  0  0
   60.8790   29.0570   49.4560 C   0  0  0  0  0  0  0  0  0  0  0  0
   60.4930   30.1890   50.1750 C   0  0  0  0  0  0  0  0  0  0  0  0
   59.3050   30.8670   49.8540 C   0  0  0  0  0  0  0  0  0  0  0  0
   58.8410   32.0280   50.7130 C   0  0  0  0  0  0  0  0  0  0  0  0
   60.0180   32.6230   51.5050 C   0  0  0  0  0  0  0  0  0  0  0  0
   59.6020   33.8970   52.2670 C   0  0  0  0  0  0  0  0  0  0  0  0
   58.1140   33.9070   52.6810 C   0  0  0  0  0  0  0  0  0  0  0  0
   57.5830   32.4900   52.9200 C   0  0  0  0  0  0  0  0  0  0  0  0
   57.6710   31.6250   51.6450 C   0  0  0  0  0  0  0  0  0  0  0  0
   58.5230   30.4020   48.7820 C   0  0  0  0  0  0  0  0  0  0  0  0
   58.9140   29.2720   48.0580 C   0  0  0  0  0  0  0  0  0  0  0  0
   58.8660   26.0450   46.1970 C   0  0  0  0  0  0  0  0  0  0  0  0
   59.4510   24.8080   45.9060 C   0  0  0  0  0  0  0  0  0  0  0  0
   58.6510   23.6940   45.6430 C   0  0  0  0  0  0  0  0  0  0  0  0
   57.2610   23.8060   45.6770 C   0  0  0  0  0  0  0  0  0  0  0  0
   56.6490   25.0380   45.9800 C   0  0  0  0  0  0  0  0  0  0  0  0
   55.1640   25.1290   45.9930 C   0  0  0  0  0  0  0  0  0  0  0  0
   54.4580   24.1340   46.2990 O   0  0  0  0  0  0  0  0  0  0  0  0
   54.5310   26.3360   45.7100 O   0  0  0  0  0  0  0  0  0  0  0  0
   57.4650   26.1610   46.2530 C   0  0  0  0  0  0  0  0  0  0  0  0
   56.8990   27.3870   46.5980 O   0  0  0  0  0  0  0  0  0  0  0  0
   57.0120   28.4610   44.5080 N   0  0  0  0  0  0  0  0  0  0  0  0
   56.2280   29.6340   44.0810 C   0  0  0  0  0  0  0  0  0  0  0  0
   57.0620   30.8960   44.0850 C   0  0  0  0  0  0  0  0  0  0  0  0
   57.3960   31.5260   45.2970 C   0  0  0  0  0  0  0  0  0  0  0  0
   58.1000   32.7350   45.2910 C   0  0  0  0  0  0  0  0  0  0  0  0
   58.4660   33.3260   44.0780 C   0  0  0  0  0  0  0  0  0  0  0  0
   58.1380   32.7070   42.8680 C   0  0  0  0  0  0  0  0  0  0  0  0
   57.4290   31.5020   42.8690 C   0  0  0  0  0  0  0  0  0  0  0  0
   60.1042   26.4493   48.3871 H   0  0  0  0  0  0  0  0  0  0  0  0
   61.4964   27.2228   47.5508 H   0  0  0  0  0  0  0  0  0  0  0  0
   61.8084   28.5314   49.7204 H   0  0  0  0  0  0  0  0  0  0  0  0
   61.1236   30.5533   50.9994 H   0  0  0  0  0  0  0  0  0  0  0  0
   58.4552   32.8085   50.0407 H   0  0  0  0  0  0  0  0  0  0  0  0
   60.3762   31.8754   52.2280 H   0  0  0  0  0  0  0  0  0  0  0  0
   60.8118   32.8917   50.7924 H   0  0  0  0  0  0  0  0  0  0  0  0
   60.2170   33.9761   53.1755 H   0  0  0  0  0  0  0  0  0  0  0  0
   59.7547   34.7469   51.5855 H   0  0  0  0  0  0  0  0  0  0  0  0
   58.0057   34.4893   53.6079 H   0  0  0  0  0  0  0  0  0  0  0  0
   57.5333   34.3574   51.8625 H   0  0  0  0  0  0  0  0  0  0  0  0
   58.1779   32.0156   53.7144 H   0  0  0  0  0  0  0  0  0  0  0  0
   56.5249   32.5649   53.2113 H   0  0  0  0  0  0  0  0  0  0  0  0
   57.8077   30.5752   51.9436 H   0  0  0  0  0  0  0  0  0  0  0  0
   56.7380   31.7767   51.0823 H   0  0  0  0  0  0  0  0  0  0  0  0
   57.5973   30.9310   48.5113 H   0  0  0  0  0  0  0  0  0  0  0  0
   58.2976   28.9196   47.2178 H   0  0  0  0  0  0  0  0  0  0  0  0
   60.5466   24.7124   45.8842 H   0  0  0  0  0  0  0  0  0  0  0  0
   59.1180   22.7261   45.4085 H   0  0  0  0  0  0  0  0  0  0  0  0
   56.6375   22.9248   45.4654 H   0  0  0  0  0  0  0  0  0  0  0  0
   56.3570   27.6880   44.7730 H   0  0  0  0  0  0  0  0  0  0  0  0
   57.5950   28.6810   45.3550 H   0  0  0  0  0  0  0  0  0  0  0  0
   55.8509   29.4592   43.0626 H   0  0  0  0  0  0  0  0  0  0  0  0
   55.3985   29.7689   44.7908 H   0  0  0  0  0  0  0  0  0  0  0  0
   57.1029   31.0669   46.2527 H   0  0  0  0  0  0  0  0  0  0  0  0
   58.3657   33.2209   46.2414 H   0  0  0  0  0  0  0  0  0  0  0  0
   59.0133   34.2802   44.0756 H   0  0  0  0  0  0  0  0  0  0  0  0
   58.4377   33.1680   41.9153 H   0  0  0  0  0  0  0  0  0  0  0  0
   57.1569   31.0257   41.9155 H   0  0  0  0  0  0  0  0  0  0  0  0
  1  2  2  0
  2  3  1  0
  3  4  1  0
  4  5  2  0
  4  6  2  0
  4  7  1  0
  7  8  1  0
  8  9  1  0
  9 10  2  0
 10 11  1  0
 11 12  2  0
 12 13  1  0
 13 14  1  0
 14 15  1  0
 15 16  1  0
 16 17  1  0
 17 18  1  0
 12 19  1  0
 19 20  2  0
  7 21  1  0
 21 22  2  0
 22 23  1  0
 23 24  2  0
 24 25  1  0
 25 26  1  0
 26 27  2  0
 26 28  1  0
 25 29  2  0
 29 30  1  0
  2 31  1  0
 31 32  1  0
 32 33  1  0
 33 34  2  0
 34 35  1  0
 35 36  2  0
 36 37  1  0
 37 38  2  0
 20  9  1  0
 29 21  1  0
 38 33  1  0
 18 13  1  0
  8 39  1  0
  8 40  1  0
 10 41  1  0
 11 42  1  0
 13 43  1  0
 14 44  1  0
 14 45  1  0
 15 46  1  0
 15 47  1  0
 16 48  1  0
 16 49  1  0
 17 50  1  0
 17 51  1  0
 18 52  1  0
 18 53  1  0
 19 54  1  0
 20 55  1  0
 22 56  1  0
 23 57  1  0
 24 58  1  0
 31 59  1  0
 31 60  1  0
 32 61  1  0
 32 62  1  0
 34 63  1  0
 35 64  1  0
 36 65  1  0
 37 66  1  0
 38 67  1  0
M  CHG  4   3  -1  28  -1  30  -1  31   1
M  END
>  <UniqueID>  (21) 
20

>  <SMILES>  (21) 
O=C([N-]S(=O)(=O)N(Cc1ccc(C2CCCCC2)cc1)c1cccc(C(=O)[O-])c1[O-])[NH2+]Cc1ccccc1

>  <Energy>  (21) 
81.33756300366252

>  <Genealogy>  (21) 
O=C([N-]S(=O)(=O)N(Cc1ccc(C2CCCCC2)cc1)c1cccc(C(=O)[O-])c1[O-])[NH2+]Cc1ccccc1 (protonated)
O=C([N-]S(=O)(=O)N(Cc1ccc(C2CCCCC2)cc1)c1cccc(C(=O)[O-])c1[O-])[NH2+]Cc1ccccc1 (3D coordinates assigned)
O=C([N-]S(=O)(=O)N(Cc1ccc(C2CCCCC2)cc1)c1cccc(C(=O)[O-])c1[O-])[NH2+]Cc1ccccc1 (nonaromatic ring conformer: 81.33756300366252 kcal/mol)

>  <smiles>  (21) 
O=C(NCc1ccccc1)NS(=O)(=O)N(Cc1ccc(C2CCCCC2)cc1)c1cccc(C(=O)O)c1O

>  <score_type>  (21) 
oracle

>  <origin>  (21) 
adg

>  <m_score__min__energy>  (21) 
-16.77

>  <m_primary>  (21) 
energy

$$$$
21:0
     RDKit          3D

 51 53  0  0  0  0  0  0  0  0999 V2000
   59.6670   29.3910   45.8990 C   0  0  0  0  0  0  0  0  0  0  0  0
   58.9720   30.7230   45.7640 C   0  0  0  0  0  0  0  0  0  0  0  0
   59.5400   31.8480   46.3860 C   0  0  0  0  0  0  0  0  0  0  0  0
   58.9500   33.1160   46.2650 C   0  0  0  0  0  0  0  0  0  0  0  0
   59.5240   34.2790   46.9710 C   0  0  0  0  0  0  0  0  0  0  0  0
   60.2390   35.1020   46.3380 O   0  0  0  0  0  0  0  0  0  0  0  0
   59.2610   34.4700   48.3680 N   0  0  0  0  0  0  0  0  0  0  0  0
   59.8410   33.7020   49.4680 C   0  0  0  0  0  0  0  0  0  0  0  0
   61.2370   34.1970   49.8960 C   0  0  0  0  0  0  0  0  0  0  0  0
   62.3160   33.2640   49.5000 N   0  0  0  0  0  0  0  0  0  0  0  0
   63.2810   33.9220   48.5860 C   0  0  0  0  0  0  0  0  0  0  0  0
   62.9450   33.6510   47.1060 C   0  0  0  0  0  0  0  0  0  0  0  0
   62.8650   32.2740   46.7520 O   0  0  0  0  0  0  0  0  0  0  0  0
   62.6980   31.4090   47.8640 C   0  0  0  0  0  0  0  0  0  0  0  0
   61.7740   32.0000   48.9410 C   0  0  0  0  0  0  0  0  0  0  0  0
   57.7790   33.2560   45.5040 C   0  0  0  0  0  0  0  0  0  0  0  0
   57.1910   32.1440   44.9010 C   0  0  0  0  0  0  0  0  0  0  0  0
   57.7610   30.8680   45.0380 C   0  0  0  0  0  0  0  0  0  0  0  0
   56.9410   29.4740   44.3110 S   0  0  0  0  0  0  0  0  0  0  0  0
   55.7850   29.9610   43.4790 O   0  0  0  0  0  0  0  0  0  0  0  0
   57.9020   28.7250   43.4270 O   0  0  0  0  0  0  0  0  0  0  0  0
   56.3840   28.4380   45.5870 N   0  0  0  0  0  0  0  0  0  0  0  0
   56.7040   27.0520   45.7820 C   0  0  0  0  0  0  0  0  0  0  0  0
   58.0610   26.7000   45.8510 C   0  0  0  0  0  0  0  0  0  0  0  0
   58.4490   25.3750   46.0610 C   0  0  0  0  0  0  0  0  0  0  0  0
   57.4850   24.3850   46.2370 C   0  0  0  0  0  0  0  0  0  0  0  0
   56.1300   24.7180   46.1950 C   0  0  0  0  0  0  0  0  0  0  0  0
   55.7310   26.0420   45.9690 C   0  0  0  0  0  0  0  0  0  0  0  0
   54.3740   26.3340   45.9580 O   0  0  0  0  0  0  0  0  0  0  0  0
   59.7930   29.1495   46.9647 H   0  0  0  0  0  0  0  0  0  0  0  0
   59.0611   28.6106   45.4153 H   0  0  0  0  0  0  0  0  0  0  0  0
   60.6537   29.4416   45.4153 H   0  0  0  0  0  0  0  0  0  0  0  0
   60.4609   31.7332   46.9766 H   0  0  0  0  0  0  0  0  0  0  0  0
   59.1666   33.7711   50.3342 H   0  0  0  0  0  0  0  0  0  0  0  0
   59.9598   32.6678   49.1126 H   0  0  0  0  0  0  0  0  0  0  0  0
   61.4246   35.1733   49.4252 H   0  0  0  0  0  0  0  0  0  0  0  0
   61.2438   34.2689   50.9936 H   0  0  0  0  0  0  0  0  0  0  0  0
   63.2563   35.0073   48.7636 H   0  0  0  0  0  0  0  0  0  0  0  0
   64.2803   33.5102   48.7904 H   0  0  0  0  0  0  0  0  0  0  0  0
   61.9737   34.1176   46.8851 H   0  0  0  0  0  0  0  0  0  0  0  0
   63.7742   34.0729   46.5190 H   0  0  0  0  0  0  0  0  0  0  0  0
   62.2658   30.4611   47.5109 H   0  0  0  0  0  0  0  0  0  0  0  0
   63.6876   31.2594   48.3205 H   0  0  0  0  0  0  0  0  0  0  0  0
   60.7895   32.2019   48.4937 H   0  0  0  0  0  0  0  0  0  0  0  0
   61.6941   31.2705   49.7605 H   0  0  0  0  0  0  0  0  0  0  0  0
   57.3219   34.2491   45.3823 H   0  0  0  0  0  0  0  0  0  0  0  0
   56.2706   32.2681   44.3116 H   0  0  0  0  0  0  0  0  0  0  0  0
   58.8296   27.4787   45.7381 H   0  0  0  0  0  0  0  0  0  0  0  0
   59.5170   25.1128   46.0875 H   0  0  0  0  0  0  0  0  0  0  0  0
   57.7910   23.3425   46.4088 H   0  0  0  0  0  0  0  0  0  0  0  0
   55.3704   23.9357   46.3403 H   0  0  0  0  0  0  0  0  0  0  0  0
  1  2  1  0
  2  3  2  0
  3  4  1  0
  4  5  1  0
  5  6  2  0
  5  7  1  0
  7  8  1  0
  8  9  1  0
  9 10  1  0
 10 11  1  0
 11 12  1  0
 12 13  1  0
 13 14  1  0
 14 15  1  0
  4 16  2  0
 16 17  1  0
 17 18  2  0
 18 19  1  0
 19 20  2  0
 19 21  2  0
 19 22  1  0
 22 23  1  0
 23 24  2  0
 24 25  1  0
 25 26  2  0
 26 27  1  0
 27 28  2  0
 28 29  1  0
 18  2  1  0
 28 23  1  0
 15 10  1  0
  1 30  1  0
  1 31  1  0
  1 32  1  0
  3 33  1  0
  8 34  1  0
  8 35  1  0
  9 36  1  0
  9 37  1  0
 11 38  1  0
 11 39  1  0
 12 40  1  0
 12 41  1  0
 14 42  1  0
 14 43  1  0
 15 44  1  0
 15 45  1  0
 16 46  1  0
 17 47  1  0
 24 48  1  0
 25 49  1  0
 26 50  1  0
 27 51  1  0
M  CHG  3   7  -1  22  -1  29  -1
M  END
>  <UniqueID>  (22) 
21

>  <SMILES>  (22) 
Cc1cc(C(=O)[N-]CCN2CCOCC2)ccc1S(=O)(=O)[N-]c1ccccc1[O-]

>  <Energy>  (22) 
78.69933231603382

>  <Genealogy>  (22) 
Cc1cc(C(=O)[N-]CCN2CCOCC2)ccc1S(=O)(=O)[N-]c1ccccc1[O-] (protonated)
Cc1cc(C(=O)[N-]CCN2CCOCC2)ccc1S(=O)(=O)[N-]c1ccccc1[O-] (3D coordinates assigned)
Cc1cc(C(=O)[N-]CCN2CCOCC2)ccc1S(=O)(=O)[N-]c1ccccc1[O-] (nonaromatic ring conformer: 78.69933231603382 kcal/mol)

>  <smiles>  (22) 
Cc1cc(C(=O)NCCN2CCOCC2)ccc1S(=O)(=O)Nc1ccccc1O

>  <score_type>  (22) 
oracle

>  <origin>  (22) 
adg

>  <m_score__min__energy>  (22) 
-15.880000000000001

>  <m_primary>  (22) 
energy

$$$$
22:0
     RDKit          3D

 51 54  0  0  1  0  0  0  0  0999 V2000
   55.5270   27.3600   45.6300 F   0  0  0  0  0  0  0  0  0  0  0  0
   56.7620   26.9070   45.8620 C   0  0  0  0  0  0  0  0  0  0  0  0
   56.9190   25.6590   46.4460 C   0  0  0  0  0  0  0  0  0  0  0  0
   55.8020   24.9490   46.7530 O   0  0  0  0  0  0  0  0  0  0  0  0
   55.3560   23.7300   46.2540 C   0  0  0  0  0  0  0  0  0  0  0  0
   56.3690   23.2160   45.2940 C   0  0  0  0  0  0  0  0  0  0  0  0
   57.2120   22.1600   45.9040 C   0  0  0  0  0  0  0  0  0  0  0  0
   57.3930   22.3520   47.3050 N   0  0  0  0  0  0  0  0  0  0  0  0
   56.1740   22.2100   48.0690 C   0  0  0  0  0  0  0  0  0  0  0  0
   54.9760   22.7500   47.3400 C   0  0  0  0  0  0  0  0  0  0  0  0
   58.1870   25.2610   46.6580 N   0  0  0  0  0  0  0  0  0  0  0  0
   59.2600   26.0110   46.3320 C   0  0  0  0  0  0  0  0  0  0  0  0
   59.0590   27.2250   45.7620 N   0  0  0  0  0  0  0  0  0  0  0  0
   57.8370   27.6960   45.5170 C   0  0  0  0  0  0  0  0  0  0  0  0
   57.6620   28.8330   44.9770 N   0  0  0  0  0  0  0  0  0  0  0  0
   58.1490   30.0570   45.5120 C   0  0  0  0  0  0  0  0  0  0  0  0
   58.8490   30.1490   46.6940 C   0  0  0  0  0  0  0  0  0  0  0  0
   59.3050   31.3710   47.1770 C   0  0  0  0  0  0  0  0  0  0  0  0
   59.0260   32.4910   46.4230 C   0  0  0  0  0  0  0  0  0  0  0  0
   59.4680   33.8640   46.8330 C   0  0  0  0  0  0  0  0  0  0  0  0
   60.8580   33.8440   47.3460 C   0  0  0  0  0  0  0  0  0  0  0  0
   61.1790   33.9120   48.6870 C   0  0  0  0  0  0  0  0  0  0  0  0
   62.5200   33.8850   49.0650 C   0  0  0  0  0  0  0  0  0  0  0  0
   63.5370   33.7880   48.1150 C   0  0  0  0  0  0  0  0  0  0  0  0
   63.2010   33.7200   46.7820 C   0  0  0  0  0  0  0  0  0  0  0  0
   61.8650   33.7470   46.3790 C   0  0  0  0  0  0  0  0  0  0  0  0
   58.3250   32.4170   45.2330 C   0  0  0  0  0  0  0  0  0  0  0  0
   57.8770   31.2000   44.7630 C   0  0  0  0  0  0  0  0  0  0  0  0
   54.4113   23.8779   45.7103 H   0  0  0  0  0  0  0  0  0  0  0  0
   55.8511   22.7979   44.4182 H   0  0  0  0  0  0  0  0  0  0  0  0
   57.0219   24.0518   45.0021 H   0  0  0  0  0  0  0  0  0  0  0  0
   56.7303   21.1847   45.7402 H   0  0  0  0  0  0  0  0  0  0  0  0
   58.2028   22.2047   45.4282 H   0  0  0  0  0  0  0  0  0  0  0  0
   57.9710   23.1540   47.5620 H   0  0  0  0  0  0  0  0  0  0  0  0
   56.0096   21.1424   48.2770 H   0  0  0  0  0  0  0  0  0  0  0  0
   56.2905   22.7878   48.9978 H   0  0  0  0  0  0  0  0  0  0  0  0
   54.4321   21.9100   46.8833 H   0  0  0  0  0  0  0  0  0  0  0  0
   54.3515   23.2847   48.0708 H   0  0  0  0  0  0  0  0  0  0  0  0
   58.3640   24.3470   47.0850 H   0  0  0  0  0  0  0  0  0  0  0  0
   60.2791   25.6446   46.5250 H   0  0  0  0  0  0  0  0  0  0  0  0
   59.0525   29.2343   47.2701 H   0  0  0  0  0  0  0  0  0  0  0  0
   59.8649   31.4409   48.1212 H   0  0  0  0  0  0  0  0  0  0  0  0
   59.4158   34.5337   45.9619 H   0  0  0  0  0  0  0  0  0  0  0  0
   58.8041   34.2209   47.6342 H   0  0  0  0  0  0  0  0  0  0  0  0
   60.3870   33.9865   49.4467 H   0  0  0  0  0  0  0  0  0  0  0  0
   62.7814   33.9412   50.1320 H   0  0  0  0  0  0  0  0  0  0  0  0
   64.5917   33.7662   48.4266 H   0  0  0  0  0  0  0  0  0  0  0  0
   63.9953   33.6434   46.0249 H   0  0  0  0  0  0  0  0  0  0  0  0
   61.6060   33.6925   45.3113 H   0  0  0  0  0  0  0  0  0  0  0  0
   58.1237   33.3332   44.6585 H   0  0  0  0  0  0  0  0  0  0  0  0
   57.3176   31.1334   43.8182 H   0  0  0  0  0  0  0  0  0  0  0  0
  1  2  1  0
  2  3  2  0
  3  4  1  0
  4  5  1  0
  5  6  1  0
  6  7  1  0
  7  8  1  0
  8  9  1  0
  9 10  1  0
  3 11  1  0
 11 12  1  0
 12 13  2  0
 13 14  1  0
 14 15  2  0
 15 16  1  0
 16 17  2  0
 17 18  1  0
 18 19  2  0
 19 20  1  0
 20 21  1  0
 21 22  2  0
 22 23  1  0
 23 24  2  0
 24 25  1  0
 25 26  2  0
 19 27  1  0
 27 28  2  0
 14  2  1  0
 28 16  1  0
 10  5  1  0
 26 21  1  0
  5 29  1  0
  6 30  1  0
  6 31  1  0
  7 32  1  0
  7 33  1  0
  8 34  1  0
  9 35  1  0
  9 36  1  0
 10 37  1  0
 10 38  1  0
 11 39  1  0
 12 40  1  0
 17 41  1  0
 18 42  1  0
 20 43  1  0
 20 44  1  0
 22 45  1  0
 23 46  1  0
 24 47  1  0
 25 48  1  0
 26 49  1  0
 27 50  1  0
 28 51  1  0
M  END
>  <smiles>  (23) 
Fc1c(OC2CCNCC2)[nH]cnc1=Nc1ccc(Cc2ccccc2)cc1

>  <score_type>  (23) 
oracle

>  <origin>  (23) 
adg

>  <m_score__min__energy>  (23) 
-9.0600000000000005

>  <m_primary>  (23) 
energy

$$$$
23:0
     RDKit          3D

 38 39  0  0  0  0  0  0  0  0999 V2000
   60.6680   29.3710   48.8110 C   0  0  0  0  0  0  0  0  0  0  0  0
   60.2180   31.0580   48.4690 S   0  0  0  0  0  0  0  0  0  0  0  0
   60.7980   31.4750   47.1480 O   0  0  0  0  0  0  0  0  0  0  0  0
   58.7190   31.1560   48.3980 O   0  0  0  0  0  0  0  0  0  0  0  0
   60.7870   32.1160   49.7250 N   0  0  0  0  0  0  0  0  0  0  0  0
   61.0150   33.4730   49.2230 C   0  0  0  0  0  0  0  0  0  0  0  0
   59.6860   34.2090   49.0310 C   0  0  0  0  0  0  0  0  0  0  0  0
   59.2960   34.2600   47.5880 C   0  0  0  0  0  0  0  0  0  0  0  0
   58.2040   33.6420   47.0890 N   0  0  0  0  0  0  0  0  0  0  0  0
   58.1150   33.7820   45.7390 C   0  0  0  0  0  0  0  0  0  0  0  0
   57.0190   33.1340   44.9540 C   0  0  0  0  0  0  0  0  0  0  0  0
   57.1750   31.6440   44.9940 C   0  0  0  0  0  0  0  0  0  0  0  0
   56.2780   30.9190   44.4850 O   0  0  0  0  0  0  0  0  0  0  0  0
   58.2940   31.0600   45.6830 N   0  0  0  0  0  0  0  0  0  0  0  0
   58.6040   29.6550   45.7150 C   0  0  0  0  0  0  0  0  0  0  0  0
   59.9060   29.2370   45.3980 C   0  0  0  0  0  0  0  0  0  0  0  0
   60.2340   27.8780   45.3920 C   0  0  0  0  0  0  0  0  0  0  0  0
   59.2610   26.9230   45.6930 C   0  0  0  0  0  0  0  0  0  0  0  0
   57.9540   27.3230   45.9920 C   0  0  0  0  0  0  0  0  0  0  0  0
   56.7300   26.1180   46.3500 Cl  0  0  0  0  0  0  0  0  0  0  0  0
   57.6210   28.6820   45.9920 C   0  0  0  0  0  0  0  0  0  0  0  0
   59.1590   34.4910   45.1480 C   0  0  0  0  0  0  0  0  0  0  0  0
   60.2140   34.9650   46.3690 S   0  0  0  0  0  0  0  0  0  0  0  0
   60.7094   29.2160   49.8992 H   0  0  0  0  0  0  0  0  0  0  0  0
   59.9186   28.6955   48.3726 H   0  0  0  0  0  0  0  0  0  0  0  0
   61.6542   29.1585   48.3726 H   0  0  0  0  0  0  0  0  0  0  0  0
   61.6332   34.0262   49.9454 H   0  0  0  0  0  0  0  0  0  0  0  0
   61.5278   33.4095   48.2519 H   0  0  0  0  0  0  0  0  0  0  0  0
   58.9012   33.6846   49.5959 H   0  0  0  0  0  0  0  0  0  0  0  0
   59.8047   35.2402   49.3950 H   0  0  0  0  0  0  0  0  0  0  0  0
   56.0468   33.4107   45.3880 H   0  0  0  0  0  0  0  0  0  0  0  0
   57.0708   33.4756   43.9097 H   0  0  0  0  0  0  0  0  0  0  0  0
   58.8620   31.6930   46.2920 H   0  0  0  0  0  0  0  0  0  0  0  0
   60.6744   29.9848   45.1523 H   0  0  0  0  0  0  0  0  0  0  0  0
   61.2592   27.5610   45.1500 H   0  0  0  0  0  0  0  0  0  0  0  0
   59.5224   25.8545   45.6951 H   0  0  0  0  0  0  0  0  0  0  0  0
   56.5884   28.9929   46.2089 H   0  0  0  0  0  0  0  0  0  0  0  0
   59.2728   34.7028   44.0746 H   0  0  0  0  0  0  0  0  0  0  0  0
  1  2  1  0
  2  3  2  0
  2  4  2  0
  2  5  1  0
  5  6  1  0
  6  7  1  0
  7  8  1  0
  8  9  2  0
  9 10  1  0
 10 11  1  0
 11 12  1  0
 12 13  2  0
 12 14  1  0
 14 15  1  0
 15 16  2  0
 16 17  1  0
 17 18  2  0
 18 19  1  0
 19 20  1  0
 19 21  2  0
 10 22  2  0
 22 23  1  0
 23  8  1  0
 21 15  1  0
  1 24  1  0
  1 25  1  0
  1 26  1  0
  6 27  1  0
  6 28  1  0
  7 29  1  0
  7 30  1  0
 11 31  1  0
 11 32  1  0
 14 33  1  0
 16 34  1  0
 17 35  1  0
 18 36  1  0
 21 37  1  0
 22 38  1  0
M  CHG  1   5  -1
M  END
>  <UniqueID>  (24) 
22

>  <SMILES>  (24) 
CS(=O)(=O)[N-]CCc1nc(CC(=O)Nc2cccc(Cl)c2)cs1

>  <Energy>  (24) 
59.72652465946155

>  <Genealogy>  (24) 
CS(=O)(=O)[N-]CCc1nc(CC(=O)Nc2cccc(Cl)c2)cs1 (protonated)
CS(=O)(=O)[N-]CCc1nc(CC(=O)Nc2cccc(Cl)c2)cs1 (3D coordinates assigned)
CS(=O)(=O)[N-]CCc1nc(CC(=O)Nc2cccc(Cl)c2)cs1 (optimized conformer: 59.72652465946155 kcal/mol)

>  <smiles>  (24) 
CS(=O)(=O)NCCc1nc(CC(=O)Nc2cccc(Cl)c2)cs1

>  <score_type>  (24) 
oracle

>  <origin>  (24) 
adg

>  <m_score__min__energy>  (24) 
-10.630000000000001

>  <m_primary>  (24) 
energy

$$$$
24:0
     RDKit          3D

 43 45  0  0  0  0  0  0  0  0999 V2000
   58.2180   30.0740   44.0250 O   0  0  0  0  0  0  0  0  0  0  0  0
   57.2370   30.2510   44.7930 C   0  0  0  0  0  0  0  0  0  0  0  0
   56.6440   31.5520   44.8610 N   0  0  0  0  0  0  0  0  0  0  0  0
   57.5140   33.0350   44.6380 S   0  0  0  0  0  0  0  0  0  0  0  0
   56.6010   34.1890   44.9320 O   0  0  0  0  0  0  0  0  0  0  0  0
   57.9700   33.1250   43.2080 O   0  0  0  0  0  0  0  0  0  0  0  0
   58.8880   33.0950   45.7360 C   0  0  0  0  0  0  0  0  0  0  0  0
   59.4270   31.9080   46.2480 C   0  0  0  0  0  0  0  0  0  0  0  0
   60.5280   31.9470   47.1070 C   0  0  0  0  0  0  0  0  0  0  0  0
   61.1000   33.1770   47.4700 C   0  0  0  0  0  0  0  0  0  0  0  0
   62.2430   33.2140   48.3420 N   0  0  0  0  0  0  0  0  0  0  0  0
   62.0390   33.0650   49.7900 C   0  0  0  0  0  0  0  0  0  0  0  0
   63.2310   33.6090   50.5820 C   0  0  0  0  0  0  0  0  0  0  0  0
   64.5260   32.9360   50.1210 C   0  0  0  0  0  0  0  0  0  0  0  0
   64.7050   33.1030   48.6830 N   0  0  0  0  0  0  0  0  0  0  0  0
   63.5800   33.1730   47.8010 C   0  0  0  0  0  0  0  0  0  0  0  0
   63.7700   33.2440   46.5570 O   0  0  0  0  0  0  0  0  0  0  0  0
   60.5560   34.3660   46.9580 C   0  0  0  0  0  0  0  0  0  0  0  0
   59.4550   34.3260   46.0980 C   0  0  0  0  0  0  0  0  0  0  0  0
   56.7020   29.1470   45.5460 N   0  0  0  0  0  0  0  0  0  0  0  0
   57.3990   27.9070   45.7520 C   0  0  0  0  0  0  0  0  0  0  0  0
   58.7900   27.9240   45.9450 C   0  0  0  0  0  0  0  0  0  0  0  0
   59.4930   26.7280   46.1310 C   0  0  0  0  0  0  0  0  0  0  0  0
   58.8130   25.5070   46.1150 C   0  0  0  0  0  0  0  0  0  0  0  0
   59.4960   24.3500   46.2970 F   0  0  0  0  0  0  0  0  0  0  0  0
   57.4330   25.4790   45.9030 C   0  0  0  0  0  0  0  0  0  0  0  0
   56.7270   26.6720   45.7160 C   0  0  0  0  0  0  0  0  0  0  0  0
   58.9814   30.9408   45.9725 H   0  0  0  0  0  0  0  0  0  0  0  0
   60.9487   31.0100   47.5008 H   0  0  0  0  0  0  0  0  0  0  0  0
   61.1335   33.6169   50.0823 H   0  0  0  0  0  0  0  0  0  0  0  0
   61.9338   31.9936   50.0159 H   0  0  0  0  0  0  0  0  0  0  0  0
   63.3088   34.6944   50.4211 H   0  0  0  0  0  0  0  0  0  0  0  0
   63.0779   33.3967   51.6504 H   0  0  0  0  0  0  0  0  0  0  0  0
   65.3778   33.3916   50.6471 H   0  0  0  0  0  0  0  0  0  0  0  0
   64.4694   31.8616   50.3499 H   0  0  0  0  0  0  0  0  0  0  0  0
   65.6700   33.0750   48.2840 H   0  0  0  0  0  0  0  0  0  0  0  0
   60.9987   35.3340   47.2353 H   0  0  0  0  0  0  0  0  0  0  0  0
   59.0321   35.2619   45.7041 H   0  0  0  0  0  0  0  0  0  0  0  0
   55.7120   29.2010   45.8720 H   0  0  0  0  0  0  0  0  0  0  0  0
   59.3299   28.8824   45.9500 H   0  0  0  0  0  0  0  0  0  0  0  0
   60.5813   26.7491   46.2899 H   0  0  0  0  0  0  0  0  0  0  0  0
   56.9001   24.5169   45.8830 H   0  0  0  0  0  0  0  0  0  0  0  0
   55.6415   26.6441   45.5400 H   0  0  0  0  0  0  0  0  0  0  0  0
  1  2  2  0
  2  3  1  0
  3  4  1  0
  4  5  2  0
  4  6  2  0
  4  7  1  0
  7  8  2  0
  8  9  1  0
  9 10  2  0
 10 11  1  0
 11 12  1  0
 12 13  1  0
 13 14  1  0
 14 15  1  0
 15 16  1  0
 16 17  2  0
 10 18  1  0
 18 19  2  0
  2 20  1  0
 20 21  1  0
 21 22  2  0
 22 23  1  0
 23 24  2  0
 24 25  1  0
 24 26  1  0
 26 27  2  0
 19  7  1  0
 27 21  1  0
 16 11  1  0
  8 28  1  0
  9 29  1  0
 12 30  1  0
 12 31  1  0
 13 32  1  0
 13 33  1  0
 14 34  1  0
 14 35  1  0
 15 36  1  0
 18 37  1  0
 19 38  1  0
 20 39  1  0
 22 40  1  0
 23 41  1  0
 26 42  1  0
 27 43  1  0
M  CHG  1   3  -1
M  END
>  <UniqueID>  (25) 
23

>  <SMILES>  (25) 
O=C([N-]S(=O)(=O)c1ccc(N2CCCNC2=O)cc1)Nc1ccc(F)cc1

>  <Energy>  (25) 
53.11797515648565

>  <Genealogy>  (25) 
O=C([N-]S(=O)(=O)c1ccc(N2CCCNC2=O)cc1)Nc1ccc(F)cc1 (protonated)
O=C([N-]S(=O)(=O)c1ccc(N2CCCNC2=O)cc1)Nc1ccc(F)cc1 (3D coordinates assigned)
O=C([N-]S(=O)(=O)c1ccc(N2CCCNC2=O)cc1)Nc1ccc(F)cc1 (nonaromatic ring conformer: 53.11797515648565 kcal/mol)

>  <smiles>  (25) 
O=C(Nc1ccc(F)cc1)NS(=O)(=O)c1ccc(N2CCCNC2=O)cc1

>  <score_type>  (25) 
oracle

>  <origin>  (25) 
adg

>  <m_score__min__energy>  (25) 
-10.039999999999999

>  <m_primary>  (25) 
energy

$$$$
25:0
     RDKit          3D

 42 44  0  0  0  0  0  0  0  0999 V2000
   59.9940   36.3130   45.5560 C   0  0  0  0  0  0  0  0  0  0  0  0
   59.6440   34.8730   45.7810 C   0  0  0  0  0  0  0  0  0  0  0  0
   60.2210   34.1640   46.8450 C   0  0  0  0  0  0  0  0  0  0  0  0
   59.9230   32.8100   47.0360 C   0  0  0  0  0  0  0  0  0  0  0  0
   59.0450   32.1500   46.1630 C   0  0  0  0  0  0  0  0  0  0  0  0
   58.7510   30.6900   46.3460 C   0  0  0  0  0  0  0  0  0  0  0  0
   57.5370   30.3460   45.6140 N   0  0  0  0  0  0  0  0  0  0  0  0
   56.9350   29.0470   45.6270 C   0  0  0  0  0  0  0  0  0  0  0  0
   55.9430   28.8320   44.8800 O   0  0  0  0  0  0  0  0  0  0  0  0
   57.4860   27.9420   46.4900 C   0  0  0  0  0  0  0  0  0  0  0  0
   57.2120   26.6260   45.9120 N   0  0  0  0  0  0  0  0  0  0  0  0
   58.1220   25.6940   45.5560 C   0  0  0  0  0  0  0  0  0  0  0  0
   59.4980   25.8760   45.6270 O   0  0  0  0  0  0  0  0  0  0  0  0
   57.4890   24.5450   45.1230 C   0  0  0  0  0  0  0  0  0  0  0  0
   56.1370   24.7940   45.1930 C   0  0  0  0  0  0  0  0  0  0  0  0
   55.9980   26.0670   45.7090 C   0  0  0  0  0  0  0  0  0  0  0  0
   54.7910   26.6920   45.9950 O   0  0  0  0  0  0  0  0  0  0  0  0
   55.0820   23.7740   44.8890 C   0  0  0  0  0  0  0  0  0  0  0  0
   55.6710   22.6360   44.0310 C   0  0  0  0  0  0  0  0  0  0  0  0
   57.0340   22.1550   44.5760 C   0  0  0  0  0  0  0  0  0  0  0  0
   58.0840   23.2840   44.5740 C   0  0  0  0  0  0  0  0  0  0  0  0
   58.4950   32.8510   45.0790 C   0  0  0  0  0  0  0  0  0  0  0  0
   58.7930   34.2030   44.8890 C   0  0  0  0  0  0  0  0  0  0  0  0
   60.1164   36.8165   46.5263 H   0  0  0  0  0  0  0  0  0  0  0  0
   60.9340   36.3775   44.9883 H   0  0  0  0  0  0  0  0  0  0  0  0
   59.1885   36.8017   44.9883 H   0  0  0  0  0  0  0  0  0  0  0  0
   60.9111   34.6748   47.5326 H   0  0  0  0  0  0  0  0  0  0  0  0
   60.3787   32.2613   47.8734 H   0  0  0  0  0  0  0  0  0  0  0  0
   59.5926   30.0950   45.9617 H   0  0  0  0  0  0  0  0  0  0  0  0
   58.6095   30.4744   47.4153 H   0  0  0  0  0  0  0  0  0  0  0  0
   58.5742   28.0714   46.5856 H   0  0  0  0  0  0  0  0  0  0  0  0
   56.9985   27.9959   47.4746 H   0  0  0  0  0  0  0  0  0  0  0  0
   54.6981   23.3567   45.8316 H   0  0  0  0  0  0  0  0  0  0  0  0
   54.2661   24.2575   44.3317 H   0  0  0  0  0  0  0  0  0  0  0  0
   54.9685   21.7896   44.0310 H   0  0  0  0  0  0  0  0  0  0  0  0
   55.8259   23.0203   43.0120 H   0  0  0  0  0  0  0  0  0  0  0  0
   56.8985   21.7970   45.6073 H   0  0  0  0  0  0  0  0  0  0  0  0
   57.3981   21.3493   43.9215 H   0  0  0  0  0  0  0  0  0  0  0  0
   58.9401   22.9851   45.1966 H   0  0  0  0  0  0  0  0  0  0  0  0
   58.4157   23.4638   43.5407 H   0  0  0  0  0  0  0  0  0  0  0  0
   57.8261   32.3338   44.3754 H   0  0  0  0  0  0  0  0  0  0  0  0
   58.3583   34.7446   44.0360 H   0  0  0  0  0  0  0  0  0  0  0  0
  1  2  1  0
  2  3  2  0
  3  4  1  0
  4  5  2  0
  5  6  1  0
  6  7  1  0
  7  8  1  0
  8  9  2  0
  8 10  1  0
 10 11  1  0
 11 12  1  0
 12 13  1  0
 12 14  2  0
 14 15  1  0
 15 16  2  0
 16 17  1  0
 15 18  1  0
 18 19  1  0
 19 20  1  0
 20 21  1  0
  5 22  1  0
 22 23  2  0
 23  2  1  0
 16 11  1  0
 21 14  1  0
  1 24  1  0
  1 25  1  0
  1 26  1  0
  3 27  1  0
  4 28  1  0
  6 29  1  0
  6 30  1  0
 10 31  1  0
 10 32  1  0
 18 33  1  0
 18 34  1  0
 19 35  1  0
 19 36  1  0
 20 37  1  0
 20 38  1  0
 21 39  1  0
 21 40  1  0
 22 41  1  0
 23 42  1  0
M  CHG  3   7  -1  13  -1  17  -1
M  END
>  <UniqueID>  (26) 
24

>  <SMILES>  (26) 
Cc1ccc(C[N-]C(=O)Cn2c([O-])c3c(c2[O-])CCCC3)cc1

>  <Energy>  (26) 
67.91917072508832

>  <Genealogy>  (26) 
Cc1ccc(C[N-]C(=O)Cn2c([O-])c3c(c2[O-])CCCC3)cc1 (protonated)
Cc1ccc(C[N-]C(=O)Cn2c([O-])c3c(c2[O-])CCCC3)cc1 (3D coordinates assigned)
Cc1ccc(C[N-]C(=O)Cn2c([O-])c3c(c2[O-])CCCC3)cc1 (nonaromatic ring conformer: 67.91917072508832 kcal/mol)

>  <smiles>  (26) 
Cc1ccc(CNC(=O)Cn2c(O)c3c(c2O)CCCC3)cc1

>  <score_type>  (26) 
oracle

>  <origin>  (26) 
adg

>  <m_score__min__energy>  (26) 
-14

>  <m_primary>  (26) 
energy

$$$$
26:0
     RDKit          3D

 39 40  0  0  0  0  0  0  0  0999 V2000
   58.7900   30.7460   49.0750 O   0  0  0  0  0  0  0  0  0  0  0  0
   58.5780   31.8860   49.5700 C   0  0  0  0  0  0  0  0  0  0  0  0
   59.0430   33.1030   48.8290 C   0  0  0  0  0  0  0  0  0  0  0  0
   60.5300   33.0410   48.6160 C   0  0  0  0  0  0  0  0  0  0  0  0
   61.0760   32.1580   47.6690 C   0  0  0  0  0  0  0  0  0  0  0  0
   62.4560   32.1250   47.4490 C   0  0  0  0  0  0  0  0  0  0  0  0
   63.3000   32.9790   48.1660 C   0  0  0  0  0  0  0  0  0  0  0  0
   62.7630   33.8680   49.1010 C   0  0  0  0  0  0  0  0  0  0  0  0
   61.3840   33.9040   49.3240 C   0  0  0  0  0  0  0  0  0  0  0  0
   57.9370   32.0260   50.8480 N   0  0  0  0  0  0  0  0  0  0  0  0
   57.4780   30.9210   51.6410 C   0  0  0  0  0  0  0  0  0  0  0  0
   57.6740   29.7350   51.2620 O   0  0  0  0  0  0  0  0  0  0  0  0
   56.7840   31.1760   52.8720 N   0  0  0  0  0  0  0  0  0  0  0  0
   56.1170   30.1220   53.6370 C   0  0  0  0  0  0  0  0  0  0  0  0
   55.1100   29.3670   52.7610 C   0  0  0  0  0  0  0  0  0  0  0  0
   53.9030   30.2140   52.4480 C   0  0  0  0  0  0  0  0  0  0  0  0
   53.7650   30.8060   51.1810 C   0  0  0  0  0  0  0  0  0  0  0  0
   52.6710   31.6340   50.9060 C   0  0  0  0  0  0  0  0  0  0  0  0
   51.7140   31.8830   51.8950 C   0  0  0  0  0  0  0  0  0  0  0  0
   50.6310   32.7080   51.6210 O   0  0  0  0  0  0  0  0  0  0  0  0
   51.8500   31.3030   53.1600 C   0  0  0  0  0  0  0  0  0  0  0  0
   52.9400   30.4740   53.4370 C   0  0  0  0  0  0  0  0  0  0  0  0
   58.5373   33.1503   47.8533 H   0  0  0  0  0  0  0  0  0  0  0  0
   58.8008   33.9988   49.4197 H   0  0  0  0  0  0  0  0  0  0  0  0
   60.4144   31.4897   47.0982 H   0  0  0  0  0  0  0  0  0  0  0  0
   62.8784   31.4268   46.7114 H   0  0  0  0  0  0  0  0  0  0  0  0
   64.3861   32.9510   47.9941 H   0  0  0  0  0  0  0  0  0  0  0  0
   63.4274   34.5410   49.6628 H   0  0  0  0  0  0  0  0  0  0  0  0
   60.9654   34.6102   50.0562 H   0  0  0  0  0  0  0  0  0  0  0  0
   57.7790   32.9920   51.2150 H   0  0  0  0  0  0  0  0  0  0  0  0
   56.6250   32.1660   53.1630 H   0  0  0  0  0  0  0  0  0  0  0  0
   56.8721   29.4144   54.0101 H   0  0  0  0  0  0  0  0  0  0  0  0
   55.5770   30.5839   54.4766 H   0  0  0  0  0  0  0  0  0  0  0  0
   55.6001   29.0817   51.8185 H   0  0  0  0  0  0  0  0  0  0  0  0
   54.7725   28.4774   53.3130 H   0  0  0  0  0  0  0  0  0  0  0  0
   54.5194   30.6179   50.4029 H   0  0  0  0  0  0  0  0  0  0  0  0
   52.5636   32.0897   49.9106 H   0  0  0  0  0  0  0  0  0  0  0  0
   51.0978   31.4997   53.9381 H   0  0  0  0  0  0  0  0  0  0  0  0
   53.0446   30.0226   54.4347 H   0  0  0  0  0  0  0  0  0  0  0  0
  1  2  2  0
  2  3  1  0
  3  4  1  0
  4  5  2  0
  5  6  1  0
  6  7  2  0
  7  8  1  0
  8  9  2  0
  2 10  1  0
 10 11  1  0
 11 12  2  0
 11 13  1  0
 13 14  1  0
 14 15  1  0
 15 16  1  0
 16 17  2  0
 17 18  1  0
 18 19  2  0
 19 20  1  0
 19 21  1  0
 21 22  2  0
  9  4  1  0
 22 16  1  0
  3 23  1  0
  3 24  1  0
  5 25  1  0
  6 26  1  0
  7 27  1  0
  8 28  1  0
  9 29  1  0
 10 30  1  0
 13 31  1  0
 14 32  1  0
 14 33  1  0
 15 34  1  0
 15 35  1  0
 17 36  1  0
 18 37  1  0
 21 38  1  0
 22 39  1  0
M  CHG  1  20  -1
M  END
>  <UniqueID>  (27) 
25

>  <SMILES>  (27) 
O=C(Cc1ccccc1)NC(=O)NCCc1ccc([O-])cc1

>  <Energy>  (27) 
31.822296433563118

>  <Genealogy>  (27) 
O=C(Cc1ccccc1)NC(=O)NCCc1ccc([O-])cc1 (protonated)
O=C(Cc1ccccc1)NC(=O)NCCc1ccc([O-])cc1 (3D coordinates assigned)
O=C(Cc1ccccc1)NC(=O)NCCc1ccc([O-])cc1 (optimized conformer: 31.822296433563118 kcal/mol)

>  <smiles>  (27) 
O=C(Cc1ccccc1)NC(=O)NCCc1ccc(O)cc1

>  <score_type>  (27) 
oracle

>  <origin>  (27) 
adg

>  <m_score__min__energy>  (27) 
-12.26

>  <m_primary>  (27) 
energy

$$$$
27:0
     RDKit          3D

 35 37  0  0  0  0  0  0  0  0999 V2000
   56.2710   30.8200   44.8570 O   0  0  0  0  0  0  0  0  0  0  0  0
   57.3770   31.0260   44.2880 C   0  0  0  0  0  0  0  0  0  0  0  0
   57.7030   32.4070   43.7970 C   0  0  0  0  0  0  0  0  0  0  0  0
   57.4130   33.4700   44.8610 C   0  0  0  0  0  0  0  0  0  0  0  0
   58.8690   33.9090   45.8030 S   0  0  0  0  0  0  0  0  0  0  0  0
   58.5210   34.9380   46.8420 O   0  0  0  0  0  0  0  0  0  0  0  0
   59.9310   34.4660   44.8980 O   0  0  0  0  0  0  0  0  0  0  0  0
   59.4910   32.4740   46.5940 C   0  0  0  0  0  0  0  0  0  0  0  0
   60.8330   32.1590   46.7530 C   0  0  0  0  0  0  0  0  0  0  0  0
   61.0330   30.9380   47.4070 C   0  0  0  0  0  0  0  0  0  0  0  0
   59.8470   30.3020   47.7510 C   0  0  0  0  0  0  0  0  0  0  0  0
   59.7000   28.6240   48.6430 Br  0  0  0  0  0  0  0  0  0  0  0  0
   58.5480   31.2440   47.2490 S   0  0  0  0  0  0  0  0  0  0  0  0
   58.3150   29.9540   44.1010 N   0  0  0  0  0  0  0  0  0  0  0  0
   58.2440   28.6910   44.7860 C   0  0  0  0  0  0  0  0  0  0  0  0
   59.4030   27.8930   44.9910 C   0  0  0  0  0  0  0  0  0  0  0  0
   59.3080   26.6480   45.6390 C   0  0  0  0  0  0  0  0  0  0  0  0
   58.0490   26.2250   46.0530 C   0  0  0  0  0  0  0  0  0  0  0  0
   56.9360   26.9720   45.8450 C   0  0  0  0  0  0  0  0  0  0  0  0
   56.9860   28.2090   45.2080 C   0  0  0  0  0  0  0  0  0  0  0  0
   55.8340   26.3080   46.3490 O   0  0  0  0  0  0  0  0  0  0  0  0
   56.2840   25.0670   46.9100 C   0  0  0  0  0  0  0  0  0  0  0  0
   57.7040   25.0540   46.6990 O   0  0  0  0  0  0  0  0  0  0  0  0
   58.7700   32.4488   43.5330 H   0  0  0  0  0  0  0  0  0  0  0  0
   57.0715   32.6174   42.9212 H   0  0  0  0  0  0  0  0  0  0  0  0
   57.0294   34.3726   44.3629 H   0  0  0  0  0  0  0  0  0  0  0  0
   56.6752   33.0507   45.5609 H   0  0  0  0  0  0  0  0  0  0  0  0
   61.6537   32.8017   46.4018 H   0  0  0  0  0  0  0  0  0  0  0  0
   62.0282   30.5240   47.6263 H   0  0  0  0  0  0  0  0  0  0  0  0
   59.0640   30.0790   43.3830 H   0  0  0  0  0  0  0  0  0  0  0  0
   60.3817   28.2521   44.6401 H   0  0  0  0  0  0  0  0  0  0  0  0
   60.2005   26.0289   45.8128 H   0  0  0  0  0  0  0  0  0  0  0  0
   56.0705   28.7946   45.0382 H   0  0  0  0  0  0  0  0  0  0  0  0
   56.0529   25.0226   47.9845 H   0  0  0  0  0  0  0  0  0  0  0  0
   55.7903   24.2013   46.4444 H   0  0  0  0  0  0  0  0  0  0  0  0
  1  2  2  0
  2  3  1  0
  3  4  1  0
  4  5  1  0
  5  6  2  0
  5  7  2  0
  5  8  1  0
  8  9  2  0
  9 10  1  0
 10 11  2  0
 11 12  1  0
 11 13  1  0
  2 14  1  0
 14 15  1  0
 15 16  2  0
 16 17  1  0
 17 18  2  0
 18 19  1  0
 19 20  2  0
 19 21  1  0
 21 22  1  0
 22 23  1  0
 13  8  1  0
 20 15  1  0
 23 18  1  0
  3 24  1  0
  3 25  1  0
  4 26  1  0
  4 27  1  0
  9 28  1  0
 10 29  1  0
 14 30  1  0
 16 31  1  0
 17 32  1  0
 20 33  1  0
 22 34  1  0
 22 35  1  0
M  END
>  <UniqueID>  (28) 
26

>  <SMILES>  (28) 
O=C(CCS(=O)(=O)c1ccc(Br)s1)Nc1ccc2c(c1)OCO2

>  <Energy>  (28) 
88.54296053907993

>  <Genealogy>  (28) 
O=C(CCS(=O)(=O)c1ccc(Br)s1)Nc1ccc2c(c1)OCO2 (3D coordinates assigned)
O=C(CCS(=O)(=O)c1ccc(Br)s1)Nc1ccc2c(c1)OCO2 (nonaromatic ring conformer: 88.54296053907993 kcal/mol)

>  <smiles>  (28) 
O=C(CCS(=O)(=O)c1ccc(Br)s1)Nc1ccc2c(c1)OCO2

>  <score_type>  (28) 
oracle

>  <origin>  (28) 
adg

>  <m_score__min__energy>  (28) 
-8.6699999999999999

>  <m_primary>  (28) 
energy

$$$$
28:0
     RDKit          3D

 59 62  0  0  0  0  0  0  0  0999 V2000
   62.6160   33.8480   47.6650 C   0  0  0  0  0  0  0  0  0  0  0  0
   61.1550   33.5820   48.0760 C   0  0  1  0  0  0  0  0  0  0  0  0
   60.1950   33.8530   46.9480 C   0  0  0  0  0  0  0  0  0  0  0  0
   60.3320   34.8370   46.0320 N   0  0  0  0  0  0  0  0  0  0  0  0
   59.2100   34.7440   45.2850 C   0  0  0  0  0  0  0  0  0  0  0  0
   58.4150   33.7260   45.7730 C   0  0  0  0  0  0  0  0  0  0  0  0
   57.0910   33.2880   45.2170 C   0  0  0  0  0  0  0  0  0  0  0  0
   56.9770   31.8770   45.2360 O   0  0  0  0  0  0  0  0  0  0  0  0
   57.8030   31.2840   44.2530 C   0  0  0  0  0  0  0  0  0  0  0  0
   57.2620   29.9020   43.8620 C   0  0  0  0  0  0  0  0  0  0  0  0
   55.7760   29.7170   44.1320 C   0  0  0  0  0  0  0  0  0  0  0  0
   56.2740   29.8670   42.7050 C   0  0  0  0  0  0  0  0  0  0  0  0
   59.0340   33.1890   46.8380 N   0  0  0  0  0  0  0  0  0  0  0  0
   58.6220   32.0590   47.6690 C   0  0  0  0  0  0  0  0  0  0  0  0
   59.5240   31.9450   48.9180 C   0  0  0  0  0  0  0  0  0  0  0  0
   60.9560   32.2120   48.6300 N   0  0  1  0  0  0  0  0  0  0  0  0
   61.5110   31.1540   47.7960 C   0  0  0  0  0  0  0  0  0  0  0  0
   62.6550   31.2900   47.2790 O   0  0  0  0  0  0  0  0  0  0  0  0
   60.7280   29.9390   47.4630 C   0  0  0  0  0  0  0  0  0  0  0  0
   60.4010   29.0250   48.4780 C   0  0  0  0  0  0  0  0  0  0  0  0
   59.6640   27.8740   48.1860 C   0  0  0  0  0  0  0  0  0  0  0  0
   59.2390   27.6170   46.8740 C   0  0  0  0  0  0  0  0  0  0  0  0
   58.4480   26.3650   46.5540 C   0  0  0  0  0  0  0  0  0  0  0  0
   57.3490   26.5800   45.5860 N   0  0  0  0  0  0  0  0  0  0  0  0
   56.1280   25.8390   45.9360 C   0  0  0  0  0  0  0  0  0  0  0  0
   57.7540   26.3030   44.1990 C   0  0  0  0  0  0  0  0  0  0  0  0
   59.5410   28.5430   45.8630 C   0  0  0  0  0  0  0  0  0  0  0  0
   60.2780   29.6950   46.1540 C   0  0  0  0  0  0  0  0  0  0  0  0
   63.2358   33.9608   48.5667 H   0  0  0  0  0  0  0  0  0  0  0  0
   62.9885   33.0029   47.0674 H   0  0  0  0  0  0  0  0  0  0  0  0
   62.6667   34.7701   47.0674 H   0  0  0  0  0  0  0  0  0  0  0  0
   60.9325   34.2931   48.8852 H   0  0  0  0  0  0  0  0  0  0  0  0
   58.9674   35.3808   44.4215 H   0  0  0  0  0  0  0  0  0  0  0  0
   56.2836   33.7228   45.8246 H   0  0  0  0  0  0  0  0  0  0  0  0
   57.0160   33.6327   44.1751 H   0  0  0  0  0  0  0  0  0  0  0  0
   57.8267   31.9291   43.3624 H   0  0  0  0  0  0  0  0  0  0  0  0
   58.8173   31.1673   44.6625 H   0  0  0  0  0  0  0  0  0  0  0  0
   58.1855   29.3538   44.0999 H   0  0  0  0  0  0  0  0  0  0  0  0
   55.3977   28.7456   44.4831 H   0  0  0  0  0  0  0  0  0  0  0  0
   55.0286   30.2327   44.7528 H   0  0  0  0  0  0  0  0  0  0  0  0
   56.2564   29.0042   42.0229 H   0  0  0  0  0  0  0  0  0  0  0  0
   56.0365   30.5362   41.8649 H   0  0  0  0  0  0  0  0  0  0  0  0
   57.5796   32.2061   47.9881 H   0  0  0  0  0  0  0  0  0  0  0  0
   58.7130   31.1342   47.0803 H   0  0  0  0  0  0  0  0  0  0  0  0
   59.1767   32.6710   49.6679 H   0  0  0  0  0  0  0  0  0  0  0  0
   59.4506   30.9094   49.2816 H   0  0  0  0  0  0  0  0  0  0  0  0
   61.4360   32.1970   49.5580 H   0  0  0  0  0  0  0  0  0  0  0  0
   60.7275   29.2166   49.5108 H   0  0  0  0  0  0  0  0  0  0  0  0
   59.4157   27.1653   48.9898 H   0  0  0  0  0  0  0  0  0  0  0  0
   59.1375   25.6176   46.1345 H   0  0  0  0  0  0  0  0  0  0  0  0
   57.9843   26.0317   47.4942 H   0  0  0  0  0  0  0  0  0  0  0  0
   56.0346   25.7823   47.0306 H   0  0  0  0  0  0  0  0  0  0  0  0
   55.2521   26.3580   45.5196 H   0  0  0  0  0  0  0  0  0  0  0  0
   56.1840   24.8224   45.5196 H   0  0  0  0  0  0  0  0  0  0  0  0
   58.6620   25.6820   44.1992 H   0  0  0  0  0  0  0  0  0  0  0  0
   56.9444   25.7686   43.6804 H   0  0  0  0  0  0  0  0  0  0  0  0
   57.9585   27.2513   43.6804 H   0  0  0  0  0  0  0  0  0  0  0  0
   59.1954   28.3610   44.8347 H   0  0  0  0  0  0  0  0  0  0  0  0
   60.5069   30.4144   45.3540 H   0  0  0  0  0  0  0  0  0  0  0  0
  1  2  1  0
  2  3  1  0
  3  4  2  0
  4  5  1  0
  5  6  2  0
  6  7  1  0
  7  8  1  0
  8  9  1  0
  9 10  1  0
 10 11  1  0
 11 12  1  0
  6 13  1  0
 13 14  1  0
 14 15  1  0
 15 16  1  0
 16 17  1  0
 17 18  2  0
 17 19  1  0
 19 20  2  0
 20 21  1  0
 21 22  2  0
 22 23  1  0
 23 24  1  0
 24 25  1  0
 24 26  1  0
 22 27  1  0
 27 28  2  0
 16  2  1  0
 28 19  1  0
 13  3  1  0
 12 10  1  0
  1 29  1  0
  1 30  1  0
  1 31  1  0
  2 32  1  1
  5 33  1  0
  7 34  1  0
  7 35  1  0
  9 36  1  0
  9 37  1  0
 10 38  1  0
 11 39  1  0
 11 40  1  0
 12 41  1  0
 12 42  1  0
 14 43  1  0
 14 44  1  0
 15 45  1  0
 15 46  1  0
 16 47  1  1
 20 48  1  0
 21 49  1  0
 23 50  1  0
 23 51  1  0
 25 52  1  0
 25 53  1  0
 25 54  1  0
 26 55  1  0
 26 56  1  0
 26 57  1  0
 27 58  1  0
 28 59  1  0
M  CHG  1  16   1
M  END
>  <UniqueID>  (29) 
27

>  <SMILES>  (29) 
C[C@H]1c2ncc(COCC3CC3)n2CC[N@H+]1C(=O)c1ccc(CN(C)C)cc1

>  <Energy>  (29) 
369.0439537035517

>  <Genealogy>  (29) 
CC1c2ncc(COCC3CC3)n2CC[NH+]1C(=O)c1ccc(CN(C)C)cc1 (protonated)
C[C@H]1c2ncc(COCC3CC3)n2CC[N@H+]1C(=O)c1ccc(CN(C)C)cc1 (chirality)
C[C@H]1c2ncc(COCC3CC3)n2CC[N@H+]1C(=O)c1ccc(CN(C)C)cc1 (3D coordinates assigned)
C[C@H]1c2ncc(COCC3CC3)n2CC[N@H+]1C(=O)c1ccc(CN(C)C)cc1 (nonaromatic ring conformer: 369.0439537035517 kcal/mol)

>  <smiles>  (29) 
CC1c2ncc(COCC3CC3)n2CCN1C(=O)c1ccc(CN(C)C)cc1

>  <score_type>  (29) 
oracle

>  <origin>  (29) 
adg

>  <m_score__min__energy>  (29) 
-7.1699999999999999

>  <m_primary>  (29) 
energy

$$$$
29:0
     RDKit          3D

 32 33  0  0  0  0  0  0  0  0999 V2000
   58.6330   34.5960   45.1190 C   0  0  0  0  0  0  0  0  0  0  0  0
   57.4200   34.1450   45.4430 C   0  0  0  0  0  0  0  0  0  0  0  0
   57.2280   33.2010   46.5950 C   0  0  0  0  0  0  0  0  0  0  0  0
   58.1790   32.0890   46.5070 N   0  0  0  0  0  0  0  0  0  0  0  0
   58.0650   31.0220   45.5760 C   0  0  0  0  0  0  0  0  0  0  0  0
   57.1050   30.9390   44.7650 O   0  0  0  0  0  0  0  0  0  0  0  0
   59.2080   30.1030   45.5980 C   0  0  0  0  0  0  0  0  0  0  0  0
   59.3270   28.9420   44.9350 C   0  0  0  0  0  0  0  0  0  0  0  0
   58.2280   27.9850   44.6980 C   0  0  0  0  0  0  0  0  0  0  0  0
   58.0440   27.4320   43.3740 C   0  0  0  0  0  0  0  0  0  0  0  0
   57.8980   26.9890   42.3140 N   0  0  0  0  0  0  0  0  0  0  0  0
   57.3690   27.7190   45.6950 C   0  0  0  0  0  0  0  0  0  0  0  0
   57.2140   26.3800   46.3110 C   0  0  0  0  0  0  0  0  0  0  0  0
   55.9550   25.7490   46.3570 C   0  0  0  0  0  0  0  0  0  0  0  0
   54.8020   26.3690   45.8740 O   0  0  0  0  0  0  0  0  0  0  0  0
   55.8460   24.5080   46.9000 N   0  0  0  0  0  0  0  0  0  0  0  0
   56.9280   23.8560   47.3930 C   0  0  0  0  0  0  0  0  0  0  0  0
   56.7960   22.7090   47.8940 O   0  0  0  0  0  0  0  0  0  0  0  0
   58.1540   24.4350   47.3430 N   0  0  0  0  0  0  0  0  0  0  0  0
   58.3230   25.6730   46.8090 C   0  0  0  0  0  0  0  0  0  0  0  0
   59.4810   26.1660   46.7530 O   0  0  0  0  0  0  0  0  0  0  0  0
   60.5440   30.7220   46.6260 S   0  0  0  0  0  0  0  0  0  0  0  0
   59.4510   32.0460   47.1590 C   0  0  0  0  0  0  0  0  0  0  0  0
   59.7720   32.8950   48.5210 S   0  0  0  0  0  0  0  0  0  0  0  0
   58.7547   35.2871   44.2719 H   0  0  0  0  0  0  0  0  0  0  0  0
   59.5115   34.2768   45.6990 H   0  0  0  0  0  0  0  0  0  0  0  0
   56.5472   34.4695   44.8574 H   0  0  0  0  0  0  0  0  0  0  0  0
   57.3898   33.7427   47.5386 H   0  0  0  0  0  0  0  0  0  0  0  0
   56.2045   32.7994   46.5610 H   0  0  0  0  0  0  0  0  0  0  0  0
   60.3197   28.6837   44.5377 H   0  0  0  0  0  0  0  0  0  0  0  0
   56.7453   28.5411   46.0760 H   0  0  0  0  0  0  0  0  0  0  0  0
   54.3260   27.1100   46.3730 H   0  0  0  0  0  0  0  0  0  0  0  0
  1  2  2  0
  2  3  1  0
  3  4  1  0
  4  5  1  0
  5  6  2  0
  5  7  1  0
  7  8  2  3
  8  9  1  0
  9 10  1  0
 10 11  3  0
  9 12  2  3
 12 13  1  0
 13 14  2  0
 14 15  1  0
 14 16  1  0
 16 17  1  0
 17 18  2  0
 17 19  1  0
 19 20  1  0
 20 21  2  0
  7 22  1  0
 22 23  1  0
 23 24  2  0
 23  4  1  0
 20 13  1  0
  1 25  1  0
  1 26  1  0
  2 27  1  0
  3 28  1  0
  3 29  1  0
  8 30  1  0
 12 31  1  0
 15 32  1  0
M  CHG  2  16  -1  19  -1
M  END
>  <UniqueID>  (30) 
28

>  <SMILES>  (30) 
C=CCN1C(=O)C(=CC(C#N)=Cc2c(O)[n-]c(=O)[n-]c2=O)SC1=S

>  <Energy>  (30) 
64.745345987287

>  <Genealogy>  (30) 
C=CCN1C(=O)C(=CC(C#N)=Cc2c(O)[n-]c(=O)[n-]c2=O)SC1=S (protonated)
C=CCN1C(=O)C(=CC(C#N)=Cc2c(O)[n-]c(=O)[n-]c2=O)SC1=S (3D coordinates assigned)
C=CCN1C(=O)C(=CC(C#N)=Cc2c(O)[n-]c(=O)[n-]c2=O)SC1=S (nonaromatic ring conformer: 64.745345987287 kcal/mol)

>  <smiles>  (30) 
C=CCN1C(=O)C(=CC(C#N)=Cc2c(O)[nH]c(=O)[nH]c2=O)SC1=S

>  <score_type>  (30) 
oracle

>  <origin>  (30) 
adg

>  <m_score__min__energy>  (30) 
-12.550000000000001

>  <m_primary>  (30) 
energy

$$$$
30:0
     RDKit          3D

 51 54  0  0  0  0  0  0  0  0999 V2000
   58.2398   33.5403   46.2744 H   0  0  0  0  0  0  0  0  0  0  0  0
   57.6370   32.8710   45.6430 C   0  0  0  0  0  0  0  0  0  0  0  0
   56.9279   33.2923   44.9152 H   0  0  0  0  0  0  0  0  0  0  0  0
   57.7660   31.5470   45.7600 C   0  0  0  0  0  0  0  0  0  0  0  0
   57.0430   30.6900   45.0020 N   0  0  0  0  0  0  0  0  0  0  0  0
   57.4280   29.4620   45.4060 C   0  0  0  0  0  0  0  0  0  0  0  0
   56.9000   28.3370   44.8960 C   0  0  0  0  0  0  0  0  0  0  0  0
   56.2173   28.4379   44.0394 H   0  0  0  0  0  0  0  0  0  0  0  0
   57.1680   26.9740   45.4000 C   0  0  0  0  0  0  0  0  0  0  0  0
   58.4490   26.4070   45.2880 C   0  0  0  0  0  0  0  0  0  0  0  0
   59.2714   26.9952   44.8547 H   0  0  0  0  0  0  0  0  0  0  0  0
   58.6840   25.1000   45.7240 C   0  0  0  0  0  0  0  0  0  0  0  0
   59.6938   24.6698   45.6519 H   0  0  0  0  0  0  0  0  0  0  0  0
   57.6380   24.3400   46.2510 C   0  0  0  0  0  0  0  0  0  0  0  0
   57.8256   23.3134   46.5987 H   0  0  0  0  0  0  0  0  0  0  0  0
   56.3540   24.8820   46.3370 C   0  0  0  0  0  0  0  0  0  0  0  0
   55.5302   24.2783   46.7455 H   0  0  0  0  0  0  0  0  0  0  0  0
   56.1120   26.1910   45.9050 C   0  0  0  0  0  0  0  0  0  0  0  0
   54.8230   26.7080   45.9840 O   0  0  0  0  0  0  0  0  0  0  0  0
   58.3660   29.6050   46.4140 C   0  0  0  0  0  0  0  0  0  0  0  0
   58.8950   28.6800   47.0890 O   0  0  0  0  0  0  0  0  0  0  0  0
   58.5980   30.9140   46.6280 N   0  0  0  0  0  0  0  0  0  0  0  0
   59.4400   31.4760   47.6920 C   0  0  0  0  0  0  0  0  0  0  0  0
   60.4639   31.0869   47.5915 H   0  0  0  0  0  0  0  0  0  0  0  0
   59.4505   32.5726   47.6062 H   0  0  0  0  0  0  0  0  0  0  0  0
   58.8880   31.0880   49.0360 C   0  0  0  0  0  0  0  0  0  0  0  0
   58.0650   31.9790   49.7420 C   0  0  0  0  0  0  0  0  0  0  0  0
   57.9139   33.0009   49.3639 H   0  0  0  0  0  0  0  0  0  0  0  0
   57.4370   31.5750   50.9220 C   0  0  0  0  0  0  0  0  0  0  0  0
   56.8012   32.2822   51.4748 H   0  0  0  0  0  0  0  0  0  0  0  0
   57.6150   30.2680   51.4050 C   0  0  0  0  0  0  0  0  0  0  0  0
   56.8900   29.7920   52.5470 N   0  0  0  0  0  0  0  0  0  0  0  0
   55.7660   30.4570   53.1420 C   0  0  0  0  0  0  0  0  0  0  0  0
   55.9650   31.2140   54.1290 O   0  0  0  0  0  0  0  0  0  0  0  0
   54.3800   30.2490   52.6500 C   0  0  0  0  0  0  0  0  0  0  0  0
   53.8030   28.9700   52.6930 C   0  0  0  0  0  0  0  0  0  0  0  0
   54.3916   28.1159   53.0591 H   0  0  0  0  0  0  0  0  0  0  0  0
   52.4850   28.7770   52.2730 C   0  0  0  0  0  0  0  0  0  0  0  0
   52.0406   27.7714   52.3087 H   0  0  0  0  0  0  0  0  0  0  0  0
   51.7290   29.8550   51.8080 C   0  0  0  0  0  0  0  0  0  0  0  0
   50.6873   29.6965   51.4923 H   0  0  0  0  0  0  0  0  0  0  0  0
   52.2910   31.1410   51.7410 C   0  0  0  0  0  0  0  0  0  0  0  0
   51.4920   32.2950   51.2680 C   0  0  0  0  0  0  0  0  0  0  0  0
   51.4010   32.5500   50.0380 O   0  0  0  0  0  0  0  0  0  0  0  0
   50.8210   33.1060   52.1780 O   0  0  0  0  0  0  0  0  0  0  0  0
   53.6260   31.3230   52.1420 C   0  0  0  0  0  0  0  0  0  0  0  0
   54.0873   32.3180   52.0576 H   0  0  0  0  0  0  0  0  0  0  0  0
   58.4830   29.3980   50.7350 C   0  0  0  0  0  0  0  0  0  0  0  0
   58.6764   28.3950   51.1432 H   0  0  0  0  0  0  0  0  0  0  0  0
   59.1050   29.7990   49.5490 C   0  0  0  0  0  0  0  0  0  0  0  0
   59.7674   29.1016   49.0152 H   0  0  0  0  0  0  0  0  0  0  0  0
  1  2  1  0
  2  3  1  0
  2  4  2  0
  4  5  1  0
  5  6  1  0
  6  7  2  0
  7  8  1  0
  7  9  1  0
  9 10  2  0
 10 11  1  0
 10 12  1  0
 12 13  1  0
 12 14  2  0
 14 15  1  0
 14 16  1  0
 16 17  1  0
 16 18  2  0
 18 19  1  0
  6 20  1  0
 20 21  2  0
 20 22  1  0
 22 23  1  0
 23 24  1  0
 23 25  1  0
 23 26  1  0
 26 27  2  0
 27 28  1  0
 27 29  1  0
 29 30  1  0
 29 31  2  0
 31 32  1  0
 32 33  1  0
 33 34  2  0
 33 35  1  0
 35 36  2  0
 36 37  1  0
 36 38  1  0
 38 39  1  0
 38 40  2  0
 40 41  1  0
 40 42  1  0
 42 43  1  0
 43 44  2  0
 43 45  1  0
 42 46  2  0
 46 47  1  0
 31 48  1  0
 48 49  1  0
 48 50  2  0
 50 51  1  0
 22  4  1  0
 50 26  1  0
 18  9  1  0
 46 35  1  0
M  CHG  4   5  -1  19  -1  32  -1  45  -1
M  END
>  <UniqueID>  (31) 
29

>  <SMILES>  (31) 
C=c1[n-]/c(=C/c2ccccc2[O-])c(=O)n1Cc1ccc([N-]C(=O)c2cccc(C(=O)[O-])c2)cc1

>  <Energy>  (31) 
102.19152665295182

>  <Genealogy>  (31) 
C=c1[n-]c(=Cc2ccccc2[O-])c(=O)n1Cc1ccc([N-]C(=O)c2cccc(C(=O)[O-])c2)cc1 (protonated)
C=c1[n-]/c(=C/c2ccccc2[O-])c(=O)n1Cc1ccc([N-]C(=O)c2cccc(C(=O)[O-])c2)cc1 (cis-trans isomerization)
C=c1[n-]/c(=C/c2ccccc2[O-])c(=O)n1Cc1ccc([N-]C(=O)c2cccc(C(=O)[O-])c2)cc1 (3D coordinates assigned)
C=c1[n-]/c(=C/c2ccccc2[O-])c(=O)n1Cc1ccc([N-]C(=O)c2cccc(C(=O)[O-])c2)cc1 (optimized conformer: 102.19152665295182 kcal/mol)

>  <smiles>  (31) 
C=c1[nH]c(=Cc2ccccc2O)c(=O)n1Cc1ccc(NC(=O)c2cccc(C(=O)O)c2)cc1

>  <score_type>  (31) 
oracle

>  <origin>  (31) 
adg

>  <m_score__min__energy>  (31) 
-19.66

>  <m_primary>  (31) 
energy

$$$$
31:0
     RDKit          3D

 38 40  0  0  0  0  0  0  0  0999 V2000
   58.1660   34.0000   46.5810 C   0  0  0  0  0  0  0  0  0  0  0  0
   58.8790   34.1170   44.9110 S   0  0  0  0  0  0  0  0  0  0  0  0
   58.1830   32.5520   44.3750 C   0  0  0  0  0  0  0  0  0  0  0  0
   57.7560   32.3930   43.0520 C   0  0  0  0  0  0  0  0  0  0  0  0
   57.2290   31.1700   42.6300 C   0  0  0  0  0  0  0  0  0  0  0  0
   57.1150   30.1070   43.5310 C   0  0  0  0  0  0  0  0  0  0  0  0
   57.5130   30.2640   44.8680 C   0  0  0  0  0  0  0  0  0  0  0  0
   57.4050   29.1490   45.7700 N   0  0  0  0  0  0  0  0  0  0  0  0
   58.4660   28.7050   46.6320 C   0  0  0  0  0  0  0  0  0  0  0  0
   59.5010   29.4060   46.7890 O   0  0  0  0  0  0  0  0  0  0  0  0
   58.3150   27.4410   47.4210 C   0  0  0  0  0  0  0  0  0  0  0  0
   57.5890   26.4390   46.6320 N   0  0  0  0  0  0  0  0  0  0  0  0
   56.2730   26.6060   46.4690 N   0  0  0  0  0  0  0  0  0  0  0  0
   55.5150   25.7540   45.7350 C   0  0  0  0  0  0  0  0  0  0  0  0
   54.2780   25.9680   45.6250 O   0  0  0  0  0  0  0  0  0  0  0  0
   56.1190   24.6540   45.1100 C   0  0  0  0  0  0  0  0  0  0  0  0
   55.3750   23.7410   44.3370 C   0  0  0  0  0  0  0  0  0  0  0  0
   56.0090   22.6570   43.7250 C   0  0  0  0  0  0  0  0  0  0  0  0
   57.3850   22.4730   43.8760 C   0  0  0  0  0  0  0  0  0  0  0  0
   58.1350   23.3700   44.6390 C   0  0  0  0  0  0  0  0  0  0  0  0
   57.5100   24.4670   45.2650 C   0  0  0  0  0  0  0  0  0  0  0  0
   58.2390   25.3880   46.0390 C   0  0  0  0  0  0  0  0  0  0  0  0
   59.4860   25.2460   46.1860 O   0  0  0  0  0  0  0  0  0  0  0  0
   58.0650   31.4910   45.2810 C   0  0  0  0  0  0  0  0  0  0  0  0
   58.9616   34.1306   47.3293 H   0  0  0  0  0  0  0  0  0  0  0  0
   57.4073   34.7857   46.7116 H   0  0  0  0  0  0  0  0  0  0  0  0
   57.6981   33.0131   46.7116 H   0  0  0  0  0  0  0  0  0  0  0  0
   57.8353   33.2312   42.3441 H   0  0  0  0  0  0  0  0  0  0  0  0
   56.9032   31.0431   41.5871 H   0  0  0  0  0  0  0  0  0  0  0  0
   56.7112   29.1422   43.1903 H   0  0  0  0  0  0  0  0  0  0  0  0
   56.4710   28.6900   45.8680 H   0  0  0  0  0  0  0  0  0  0  0  0
   59.3110   27.0507   47.6773 H   0  0  0  0  0  0  0  0  0  0  0  0
   57.7496   27.6550   48.3400 H   0  0  0  0  0  0  0  0  0  0  0  0
   54.2910   23.8822   44.2149 H   0  0  0  0  0  0  0  0  0  0  0  0
   55.4231   21.9469   43.1229 H   0  0  0  0  0  0  0  0  0  0  0  0
   57.8799   21.6181   43.3920 H   0  0  0  0  0  0  0  0  0  0  0  0
   59.2188   23.2197   44.7520 H   0  0  0  0  0  0  0  0  0  0  0  0
   58.4050   31.6169   46.3195 H   0  0  0  0  0  0  0  0  0  0  0  0
  1  2  1  0
  2  3  1  0
  3  4  2  0
  4  5  1  0
  5  6  2  0
  6  7  1  0
  7  8  1  0
  8  9  1  0
  9 10  2  0
  9 11  1  0
 11 12  1  0
 12 13  1  0
 13 14  1  0
 14 15  2  0
 14 16  1  0
 16 17  2  0
 17 18  1  0
 18 19  2  0
 19 20  1  0
 20 21  2  0
 21 22  1  0
 22 23  2  0
  7 24  2  0
 24  3  1  0
 22 12  1  0
 21 16  1  0
  1 25  1  0
  1 26  1  0
  1 27  1  0
  4 28  1  0
  5 29  1  0
  6 30  1  0
  8 31  1  0
 11 32  1  0
 11 33  1  0
 17 34  1  0
 18 35  1  0
 19 36  1  0
 20 37  1  0
 24 38  1  0
M  CHG  1  13  -1
M  END
>  <UniqueID>  (32) 
30

>  <SMILES>  (32) 
CSc1cccc(NC(=O)Cn2[n-]c(=O)c3ccccc3c2=O)c1

>  <Energy>  (32) 
45.54070396061194

>  <Genealogy>  (32) 
CSc1cccc(NC(=O)Cn2[n-]c(=O)c3ccccc3c2=O)c1 (protonated)
CSc1cccc(NC(=O)Cn2[n-]c(=O)c3ccccc3c2=O)c1 (3D coordinates assigned)
CSc1cccc(NC(=O)Cn2[n-]c(=O)c3ccccc3c2=O)c1 (optimized conformer: 45.54070396061194 kcal/mol)

>  <smiles>  (32) 
CSc1cccc(NC(=O)Cn2[nH]c(=O)c3ccccc3c2=O)c1

>  <score_type>  (32) 
oracle

>  <origin>  (32) 
adg

>  <m_score__min__energy>  (32) 
-9.8100000000000005

>  <m_primary>  (32) 
energy

$$$$
32:0
     RDKit          3D

 31 33  0  0  0  0  0  0  0  0999 V2000
   55.5160   29.9120   44.2660 C   0  0  0  0  0  0  0  0  0  0  0  0
   56.7480   29.4080   44.9870 C   0  0  0  0  0  0  0  0  0  0  0  0
   57.9280   30.1810   45.0480 C   0  0  0  0  0  0  0  0  0  0  0  0
   57.9860   31.5220   44.4260 C   0  0  0  0  0  0  0  0  0  0  0  0
   57.7050   31.6440   43.2040 O   0  0  0  0  0  0  0  0  0  0  0  0
   58.3910   32.7050   45.2070 C   0  0  0  0  0  0  0  0  0  0  0  0
   58.1450   32.9080   46.5600 C   0  0  0  0  0  0  0  0  0  0  0  0
   58.6280   34.1340   47.0320 C   0  0  0  0  0  0  0  0  0  0  0  0
   59.2490   34.9040   46.0570 C   0  0  0  0  0  0  0  0  0  0  0  0
   59.1960   34.0560   44.6060 S   0  0  0  0  0  0  0  0  0  0  0  0
   59.0420   29.6860   45.6710 N   0  0  0  0  0  0  0  0  0  0  0  0
   60.1840   30.4710   45.6360 O   0  0  0  0  0  0  0  0  0  0  0  0
   59.0020   28.4650   46.3050 C   0  0  0  0  0  0  0  0  0  0  0  0
   60.1100   27.9450   47.0180 C   0  0  0  0  0  0  0  0  0  0  0  0
   60.0320   26.7030   47.6510 C   0  0  0  0  0  0  0  0  0  0  0  0
   58.8570   25.9600   47.5980 C   0  0  0  0  0  0  0  0  0  0  0  0
   57.7470   26.4560   46.9190 C   0  0  0  0  0  0  0  0  0  0  0  0
   57.8030   27.7080   46.2730 C   0  0  0  0  0  0  0  0  0  0  0  0
   56.7080   28.1990   45.6210 N   0  0  0  0  0  0  0  0  0  0  0  0
   55.5360   27.4690   45.6070 O   0  0  0  0  0  0  0  0  0  0  0  0
   54.7604   30.2211   45.0033 H   0  0  0  0  0  0  0  0  0  0  0  0
   55.7862   30.7718   43.6354 H   0  0  0  0  0  0  0  0  0  0  0  0
   55.1061   29.1093   43.6354 H   0  0  0  0  0  0  0  0  0  0  0  0
   57.6229   32.1781   47.1961 H   0  0  0  0  0  0  0  0  0  0  0  0
   58.5253   34.4577   48.0783 H   0  0  0  0  0  0  0  0  0  0  0  0
   59.6979   35.8968   46.2080 H   0  0  0  0  0  0  0  0  0  0  0  0
   61.1040   30.1310   45.4020 H   0  0  0  0  0  0  0  0  0  0  0  0
   61.0423   28.5262   47.0736 H   0  0  0  0  0  0  0  0  0  0  0  0
   60.9040   26.3100   48.1943 H   0  0  0  0  0  0  0  0  0  0  0  0
   58.8047   24.9792   48.0932 H   0  0  0  0  0  0  0  0  0  0  0  0
   56.8190   25.8663   46.8864 H   0  0  0  0  0  0  0  0  0  0  0  0
  1  2  1  0
  2  3  2  0
  3  4  1  0
  4  5  2  0
  4  6  1  0
  6  7  2  0
  7  8  1  0
  8  9  2  0
  9 10  1  0
  3 11  1  0
 11 12  1  0
 11 13  2  0
 13 14  1  0
 14 15  2  0
 15 16  1  0
 16 17  2  0
 17 18  1  0
 18 19  2  0
 19 20  1  0
 19  2  1  0
 10  6  1  0
 18 13  1  0
  1 21  1  0
  1 22  1  0
  1 23  1  0
  7 24  1  0
  8 25  1  0
  9 26  1  0
 12 27  1  0
 14 28  1  0
 15 29  1  0
 16 30  1  0
 17 31  1  0
M  CHG  3  11   1  19   1  20  -1
M  END
>  <UniqueID>  (33) 
31

>  <SMILES>  (33) 
Cc1c(C(=O)c2cccs2)[n+](O)c2ccccc2[n+]1[O-]

>  <Energy>  (33) 
78.65050329570816

>  <Genealogy>  (33) 
Cc1c(C(=O)c2cccs2)[n+](O)c2ccccc2[n+]1[O-] (protonated)
Cc1c(C(=O)c2cccs2)[n+](O)c2ccccc2[n+]1[O-] (3D coordinates assigned)
Cc1c(C(=O)c2cccs2)[n+](O)c2ccccc2[n+]1[O-] (optimized conformer: 78.65050329570816 kcal/mol)

>  <smiles>  (33) 
Cc1c(C(=O)c2cccs2)[n+]([O-])c2ccccc2[n+]1[O-]

>  <score_type>  (33) 
oracle

>  <origin>  (33) 
adg

>  <m_score__min__energy>  (33) 
-6.04

>  <m_primary>  (33) 
energy

$$$$
33:0
     RDKit          3D

 45 47  0  0  0  0  0  0  0  0999 V2000
   58.4120   27.4380   43.4960 C   0  0  0  0  0  0  0  0  0  0  0  0
   58.7560   27.5820   44.9550 C   0  0  0  0  0  0  0  0  0  0  0  0
   60.1060   27.5160   45.3450 C   0  0  0  0  0  0  0  0  0  0  0  0
   60.4670   27.6690   46.6840 C   0  0  0  0  0  0  0  0  0  0  0  0
   59.4880   27.8830   47.6530 C   0  0  0  0  0  0  0  0  0  0  0  0
   58.1420   27.9370   47.2870 C   0  0  0  0  0  0  0  0  0  0  0  0
   57.7570   27.7830   45.9430 C   0  0  0  0  0  0  0  0  0  0  0  0
   56.3130   27.8270   45.6050 C   0  0  0  0  0  0  0  0  0  0  0  0
   55.5560   26.8960   45.9860 O   0  0  0  0  0  0  0  0  0  0  0  0
   55.7330   28.9480   44.9240 N   0  0  0  0  0  0  0  0  0  0  0  0
   56.4490   29.9820   44.2290 C   0  0  0  0  0  0  0  0  0  0  0  0
   56.2940   30.1620   42.8430 C   0  0  0  0  0  0  0  0  0  0  0  0
   57.0030   31.1620   42.1780 C   0  0  0  0  0  0  0  0  0  0  0  0
   57.8430   32.0160   42.8920 C   0  0  0  0  0  0  0  0  0  0  0  0
   57.9630   31.8960   44.2810 C   0  0  0  0  0  0  0  0  0  0  0  0
   58.8360   32.7990   44.9720 N   0  0  0  0  0  0  0  0  0  0  0  0
   58.5140   33.4820   46.1880 C   0  0  0  0  0  0  0  0  0  0  0  0
   57.3440   33.4420   46.6560 O   0  0  0  0  0  0  0  0  0  0  0  0
   59.5790   34.2390   46.9140 C   0  0  0  0  0  0  0  0  0  0  0  0
   60.7710   33.3510   47.1360 C   0  0  0  0  0  0  0  0  0  0  0  0
   60.5970   32.0030   47.4910 C   0  0  0  0  0  0  0  0  0  0  0  0
   61.7070   31.1690   47.6550 C   0  0  0  0  0  0  0  0  0  0  0  0
   62.9960   31.6700   47.4550 C   0  0  0  0  0  0  0  0  0  0  0  0
   63.1780   33.0060   47.0880 C   0  0  0  0  0  0  0  0  0  0  0  0
   62.0700   33.8440   46.9240 C   0  0  0  0  0  0  0  0  0  0  0  0
   57.2860   30.8560   44.9530 C   0  0  0  0  0  0  0  0  0  0  0  0
   57.4840   30.6750   46.3240 O   0  0  0  0  0  0  0  0  0  0  0  0
   57.4014   27.0150   43.3976 H   0  0  0  0  0  0  0  0  0  0  0  0
   58.4449   28.4254   43.0123 H   0  0  0  0  0  0  0  0  0  0  0  0
   59.1385   26.7684   43.0123 H   0  0  0  0  0  0  0  0  0  0  0  0
   60.8842   27.3422   44.5873 H   0  0  0  0  0  0  0  0  0  0  0  0
   61.5265   27.6207   46.9757 H   0  0  0  0  0  0  0  0  0  0  0  0
   59.7764   28.0094   48.7070 H   0  0  0  0  0  0  0  0  0  0  0  0
   57.3745   28.1017   48.0576 H   0  0  0  0  0  0  0  0  0  0  0  0
   55.6096   29.5103   42.2801 H   0  0  0  0  0  0  0  0  0  0  0  0
   56.8995   31.2773   41.0890 H   0  0  0  0  0  0  0  0  0  0  0  0
   58.4155   32.7897   42.3594 H   0  0  0  0  0  0  0  0  0  0  0  0
   59.8797   35.1116   46.3155 H   0  0  0  0  0  0  0  0  0  0  0  0
   59.1887   34.5741   47.8863 H   0  0  0  0  0  0  0  0  0  0  0  0
   59.5836   31.6022   47.6405 H   0  0  0  0  0  0  0  0  0  0  0  0
   61.5654   30.1166   47.9420 H   0  0  0  0  0  0  0  0  0  0  0  0
   63.8679   31.0124   47.5865 H   0  0  0  0  0  0  0  0  0  0  0  0
   64.1929   33.3989   46.9280 H   0  0  0  0  0  0  0  0  0  0  0  0
   62.2160   34.8933   46.6279 H   0  0  0  0  0  0  0  0  0  0  0  0
   57.9080   31.3800   46.9120 H   0  0  0  0  0  0  0  0  0  0  0  0
  1  2  1  0
  2  3  2  0
  3  4  1  0
  4  5  2  0
  5  6  1  0
  6  7  2  0
  7  8  1  0
  8  9  2  0
  8 10  1  0
 10 11  1  0
 11 12  2  0
 12 13  1  0
 13 14  2  0
 14 15  1  0
 15 16  1  0
 16 17  1  0
 17 18  2  0
 17 19  1  0
 19 20  1  0
 20 21  2  0
 21 22  1  0
 22 23  2  0
 23 24  1  0
 24 25  2  0
 15 26  2  0
 26 27  1  0
  7  2  1  0
 26 11  1  0
 25 20  1  0
  1 28  1  0
  1 29  1  0
  1 30  1  0
  3 31  1  0
  4 32  1  0
  5 33  1  0
  6 34  1  0
 12 35  1  0
 13 36  1  0
 14 37  1  0
 19 38  1  0
 19 39  1  0
 21 40  1  0
 22 41  1  0
 23 42  1  0
 24 43  1  0
 25 44  1  0
 27 45  1  0
M  CHG  2  10  -1  16  -1
M  END
>  <UniqueID>  (34) 
32

>  <SMILES>  (34) 
Cc1ccccc1C(=O)[N-]c1cccc([N-]C(=O)Cc2ccccc2)c1O

>  <Energy>  (34) 
60.048751519256726

>  <Genealogy>  (34) 
Cc1ccccc1C(=O)[N-]c1cccc([N-]C(=O)Cc2ccccc2)c1O (protonated)
Cc1ccccc1C(=O)[N-]c1cccc([N-]C(=O)Cc2ccccc2)c1O (3D coordinates assigned)
Cc1ccccc1C(=O)[N-]c1cccc([N-]C(=O)Cc2ccccc2)c1O (optimized conformer: 60.048751519256726 kcal/mol)

>  <smiles>  (34) 
Cc1ccccc1C(=O)Nc1cccc(NC(=O)Cc2ccccc2)c1O

>  <score_type>  (34) 
oracle

>  <origin>  (34) 
adg

>  <m_score__min__energy>  (34) 
-13.92

>  <m_primary>  (34) 
energy

$$$$
34:0
     RDKit          3D

 38 40  0  0  1  0  0  0  0  0999 V2000
   55.3320   26.3640   46.3020 N   0  0  0  0  0  0  0  0  0  0  0  0
   56.3300   26.8250   46.0090 C   0  0  0  0  0  0  0  0  0  0  0  0
   57.5840   27.3800   45.6400 C   0  0  0  0  0  0  0  0  0  0  0  0
   57.6150   28.6900   45.1980 C   0  0  0  0  0  0  0  0  0  0  0  0
   56.4330   29.4770   45.1100 N   0  0  0  0  0  0  0  0  0  0  0  0
   55.9210   30.0020   43.8580 C   0  0  0  0  0  0  0  0  0  0  0  0
   56.7860   30.8160   42.9740 C   0  0  0  0  0  0  0  0  0  0  0  0
   56.5630   29.4020   42.6280 C   0  0  0  0  0  0  0  0  0  0  0  0
   58.8200   29.1800   44.8570 N   0  0  0  0  0  0  0  0  0  0  0  0
   59.9550   28.4380   44.9360 C   0  0  0  0  0  0  0  0  0  0  0  0
   61.0930   28.9460   44.6000 N   0  0  0  0  0  0  0  0  0  0  0  0
   59.9420   27.1560   45.3660 N   0  0  0  0  0  0  0  0  0  0  0  0
   58.7410   26.6560   45.7100 C   0  0  0  0  0  0  0  0  0  0  0  0
   58.6670   25.4370   46.1270 N   0  0  0  0  0  0  0  0  0  0  0  0
   58.0560   24.3860   45.3880 C   0  0  0  0  0  0  0  0  0  0  0  0
   57.6020   24.5400   44.0910 C   0  0  0  0  0  0  0  0  0  0  0  0
   57.0110   23.5100   43.3890 C   0  0  0  0  0  0  0  0  0  0  0  0
   56.8500   22.2760   43.9660 C   0  0  0  0  0  0  0  0  0  0  0  0
   57.2970   22.0940   45.2700 C   0  0  0  0  0  0  0  0  0  0  0  0
   57.1490   20.7930   45.9310 C   0  0  0  0  0  0  0  0  0  0  0  0
   56.6500   19.6790   45.1930 N   0  0  0  0  0  0  0  0  0  0  0  0
   57.4470   20.6130   47.1450 O   0  0  0  0  0  0  0  0  0  0  0  0
   57.8820   23.1240   45.9520 C   0  0  0  0  0  0  0  0  0  0  0  0
   55.9160   29.6830   45.9930 H   0  0  0  0  0  0  0  0  0  0  0  0
   54.9107   30.1571   44.2645 H   0  0  0  0  0  0  0  0  0  0  0  0
   56.3405   31.6066   42.3523 H   0  0  0  0  0  0  0  0  0  0  0  0
   57.6803   31.4363   43.1332 H   0  0  0  0  0  0  0  0  0  0  0  0
   55.9456   29.1382   41.7567 H   0  0  0  0  0  0  0  0  0  0  0  0
   57.2104   28.5353   42.4290 H   0  0  0  0  0  0  0  0  0  0  0  0
   58.9370   30.1480   44.5170 H   0  0  0  0  0  0  0  0  0  0  0  0
   61.7080   28.5120   43.8860 H   0  0  0  0  0  0  0  0  0  0  0  0
   60.8120   26.5750   45.4310 H   0  0  0  0  0  0  0  0  0  0  0  0
   57.7162   25.5185   43.6016 H   0  0  0  0  0  0  0  0  0  0  0  0
   56.6661   23.6796   42.3583 H   0  0  0  0  0  0  0  0  0  0  0  0
   56.3791   21.4512   43.4111 H   0  0  0  0  0  0  0  0  0  0  0  0
   57.3280   19.2450   44.5060 H   0  0  0  0  0  0  0  0  0  0  0  0
   55.6860   19.3050   45.3120 H   0  0  0  0  0  0  0  0  0  0  0  0
   58.2274   22.9505   46.9819 H   0  0  0  0  0  0  0  0  0  0  0  0
  1  2  3  0
  2  3  1  0
  3  4  2  0
  4  5  1  0
  5  6  1  0
  6  7  1  0
  7  8  1  0
  4  9  1  0
  9 10  1  0
 10 11  2  3
 10 12  1  0
 12 13  1  0
 13 14  2  0
 14 15  1  0
 15 16  2  0
 16 17  1  0
 17 18  2  0
 18 19  1  0
 19 20  1  0
 20 21  1  0
 20 22  2  0
 19 23  2  0
 13  3  1  0
 23 15  1  0
  8  6  1  0
  5 24  1  0
  6 25  1  0
  7 26  1  0
  7 27  1  0
  8 28  1  0
  8 29  1  0
  9 30  1  0
 11 31  1  0
 12 32  1  0
 16 33  1  0
 17 34  1  0
 18 35  1  0
 21 36  1  0
 21 37  1  0
 23 38  1  0
M  END
>  <smiles>  (35) 
N#Cc1c(NC2CC2)[nH]c(=N)[nH]c1=Nc1cccc(C(N)=O)c1

>  <score_type>  (35) 
oracle

>  <origin>  (35) 
adg

>  <m_score__min__energy>  (35) 
-7.1699999999999999

>  <m_primary>  (35) 
energy

$$$$
35:0
     RDKit          3D

 33 34  0  0  0  0  0  0  0  0999 V2000
   58.1080   31.9590   42.9640 C   0  0  0  0  0  0  0  0  0  0  0  0
   56.9860   30.9300   42.8930 C   0  0  0  0  0  0  0  0  0  0  0  0
   57.3670   29.7040   43.5900 N   0  0  0  0  0  0  0  0  0  0  0  0
   56.5530   29.1130   44.6160 C   0  0  0  0  0  0  0  0  0  0  0  0
   55.4040   29.5740   44.8520 O   0  0  0  0  0  0  0  0  0  0  0  0
   57.0130   27.9240   45.3580 C   0  0  0  0  0  0  0  0  0  0  0  0
   56.1020   26.9520   45.6330 N   0  0  0  0  0  0  0  0  0  0  0  0
   56.4490   25.7970   46.2550 C   0  0  0  0  0  0  0  0  0  0  0  0
   57.7760   25.5910   46.6200 C   0  0  0  0  0  0  0  0  0  0  0  0
   58.6920   26.5620   46.3770 N   0  0  0  0  0  0  0  0  0  0  0  0
   58.3580   27.7310   45.7640 C   0  0  0  0  0  0  0  0  0  0  0  0
   59.4020   28.7730   45.6300 C   0  0  0  0  0  0  0  0  0  0  0  0
   60.0210   28.8990   44.5420 O   0  0  0  0  0  0  0  0  0  0  0  0
   59.6480   29.7230   46.6750 N   0  0  0  0  0  0  0  0  0  0  0  0
   59.6300   31.1520   46.5470 C   0  0  0  0  0  0  0  0  0  0  0  0
   58.4460   31.8540   46.2530 C   0  0  0  0  0  0  0  0  0  0  0  0
   58.4610   33.2490   46.1560 C   0  0  0  0  0  0  0  0  0  0  0  0
   59.6490   33.9550   46.3680 C   0  0  0  0  0  0  0  0  0  0  0  0
   59.6660   35.7050   46.2480 Cl  0  0  0  0  0  0  0  0  0  0  0  0
   60.8230   33.2630   46.6870 C   0  0  0  0  0  0  0  0  0  0  0  0
   60.8100   31.8680   46.7830 C   0  0  0  0  0  0  0  0  0  0  0  0
   58.3423   32.1739   44.0170 H   0  0  0  0  0  0  0  0  0  0  0  0
   59.0028   31.5610   42.4631 H   0  0  0  0  0  0  0  0  0  0  0  0
   57.7887   32.8848   42.4631 H   0  0  0  0  0  0  0  0  0  0  0  0
   56.0830   31.3470   43.3627 H   0  0  0  0  0  0  0  0  0  0  0  0
   56.7905   30.6912   41.8372 H   0  0  0  0  0  0  0  0  0  0  0  0
   58.2750   29.2550   43.3330 H   0  0  0  0  0  0  0  0  0  0  0  0
   55.6889   25.0311   46.4686 H   0  0  0  0  0  0  0  0  0  0  0  0
   58.0795   24.6495   47.1011 H   0  0  0  0  0  0  0  0  0  0  0  0
   57.5061   31.3037   46.0991 H   0  0  0  0  0  0  0  0  0  0  0  0
   57.5360   33.7921   45.9123 H   0  0  0  0  0  0  0  0  0  0  0  0
   61.7569   33.8171   46.8624 H   0  0  0  0  0  0  0  0  0  0  0  0
   61.7326   31.3297   47.0456 H   0  0  0  0  0  0  0  0  0  0  0  0
  1  2  1  0
  2  3  1  0
  3  4  1  0
  4  5  2  0
  4  6  1  0
  6  7  2  0
  7  8  1  0
  8  9  2  0
  9 10  1  0
 10 11  2  0
 11 12  1  0
 12 13  2  0
 12 14  1  0
 14 15  1  0
 15 16  2  0
 16 17  1  0
 17 18  2  0
 18 19  1  0
 18 20  1  0
 20 21  2  0
 11  6  1  0
 21 15  1  0
  1 22  1  0
  1 23  1  0
  1 24  1  0
  2 25  1  0
  2 26  1  0
  3 27  1  0
  8 28  1  0
  9 29  1  0
 16 30  1  0
 17 31  1  0
 20 32  1  0
 21 33  1  0
M  CHG  1  14  -1
M  END
>  <UniqueID>  (36) 
33

>  <SMILES>  (36) 
CCNC(=O)c1nccnc1C(=O)[N-]c1ccc(Cl)cc1

>  <Energy>  (36) 
42.42738112360261

>  <Genealogy>  (36) 
CCNC(=O)c1nccnc1C(=O)[N-]c1ccc(Cl)cc1 (protonated)
CCNC(=O)c1nccnc1C(=O)[N-]c1ccc(Cl)cc1 (3D coordinates assigned)
CCNC(=O)c1nccnc1C(=O)[N-]c1ccc(Cl)cc1 (optimized conformer: 42.42738112360261 kcal/mol)

>  <smiles>  (36) 
CCNC(=O)c1nccnc1C(=O)Nc1ccc(Cl)cc1

>  <score_type>  (36) 
oracle

>  <origin>  (36) 
adg

>  <m_score__min__energy>  (36) 
-8.4100000000000001

>  <m_primary>  (36) 
energy

$$$$
36:0
     RDKit          3D

 60 62  0  0  0  0  0  0  0  0999 V2000
   60.4130   29.7280   45.0160 O   0  0  0  0  0  0  0  0  0  0  0  0
   60.7050   28.9700   45.9780 C   0  0  0  0  0  0  0  0  0  0  0  0
   60.7090   27.4860   45.7360 C   0  0  0  0  0  0  0  0  0  0  0  0
   59.9970   26.7580   46.8830 C   0  0  0  0  0  0  0  0  0  0  0  0
   58.5220   26.6380   46.6140 C   0  0  0  0  0  0  0  0  0  0  0  0
   57.8600   27.6250   45.8640 C   0  0  0  0  0  0  0  0  0  0  0  0
   56.4850   27.5240   45.6230 C   0  0  0  0  0  0  0  0  0  0  0  0
   55.7640   26.4360   46.1250 C   0  0  0  0  0  0  0  0  0  0  0  0
   54.3980   26.3390   45.8860 O   0  0  0  0  0  0  0  0  0  0  0  0
   56.4170   25.4490   46.8710 C   0  0  0  0  0  0  0  0  0  0  0  0
   57.7890   25.5540   47.1250 C   0  0  0  0  0  0  0  0  0  0  0  0
   61.0590   29.5700   47.2350 N   0  0  0  0  0  0  0  0  0  0  0  0
   60.3740   30.6200   48.0010 C   0  0  2  0  0  0  0  0  0  0  0  0
   60.6820   30.5150   49.5120 C   0  0  0  0  0  0  0  0  0  0  0  0
   59.4680   30.7900   50.3660 C   0  0  0  0  0  0  0  0  0  0  0  0
   58.9860   32.1010   50.5150 C   0  0  0  0  0  0  0  0  0  0  0  0
   57.8480   32.3510   51.2860 C   0  0  0  0  0  0  0  0  0  0  0  0
   57.1820   31.2950   51.9180 C   0  0  0  0  0  0  0  0  0  0  0  0
   56.0500   31.5450   52.6840 O   0  0  0  0  0  0  0  0  0  0  0  0
   57.6590   29.9880   51.7810 C   0  0  0  0  0  0  0  0  0  0  0  0
   58.7980   29.7360   51.0110 C   0  0  0  0  0  0  0  0  0  0  0  0
   58.8970   30.6680   47.6920 C   0  0  0  0  0  0  0  0  0  0  0  0
   58.1840   29.6350   47.8140 O   0  0  0  0  0  0  0  0  0  0  0  0
   58.3260   31.8850   47.1940 N   0  0  0  0  0  0  0  0  0  0  0  0
   58.6500   32.5460   45.9280 C   0  0  1  0  0  0  0  0  0  0  0  0
   57.4320   32.5270   44.9870 C   0  0  0  0  0  0  0  0  0  0  0  0
   56.6800   31.3560   45.1660 O   0  0  0  0  0  0  0  0  0  0  0  0
   59.1820   33.9770   46.1460 C   0  0  0  0  0  0  0  0  0  0  0  0
   60.4160   34.0000   47.0130 C   0  0  0  0  0  0  0  0  0  0  0  0
   61.6810   33.7510   46.4550 C   0  0  0  0  0  0  0  0  0  0  0  0
   62.8190   33.7460   47.2670 C   0  0  0  0  0  0  0  0  0  0  0  0
   62.7060   34.0030   48.6360 C   0  0  0  0  0  0  0  0  0  0  0  0
   61.4520   34.2600   49.1970 C   0  0  0  0  0  0  0  0  0  0  0  0
   60.3100   34.2540   48.3910 C   0  0  0  0  0  0  0  0  0  0  0  0
   60.1885   27.2710   44.7911 H   0  0  0  0  0  0  0  0  0  0  0  0
   61.7501   27.1351   45.6809 H   0  0  0  0  0  0  0  0  0  0  0  0
   60.4259   25.7508   46.9906 H   0  0  0  0  0  0  0  0  0  0  0  0
   60.1380   27.3384   47.8067 H   0  0  0  0  0  0  0  0  0  0  0  0
   58.4247   28.4804   45.4647 H   0  0  0  0  0  0  0  0  0  0  0  0
   55.9710   28.3011   45.0382 H   0  0  0  0  0  0  0  0  0  0  0  0
   55.8510   24.5891   47.2585 H   0  0  0  0  0  0  0  0  0  0  0  0
   58.2954   24.7851   47.7269 H   0  0  0  0  0  0  0  0  0  0  0  0
   60.7781   31.5901   47.6760 H   0  0  0  0  0  0  0  0  0  0  0  0
   61.0442   29.4993   49.7292 H   0  0  0  0  0  0  0  0  0  0  0  0
   61.4414   31.2733   49.7535 H   0  0  0  0  0  0  0  0  0  0  0  0
   59.5072   32.9350   50.0222 H   0  0  0  0  0  0  0  0  0  0  0  0
   57.4749   33.3799   51.3964 H   0  0  0  0  0  0  0  0  0  0  0  0
   57.1377   29.1575   52.2795 H   0  0  0  0  0  0  0  0  0  0  0  0
   59.1723   28.7067   50.9092 H   0  0  0  0  0  0  0  0  0  0  0  0
   59.4625   31.9810   45.4478 H   0  0  0  0  0  0  0  0  0  0  0  0
   56.7971   33.3992   45.2018 H   0  0  0  0  0  0  0  0  0  0  0  0
   57.7901   32.5596   43.9474 H   0  0  0  0  0  0  0  0  0  0  0  0
   57.0070   30.9350   46.0060 H   0  0  0  0  0  0  0  0  0  0  0  0
   59.4279   34.4164   45.1680 H   0  0  0  0  0  0  0  0  0  0  0  0
   58.3983   34.5543   46.6585 H   0  0  0  0  0  0  0  0  0  0  0  0
   61.7764   33.5594   45.3760 H   0  0  0  0  0  0  0  0  0  0  0  0
   63.8058   33.5393   46.8272 H   0  0  0  0  0  0  0  0  0  0  0  0
   63.6037   34.0030   49.2718 H   0  0  0  0  0  0  0  0  0  0  0  0
   61.3636   34.4672   50.2737 H   0  0  0  0  0  0  0  0  0  0  0  0
   59.3238   34.4490   48.8375 H   0  0  0  0  0  0  0  0  0  0  0  0
  1  2  2  0
  2  3  1  0
  3  4  1  0
  4  5  1  0
  5  6  2  0
  6  7  1  0
  7  8  2  0
  8  9  1  0
  8 10  1  0
 10 11  2  0
  2 12  1  0
 12 13  1  0
 13 14  1  0
 14 15  1  0
 15 16  2  0
 16 17  1  0
 17 18  2  0
 18 19  1  0
 18 20  1  0
 20 21  2  0
 13 22  1  0
 22 23  2  0
 22 24  1  0
 24 25  1  0
 25 26  1  0
 26 27  1  0
 25 28  1  0
 28 29  1  0
 29 30  2  0
 30 31  1  0
 31 32  2  0
 32 33  1  0
 33 34  2  0
 11  5  1  0
 21 15  1  0
 34 29  1  0
  3 35  1  0
  3 36  1  0
  4 37  1  0
  4 38  1  0
  6 39  1  0
  7 40  1  0
 10 41  1  0
 11 42  1  0
 13 43  1  6
 14 44  1  0
 14 45  1  0
 16 46  1  0
 17 47  1  0
 20 48  1  0
 21 49  1  0
 25 50  1  6
 26 51  1  0
 26 52  1  0
 27 53  1  0
 28 54  1  0
 28 55  1  0
 30 56  1  0
 31 57  1  0
 32 58  1  0
 33 59  1  0
 34 60  1  0
M  CHG  4   9  -1  12  -1  19  -1  24  -1
M  END
>  <UniqueID>  (37) 
34

>  <SMILES>  (37) 
O=C(CCc1ccc([O-])cc1)[N-][C@H](Cc1ccc([O-])cc1)C(=O)[N-][C@@H](CO)Cc1ccccc1

>  <Energy>  (37) 
49.79024801333437

>  <Genealogy>  (37) 
O=C(CCc1ccc([O-])cc1)[N-]C(Cc1ccc([O-])cc1)C(=O)[N-]C(CO)Cc1ccccc1 (protonated)
O=C(CCc1ccc([O-])cc1)[N-][C@H](Cc1ccc([O-])cc1)C(=O)[N-][C@@H](CO)Cc1ccccc1 (chirality)
O=C(CCc1ccc([O-])cc1)[N-][C@H](Cc1ccc([O-])cc1)C(=O)[N-][C@@H](CO)Cc1ccccc1 (3D coordinates assigned)
O=C(CCc1ccc([O-])cc1)[N-][C@H](Cc1ccc([O-])cc1)C(=O)[N-][C@@H](CO)Cc1ccccc1 (optimized conformer: 49.79024801333437 kcal/mol)

>  <smiles>  (37) 
O=C(CCc1ccc(O)cc1)NC(Cc1ccc(O)cc1)C(=O)NC(CO)Cc1ccccc1

>  <score_type>  (37) 
oracle

>  <origin>  (37) 
adg

>  <m_score__min__energy>  (37) 
-15.23

>  <m_primary>  (37) 
energy

$$$$
37:0
     RDKit          3D

 31 33  0  0  0  0  0  0  0  0999 V2000
   60.0185   35.7023   47.0974 H   0  0  0  0  0  0  0  0  0  0  0  0
   59.3540   34.9380   46.6680 C   0  0  0  0  0  0  0  0  0  0  0  0
   58.6560   34.1070   47.4870 N   0  0  0  0  0  0  0  0  0  0  0  0
   57.8150   33.1570   46.9940 C   0  0  0  0  0  0  0  0  0  0  0  0
   57.2709   32.4941   47.6829 H   0  0  0  0  0  0  0  0  0  0  0  0
   57.6410   33.0220   45.6060 C   0  0  0  0  0  0  0  0  0  0  0  0
   56.7800   32.0210   45.0420 N   0  0  0  0  0  0  0  0  0  0  0  0
   57.1800   30.9590   44.1650 C   0  0  0  0  0  0  0  0  0  0  0  0
   57.2790   31.2010   42.9330 O   0  0  0  0  0  0  0  0  0  0  0  0
   57.4220   29.5820   44.6560 C   0  0  0  0  0  0  0  0  0  0  0  0
   58.7380   29.0560   44.6650 C   0  0  0  0  0  0  0  0  0  0  0  0
   59.5737   29.6758   44.3080 H   0  0  0  0  0  0  0  0  0  0  0  0
   58.9870   27.7540   45.1240 C   0  0  0  0  0  0  0  0  0  0  0  0
   60.0082   27.3453   45.1380 H   0  0  0  0  0  0  0  0  0  0  0  0
   57.9070   26.9940   45.5610 C   0  0  0  0  0  0  0  0  0  0  0  0
   57.9030   25.4220   46.1470 S   0  0  0  0  0  0  0  0  0  0  0  0
   56.2170   25.4430   46.3730 C   0  0  0  0  0  0  0  0  0  0  0  0
   55.4900   24.4510   46.7930 N   0  0  0  0  0  0  0  0  0  0  0  0
   55.8910   23.4350   47.7250 C   0  0  0  0  0  0  0  0  0  0  0  0
   57.0450   22.9430   47.6350 O   0  0  0  0  0  0  0  0  0  0  0  0
   54.9800   22.9120   48.6950 N   0  0  0  0  0  0  0  0  0  0  0  0
   55.3090   22.2110   49.3960 H   0  0  0  0  0  0  0  0  0  0  0  0
   53.9610   23.1300   48.6490 H   0  0  0  0  0  0  0  0  0  0  0  0
   55.6620   26.6190   45.9910 N   0  0  0  0  0  0  0  0  0  0  0  0
   56.6120   27.4820   45.5470 C   0  0  0  0  0  0  0  0  0  0  0  0
   56.3470   28.7730   45.0900 C   0  0  0  0  0  0  0  0  0  0  0  0
   55.3161   29.1561   45.0676 H   0  0  0  0  0  0  0  0  0  0  0  0
   58.3730   33.8530   44.7530 C   0  0  0  0  0  0  0  0  0  0  0  0
   58.2753   33.7434   43.6628 H   0  0  0  0  0  0  0  0  0  0  0  0
   59.2280   34.8220   45.2820 C   0  0  0  0  0  0  0  0  0  0  0  0
   59.7960   35.4866   44.6144 H   0  0  0  0  0  0  0  0  0  0  0  0
  1  2  1  0
  2  3  2  0
  3  4  1  0
  4  5  1  0
  4  6  2  0
  6  7  1  0
  7  8  1  0
  8  9  2  0
  8 10  1  0
 10 11  2  0
 11 12  1  0
 11 13  1  0
 13 14  1  0
 13 15  2  0
 15 16  1  0
 16 17  1  0
 17 18  2  0
 18 19  1  0
 19 20  2  0
 19 21  1  0
 21 22  1  0
 21 23  1  0
 17 24  1  0
 24 25  1  0
 25 26  2  0
 26 27  1  0
  6 28  1  0
 28 29  1  0
 28 30  2  0
 30 31  1  0
 30  2  1  0
 26 10  1  0
 25 15  1  0
M  CHG  2   7  -1  24  -1
M  END
>  <UniqueID>  (38) 
35

>  <SMILES>  (38) 
NC(=O)/N=c1/[n-]c2cc(C(=O)[N-]c3cccnc3)ccc2s1

>  <Energy>  (38) 
80.73256111011518

>  <Genealogy>  (38) 
NC(=O)N=c1[n-]c2cc(C(=O)[N-]c3cccnc3)ccc2s1 (protonated)
NC(=O)/N=c1/[n-]c2cc(C(=O)[N-]c3cccnc3)ccc2s1 (cis-trans isomerization)
NC(=O)/N=c1/[n-]c2cc(C(=O)[N-]c3cccnc3)ccc2s1 (3D coordinates assigned)
NC(=O)/N=c1/[n-]c2cc(C(=O)[N-]c3cccnc3)ccc2s1 (optimized conformer: 80.73256111011518 kcal/mol)

>  <smiles>  (38) 
NC(=O)N=c1[nH]c2cc(C(=O)Nc3cccnc3)ccc2s1

>  <score_type>  (38) 
oracle

>  <origin>  (38) 
adg

>  <m_score__min__energy>  (38) 
-10.529999999999999

>  <m_primary>  (38) 
energy

$$$$
38:0
     RDKit          3D

 57 61  0  0  0  0  0  0  0  0999 V2000
   56.0380   28.5440   43.9790 H   0  0  0  0  0  0  0  0  0  0  0  0
   55.8920   28.5320   44.9800 O   0  0  0  0  0  0  0  0  0  0  0  0
   56.3010   27.4460   45.7450 C   0  0  0  0  0  0  0  0  0  0  0  0
   55.5170   26.3820   45.9880 N   0  0  0  0  0  0  0  0  0  0  0  0
   56.3050   25.5880   46.7410 C   0  0  0  0  0  0  0  0  0  0  0  0
   55.9090   24.4250   47.1630 N   0  0  0  0  0  0  0  0  0  0  0  0
   56.5730   23.1580   46.8600 C   0  0  0  0  0  0  0  0  0  0  0  0
   57.6189   23.2093   47.1969 H   0  0  0  0  0  0  0  0  0  0  0  0
   56.0421   22.3480   47.3816 H   0  0  0  0  0  0  0  0  0  0  0  0
   56.5440   22.8800   45.3810 C   0  0  0  0  0  0  0  0  0  0  0  0
   57.4420   21.9560   44.8220 C   0  0  0  0  0  0  0  0  0  0  0  0
   58.1788   21.4503   45.4634 H   0  0  0  0  0  0  0  0  0  0  0  0
   57.4020   21.6770   43.4520 C   0  0  0  0  0  0  0  0  0  0  0  0
   58.1078   20.9533   43.0183 H   0  0  0  0  0  0  0  0  0  0  0  0
   56.4670   22.3160   42.6330 C   0  0  0  0  0  0  0  0  0  0  0  0
   56.4384   22.0958   41.5556 H   0  0  0  0  0  0  0  0  0  0  0  0
   55.5690   23.2340   43.1820 C   0  0  0  0  0  0  0  0  0  0  0  0
   54.8322   23.7346   42.5366 H   0  0  0  0  0  0  0  0  0  0  0  0
   55.6050   23.5180   44.5520 C   0  0  0  0  0  0  0  0  0  0  0  0
   54.8968   24.2422   44.9810 H   0  0  0  0  0  0  0  0  0  0  0  0
   57.5360   26.0950   46.9880 N   0  0  0  0  0  0  0  0  0  0  0  0
   57.5340   27.2800   46.3490 C   0  0  0  0  0  0  0  0  0  0  0  0
   58.7400   28.1860   46.3300 C   0  0  0  0  0  0  0  0  0  0  0  0
   59.6055   27.6035   45.9813 H   0  0  0  0  0  0  0  0  0  0  0  0
   58.8712   28.5648   47.3544 H   0  0  0  0  0  0  0  0  0  0  0  0
   58.5860   29.3860   45.4370 C   0  0  0  0  0  0  0  0  0  0  0  0
   58.4970   29.3590   44.0490 C   0  0  0  0  0  0  0  0  0  0  0  0
   58.6130   28.4570   43.4302 H   0  0  0  0  0  0  0  0  0  0  0  0
   58.2480   30.5970   43.5680 N   0  0  0  0  0  0  0  0  0  0  0  0
   58.1170   30.8620   42.5660 H   0  0  0  0  0  0  0  0  0  0  0  0
   58.1650   31.4040   44.6380 C   0  0  0  0  0  0  0  0  0  0  0  0
   57.8710   32.7660   44.6400 C   0  0  0  0  0  0  0  0  0  0  0  0
   57.7141   33.3132   43.6987 H   0  0  0  0  0  0  0  0  0  0  0  0
   57.7810   33.4190   45.8800 C   0  0  0  0  0  0  0  0  0  0  0  0
   57.5488   34.4936   45.9149 H   0  0  0  0  0  0  0  0  0  0  0  0
   57.9860   32.7080   47.0820 C   0  0  0  0  0  0  0  0  0  0  0  0
   57.9084   33.2315   48.0463 H   0  0  0  0  0  0  0  0  0  0  0  0
   58.2910   31.3250   47.0550 C   0  0  0  0  0  0  0  0  0  0  0  0
   58.5250   30.5760   48.2150 O   0  0  0  0  0  0  0  0  0  0  0  0
   59.4740   30.9110   49.2230 C   0  0  0  0  0  0  0  0  0  0  0  0
   59.3848   30.2045   50.0614 H   0  0  0  0  0  0  0  0  0  0  0  0
   59.2826   31.9318   49.5853 H   0  0  0  0  0  0  0  0  0  0  0  0
   60.8500   30.8330   48.6490 C   0  0  0  0  0  0  0  0  0  0  0  0
   61.6960   30.0480   49.1580 O   0  0  0  0  0  0  0  0  0  0  0  0
   61.1980   31.6350   47.5180 N   0  0  0  0  0  0  0  0  0  0  0  0
   61.7140   33.2780   47.6810 S   0  0  0  0  0  0  0  0  0  0  0  0
   62.1940   33.7830   46.3490 O   0  0  0  0  0  0  0  0  0  0  0  0
   60.5610   34.1200   48.1450 O   0  0  0  0  0  0  0  0  0  0  0  0
   63.0000   33.3720   48.8670 C   0  0  0  0  0  0  0  0  0  0  0  0
   62.9110   34.1890   50.3310 S   0  0  0  0  0  0  0  0  0  0  0  0
   64.4690   33.8040   50.8370 C   0  0  0  0  0  0  0  0  0  0  0  0
   64.9323   34.1153   51.7849 H   0  0  0  0  0  0  0  0  0  0  0  0
   65.0720   33.0260   49.8550 C   0  0  0  0  0  0  0  0  0  0  0  0
   66.0986   32.6399   49.9384 H   0  0  0  0  0  0  0  0  0  0  0  0
   64.2490   32.7810   48.7510 C   0  0  0  0  0  0  0  0  0  0  0  0
   64.5599   32.1824   47.8821 H   0  0  0  0  0  0  0  0  0  0  0  0
   58.3680   30.7060   45.8030 C   0  0  0  0  0  0  0  0  0  0  0  0
  1  2  1  0
  2  3  1  0
  3  4  1  0
  4  5  1  0
  5  6  2  0
  6  7  1  0
  7  8  1  0
  7  9  1  0
  7 10  1  0
 10 11  2  0
 11 12  1  0
 11 13  1  0
 13 14  1  0
 13 15  2  0
 15 16  1  0
 15 17  1  0
 17 18  1  0
 17 19  2  0
 19 20  1  0
  5 21  1  0
 21 22  1  0
 22 23  1  0
 23 24  1  0
 23 25  1  0
 23 26  1  0
 26 27  2  0
 27 28  1  0
 27 29  1  0
 29 30  1  0
 29 31  1  0
 31 32  2  0
 32 33  1  0
 32 34  1  0
 34 35  1  0
 34 36  2  0
 36 37  1  0
 36 38  1  0
 38 39  1  0
 39 40  1  0
 40 41  1  0
 40 42  1  0
 40 43  1  0
 43 44  2  0
 43 45  1  0
 45 46  1  0
 46 47  2  0
 46 48  2  0
 46 49  1  0
 49 50  1  0
 50 51  1  0
 51 52  1  0
 51 53  2  0
 53 54  1  0
 53 55  1  0
 55 56  1  0
 38 57  2  0
 22  3  2  0
 57 26  1  0
 19 10  1  0
 57 31  1  0
 55 49  2  0
M  CHG  3   4  -1  21  -1  45  -1
M  END
>  <UniqueID>  (39) 
36

>  <SMILES>  (39) 
O=C(COc1cccc2[nH]cc(Cc3[n-]/c(=N\Cc4ccccc4)[n-]c3O)c12)[N-]S(=O)(=O)c1cccs1

>  <Energy>  (39) 
147.47817192124296

>  <Genealogy>  (39) 
O=C(COc1cccc2[nH]cc(Cc3[n-]c(=NCc4ccccc4)[n-]c3O)c12)[N-]S(=O)(=O)c1cccs1 (protonated)
O=C(COc1cccc2[nH]cc(Cc3[n-]/c(=N\Cc4ccccc4)[n-]c3O)c12)[N-]S(=O)(=O)c1cccs1 (cis-trans isomerization)
O=C(COc1cccc2[nH]cc(Cc3[n-]/c(=N\Cc4ccccc4)[n-]c3O)c12)[N-]S(=O)(=O)c1cccs1 (3D coordinates assigned)
O=C(COc1cccc2[nH]cc(Cc3[n-]/c(=N\Cc4ccccc4)[n-]c3O)c12)[N-]S(=O)(=O)c1cccs1 (optimized conformer: 147.47817192124296 kcal/mol)

>  <smiles>  (39) 
O=C(COc1cccc2[nH]cc(Cc3[nH]c(=NCc4ccccc4)[nH]c3O)c12)NS(=O)(=O)c1cccs1

>  <score_type>  (39) 
oracle

>  <origin>  (39) 
adg

>  <m_score__min__energy>  (39) 
-13.81

>  <m_primary>  (39) 
energy

$$$$
39:0
     RDKit          3D

 32 34  0  0  0  0  0  0  0  0999 V2000
   59.6350   30.9570   48.0730 O   0  0  0  0  0  0  0  0  0  0  0  0
   59.1270   31.1240   46.9310 C   0  0  0  0  0  0  0  0  0  0  0  0
   58.5990   32.4530   46.5490 C   0  0  0  0  0  0  0  0  0  0  0  0
   58.7050   33.7990   47.7440 S   0  0  0  0  0  0  0  0  0  0  0  0
   60.1140   34.5960   46.9070 C   0  0  0  0  0  0  0  0  0  0  0  0
   61.3840   33.8970   47.2940 C   0  0  0  0  0  0  0  0  0  0  0  0
   61.5360   33.3640   48.5850 C   0  0  0  0  0  0  0  0  0  0  0  0
   62.7350   32.7440   48.9540 C   0  0  0  0  0  0  0  0  0  0  0  0
   63.7910   32.6600   48.0410 C   0  0  0  0  0  0  0  0  0  0  0  0
   63.6520   33.2010   46.7600 C   0  0  0  0  0  0  0  0  0  0  0  0
   62.4550   33.8220   46.3860 C   0  0  0  0  0  0  0  0  0  0  0  0
   58.0430   32.6460   45.3360 C   0  0  0  0  0  0  0  0  0  0  0  0
   57.3980   34.2210   44.8690 Cl  0  0  0  0  0  0  0  0  0  0  0  0
   57.9600   31.5380   44.3590 C   0  0  0  0  0  0  0  0  0  0  0  0
   57.4370   31.7390   43.2290 O   0  0  0  0  0  0  0  0  0  0  0  0
   58.4860   30.2000   44.7060 C   0  0  0  0  0  0  0  0  0  0  0  0
   58.4210   29.1650   43.8160 N   0  0  0  0  0  0  0  0  0  0  0  0
   58.9010   27.9290   44.1240 C   0  0  0  0  0  0  0  0  0  0  0  0
   59.4790   27.6900   45.3710 C   0  0  0  0  0  0  0  0  0  0  0  0
   59.5590   28.7270   46.2990 C   0  0  0  0  0  0  0  0  0  0  0  0
   59.0610   29.9980   45.9750 C   0  0  0  0  0  0  0  0  0  0  0  0
   59.9774   34.5323   45.8174 H   0  0  0  0  0  0  0  0  0  0  0  0
   60.1700   35.6527   47.2075 H   0  0  0  0  0  0  0  0  0  0  0  0
   60.7099   33.4343   49.3080 H   0  0  0  0  0  0  0  0  0  0  0  0
   62.8471   32.3221   49.9637 H   0  0  0  0  0  0  0  0  0  0  0  0
   64.7311   32.1681   48.3312 H   0  0  0  0  0  0  0  0  0  0  0  0
   64.4850   33.1386   46.0443 H   0  0  0  0  0  0  0  0  0  0  0  0
   62.3517   34.2526   45.3791 H   0  0  0  0  0  0  0  0  0  0  0  0
   57.9950   29.3080   42.8720 H   0  0  0  0  0  0  0  0  0  0  0  0
   58.8329   27.1155   43.3868 H   0  0  0  0  0  0  0  0  0  0  0  0
   59.8683   26.6917   45.6198 H   0  0  0  0  0  0  0  0  0  0  0  0
   60.0125   28.5489   47.2852 H   0  0  0  0  0  0  0  0  0  0  0  0
  1  2  2  0
  2  3  1  0
  3  4  1  0
  4  5  1  0
  5  6  1  0
  6  7  2  0
  7  8  1  0
  8  9  2  0
  9 10  1  0
 10 11  2  0
  3 12  2  0
 12 13  1  0
 12 14  1  0
 14 15  2  0
 14 16  1  0
 16 17  2  0
 17 18  1  0
 18 19  2  0
 19 20  1  0
 20 21  2  0
 21  2  1  0
 11  6  1  0
 21 16  1  0
  5 22  1  0
  5 23  1  0
  7 24  1  0
  8 25  1  0
  9 26  1  0
 10 27  1  0
 11 28  1  0
 17 29  1  0
 18 30  1  0
 19 31  1  0
 20 32  1  0
M  CHG  1  17   1
M  END
>  <UniqueID>  (40) 
37

>  <SMILES>  (40) 
O=C1C(SCc2ccccc2)=C(Cl)C(=O)c2[nH+]cccc21

>  <Energy>  (40) 
33.07245882215235

>  <Genealogy>  (40) 
O=C1C(SCc2ccccc2)=C(Cl)C(=O)c2[nH+]cccc21 (protonated)
O=C1C(SCc2ccccc2)=C(Cl)C(=O)c2[nH+]cccc21 (3D coordinates assigned)
O=C1C(SCc2ccccc2)=C(Cl)C(=O)c2[nH+]cccc21 (nonaromatic ring conformer: 33.07245882215235 kcal/mol)

>  <smiles>  (40) 
O=C1C(SCc2ccccc2)=C(Cl)C(=O)c2ncccc21

>  <score_type>  (40) 
oracle

>  <origin>  (40) 
adg

>  <m_score__min__energy>  (40) 
-6.3899999999999997

>  <m_primary>  (40) 
energy

$$$$
40:0
     RDKit          3D

 44 46  0  0  0  0  0  0  0  0999 V2000
   58.3160   33.1260   43.6260 C   0  0  0  0  0  0  0  0  0  0  0  0
   57.5090   33.8970   45.0110 S   0  0  0  0  0  0  0  0  0  0  0  0
   56.6330   35.0110   44.5100 O   0  0  0  0  0  0  0  0  0  0  0  0
   56.6770   32.8720   45.7270 O   0  0  0  0  0  0  0  0  0  0  0  0
   58.7150   34.5320   46.0810 N   0  0  0  0  0  0  0  0  0  0  0  0
   59.4230   33.7740   47.0720 C   0  0  0  0  0  0  0  0  0  0  0  0
   60.0740   34.4620   48.1020 C   0  0  0  0  0  0  0  0  0  0  0  0
   60.7850   33.7630   49.0800 C   0  0  0  0  0  0  0  0  0  0  0  0
   60.8430   32.3680   49.0430 C   0  0  0  0  0  0  0  0  0  0  0  0
   60.1740   31.6590   48.0280 C   0  0  0  0  0  0  0  0  0  0  0  0
   60.2280   30.2280   47.9390 N   0  0  0  0  0  0  0  0  0  0  0  0
   59.1140   29.3430   47.7600 C   0  0  0  0  0  0  0  0  0  0  0  0
   58.5070   28.8790   48.7630 O   0  0  0  0  0  0  0  0  0  0  0  0
   58.6230   29.0480   46.3910 C   0  0  0  0  0  0  0  0  0  0  0  0
   58.5080   30.1090   45.4730 C   0  0  0  0  0  0  0  0  0  0  0  0
   57.9870   29.8950   44.1960 C   0  0  0  0  0  0  0  0  0  0  0  0
   57.5770   28.6200   43.8120 C   0  0  0  0  0  0  0  0  0  0  0  0
   57.6970   27.5510   44.6990 C   0  0  0  0  0  0  0  0  0  0  0  0
   58.2220   27.7450   45.9890 C   0  0  0  0  0  0  0  0  0  0  0  0
   58.4100   26.5550   46.8530 C   0  0  0  0  0  0  0  0  0  0  0  0
   59.5800   26.1710   47.1180 O   0  0  0  0  0  0  0  0  0  0  0  0
   57.3030   25.7680   47.3250 N   0  0  0  0  0  0  0  0  0  0  0  0
   56.5920   24.9260   46.6310 C   0  0  0  0  0  0  0  0  0  0  0  0
   56.9520   23.6140   46.5300 N   0  0  0  0  0  0  0  0  0  0  0  0
   56.2340   22.7220   45.7970 C   0  0  0  0  0  0  0  0  0  0  0  0
   55.0920   23.1410   45.1120 C   0  0  0  0  0  0  0  0  0  0  0  0
   54.7040   24.4790   45.1870 C   0  0  0  0  0  0  0  0  0  0  0  0
   55.4560   25.3810   45.9460 C   0  0  0  0  0  0  0  0  0  0  0  0
   55.0700   26.7150   46.0150 O   0  0  0  0  0  0  0  0  0  0  0  0
   59.4840   32.3680   47.0360 C   0  0  0  0  0  0  0  0  0  0  0  0
   59.0662   32.4092   43.9912 H   0  0  0  0  0  0  0  0  0  0  0  0
   57.5700   32.5966   43.0151 H   0  0  0  0  0  0  0  0  0  0  0  0
   58.8108   33.8954   43.0151 H   0  0  0  0  0  0  0  0  0  0  0  0
   60.0255   35.5602   48.1417 H   0  0  0  0  0  0  0  0  0  0  0  0
   61.3006   34.3125   49.8814 H   0  0  0  0  0  0  0  0  0  0  0  0
   61.4131   31.8221   49.8092 H   0  0  0  0  0  0  0  0  0  0  0  0
   58.8325   31.1185   45.7655 H   0  0  0  0  0  0  0  0  0  0  0  0
   57.8999   30.7349   43.4911 H   0  0  0  0  0  0  0  0  0  0  0  0
   57.1582   28.4566   42.8080 H   0  0  0  0  0  0  0  0  0  0  0  0
   57.3778   26.5458   44.3866 H   0  0  0  0  0  0  0  0  0  0  0  0
   56.5528   21.6706   45.7437 H   0  0  0  0  0  0  0  0  0  0  0  0
   54.5045   22.4241   44.5196 H   0  0  0  0  0  0  0  0  0  0  0  0
   53.8080   24.8238   44.6500 H   0  0  0  0  0  0  0  0  0  0  0  0
   58.9856   31.8213   46.2219 H   0  0  0  0  0  0  0  0  0  0  0  0
  1  2  1  0
  2  3  2  0
  2  4  2  0
  2  5  1  0
  5  6  1  0
  6  7  2  0
  7  8  1  0
  8  9  2  0
  9 10  1  0
 10 11  1  0
 11 12  1  0
 12 13  2  0
 12 14  1  0
 14 15  2  0
 15 16  1  0
 16 17  2  0
 17 18  1  0
 18 19  2  0
 19 20  1  0
 20 21  2  0
 20 22  1  0
 22 23  2  3
 23 24  1  0
 24 25  1  0
 25 26  2  0
 26 27  1  0
 27 28  2  0
 28 29  1  0
 10 30  2  0
 30  6  1  0
 19 14  1  0
 28 23  1  0
  1 31  1  0
  1 32  1  0
  1 33  1  0
  7 34  1  0
  8 35  1  0
  9 36  1  0
 15 37  1  0
 16 38  1  0
 17 39  1  0
 18 40  1  0
 25 41  1  0
 26 42  1  0
 27 43  1  0
 30 44  1  0
M  CHG  4   5  -1  11  -1  24  -1  29  -1
M  END
>  <UniqueID>  (41) 
38

>  <SMILES>  (41) 
CS(=O)(=O)[N-]c1cccc([N-]C(=O)c2ccccc2C(=O)N=c2[n-]cccc2[O-])c1

>  <Energy>  (41) 
63.98307681873597

>  <Genealogy>  (41) 
CS(=O)(=O)[N-]c1cccc([N-]C(=O)c2ccccc2C(=O)N=c2[n-]cccc2[O-])c1 (protonated)
CS(=O)(=O)[N-]c1cccc([N-]C(=O)c2ccccc2C(=O)N=c2[n-]cccc2[O-])c1 (3D coordinates assigned)
CS(=O)(=O)[N-]c1cccc([N-]C(=O)c2ccccc2C(=O)N=c2[n-]cccc2[O-])c1 (optimized conformer: 63.98307681873597 kcal/mol)

>  <smiles>  (41) 
CS(=O)(=O)Nc1cccc(NC(=O)c2ccccc2C(=O)N=c2[nH]cccc2O)c1

>  <score_type>  (41) 
oracle

>  <origin>  (41) 
adg

>  <m_score__min__energy>  (41) 
-16.219999999999999

>  <m_primary>  (41) 
energy

$$$$
41:0
     RDKit          3D

 43 45  0  0  0  0  0  0  0  0999 V2000
   60.1640   31.1260   48.2390 O   0  0  0  0  0  0  0  0  0  0  0  0
   59.2180   30.3730   47.8800 C   0  0  0  0  0  0  0  0  0  0  0  0
   59.1580   29.0140   48.3330 N   0  0  0  0  0  0  0  0  0  0  0  0
   59.9580   28.4810   49.4030 C   0  0  0  0  0  0  0  0  0  0  0  0
   60.2780   29.2510   50.5370 C   0  0  0  0  0  0  0  0  0  0  0  0
   61.0370   28.6990   51.5730 C   0  0  0  0  0  0  0  0  0  0  0  0
   61.4700   27.3720   51.4950 C   0  0  0  0  0  0  0  0  0  0  0  0
   62.2040   26.8380   52.5020 F   0  0  0  0  0  0  0  0  0  0  0  0
   61.1370   26.5940   50.3840 C   0  0  0  0  0  0  0  0  0  0  0  0
   60.3770   27.1420   49.3460 C   0  0  0  0  0  0  0  0  0  0  0  0
   58.2640   30.8210   46.9560 O   0  0  0  0  0  0  0  0  0  0  0  0
   58.2850   32.0650   46.3080 C   0  0  0  0  0  0  0  0  0  0  0  0
   58.7600   33.2230   46.9550 C   0  0  0  0  0  0  0  0  0  0  0  0
   58.7460   34.4550   46.2980 C   0  0  0  0  0  0  0  0  0  0  0  0
   58.2460   34.5510   45.0010 C   0  0  0  0  0  0  0  0  0  0  0  0
   57.7560   33.4140   44.3550 C   0  0  0  0  0  0  0  0  0  0  0  0
   57.7750   32.1670   44.9980 C   0  0  0  0  0  0  0  0  0  0  0  0
   57.1570   30.7440   44.1550 S   0  0  0  0  0  0  0  0  0  0  0  0
   55.9590   30.1800   44.8680 O   0  0  0  0  0  0  0  0  0  0  0  0
   56.7570   31.1410   42.7630 O   0  0  0  0  0  0  0  0  0  0  0  0
   58.3760   29.5150   44.0590 N   0  0  0  0  0  0  0  0  0  0  0  0
   58.4470   28.3520   44.8950 C   0  0  0  0  0  0  0  0  0  0  0  0
   59.6690   27.8460   45.3700 C   0  0  0  0  0  0  0  0  0  0  0  0
   59.6910   26.7050   46.1740 C   0  0  0  0  0  0  0  0  0  0  0  0
   58.5020   26.0570   46.5120 C   0  0  0  0  0  0  0  0  0  0  0  0
   57.2690   26.5490   46.0470 C   0  0  0  0  0  0  0  0  0  0  0  0
   56.0090   25.8620   46.4060 C   0  0  0  0  0  0  0  0  0  0  0  0
   56.0250   24.8360   47.1370 O   0  0  0  0  0  0  0  0  0  0  0  0
   54.7890   26.3400   45.9420 O   0  0  0  0  0  0  0  0  0  0  0  0
   57.2550   27.6990   45.2370 C   0  0  0  0  0  0  0  0  0  0  0  0
   58.5470   28.3580   47.7960 H   0  0  0  0  0  0  0  0  0  0  0  0
   59.9292   30.2918   50.6083 H   0  0  0  0  0  0  0  0  0  0  0  0
   61.2940   29.3097   52.4510 H   0  0  0  0  0  0  0  0  0  0  0  0
   61.4732   25.5483   50.3254 H   0  0  0  0  0  0  0  0  0  0  0  0
   60.1058   26.5206   48.4798 H   0  0  0  0  0  0  0  0  0  0  0  0
   59.1441   33.1561   47.9836 H   0  0  0  0  0  0  0  0  0  0  0  0
   59.1306   35.3519   46.8056 H   0  0  0  0  0  0  0  0  0  0  0  0
   58.2372   35.5228   44.4857 H   0  0  0  0  0  0  0  0  0  0  0  0
   57.3524   33.4966   43.3351 H   0  0  0  0  0  0  0  0  0  0  0  0
   60.6107   28.3504   45.1076 H   0  0  0  0  0  0  0  0  0  0  0  0
   60.6508   26.3145   46.5432 H   0  0  0  0  0  0  0  0  0  0  0  0
   58.5292   25.1576   47.1448 H   0  0  0  0  0  0  0  0  0  0  0  0
   56.2960   28.0909   44.8672 H   0  0  0  0  0  0  0  0  0  0  0  0
  1  2  2  0
  2  3  1  0
  3  4  1  0
  4  5  2  0
  5  6  1  0
  6  7  2  0
  7  8  1  0
  7  9  1  0
  9 10  2  0
  2 11  1  0
 11 12  1  0
 12 13  2  0
 13 14  1  0
 14 15  2  0
 15 16  1  0
 16 17  2  0
 17 18  1  0
 18 19  2  0
 18 20  2  0
 18 21  1  0
 21 22  1  0
 22 23  2  0
 23 24  1  0
 24 25  2  0
 25 26  1  0
 26 27  1  0
 27 28  2  0
 27 29  1  0
 26 30  2  0
 10  4  1  0
 17 12  1  0
 30 22  1  0
  3 31  1  0
  5 32  1  0
  6 33  1  0
  9 34  1  0
 10 35  1  0
 13 36  1  0
 14 37  1  0
 15 38  1  0
 16 39  1  0
 23 40  1  0
 24 41  1  0
 25 42  1  0
 30 43  1  0
M  CHG  2  21  -1  29  -1
M  END
>  <UniqueID>  (42) 
39

>  <SMILES>  (42) 
O=C(Nc1ccc(F)cc1)Oc1ccccc1S(=O)(=O)[N-]c1cccc(C(=O)[O-])c1

>  <Energy>  (42) 
57.97184550027069

>  <Genealogy>  (42) 
O=C(Nc1ccc(F)cc1)Oc1ccccc1S(=O)(=O)[N-]c1cccc(C(=O)[O-])c1 (protonated)
O=C(Nc1ccc(F)cc1)Oc1ccccc1S(=O)(=O)[N-]c1cccc(C(=O)[O-])c1 (3D coordinates assigned)
O=C(Nc1ccc(F)cc1)Oc1ccccc1S(=O)(=O)[N-]c1cccc(C(=O)[O-])c1 (optimized conformer: 57.97184550027069 kcal/mol)

>  <smiles>  (42) 
O=C(Nc1ccc(F)cc1)Oc1ccccc1S(=O)(=O)Nc1cccc(C(=O)O)c1

>  <score_type>  (42) 
oracle

>  <origin>  (42) 
adg

>  <m_score__min__energy>  (42) 
-12.98

>  <m_primary>  (42) 
energy

$$$$
42:0
     RDKit          3D

 57 60  0  0  0  0  0  0  0  0999 V2000
   51.3350   23.5330   45.0990 C   0  0  0  0  0  0  0  0  0  0  0  0
   52.7160   23.3830   45.6720 C   0  0  0  0  0  0  0  0  0  0  0  0
   52.9790   22.4180   46.6610 C   0  0  0  0  0  0  0  0  0  0  0  0
   54.2680   22.2800   47.1870 C   0  0  0  0  0  0  0  0  0  0  0  0
   55.3040   23.1120   46.7460 C   0  0  0  0  0  0  0  0  0  0  0  0
   56.9410   22.8330   47.3310 S   0  0  0  0  0  0  0  0  0  0  0  0
   56.9340   22.2980   48.7390 O   0  0  0  0  0  0  0  0  0  0  0  0
   57.6180   21.8310   46.4320 O   0  0  0  0  0  0  0  0  0  0  0  0
   57.7640   24.3590   47.2930 N   0  0  0  0  0  0  0  0  0  0  0  0
   58.4970   24.8370   46.1630 C   0  0  0  0  0  0  0  0  0  0  0  0
   59.3840   24.1130   45.6310 O   0  0  0  0  0  0  0  0  0  0  0  0
   58.1850   26.1670   45.5970 C   0  0  0  0  0  0  0  0  0  0  0  0
   58.1660   26.3740   44.2070 C   0  0  0  0  0  0  0  0  0  0  0  0
   57.8020   27.6190   43.6810 C   0  0  0  0  0  0  0  0  0  0  0  0
   57.4510   28.6760   44.5340 C   0  0  0  0  0  0  0  0  0  0  0  0
   56.9660   29.9030   43.9630 N   0  0  0  0  0  0  0  0  0  0  0  0
   57.3490   31.1190   44.2370 C   0  0  0  0  0  0  0  0  0  0  0  0
   57.0240   31.6460   45.4460 N   0  0  0  0  0  0  0  0  0  0  0  0
   57.4710   32.8680   45.8380 C   0  0  0  0  0  0  0  0  0  0  0  0
   57.1530   33.2970   46.9780 O   0  0  0  0  0  0  0  0  0  0  0  0
   58.2920   33.6240   44.9810 C   0  0  0  0  0  0  0  0  0  0  0  0
   58.9650   34.8740   45.4170 C   0  0  0  0  0  0  0  0  0  0  0  0
   59.2400   35.7770   44.5810 O   0  0  0  0  0  0  0  0  0  0  0  0
   59.2130   35.1060   46.8110 N   0  0  0  0  0  0  0  0  0  0  0  0
   60.3860   34.5690   47.4930 C   0  0  0  0  0  0  0  0  0  0  0  0
   60.1970   33.0900   47.6930 C   0  0  0  0  0  0  0  0  0  0  0  0
   59.3890   32.6000   48.7360 C   0  0  0  0  0  0  0  0  0  0  0  0
   59.1380   31.2250   48.8490 C   0  0  0  0  0  0  0  0  0  0  0  0
   59.6830   30.3330   47.9190 C   0  0  0  0  0  0  0  0  0  0  0  0
   60.4840   30.8140   46.8790 C   0  0  0  0  0  0  0  0  0  0  0  0
   60.7430   32.1850   46.7640 C   0  0  0  0  0  0  0  0  0  0  0  0
   58.5400   33.1000   43.7040 C   0  0  0  0  0  0  0  0  0  0  0  0
   58.0670   31.8740   43.3510 N   0  0  0  0  0  0  0  0  0  0  0  0
   57.4250   28.4560   45.9210 C   0  0  0  0  0  0  0  0  0  0  0  0
   57.8120   27.2230   46.4490 C   0  0  0  0  0  0  0  0  0  0  0  0
   55.0380   24.0950   45.7800 C   0  0  0  0  0  0  0  0  0  0  0  0
   53.7490   24.2340   45.2490 C   0  0  0  0  0  0  0  0  0  0  0  0
   50.6049   23.6123   45.9179 H   0  0  0  0  0  0  0  0  0  0  0  0
   51.2916   24.4411   44.4798 H   0  0  0  0  0  0  0  0  0  0  0  0
   51.0976   22.6554   44.4798 H   0  0  0  0  0  0  0  0  0  0  0  0
   52.1677   21.7690   47.0224 H   0  0  0  0  0  0  0  0  0  0  0  0
   54.4685   21.5141   47.9507 H   0  0  0  0  0  0  0  0  0  0  0  0
   58.4389   25.5525   43.5283 H   0  0  0  0  0  0  0  0  0  0  0  0
   57.7911   27.7696   42.5914 H   0  0  0  0  0  0  0  0  0  0  0  0
   61.2829   34.7476   46.8817 H   0  0  0  0  0  0  0  0  0  0  0  0
   60.5109   35.0645   48.4671 H   0  0  0  0  0  0  0  0  0  0  0  0
   58.9527   33.2983   49.4654 H   0  0  0  0  0  0  0  0  0  0  0  0
   58.5115   30.8470   49.6703 H   0  0  0  0  0  0  0  0  0  0  0  0
   59.4816   29.2551   48.0060 H   0  0  0  0  0  0  0  0  0  0  0  0
   60.9125   30.1124   46.1481 H   0  0  0  0  0  0  0  0  0  0  0  0
   61.3757   32.5562   45.9443 H   0  0  0  0  0  0  0  0  0  0  0  0
   59.1236   33.6869   42.9794 H   0  0  0  0  0  0  0  0  0  0  0  0
   58.2500   31.5480   42.3760 H   0  0  0  0  0  0  0  0  0  0  0  0
   57.0975   29.2607   46.5957 H   0  0  0  0  0  0  0  0  0  0  0  0
   57.8255   27.0758   47.5390 H   0  0  0  0  0  0  0  0  0  0  0  0
   55.8454   24.7593   45.4383 H   0  0  0  0  0  0  0  0  0  0  0  0
   53.5459   25.0122   44.4985 H   0  0  0  0  0  0  0  0  0  0  0  0
  1  2  1  0
  2  3  2  0
  3  4  1  0
  4  5  2  0
  5  6  1  0
  6  7  2  0
  6  8  2  0
  6  9  1  0
  9 10  1  0
 10 11  2  0
 10 12  1  0
 12 13  2  0
 13 14  1  0
 14 15  2  0
 15 16  1  0
 16 17  2  3
 17 18  1  0
 18 19  1  0
 19 20  2  0
 19 21  1  0
 21 22  1  0
 22 23  2  0
 22 24  1  0
 24 25  1  0
 25 26  1  0
 26 27  2  0
 27 28  1  0
 28 29  2  0
 29 30  1  0
 30 31  2  0
 21 32  2  0
 32 33  1  0
 15 34  1  0
 34 35  2  0
  5 36  1  0
 36 37  2  0
 37  2  1  0
 35 12  1  0
 33 17  1  0
 31 26  1  0
  1 38  1  0
  1 39  1  0
  1 40  1  0
  3 41  1  0
  4 42  1  0
 13 43  1  0
 14 44  1  0
 25 45  1  0
 25 46  1  0
 27 47  1  0
 28 48  1  0
 29 49  1  0
 30 50  1  0
 31 51  1  0
 32 52  1  0
 33 53  1  0
 34 54  1  0
 35 55  1  0
 36 56  1  0
 37 57  1  0
M  CHG  3   9  -1  18  -1  24  -1
M  END
>  <UniqueID>  (43) 
40

>  <SMILES>  (43) 
Cc1ccc(S(=O)(=O)[N-]C(=O)c2ccc(N=c3[n-]c(=O)c(C(=O)[N-]Cc4ccccc4)c[nH]3)cc2)cc1

>  <Energy>  (43) 
82.19358345579191

>  <Genealogy>  (43) 
Cc1ccc(S(=O)(=O)[N-]C(=O)c2ccc(N=c3[n-]c(=O)c(C(=O)[N-]Cc4ccccc4)c[nH]3)cc2)cc1 (protonated)
Cc1ccc(S(=O)(=O)[N-]C(=O)c2ccc(N=c3[n-]c(=O)c(C(=O)[N-]Cc4ccccc4)c[nH]3)cc2)cc1 (3D coordinates assigned)
Cc1ccc(S(=O)(=O)[N-]C(=O)c2ccc(N=c3[n-]c(=O)c(C(=O)[N-]Cc4ccccc4)c[nH]3)cc2)cc1 (optimized conformer: 82.19358345579191 kcal/mol)

>  <smiles>  (43) 
Cc1ccc(S(=O)(=O)NC(=O)c2ccc(N=c3[nH]cc(C(=O)NCc4ccccc4)c(=O)[nH]3)cc2)cc1

>  <score_type>  (43) 
oracle

>  <origin>  (43) 
adg

>  <m_score__min__energy>  (43) 
-13.51

>  <m_primary>  (43) 
energy

$$$$
43:0
     RDKit          3D

 56 58  0  0  0  0  0  0  0  0999 V2000
   58.3340   28.7950   47.8500 H   0  0  0  0  0  0  0  0  0  0  0  0
   58.3350   29.7600   48.1560 O   0  0  0  0  0  0  0  0  0  0  0  0
   59.3570   30.6530   47.8280 C   0  0  0  0  0  0  0  0  0  0  0  0
   59.0190   31.9720   47.5070 C   0  0  0  0  0  0  0  0  0  0  0  0
   57.9605   32.2705   47.4860 H   0  0  0  0  0  0  0  0  0  0  0  0
   60.0120   32.9210   47.2110 C   0  0  0  0  0  0  0  0  0  0  0  0
   59.6020   34.3070   46.8830 C   0  0  0  0  0  0  0  0  0  0  0  0
   60.2665   35.1335   47.1750 H   0  0  0  0  0  0  0  0  0  0  0  0
   58.4590   34.6000   46.2470 C   0  0  0  0  0  0  0  0  0  0  0  0
   58.0228   35.5970   46.4073 H   0  0  0  0  0  0  0  0  0  0  0  0
   57.7450   33.6700   45.3430 C   0  0  0  0  0  0  0  0  0  0  0  0
   56.6340   33.2150   45.7330 O   0  0  0  0  0  0  0  0  0  0  0  0
   58.2600   33.3070   43.9930 C   0  0  0  0  0  0  0  0  0  0  0  0
   58.5989   34.1259   43.3415 H   0  0  0  0  0  0  0  0  0  0  0  0
   58.3420   32.0570   43.5110 C   0  0  0  0  0  0  0  0  0  0  0  0
   59.0166   31.8888   42.6586 H   0  0  0  0  0  0  0  0  0  0  0  0
   57.6000   30.8850   44.0310 C   0  0  0  0  0  0  0  0  0  0  0  0
   56.2280   30.7160   43.7810 C   0  0  0  0  0  0  0  0  0  0  0  0
   55.6878   31.4538   43.1696 H   0  0  0  0  0  0  0  0  0  0  0  0
   55.5460   29.6140   44.3060 C   0  0  0  0  0  0  0  0  0  0  0  0
   54.4753   29.4800   44.0924 H   0  0  0  0  0  0  0  0  0  0  0  0
   56.2190   28.6820   45.1010 C   0  0  0  0  0  0  0  0  0  0  0  0
   55.5310   27.5820   45.6080 O   0  0  0  0  0  0  0  0  0  0  0  0
   57.5820   28.8500   45.3850 C   0  0  0  0  0  0  0  0  0  0  0  0
   58.2180   27.8910   46.1900 O   0  0  0  0  0  0  0  0  0  0  0  0
   58.5100   26.5630   45.7760 C   0  0  0  0  0  0  0  0  0  0  0  0
   58.6502   25.9254   46.6613 H   0  0  0  0  0  0  0  0  0  0  0  0
   57.6757   26.1751   45.1731 H   0  0  0  0  0  0  0  0  0  0  0  0
   59.4301   26.5608   45.1731 H   0  0  0  0  0  0  0  0  0  0  0  0
   58.2660   29.9660   44.8560 C   0  0  0  0  0  0  0  0  0  0  0  0
   59.3297   30.1163   45.0925 H   0  0  0  0  0  0  0  0  0  0  0  0
   61.3650   32.5370   47.2770 C   0  0  0  0  0  0  0  0  0  0  0  0
   62.1551   33.2757   47.0769 H   0  0  0  0  0  0  0  0  0  0  0  0
   61.7070   31.2200   47.5960 C   0  0  0  0  0  0  0  0  0  0  0  0
   62.7667   30.9306   47.6535 H   0  0  0  0  0  0  0  0  0  0  0  0
   60.7130   30.2660   47.8430 C   0  0  0  0  0  0  0  0  0  0  0  0
   61.1010   28.9520   48.1170 O   0  0  0  0  0  0  0  0  0  0  0  0
   60.4230   28.1240   49.0260 C   0  0  0  0  0  0  0  0  0  0  0  0
   59.6000   27.2530   48.6210 O   0  0  0  0  0  0  0  0  0  0  0  0
   60.7530   28.2140   50.4850 C   0  0  0  0  0  0  0  0  0  0  0  0
   59.8605   27.9482   51.0706 H   0  0  0  0  0  0  0  0  0  0  0  0
   61.5800   27.5200   50.6957 H   0  0  0  0  0  0  0  0  0  0  0  0
   61.2020   29.6330   50.8740 C   0  0  0  0  0  0  0  0  0  0  0  0
   61.7697   29.5805   51.8147 H   0  0  0  0  0  0  0  0  0  0  0  0
   61.8223   30.0292   50.0566 H   0  0  0  0  0  0  0  0  0  0  0  0
   60.0270   30.5670   51.0640 C   0  0  0  0  0  0  0  0  0  0  0  0
   58.7590   30.0430   51.3650 C   0  0  0  0  0  0  0  0  0  0  0  0
   58.6333   28.9583   51.4978 H   0  0  0  0  0  0  0  0  0  0  0  0
   57.6550   30.8920   51.4970 C   0  0  0  0  0  0  0  0  0  0  0  0
   56.6662   30.4742   51.7373 H   0  0  0  0  0  0  0  0  0  0  0  0
   57.8070   32.2700   51.3240 C   0  0  0  0  0  0  0  0  0  0  0  0
   56.9385   32.9370   51.4279 H   0  0  0  0  0  0  0  0  0  0  0  0
   59.0630   32.8000   51.0190 C   0  0  0  0  0  0  0  0  0  0  0  0
   59.1815   33.8853   50.8844 H   0  0  0  0  0  0  0  0  0  0  0  0
   60.1710   31.9560   50.8840 C   0  0  0  0  0  0  0  0  0  0  0  0
   61.3780   32.4910   50.5650 F   0  0  0  0  0  0  0  0  0  0  0  0
  1  2  1  0
  2  3  1  0
  3  4  2  0
  4  5  1  0
  4  6  1  0
  6  7  1  0
  7  8  1  0
  7  9  2  0
  9 10  1  0
  9 11  1  0
 11 12  2  0
 11 13  1  0
 13 14  1  0
 13 15  2  3
 15 16  1  0
 15 17  1  0
 17 18  2  0
 18 19  1  0
 18 20  1  0
 20 21  1  0
 20 22  2  0
 22 23  1  0
 22 24  1  0
 24 25  1  0
 25 26  1  0
 26 27  1  0
 26 28  1  0
 26 29  1  0
 24 30  2  0
 30 31  1  0
  6 32  2  0
 32 33  1  0
 32 34  1  0
 34 35  1  0
 34 36  2  0
 36 37  1  0
 37 38  1  0
 38 39  2  0
 38 40  1  0
 40 41  1  0
 40 42  1  0
 40 43  1  0
 43 44  1  0
 43 45  1  0
 43 46  1  0
 46 47  2  0
 47 48  1  0
 47 49  1  0
 49 50  1  0
 49 51  2  0
 51 52  1  0
 51 53  1  0
 53 54  1  0
 53 55  2  0
 55 56  1  0
 36  3  1  0
 55 46  1  0
 30 17  1  0
M  CHG  1  23  -1
M  END
>  <UniqueID>  (44) 
41

>  <SMILES>  (44) 
COc1cc(C=CC(=O)/C=C/c2ccc(OC(=O)CCc3ccccc3F)c(O)c2)ccc1[O-]

>  <Energy>  (44) 
72.5481213861222

>  <Genealogy>  (44) 
COc1cc(C=CC(=O)C=Cc2ccc(OC(=O)CCc3ccccc3F)c(O)c2)ccc1[O-] (protonated)
COc1cc(C=CC(=O)/C=C/c2ccc(OC(=O)CCc3ccccc3F)c(O)c2)ccc1[O-] (cis-trans isomerization)
COc1cc(C=CC(=O)/C=C/c2ccc(OC(=O)CCc3ccccc3F)c(O)c2)ccc1[O-] (3D coordinates assigned)
COc1cc(C=CC(=O)/C=C/c2ccc(OC(=O)CCc3ccccc3F)c(O)c2)ccc1[O-] (optimized conformer: 72.5481213861222 kcal/mol)

>  <smiles>  (44) 
COc1cc(C=CC(=O)C=Cc2ccc(OC(=O)CCc3ccccc3F)c(O)c2)ccc1O

>  <score_type>  (44) 
oracle

>  <origin>  (44) 
adg

>  <m_score__min__energy>  (44) 
-11.93

>  <m_primary>  (44) 
energy

$$$$
44:0
     RDKit          3D

 38 40  0  0  0  0  0  0  0  0999 V2000
   60.1706   26.2391   46.9681 H   0  0  0  0  0  0  0  0  0  0  0  0
   59.0970   26.3160   46.7410 C   0  0  0  0  0  0  0  0  0  0  0  0
   58.6560   27.2440   45.8520 N   0  0  0  0  0  0  0  0  0  0  0  0
   57.3410   27.3850   45.5280 C   0  0  0  0  0  0  0  0  0  0  0  0
   57.0310   28.3040   44.6540 N   0  0  0  0  0  0  0  0  0  0  0  0
   56.4760   29.6100   44.8720 C   0  0  0  0  0  0  0  0  0  0  0  0
   55.2350   29.7940   44.7340 O   0  0  0  0  0  0  0  0  0  0  0  0
   57.3680   30.7610   45.1450 C   0  0  0  0  0  0  0  0  0  0  0  0
   58.6040   30.5720   45.7910 C   0  0  0  0  0  0  0  0  0  0  0  0
   58.9158   29.5598   46.0879 H   0  0  0  0  0  0  0  0  0  0  0  0
   59.4380   31.6610   46.0580 C   0  0  0  0  0  0  0  0  0  0  0  0
   60.4005   31.5005   46.5657 H   0  0  0  0  0  0  0  0  0  0  0  0
   59.0560   32.9570   45.6830 C   0  0  0  0  0  0  0  0  0  0  0  0
   59.9360   34.1310   46.0140 C   0  0  0  0  0  0  0  0  0  0  0  0
   60.9679   33.9042   45.7077 H   0  0  0  0  0  0  0  0  0  0  0  0
   59.5584   35.0133   45.4765 H   0  0  0  0  0  0  0  0  0  0  0  0
   59.9100   34.4880   47.8070 S   0  0  0  0  0  0  0  0  0  0  0  0
   61.5930   33.9380   48.1050 C   0  0  0  0  0  0  0  0  0  0  0  0
   62.1060   33.9250   49.4100 C   0  0  0  0  0  0  0  0  0  0  0  0
   61.4737   34.2422   50.2524 H   0  0  0  0  0  0  0  0  0  0  0  0
   63.4210   33.5090   49.6410 C   0  0  0  0  0  0  0  0  0  0  0  0
   63.8251   33.5060   50.6641 H   0  0  0  0  0  0  0  0  0  0  0  0
   64.2220   33.0970   48.5720 C   0  0  0  0  0  0  0  0  0  0  0  0
   65.2569   32.7718   48.7542 H   0  0  0  0  0  0  0  0  0  0  0  0
   63.7090   33.0980   47.2720 C   0  0  0  0  0  0  0  0  0  0  0  0
   64.3394   32.7705   46.4322 H   0  0  0  0  0  0  0  0  0  0  0  0
   62.3950   33.5150   47.0380 C   0  0  0  0  0  0  0  0  0  0  0  0
   61.9910   33.5107   46.0149 H   0  0  0  0  0  0  0  0  0  0  0  0
   57.8240   33.1500   45.0400 C   0  0  0  0  0  0  0  0  0  0  0  0
   57.5145   34.1633   44.7443 H   0  0  0  0  0  0  0  0  0  0  0  0
   56.9880   32.0630   44.7730 C   0  0  0  0  0  0  0  0  0  0  0  0
   56.0247   32.2268   44.2677 H   0  0  0  0  0  0  0  0  0  0  0  0
   56.3880   26.5620   46.1820 C   0  0  0  0  0  0  0  0  0  0  0  0
   55.0180   26.7150   46.0020 O   0  0  0  0  0  0  0  0  0  0  0  0
   56.8320   25.5900   47.0840 C   0  0  0  0  0  0  0  0  0  0  0  0
   56.1060   24.9241   47.5735 H   0  0  0  0  0  0  0  0  0  0  0  0
   58.1910   25.4620   47.3650 C   0  0  0  0  0  0  0  0  0  0  0  0
   58.5438   24.6958   48.0710 H   0  0  0  0  0  0  0  0  0  0  0  0
  1  2  1  0
  2  3  1  0
  3  4  1  0
  4  5  2  0
  5  6  1  0
  6  7  2  0
  6  8  1  0
  8  9  2  0
  9 10  1  0
  9 11  1  0
 11 12  1  0
 11 13  2  0
 13 14  1  0
 14 15  1  0
 14 16  1  0
 14 17  1  0
 17 18  1  0
 18 19  2  0
 19 20  1  0
 19 21  1  0
 21 22  1  0
 21 23  2  0
 23 24  1  0
 23 25  1  0
 25 26  1  0
 25 27  2  0
 27 28  1  0
 13 29  1  0
 29 30  1  0
 29 31  2  0
 31 32  1  0
  4 33  1  0
 33 34  1  0
 33 35  2  0
 35 36  1  0
 35 37  1  0
 37 38  1  0
 37  2  2  0
 31  8  1  0
 27 18  1  0
M  CHG  2   3  -1  34  -1
M  END
>  <UniqueID>  (45) 
42

>  <SMILES>  (45) 
O=C(/N=c1/[n-]cccc1[O-])c1ccc(CSc2ccccc2)cc1

>  <Energy>  (45) 
49.10763772238507

>  <Genealogy>  (45) 
O=C(N=c1[n-]cccc1[O-])c1ccc(CSc2ccccc2)cc1 (protonated)
O=C(/N=c1/[n-]cccc1[O-])c1ccc(CSc2ccccc2)cc1 (cis-trans isomerization)
O=C(/N=c1/[n-]cccc1[O-])c1ccc(CSc2ccccc2)cc1 (3D coordinates assigned)
O=C(/N=c1/[n-]cccc1[O-])c1ccc(CSc2ccccc2)cc1 (optimized conformer: 49.10763772238507 kcal/mol)

>  <smiles>  (45) 
O=C(N=c1[nH]cccc1O)c1ccc(CSc2ccccc2)cc1

>  <score_type>  (45) 
oracle

>  <origin>  (45) 
adg

>  <m_score__min__energy>  (45) 
-14.460000000000001

>  <m_primary>  (45) 
energy

$$$$
45:0
     RDKit          3D

 53 55  0  0  0  0  0  0  0  0999 V2000
   58.4970   32.0030   49.9440 C   0  0  0  0  0  0  0  0  0  0  0  0
   58.8870   31.4160   48.5870 C   0  0  0  0  0  0  0  0  0  0  0  0
   60.0660   32.1640   47.9760 C   0  0  0  0  0  0  0  0  0  0  0  0
   59.8400   33.1890   47.0120 C   0  0  0  0  0  0  0  0  0  0  0  0
   58.4520   33.5640   46.5210 C   0  0  0  0  0  0  0  0  0  0  0  0
   58.0210   32.7130   45.3560 C   0  0  0  0  0  0  0  0  0  0  0  0
   58.2250   33.1580   44.0450 C   0  0  0  0  0  0  0  0  0  0  0  0
   57.8230   32.3360   42.9910 C   0  0  0  0  0  0  0  0  0  0  0  0
   58.0020   32.7010   41.7980 O   0  0  0  0  0  0  0  0  0  0  0  0
   57.2430   31.1350   43.2510 N   0  0  0  0  0  0  0  0  0  0  0  0
   57.0580   30.7130   44.5280 C   0  0  0  0  0  0  0  0  0  0  0  0
   56.2760   29.1360   44.8540 S   0  0  0  0  0  0  0  0  0  0  0  0
   57.7670   28.1370   44.4600 C   0  0  0  0  0  0  0  0  0  0  0  0
   59.0560   29.0010   44.5160 C   0  0  0  0  0  0  0  0  0  0  0  0
   59.8840   28.8040   45.8000 C   0  0  0  0  0  0  0  0  0  0  0  0
   58.9800   28.5970   47.0180 C   0  0  0  0  0  0  0  0  0  0  0  0
   58.0990   27.3380   46.8740 C   0  0  0  0  0  0  0  0  0  0  0  0
   57.8480   26.9280   45.4080 C   0  0  0  0  0  0  0  0  0  0  0  0
   57.4570   31.4920   45.5650 N   0  0  0  0  0  0  0  0  0  0  0  0
   60.9310   33.8370   46.4180 C   0  0  0  0  0  0  0  0  0  0  0  0
   62.2430   33.5100   46.7620 C   0  0  0  0  0  0  0  0  0  0  0  0
   63.3900   34.1930   46.0680 C   0  0  0  0  0  0  0  0  0  0  0  0
   62.4870   32.5030   47.7090 C   0  0  0  0  0  0  0  0  0  0  0  0
   63.8190   32.1550   47.9680 O   0  0  0  0  0  0  0  0  0  0  0  0
   61.4060   31.8610   48.3670 C   0  0  0  0  0  0  0  0  0  0  0  0
   61.7180   30.8340   49.4370 C   0  0  0  0  0  0  0  0  0  0  0  0
   58.9128   31.3772   50.7474 H   0  0  0  0  0  0  0  0  0  0  0  0
   58.8969   33.0241   50.0304 H   0  0  0  0  0  0  0  0  0  0  0  0
   57.4007   32.0300   50.0304 H   0  0  0  0  0  0  0  0  0  0  0  0
   59.1634   30.3596   48.7201 H   0  0  0  0  0  0  0  0  0  0  0  0
   58.0268   31.5117   47.9081 H   0  0  0  0  0  0  0  0  0  0  0  0
   57.7350   33.4297   47.3443 H   0  0  0  0  0  0  0  0  0  0  0  0
   58.4795   34.6117   46.1869 H   0  0  0  0  0  0  0  0  0  0  0  0
   58.6921   34.1345   43.8494 H   0  0  0  0  0  0  0  0  0  0  0  0
   57.6821   27.7631   43.4290 H   0  0  0  0  0  0  0  0  0  0  0  0
   59.6865   28.7388   43.6536 H   0  0  0  0  0  0  0  0  0  0  0  0
   58.7360   30.0533   44.5006 H   0  0  0  0  0  0  0  0  0  0  0  0
   60.5293   27.9215   45.6785 H   0  0  0  0  0  0  0  0  0  0  0  0
   60.4885   29.7080   45.9657 H   0  0  0  0  0  0  0  0  0  0  0  0
   59.6094   28.4900   47.9138 H   0  0  0  0  0  0  0  0  0  0  0  0
   58.3158   29.4699   47.1017 H   0  0  0  0  0  0  0  0  0  0  0  0
   58.5974   26.5033   47.3887 H   0  0  0  0  0  0  0  0  0  0  0  0
   57.1201   27.5753   47.3161 H   0  0  0  0  0  0  0  0  0  0  0  0
   58.6711   26.2768   45.0786 H   0  0  0  0  0  0  0  0  0  0  0  0
   56.8789   26.4091   45.3689 H   0  0  0  0  0  0  0  0  0  0  0  0
   60.7496   34.6188   45.6658 H   0  0  0  0  0  0  0  0  0  0  0  0
   64.0805   34.6042   46.8190 H   0  0  0  0  0  0  0  0  0  0  0  0
   63.9235   33.4654   45.4388 H   0  0  0  0  0  0  0  0  0  0  0  0
   63.0045   35.0088   45.4388 H   0  0  0  0  0  0  0  0  0  0  0  0
   64.5810   32.3150   47.3210 H   0  0  0  0  0  0  0  0  0  0  0  0
   61.5806   31.2861   50.4303 H   0  0  0  0  0  0  0  0  0  0  0  0
   61.0405   29.9742   49.3286 H   0  0  0  0  0  0  0  0  0  0  0  0
   62.7593   30.4963   49.3286 H   0  0  0  0  0  0  0  0  0  0  0  0
  1  2  1  0
  2  3  1  0
  3  4  2  0
  4  5  1  0
  5  6  1  0
  6  7  2  0
  7  8  1  0
  8  9  2  0
  8 10  1  0
 10 11  2  0
 11 12  1  0
 12 13  1  0
 13 14  1  0
 14 15  1  0
 15 16  1  0
 16 17  1  0
 17 18  1  0
 11 19  1  0
  4 20  1  0
 20 21  2  0
 21 22  1  0
 21 23  1  0
 23 24  1  0
 23 25  2  0
 25 26  1  0
 25  3  1  0
 19  6  1  0
 18 13  1  0
  1 27  1  0
  1 28  1  0
  1 29  1  0
  2 30  1  0
  2 31  1  0
  5 32  1  0
  5 33  1  0
  7 34  1  0
 13 35  1  0
 14 36  1  0
 14 37  1  0
 15 38  1  0
 15 39  1  0
 16 40  1  0
 16 41  1  0
 17 42  1  0
 17 43  1  0
 18 44  1  0
 18 45  1  0
 20 46  1  0
 22 47  1  0
 22 48  1  0
 22 49  1  0
 24 50  1  0
 26 51  1  0
 26 52  1  0
 26 53  1  0
M  CHG  1  19  -1
M  END
>  <UniqueID>  (46) 
43

>  <SMILES>  (46) 
CCc1c(Cc2cc(=O)nc(SC3CCCCC3)[n-]2)cc(C)c(O)c1C

>  <Energy>  (46) 
57.375104334696026

>  <Genealogy>  (46) 
CCc1c(Cc2cc(=O)nc(SC3CCCCC3)[n-]2)cc(C)c(O)c1C (protonated)
CCc1c(Cc2cc(=O)nc(SC3CCCCC3)[n-]2)cc(C)c(O)c1C (3D coordinates assigned)
CCc1c(Cc2cc(=O)nc(SC3CCCCC3)[n-]2)cc(C)c(O)c1C (nonaromatic ring conformer: 57.375104334696026 kcal/mol)

>  <smiles>  (46) 
CCc1c(Cc2cc(=O)nc(SC3CCCCC3)[nH]2)cc(C)c(O)c1C

>  <score_type>  (46) 
oracle

>  <origin>  (46) 
adg

>  <m_score__min__energy>  (46) 
-9.9399999999999995

>  <m_primary>  (46) 
energy

$$$$
46:0
     RDKit          3D

 51 54  0  0  0  0  0  0  0  0999 V2000
   53.3950   24.6110   45.7090 O   0  0  0  0  0  0  0  0  0  0  0  0
   54.5830   25.0200   45.6220 C   0  0  0  0  0  0  0  0  0  0  0  0
   54.8710   26.3300   45.9840 O   0  0  0  0  0  0  0  0  0  0  0  0
   55.6710   24.1110   45.1870 C   0  0  0  0  0  0  0  0  0  0  0  0
   55.3270   22.9260   44.5080 C   0  0  0  0  0  0  0  0  0  0  0  0
   56.3180   22.0820   43.9990 C   0  0  0  0  0  0  0  0  0  0  0  0
   57.6640   22.4090   44.1570 C   0  0  0  0  0  0  0  0  0  0  0  0
   58.0260   23.5700   44.8430 C   0  0  0  0  0  0  0  0  0  0  0  0
   57.0440   24.4150   45.3830 C   0  0  0  0  0  0  0  0  0  0  0  0
   57.4690   25.5570   46.1410 N   0  0  0  0  0  0  0  0  0  0  0  0
   58.8480   25.7700   46.4890 C   0  0  0  0  0  0  0  0  0  0  0  0
   59.7340   24.9960   46.0320 O   0  0  0  0  0  0  0  0  0  0  0  0
   59.2370   26.8940   47.3770 C   0  0  0  0  0  0  0  0  0  0  0  0
   60.3740   26.7690   48.1960 C   0  0  0  0  0  0  0  0  0  0  0  0
   60.7670   27.8140   49.0330 C   0  0  0  0  0  0  0  0  0  0  0  0
   60.0330   28.9990   49.0620 C   0  0  0  0  0  0  0  0  0  0  0  0
   58.9040   29.1440   48.2550 C   0  0  0  0  0  0  0  0  0  0  0  0
   58.4930   28.0960   47.4060 C   0  0  0  0  0  0  0  0  0  0  0  0
   57.3510   28.2150   46.5970 O   0  0  0  0  0  0  0  0  0  0  0  0
   57.3540   28.6290   45.2350 C   0  0  0  0  0  0  0  0  0  0  0  0
   57.5330   30.1070   45.1720 C   0  0  0  0  0  0  0  0  0  0  0  0
   56.5400   30.9730   44.8660 N   0  0  0  0  0  0  0  0  0  0  0  0
   56.9330   32.2460   44.8540 N   0  0  0  0  0  0  0  0  0  0  0  0
   58.2410   32.3970   45.1480 C   0  0  0  0  0  0  0  0  0  0  0  0
   58.8130   33.5620   45.1880 N   0  0  0  0  0  0  0  0  0  0  0  0
   59.5500   34.2380   46.6050 S   0  0  0  0  0  0  0  0  0  0  0  0
   59.8730   35.6840   46.3520 O   0  0  0  0  0  0  0  0  0  0  0  0
   58.5830   34.1490   47.7540 O   0  0  0  0  0  0  0  0  0  0  0  0
   61.0410   33.3770   46.9740 C   0  0  0  0  0  0  0  0  0  0  0  0
   62.2750   33.8440   46.4980 C   0  0  0  0  0  0  0  0  0  0  0  0
   63.4530   33.1590   46.8130 C   0  0  0  0  0  0  0  0  0  0  0  0
   63.4040   32.0060   47.6000 C   0  0  0  0  0  0  0  0  0  0  0  0
   62.1760   31.5340   48.0740 C   0  0  0  0  0  0  0  0  0  0  0  0
   60.9960   32.2170   47.7600 C   0  0  0  0  0  0  0  0  0  0  0  0
   58.9910   30.9110   45.4420 S   0  0  0  0  0  0  0  0  0  0  0  0
   54.2672   22.6620   44.3769 H   0  0  0  0  0  0  0  0  0  0  0  0
   56.0355   21.1582   43.4729 H   0  0  0  0  0  0  0  0  0  0  0  0
   58.4416   21.7517   43.7408 H   0  0  0  0  0  0  0  0  0  0  0  0
   59.0896   23.8245   44.9612 H   0  0  0  0  0  0  0  0  0  0  0  0
   56.8070   26.3620   46.2200 H   0  0  0  0  0  0  0  0  0  0  0  0
   60.9593   25.8378   48.1763 H   0  0  0  0  0  0  0  0  0  0  0  0
   61.6566   27.7028   49.6704 H   0  0  0  0  0  0  0  0  0  0  0  0
   60.3447   29.8215   49.7226 H   0  0  0  0  0  0  0  0  0  0  0  0
   58.3306   30.0824   48.2813 H   0  0  0  0  0  0  0  0  0  0  0  0
   58.1802   28.1354   44.7024 H   0  0  0  0  0  0  0  0  0  0  0  0
   56.3999   28.3520   44.7627 H   0  0  0  0  0  0  0  0  0  0  0  0
   62.3163   34.7503   45.8760 H   0  0  0  0  0  0  0  0  0  0  0  0
   64.4196   33.5288   46.4404 H   0  0  0  0  0  0  0  0  0  0  0  0
   64.3318   31.4691   47.8470 H   0  0  0  0  0  0  0  0  0  0  0  0
   62.1378   30.6259   48.6936 H   0  0  0  0  0  0  0  0  0  0  0  0
   60.0304   31.8428   48.1308 H   0  0  0  0  0  0  0  0  0  0  0  0
  1  2  2  0
  2  3  1  0
  2  4  1  0
  4  5  2  0
  5  6  1  0
  6  7  2  0
  7  8  1  0
  8  9  2  0
  9 10  1  0
 10 11  1  0
 11 12  2  0
 11 13  1  0
 13 14  2  0
 14 15  1  0
 15 16  2  0
 16 17  1  0
 17 18  2  0
 18 19  1  0
 19 20  1  0
 20 21  1  0
 21 22  2  0
 22 23  1  0
 23 24  1  0
 24 25  2  3
 25 26  1  0
 26 27  2  0
 26 28  2  0
 26 29  1  0
 29 30  2  0
 30 31  1  0
 31 32  2  0
 32 33  1  0
 33 34  2  0
 24 35  1  0
  9  4  1  0
 18 13  1  0
 35 21  1  0
 34 29  1  0
  5 36  1  0
  6 37  1  0
  7 38  1  0
  8 39  1  0
 10 40  1  0
 14 41  1  0
 15 42  1  0
 16 43  1  0
 17 44  1  0
 20 45  1  0
 20 46  1  0
 30 47  1  0
 31 48  1  0
 32 49  1  0
 33 50  1  0
 34 51  1  0
M  CHG  2   3  -1  23  -1
M  END
>  <UniqueID>  (47) 
44

>  <SMILES>  (47) 
O=C([O-])c1ccccc1NC(=O)c1ccccc1OCc1n[n-]c(=NS(=O)(=O)c2ccccc2)s1

>  <Energy>  (47) 
104.04609521623527

>  <Genealogy>  (47) 
O=C([O-])c1ccccc1NC(=O)c1ccccc1OCc1n[n-]c(=NS(=O)(=O)c2ccccc2)s1 (protonated)
O=C([O-])c1ccccc1NC(=O)c1ccccc1OCc1n[n-]c(=NS(=O)(=O)c2ccccc2)s1 (3D coordinates assigned)
O=C([O-])c1ccccc1NC(=O)c1ccccc1OCc1n[n-]c(=NS(=O)(=O)c2ccccc2)s1 (optimized conformer: 104.04609521623527 kcal/mol)

>  <smiles>  (47) 
O=C(O)c1ccccc1NC(=O)c1ccccc1OCc1n[nH]c(=NS(=O)(=O)c2ccccc2)s1

>  <score_type>  (47) 
oracle

>  <origin>  (47) 
adg

>  <m_score__min__energy>  (47) 
-14.98

>  <m_primary>  (47) 
energy

$$$$
47:0
     RDKit          3D

 43 45  0  0  0  0  0  0  0  0999 V2000
   55.1380   26.5400   45.9900 N   0  0  0  0  0  0  0  0  0  0  0  0
   56.3070   25.8660   46.4470 C   0  0  0  0  0  0  0  0  0  0  0  0
   56.2140   24.9730   47.3310 O   0  0  0  0  0  0  0  0  0  0  0  0
   57.6360   26.1880   45.8460 C   0  0  0  0  0  0  0  0  0  0  0  0
   57.7920   27.6340   45.7260 N   0  0  0  0  0  0  0  0  0  0  0  0
   58.8300   28.3650   46.1790 C   0  0  0  0  0  0  0  0  0  0  0  0
   58.6090   29.6890   45.8530 C   0  0  0  0  0  0  0  0  0  0  0  0
   57.3980   29.6720   45.1910 C   0  0  0  0  0  0  0  0  0  0  0  0
   56.7420   30.8250   44.6550 N   0  0  0  0  0  0  0  0  0  0  0  0
   57.3920   32.0630   44.3390 C   0  0  0  0  0  0  0  0  0  0  0  0
   57.6060   32.3500   43.1330 O   0  0  0  0  0  0  0  0  0  0  0  0
   57.8000   32.9760   45.3700 N   0  0  0  0  0  0  0  0  0  0  0  0
   58.2640   34.3220   45.0320 C   0  0  0  0  0  0  0  0  0  0  0  0
   59.6080   34.5760   45.7190 C   0  0  0  0  0  0  0  0  0  0  0  0
   59.6140   34.1210   47.1560 C   0  0  0  0  0  0  0  0  0  0  0  0
   60.6110   34.5610   47.9720 N   0  0  0  0  0  0  0  0  0  0  0  0
   60.7320   34.1410   49.2580 C   0  0  0  0  0  0  0  0  0  0  0  0
   59.8280   33.2100   49.7840 C   0  0  0  0  0  0  0  0  0  0  0  0
   59.9390   32.7550   51.2170 C   0  0  0  0  0  0  0  0  0  0  0  0
   59.6520   33.9020   52.1860 C   0  0  0  0  0  0  0  0  0  0  0  0
   58.3350   34.3510   52.0270 O   0  0  0  0  0  0  0  0  0  0  0  0
   58.7900   32.7420   48.9680 C   0  0  0  0  0  0  0  0  0  0  0  0
   58.6830   33.1760   47.6420 C   0  0  0  0  0  0  0  0  0  0  0  0
   57.5480   32.6770   46.7820 C   0  0  0  0  0  0  0  0  0  0  0  0
   56.9090   28.4200   45.1330 N   0  0  0  0  0  0  0  0  0  0  0  0
   55.1560   27.1090   45.1140 H   0  0  0  0  0  0  0  0  0  0  0  0
   58.4334   25.7877   46.4893 H   0  0  0  0  0  0  0  0  0  0  0  0
   57.7000   25.7336   44.8463 H   0  0  0  0  0  0  0  0  0  0  0  0
   59.7055   27.9732   46.7175 H   0  0  0  0  0  0  0  0  0  0  0  0
   59.2498   30.5562   46.0706 H   0  0  0  0  0  0  0  0  0  0  0  0
   58.3857   34.4067   43.9420 H   0  0  0  0  0  0  0  0  0  0  0  0
   57.5274   35.0643   45.3731 H   0  0  0  0  0  0  0  0  0  0  0  0
   60.3924   34.0315   45.1728 H   0  0  0  0  0  0  0  0  0  0  0  0
   59.7895   35.6609   45.7100 H   0  0  0  0  0  0  0  0  0  0  0  0
   61.5432   34.5337   49.8886 H   0  0  0  0  0  0  0  0  0  0  0  0
   59.2144   31.9464   51.3937 H   0  0  0  0  0  0  0  0  0  0  0  0
   60.9659   32.4011   51.3911 H   0  0  0  0  0  0  0  0  0  0  0  0
   59.7937   33.5496   53.2184 H   0  0  0  0  0  0  0  0  0  0  0  0
   60.3423   34.7319   51.9745 H   0  0  0  0  0  0  0  0  0  0  0  0
   58.3980   35.3120   51.7900 H   0  0  0  0  0  0  0  0  0  0  0  0
   58.0553   32.0297   49.3716 H   0  0  0  0  0  0  0  0  0  0  0  0
   57.4498   31.5888   46.9090 H   0  0  0  0  0  0  0  0  0  0  0  0
   56.6208   33.1818   47.0911 H   0  0  0  0  0  0  0  0  0  0  0  0
  1  2  1  0
  2  3  2  0
  2  4  1  0
  4  5  1  0
  5  6  1  0
  6  7  2  0
  7  8  1  0
  8  9  1  0
  9 10  1  0
 10 11  2  0
 10 12  1  0
 12 13  1  0
 13 14  1  0
 14 15  1  0
 15 16  2  0
 16 17  1  0
 17 18  2  0
 18 19  1  0
 19 20  1  0
 20 21  1  0
 18 22  1  0
 22 23  2  0
 23 24  1  0
  8 25  2  0
 25  5  1  0
 24 12  1  0
 23 15  1  0
  1 26  1  0
  4 27  1  0
  4 28  1  0
  6 29  1  0
  7 30  1  0
 13 31  1  0
 13 32  1  0
 14 33  1  0
 14 34  1  0
 17 35  1  0
 19 36  1  0
 19 37  1  0
 20 38  1  0
 20 39  1  0
 21 40  1  0
 22 41  1  0
 24 42  1  0
 24 43  1  0
M  CHG  2   1  -1   9  -1
M  END
>  <UniqueID>  (48) 
45

>  <SMILES>  (48) 
[NH-]C(=O)Cn1ccc([N-]C(=O)N2CCc3ncc(CCO)cc3C2)n1

>  <Energy>  (48) 
72.03493269625596

>  <Genealogy>  (48) 
[NH-]C(=O)Cn1ccc([N-]C(=O)N2CCc3ncc(CCO)cc3C2)n1 (protonated)
[NH-]C(=O)Cn1ccc([N-]C(=O)N2CCc3ncc(CCO)cc3C2)n1 (3D coordinates assigned)
[NH-]C(=O)Cn1ccc([N-]C(=O)N2CCc3ncc(CCO)cc3C2)n1 (nonaromatic ring conformer: 72.03493269625596 kcal/mol)

>  <smiles>  (48) 
NC(=O)Cn1ccc(NC(=O)N2CCc3ncc(CCO)cc3C2)n1

>  <score_type>  (48) 
oracle

>  <origin>  (48) 
adg

>  <m_score__min__energy>  (48) 
-12.83

>  <m_primary>  (48) 
energy

$$$$
48:0
     RDKit          3D

 48 51  0  0  1  0  0  0  0  0999 V2000
   63.6660   33.9180   51.4170 C   0  0  0  0  0  0  0  0  0  0  0  0
   63.6040   33.7250   49.9780 N   0  0  0  0  0  0  0  0  0  0  0  0
   62.6440   34.1740   49.1810 N   0  0  0  0  0  0  0  0  0  0  0  0
   59.4640   31.7260   47.5100 C   0  0  0  0  0  0  0  0  0  0  0  0
   59.1620   30.8030   48.3470 N   0  0  0  0  0  0  0  0  0  0  0  0
   60.9290   33.3880   46.7220 C   0  0  0  0  0  0  0  0  0  0  0  0
   60.0580   33.6870   45.6930 C   0  0  0  0  0  0  0  0  0  0  0  0
   58.8910   32.9470   45.6380 C   0  0  0  0  0  0  0  0  0  0  0  0
   58.0670   33.1920   44.7070 N   0  0  0  0  0  0  0  0  0  0  0  0
   57.9940   32.5420   43.4270 C   0  0  0  0  0  0  0  0  0  0  0  0
   57.1220   31.3530   43.5200 C   0  0  0  0  0  0  0  0  0  0  0  0
   56.6390   30.5100   42.5480 C   0  0  0  0  0  0  0  0  0  0  0  0
   55.8730   29.5490   43.1010 N   0  0  0  0  0  0  0  0  0  0  0  0
   55.8620   29.7720   44.4250 C   0  0  0  0  0  0  0  0  0  0  0  0
   56.6130   30.8580   44.6850 N   0  0  0  0  0  0  0  0  0  0  0  0
   58.6040   31.9930   46.5230 N   0  0  0  0  0  0  0  0  0  0  0  0
   62.8800   33.8280   47.9060 C   0  0  0  0  0  0  0  0  0  0  0  0
   62.1600   34.0930   46.8660 N   0  0  0  0  0  0  0  0  0  0  0  0
   59.6140   29.4580   48.2070 C   0  0  0  0  0  0  0  0  0  0  0  0
   59.3490   28.9250   46.8340 C   0  0  0  0  0  0  0  0  0  0  0  0
   60.1930   29.1350   45.7740 C   0  0  0  0  0  0  0  0  0  0  0  0
   59.9230   28.6320   44.5090 C   0  0  0  0  0  0  0  0  0  0  0  0
   58.7790   27.8960   44.2800 C   0  0  0  0  0  0  0  0  0  0  0  0
   57.9500   27.6910   45.3240 N   0  0  0  0  0  0  0  0  0  0  0  0
   58.2000   28.1730   46.5580 C   0  0  0  0  0  0  0  0  0  0  0  0
   64.0350   33.1370   47.9150 N   0  0  0  0  0  0  0  0  0  0  0  0
   60.6020   32.4200   47.5920 N   0  0  0  0  0  0  0  0  0  0  0  0
   64.4660   33.0810   49.1790 C   0  0  0  0  0  0  0  0  0  0  0  0
   65.5130   32.5200   49.5940 O   0  0  0  0  0  0  0  0  0  0  0  0
   63.3676   32.9890   51.9247 H   0  0  0  0  0  0  0  0  0  0  0  0
   64.6938   34.1809   51.7077 H   0  0  0  0  0  0  0  0  0  0  0  0
   62.9836   34.7303   51.7077 H   0  0  0  0  0  0  0  0  0  0  0  0
   61.8190   34.7210   49.5140 H   0  0  0  0  0  0  0  0  0  0  0  0
   60.2807   34.4725   44.9558 H   0  0  0  0  0  0  0  0  0  0  0  0
   57.5807   33.2412   42.6852 H   0  0  0  0  0  0  0  0  0  0  0  0
   59.0030   32.2300   43.1194 H   0  0  0  0  0  0  0  0  0  0  0  0
   56.8478   30.6060   41.4723 H   0  0  0  0  0  0  0  0  0  0  0  0
   55.3630   28.7590   42.6240 H   0  0  0  0  0  0  0  0  0  0  0  0
   55.3279   29.1675   45.1729 H   0  0  0  0  0  0  0  0  0  0  0  0
   57.7200   31.4530   46.4600 H   0  0  0  0  0  0  0  0  0  0  0  0
   60.6964   29.4238   48.3999 H   0  0  0  0  0  0  0  0  0  0  0  0
   59.0651   28.8350   48.9285 H   0  0  0  0  0  0  0  0  0  0  0  0
   61.1115   29.7196   45.9309 H   0  0  0  0  0  0  0  0  0  0  0  0
   60.6255   28.8214   43.6840 H   0  0  0  0  0  0  0  0  0  0  0  0
   58.5513   27.4913   43.2828 H   0  0  0  0  0  0  0  0  0  0  0  0
   57.4839   27.9707   47.3681 H   0  0  0  0  0  0  0  0  0  0  0  0
   64.5550   32.6990   47.1230 H   0  0  0  0  0  0  0  0  0  0  0  0
   61.2770   32.2220   48.3520 H   0  0  0  0  0  0  0  0  0  0  0  0
  1  2  1  0
  2  3  1  0
  3  4  1  0
  4  5  2  0
  5  6  1  0
  6  7  2  0
  7  8  1  0
  8  9  2  0
  9 10  1  0
 10 11  1  0
 11 12  2  0
 12 13  1  0
 13 14  1  0
 14 15  2  0
  8 16  1  0
 16 17  1  0
 17 18  2  0
 18 19  1  0
 19 20  1  0
 20 21  2  0
 21 22  1  0
 22 23  2  0
 23 24  1  0
 24 25  2  0
 17 26  1  0
  4 27  1  0
 27 28  1  0
 28 29  2  0
 28  2  1  0
 26  6  1  0
 15 11  1  0
 25 20  1  0
  1 30  1  0
  1 31  1  0
  1 32  1  0
  3 33  1  0
  7 34  1  0
 10 35  1  0
 10 36  1  0
 12 37  1  0
 13 38  1  0
 14 39  1  0
 16 40  1  0
 19 41  1  0
 19 42  1  0
 21 43  1  0
 22 44  1  0
 23 45  1  0
 25 46  1  0
 26 47  1  0
 27 48  1  0
M  END
>  <smiles>  (49) 
Cn1[nH]c(=Nc2cc(=NCc3c[nH]cn3)[nH]c(=NCc3cccnc3)[nH]2)[nH]c1=O

>  <score_type>  (49) 
oracle

>  <origin>  (49) 
adg

>  <m_score__min__energy>  (49) 
-7.5800000000000001

>  <m_primary>  (49) 
energy

$$$$
49:0
     RDKit          3D

 52 55  0  0  0  0  0  0  0  0999 V2000
   59.2500   34.2270   51.2530 O   0  0  0  0  0  0  0  0  0  0  0  0
   59.8050   33.5770   50.3260 C   0  0  0  0  0  0  0  0  0  0  0  0
   60.1090   34.2580   49.0280 C   0  0  0  0  0  0  0  0  0  0  0  0
   61.4970   33.9070   48.5670 C   0  0  0  0  0  0  0  0  0  0  0  0
   62.5500   33.8110   49.4940 C   0  0  0  0  0  0  0  0  0  0  0  0
   63.8450   33.5150   49.0590 C   0  0  0  0  0  0  0  0  0  0  0  0
   64.1020   33.3260   47.6970 C   0  0  0  0  0  0  0  0  0  0  0  0
   63.0630   33.4360   46.7680 C   0  0  0  0  0  0  0  0  0  0  0  0
   61.7650   33.7300   47.1980 C   0  0  0  0  0  0  0  0  0  0  0  0
   60.1080   32.1840   50.4760 N   0  0  0  0  0  0  0  0  0  0  0  0
   59.9860   31.1510   49.4860 C   0  0  0  0  0  0  0  0  0  0  0  0
   61.1150   30.7980   48.7410 C   0  0  0  0  0  0  0  0  0  0  0  0
   61.0280   29.8140   47.7540 C   0  0  0  0  0  0  0  0  0  0  0  0
   59.8020   29.1900   47.5150 C   0  0  0  0  0  0  0  0  0  0  0  0
   59.6960   28.2400   46.4930 O   0  0  0  0  0  0  0  0  0  0  0  0
   58.7160   27.2360   46.4560 C   0  0  0  0  0  0  0  0  0  0  0  0
   58.7130   26.2690   47.4690 C   0  0  0  0  0  0  0  0  0  0  0  0
   57.7430   25.2620   47.4840 C   0  0  0  0  0  0  0  0  0  0  0  0
   56.7790   25.2070   46.4760 C   0  0  0  0  0  0  0  0  0  0  0  0
   56.7850   26.1500   45.4440 C   0  0  0  0  0  0  0  0  0  0  0  0
   57.7550   27.1670   45.4210 C   0  0  0  0  0  0  0  0  0  0  0  0
   57.8280   28.0970   44.3320 N   0  0  0  0  0  0  0  0  0  0  0  0
   56.6930   29.3690   44.0200 S   0  0  0  0  0  0  0  0  0  0  0  0
   55.4790   29.1720   44.8860 O   0  0  0  0  0  0  0  0  0  0  0  0
   56.2990   29.3580   42.5710 O   0  0  0  0  0  0  0  0  0  0  0  0
   57.4370   30.9110   44.4310 C   0  0  0  0  0  0  0  0  0  0  0  0
   57.6770   31.8640   43.4300 C   0  0  0  0  0  0  0  0  0  0  0  0
   58.2440   33.1000   43.7580 C   0  0  0  0  0  0  0  0  0  0  0  0
   58.5790   33.3880   45.0860 C   0  0  0  0  0  0  0  0  0  0  0  0
   59.2670   34.9470   45.4970 Cl  0  0  0  0  0  0  0  0  0  0  0  0
   58.3520   32.4350   46.0860 C   0  0  0  0  0  0  0  0  0  0  0  0
   57.7870   31.1980   45.7600 C   0  0  0  0  0  0  0  0  0  0  0  0
   58.7240   29.5090   48.2860 N   0  0  0  0  0  0  0  0  0  0  0  0
   58.7850   30.4550   49.2580 C   0  0  0  0  0  0  0  0  0  0  0  0
   59.3817   33.9338   48.2691 H   0  0  0  0  0  0  0  0  0  0  0  0
   60.0441   35.3467   49.1713 H   0  0  0  0  0  0  0  0  0  0  0  0
   62.3540   33.9693   50.5648 H   0  0  0  0  0  0  0  0  0  0  0  0
   64.6635   33.4305   49.7890 H   0  0  0  0  0  0  0  0  0  0  0  0
   65.1214   33.0909   47.3570 H   0  0  0  0  0  0  0  0  0  0  0  0
   63.2668   33.2910   45.6968 H   0  0  0  0  0  0  0  0  0  0  0  0
   60.9516   33.8230   46.4633 H   0  0  0  0  0  0  0  0  0  0  0  0
   62.0760   31.2975   48.9331 H   0  0  0  0  0  0  0  0  0  0  0  0
   61.9170   29.5331   47.1703 H   0  0  0  0  0  0  0  0  0  0  0  0
   59.4787   26.3019   48.2580 H   0  0  0  0  0  0  0  0  0  0  0  0
   57.7396   24.5134   48.2899 H   0  0  0  0  0  0  0  0  0  0  0  0
   56.0119   24.4188   46.4937 H   0  0  0  0  0  0  0  0  0  0  0  0
   56.0283   26.0960   44.6475 H   0  0  0  0  0  0  0  0  0  0  0  0
   57.4187   31.6388   42.3847 H   0  0  0  0  0  0  0  0  0  0  0  0
   58.4268   33.8466   42.9711 H   0  0  0  0  0  0  0  0  0  0  0  0
   58.6184   32.6594   47.1294 H   0  0  0  0  0  0  0  0  0  0  0  0
   57.6164   30.4482   46.5466 H   0  0  0  0  0  0  0  0  0  0  0  0
   57.8960   30.6770   49.8667 H   0  0  0  0  0  0  0  0  0  0  0  0
  1  2  2  0
  2  3  1  0
  3  4  1  0
  4  5  2  0
  5  6  1  0
  6  7  2  0
  7  8  1  0
  8  9  2  0
  2 10  1  0
 10 11  1  0
 11 12  2  0
 12 13  1  0
 13 14  2  0
 14 15  1  0
 15 16  1  0
 16 17  2  0
 17 18  1  0
 18 19  2  0
 19 20  1  0
 20 21  2  0
 21 22  1  0
 22 23  1  0
 23 24  2  0
 23 25  2  0
 23 26  1  0
 26 27  2  0
 27 28  1  0
 28 29  2  0
 29 30  1  0
 29 31  1  0
 31 32  2  0
 14 33  1  0
 33 34  2  0
  9  4  1  0
 34 11  1  0
 21 16  1  0
 32 26  1  0
  3 35  1  0
  3 36  1  0
  5 37  1  0
  6 38  1  0
  7 39  1  0
  8 40  1  0
  9 41  1  0
 12 42  1  0
 13 43  1  0
 17 44  1  0
 18 45  1  0
 19 46  1  0
 20 47  1  0
 27 48  1  0
 28 49  1  0
 31 50  1  0
 32 51  1  0
 34 52  1  0
M  CHG  2  10  -1  22  -1
M  END
>  <UniqueID>  (50) 
46

>  <SMILES>  (50) 
O=C(Cc1ccccc1)[N-]c1ccc(Oc2ccccc2[N-]S(=O)(=O)c2ccc(Cl)cc2)nc1

>  <Energy>  (50) 
65.16803380203544

>  <Genealogy>  (50) 
O=C(Cc1ccccc1)[N-]c1ccc(Oc2ccccc2[N-]S(=O)(=O)c2ccc(Cl)cc2)nc1 (protonated)
O=C(Cc1ccccc1)[N-]c1ccc(Oc2ccccc2[N-]S(=O)(=O)c2ccc(Cl)cc2)nc1 (3D coordinates assigned)
O=C(Cc1ccccc1)[N-]c1ccc(Oc2ccccc2[N-]S(=O)(=O)c2ccc(Cl)cc2)nc1 (optimized conformer: 65.16803380203544 kcal/mol)

>  <smiles>  (50) 
O=C(Cc1ccccc1)Nc1ccc(Oc2ccccc2NS(=O)(=O)c2ccc(Cl)cc2)nc1

>  <score_type>  (50) 
oracle

>  <origin>  (50) 
adg

>  <m_score__min__energy>  (50) 
-13.109999999999999

>  <m_primary>  (50) 
energy

$$$$
50:0
     RDKit          3D

 40 42  0  0  0  0  0  0  0  0999 V2000
   56.6600   19.0330   46.4750 C   0  0  0  0  0  0  0  0  0  0  0  0
   57.3990   19.8050   45.4750 N   0  0  0  0  0  0  0  0  0  0  0  0
   57.1680   21.2120   45.6680 C   0  0  0  0  0  0  0  0  0  0  0  0
   56.8170   22.0410   44.5930 C   0  0  0  0  0  0  0  0  0  0  0  0
   56.6350   23.3700   44.8050 N   0  0  0  0  0  0  0  0  0  0  0  0
   56.8000   23.9240   46.0380 C   0  0  0  0  0  0  0  0  0  0  0  0
   56.5880   25.2930   46.2540 O   0  0  0  0  0  0  0  0  0  0  0  0
   56.9880   26.3220   45.3890 C   0  0  0  0  0  0  0  0  0  0  0  0
   57.7730   26.0780   44.2470 C   0  0  0  0  0  0  0  0  0  0  0  0
   58.1490   27.1350   43.4140 C   0  0  0  0  0  0  0  0  0  0  0  0
   57.7660   28.4420   43.7240 C   0  0  0  0  0  0  0  0  0  0  0  0
   57.0240   28.7060   44.8800 C   0  0  0  0  0  0  0  0  0  0  0  0
   56.6460   30.0610   45.1690 N   0  0  0  0  0  0  0  0  0  0  0  0
   57.0270   31.2230   44.4190 C   0  0  0  0  0  0  0  0  0  0  0  0
   56.8280   31.2280   43.1750 O   0  0  0  0  0  0  0  0  0  0  0  0
   57.6930   32.3860   45.0530 C   0  0  0  0  0  0  0  0  0  0  0  0
   58.2340   33.4230   44.2700 C   0  0  0  0  0  0  0  0  0  0  0  0
   58.8600   34.5150   44.8790 C   0  0  0  0  0  0  0  0  0  0  0  0
   58.9420   34.5880   46.2710 C   0  0  0  0  0  0  0  0  0  0  0  0
   58.3940   33.5720   47.0590 C   0  0  0  0  0  0  0  0  0  0  0  0
   57.7690   32.4780   46.4540 C   0  0  0  0  0  0  0  0  0  0  0  0
   56.6260   27.6370   45.7030 C   0  0  0  0  0  0  0  0  0  0  0  0
   57.1510   23.0970   47.1110 C   0  0  0  0  0  0  0  0  0  0  0  0
   57.3030   23.5750   48.2660 O   0  0  0  0  0  0  0  0  0  0  0  0
   57.3330   21.7670   46.9010 N   0  0  0  0  0  0  0  0  0  0  0  0
   56.9649   19.3515   47.4828 H   0  0  0  0  0  0  0  0  0  0  0  0
   55.5811   19.2047   46.3469 H   0  0  0  0  0  0  0  0  0  0  0  0
   56.8787   17.9626   46.3469 H   0  0  0  0  0  0  0  0  0  0  0  0
   58.4200   19.5920   45.5550 H   0  0  0  0  0  0  0  0  0  0  0  0
   57.0760   19.5270   44.5200 H   0  0  0  0  0  0  0  0  0  0  0  0
   56.6900   21.6181   43.5855 H   0  0  0  0  0  0  0  0  0  0  0  0
   58.0916   25.0523   44.0093 H   0  0  0  0  0  0  0  0  0  0  0  0
   58.7476   26.9375   42.5126 H   0  0  0  0  0  0  0  0  0  0  0  0
   58.0494   29.2682   43.0554 H   0  0  0  0  0  0  0  0  0  0  0  0
   58.1640   33.3741   43.1733 H   0  0  0  0  0  0  0  0  0  0  0  0
   59.2884   35.3176   44.2607 H   0  0  0  0  0  0  0  0  0  0  0  0
   59.4384   35.4460   46.7479 H   0  0  0  0  0  0  0  0  0  0  0  0
   58.4546   33.6334   48.1556 H   0  0  0  0  0  0  0  0  0  0  0  0
   57.3336   31.6836   47.0781 H   0  0  0  0  0  0  0  0  0  0  0  0
   56.0244   27.8364   46.6021 H   0  0  0  0  0  0  0  0  0  0  0  0
  1  2  1  0
  2  3  1  0
  3  4  2  0
  4  5  1  0
  5  6  2  0
  6  7  1  0
  7  8  1  0
  8  9  2  0
  9 10  1  0
 10 11  2  0
 11 12  1  0
 12 13  1  0
 13 14  1  0
 14 15  2  0
 14 16  1  0
 16 17  2  0
 17 18  1  0
 18 19  2  0
 19 20  1  0
 20 21  2  0
 12 22  2  0
  6 23  1  0
 23 24  2  0
 23 25  1  0
 25  3  1  0
 22  8  1  0
 21 16  1  0
  1 26  1  0
  1 27  1  0
  1 28  1  0
  2 29  1  0
  2 30  1  0
  4 31  1  0
  9 32  1  0
 10 33  1  0
 11 34  1  0
 17 35  1  0
 18 36  1  0
 19 37  1  0
 20 38  1  0
 21 39  1  0
 22 40  1  0
M  CHG  3   2   1  13  -1  25  -1
M  END
>  <UniqueID>  (51) 
47

>  <SMILES>  (51) 
C[NH2+]c1cnc(Oc2cccc([N-]C(=O)c3ccccc3)c2)c(=O)[n-]1

>  <Energy>  (51) 
55.81543277793337

>  <Genealogy>  (51) 
C[NH2+]c1cnc(Oc2cccc([N-]C(=O)c3ccccc3)c2)c(=O)[n-]1 (protonated)
C[NH2+]c1cnc(Oc2cccc([N-]C(=O)c3ccccc3)c2)c(=O)[n-]1 (3D coordinates assigned)
C[NH2+]c1cnc(Oc2cccc([N-]C(=O)c3ccccc3)c2)c(=O)[n-]1 (optimized conformer: 55.81543277793337 kcal/mol)

>  <smiles>  (51) 
CNc1cnc(Oc2cccc(NC(=O)c3ccccc3)c2)c(=O)[nH]1

>  <score_type>  (51) 
oracle

>  <origin>  (51) 
adg

>  <m_score__min__energy>  (51) 
-10.470000000000001

>  <m_primary>  (51) 
energy

$$$$
51:0
     RDKit          3D

 40 43  0  0  0  0  0  0  0  0999 V2000
   54.1300   25.4740   46.3820 H   0  0  0  0  0  0  0  0  0  0  0  0
   54.6390   26.2090   45.9060 O   0  0  0  0  0  0  0  0  0  0  0  0
   56.0270   26.3030   45.9870 C   0  0  0  0  0  0  0  0  0  0  0  0
   56.8000   25.1820   46.3150 C   0  0  0  0  0  0  0  0  0  0  0  0
   56.3111   24.2164   46.5115 H   0  0  0  0  0  0  0  0  0  0  0  0
   58.1900   25.2880   46.3930 C   0  0  0  0  0  0  0  0  0  0  0  0
   58.7940   24.4076   46.6579 H   0  0  0  0  0  0  0  0  0  0  0  0
   58.8150   26.5110   46.1350 C   0  0  0  0  0  0  0  0  0  0  0  0
   58.0490   27.6500   45.8240 C   0  0  0  0  0  0  0  0  0  0  0  0
   56.6510   27.5300   45.7430 C   0  0  0  0  0  0  0  0  0  0  0  0
   56.0424   28.4093   45.4853 H   0  0  0  0  0  0  0  0  0  0  0  0
   58.6890   28.9240   45.5880 N   0  0  0  0  0  0  0  0  0  0  0  0
   58.4300   29.6180   44.3170 C   0  0  0  0  0  0  0  0  0  0  0  0
   58.1381   28.8766   43.5586 H   0  0  0  0  0  0  0  0  0  0  0  0
   59.3489   30.1442   44.0191 H   0  0  0  0  0  0  0  0  0  0  0  0
   57.3270   30.6370   44.4550 C   0  0  0  0  0  0  0  0  0  0  0  0
   56.1400   30.2460   44.6110 O   0  0  0  0  0  0  0  0  0  0  0  0
   57.5740   32.0490   44.3650 N   0  0  0  0  0  0  0  0  0  0  0  0
   58.0600   32.8370   45.2800 C   0  0  0  0  0  0  0  0  0  0  0  0
   58.8290   33.9010   44.9680 N   0  0  0  0  0  0  0  0  0  0  0  0
   59.1920   34.6050   46.0750 C   0  0  0  0  0  0  0  0  0  0  0  0
   60.0130   35.8490   45.9820 C   0  0  0  0  0  0  0  0  0  0  0  0
   60.2502   36.2083   46.9942 H   0  0  0  0  0  0  0  0  0  0  0  0
   60.9464   35.6328   45.4416 H   0  0  0  0  0  0  0  0  0  0  0  0
   59.4472   36.6222   45.4416 H   0  0  0  0  0  0  0  0  0  0  0  0
   58.6870   34.1210   47.2790 C   0  0  0  0  0  0  0  0  0  0  0  0
   58.8571   34.5569   48.2745 H   0  0  0  0  0  0  0  0  0  0  0  0
   57.7710   32.7520   46.9410 S   0  0  0  0  0  0  0  0  0  0  0  0
   59.5160   29.5590   46.5980 C   0  0  0  0  0  0  0  0  0  0  0  0
   59.8470   30.7690   46.4570 O   0  0  0  0  0  0  0  0  0  0  0  0
   59.9680   28.8500   47.8220 C   0  0  0  0  0  0  0  0  0  0  0  0
   60.4480   27.5240   47.7850 C   0  0  0  0  0  0  0  0  0  0  0  0
   60.8090   26.8980   48.9380 N   0  0  0  0  0  0  0  0  0  0  0  0
   60.7480   27.5210   50.1430 C   0  0  0  0  0  0  0  0  0  0  0  0
   61.0427   26.9825   51.0558 H   0  0  0  0  0  0  0  0  0  0  0  0
   60.3120   28.8430   50.2240 C   0  0  0  0  0  0  0  0  0  0  0  0
   60.2727   29.3561   51.1962 H   0  0  0  0  0  0  0  0  0  0  0  0
   59.9260   29.5090   49.0600 C   0  0  0  0  0  0  0  0  0  0  0  0
   59.5876   30.5543   49.1132 H   0  0  0  0  0  0  0  0  0  0  0  0
   60.5950   26.6410   46.2380 S   0  0  0  0  0  0  0  0  0  0  0  0
  1  2  1  0
  2  3  1  0
  3  4  2  0
  4  5  1  0
  4  6  1  0
  6  7  1  0
  6  8  2  0
  8  9  1  0
  9 10  2  0
 10 11  1  0
  9 12  1  0
 12 13  1  0
 13 14  1  0
 13 15  1  0
 13 16  1  0
 16 17  2  0
 16 18  1  0
 18 19  2  0
 19 20  1  0
 20 21  1  0
 21 22  1  0
 22 23  1  0
 22 24  1  0
 22 25  1  0
 21 26  2  0
 26 27  1  0
 26 28  1  0
 12 29  1  0
 29 30  2  0
 29 31  1  0
 31 32  2  0
 32 33  1  0
 33 34  2  0
 34 35  1  0
 34 36  1  0
 36 37  1  0
 36 38  2  0
 38 39  1  0
 32 40  1  0
 10  3  1  0
 28 19  1  0
 38 31  1  0
 40  8  1  0
M  CHG  1  20  -1
M  END
>  <UniqueID>  (52) 
48

>  <SMILES>  (52) 
Cc1cs/c(=N\C(=O)CN2C(=O)c3cccnc3Sc3ccc(O)cc32)[n-]1

>  <Energy>  (52) 
92.26699235839106

>  <Genealogy>  (52) 
Cc1csc(=NC(=O)CN2C(=O)c3cccnc3Sc3ccc(O)cc32)[n-]1 (protonated)
Cc1cs/c(=N\C(=O)CN2C(=O)c3cccnc3Sc3ccc(O)cc32)[n-]1 (cis-trans isomerization)
Cc1cs/c(=N\C(=O)CN2C(=O)c3cccnc3Sc3ccc(O)cc32)[n-]1 (3D coordinates assigned)
Cc1cs/c(=N\C(=O)CN2C(=O)c3cccnc3Sc3ccc(O)cc32)[n-]1 (nonaromatic ring conformer: 92.26699235839106 kcal/mol)

>  <smiles>  (52) 
Cc1csc(=NC(=O)CN2C(=O)c3cccnc3Sc3ccc(O)cc32)[nH]1

>  <score_type>  (52) 
oracle

>  <origin>  (52) 
adg

>  <m_score__min__energy>  (52) 
-10.99

>  <m_primary>  (52) 
energy

$$$$
52:0
     RDKit          3D

 57 60  0  0  0  0  0  0  0  0999 V2000
   56.1680   26.3820   45.3030 O   0  0  0  0  0  0  0  0  0  0  0  0
   56.5500   27.5010   45.7410 C   0  0  0  0  0  0  0  0  0  0  0  0
   55.9500   28.7040   45.2530 N   0  0  0  0  0  0  0  0  0  0  0  0
   56.2810   29.3400   43.9790 C   0  0  1  0  0  0  0  0  0  0  0  0
   56.0400   30.8620   44.0840 C   0  0  0  0  0  0  0  0  0  0  0  0
   57.2800   31.6620   44.5420 C   0  0  0  0  0  0  0  0  0  0  0  0
   58.2230   30.8210   45.4300 C   0  0  2  0  0  0  0  0  0  0  0  0
   59.3710   31.7180   45.9990 C   0  0  0  0  0  0  0  0  0  0  0  0
   60.0160   31.2680   47.2660 N   0  0  0  0  0  0  0  0  0  0  0  0
   59.9020   32.2220   48.3870 C   0  0  0  0  0  0  0  0  0  0  0  0
   61.3090   32.6310   48.8140 C   0  0  0  0  0  0  0  0  0  0  0  0
   62.2460   32.0230   47.7910 C   0  0  0  0  0  0  0  0  0  0  0  0
   61.4400   30.9140   47.1380 C   0  0  0  0  0  0  0  0  0  0  0  0
   58.7460   29.5970   44.6300 C   0  0  0  0  0  0  0  0  0  0  0  0
   57.7420   29.0530   43.5920 C   0  0  0  0  0  0  0  0  0  0  0  0
   57.6220   27.5510   46.7500 C   0  0  0  0  0  0  0  0  0  0  0  0
   58.0950   28.7080   47.2500 N   0  0  0  0  0  0  0  0  0  0  0  0
   59.0500   28.3140   48.1150 C   0  0  0  0  0  0  0  0  0  0  0  0
   59.7330   29.1280   48.7900 O   0  0  0  0  0  0  0  0  0  0  0  0
   59.2190   26.9800   48.1950 N   0  0  0  0  0  0  0  0  0  0  0  0
   58.3080   26.4930   47.3320 C   0  0  0  0  0  0  0  0  0  0  0  0
   58.1810   25.0280   47.0360 C   0  0  0  0  0  0  0  0  0  0  0  0
   59.4630   24.4730   45.8570 S   0  0  0  0  0  0  0  0  0  0  0  0
   58.3380   23.5160   44.8340 C   0  0  0  0  0  0  0  0  0  0  0  0
   57.4210   24.1750   44.0030 C   0  0  0  0  0  0  0  0  0  0  0  0
   56.5390   23.4370   43.2080 C   0  0  0  0  0  0  0  0  0  0  0  0
   56.5740   22.0390   43.2360 C   0  0  0  0  0  0  0  0  0  0  0  0
   57.4940   21.3780   44.0560 C   0  0  0  0  0  0  0  0  0  0  0  0
   58.3790   22.1140   44.8510 C   0  0  0  0  0  0  0  0  0  0  0  0
   59.2720   21.4620   45.6360 F   0  0  0  0  0  0  0  0  0  0  0  0
   55.6330   28.9244   43.1932 H   0  0  0  0  0  0  0  0  0  0  0  0
   55.2295   31.0353   44.8072 H   0  0  0  0  0  0  0  0  0  0  0  0
   55.7871   31.2157   43.0736 H   0  0  0  0  0  0  0  0  0  0  0  0
   56.9438   32.5393   45.1142 H   0  0  0  0  0  0  0  0  0  0  0  0
   57.8399   31.9600   43.6432 H   0  0  0  0  0  0  0  0  0  0  0  0
   57.6734   30.4270   46.2976 H   0  0  0  0  0  0  0  0  0  0  0  0
   60.1558   31.7798   45.2307 H   0  0  0  0  0  0  0  0  0  0  0  0
   58.8895   32.6753   46.2475 H   0  0  0  0  0  0  0  0  0  0  0  0
   59.5050   30.3960   47.5490 H   0  0  0  0  0  0  0  0  0  0  0  0
   59.3386   33.1098   48.0639 H   0  0  0  0  0  0  0  0  0  0  0  0
   59.3714   31.7546   49.2296 H   0  0  0  0  0  0  0  0  0  0  0  0
   61.4047   33.7268   48.8170 H   0  0  0  0  0  0  0  0  0  0  0  0
   61.5400   32.2820   49.8313 H   0  0  0  0  0  0  0  0  0  0  0  0
   62.5463   32.7743   47.0457 H   0  0  0  0  0  0  0  0  0  0  0  0
   63.1736   31.6483   48.2484 H   0  0  0  0  0  0  0  0  0  0  0  0
   61.7116   30.8278   46.0756 H   0  0  0  0  0  0  0  0  0  0  0  0
   61.6446   29.9485   47.6238 H   0  0  0  0  0  0  0  0  0  0  0  0
   58.9785   28.7915   45.3421 H   0  0  0  0  0  0  0  0  0  0  0  0
   59.6311   29.9353   44.0713 H   0  0  0  0  0  0  0  0  0  0  0  0
   57.8772   27.9646   43.5072 H   0  0  0  0  0  0  0  0  0  0  0  0
   57.9407   29.5609   42.6367 H   0  0  0  0  0  0  0  0  0  0  0  0
   58.2880   24.4627   47.9736 H   0  0  0  0  0  0  0  0  0  0  0  0
   57.1941   24.8502   46.5838 H   0  0  0  0  0  0  0  0  0  0  0  0
   57.3955   25.2744   43.9765 H   0  0  0  0  0  0  0  0  0  0  0  0
   55.8172   23.9560   42.5602 H   0  0  0  0  0  0  0  0  0  0  0  0
   55.8775   21.4591   42.6126 H   0  0  0  0  0  0  0  0  0  0  0  0
   57.5218   20.2785   44.0759 H   0  0  0  0  0  0  0  0  0  0  0  0
  1  2  2  0
  2  3  1  0
  3  4  1  0
  4  5  1  0
  5  6  1  0
  6  7  1  0
  7  8  1  0
  8  9  1  0
  9 10  1  0
 10 11  1  0
 11 12  1  0
 12 13  1  0
  7 14  1  0
 14 15  1  0
  2 16  1  0
 16 17  1  0
 17 18  1  0
 18 19  2  0
 18 20  1  0
 20 21  1  0
 21 22  1  0
 22 23  1  0
 23 24  1  0
 24 25  2  0
 25 26  1  0
 26 27  2  0
 27 28  1  0
 28 29  2  0
 29 30  1  0
 15  4  1  0
 21 16  2  0
 29 24  1  0
 13  9  1  0
  4 31  1  6
  5 32  1  0
  5 33  1  0
  6 34  1  0
  6 35  1  0
  7 36  1  1
  8 37  1  0
  8 38  1  0
  9 39  1  0
 10 40  1  0
 10 41  1  0
 11 42  1  0
 11 43  1  0
 12 44  1  0
 12 45  1  0
 13 46  1  0
 13 47  1  0
 14 48  1  0
 14 49  1  0
 15 50  1  0
 15 51  1  0
 22 52  1  0
 22 53  1  0
 25 54  1  0
 26 55  1  0
 27 56  1  0
 28 57  1  0
M  CHG  4   3  -1   9   1  17  -1  20  -1
M  END
>  <UniqueID>  (53) 
49

>  <SMILES>  (53) 
O=C([N-]C1CCC(C[NH+]2CCCC2)CC1)c1[n-]c(=O)[n-]c1CSc1ccccc1F

>  <Energy>  (53) 
90.85249244572141

>  <Genealogy>  (53) 
O=C([N-]C1CCC(C[NH+]2CCCC2)CC1)c1[n-]c(=O)[n-]c1CSc1ccccc1F (protonated)
O=C([N-]C1CCC(C[NH+]2CCCC2)CC1)c1[n-]c(=O)[n-]c1CSc1ccccc1F (3D coordinates assigned)
O=C([N-]C1CCC(C[NH+]2CCCC2)CC1)c1[n-]c(=O)[n-]c1CSc1ccccc1F (nonaromatic ring conformer: 90.85249244572141 kcal/mol)

>  <smiles>  (53) 
O=C(NC1CCC(CN2CCCC2)CC1)c1[nH]c(=O)[nH]c1CSc1ccccc1F

>  <score_type>  (53) 
oracle

>  <origin>  (53) 
adg

>  <m_score__min__energy>  (53) 
-12.42

>  <m_primary>  (53) 
energy

$$$$
53:0
     RDKit          3D

 60 62  0  0  0  0  0  0  0  0999 V2000
   56.7390   22.0110   43.5310 C   0  0  0  0  0  0  0  0  0  0  0  0
   56.6070   20.7230   44.3420 C   0  0  0  0  0  0  0  0  0  0  0  0
   55.8540   20.9440   45.6580 C   0  0  0  0  0  0  0  0  0  0  0  0
   55.6920   22.3720   45.9330 N   0  0  0  0  0  0  0  0  0  0  0  0
   56.3150   23.0310   47.0420 C   0  0  0  0  0  0  0  0  0  0  0  0
   57.0150   22.3770   47.8630 O   0  0  0  0  0  0  0  0  0  0  0  0
   56.1420   24.4390   47.2030 N   0  0  0  0  0  0  0  0  0  0  0  0
   56.0470   25.5490   45.8750 S   0  0  0  0  0  0  0  0  0  0  0  0
   55.9940   24.7990   44.5730 O   0  0  0  0  0  0  0  0  0  0  0  0
   54.7800   26.3470   46.0000 O   0  0  0  0  0  0  0  0  0  0  0  0
   57.4390   26.6380   45.9120 C   0  0  0  0  0  0  0  0  0  0  0  0
   57.2500   27.9960   45.6130 C   0  0  0  0  0  0  0  0  0  0  0  0
   58.3250   28.9000   45.6510 C   0  0  0  0  0  0  0  0  0  0  0  0
   58.1150   30.3380   45.3340 C   0  0  0  0  0  0  0  0  0  0  0  0
   57.5920   30.7250   44.0880 C   0  0  0  0  0  0  0  0  0  0  0  0
   57.3990   32.0760   43.7910 C   0  0  0  0  0  0  0  0  0  0  0  0
   57.7230   33.0540   44.7320 C   0  0  0  0  0  0  0  0  0  0  0  0
   58.2430   32.6950   45.9800 C   0  0  0  0  0  0  0  0  0  0  0  0
   58.5540   33.7210   46.8880 O   0  0  0  0  0  0  0  0  0  0  0  0
   59.6480   34.6320   46.7570 C   0  0  0  0  0  0  0  0  0  0  0  0
   60.9350   34.0270   47.2810 C   0  0  0  0  0  0  0  0  0  0  0  0
   62.0170   33.8650   46.3950 C   0  0  0  0  0  0  0  0  0  0  0  0
   63.2240   33.3190   46.8350 C   0  0  0  0  0  0  0  0  0  0  0  0
   63.3750   32.9400   48.1670 C   0  0  0  0  0  0  0  0  0  0  0  0
   62.3250   33.1210   49.0700 C   0  0  0  0  0  0  0  0  0  0  0  0
   61.1050   33.6790   48.6480 C   0  0  0  0  0  0  0  0  0  0  0  0
   60.0080   33.8780   49.6600 C   0  0  0  0  0  0  0  0  0  0  0  0
   58.4360   31.3320   46.2770 C   0  0  0  0  0  0  0  0  0  0  0  0
   59.6000   28.4240   45.9940 C   0  0  0  0  0  0  0  0  0  0  0  0
   59.7970   27.0760   46.2990 C   0  0  0  0  0  0  0  0  0  0  0  0
   58.7190   26.1700   46.2670 C   0  0  0  0  0  0  0  0  0  0  0  0
   58.8890   24.8130   46.5830 O   0  0  0  0  0  0  0  0  0  0  0  0
   59.0830   23.7750   45.6270 C   0  0  0  0  0  0  0  0  0  0  0  0
   56.8268   22.8678   44.2153 H   0  0  0  0  0  0  0  0  0  0  0  0
   57.6361   21.9547   42.8969 H   0  0  0  0  0  0  0  0  0  0  0  0
   55.8492   22.1379   42.8969 H   0  0  0  0  0  0  0  0  0  0  0  0
   56.0611   19.9804   43.7416 H   0  0  0  0  0  0  0  0  0  0  0  0
   57.6203   20.3720   44.5869 H   0  0  0  0  0  0  0  0  0  0  0  0
   54.8611   20.4758   45.5879 H   0  0  0  0  0  0  0  0  0  0  0  0
   56.4348   20.4922   46.4756 H   0  0  0  0  0  0  0  0  0  0  0  0
   55.1540   22.9490   45.2480 H   0  0  0  0  0  0  0  0  0  0  0  0
   56.2463   28.3578   45.3452 H   0  0  0  0  0  0  0  0  0  0  0  0
   57.3331   29.9590   43.3422 H   0  0  0  0  0  0  0  0  0  0  0  0
   56.9905   32.3698   42.8128 H   0  0  0  0  0  0  0  0  0  0  0  0
   57.5683   34.1159   44.4905 H   0  0  0  0  0  0  0  0  0  0  0  0
   59.7779   34.8854   45.6945 H   0  0  0  0  0  0  0  0  0  0  0  0
   59.4223   35.5323   47.3473 H   0  0  0  0  0  0  0  0  0  0  0  0
   61.9101   34.1721   45.3442 H   0  0  0  0  0  0  0  0  0  0  0  0
   64.0572   33.1878   46.1289 H   0  0  0  0  0  0  0  0  0  0  0  0
   64.3226   32.4975   48.5081 H   0  0  0  0  0  0  0  0  0  0  0  0
   62.4535   32.8242   50.1214 H   0  0  0  0  0  0  0  0  0  0  0  0
   60.4267   33.8020   50.6744 H   0  0  0  0  0  0  0  0  0  0  0  0
   59.5582   34.8724   49.5225 H   0  0  0  0  0  0  0  0  0  0  0  0
   59.2376   33.1049   49.5225 H   0  0  0  0  0  0  0  0  0  0  0  0
   58.8422   31.0411   47.2570 H   0  0  0  0  0  0  0  0  0  0  0  0
   60.4518   29.1194   46.0228 H   0  0  0  0  0  0  0  0  0  0  0  0
   60.8023   26.7185   46.5665 H   0  0  0  0  0  0  0  0  0  0  0  0
   59.2608   22.8236   46.1497 H   0  0  0  0  0  0  0  0  0  0  0  0
   58.1861   23.6849   44.9965 H   0  0  0  0  0  0  0  0  0  0  0  0
   59.9519   24.0149   44.9965 H   0  0  0  0  0  0  0  0  0  0  0  0
  1  2  1  0
  2  3  1  0
  3  4  1  0
  4  5  1  0
  5  6  2  0
  5  7  1  0
  7  8  1  0
  8  9  2  0
  8 10  2  0
  8 11  1  0
 11 12  2  0
 12 13  1  0
 13 14  1  0
 14 15  2  0
 15 16  1  0
 16 17  2  0
 17 18  1  0
 18 19  1  0
 19 20  1  0
 20 21  1  0
 21 22  2  0
 22 23  1  0
 23 24  2  0
 24 25  1  0
 25 26  2  0
 26 27  1  0
 18 28  2  0
 13 29  2  0
 29 30  1  0
 30 31  2  0
 31 32  1  0
 32 33  1  0
 31 11  1  0
 28 14  1  0
 26 21  1  0
  1 34  1  0
  1 35  1  0
  1 36  1  0
  2 37  1  0
  2 38  1  0
  3 39  1  0
  3 40  1  0
  4 41  1  0
 12 42  1  0
 15 43  1  0
 16 44  1  0
 17 45  1  0
 20 46  1  0
 20 47  1  0
 22 48  1  0
 23 49  1  0
 24 50  1  0
 25 51  1  0
 27 52  1  0
 27 53  1  0
 27 54  1  0
 28 55  1  0
 29 56  1  0
 30 57  1  0
 33 58  1  0
 33 59  1  0
 33 60  1  0
M  CHG  1   7  -1
M  END
>  <UniqueID>  (54) 
50

>  <SMILES>  (54) 
CCCNC(=O)[N-]S(=O)(=O)c1cc(-c2cccc(OCc3ccccc3C)c2)ccc1OC

>  <Energy>  (54) 
63.98197902373566

>  <Genealogy>  (54) 
CCCNC(=O)[N-]S(=O)(=O)c1cc(-c2cccc(OCc3ccccc3C)c2)ccc1OC (protonated)
CCCNC(=O)[N-]S(=O)(=O)c1cc(-c2cccc(OCc3ccccc3C)c2)ccc1OC (3D coordinates assigned)
CCCNC(=O)[N-]S(=O)(=O)c1cc(-c2cccc(OCc3ccccc3C)c2)ccc1OC (optimized conformer: 63.98197902373566 kcal/mol)

>  <smiles>  (54) 
CCCNC(=O)NS(=O)(=O)c1cc(-c2cccc(OCc3ccccc3C)c2)ccc1OC

>  <score_type>  (54) 
oracle

>  <origin>  (54) 
adg

>  <m_score__min__energy>  (54) 
-11.039999999999999

>  <m_primary>  (54) 
energy

$$$$
54:0
     RDKit          3D

 61 65  0  0  0  0  0  0  0  0999 V2000
   58.6347   35.2987   44.0344 H   0  0  0  0  0  0  0  0  0  0  0  0
   58.6580   34.5710   44.8590 C   0  0  0  0  0  0  0  0  0  0  0  0
   58.9890   34.9770   46.1130 N   0  0  0  0  0  0  0  0  0  0  0  0
   59.0240   34.0960   47.1460 C   0  0  0  0  0  0  0  0  0  0  0  0
   59.3290   34.5160   48.3360 N   0  0  0  0  0  0  0  0  0  0  0  0
   60.1520   33.7640   49.2800 C   0  0  0  0  0  0  0  0  0  0  0  0
   60.5685   34.4510   50.0314 H   0  0  0  0  0  0  0  0  0  0  0  0
   60.9728   33.2709   48.7385 H   0  0  0  0  0  0  0  0  0  0  0  0
   59.3100   32.7270   49.9630 C   0  0  0  0  0  0  0  0  0  0  0  0
   58.5730   33.0630   51.1080 C   0  0  0  0  0  0  0  0  0  0  0  0
   58.5947   34.0945   51.4894 H   0  0  0  0  0  0  0  0  0  0  0  0
   57.8110   32.0940   51.7670 C   0  0  0  0  0  0  0  0  0  0  0  0
   57.2305   32.3683   52.6602 H   0  0  0  0  0  0  0  0  0  0  0  0
   57.7830   30.7690   51.2930 C   0  0  0  0  0  0  0  0  0  0  0  0
   57.0310   29.7630   51.9180 O   0  0  0  0  0  0  0  0  0  0  0  0
   55.9500   30.0070   52.8100 C   0  0  0  0  0  0  0  0  0  0  0  0
   56.3057   29.9267   53.8478 H   0  0  0  0  0  0  0  0  0  0  0  0
   55.5520   31.0176   52.6360 H   0  0  0  0  0  0  0  0  0  0  0  0
   55.1565   29.2654   52.6360 H   0  0  0  0  0  0  0  0  0  0  0  0
   58.5310   30.4340   50.1580 C   0  0  0  0  0  0  0  0  0  0  0  0
   58.5250   29.1610   49.6940 F   0  0  0  0  0  0  0  0  0  0  0  0
   59.2950   31.4040   49.5000 C   0  0  0  0  0  0  0  0  0  0  0  0
   59.8868   31.1271   48.6151 H   0  0  0  0  0  0  0  0  0  0  0  0
   58.7270   32.7860   46.9220 N   0  0  0  0  0  0  0  0  0  0  0  0
   58.3970   32.3290   45.6840 C   0  0  0  0  0  0  0  0  0  0  0  0
   58.0700   30.9420   45.4910 N   0  0  0  0  0  0  0  0  0  0  0  0
   57.0230   30.4640   44.7760 C   0  0  0  0  0  0  0  0  0  0  0  0
   56.3141   31.0882   44.2123 H   0  0  0  0  0  0  0  0  0  0  0  0
   56.9670   29.0780   44.8520 C   0  0  0  0  0  0  0  0  0  0  0  0
   56.2301   28.4139   44.3766 H   0  0  0  0  0  0  0  0  0  0  0  0
   58.0300   28.7110   45.6490 C   0  0  0  0  0  0  0  0  0  0  0  0
   58.4780   27.4440   46.0380 C   0  0  0  0  0  0  0  0  0  0  0  0
   57.7750   26.2540   45.6500 N   0  0  0  0  0  0  0  0  0  0  0  0
   57.7790   25.8460   44.2440 C   0  0  0  0  0  0  0  0  0  0  0  0
   56.8938   26.2631   43.7415 H   0  0  0  0  0  0  0  0  0  0  0  0
   58.6940   26.2214   43.7626 H   0  0  0  0  0  0  0  0  0  0  0  0
   57.7480   24.3220   44.1400 C   0  0  0  0  0  0  0  0  0  0  0  0
   57.5503   24.0348   43.0967 H   0  0  0  0  0  0  0  0  0  0  0  0
   58.7203   23.9244   44.4664 H   0  0  0  0  0  0  0  0  0  0  0  0
   56.6950   23.7660   45.0020 N   0  0  0  0  0  0  0  0  0  0  0  0
   55.9660   22.5920   44.5690 C   0  0  0  0  0  0  0  0  0  0  0  0
   55.8830   22.3210   43.3380 O   0  0  0  0  0  0  0  0  0  0  0  0
   55.2790   21.6820   45.5410 C   0  0  0  0  0  0  0  0  0  0  0  0
   55.5163   21.9963   46.5681 H   0  0  0  0  0  0  0  0  0  0  0  0
   54.1914   21.7320   45.3843 H   0  0  0  0  0  0  0  0  0  0  0  0
   55.6250   20.6497   45.3843 H   0  0  0  0  0  0  0  0  0  0  0  0
   56.6850   24.1900   46.4120 C   0  0  0  0  0  0  0  0  0  0  0  0
   55.7699   23.8170   46.8953 H   0  0  0  0  0  0  0  0  0  0  0  0
   57.5741   23.7788   46.9125 H   0  0  0  0  0  0  0  0  0  0  0  0
   56.7220   25.7140   46.5150 C   0  0  0  0  0  0  0  0  0  0  0  0
   55.7498   26.1231   46.2027 H   0  0  0  0  0  0  0  0  0  0  0  0
   56.9319   25.9985   47.5566 H   0  0  0  0  0  0  0  0  0  0  0  0
   59.6500   27.3770   46.8200 C   0  0  0  0  0  0  0  0  0  0  0  0
   60.0361   26.3987   47.1423 H   0  0  0  0  0  0  0  0  0  0  0  0
   60.3310   28.5560   47.1920 C   0  0  0  0  0  0  0  0  0  0  0  0
   61.2436   28.4892   47.8025 H   0  0  0  0  0  0  0  0  0  0  0  0
   59.8530   29.8140   46.7890 C   0  0  0  0  0  0  0  0  0  0  0  0
   60.3826   30.7364   47.0694 H   0  0  0  0  0  0  0  0  0  0  0  0
   58.6830   29.8610   46.0200 C   0  0  0  0  0  0  0  0  0  0  0  0
   58.3480   33.2340   44.6160 C   0  0  0  0  0  0  0  0  0  0  0  0
   58.0706   32.8965   43.6065 H   0  0  0  0  0  0  0  0  0  0  0  0
  1  2  1  0
  2  3  1  0
  3  4  1  0
  4  5  2  0
  5  6  1  0
  6  7  1  0
  6  8  1  0
  6  9  1  0
  9 10  2  0
 10 11  1  0
 10 12  1  0
 12 13  1  0
 12 14  2  0
 14 15  1  0
 15 16  1  0
 16 17  1  0
 16 18  1  0
 16 19  1  0
 14 20  1  0
 20 21  1  0
 20 22  2  0
 22 23  1  0
  4 24  1  0
 24 25  2  0
 25 26  1  0
 26 27  1  0
 27 28  1  0
 27 29  2  0
 29 30  1  0
 29 31  1  0
 31 32  2  0
 32 33  1  0
 33 34  1  0
 34 35  1  0
 34 36  1  0
 34 37  1  0
 37 38  1  0
 37 39  1  0
 37 40  1  0
 40 41  1  0
 41 42  2  0
 41 43  1  0
 43 44  1  0
 43 45  1  0
 43 46  1  0
 40 47  1  0
 47 48  1  0
 47 49  1  0
 47 50  1  0
 50 51  1  0
 50 52  1  0
 32 53  1  0
 53 54  1  0
 53 55  2  0
 55 56  1  0
 55 57  1  0
 57 58  1  0
 57 59  2  0
 25 60  1  0
 60 61  1  0
 60  2  2  0
 22  9  1  0
 59 26  1  0
 59 31  1  0
 50 33  1  0
M  CHG  1   3  -1
M  END
>  <UniqueID>  (55) 
51

>  <SMILES>  (55) 
COc1ccc(C/N=c2\nc(-n3ccc4c(N5CCN(C(C)=O)CC5)cccc43)cc[n-]2)cc1F

>  <Energy>  (55) 
105.93894048398575

>  <Genealogy>  (55) 
COc1ccc(CN=c2nc(-n3ccc4c(N5CCN(C(C)=O)CC5)cccc43)cc[n-]2)cc1F (protonated)
COc1ccc(C/N=c2\nc(-n3ccc4c(N5CCN(C(C)=O)CC5)cccc43)cc[n-]2)cc1F (cis-trans isomerization)
COc1ccc(C/N=c2\nc(-n3ccc4c(N5CCN(C(C)=O)CC5)cccc43)cc[n-]2)cc1F (3D coordinates assigned)
COc1ccc(C/N=c2\nc(-n3ccc4c(N5CCN(C(C)=O)CC5)cccc43)cc[n-]2)cc1F (nonaromatic ring conformer: 105.93894048398575 kcal/mol)

>  <smiles>  (55) 
COc1ccc(CN=c2nc(-n3ccc4c(N5CCN(C(C)=O)CC5)cccc43)cc[nH]2)cc1F

>  <score_type>  (55) 
oracle

>  <origin>  (55) 
adg

>  <m_score__min__energy>  (55) 
-11.9

>  <m_primary>  (55) 
energy

$$$$
55:0
     RDKit          3D

 49 52  0  0  0  0  0  0  0  0999 V2000
   60.5990   28.0780   45.4430 C   0  0  0  0  0  0  0  0  0  0  0  0
   60.3470   29.4380   46.0040 C   0  0  0  0  0  0  0  0  0  0  0  0
   61.2800   30.0880   46.7330 N   0  0  0  0  0  0  0  0  0  0  0  0
   60.8190   31.2950   47.0230 N   0  0  0  0  0  0  0  0  0  0  0  0
   61.5750   32.2640   47.7680 C   0  0  0  0  0  0  0  0  0  0  0  0
   62.7060   32.8850   47.2100 C   0  0  0  0  0  0  0  0  0  0  0  0
   63.4200   33.8400   47.9410 C   0  0  0  0  0  0  0  0  0  0  0  0
   63.0040   34.1920   49.2270 C   0  0  0  0  0  0  0  0  0  0  0  0
   61.8690   33.5950   49.7820 C   0  0  0  0  0  0  0  0  0  0  0  0
   61.1530   32.6400   49.0540 C   0  0  0  0  0  0  0  0  0  0  0  0
   59.5930   31.4430   46.4830 C   0  0  0  0  0  0  0  0  0  0  0  0
   59.2530   30.2850   45.8110 C   0  0  0  0  0  0  0  0  0  0  0  0
   58.1180   30.1750   44.9170 N   0  0  0  0  0  0  0  0  0  0  0  0
   57.5720   28.8780   44.4830 C   0  0  0  0  0  0  0  0  0  0  0  0
   56.2590   28.5560   45.1530 C   0  0  0  0  0  0  0  0  0  0  0  0
   55.2880   29.3410   44.9960 O   0  0  0  0  0  0  0  0  0  0  0  0
   56.0900   27.4100   45.9940 N   0  0  0  0  0  0  0  0  0  0  0  0
   56.6940   26.1300   45.7770 C   0  0  0  0  0  0  0  0  0  0  0  0
   57.9380   25.8550   46.3550 C   0  0  0  0  0  0  0  0  0  0  0  0
   58.5500   24.6150   46.1540 C   0  0  0  0  0  0  0  0  0  0  0  0
   57.9110   23.6300   45.3880 C   0  0  0  0  0  0  0  0  0  0  0  0
   58.6790   22.0660   45.1390 S   0  0  0  0  0  0  0  0  0  0  0  0
   60.3900   22.2230   45.3190 N   0  0  0  0  0  0  0  0  0  0  0  0
   58.1590   21.0770   46.1440 O   0  0  0  0  0  0  0  0  0  0  0  0
   58.3640   21.5590   43.7600 O   0  0  0  0  0  0  0  0  0  0  0  0
   56.6450   23.8880   44.8450 C   0  0  0  0  0  0  0  0  0  0  0  0
   56.0360   25.1310   45.0420 C   0  0  0  0  0  0  0  0  0  0  0  0
   57.4320   31.4010   44.5680 C   0  0  0  0  0  0  0  0  0  0  0  0
   56.2350   31.3800   44.1740 O   0  0  0  0  0  0  0  0  0  0  0  0
   58.1310   32.7240   44.7100 C   0  0  0  0  0  0  0  0  0  0  0  0
   58.6170   32.9530   46.4490 S   0  0  0  0  0  0  0  0  0  0  0  0
   60.7319   27.3606   46.2662 H   0  0  0  0  0  0  0  0  0  0  0  0
   59.7423   27.7719   44.8247 H   0  0  0  0  0  0  0  0  0  0  0  0
   61.5085   28.0992   44.8247 H   0  0  0  0  0  0  0  0  0  0  0  0
   63.0310   32.6185   46.1935 H   0  0  0  0  0  0  0  0  0  0  0  0
   64.3103   34.3145   47.5025 H   0  0  0  0  0  0  0  0  0  0  0  0
   63.5698   34.9391   49.8029 H   0  0  0  0  0  0  0  0  0  0  0  0
   61.5386   33.8767   50.7927 H   0  0  0  0  0  0  0  0  0  0  0  0
   60.2541   32.1804   49.4907 H   0  0  0  0  0  0  0  0  0  0  0  0
   57.4160   28.9063   43.3945 H   0  0  0  0  0  0  0  0  0  0  0  0
   58.2940   28.0976   44.7654 H   0  0  0  0  0  0  0  0  0  0  0  0
   58.4366   26.6183   46.9704 H   0  0  0  0  0  0  0  0  0  0  0  0
   59.5356   24.4112   46.5979 H   0  0  0  0  0  0  0  0  0  0  0  0
   60.7490   22.6750   44.4480 H   0  0  0  0  0  0  0  0  0  0  0  0
   60.7850   21.2560   45.3400 H   0  0  0  0  0  0  0  0  0  0  0  0
   56.1292   23.1106   44.2623 H   0  0  0  0  0  0  0  0  0  0  0  0
   55.0391   25.3267   44.6202 H   0  0  0  0  0  0  0  0  0  0  0  0
   59.0267   32.7384   44.0717 H   0  0  0  0  0  0  0  0  0  0  0  0
   57.4559   33.5362   44.4025 H   0  0  0  0  0  0  0  0  0  0  0  0
  1  2  1  0
  2  3  2  0
  3  4  1  0
  4  5  1  0
  5  6  2  0
  6  7  1  0
  7  8  2  0
  8  9  1  0
  9 10  2  0
  4 11  1  0
 11 12  2  0
 12 13  1  0
 13 14  1  0
 14 15  1  0
 15 16  2  0
 15 17  1  0
 17 18  1  0
 18 19  2  0
 19 20  1  0
 20 21  2  0
 21 22  1  0
 22 23  1  0
 22 24  2  0
 22 25  2  0
 21 26  1  0
 26 27  2  0
 13 28  1  0
 28 29  2  0
 28 30  1  0
 30 31  1  0
 12  2  1  0
 27 18  1  0
 10  5  1  0
 31 11  1  0
  1 32  1  0
  1 33  1  0
  1 34  1  0
  6 35  1  0
  7 36  1  0
  8 37  1  0
  9 38  1  0
 10 39  1  0
 14 40  1  0
 14 41  1  0
 19 42  1  0
 20 43  1  0
 23 44  1  0
 23 45  1  0
 26 46  1  0
 27 47  1  0
 30 48  1  0
 30 49  1  0
M  CHG  1  17  -1
M  END
>  <UniqueID>  (56) 
52

>  <SMILES>  (56) 
Cc1nn(-c2ccccc2)c2c1N(CC(=O)[N-]c1ccc(S(N)(=O)=O)cc1)C(=O)CS2

>  <Energy>  (56) 
101.79582341574718

>  <Genealogy>  (56) 
Cc1nn(-c2ccccc2)c2c1N(CC(=O)[N-]c1ccc(S(N)(=O)=O)cc1)C(=O)CS2 (protonated)
Cc1nn(-c2ccccc2)c2c1N(CC(=O)[N-]c1ccc(S(N)(=O)=O)cc1)C(=O)CS2 (3D coordinates assigned)
Cc1nn(-c2ccccc2)c2c1N(CC(=O)[N-]c1ccc(S(N)(=O)=O)cc1)C(=O)CS2 (nonaromatic ring conformer: 101.79582341574718 kcal/mol)

>  <smiles>  (56) 
Cc1nn(-c2ccccc2)c2c1N(CC(=O)Nc1ccc(S(N)(=O)=O)cc1)C(=O)CS2

>  <score_type>  (56) 
oracle

>  <origin>  (56) 
adg

>  <m_score__min__energy>  (56) 
-12.27

>  <m_primary>  (56) 
energy

$$$$
56:0
     RDKit          3D

 39 41  0  0  0  0  0  0  0  0999 V2000
   55.9063   30.0049   43.3101 H   0  0  0  0  0  0  0  0  0  0  0  0
   56.7400   30.1280   44.0170 C   0  0  0  0  0  0  0  0  0  0  0  0
   56.7830   31.2100   44.8330 N   0  0  0  0  0  0  0  0  0  0  0  0
   57.7800   31.4020   45.7390 C   0  0  0  0  0  0  0  0  0  0  0  0
   57.7440   32.9250   46.7000 S   0  0  0  0  0  0  0  0  0  0  0  0
   58.6240   33.9350   45.4540 C   0  0  0  0  0  0  0  0  0  0  0  0
   59.2313   33.2719   44.8204 H   0  0  0  0  0  0  0  0  0  0  0  0
   57.8752   34.4721   44.8534 H   0  0  0  0  0  0  0  0  0  0  0  0
   59.5370   34.9640   46.1130 C   0  0  0  0  0  0  0  0  0  0  0  0
   60.4171   35.1323   45.4749 H   0  0  0  0  0  0  0  0  0  0  0  0
   58.9855   35.9069   46.2425 H   0  0  0  0  0  0  0  0  0  0  0  0
   59.9620   34.4900   47.3890 O   0  0  0  0  0  0  0  0  0  0  0  0
   61.2580   34.0350   47.6730 C   0  0  0  0  0  0  0  0  0  0  0  0
   62.1440   33.8380   46.6060 C   0  0  0  0  0  0  0  0  0  0  0  0
   61.8126   34.0406   45.5769 H   0  0  0  0  0  0  0  0  0  0  0  0
   63.4460   33.3860   46.8390 C   0  0  0  0  0  0  0  0  0  0  0  0
   64.1351   33.2364   45.9948 H   0  0  0  0  0  0  0  0  0  0  0  0
   63.8730   33.1240   48.1440 C   0  0  0  0  0  0  0  0  0  0  0  0
   64.8967   32.7653   48.3268 H   0  0  0  0  0  0  0  0  0  0  0  0
   62.9990   33.3180   49.2150 C   0  0  0  0  0  0  0  0  0  0  0  0
   63.3359   33.1122   50.2417 H   0  0  0  0  0  0  0  0  0  0  0  0
   61.6970   33.7730   48.9870 C   0  0  0  0  0  0  0  0  0  0  0  0
   61.0133   33.9270   49.8348 H   0  0  0  0  0  0  0  0  0  0  0  0
   58.8310   30.4550   45.8380 C   0  0  0  0  0  0  0  0  0  0  0  0
   59.9670   30.5930   46.7830 C   0  0  0  0  0  0  0  0  0  0  0  0
   61.0520   31.0870   46.3700 O   0  0  0  0  0  0  0  0  0  0  0  0
   59.8480   30.1180   48.1330 N   0  0  0  0  0  0  0  0  0  0  0  0
   59.2450   30.6920   49.1330 C   0  0  0  0  0  0  0  0  0  0  0  0
   58.5320   29.9250   50.4610 S   0  0  0  0  0  0  0  0  0  0  0  0
   58.0620   31.3780   51.1670 C   0  0  0  0  0  0  0  0  0  0  0  0
   57.1290   31.5450   52.8200 Br  0  0  0  0  0  0  0  0  0  0  0  0
   58.4730   32.4250   50.3510 C   0  0  0  0  0  0  0  0  0  0  0  0
   58.2838   33.4808   50.5949 H   0  0  0  0  0  0  0  0  0  0  0  0
   59.1280   32.0350   49.2270 N   0  0  0  0  0  0  0  0  0  0  0  0
   59.5000   32.7050   48.5150 H   0  0  0  0  0  0  0  0  0  0  0  0
   58.7990   29.3410   44.9790 C   0  0  0  0  0  0  0  0  0  0  0  0
   59.6074   28.5962   45.0215 H   0  0  0  0  0  0  0  0  0  0  0  0
   57.7510   29.1730   44.0740 C   0  0  0  0  0  0  0  0  0  0  0  0
   57.7238   28.2948   43.4121 H   0  0  0  0  0  0  0  0  0  0  0  0
  1  2  1  0
  2  3  2  0
  3  4  1  0
  4  5  1  0
  5  6  1  0
  6  7  1  0
  6  8  1  0
  6  9  1  0
  9 10  1  0
  9 11  1  0
  9 12  1  0
 12 13  1  0
 13 14  2  0
 14 15  1  0
 14 16  1  0
 16 17  1  0
 16 18  2  0
 18 19  1  0
 18 20  1  0
 20 21  1  0
 20 22  2  0
 22 23  1  0
  4 24  2  0
 24 25  1  0
 25 26  2  0
 25 27  1  0
 27 28  2  0
 28 29  1  0
 29 30  1  0
 30 31  1  0
 30 32  2  0
 32 33  1  0
 32 34  1  0
 34 35  1  0
 24 36  1  0
 36 37  1  0
 36 38  2  0
 38 39  1  0
 38  2  1  0
 22 13  1  0
 34 28  1  0
M  END
>  <UniqueID>  (57) 
53

>  <SMILES>  (57) 
O=C(/N=c1/[nH]cc(Br)s1)c1cccnc1SCCOc1ccccc1

>  <Energy>  (57) 
74.6071715831687

>  <Genealogy>  (57) 
O=C(/N=c1/[nH]cc(Br)s1)c1cccnc1SCCOc1ccccc1 (cis-trans isomerization)
O=C(/N=c1/[nH]cc(Br)s1)c1cccnc1SCCOc1ccccc1 (3D coordinates assigned)
O=C(/N=c1/[nH]cc(Br)s1)c1cccnc1SCCOc1ccccc1 (optimized conformer: 74.6071715831687 kcal/mol)

>  <smiles>  (57) 
O=C(N=c1[nH]cc(Br)s1)c1cccnc1SCCOc1ccccc1

>  <score_type>  (57) 
oracle

>  <origin>  (57) 
adg

>  <m_score__min__energy>  (57) 
-7.4900000000000002

>  <m_primary>  (57) 
energy

$$$$
57:0
     RDKit          3D

 56 60  0  0  0  0  0  0  0  0999 V2000
   54.4470   23.6820   44.2500 C   0  0  0  0  0  0  0  0  0  0  0  0
   55.8550   23.7630   44.6580 N   0  0  0  0  0  0  0  0  0  0  0  0
   56.7750   22.9520   44.0530 C   0  0  0  0  0  0  0  0  0  0  0  0
   58.1240   23.0270   44.3960 C   0  0  0  0  0  0  0  0  0  0  0  0
   58.5360   23.9350   45.3680 C   0  0  0  0  0  0  0  0  0  0  0  0
   57.5990   24.7610   45.9970 C   0  0  0  0  0  0  0  0  0  0  0  0
   58.0520   25.7200   47.0310 C   0  0  0  0  0  0  0  0  0  0  0  0
   57.7980   25.4750   48.2420 O   0  0  0  0  0  0  0  0  0  0  0  0
   58.7650   26.9250   46.6870 N   0  0  0  0  0  0  0  0  0  0  0  0
   58.5010   27.6230   45.4200 C   0  0  0  0  0  0  0  0  0  0  0  0
   58.3710   29.1310   45.6590 C   0  0  0  0  0  0  0  0  0  0  0  0
   59.5290   29.6860   46.4720 C   0  0  0  0  0  0  0  0  0  0  0  0
   59.7630   31.0280   46.5250 C   0  0  0  0  0  0  0  0  0  0  0  0
   58.8030   32.0040   45.9720 C   0  0  0  0  0  0  0  0  0  0  0  0
   58.6900   32.1910   44.5860 C   0  0  0  0  0  0  0  0  0  0  0  0
   57.7990   33.1390   44.0770 C   0  0  0  0  0  0  0  0  0  0  0  0
   57.0330   33.9170   44.9480 C   0  0  0  0  0  0  0  0  0  0  0  0
   57.1600   33.7530   46.3310 C   0  0  0  0  0  0  0  0  0  0  0  0
   58.0450   32.7930   46.8490 C   0  0  0  0  0  0  0  0  0  0  0  0
   58.2570   32.6570   48.3310 C   0  0  0  0  0  0  0  0  0  0  0  0
   59.5980   33.2720   48.7380 C   0  0  0  0  0  0  0  0  0  0  0  0
   60.8700   32.6000   48.2260 C   0  0  0  0  0  0  0  0  0  0  0  0
   62.0750   33.0620   48.7850 C   0  0  0  0  0  0  0  0  0  0  0  0
   63.3020   32.5470   48.3740 C   0  0  0  0  0  0  0  0  0  0  0  0
   63.3310   31.5690   47.3890 C   0  0  0  0  0  0  0  0  0  0  0  0
   62.1740   31.1250   46.8400 N   0  0  0  0  0  0  0  0  0  0  0  0
   60.9500   31.5910   47.2180 C   0  0  0  0  0  0  0  0  0  0  0  0
   60.4930   28.6780   47.0760 C   0  0  0  0  0  0  0  0  0  0  0  0
   59.7330   27.4740   47.6470 C   0  0  0  0  0  0  0  0  0  0  0  0
   56.2470   24.6780   45.6040 C   0  0  0  0  0  0  0  0  0  0  0  0
   55.3980   25.4670   46.1070 O   0  0  0  0  0  0  0  0  0  0  0  0
   53.8076   23.6452   45.1443 H   0  0  0  0  0  0  0  0  0  0  0  0
   54.1876   24.5667   43.6500 H   0  0  0  0  0  0  0  0  0  0  0  0
   54.2908   22.7734   43.6500 H   0  0  0  0  0  0  0  0  0  0  0  0
   56.4471   22.2330   43.2878 H   0  0  0  0  0  0  0  0  0  0  0  0
   58.8581   22.3733   43.9022 H   0  0  0  0  0  0  0  0  0  0  0  0
   59.5993   24.0027   45.6413 H   0  0  0  0  0  0  0  0  0  0  0  0
   59.3316   27.4365   44.7234 H   0  0  0  0  0  0  0  0  0  0  0  0
   57.5593   27.2463   44.9941 H   0  0  0  0  0  0  0  0  0  0  0  0
   58.3443   29.6428   44.6857 H   0  0  0  0  0  0  0  0  0  0  0  0
   57.4457   29.3039   46.2282 H   0  0  0  0  0  0  0  0  0  0  0  0
   59.3040   31.5901   43.8990 H   0  0  0  0  0  0  0  0  0  0  0  0
   57.7007   33.2728   42.9896 H   0  0  0  0  0  0  0  0  0  0  0  0
   56.3287   34.6599   44.5455 H   0  0  0  0  0  0  0  0  0  0  0  0
   56.5656   34.3770   47.0146 H   0  0  0  0  0  0  0  0  0  0  0  0
   57.4449   33.1750   48.8621 H   0  0  0  0  0  0  0  0  0  0  0  0
   58.2604   31.5889   48.5939 H   0  0  0  0  0  0  0  0  0  0  0  0
   59.6066   34.3108   48.3764 H   0  0  0  0  0  0  0  0  0  0  0  0
   59.6396   33.1516   49.8306 H   0  0  0  0  0  0  0  0  0  0  0  0
   62.0479   33.8428   49.5594 H   0  0  0  0  0  0  0  0  0  0  0  0
   64.2372   32.9109   48.8245 H   0  0  0  0  0  0  0  0  0  0  0  0
   64.2932   31.1543   47.0540 H   0  0  0  0  0  0  0  0  0  0  0  0
   61.1867   28.3302   46.2964 H   0  0  0  0  0  0  0  0  0  0  0  0
   61.0477   29.1647   47.8917 H   0  0  0  0  0  0  0  0  0  0  0  0
   60.4576   26.6887   47.9084 H   0  0  0  0  0  0  0  0  0  0  0  0
   59.1760   27.8141   48.5325 H   0  0  0  0  0  0  0  0  0  0  0  0
  1  2  1  0
  2  3  1  0
  3  4  2  0
  4  5  1  0
  5  6  2  0
  6  7  1  0
  7  8  2  0
  7  9  1  0
  9 10  1  0
 10 11  1  0
 11 12  1  0
 12 13  2  3
 13 14  1  0
 14 15  2  0
 15 16  1  0
 16 17  2  0
 17 18  1  0
 18 19  2  0
 19 20  1  0
 20 21  1  0
 21 22  1  0
 22 23  2  0
 23 24  1  0
 24 25  2  0
 25 26  1  0
 26 27  2  0
 12 28  1  0
 28 29  1  0
  6 30  1  0
 30 31  2  0
 30  2  1  0
 29  9  1  0
 27 13  1  0
 19 14  1  0
 27 22  1  0
  1 32  1  0
  1 33  1  0
  1 34  1  0
  3 35  1  0
  4 36  1  0
  5 37  1  0
 10 38  1  0
 10 39  1  0
 11 40  1  0
 11 41  1  0
 15 42  1  0
 16 43  1  0
 17 44  1  0
 18 45  1  0
 20 46  1  0
 20 47  1  0
 21 48  1  0
 21 49  1  0
 23 50  1  0
 24 51  1  0
 25 52  1  0
 28 53  1  0
 28 54  1  0
 29 55  1  0
 29 56  1  0
M  END
>  <UniqueID>  (58) 
54

>  <SMILES>  (58) 
Cn1cccc(C(=O)N2CCC(=C3c4ccccc4CCc4cccnc43)CC2)c1=O

>  <Energy>  (58) 
93.50816368473285

>  <Genealogy>  (58) 
Cn1cccc(C(=O)N2CCC(=C3c4ccccc4CCc4cccnc43)CC2)c1=O (3D coordinates assigned)
Cn1cccc(C(=O)N2CCC(=C3c4ccccc4CCc4cccnc43)CC2)c1=O (nonaromatic ring conformer: 93.50816368473285 kcal/mol)

>  <smiles>  (58) 
Cn1cccc(C(=O)N2CCC(=C3c4ccccc4CCc4cccnc43)CC2)c1=O

>  <score_type>  (58) 
oracle

>  <origin>  (58) 
adg

>  <m_score__min__energy>  (58) 
-7.8700000000000001

>  <m_primary>  (58) 
energy

$$$$
58:0
     RDKit          3D

 37 38  0  0  0  0  0  0  0  0999 V2000
   60.4097   28.7334   45.0747 H   0  0  0  0  0  0  0  0  0  0  0  0
   59.3110   28.7870   45.0760 C   0  0  0  0  0  0  0  0  0  0  0  0
   58.6900   29.9830   44.9080 N   0  0  0  0  0  0  0  0  0  0  0  0
   57.3340   30.1130   44.9040 C   0  0  0  0  0  0  0  0  0  0  0  0
   56.8400   31.3120   44.7470 N   0  0  0  0  0  0  0  0  0  0  0  0
   57.5220   32.5690   44.8510 C   0  0  0  0  0  0  0  0  0  0  0  0
   57.6070   33.2950   43.8250 O   0  0  0  0  0  0  0  0  0  0  0  0
   58.1830   32.9970   46.1120 C   0  0  0  0  0  0  0  0  0  0  0  0
   58.1280   32.1630   47.2420 C   0  0  0  0  0  0  0  0  0  0  0  0
   57.5864   31.2072   47.1869 H   0  0  0  0  0  0  0  0  0  0  0  0
   58.7540   32.5350   48.4350 C   0  0  0  0  0  0  0  0  0  0  0  0
   58.7067   31.8688   49.3090 H   0  0  0  0  0  0  0  0  0  0  0  0
   59.4440   33.7570   48.5230 C   0  0  0  0  0  0  0  0  0  0  0  0
   60.1040   34.1790   49.7230 N   0  0  0  0  0  0  0  0  0  0  0  0
   61.7480   33.8260   50.1490 S   0  0  0  0  0  0  0  0  0  0  0  0
   62.6300   34.8930   49.5670 O   0  0  0  0  0  0  0  0  0  0  0  0
   61.8920   33.8410   51.6460 O   0  0  0  0  0  0  0  0  0  0  0  0
   62.2190   32.2380   49.4630 C   0  0  0  0  0  0  0  0  0  0  0  0
   63.2147   31.9727   49.8479 H   0  0  0  0  0  0  0  0  0  0  0  0
   61.4509   31.5111   49.7657 H   0  0  0  0  0  0  0  0  0  0  0  0
   62.2720   32.2320   47.9280 C   0  0  0  0  0  0  0  0  0  0  0  0
   62.3361   31.1877   47.5883 H   0  0  0  0  0  0  0  0  0  0  0  0
   61.3602   32.7369   47.5764 H   0  0  0  0  0  0  0  0  0  0  0  0
   63.4610   33.0040   47.3410 C   0  0  0  0  0  0  0  0  0  0  0  0
   64.1150   32.2400   46.3900 F   0  0  0  0  0  0  0  0  0  0  0  0
   63.0400   34.1890   46.7670 F   0  0  0  0  0  0  0  0  0  0  0  0
   64.3520   33.3020   48.3560 F   0  0  0  0  0  0  0  0  0  0  0  0
   59.4900   34.5950   47.4040 C   0  0  0  0  0  0  0  0  0  0  0  0
   60.0240   35.5547   47.4653 H   0  0  0  0  0  0  0  0  0  0  0  0
   58.8650   34.2270   46.2080 C   0  0  0  0  0  0  0  0  0  0  0  0
   58.9070   35.0920   45.1630 F   0  0  0  0  0  0  0  0  0  0  0  0
   56.5380   28.9460   45.0480 C   0  0  0  0  0  0  0  0  0  0  0  0
   55.1500   28.9770   44.9780 O   0  0  0  0  0  0  0  0  0  0  0  0
   57.1670   27.7120   45.2330 C   0  0  0  0  0  0  0  0  0  0  0  0
   56.5617   26.8031   45.3658 H   0  0  0  0  0  0  0  0  0  0  0  0
   58.5580   27.6280   45.2500 C   0  0  0  0  0  0  0  0  0  0  0  0
   59.0553   26.6582   45.3990 H   0  0  0  0  0  0  0  0  0  0  0  0
  1  2  1  0
  2  3  1  0
  3  4  1  0
  4  5  2  0
  5  6  1  0
  6  7  2  0
  6  8  1  0
  8  9  2  0
  9 10  1  0
  9 11  1  0
 11 12  1  0
 11 13  2  0
 13 14  1  0
 14 15  1  0
 15 16  2  0
 15 17  2  0
 15 18  1  0
 18 19  1  0
 18 20  1  0
 18 21  1  0
 21 22  1  0
 21 23  1  0
 21 24  1  0
 24 25  1  0
 24 26  1  0
 24 27  1  0
 13 28  1  0
 28 29  1  0
 28 30  2  0
 30 31  1  0
  4 32  1  0
 32 33  1  0
 32 34  2  0
 34 35  1  0
 34 36  1  0
 36 37  1  0
 36  2  2  0
 30  8  1  0
M  CHG  3   3  -1  14  -1  33  -1
M  END
>  <UniqueID>  (59) 
55

>  <SMILES>  (59) 
O=C(/N=c1/[n-]cccc1[O-])c1ccc([N-]S(=O)(=O)CCC(F)(F)F)cc1F

>  <Energy>  (59) 
50.9250375406176

>  <Genealogy>  (59) 
O=C(N=c1[n-]cccc1[O-])c1ccc([N-]S(=O)(=O)CCC(F)(F)F)cc1F (protonated)
O=C(/N=c1/[n-]cccc1[O-])c1ccc([N-]S(=O)(=O)CCC(F)(F)F)cc1F (cis-trans isomerization)
O=C(/N=c1/[n-]cccc1[O-])c1ccc([N-]S(=O)(=O)CCC(F)(F)F)cc1F (3D coordinates assigned)
O=C(/N=c1/[n-]cccc1[O-])c1ccc([N-]S(=O)(=O)CCC(F)(F)F)cc1F (optimized conformer: 50.9250375406176 kcal/mol)

>  <smiles>  (59) 
O=C(N=c1[nH]cccc1O)c1ccc(NS(=O)(=O)CCC(F)(F)F)cc1F

>  <score_type>  (59) 
oracle

>  <origin>  (59) 
adg

>  <m_score__min__energy>  (59) 
-13.140000000000001

>  <m_primary>  (59) 
energy

$$$$
59:0
     RDKit          3D

 43 45  0  0  1  0  0  0  0  0999 V2000
   55.9910   29.2410   44.9840 O   0  0  0  0  0  0  0  0  0  0  0  0
   57.1660   29.1360   45.4320 C   0  0  0  0  0  0  0  0  0  0  0  0
   58.2980   29.9700   44.9370 C   0  0  0  0  0  0  0  0  0  0  0  0
   59.8930   29.2560   45.3300 S   0  0  0  0  0  0  0  0  0  0  0  0
   60.2630   29.2750   47.0560 C   0  0  0  0  0  0  0  0  0  0  0  0
   60.0210   28.2690   47.9090 N   0  0  0  0  0  0  0  0  0  0  0  0
   60.4500   28.6980   49.1060 N   0  0  0  0  0  0  0  0  0  0  0  0
   60.9430   29.9430   48.9830 C   0  0  0  0  0  0  0  0  0  0  0  0
   61.4390   30.6830   49.8810 O   0  0  0  0  0  0  0  0  0  0  0  0
   60.8320   30.3220   47.6930 N   0  0  0  0  0  0  0  0  0  0  0  0
   61.2280   31.5610   47.1070 C   0  0  0  0  0  0  0  0  0  0  0  0
   60.4590   32.7260   47.6040 C   0  0  0  0  0  0  0  0  0  0  0  0
   59.3750   33.2210   46.7670 C   0  0  0  0  0  0  0  0  0  0  0  0
   59.6440   34.1150   45.7510 C   0  0  0  0  0  0  0  0  0  0  0  0
   58.6680   34.6350   44.9270 C   0  0  0  0  0  0  0  0  0  0  0  0
   57.3640   34.2190   45.1550 C   0  0  0  0  0  0  0  0  0  0  0  0
   57.0540   33.3280   46.1560 C   0  0  0  0  0  0  0  0  0  0  0  0
   58.0590   32.8280   46.9650 C   0  0  0  0  0  0  0  0  0  0  0  0
   57.5020   28.1910   46.4670 N   0  0  0  0  0  0  0  0  0  0  0  0
   57.5680   26.9200   46.2210 C   0  0  0  0  0  0  0  0  0  0  0  0
   58.7820   26.3150   46.2130 N   0  0  0  0  0  0  0  0  0  0  0  0
   58.9240   24.9940   45.9650 C   0  0  0  0  0  0  0  0  0  0  0  0
   57.8040   24.2290   45.7110 C   0  0  0  0  0  0  0  0  0  0  0  0
   56.5430   24.8340   45.7140 C   0  0  0  0  0  0  0  0  0  0  0  0
   56.4240   26.1860   45.9700 C   0  0  0  0  0  0  0  0  0  0  0  0
   55.1940   26.8370   45.9860 O   0  0  0  0  0  0  0  0  0  0  0  0
   58.2139   30.0676   43.8446 H   0  0  0  0  0  0  0  0  0  0  0  0
   58.2365   30.9492   45.4344 H   0  0  0  0  0  0  0  0  0  0  0  0
   60.4280   28.1880   50.0210 H   0  0  0  0  0  0  0  0  0  0  0  0
   62.2924   31.7264   47.3299 H   0  0  0  0  0  0  0  0  0  0  0  0
   61.0333   31.4834   46.0272 H   0  0  0  0  0  0  0  0  0  0  0  0
   60.0242   32.4444   48.5744 H   0  0  0  0  0  0  0  0  0  0  0  0
   61.1871   33.5499   47.6369 H   0  0  0  0  0  0  0  0  0  0  0  0
   60.6863   34.4278   45.5907 H   0  0  0  0  0  0  0  0  0  0  0  0
   58.9122   35.3474   44.1252 H   0  0  0  0  0  0  0  0  0  0  0  0
   56.5573   34.6120   44.5188 H   0  0  0  0  0  0  0  0  0  0  0  0
   56.0114   33.0142   46.3127 H   0  0  0  0  0  0  0  0  0  0  0  0
   57.8140   32.1168   47.7676 H   0  0  0  0  0  0  0  0  0  0  0  0
   59.6240   26.9130   46.4080 H   0  0  0  0  0  0  0  0  0  0  0  0
   59.9228   24.5331   45.9656 H   0  0  0  0  0  0  0  0  0  0  0  0
   57.9021   23.1524   45.5079 H   0  0  0  0  0  0  0  0  0  0  0  0
   55.6447   24.2321   45.5122 H   0  0  0  0  0  0  0  0  0  0  0  0
   55.1330   27.8610   45.9620 H   0  0  0  0  0  0  0  0  0  0  0  0
  1  2  2  0
  2  3  1  0
  3  4  1  0
  4  5  1  0
  5  6  2  0
  6  7  1  0
  7  8  1  0
  8  9  2  0
  8 10  1  0
 10 11  1  0
 11 12  1  0
 12 13  1  0
 13 14  2  0
 14 15  1  0
 15 16  2  0
 16 17  1  0
 17 18  2  0
  2 19  1  0
 19 20  2  0
 20 21  1  0
 21 22  1  0
 22 23  2  0
 23 24  1  0
 24 25  2  0
 25 26  1  0
 10  5  1  0
 18 13  1  0
 25 20  1  0
  3 27  1  0
  3 28  1  0
  7 29  1  0
 11 30  1  0
 11 31  1  0
 12 32  1  0
 12 33  1  0
 14 34  1  0
 15 35  1  0
 16 36  1  0
 17 37  1  0
 18 38  1  0
 21 39  1  0
 22 40  1  0
 23 41  1  0
 24 42  1  0
 26 43  1  0
M  END
>  <smiles>  (60) 
O=C(CSc1n[nH]c(=O)n1CCc1ccccc1)N=c1[nH]cccc1O

>  <score_type>  (60) 
oracle

>  <origin>  (60) 
adg

>  <m_score__min__energy>  (60) 
-8.8800000000000008

>  <m_primary>  (60) 
energy

$$$$
60:0
     RDKit          3D

 56 59  0  0  1  0  0  0  0  0999 V2000
   62.2290   33.4770   46.2240 O   0  0  0  0  0  0  0  0  0  0  0  0
   62.4910   33.0340   47.3740 C   0  0  0  0  0  0  0  0  0  0  0  0
   62.7840   34.0040   48.4690 C   0  0  0  0  0  0  0  0  0  0  0  0
   62.4910   33.2990   49.7460 C   0  0  0  0  0  0  0  0  0  0  0  0
   63.4720   32.8120   50.5810 C   0  0  0  0  0  0  0  0  0  0  0  0
   63.0810   32.1670   51.7560 C   0  0  0  0  0  0  0  0  0  0  0  0
   61.7290   32.0200   52.0760 C   0  0  0  0  0  0  0  0  0  0  0  0
   60.7610   32.5150   51.2260 C   0  0  0  0  0  0  0  0  0  0  0  0
   59.3640   32.4000   51.4890 N   0  0  0  0  0  0  0  0  0  0  0  0
   58.5170   33.3070   52.0090 C   0  0  0  0  0  0  0  0  0  0  0  0
   58.8650   34.5900   52.4060 O   0  0  0  0  0  0  0  0  0  0  0  0
   57.2800   32.6830   52.0520 C   0  0  0  0  0  0  0  0  0  0  0  0
   57.4210   31.4240   51.5570 N   0  0  0  0  0  0  0  0  0  0  0  0
   58.6910   31.2490   51.2140 C   0  0  0  0  0  0  0  0  0  0  0  0
   59.1530   30.1830   50.7200 O   0  0  0  0  0  0  0  0  0  0  0  0
   61.1400   33.1510   50.0680 C   0  0  0  0  0  0  0  0  0  0  0  0
   62.5010   31.6500   47.6010 N   0  0  0  0  0  0  0  0  0  0  0  0
   61.4210   30.9790   47.4930 C   0  0  0  0  0  0  0  0  0  0  0  0
   60.7430   30.5470   46.3750 C   0  0  0  0  0  0  0  0  0  0  0  0
   59.5920   29.8370   46.7750 C   0  0  0  0  0  0  0  0  0  0  0  0
   58.6690   29.2570   45.8110 C   0  0  0  0  0  0  0  0  0  0  0  0
   57.7030   30.0840   45.0890 C   0  0  0  0  0  0  0  0  0  0  0  0
   58.1190   31.2260   44.2510 C   0  0  0  0  0  0  0  0  0  0  0  0
   57.4760   32.5480   44.4430 C   0  0  0  0  0  0  0  0  0  0  0  0
   58.1970   33.3050   45.5310 C   0  0  0  0  0  0  0  0  0  0  0  0
   58.9830   34.3860   45.2910 C   0  0  0  0  0  0  0  0  0  0  0  0
   59.5910   34.9950   46.3890 C   0  0  0  0  0  0  0  0  0  0  0  0
   59.3780   34.4930   47.6400 C   0  0  0  0  0  0  0  0  0  0  0  0
   58.5800   33.4040   47.8420 C   0  0  0  0  0  0  0  0  0  0  0  0
   57.9930   32.8160   46.7850 N   0  0  0  0  0  0  0  0  0  0  0  0
   59.6450   29.8830   48.1080 N   0  0  0  0  0  0  0  0  0  0  0  0
   60.7000   30.5420   48.5380 N   0  0  0  0  0  0  0  0  0  0  0  0
   63.8409   34.3070   48.4358 H   0  0  0  0  0  0  0  0  0  0  0  0
   62.1751   34.9145   48.3680 H   0  0  0  0  0  0  0  0  0  0  0  0
   64.5363   32.9282   50.3287 H   0  0  0  0  0  0  0  0  0  0  0  0
   63.8470   31.7697   52.4382 H   0  0  0  0  0  0  0  0  0  0  0  0
   61.4361   31.5097   53.0054 H   0  0  0  0  0  0  0  0  0  0  0  0
   58.3990   35.4200   52.0370 H   0  0  0  0  0  0  0  0  0  0  0  0
   56.3453   33.1292   52.4226 H   0  0  0  0  0  0  0  0  0  0  0  0
   56.6730   30.7230   51.4620 H   0  0  0  0  0  0  0  0  0  0  0  0
   60.3716   33.5474   49.3880 H   0  0  0  0  0  0  0  0  0  0  0  0
   61.0506   30.7272   45.3344 H   0  0  0  0  0  0  0  0  0  0  0  0
   59.2872   28.7626   45.0472 H   0  0  0  0  0  0  0  0  0  0  0  0
   58.0215   28.6349   46.4464 H   0  0  0  0  0  0  0  0  0  0  0  0
   57.1492   29.4024   44.4266 H   0  0  0  0  0  0  0  0  0  0  0  0
   57.1695   30.5843   45.9106 H   0  0  0  0  0  0  0  0  0  0  0  0
   59.1971   31.3680   44.4170 H   0  0  0  0  0  0  0  0  0  0  0  0
   57.8034   30.9310   43.2394 H   0  0  0  0  0  0  0  0  0  0  0  0
   57.5252   33.1194   43.5044 H   0  0  0  0  0  0  0  0  0  0  0  0
   56.4240   32.4056   44.7309 H   0  0  0  0  0  0  0  0  0  0  0  0
   59.1345   34.7668   44.2702 H   0  0  0  0  0  0  0  0  0  0  0  0
   60.2375   35.8736   46.2474 H   0  0  0  0  0  0  0  0  0  0  0  0
   59.8592   34.9758   48.5033 H   0  0  0  0  0  0  0  0  0  0  0  0
   58.4192   33.0123   48.8573 H   0  0  0  0  0  0  0  0  0  0  0  0
   58.9030   29.4290   48.7100 H   0  0  0  0  0  0  0  0  0  0  0  0
   60.9130   30.6840   49.5570 H   0  0  0  0  0  0  0  0  0  0  0  0
  1  2  2  0
  2  3  1  0
  3  4  1  0
  4  5  2  0
  5  6  1  0
  6  7  2  0
  7  8  1  0
  8  9  1  0
  9 10  1  0
 10 11  1  0
 10 12  2  0
 12 13  1  0
 13 14  1  0
 14 15  2  0
  8 16  2  0
  2 17  1  0
 17 18  2  0
 18 19  1  0
 19 20  2  0
 20 21  1  0
 21 22  1  0
 22 23  1  0
 23 24  1  0
 24 25  1  0
 25 26  2  0
 26 27  1  0
 27 28  2  0
 28 29  1  0
 29 30  2  0
 20 31  1  0
 31 32  1  0
 16  4  1  0
 32 18  1  0
 14  9  1  0
 30 25  1  0
  3 33  1  0
  3 34  1  0
  5 35  1  0
  6 36  1  0
  7 37  1  0
 11 38  1  0
 12 39  1  0
 13 40  1  0
 16 41  1  0
 19 42  1  0
 21 43  1  0
 21 44  1  0
 22 45  1  0
 22 46  1  0
 23 47  1  0
 23 48  1  0
 24 49  1  0
 24 50  1  0
 26 51  1  0
 27 52  1  0
 28 53  1  0
 29 54  1  0
 31 55  1  0
 32 56  1  0
M  END
>  <smiles>  (61) 
O=C(Cc1cccc(-n2c(O)c[nH]c2=O)c1)N=c1cc(CCCCc2ccccn2)[nH][nH]1

>  <score_type>  (61) 
oracle

>  <origin>  (61) 
adg

>  <m_score__min__energy>  (61) 
-10.18

>  <m_primary>  (61) 
energy

$$$$
61:0
     RDKit          3D

 41 42  0  0  0  0  0  0  0  0999 V2000
   58.1660   21.4610   43.3750 C   0  0  0  0  0  0  0  0  0  0  0  0
   56.8750   21.5920   44.1200 C   0  0  0  0  0  0  0  0  0  0  0  0
   55.9210   20.8240   43.8240 O   0  0  0  0  0  0  0  0  0  0  0  0
   56.7370   22.5650   45.1700 N   0  0  0  0  0  0  0  0  0  0  0  0
   55.5750   22.6770   46.0080 C   0  0  0  0  0  0  0  0  0  0  0  0
   54.5700   21.9400   45.8180 O   0  0  0  0  0  0  0  0  0  0  0  0
   55.5320   23.7000   47.1020 C   0  0  0  0  0  0  0  0  0  0  0  0
   56.2860   24.9270   46.6940 C   0  0  0  0  0  0  0  0  0  0  0  0
   57.6320   25.0300   46.7120 N   0  0  0  0  0  0  0  0  0  0  0  0
   57.8640   26.2610   46.2050 C   0  0  0  0  0  0  0  0  0  0  0  0
   59.0240   26.7230   46.0390 O   0  0  0  0  0  0  0  0  0  0  0  0
   56.7400   26.9340   45.8760 N   0  0  0  0  0  0  0  0  0  0  0  0
   56.6340   28.2000   45.1520 C   0  0  0  0  0  0  0  0  0  0  0  0
   57.3730   29.2570   45.9040 C   0  0  0  0  0  0  0  0  0  0  0  0
   58.0970   28.9360   46.8860 O   0  0  0  0  0  0  0  0  0  0  0  0
   57.1610   30.6330   45.5790 N   0  0  0  0  0  0  0  0  0  0  0  0
   58.0490   31.3790   44.6980 C   0  0  0  0  0  0  0  0  0  0  0  0
   58.5030   32.6390   45.3930 C   0  0  0  0  0  0  0  0  0  0  0  0
   58.6560   33.8200   44.6430 C   0  0  0  0  0  0  0  0  0  0  0  0
   59.1280   34.9870   45.2460 C   0  0  0  0  0  0  0  0  0  0  0  0
   59.4600   34.9890   46.6020 C   0  0  0  0  0  0  0  0  0  0  0  0
   59.3260   33.8230   47.3550 C   0  0  0  0  0  0  0  0  0  0  0  0
   58.8570   32.6430   46.7640 C   0  0  0  0  0  0  0  0  0  0  0  0
   58.7620   31.5020   47.5620 O   0  0  0  0  0  0  0  0  0  0  0  0
   55.7460   26.0790   46.1660 C   0  0  0  0  0  0  0  0  0  0  0  0
   54.3980   26.3250   45.9360 O   0  0  0  0  0  0  0  0  0  0  0  0
   58.9961   21.3768   44.0918 H   0  0  0  0  0  0  0  0  0  0  0  0
   58.1348   20.5614   42.7427 H   0  0  0  0  0  0  0  0  0  0  0  0
   58.3162   22.3485   42.7427 H   0  0  0  0  0  0  0  0  0  0  0  0
   57.5350   23.2150   45.3510 H   0  0  0  0  0  0  0  0  0  0  0  0
   54.4852   23.9685   47.3071 H   0  0  0  0  0  0  0  0  0  0  0  0
   55.9961   23.2781   48.0056 H   0  0  0  0  0  0  0  0  0  0  0  0
   57.0710   28.0881   44.1487 H   0  0  0  0  0  0  0  0  0  0  0  0
   55.5757   28.4846   45.0568 H   0  0  0  0  0  0  0  0  0  0  0  0
   58.9245   30.7608   44.4504 H   0  0  0  0  0  0  0  0  0  0  0  0
   57.5134   31.6420   43.7739 H   0  0  0  0  0  0  0  0  0  0  0  0
   58.4015   33.8234   43.5728 H   0  0  0  0  0  0  0  0  0  0  0  0
   59.2385   35.9062   44.6520 H   0  0  0  0  0  0  0  0  0  0  0  0
   59.8275   35.9108   47.0767 H   0  0  0  0  0  0  0  0  0  0  0  0
   59.5910   33.8300   48.4226 H   0  0  0  0  0  0  0  0  0  0  0  0
   58.3880   30.6220   47.2310 H   0  0  0  0  0  0  0  0  0  0  0  0
  1  2  1  0
  2  3  2  0
  2  4  1  0
  4  5  1  0
  5  6  2  0
  5  7  1  0
  7  8  1  0
  8  9  1  0
  9 10  1  0
 10 11  2  0
 10 12  1  0
 12 13  1  0
 13 14  1  0
 14 15  2  0
 14 16  1  0
 16 17  1  0
 17 18  1  0
 18 19  2  0
 19 20  1  0
 20 21  2  0
 21 22  1  0
 22 23  2  0
 23 24  1  0
 12 25  1  0
 25 26  1  0
 25  8  2  0
 23 18  1  0
  1 27  1  0
  1 28  1  0
  1 29  1  0
  4 30  1  0
  7 31  1  0
  7 32  1  0
 13 33  1  0
 13 34  1  0
 17 35  1  0
 17 36  1  0
 19 37  1  0
 20 38  1  0
 21 39  1  0
 22 40  1  0
 24 41  1  0
M  CHG  3   9  -1  16  -1  26  -1
M  END
>  <UniqueID>  (62) 
56

>  <SMILES>  (62) 
CC(=O)NC(=O)Cc1[n-]c(=O)n(CC(=O)[N-]Cc2ccccc2O)c1[O-]

>  <Energy>  (62) 
63.266625591039116

>  <Genealogy>  (62) 
CC(=O)NC(=O)Cc1[n-]c(=O)n(CC(=O)[N-]Cc2ccccc2O)c1[O-] (protonated)
CC(=O)NC(=O)Cc1[n-]c(=O)n(CC(=O)[N-]Cc2ccccc2O)c1[O-] (3D coordinates assigned)
CC(=O)NC(=O)Cc1[n-]c(=O)n(CC(=O)[N-]Cc2ccccc2O)c1[O-] (optimized conformer: 63.266625591039116 kcal/mol)

>  <smiles>  (62) 
CC(=O)NC(=O)Cc1[nH]c(=O)n(CC(=O)NCc2ccccc2O)c1O

>  <score_type>  (62) 
oracle

>  <origin>  (62) 
adg

>  <m_score__min__energy>  (62) 
-13.619999999999999

>  <m_primary>  (62) 
energy

$$$$
62:0
     RDKit          3D

 22 23  0  0  0  0  0  0  0  0999 V2000
   57.9042   26.7126   46.1402 H   0  0  0  0  0  0  0  0  0  0  0  0
   57.3330   27.5510   45.7150 C   0  0  0  0  0  0  0  0  0  0  0  0
   55.9650   27.6590   45.6150 C   0  0  0  0  0  0  0  0  0  0  0  0
   55.0640   26.6950   46.0470 O   0  0  0  0  0  0  0  0  0  0  0  0
   55.5880   28.8170   45.0430 N   0  0  0  0  0  0  0  0  0  0  0  0
   56.7420   29.4630   44.7780 C   0  0  0  0  0  0  0  0  0  0  0  0
   56.7950   30.7830   44.1220 C   0  0  0  0  0  0  0  0  0  0  0  0
   57.0380   30.8480   42.8890 O   0  0  0  0  0  0  0  0  0  0  0  0
   56.6580   32.0000   44.8710 N   0  0  0  0  0  0  0  0  0  0  0  0
   57.5500   32.5450   45.6540 C   0  0  0  0  0  0  0  0  0  0  0  0
   57.9510   33.8900   45.5170 C   0  0  0  0  0  0  0  0  0  0  0  0
   57.5075   34.5225   44.7339 H   0  0  0  0  0  0  0  0  0  0  0  0
   58.9140   34.4140   46.3810 C   0  0  0  0  0  0  0  0  0  0  0  0
   59.2263   35.4645   46.2864 H   0  0  0  0  0  0  0  0  0  0  0  0
   59.4790   33.6030   47.3640 C   0  0  0  0  0  0  0  0  0  0  0  0
   60.6920   34.2490   48.4550 Cl  0  0  0  0  0  0  0  0  0  0  0  0
   59.0760   32.2710   47.4650 C   0  0  0  0  0  0  0  0  0  0  0  0
   59.5191   31.6210   48.2339 H   0  0  0  0  0  0  0  0  0  0  0  0
   58.1360   31.7730   46.6150 N   0  0  0  0  0  0  0  0  0  0  0  0
   57.8550   30.7710   46.7170 H   0  0  0  0  0  0  0  0  0  0  0  0
   57.8380   28.7110   45.1720 C   0  0  0  0  0  0  0  0  0  0  0  0
   58.8983   28.9859   45.0710 H   0  0  0  0  0  0  0  0  0  0  0  0
  1  2  1  0
  2  3  2  0
  3  4  1  0
  3  5  1  0
  5  6  1  0
  6  7  1  0
  7  8  2  0
  7  9  1  0
  9 10  2  0
 10 11  1  0
 11 12  1  0
 11 13  2  0
 13 14  1  0
 13 15  1  0
 15 16  1  0
 15 17  2  0
 17 18  1  0
 17 19  1  0
 19 20  1  0
  6 21  2  0
 21 22  1  0
 21  2  1  0
 19 10  1  0
M  CHG  2   4  -1   5  -1
M  END
>  <UniqueID>  (63) 
57

>  <SMILES>  (63) 
O=C(/N=c1\ccc(Cl)c[nH]1)c1ccc([O-])[n-]1

>  <Energy>  (63) 
56.864172971012636

>  <Genealogy>  (63) 
O=C(N=c1ccc(Cl)c[nH]1)c1ccc([O-])[n-]1 (protonated)
O=C(/N=c1\ccc(Cl)c[nH]1)c1ccc([O-])[n-]1 (cis-trans isomerization)
O=C(/N=c1\ccc(Cl)c[nH]1)c1ccc([O-])[n-]1 (3D coordinates assigned)
O=C(/N=c1\ccc(Cl)c[nH]1)c1ccc([O-])[n-]1 (optimized conformer: 56.864172971012636 kcal/mol)

>  <smiles>  (63) 
O=C(N=c1ccc(Cl)c[nH]1)c1ccc(O)[nH]1

>  <score_type>  (63) 
oracle

>  <origin>  (63) 
adg

>  <m_score__min__energy>  (63) 
-12.130000000000001

>  <m_primary>  (63) 
energy

$$$$
63:0
     RDKit          3D

 51 53  0  0  0  0  0  0  0  0999 V2000
   56.5120   22.8400   43.5630 C   0  0  0  0  0  0  0  0  0  0  0  0
   57.7690   22.0770   43.9800 C   0  0  0  0  0  0  0  0  0  0  0  0
   57.5940   21.3370   45.3150 C   0  0  0  0  0  0  0  0  0  0  0  0
   56.8530   22.1780   46.3610 C   0  0  0  0  0  0  0  0  0  0  0  0
   57.7410   23.1160   46.9690 O   0  0  0  0  0  0  0  0  0  0  0  0
   58.0150   24.4080   46.4920 C   0  0  0  0  0  0  0  0  0  0  0  0
   59.3220   24.8610   46.2270 C   0  0  0  0  0  0  0  0  0  0  0  0
   59.5410   26.1590   45.7570 C   0  0  0  0  0  0  0  0  0  0  0  0
   58.4570   27.0280   45.5420 C   0  0  0  0  0  0  0  0  0  0  0  0
   58.6400   28.3490   45.0920 C   0  0  0  0  0  0  0  0  0  0  0  0
   59.7970   28.7850   44.8390 O   0  0  0  0  0  0  0  0  0  0  0  0
   57.5220   29.1890   44.9250 C   0  0  0  0  0  0  0  0  0  0  0  0
   57.6840   30.6100   44.5590 C   0  0  0  0  0  0  0  0  0  0  0  0
   58.5320   30.9220   43.6820 O   0  0  0  0  0  0  0  0  0  0  0  0
   56.8560   31.6360   45.1250 N   0  0  0  0  0  0  0  0  0  0  0  0
   57.2250   33.0420   45.2990 C   0  0  0  0  0  0  0  0  0  0  0  0
   58.5720   33.1840   45.9600 C   0  0  0  0  0  0  0  0  0  0  0  0
   59.1160   32.1200   46.6980 C   0  0  0  0  0  0  0  0  0  0  0  0
   60.4090   32.2140   47.2220 C   0  0  0  0  0  0  0  0  0  0  0  0
   61.1650   33.3790   47.0290 C   0  0  0  0  0  0  0  0  0  0  0  0
   62.8210   33.4760   47.6160 S   0  0  0  0  0  0  0  0  0  0  0  0
   62.8480   34.3470   49.1080 N   0  0  0  0  0  0  0  0  0  0  0  0
   63.3650   32.0920   47.8300 O   0  0  0  0  0  0  0  0  0  0  0  0
   63.6830   34.1840   46.6090 O   0  0  0  0  0  0  0  0  0  0  0  0
   60.6120   34.4540   46.3210 C   0  0  0  0  0  0  0  0  0  0  0  0
   59.3200   34.3610   45.8000 C   0  0  0  0  0  0  0  0  0  0  0  0
   56.2380   28.6770   45.1770 C   0  0  0  0  0  0  0  0  0  0  0  0
   55.1150   29.4850   45.0170 O   0  0  0  0  0  0  0  0  0  0  0  0
   56.0860   27.3970   45.6050 N   0  0  0  0  0  0  0  0  0  0  0  0
   57.1470   26.5700   45.8010 C   0  0  0  0  0  0  0  0  0  0  0  0
   56.9360   25.2700   46.2680 C   0  0  0  0  0  0  0  0  0  0  0  0
   55.9686   23.1699   44.4607 H   0  0  0  0  0  0  0  0  0  0  0  0
   56.7974   23.7174   42.9641 H   0  0  0  0  0  0  0  0  0  0  0  0
   55.8653   22.1819   42.9641 H   0  0  0  0  0  0  0  0  0  0  0  0
   58.0106   21.3417   43.1984 H   0  0  0  0  0  0  0  0  0  0  0  0
   58.5777   22.8114   44.1091 H   0  0  0  0  0  0  0  0  0  0  0  0
   57.0221   20.4148   45.1346 H   0  0  0  0  0  0  0  0  0  0  0  0
   58.5973   21.1205   45.7106 H   0  0  0  0  0  0  0  0  0  0  0  0
   56.0313   22.7219   45.8721 H   0  0  0  0  0  0  0  0  0  0  0  0
   56.4554   21.5091   47.1385 H   0  0  0  0  0  0  0  0  0  0  0  0
   60.1767   24.1883   46.3911 H   0  0  0  0  0  0  0  0  0  0  0  0
   60.5663   26.5022   45.5544 H   0  0  0  0  0  0  0  0  0  0  0  0
   57.2586   33.5271   44.3123 H   0  0  0  0  0  0  0  0  0  0  0  0
   56.4726   33.5179   45.9451 H   0  0  0  0  0  0  0  0  0  0  0  0
   58.5224   31.2090   46.8645 H   0  0  0  0  0  0  0  0  0  0  0  0
   60.8343   31.3716   47.7872 H   0  0  0  0  0  0  0  0  0  0  0  0
   61.9000   34.2470   49.5370 H   0  0  0  0  0  0  0  0  0  0  0  0
   61.1973   35.3739   46.1752 H   0  0  0  0  0  0  0  0  0  0  0  0
   58.8854   35.2156   45.2607 H   0  0  0  0  0  0  0  0  0  0  0  0
   55.1480   30.4720   45.2420 H   0  0  0  0  0  0  0  0  0  0  0  0
   55.9110   24.9208   46.4615 H   0  0  0  0  0  0  0  0  0  0  0  0
  1  2  1  0
  2  3  1  0
  3  4  1  0
  4  5  1  0
  5  6  1  0
  6  7  2  0
  7  8  1  0
  8  9  2  0
  9 10  1  0
 10 11  2  0
 10 12  1  0
 12 13  1  0
 13 14  2  0
 13 15  1  0
 15 16  1  0
 16 17  1  0
 17 18  2  0
 18 19  1  0
 19 20  2  0
 20 21  1  0
 21 22  1  0
 21 23  2  0
 21 24  2  0
 20 25  1  0
 25 26  2  0
 12 27  2  0
 27 28  1  0
 27 29  1  0
 29 30  1  0
 30 31  2  0
 31  6  1  0
 30  9  1  0
 26 17  1  0
  1 32  1  0
  1 33  1  0
  1 34  1  0
  2 35  1  0
  2 36  1  0
  3 37  1  0
  3 38  1  0
  4 39  1  0
  4 40  1  0
  7 41  1  0
  8 42  1  0
 16 43  1  0
 16 44  1  0
 18 45  1  0
 19 46  1  0
 22 47  1  0
 25 48  1  0
 26 49  1  0
 28 50  1  0
 31 51  1  0
M  CHG  3  15  -1  22  -1  29  -1
M  END
>  <UniqueID>  (64) 
58

>  <SMILES>  (64) 
CCCCOc1ccc2c(=O)c(C(=O)[N-]Cc3ccc(S([NH-])(=O)=O)cc3)c(O)[n-]c2c1

>  <Energy>  (64) 
53.86776149872403

>  <Genealogy>  (64) 
CCCCOc1ccc2c(=O)c(C(=O)[N-]Cc3ccc(S([NH-])(=O)=O)cc3)c(O)[n-]c2c1 (protonated)
CCCCOc1ccc2c(=O)c(C(=O)[N-]Cc3ccc(S([NH-])(=O)=O)cc3)c(O)[n-]c2c1 (3D coordinates assigned)
CCCCOc1ccc2c(=O)c(C(=O)[N-]Cc3ccc(S([NH-])(=O)=O)cc3)c(O)[n-]c2c1 (optimized conformer: 53.86776149872403 kcal/mol)

>  <smiles>  (64) 
CCCCOc1ccc2c(=O)c(C(=O)NCc3ccc(S(N)(=O)=O)cc3)c(O)[nH]c2c1

>  <score_type>  (64) 
oracle

>  <origin>  (64) 
adg

>  <m_score__min__energy>  (64) 
-13.630000000000001

>  <m_primary>  (64) 
energy

$$$$
64:0
     RDKit          3D

 38 40  0  0  0  0  0  0  0  0999 V2000
   57.0600   23.5400   45.5050 C   0  0  0  0  0  0  0  0  0  0  0  0
   56.7040   24.9840   45.6150 C   0  0  0  0  0  0  0  0  0  0  0  0
   57.5410   26.0490   45.3580 C   0  0  0  0  0  0  0  0  0  0  0  0
   56.7350   27.1450   45.6280 C   0  0  0  0  0  0  0  0  0  0  0  0
   57.0500   28.4070   45.5480 N   0  0  0  0  0  0  0  0  0  0  0  0
   56.3490   29.4650   44.8700 C   0  0  0  0  0  0  0  0  0  0  0  0
   55.1140   29.3740   44.6350 O   0  0  0  0  0  0  0  0  0  0  0  0
   57.0830   30.6830   44.4530 C   0  0  0  0  0  0  0  0  0  0  0  0
   57.1540   31.0460   43.0950 C   0  0  0  0  0  0  0  0  0  0  0  0
   57.8520   32.1910   42.7030 C   0  0  0  0  0  0  0  0  0  0  0  0
   58.4830   32.9910   43.6570 C   0  0  0  0  0  0  0  0  0  0  0  0
   58.4170   32.6490   45.0140 C   0  0  0  0  0  0  0  0  0  0  0  0
   59.2240   33.6460   46.2200 S   0  0  0  0  0  0  0  0  0  0  0  0
   58.8430   33.1760   47.5960 O   0  0  0  0  0  0  0  0  0  0  0  0
   58.8050   35.0750   46.0240 O   0  0  0  0  0  0  0  0  0  0  0  0
   60.9400   33.4930   46.0200 N   0  0  0  0  0  0  0  0  0  0  0  0
   61.8990   33.0760   47.0030 C   0  0  0  0  0  0  0  0  0  0  0  0
   63.0640   33.8450   47.1430 C   0  0  0  0  0  0  0  0  0  0  0  0
   64.0390   33.4980   48.0830 C   0  0  0  0  0  0  0  0  0  0  0  0
   63.8620   32.3760   48.8920 C   0  0  0  0  0  0  0  0  0  0  0  0
   62.7090   31.5980   48.7620 C   0  0  0  0  0  0  0  0  0  0  0  0
   61.7280   31.9370   47.8240 C   0  0  0  0  0  0  0  0  0  0  0  0
   60.6340   31.1450   47.7310 F   0  0  0  0  0  0  0  0  0  0  0  0
   57.7250   31.4960   45.4080 C   0  0  0  0  0  0  0  0  0  0  0  0
   55.5140   26.7350   46.0190 N   0  0  0  0  0  0  0  0  0  0  0  0
   55.5330   25.4340   46.0000 O   0  0  0  0  0  0  0  0  0  0  0  0
   57.1658   23.1107   46.5122 H   0  0  0  0  0  0  0  0  0  0  0  0
   56.2663   23.0071   44.9608 H   0  0  0  0  0  0  0  0  0  0  0  0
   58.0104   23.4371   44.9608 H   0  0  0  0  0  0  0  0  0  0  0  0
   58.5883   26.0334   45.0221 H   0  0  0  0  0  0  0  0  0  0  0  0
   56.6563   30.4236   42.3368 H   0  0  0  0  0  0  0  0  0  0  0  0
   57.9045   32.4631   41.6385 H   0  0  0  0  0  0  0  0  0  0  0  0
   59.0325   33.8907   43.3431 H   0  0  0  0  0  0  0  0  0  0  0  0
   63.2118   34.7300   46.5067 H   0  0  0  0  0  0  0  0  0  0  0  0
   64.9469   34.1108   48.1846 H   0  0  0  0  0  0  0  0  0  0  0  0
   64.6294   32.1039   49.6316 H   0  0  0  0  0  0  0  0  0  0  0  0
   62.5716   30.7133   49.4012 H   0  0  0  0  0  0  0  0  0  0  0  0
   57.6826   31.2231   46.4728 H   0  0  0  0  0  0  0  0  0  0  0  0
  1  2  1  0
  2  3  2  0
  3  4  1  0
  4  5  2  3
  5  6  1  0
  6  7  2  0
  6  8  1  0
  8  9  2  0
  9 10  1  0
 10 11  2  0
 11 12  1  0
 12 13  1  0
 13 14  2  0
 13 15  2  0
 13 16  1  0
 16 17  1  0
 17 18  2  0
 18 19  1  0
 19 20  2  0
 20 21  1  0
 21 22  2  0
 22 23  1  0
 12 24  2  0
  4 25  1  0
 25 26  1  0
 26  2  1  0
 24  8  1  0
 22 17  1  0
  1 27  1  0
  1 28  1  0
  1 29  1  0
  3 30  1  0
  9 31  1  0
 10 32  1  0
 11 33  1  0
 18 34  1  0
 19 35  1  0
 20 36  1  0
 21 37  1  0
 24 38  1  0
M  CHG  2  16  -1  25  -1
M  END
>  <UniqueID>  (65) 
59

>  <SMILES>  (65) 
Cc1cc(=NC(=O)c2cccc(S(=O)(=O)[N-]c3ccccc3F)c2)[n-]o1

>  <Energy>  (65) 
81.93134592701956

>  <Genealogy>  (65) 
Cc1cc(=NC(=O)c2cccc(S(=O)(=O)[N-]c3ccccc3F)c2)[n-]o1 (protonated)
Cc1cc(=NC(=O)c2cccc(S(=O)(=O)[N-]c3ccccc3F)c2)[n-]o1 (3D coordinates assigned)
Cc1cc(=NC(=O)c2cccc(S(=O)(=O)[N-]c3ccccc3F)c2)[n-]o1 (optimized conformer: 81.93134592701956 kcal/mol)

>  <smiles>  (65) 
Cc1cc(=NC(=O)c2cccc(S(=O)(=O)Nc3ccccc3F)c2)[nH]o1

>  <score_type>  (65) 
oracle

>  <origin>  (65) 
adg

>  <m_score__min__energy>  (65) 
-13.32

>  <m_primary>  (65) 
energy

$$$$
65:0
     RDKit          3D

 28 28  0  0  0  0  0  0  0  0999 V2000
   59.5350   31.4760   46.5320 O   0  0  0  0  0  0  0  0  0  0  0  0
   58.9760   30.5510   45.9630 C   0  0  0  0  0  0  0  0  0  0  0  0
   58.7890   29.2410   46.6870 C   0  0  0  0  0  0  0  0  0  0  0  0
   59.0420   28.0430   45.7630 C   0  0  0  0  0  0  0  0  0  0  0  0
   58.0690   26.9230   46.0300 C   0  0  0  0  0  0  0  0  0  0  0  0
   58.5230   25.6850   46.5120 C   0  0  0  0  0  0  0  0  0  0  0  0
   57.6130   24.6580   46.7830 C   0  0  0  0  0  0  0  0  0  0  0  0
   56.2430   24.8610   46.5880 C   0  0  0  0  0  0  0  0  0  0  0  0
   55.3520   23.8310   46.8650 O   0  0  0  0  0  0  0  0  0  0  0  0
   55.7770   26.1010   46.1170 C   0  0  0  0  0  0  0  0  0  0  0  0
   54.4170   26.3320   45.9200 O   0  0  0  0  0  0  0  0  0  0  0  0
   56.6920   27.1260   45.8420 C   0  0  0  0  0  0  0  0  0  0  0  0
   58.5000   30.7290   44.5490 C   0  0  0  0  0  0  0  0  0  0  0  0
   57.0130   30.9380   44.5280 C   0  0  0  0  0  0  0  0  0  0  0  0
   56.5400   32.0440   44.9050 O   0  0  0  0  0  0  0  0  0  0  0  0
   56.1010   29.8950   44.0300 C   0  0  0  0  0  0  0  0  0  0  0  0
   56.1820   29.4870   42.8400 O   0  0  0  0  0  0  0  0  0  0  0  0
   55.1410   29.3510   44.8740 O   0  0  0  0  0  0  0  0  0  0  0  0
   59.4934   29.1959   47.5307 H   0  0  0  0  0  0  0  0  0  0  0  0
   57.7485   29.1890   47.0401 H   0  0  0  0  0  0  0  0  0  0  0  0
   58.9338   28.3687   44.7179 H   0  0  0  0  0  0  0  0  0  0  0  0
   60.0588   27.6691   45.9538 H   0  0  0  0  0  0  0  0  0  0  0  0
   59.5983   25.5221   46.6771 H   0  0  0  0  0  0  0  0  0  0  0  0
   57.9762   23.6870   47.1509 H   0  0  0  0  0  0  0  0  0  0  0  0
   53.7040   25.7820   46.3870 H   0  0  0  0  0  0  0  0  0  0  0  0
   56.3289   28.0976   45.4759 H   0  0  0  0  0  0  0  0  0  0  0  0
   58.9968   31.6044   44.1052 H   0  0  0  0  0  0  0  0  0  0  0  0
   58.7451   29.8264   43.9701 H   0  0  0  0  0  0  0  0  0  0  0  0
  1  2  2  0
  2  3  1  0
  3  4  1  0
  4  5  1  0
  5  6  2  0
  6  7  1  0
  7  8  2  0
  8  9  1  0
  8 10  1  0
 10 11  1  0
 10 12  2  0
  2 13  1  0
 13 14  1  0
 14 15  2  0
 14 16  1  0
 16 17  2  0
 16 18  1  0
 12  5  1  0
  3 19  1  0
  3 20  1  0
  4 21  1  0
  4 22  1  0
  6 23  1  0
  7 24  1  0
 11 25  1  0
 12 26  1  0
 13 27  1  0
 13 28  1  0
M  CHG  2   9  -1  18  -1
M  END
>  <UniqueID>  (66) 
60

>  <SMILES>  (66) 
O=C(CCc1ccc([O-])c(O)c1)CC(=O)C(=O)[O-]

>  <Energy>  (66) 
18.367163487923165

>  <Genealogy>  (66) 
O=C(CCc1ccc([O-])c(O)c1)CC(=O)C(=O)[O-] (protonated)
O=C(CCc1ccc([O-])c(O)c1)CC(=O)C(=O)[O-] (3D coordinates assigned)
O=C(CCc1ccc([O-])c(O)c1)CC(=O)C(=O)[O-] (optimized conformer: 18.367163487923165 kcal/mol)

>  <smiles>  (66) 
O=C(CCc1ccc(O)c(O)c1)CC(=O)C(=O)O

>  <score_type>  (66) 
oracle

>  <origin>  (66) 
adg

>  <m_score__min__energy>  (66) 
-10.69

>  <m_primary>  (66) 
energy

$$$$
66:0
     RDKit          3D

 42 46  0  0  0  0  0  0  0  0999 V2000
   58.9605   28.2167   46.0808 H   0  0  0  0  0  0  0  0  0  0  0  0
   57.9100   28.2910   45.7630 C   0  0  0  0  0  0  0  0  0  0  0  0
   57.4520   29.5000   45.4030 C   0  0  0  0  0  0  0  0  0  0  0  0
   56.2510   29.8690   44.6330 C   0  0  0  0  0  0  0  0  0  0  0  0
   55.3830   29.0670   44.1990 O   0  0  0  0  0  0  0  0  0  0  0  0
   56.1160   31.2840   44.5110 N   0  0  0  0  0  0  0  0  0  0  0  0
   57.2320   31.7880   45.2370 C   0  0  0  0  0  0  0  0  0  0  0  0
   57.5320   33.1330   45.4360 C   0  0  0  0  0  0  0  0  0  0  0  0
   56.8926   33.9202   45.0100 H   0  0  0  0  0  0  0  0  0  0  0  0
   58.6680   33.4630   46.1920 C   0  0  0  0  0  0  0  0  0  0  0  0
   58.9177   34.5201   46.3660 H   0  0  0  0  0  0  0  0  0  0  0  0
   59.4960   32.4490   46.7330 C   0  0  0  0  0  0  0  0  0  0  0  0
   60.6820   32.8170   47.5350 C   0  0  0  0  0  0  0  0  0  0  0  0
   61.9900   32.9120   47.0630 C   0  0  0  0  0  0  0  0  0  0  0  0
   62.3009   32.7123   46.0269 H   0  0  0  0  0  0  0  0  0  0  0  0
   62.8220   33.2850   48.0620 N   0  0  0  0  0  0  0  0  0  0  0  0
   64.2680   33.4660   47.9600 C   0  0  0  0  0  0  0  0  0  0  0  0
   64.7028   33.5204   48.9690 H   0  0  0  0  0  0  0  0  0  0  0  0
   64.7066   32.6157   47.4171 H   0  0  0  0  0  0  0  0  0  0  0  0
   64.4835   34.3981   47.4171 H   0  0  0  0  0  0  0  0  0  0  0  0
   62.0620   33.4090   49.1680 C   0  0  0  0  0  0  0  0  0  0  0  0
   62.4790   33.7390   50.4610 C   0  0  0  0  0  0  0  0  0  0  0  0
   63.5336   33.9668   50.6753 H   0  0  0  0  0  0  0  0  0  0  0  0
   61.5100   33.7710   51.4790 C   0  0  0  0  0  0  0  0  0  0  0  0
   61.8032   34.0383   52.5049 H   0  0  0  0  0  0  0  0  0  0  0  0
   60.1630   33.4620   51.1920 C   0  0  0  0  0  0  0  0  0  0  0  0
   59.4148   33.4827   51.9981 H   0  0  0  0  0  0  0  0  0  0  0  0
   59.7700   33.1280   49.8840 C   0  0  0  0  0  0  0  0  0  0  0  0
   58.7248   32.8735   49.6540 H   0  0  0  0  0  0  0  0  0  0  0  0
   60.7470   33.1290   48.8850 C   0  0  0  0  0  0  0  0  0  0  0  0
   59.1580   31.0940   46.5310 C   0  0  0  0  0  0  0  0  0  0  0  0
   59.7766   30.2916   46.9594 H   0  0  0  0  0  0  0  0  0  0  0  0
   58.0220   30.7920   45.7760 C   0  0  0  0  0  0  0  0  0  0  0  0
   57.1070   27.0570   45.7630 C   0  0  0  0  0  0  0  0  0  0  0  0
   57.5930   25.7610   45.7630 C   0  0  0  0  0  0  0  0  0  0  0  0
   58.6446   25.4503   45.6761 H   0  0  0  0  0  0  0  0  0  0  0  0
   56.4930   24.9360   45.8940 C   0  0  0  0  0  0  0  0  0  0  0  0
   56.4956   23.8363   45.9179 H   0  0  0  0  0  0  0  0  0  0  0  0
   55.3900   25.7600   45.9890 C   0  0  0  0  0  0  0  0  0  0  0  0
   54.3519   25.4141   46.1014 H   0  0  0  0  0  0  0  0  0  0  0  0
   55.7710   27.0480   45.9240 N   0  0  0  0  0  0  0  0  0  0  0  0
   55.1460   27.8820   45.9970 H   0  0  0  0  0  0  0  0  0  0  0  0
  1  2  1  0
  2  3  2  0
  3  4  1  0
  4  5  2  0
  4  6  1  0
  6  7  1  0
  7  8  2  0
  8  9  1  0
  8 10  1  0
 10 11  1  0
 10 12  2  0
 12 13  1  0
 13 14  2  0
 14 15  1  0
 14 16  1  0
 16 17  1  0
 17 18  1  0
 17 19  1  0
 17 20  1  0
 16 21  1  0
 21 22  2  0
 22 23  1  0
 22 24  1  0
 24 25  1  0
 24 26  2  0
 26 27  1  0
 26 28  1  0
 28 29  1  0
 28 30  2  0
 12 31  1  0
 31 32  1  0
 31 33  2  0
  2 34  1  0
 34 35  2  0
 35 36  1  0
 35 37  1  0
 37 38  1  0
 37 39  2  0
 39 40  1  0
 39 41  1  0
 41 42  1  0
 33  3  1  0
 41 34  1  0
 33  7  1  0
 30 13  1  0
 30 21  1  0
M  CHG  1   6  -1
M  END
>  <UniqueID>  (67) 
61

>  <SMILES>  (67) 
Cn1cc(-c2ccc3c(c2)/C(=C/c2ccc[nH]2)C(=O)[N-]3)c2ccccc21

>  <Energy>  (67) 
145.57264785439412

>  <Genealogy>  (67) 
Cn1cc(-c2ccc3c(c2)C(=Cc2ccc[nH]2)C(=O)[N-]3)c2ccccc21 (protonated)
Cn1cc(-c2ccc3c(c2)/C(=C/c2ccc[nH]2)C(=O)[N-]3)c2ccccc21 (cis-trans isomerization)
Cn1cc(-c2ccc3c(c2)/C(=C/c2ccc[nH]2)C(=O)[N-]3)c2ccccc21 (3D coordinates assigned)
Cn1cc(-c2ccc3c(c2)/C(=C/c2ccc[nH]2)C(=O)[N-]3)c2ccccc21 (nonaromatic ring conformer: 145.57264785439412 kcal/mol)

>  <smiles>  (67) 
Cn1cc(-c2ccc3c(c2)C(=Cc2ccc[nH]2)C(=O)N3)c2ccccc21

>  <score_type>  (67) 
oracle

>  <origin>  (67) 
adg

>  <m_score__min__energy>  (67) 
-10.41

>  <m_primary>  (67) 
energy

$$$$
67:0
     RDKit          3D

 46 47  0  0  0  0  0  0  0  0999 V2000
   58.9760   32.6610   49.4790 C   0  0  0  0  0  0  0  0  0  0  0  0
   58.8030   33.2160   48.1020 C   0  0  0  0  0  0  0  0  0  0  0  0
   59.4820   34.3740   47.7120 C   0  0  0  0  0  0  0  0  0  0  0  0
   59.2860   34.8600   46.4160 C   0  0  0  0  0  0  0  0  0  0  0  0
   59.9970   36.0910   45.9540 C   0  0  0  0  0  0  0  0  0  0  0  0
   58.4420   34.2060   45.5730 N   0  0  0  0  0  0  0  0  0  0  0  0
   57.7780   33.0880   45.9660 C   0  0  0  0  0  0  0  0  0  0  0  0
   56.9810   32.4940   45.1260 N   0  0  0  0  0  0  0  0  0  0  0  0
   57.2980   31.3480   44.3170 C   0  0  0  0  0  0  0  0  0  0  0  0
   57.0540   31.4020   43.0820 O   0  0  0  0  0  0  0  0  0  0  0  0
   57.8440   30.0960   44.8930 C   0  0  0  0  0  0  0  0  0  0  0  0
   59.1050   30.0950   45.5130 C   0  0  0  0  0  0  0  0  0  0  0  0
   59.6270   28.9160   46.0500 C   0  0  0  0  0  0  0  0  0  0  0  0
   58.8950   27.7280   45.9810 C   0  0  0  0  0  0  0  0  0  0  0  0
   57.6320   27.7090   45.3750 C   0  0  0  0  0  0  0  0  0  0  0  0
   56.8950   26.4770   45.3120 N   0  0  0  0  0  0  0  0  0  0  0  0
   57.1720   25.3410   46.1520 C   0  0  0  0  0  0  0  0  0  0  0  0
   58.2600   25.2940   46.7920 O   0  0  0  0  0  0  0  0  0  0  0  0
   56.1890   24.1780   46.2330 C   0  0  0  0  0  0  0  0  0  0  0  0
   56.7450   22.9910   45.4200 C   0  0  0  0  0  0  0  0  0  0  0  0
   56.0140   23.7520   47.7050 C   0  0  0  0  0  0  0  0  0  0  0  0
   54.8070   24.5640   45.6410 C   0  0  0  0  0  0  0  0  0  0  0  0
   54.5180   25.9170   45.8800 O   0  0  0  0  0  0  0  0  0  0  0  0
   57.1280   28.8890   44.7990 C   0  0  0  0  0  0  0  0  0  0  0  0
   57.9750   32.5960   47.2210 N   0  0  0  0  0  0  0  0  0  0  0  0
   58.7341   33.4370   50.2202 H   0  0  0  0  0  0  0  0  0  0  0  0
   58.3032   31.8015   49.6151 H   0  0  0  0  0  0  0  0  0  0  0  0
   60.0181   32.3361   49.6151 H   0  0  0  0  0  0  0  0  0  0  0  0
   60.1562   34.8918   48.4101 H   0  0  0  0  0  0  0  0  0  0  0  0
   60.3317   36.6705   46.8270 H   0  0  0  0  0  0  0  0  0  0  0  0
   60.8690   35.8050   45.3475 H   0  0  0  0  0  0  0  0  0  0  0  0
   59.3135   36.7034   45.3475 H   0  0  0  0  0  0  0  0  0  0  0  0
   59.6843   31.0280   45.5758 H   0  0  0  0  0  0  0  0  0  0  0  0
   60.6174   28.9229   46.5287 H   0  0  0  0  0  0  0  0  0  0  0  0
   59.3125   26.8027   46.4047 H   0  0  0  0  0  0  0  0  0  0  0  0
   56.1840   26.3760   44.5540 H   0  0  0  0  0  0  0  0  0  0  0  0
   57.1090   22.2138   46.1081 H   0  0  0  0  0  0  0  0  0  0  0  0
   55.9479   22.5754   44.7861 H   0  0  0  0  0  0  0  0  0  0  0  0
   57.5746   23.3373   44.7861 H   0  0  0  0  0  0  0  0  0  0  0  0
   56.3485   24.5663   48.3646 H   0  0  0  0  0  0  0  0  0  0  0  0
   54.9536   23.5342   47.9001 H   0  0  0  0  0  0  0  0  0  0  0  0
   56.6151   22.8517   47.9001 H   0  0  0  0  0  0  0  0  0  0  0  0
   54.8176   24.3846   44.5558 H   0  0  0  0  0  0  0  0  0  0  0  0
   54.0339   23.9494   46.1254 H   0  0  0  0  0  0  0  0  0  0  0  0
   53.6540   25.9340   46.3660 H   0  0  0  0  0  0  0  0  0  0  0  0
   56.1640   28.8677   44.2696 H   0  0  0  0  0  0  0  0  0  0  0  0
  1  2  1  0
  2  3  1  0
  3  4  2  0
  4  5  1  0
  4  6  1  0
  6  7  1  0
  7  8  2  3
  8  9  1  0
  9 10  2  0
  9 11  1  0
 11 12  2  0
 12 13  1  0
 13 14  2  0
 14 15  1  0
 15 16  1  0
 16 17  1  0
 17 18  2  0
 17 19  1  0
 19 20  1  0
 19 21  1  0
 19 22  1  0
 22 23  1  0
 15 24  2  0
  7 25  1  0
 25  2  2  0
 24 11  1  0
  1 26  1  0
  1 27  1  0
  1 28  1  0
  3 29  1  0
  5 30  1  0
  5 31  1  0
  5 32  1  0
 12 33  1  0
 13 34  1  0
 14 35  1  0
 16 36  1  0
 20 37  1  0
 20 38  1  0
 20 39  1  0
 21 40  1  0
 21 41  1  0
 21 42  1  0
 22 43  1  0
 22 44  1  0
 23 45  1  0
 24 46  1  0
M  CHG  1   6  -1
M  END
>  <UniqueID>  (68) 
62

>  <SMILES>  (68) 
Cc1cc(C)[n-]c(=NC(=O)c2cccc(NC(=O)C(C)(C)CO)c2)n1

>  <Energy>  (68) 
50.94637454413197

>  <Genealogy>  (68) 
Cc1cc(C)[n-]c(=NC(=O)c2cccc(NC(=O)C(C)(C)CO)c2)n1 (protonated)
Cc1cc(C)[n-]c(=NC(=O)c2cccc(NC(=O)C(C)(C)CO)c2)n1 (3D coordinates assigned)
Cc1cc(C)[n-]c(=NC(=O)c2cccc(NC(=O)C(C)(C)CO)c2)n1 (optimized conformer: 50.94637454413197 kcal/mol)

>  <smiles>  (68) 
Cc1cc(C)[nH]c(=NC(=O)c2cccc(NC(=O)C(C)(C)CO)c2)n1

>  <score_type>  (68) 
oracle

>  <origin>  (68) 
adg

>  <m_score__min__energy>  (68) 
-9.5700000000000003

>  <m_primary>  (68) 
energy

$$$$
68:0
     RDKit          3D

 47 49  0  0  0  0  0  0  0  0999 V2000
   56.6900   30.6350   43.3740 C   0  0  0  0  0  0  0  0  0  0  0  0
   57.4060   31.9390   43.0470 C   0  0  0  0  0  0  0  0  0  0  0  0
   58.1080   32.4380   44.2250 N   0  0  0  0  0  0  0  0  0  0  0  0
   58.2000   31.8110   45.4140 C   0  0  0  0  0  0  0  0  0  0  0  0
   58.8980   32.6310   46.2740 C   0  0  0  0  0  0  0  0  0  0  0  0
   59.2670   32.3420   47.6990 C   0  0  0  0  0  0  0  0  0  0  0  0
   59.6890   30.9350   47.8450 N   0  0  0  0  0  0  0  0  0  0  0  0
   60.6880   30.5390   46.8150 C   0  0  0  0  0  0  0  0  0  0  0  0
   60.0790   29.7000   45.6850 C   0  0  0  0  0  0  0  0  0  0  0  0
   59.4690   28.3930   46.2380 C   0  0  0  0  0  0  0  0  0  0  0  0
   58.4260   27.8570   45.2780 C   0  0  0  0  0  0  0  0  0  0  0  0
   58.3890   28.3150   44.1030 O   0  0  0  0  0  0  0  0  0  0  0  0
   57.4700   26.7860   45.6680 C   0  0  0  0  0  0  0  0  0  0  0  0
   57.9300   25.5190   46.0720 C   0  0  0  0  0  0  0  0  0  0  0  0
   57.0250   24.5180   46.4230 C   0  0  0  0  0  0  0  0  0  0  0  0
   55.6560   24.7840   46.3660 C   0  0  0  0  0  0  0  0  0  0  0  0
   54.8240   23.8920   46.6780 O   0  0  0  0  0  0  0  0  0  0  0  0
   55.2180   26.0080   45.9740 N   0  0  0  0  0  0  0  0  0  0  0  0
   56.0770   27.0040   45.6270 C   0  0  0  0  0  0  0  0  0  0  0  0
   55.5580   28.2380   45.2490 O   0  0  0  0  0  0  0  0  0  0  0  0
   58.8830   28.5810   47.6610 C   0  0  0  0  0  0  0  0  0  0  0  0
   58.5060   30.0440   47.9220 C   0  0  0  0  0  0  0  0  0  0  0  0
   59.1880   33.7630   45.5320 C   0  0  0  0  0  0  0  0  0  0  0  0
   59.9790   34.9470   45.9890 C   0  0  0  0  0  0  0  0  0  0  0  0
   58.6990   33.6220   44.2840 N   0  0  0  0  0  0  0  0  0  0  0  0
   56.6248   30.5163   44.4656 H   0  0  0  0  0  0  0  0  0  0  0  0
   55.6768   30.6558   42.9463 H   0  0  0  0  0  0  0  0  0  0  0  0
   57.2513   29.7912   42.9463 H   0  0  0  0  0  0  0  0  0  0  0  0
   58.1316   31.7624   42.2394 H   0  0  0  0  0  0  0  0  0  0  0  0
   56.6637   32.6858   42.7286 H   0  0  0  0  0  0  0  0  0  0  0  0
   57.7901   30.8192   45.6557 H   0  0  0  0  0  0  0  0  0  0  0  0
   60.0940   33.0018   48.0004 H   0  0  0  0  0  0  0  0  0  0  0  0
   58.3898   32.5201   48.3384 H   0  0  0  0  0  0  0  0  0  0  0  0
   61.1237   31.4505   46.3798 H   0  0  0  0  0  0  0  0  0  0  0  0
   61.4483   29.9196   47.3133 H   0  0  0  0  0  0  0  0  0  0  0  0
   59.2903   30.2836   45.1876 H   0  0  0  0  0  0  0  0  0  0  0  0
   60.8742   29.4424   44.9700 H   0  0  0  0  0  0  0  0  0  0  0  0
   60.2782   27.6532   46.3267 H   0  0  0  0  0  0  0  0  0  0  0  0
   59.0106   25.3169   46.1112 H   0  0  0  0  0  0  0  0  0  0  0  0
   57.3862   23.5290   46.7415 H   0  0  0  0  0  0  0  0  0  0  0  0
   57.9836   27.9560   47.7631 H   0  0  0  0  0  0  0  0  0  0  0  0
   59.6492   28.2851   48.3928 H   0  0  0  0  0  0  0  0  0  0  0  0
   57.7697   30.3625   47.1694 H   0  0  0  0  0  0  0  0  0  0  0  0
   58.0871   30.1155   48.9366 H   0  0  0  0  0  0  0  0  0  0  0  0
   59.9969   34.9738   47.0885 H   0  0  0  0  0  0  0  0  0  0  0  0
   61.0078   34.8701   45.6073 H   0  0  0  0  0  0  0  0  0  0  0  0
   59.5142   35.8680   45.6073 H   0  0  0  0  0  0  0  0  0  0  0  0
  1  2  1  0
  2  3  1  0
  3  4  1  0
  4  5  2  0
  5  6  1  0
  6  7  1  0
  7  8  1  0
  8  9  1  0
  9 10  1  0
 10 11  1  0
 11 12  2  0
 11 13  1  0
 13 14  1  0
 14 15  2  0
 15 16  1  0
 16 17  2  0
 16 18  1  0
 18 19  1  0
 19 20  1  0
 10 21  1  0
 21 22  1  0
  5 23  1  0
 23 24  1  0
 23 25  2  0
 25  3  1  0
 22  7  1  0
 19 13  2  0
  1 26  1  0
  1 27  1  0
  1 28  1  0
  2 29  1  0
  2 30  1  0
  4 31  1  0
  6 32  1  0
  6 33  1  0
  8 34  1  0
  8 35  1  0
  9 36  1  0
  9 37  1  0
 10 38  1  0
 14 39  1  0
 15 40  1  0
 21 41  1  0
 21 42  1  0
 22 43  1  0
 22 44  1  0
 24 45  1  0
 24 46  1  0
 24 47  1  0
M  CHG  2  18  -1  20  -1
M  END
>  <UniqueID>  (69) 
63

>  <SMILES>  (69) 
CCn1cc(CN2CCC(C(=O)c3ccc(=O)[n-]c3[O-])CC2)c(C)n1

>  <Energy>  (69) 
85.02015293270765

>  <Genealogy>  (69) 
CCn1cc(CN2CCC(C(=O)c3ccc(=O)[n-]c3[O-])CC2)c(C)n1 (protonated)
CCn1cc(CN2CCC(C(=O)c3ccc(=O)[n-]c3[O-])CC2)c(C)n1 (3D coordinates assigned)
CCn1cc(CN2CCC(C(=O)c3ccc(=O)[n-]c3[O-])CC2)c(C)n1 (nonaromatic ring conformer: 85.02015293270765 kcal/mol)

>  <smiles>  (69) 
CCn1cc(CN2CCC(C(=O)c3ccc(=O)[nH]c3O)CC2)c(C)n1

>  <score_type>  (69) 
oracle

>  <origin>  (69) 
adg

>  <m_score__min__energy>  (69) 
-14.09

>  <m_primary>  (69) 
energy

$$$$
69:0
     RDKit          3D

 32 33  0  0  0  0  0  0  0  0999 V2000
   58.9600   27.5580   47.5310 O   0  0  0  0  0  0  0  0  0  0  0  0
   58.4510   27.9790   46.4600 C   0  0  0  0  0  0  0  0  0  0  0  0
   58.7640   27.2680   45.2050 C   0  0  0  0  0  0  0  0  0  0  0  0
   57.8250   26.6890   44.4470 C   0  0  0  0  0  0  0  0  0  0  0  0
   57.0920   25.4750   44.8660 C   0  0  0  0  0  0  0  0  0  0  0  0
   57.6450   24.2240   44.5460 C   0  0  0  0  0  0  0  0  0  0  0  0
   56.9910   23.0450   44.9120 C   0  0  0  0  0  0  0  0  0  0  0  0
   55.7860   23.1020   45.6130 C   0  0  0  0  0  0  0  0  0  0  0  0
   55.2360   24.3380   45.9600 C   0  0  0  0  0  0  0  0  0  0  0  0
   55.8880   25.5290   45.6030 C   0  0  0  0  0  0  0  0  0  0  0  0
   55.3540   26.7530   46.0040 O   0  0  0  0  0  0  0  0  0  0  0  0
   57.5790   29.1200   46.5150 N   0  0  0  0  0  0  0  0  0  0  0  0
   57.7610   30.3570   45.8090 C   0  0  0  0  0  0  0  0  0  0  0  0
   58.6460   31.2960   46.3560 C   0  0  0  0  0  0  0  0  0  0  0  0
   58.9570   32.4670   45.6630 C   0  0  0  0  0  0  0  0  0  0  0  0
   58.3780   32.7160   44.4190 C   0  0  0  0  0  0  0  0  0  0  0  0
   57.4630   31.8110   43.8790 C   0  0  0  0  0  0  0  0  0  0  0  0
   57.1200   30.6370   44.5730 C   0  0  0  0  0  0  0  0  0  0  0  0
   56.0550   29.7730   44.0120 C   0  0  0  0  0  0  0  0  0  0  0  0
   55.9490   29.6090   42.7670 O   0  0  0  0  0  0  0  0  0  0  0  0
   55.1920   29.0900   44.8580 O   0  0  0  0  0  0  0  0  0  0  0  0
   59.8130   27.2116   44.8789 H   0  0  0  0  0  0  0  0  0  0  0  0
   57.5883   27.1356   43.4700 H   0  0  0  0  0  0  0  0  0  0  0  0
   58.6003   24.1723   44.0031 H   0  0  0  0  0  0  0  0  0  0  0  0
   57.4267   22.0703   44.6471 H   0  0  0  0  0  0  0  0  0  0  0  0
   55.2686   22.1724   45.8927 H   0  0  0  0  0  0  0  0  0  0  0  0
   54.2875   24.3785   46.5156 H   0  0  0  0  0  0  0  0  0  0  0  0
   55.1420   27.4870   45.3370 H   0  0  0  0  0  0  0  0  0  0  0  0
   59.0996   31.1085   47.3404 H   0  0  0  0  0  0  0  0  0  0  0  0
   59.6589   33.1936   46.0982 H   0  0  0  0  0  0  0  0  0  0  0  0
   58.6429   33.6271   43.8625 H   0  0  0  0  0  0  0  0  0  0  0  0
   57.0054   32.0182   42.9004 H   0  0  0  0  0  0  0  0  0  0  0  0
  1  2  2  0
  2  3  1  0
  3  4  2  3
  4  5  1  0
  5  6  2  0
  6  7  1  0
  7  8  2  0
  8  9  1  0
  9 10  2  0
 10 11  1  0
  2 12  1  0
 12 13  1  0
 13 14  2  0
 14 15  1  0
 15 16  2  0
 16 17  1  0
 17 18  2  0
 18 19  1  0
 19 20  2  0
 19 21  1  0
 10  5  1  0
 18 13  1  0
  3 22  1  0
  4 23  1  0
  6 24  1  0
  7 25  1  0
  8 26  1  0
  9 27  1  0
 11 28  1  0
 14 29  1  0
 15 30  1  0
 16 31  1  0
 17 32  1  0
M  CHG  2  12  -1  21  -1
M  END
>  <UniqueID>  (70) 
64

>  <SMILES>  (70) 
O=C(C=Cc1ccccc1O)[N-]c1ccccc1C(=O)[O-]

>  <Energy>  (70) 
48.65661639523553

>  <Genealogy>  (70) 
O=C(C=Cc1ccccc1O)[N-]c1ccccc1C(=O)[O-] (protonated)
O=C(C=Cc1ccccc1O)[N-]c1ccccc1C(=O)[O-] (3D coordinates assigned)
O=C(C=Cc1ccccc1O)[N-]c1ccccc1C(=O)[O-] (optimized conformer: 48.65661639523553 kcal/mol)

>  <smiles>  (70) 
O=C(C=Cc1ccccc1O)Nc1ccccc1C(=O)O

>  <score_type>  (70) 
oracle

>  <origin>  (70) 
adg

>  <m_score__min__energy>  (70) 
-12.550000000000001

>  <m_primary>  (70) 
energy

$$$$
70:0
     RDKit          3D

 59 61  0  0  0  0  0  0  0  0999 V2000
   60.6790   26.9440   46.0210 C   0  0  0  0  0  0  0  0  0  0  0  0
   59.4550   27.8370   46.2720 C   0  0  2  0  0  0  0  0  0  0  0  0
   59.3180   28.8660   45.1820 C   0  0  0  0  0  0  0  0  0  0  0  0
   60.3290   29.1710   44.4900 O   0  0  0  0  0  0  0  0  0  0  0  0
   58.0650   29.5230   44.9440 N   0  0  0  0  0  0  0  0  0  0  0  0
   57.9730   30.7680   44.1840 C   0  0  0  0  0  0  0  0  0  0  0  0
   58.1920   31.9500   45.0930 C   0  0  0  0  0  0  0  0  0  0  0  0
   57.2170   32.9520   45.2120 C   0  0  0  0  0  0  0  0  0  0  0  0
   57.4480   34.0630   46.0230 C   0  0  0  0  0  0  0  0  0  0  0  0
   58.6550   34.1940   46.7160 C   0  0  0  0  0  0  0  0  0  0  0  0
   58.8510   35.2800   47.5040 F   0  0  0  0  0  0  0  0  0  0  0  0
   59.6410   33.1950   46.6130 C   0  0  0  0  0  0  0  0  0  0  0  0
   60.9080   33.3370   47.2820 N   0  0  0  0  0  0  0  0  0  0  0  0
   60.9590   33.1740   48.7470 C   0  0  0  0  0  0  0  0  0  0  0  0
   62.2440   32.4880   49.2380 C   0  0  0  0  0  0  0  0  0  0  0  0
   63.4720   33.4210   49.2430 C   0  0  0  0  0  0  0  0  0  0  0  0
   64.1310   33.5310   47.9310 N   0  0  0  0  0  0  0  0  0  0  0  0
   63.3410   32.9300   46.8470 C   0  0  0  0  0  0  0  0  0  0  0  0
   62.0880   33.7690   46.5140 C   0  0  0  0  0  0  0  0  0  0  0  0
   59.3920   32.0680   45.8130 C   0  0  0  0  0  0  0  0  0  0  0  0
   59.4440   28.5010   47.6390 C   0  0  0  0  0  0  0  0  0  0  0  0
   60.0820   27.9320   48.7580 C   0  0  0  0  0  0  0  0  0  0  0  0
   60.0890   28.5990   49.9870 C   0  0  0  0  0  0  0  0  0  0  0  0
   59.4750   29.8560   50.1180 C   0  0  0  0  0  0  0  0  0  0  0  0
   59.4700   30.5790   51.3560 N   0  0  0  0  0  0  0  0  0  0  0  0
   58.0640   31.0650   52.2470 S   0  0  0  0  0  0  0  0  0  0  0  0
   57.8270   32.8230   52.1030 C   0  0  0  0  0  0  0  0  0  0  0  0
   58.2050   30.6710   53.6900 O   0  0  0  0  0  0  0  0  0  0  0  0
   56.8640   30.3720   51.6710 O   0  0  0  0  0  0  0  0  0  0  0  0
   58.8520   30.4300   49.0030 C   0  0  0  0  0  0  0  0  0  0  0  0
   58.2570   31.6460   49.1080 F   0  0  0  0  0  0  0  0  0  0  0  0
   58.8390   29.7630   47.7770 C   0  0  0  0  0  0  0  0  0  0  0  0
   61.1082   26.6309   46.9842 H   0  0  0  0  0  0  0  0  0  0  0  0
   60.3734   26.0552   45.4495 H   0  0  0  0  0  0  0  0  0  0  0  0
   61.4321   27.5063   45.4495 H   0  0  0  0  0  0  0  0  0  0  0  0
   58.5841   27.1651   46.2572 H   0  0  0  0  0  0  0  0  0  0  0  0
   57.1990   29.1610   45.4010 H   0  0  0  0  0  0  0  0  0  0  0  0
   58.7394   30.7695   43.3949 H   0  0  0  0  0  0  0  0  0  0  0  0
   56.9715   30.8412   43.7349 H   0  0  0  0  0  0  0  0  0  0  0  0
   56.2676   32.8610   44.6640 H   0  0  0  0  0  0  0  0  0  0  0  0
   56.6759   34.8407   46.1179 H   0  0  0  0  0  0  0  0  0  0  0  0
   60.8951   34.1691   49.2115 H   0  0  0  0  0  0  0  0  0  0  0  0
   60.1154   32.5284   49.0326 H   0  0  0  0  0  0  0  0  0  0  0  0
   62.0765   32.1264   50.2633 H   0  0  0  0  0  0  0  0  0  0  0  0
   62.4620   31.6675   48.5386 H   0  0  0  0  0  0  0  0  0  0  0  0
   63.1457   34.4244   49.5540 H   0  0  0  0  0  0  0  0  0  0  0  0
   64.2055   32.9868   49.9383 H   0  0  0  0  0  0  0  0  0  0  0  0
   65.0370   33.0100   47.9940 H   0  0  0  0  0  0  0  0  0  0  0  0
   63.9695   32.8570   45.9472 H   0  0  0  0  0  0  0  0  0  0  0  0
   63.0072   31.9359   47.1793 H   0  0  0  0  0  0  0  0  0  0  0  0
   62.2958   34.8237   46.7475 H   0  0  0  0  0  0  0  0  0  0  0  0
   61.8641   33.6316   45.4458 H   0  0  0  0  0  0  0  0  0  0  0  0
   60.1452   31.2688   45.7496 H   0  0  0  0  0  0  0  0  0  0  0  0
   60.5788   26.9550   48.6646 H   0  0  0  0  0  0  0  0  0  0  0  0
   60.5784   28.1366   50.8569 H   0  0  0  0  0  0  0  0  0  0  0  0
   57.7670   33.2683   53.1070 H   0  0  0  0  0  0  0  0  0  0  0  0
   58.6739   33.2636   51.5565 H   0  0  0  0  0  0  0  0  0  0  0  0
   56.8937   33.0236   51.5565 H   0  0  0  0  0  0  0  0  0  0  0  0
   58.3501   30.2296   46.9091 H   0  0  0  0  0  0  0  0  0  0  0  0
  1  2  1  0
  2  3  1  0
  3  4  2  0
  3  5  1  0
  5  6  1  0
  6  7  1  0
  7  8  2  0
  8  9  1  0
  9 10  2  0
 10 11  1  0
 10 12  1  0
 12 13  1  0
 13 14  1  0
 14 15  1  0
 15 16  1  0
 16 17  1  0
 17 18  1  0
 18 19  1  0
 12 20  2  0
  2 21  1  0
 21 22  2  0
 22 23  1  0
 23 24  2  0
 24 25  1  0
 25 26  1  0
 26 27  1  0
 26 28  2  0
 26 29  2  0
 24 30  1  0
 30 31  1  0
 30 32  2  0
 20  7  1  0
 32 21  1  0
 19 13  1  0
  1 33  1  0
  1 34  1  0
  1 35  1  0
  2 36  1  1
  5 37  1  0
  6 38  1  0
  6 39  1  0
  8 40  1  0
  9 41  1  0
 14 42  1  0
 14 43  1  0
 15 44  1  0
 15 45  1  0
 16 46  1  0
 16 47  1  0
 17 48  1  0
 18 49  1  0
 18 50  1  0
 19 51  1  0
 19 52  1  0
 20 53  1  0
 22 54  1  0
 23 55  1  0
 27 56  1  0
 27 57  1  0
 27 58  1  0
 32 59  1  0
M  CHG  1  25  -1
M  END
>  <UniqueID>  (71) 
65

>  <SMILES>  (71) 
C[C@H](C(=O)NCc1ccc(F)c(N2CCCNCC2)c1)c1ccc([N-]S(C)(=O)=O)c(F)c1

>  <Energy>  (71) 
64.9947788463654

>  <Genealogy>  (71) 
CC(C(=O)NCc1ccc(F)c(N2CCCNCC2)c1)c1ccc([N-]S(C)(=O)=O)c(F)c1 (protonated)
C[C@H](C(=O)NCc1ccc(F)c(N2CCCNCC2)c1)c1ccc([N-]S(C)(=O)=O)c(F)c1 (chirality)
C[C@H](C(=O)NCc1ccc(F)c(N2CCCNCC2)c1)c1ccc([N-]S(C)(=O)=O)c(F)c1 (3D coordinates assigned)
C[C@H](C(=O)NCc1ccc(F)c(N2CCCNCC2)c1)c1ccc([N-]S(C)(=O)=O)c(F)c1 (nonaromatic ring conformer: 64.9947788463654 kcal/mol)

>  <smiles>  (71) 
CC(C(=O)NCc1ccc(F)c(N2CCCNCC2)c1)c1ccc(NS(C)(=O)=O)c(F)c1

>  <score_type>  (71) 
oracle

>  <origin>  (71) 
adg

>  <m_score__min__energy>  (71) 
-8.5600000000000005

>  <m_primary>  (71) 
energy

$$$$
71:0
     RDKit          3D

 48 51  0  0  0  0  0  0  0  0999 V2000
   56.7840   23.5660   42.0050 H   0  0  0  0  0  0  0  0  0  0  0  0
   57.0210   23.5570   43.0190 N   0  0  0  0  0  0  0  0  0  0  0  0
   56.3170   24.0960   43.9730 C   0  0  0  0  0  0  0  0  0  0  0  0
   54.9950   23.6620   44.1270 C   0  0  0  0  0  0  0  0  0  0  0  0
   54.5858   22.8997   43.4477 H   0  0  0  0  0  0  0  0  0  0  0  0
   54.1930   24.1940   45.1410 C   0  0  0  0  0  0  0  0  0  0  0  0
   52.7750   23.7470   45.2960 C   0  0  0  0  0  0  0  0  0  0  0  0
   52.5297   23.6697   46.3655 H   0  0  0  0  0  0  0  0  0  0  0  0
   52.1059   24.4778   44.8183 H   0  0  0  0  0  0  0  0  0  0  0  0
   52.6459   22.7646   44.8183 H   0  0  0  0  0  0  0  0  0  0  0  0
   54.6920   25.1500   45.9670 N   0  0  0  0  0  0  0  0  0  0  0  0
   55.9670   25.6040   45.8610 C   0  0  0  0  0  0  0  0  0  0  0  0
   56.4180   26.5840   46.7520 C   0  0  0  0  0  0  0  0  0  0  0  0
   55.7369   26.9838   47.5176 H   0  0  0  0  0  0  0  0  0  0  0  0
   57.7260   27.0550   46.6730 C   0  0  0  0  0  0  0  0  0  0  0  0
   58.0713   27.8306   47.3724 H   0  0  0  0  0  0  0  0  0  0  0  0
   58.6050   26.5460   45.7070 C   0  0  0  0  0  0  0  0  0  0  0  0
   59.9470   27.0360   45.5870 N   0  0  0  0  0  0  0  0  0  0  0  0
   60.3500   28.4020   45.4270 C   0  0  0  0  0  0  0  0  0  0  0  0
   61.0470   28.7110   44.4260 O   0  0  0  0  0  0  0  0  0  0  0  0
   60.0470   29.4530   46.4600 C   0  0  0  0  0  0  0  0  0  0  0  0
   60.1719   29.0206   47.4637 H   0  0  0  0  0  0  0  0  0  0  0  0
   60.7385   30.2972   46.3219 H   0  0  0  0  0  0  0  0  0  0  0  0
   58.7050   29.9260   46.3150 O   0  0  0  0  0  0  0  0  0  0  0  0
   58.0560   30.2180   45.1000 C   0  0  0  0  0  0  0  0  0  0  0  0
   57.5110   29.2060   44.2820 C   0  0  0  0  0  0  0  0  0  0  0  0
   57.5508   28.1574   44.6121 H   0  0  0  0  0  0  0  0  0  0  0  0
   56.9220   29.5240   43.0580 C   0  0  0  0  0  0  0  0  0  0  0  0
   56.4991   28.7267   42.4291 H   0  0  0  0  0  0  0  0  0  0  0  0
   56.8680   30.8490   42.6300 C   0  0  0  0  0  0  0  0  0  0  0  0
   56.4099   31.0945   41.6605 H   0  0  0  0  0  0  0  0  0  0  0  0
   57.3940   31.8650   43.4290 C   0  0  0  0  0  0  0  0  0  0  0  0
   57.3488   32.9088   43.0847 H   0  0  0  0  0  0  0  0  0  0  0  0
   57.9810   31.5650   44.6700 C   0  0  0  0  0  0  0  0  0  0  0  0
   58.5080   32.6680   45.5100 C   0  0  0  0  0  0  0  0  0  0  0  0
   59.1550   33.7690   44.9200 C   0  0  0  0  0  0  0  0  0  0  0  0
   59.2697   33.8150   43.8270 H   0  0  0  0  0  0  0  0  0  0  0  0
   59.6520   34.8030   45.7140 C   0  0  0  0  0  0  0  0  0  0  0  0
   60.1427   35.6686   45.2451 H   0  0  0  0  0  0  0  0  0  0  0  0
   59.5270   34.7400   47.1040 C   0  0  0  0  0  0  0  0  0  0  0  0
   59.9209   35.5554   47.7286 H   0  0  0  0  0  0  0  0  0  0  0  0
   58.9020   33.6420   47.7020 C   0  0  0  0  0  0  0  0  0  0  0  0
   58.8106   33.5907   48.7970 H   0  0  0  0  0  0  0  0  0  0  0  0
   58.3940   32.6110   46.9110 C   0  0  0  0  0  0  0  0  0  0  0  0
   57.9018   31.7491   47.3853 H   0  0  0  0  0  0  0  0  0  0  0  0
   58.1510   25.5890   44.7890 C   0  0  0  0  0  0  0  0  0  0  0  0
   58.8308   25.2223   44.0058 H   0  0  0  0  0  0  0  0  0  0  0  0
   56.8300   25.0890   44.8570 C   0  0  0  0  0  0  0  0  0  0  0  0
  1  2  1  0
  2  3  2  0
  3  4  1  0
  4  5  1  0
  4  6  2  0
  6  7  1  0
  7  8  1  0
  7  9  1  0
  7 10  1  0
  6 11  1  0
 11 12  1  0
 12 13  2  0
 13 14  1  0
 13 15  1  0
 15 16  1  0
 15 17  2  0
 17 18  1  0
 18 19  1  0
 19 20  2  0
 19 21  1  0
 21 22  1  0
 21 23  1  0
 21 24  1  0
 24 25  1  0
 25 26  2  0
 26 27  1  0
 26 28  1  0
 28 29  1  0
 28 30  2  0
 30 31  1  0
 30 32  1  0
 32 33  1  0
 32 34  2  0
 34 35  1  0
 35 36  2  0
 36 37  1  0
 36 38  1  0
 38 39  1  0
 38 40  2  0
 40 41  1  0
 40 42  1  0
 42 43  1  0
 42 44  2  0
 44 45  1  0
 17 46  1  0
 46 47  1  0
 46 48  2  0
 48  3  1  0
 48 12  1  0
 34 25  1  0
 44 35  1  0
M  CHG  2  11  -1  18  -1
M  END
>  <UniqueID>  (72) 
66

>  <SMILES>  (72) 
[H]/N=c1/cc(C)[n-]c2ccc([N-]C(=O)COc3ccccc3-c3ccccc3)cc12

>  <Energy>  (72) 
70.48306148877259

>  <Genealogy>  (72) 
Cc1cc(=N)c2cc([N-]C(=O)COc3ccccc3-c3ccccc3)ccc2[n-]1 (protonated)
[H]/N=c1/cc(C)[n-]c2ccc([N-]C(=O)COc3ccccc3-c3ccccc3)cc12 (cis-trans isomerization)
[H]/N=c1/cc(C)[n-]c2ccc([N-]C(=O)COc3ccccc3-c3ccccc3)cc12 (3D coordinates assigned)
[H]/N=c1/cc(C)[n-]c2ccc([N-]C(=O)COc3ccccc3-c3ccccc3)cc12 (optimized conformer: 70.48306148877259 kcal/mol)

>  <smiles>  (72) 
Cc1cc(=N)c2cc(NC(=O)COc3ccccc3-c3ccccc3)ccc2[nH]1

>  <score_type>  (72) 
oracle

>  <origin>  (72) 
adg

>  <m_score__min__energy>  (72) 
-11.51

>  <m_primary>  (72) 
energy

$$$$
72:0
     RDKit          3D

 48 50  0  0  0  0  0  0  0  0999 V2000
   58.1380   29.8300   44.1370 C   0  0  0  0  0  0  0  0  0  0  0  0
   56.8810   30.6510   43.8290 C   0  0  0  0  0  0  0  0  0  0  0  0
   55.6710   29.7300   43.6870 C   0  0  0  0  0  0  0  0  0  0  0  0
   56.6260   31.5790   44.8860 O   0  0  0  0  0  0  0  0  0  0  0  0
   57.5860   32.3650   45.5430 C   0  0  0  0  0  0  0  0  0  0  0  0
   57.8370   33.7080   45.2070 C   0  0  0  0  0  0  0  0  0  0  0  0
   58.7930   34.4410   45.9150 C   0  0  0  0  0  0  0  0  0  0  0  0
   59.5030   33.8490   46.9600 C   0  0  0  0  0  0  0  0  0  0  0  0
   59.2790   32.5040   47.3040 C   0  0  0  0  0  0  0  0  0  0  0  0
   60.0190   31.9050   48.4960 C   0  0  0  0  0  0  0  0  0  0  0  0
   59.0480   31.1530   49.4270 C   0  0  0  0  0  0  0  0  0  0  0  0
   58.5350   29.8610   48.7780 C   0  0  0  0  0  0  0  0  0  0  0  0
   59.6140   29.1300   48.0920 N   0  0  0  0  0  0  0  0  0  0  0  0
   59.3170   27.9220   47.3650 C   0  0  0  0  0  0  0  0  0  0  0  0
   60.1340   26.9590   47.3980 O   0  0  0  0  0  0  0  0  0  0  0  0
   58.0270   27.7680   46.6020 C   0  0  0  0  0  0  0  0  0  0  0  0
   57.3900   26.4360   46.8650 C   0  0  0  0  0  0  0  0  0  0  0  0
   58.0280   25.3860   47.4110 N   0  0  0  0  0  0  0  0  0  0  0  0
   57.0840   24.4200   47.4130 C   0  0  0  0  0  0  0  0  0  0  0  0
   57.3000   23.2630   47.8610 O   0  0  0  0  0  0  0  0  0  0  0  0
   55.8910   24.7870   46.8950 N   0  0  0  0  0  0  0  0  0  0  0  0
   56.1050   26.0670   46.5480 C   0  0  0  0  0  0  0  0  0  0  0  0
   55.1490   26.8760   45.9490 O   0  0  0  0  0  0  0  0  0  0  0  0
   61.0150   29.5140   48.3210 C   0  0  0  0  0  0  0  0  0  0  0  0
   61.2320   31.0210   48.0890 C   0  0  0  0  0  0  0  0  0  0  0  0
   58.3070   31.7770   46.5870 C   0  0  0  0  0  0  0  0  0  0  0  0
   58.2642   29.7476   45.2266 H   0  0  0  0  0  0  0  0  0  0  0  0
   58.0348   28.8246   43.7027 H   0  0  0  0  0  0  0  0  0  0  0  0
   59.0171   30.3286   43.7027 H   0  0  0  0  0  0  0  0  0  0  0  0
   57.0482   31.1949   42.8876 H   0  0  0  0  0  0  0  0  0  0  0  0
   55.3038   29.4505   44.6855 H   0  0  0  0  0  0  0  0  0  0  0  0
   54.8749   30.2528   43.1366 H   0  0  0  0  0  0  0  0  0  0  0  0
   55.9628   28.8234   43.1366 H   0  0  0  0  0  0  0  0  0  0  0  0
   57.2797   34.1818   44.3855 H   0  0  0  0  0  0  0  0  0  0  0  0
   58.9868   35.4901   45.6471 H   0  0  0  0  0  0  0  0  0  0  0  0
   60.2439   34.4391   47.5193 H   0  0  0  0  0  0  0  0  0  0  0  0
   60.4459   32.7506   49.0552 H   0  0  0  0  0  0  0  0  0  0  0  0
   59.5715   30.9006   50.3609 H   0  0  0  0  0  0  0  0  0  0  0  0
   58.1852   31.8057   49.6261 H   0  0  0  0  0  0  0  0  0  0  0  0
   58.1075   29.2151   49.5591 H   0  0  0  0  0  0  0  0  0  0  0  0
   57.7749   30.1314   48.0303 H   0  0  0  0  0  0  0  0  0  0  0  0
   57.3324   28.5636   46.9095 H   0  0  0  0  0  0  0  0  0  0  0  0
   58.2506   27.8381   45.5272 H   0  0  0  0  0  0  0  0  0  0  0  0
   61.2879   29.2690   49.3581 H   0  0  0  0  0  0  0  0  0  0  0  0
   61.6454   28.9608   47.6093 H   0  0  0  0  0  0  0  0  0  0  0  0
   62.1050   31.3394   48.6777 H   0  0  0  0  0  0  0  0  0  0  0  0
   61.3773   31.1587   47.0074 H   0  0  0  0  0  0  0  0  0  0  0  0
   58.1121   30.7278   46.8537 H   0  0  0  0  0  0  0  0  0  0  0  0
  1  2  1  0
  2  3  1  0
  2  4  1  0
  4  5  1  0
  5  6  2  0
  6  7  1  0
  7  8  2  0
  8  9  1  0
  9 10  1  0
 10 11  1  0
 11 12  1  0
 12 13  1  0
 13 14  1  0
 14 15  2  0
 14 16  1  0
 16 17  1  0
 17 18  1  0
 18 19  1  0
 19 20  2  0
 19 21  1  0
 21 22  1  0
 22 23  1  0
 13 24  1  0
 24 25  1  0
  9 26  2  0
 26  5  1  0
 25 10  1  0
 22 17  2  0
  1 27  1  0
  1 28  1  0
  1 29  1  0
  2 30  1  0
  3 31  1  0
  3 32  1  0
  3 33  1  0
  6 34  1  0
  7 35  1  0
  8 36  1  0
 10 37  1  0
 11 38  1  0
 11 39  1  0
 12 40  1  0
 12 41  1  0
 16 42  1  0
 16 43  1  0
 24 44  1  0
 24 45  1  0
 25 46  1  0
 25 47  1  0
 26 48  1  0
M  CHG  3  18  -1  21  -1  23  -1
M  END
>  <UniqueID>  (73) 
67

>  <SMILES>  (73) 
CC(C)Oc1cccc(C2CCN(C(=O)Cc3[n-]c(=O)[n-]c3[O-])CC2)c1

>  <Energy>  (73) 
77.72406901441246

>  <Genealogy>  (73) 
CC(C)Oc1cccc(C2CCN(C(=O)Cc3[n-]c(=O)[n-]c3[O-])CC2)c1 (protonated)
CC(C)Oc1cccc(C2CCN(C(=O)Cc3[n-]c(=O)[n-]c3[O-])CC2)c1 (3D coordinates assigned)
CC(C)Oc1cccc(C2CCN(C(=O)Cc3[n-]c(=O)[n-]c3[O-])CC2)c1 (nonaromatic ring conformer: 77.72406901441246 kcal/mol)

>  <smiles>  (73) 
CC(C)Oc1cccc(C2CCN(C(=O)Cc3[nH]c(=O)[nH]c3O)CC2)c1

>  <score_type>  (73) 
oracle

>  <origin>  (73) 
adg

>  <m_score__min__energy>  (73) 
-16

>  <m_primary>  (73) 
energy

$$$$
73:0
     RDKit          3D

 71 73  0  0  1  0  0  0  0  0999 V2000
   57.7500   30.3760   51.6120 C   0  0  0  0  0  0  0  0  0  0  0  0
   58.3090   30.9120   50.4730 O   0  0  0  0  0  0  0  0  0  0  0  0
   58.9080   32.1190   50.7070 C   0  0  0  0  0  0  0  0  0  0  0  0
   58.9720   33.0210   49.5460 C   0  0  0  0  0  0  0  0  0  0  0  0
   59.3550   34.2070   49.5470 O   0  0  0  0  0  0  0  0  0  0  0  0
   58.5540   32.4850   48.2840 N   0  0  0  0  0  0  0  0  0  0  0  0
   58.5920   33.3320   47.0660 C   0  0  0  0  0  0  0  0  0  0  0  0
   58.1890   32.5470   45.8670 C   0  0  2  0  0  0  0  0  0  0  0  0
   57.2400   33.3180   44.9720 C   0  0  0  0  0  0  0  0  0  0  0  0
   57.6680   31.2810   46.2010 O   0  0  0  0  0  0  0  0  0  0  0  0
   58.2480   30.1440   45.7140 C   0  0  0  0  0  0  0  0  0  0  0  0
   63.7700   30.6240   51.1970 C   0  0  0  0  0  0  0  0  0  0  0  0
   62.3700   30.4370   51.3300 N   0  0  0  0  0  0  0  0  0  0  0  0
   61.6350   29.8280   50.5070 C   0  0  0  0  0  0  0  0  0  0  0  0
   60.0360   28.6000   48.6750 N   0  0  0  0  0  0  0  0  0  0  0  0
   60.4300   27.9220   49.7690 C   0  0  0  0  0  0  0  0  0  0  0  0
   61.2370   28.5300   50.7000 C   0  0  0  0  0  0  0  0  0  0  0  0
   61.7410   27.6410   52.0880 Cl  0  0  0  0  0  0  0  0  0  0  0  0
   60.4180   29.8640   48.4770 C   0  0  0  0  0  0  0  0  0  0  0  0
   60.0150   30.4890   47.4020 N   0  0  0  0  0  0  0  0  0  0  0  0
   59.4400   29.7380   46.3180 C   0  0  0  0  0  0  0  0  0  0  0  0
   60.1260   28.6160   45.9300 C   0  0  0  0  0  0  0  0  0  0  0  0
   66.0350   29.8540   51.6220 C   0  0  0  0  0  0  0  0  0  0  0  0
   66.5140   30.9840   50.9950 C   0  0  0  0  0  0  0  0  0  0  0  0
   65.6250   31.9120   50.4820 C   0  0  0  0  0  0  0  0  0  0  0  0
   64.2580   31.7740   50.5600 C   0  0  0  0  0  0  0  0  0  0  0  0
   63.1530   32.9480   49.9170 S   0  0  0  0  0  0  0  0  0  0  0  0
   63.7580   34.3120   50.0960 O   0  0  0  0  0  0  0  0  0  0  0  0
   61.7970   32.9130   50.5080 O   0  0  0  0  0  0  0  0  0  0  0  0
   63.0670   32.6870   48.1430 C   0  0  0  0  0  0  0  0  0  0  0  0
   64.1450   33.4340   47.4300 C   0  0  0  0  0  0  0  0  0  0  0  0
   61.7280   33.1520   47.6070 C   0  0  0  0  0  0  0  0  0  0  0  0
   61.2070   30.4480   49.3940 N   0  0  0  0  0  0  0  0  0  0  0  0
   64.6690   29.6800   51.7190 C   0  0  0  0  0  0  0  0  0  0  0  0
   59.6550   27.8260   44.9040 C   0  0  0  0  0  0  0  0  0  0  0  0
   58.4810   28.2210   44.3020 C   0  0  0  0  0  0  0  0  0  0  0  0
   57.7830   29.3610   44.6930 C   0  0  0  0  0  0  0  0  0  0  0  0
   56.6050   29.7240   43.9320 C   0  0  0  0  0  0  0  0  0  0  0  0
   56.6340   29.6000   42.4960 N   0  0  0  0  0  0  0  0  0  0  0  0
   55.5320   30.1460   44.4110 O   0  0  0  0  0  0  0  0  0  0  0  0
   58.2202   30.8269   52.4983 H   0  0  0  0  0  0  0  0  0  0  0  0
   56.6701   30.5848   51.6236 H   0  0  0  0  0  0  0  0  0  0  0  0
   57.9133   29.2882   51.6236 H   0  0  0  0  0  0  0  0  0  0  0  0
   58.3467   32.6289   51.5038 H   0  0  0  0  0  0  0  0  0  0  0  0
   59.9503   31.8956   50.9785 H   0  0  0  0  0  0  0  0  0  0  0  0
   58.2140   31.5010   48.1730 H   0  0  0  0  0  0  0  0  0  0  0  0
   57.9007   34.1782   47.1928 H   0  0  0  0  0  0  0  0  0  0  0  0
   59.6194   33.6973   46.9209 H   0  0  0  0  0  0  0  0  0  0  0  0
   59.1108   32.3720   45.2928 H   0  0  0  0  0  0  0  0  0  0  0  0
   56.5349   33.8908   45.5923 H   0  0  0  0  0  0  0  0  0  0  0  0
   57.8144   34.0085   44.3370 H   0  0  0  0  0  0  0  0  0  0  0  0
   56.6817   32.6144   44.3370 H   0  0  0  0  0  0  0  0  0  0  0  0
   59.4270   28.1640   47.9580 H   0  0  0  0  0  0  0  0  0  0  0  0
   60.1060   26.8814   49.9176 H   0  0  0  0  0  0  0  0  0  0  0  0
   61.0607   28.3441   46.4423 H   0  0  0  0  0  0  0  0  0  0  0  0
   66.7270   29.1061   52.0366 H   0  0  0  0  0  0  0  0  0  0  0  0
   67.5979   31.1474   50.9028 H   0  0  0  0  0  0  0  0  0  0  0  0
   66.0318   32.8058   49.9864 H   0  0  0  0  0  0  0  0  0  0  0  0
   63.1955   31.6091   47.9655 H   0  0  0  0  0  0  0  0  0  0  0  0
   64.8169   33.8996   48.1660 H   0  0  0  0  0  0  0  0  0  0  0  0
   64.7178   32.7382   46.7993 H   0  0  0  0  0  0  0  0  0  0  0  0
   63.6947   34.2146   46.7993 H   0  0  0  0  0  0  0  0  0  0  0  0
   61.0575   33.3848   48.4474 H   0  0  0  0  0  0  0  0  0  0  0  0
   61.8719   34.0528   46.9923 H   0  0  0  0  0  0  0  0  0  0  0  0
   61.2826   32.3559   46.9923 H   0  0  0  0  0  0  0  0  0  0  0  0
   61.5160   31.4390   49.2560 H   0  0  0  0  0  0  0  0  0  0  0  0
   64.2757   28.7813   52.2166 H   0  0  0  0  0  0  0  0  0  0  0  0
   60.1917   26.9219   44.5808 H   0  0  0  0  0  0  0  0  0  0  0  0
   58.0785   27.6117   43.4794 H   0  0  0  0  0  0  0  0  0  0  0  0
   55.9090   28.9790   42.0790 H   0  0  0  0  0  0  0  0  0  0  0  0
   57.3570   30.1230   41.9540 H   0  0  0  0  0  0  0  0  0  0  0  0
  1  2  1  0
  2  3  1  0
  3  4  1  0
  4  5  2  0
  4  6  1  0
  6  7  1  0
  7  8  1  0
  8  9  1  0
  8 10  1  0
 10 11  1  0
 11 12  2  0
 12 13  1  0
 13 14  2  0
 14 15  1  0
 15 16  1  0
 16 17  2  0
 17 18  1  0
 17 19  1  0
 19 20  2  0
 20 21  1  0
 21 22  2  0
 22 23  1  0
 23 24  2  0
 24 25  1  0
 25 26  2  0
 26 27  1  0
 27 28  2  0
 27 29  2  0
 27 30  1  0
 30 31  1  0
 30 32  1  0
 19 33  1  0
 12 34  1  0
 34 35  2  0
 35 36  1  0
 36 37  2  0
 37 38  1  0
 38 39  1  0
 38 40  2  0
 37 11  1  0
 33 14  1  0
 26 21  1  0
  1 41  1  0
  1 42  1  0
  1 43  1  0
  3 44  1  0
  3 45  1  0
  6 46  1  0
  7 47  1  0
  7 48  1  0
  8 49  1  6
  9 50  1  0
  9 51  1  0
  9 52  1  0
 15 53  1  0
 16 54  1  0
 22 55  1  0
 23 56  1  0
 24 57  1  0
 25 58  1  0
 30 59  1  0
 31 60  1  0
 31 61  1  0
 31 62  1  0
 32 63  1  0
 32 64  1  0
 32 65  1  0
 33 66  1  0
 34 67  1  0
 35 68  1  0
 36 69  1  0
 39 70  1  0
 39 71  1  0
M  END
>  <smiles>  (74) 
COCC(=O)NCC(C)Oc1c(N=c2[nH]cc(Cl)c(=Nc3ccccc3S(=O)(=O)C(C)C)[nH]2)cccc1C(N)=O

>  <score_type>  (74) 
oracle

>  <origin>  (74) 
adg

>  <m_score__min__energy>  (74) 
-10.289999999999999

>  <m_primary>  (74) 
energy

$$$$
74:0
     RDKit          3D

 44 45  0  0  1  0  0  0  0  0999 V2000
   64.1560   33.0890   48.6600 C   0  0  0  0  0  0  0  0  0  0  0  0
   63.1510   33.6150   47.9240 C   0  0  0  0  0  0  0  0  0  0  0  0
   63.4010   33.8200   46.4590 C   0  0  0  0  0  0  0  0  0  0  0  0
   61.8410   33.9770   48.4660 C   0  0  0  0  0  0  0  0  0  0  0  0
   60.7650   34.0920   47.5440 N   0  0  0  0  0  0  0  0  0  0  0  0
   59.9020   32.9880   47.2050 C   0  0  0  0  0  0  0  0  0  0  0  0
   60.0620   31.8470   47.7140 O   0  0  0  0  0  0  0  0  0  0  0  0
   59.5670   22.7110   45.6240 N   0  0  0  0  0  0  0  0  0  0  0  0
   58.3390   32.2300   45.6110 C   0  0  0  0  0  0  0  0  0  0  0  0
   57.0250   32.2280   45.1670 C   0  0  0  0  0  0  0  0  0  0  0  0
   56.5070   31.1760   44.5070 N   0  0  0  0  0  0  0  0  0  0  0  0
   57.2930   30.1010   44.2740 C   0  0  0  0  0  0  0  0  0  0  0  0
   58.6190   30.1120   44.7270 C   0  0  0  0  0  0  0  0  0  0  0  0
   59.4520   28.9990   44.4930 O   0  0  0  0  0  0  0  0  0  0  0  0
   58.9660   27.6900   44.6120 C   0  0  0  0  0  0  0  0  0  0  0  0
   59.2380   26.9760   45.7790 C   0  0  0  0  0  0  0  0  0  0  0  0
   58.7650   25.6910   45.9060 C   0  0  0  0  0  0  0  0  0  0  0  0
   58.0200   25.0600   44.9130 C   0  0  0  0  0  0  0  0  0  0  0  0
   57.5570   23.7530   45.1820 N   0  0  0  0  0  0  0  0  0  0  0  0
   58.3910   22.6260   45.0540 C   0  0  0  0  0  0  0  0  0  0  0  0
   57.9930   21.4800   44.3630 O   0  0  0  0  0  0  0  0  0  0  0  0
   58.8460   33.2480   46.2540 N   0  0  0  0  0  0  0  0  0  0  0  0
   60.4080   21.6190   45.6160 O   0  0  0  0  0  0  0  0  0  0  0  0
   57.7720   25.7910   43.7830 C   0  0  0  0  0  0  0  0  0  0  0  0
   58.2240   27.0950   43.5960 C   0  0  0  0  0  0  0  0  0  0  0  0
   59.1290   31.1590   45.3820 N   0  0  0  0  0  0  0  0  0  0  0  0
   64.0183   32.9208   49.7383 H   0  0  0  0  0  0  0  0  0  0  0  0
   65.1113   32.8293   48.1804 H   0  0  0  0  0  0  0  0  0  0  0  0
   64.2452   34.5122   46.3244 H   0  0  0  0  0  0  0  0  0  0  0  0
   63.6400   32.8545   45.9892 H   0  0  0  0  0  0  0  0  0  0  0  0
   62.5011   34.2435   45.9892 H   0  0  0  0  0  0  0  0  0  0  0  0
   61.5643   33.2089   49.2032 H   0  0  0  0  0  0  0  0  0  0  0  0
   61.9735   34.9897   48.8745 H   0  0  0  0  0  0  0  0  0  0  0  0
   60.5630   35.0210   47.0660 H   0  0  0  0  0  0  0  0  0  0  0  0
   56.3917   33.1067   45.3588 H   0  0  0  0  0  0  0  0  0  0  0  0
   56.8963   29.2279   43.7351 H   0  0  0  0  0  0  0  0  0  0  0  0
   59.8242   27.4356   46.5885 H   0  0  0  0  0  0  0  0  0  0  0  0
   58.9844   25.1381   46.8313 H   0  0  0  0  0  0  0  0  0  0  0  0
   56.5400   23.5810   45.4700 H   0  0  0  0  0  0  0  0  0  0  0  0
   58.5490   20.6280   44.3760 H   0  0  0  0  0  0  0  0  0  0  0  0
   60.0490   20.7860   45.1890 H   0  0  0  0  0  0  0  0  0  0  0  0
   57.1841   25.3236   42.9793 H   0  0  0  0  0  0  0  0  0  0  0  0
   58.0000   27.6413   42.6679 H   0  0  0  0  0  0  0  0  0  0  0  0
   60.1190   31.1120   45.6940 H   0  0  0  0  0  0  0  0  0  0  0  0
  1  2  2  0
  2  3  1  0
  2  4  1  0
  4  5  1  0
  5  6  1  0
  6  7  2  0
  6  8  1  0
  8  9  2  0
  9 10  1  0
 10 11  2  0
 11 12  1  0
 12 13  2  0
 13 14  1  0
 14 15  1  0
 15 16  2  0
 16 17  1  0
 17 18  2  0
 18 19  1  0
 19 20  1  0
 20 21  1  0
 20 22  2  0
 22 23  1  0
 18 24  1  0
 24 25  2  0
 13 26  1  0
 26  9  1  0
 25 15  1  0
  1 27  1  0
  1 28  1  0
  3 29  1  0
  3 30  1  0
  3 31  1  0
  4 32  1  0
  4 33  1  0
  5 34  1  0
 10 35  1  0
 12 36  1  0
 16 37  1  0
 17 38  1  0
 19 39  1  0
 21 40  1  0
 23 41  1  0
 24 42  1  0
 25 43  1  0
 26 44  1  0
M  END
>  <smiles>  (75) 
C=C(C)CNC(=O)N=c1cncc(Oc2ccc(NC(O)=NO)cc2)[nH]1

>  <score_type>  (75) 
oracle

>  <origin>  (75) 
adg

>  <m_score__min__energy>  (75) 
-8.25

>  <m_primary>  (75) 
energy

$$$$
75:0
     RDKit          3D

 62 65  0  0  0  0  0  0  0  0999 V2000
   62.1309   26.3316   47.9368 H   0  0  0  0  0  0  0  0  0  0  0  0
   61.1280   26.7170   47.7010 C   0  0  0  0  0  0  0  0  0  0  0  0
   60.6680   27.8830   48.3160 C   0  0  0  0  0  0  0  0  0  0  0  0
   61.3146   28.4160   49.0286 H   0  0  0  0  0  0  0  0  0  0  0  0
   59.3840   28.3810   48.0310 C   0  0  0  0  0  0  0  0  0  0  0  0
   58.8980   29.6480   48.6990 C   0  0  0  0  0  0  0  0  0  0  0  0
   57.8766   29.4835   49.0728 H   0  0  0  0  0  0  0  0  0  0  0  0
   58.9226   30.4568   47.9539 H   0  0  0  0  0  0  0  0  0  0  0  0
   59.7870   30.0530   49.8620 C   0  0  0  0  0  0  0  0  0  0  0  0
   59.3980   29.6710   51.1600 C   0  0  0  0  0  0  0  0  0  0  0  0
   58.4530   29.1268   51.3044 H   0  0  0  0  0  0  0  0  0  0  0  0
   60.1920   29.9720   52.2640 C   0  0  0  0  0  0  0  0  0  0  0  0
   59.8711   29.6632   53.2698 H   0  0  0  0  0  0  0  0  0  0  0  0
   61.3900   30.6620   52.1000 C   0  0  0  0  0  0  0  0  0  0  0  0
   62.0158   30.8887   52.9758 H   0  0  0  0  0  0  0  0  0  0  0  0
   61.8020   31.0690   50.8240 C   0  0  0  0  0  0  0  0  0  0  0  0
   63.0100   31.7650   50.6740 C   0  0  0  0  0  0  0  0  0  0  0  0
   63.6248   31.9848   51.5593 H   0  0  0  0  0  0  0  0  0  0  0  0
   63.4440   32.1850   49.4040 C   0  0  0  0  0  0  0  0  0  0  0  0
   64.6510   32.8780   49.2180 O   0  0  0  0  0  0  0  0  0  0  0  0
   65.8120   32.7090   50.0260 C   0  0  0  0  0  0  0  0  0  0  0  0
   65.5287   32.7502   51.0881 H   0  0  0  0  0  0  0  0  0  0  0  0
   66.2725   31.7344   49.8069 H   0  0  0  0  0  0  0  0  0  0  0  0
   66.5313   33.5119   49.8069 H   0  0  0  0  0  0  0  0  0  0  0  0
   62.6570   31.9110   48.2780 C   0  0  0  0  0  0  0  0  0  0  0  0
   63.1190   32.3430   47.0240 O   0  0  0  0  0  0  0  0  0  0  0  0
   63.3360   33.7040   46.6630 C   0  0  0  0  0  0  0  0  0  0  0  0
   63.4332   34.3138   47.5733 H   0  0  0  0  0  0  0  0  0  0  0  0
   64.2581   33.7831   46.0685 H   0  0  0  0  0  0  0  0  0  0  0  0
   62.4842   34.0659   46.0685 H   0  0  0  0  0  0  0  0  0  0  0  0
   61.4390   31.2200   48.4270 C   0  0  0  0  0  0  0  0  0  0  0  0
   60.8180   31.0231   47.5406 H   0  0  0  0  0  0  0  0  0  0  0  0
   61.0010   30.7760   49.6910 C   0  0  0  0  0  0  0  0  0  0  0  0
   58.5830   27.7100   47.0850 C   0  0  0  0  0  0  0  0  0  0  0  0
   57.3690   28.2140   46.7440 F   0  0  0  0  0  0  0  0  0  0  0  0
   59.0390   26.5240   46.4790 C   0  0  0  0  0  0  0  0  0  0  0  0
   58.1970   25.8170   45.4510 C   0  0  0  0  0  0  0  0  0  0  0  0
   58.8456   25.4243   44.6540 H   0  0  0  0  0  0  0  0  0  0  0  0
   57.6573   24.9866   45.9297 H   0  0  0  0  0  0  0  0  0  0  0  0
   57.2330   26.7550   44.8760 N   0  0  0  0  0  0  0  0  0  0  0  0
   56.5840   26.2180   44.2560 H   0  0  0  0  0  0  0  0  0  0  0  0
   58.0580   27.9000   43.8610 S   0  0  0  0  0  0  0  0  0  0  0  0
   57.5520   27.7730   42.4530 O   0  0  0  0  0  0  0  0  0  0  0  0
   59.5330   27.6130   43.8760 O   0  0  0  0  0  0  0  0  0  0  0  0
   57.7710   29.5410   44.4260 C   0  0  0  0  0  0  0  0  0  0  0  0
   58.9180   30.4990   45.1930 S   0  0  0  0  0  0  0  0  0  0  0  0
   57.8510   31.7950   45.3790 C   0  0  0  0  0  0  0  0  0  0  0  0
   58.1220   32.9570   45.8980 N   0  0  0  0  0  0  0  0  0  0  0  0
   58.6400   33.2540   47.2060 C   0  0  0  0  0  0  0  0  0  0  0  0
   58.1770   32.6240   48.1920 O   0  0  0  0  0  0  0  0  0  0  0  0
   59.7380   34.2460   47.4420 C   0  0  0  0  0  0  0  0  0  0  0  0
   59.8855   34.3792   48.5239 H   0  0  0  0  0  0  0  0  0  0  0  0
   60.6694   33.8770   46.9877 H   0  0  0  0  0  0  0  0  0  0  0  0
   59.4652   35.2099   46.9877 H   0  0  0  0  0  0  0  0  0  0  0  0
   56.6380   31.5170   44.8550 N   0  0  0  0  0  0  0  0  0  0  0  0
   56.5830   30.2660   44.3200 C   0  0  0  0  0  0  0  0  0  0  0  0
   55.3230   29.7250   43.7250 C   0  0  0  0  0  0  0  0  0  0  0  0
   54.6346   29.4294   44.5304 H   0  0  0  0  0  0  0  0  0  0  0  0
   54.8492   30.4990   43.1033 H   0  0  0  0  0  0  0  0  0  0  0  0
   55.5579   28.8484   43.1033 H   0  0  0  0  0  0  0  0  0  0  0  0
   60.3190   26.0390   46.7880 C   0  0  0  0  0  0  0  0  0  0  0  0
   60.6866   25.1199   46.3082 H   0  0  0  0  0  0  0  0  0  0  0  0
  1  2  1  0
  2  3  2  0
  3  4  1  0
  3  5  1  0
  5  6  1  0
  6  7  1  0
  6  8  1  0
  6  9  1  0
  9 10  2  0
 10 11  1  0
 10 12  1  0
 12 13  1  0
 12 14  2  0
 14 15  1  0
 14 16  1  0
 16 17  2  0
 17 18  1  0
 17 19  1  0
 19 20  1  0
 20 21  1  0
 21 22  1  0
 21 23  1  0
 21 24  1  0
 19 25  2  0
 25 26  1  0
 26 27  1  0
 27 28  1  0
 27 29  1  0
 27 30  1  0
 25 31  1  0
 31 32  1  0
 31 33  2  0
  5 34  2  0
 34 35  1  0
 34 36  1  0
 36 37  1  0
 37 38  1  0
 37 39  1  0
 37 40  1  0
 40 41  1  0
 40 42  1  0
 42 43  2  0
 42 44  2  0
 42 45  1  0
 45 46  1  0
 46 47  1  0
 47 48  2  0
 48 49  1  0
 49 50  2  0
 49 51  1  0
 51 52  1  0
 51 53  1  0
 51 54  1  0
 47 55  1  0
 55 56  1  0
 56 57  1  0
 57 58  1  0
 57 59  1  0
 57 60  1  0
 36 61  2  0
 61 62  1  0
 61  2  1  0
 33  9  1  0
 56 45  2  0
 33 16  1  0
M  CHG  1  55  -1
M  END
>  <UniqueID>  (76) 
68

>  <SMILES>  (76) 
COc1cc2cccc(Cc3cccc(CNS(=O)(=O)c4s/c(=N\C(C)=O)[n-]c4C)c3F)c2cc1OC

>  <Energy>  (76) 
100.70366916820696

>  <Genealogy>  (76) 
COc1cc2cccc(Cc3cccc(CNS(=O)(=O)c4sc(=NC(C)=O)[n-]c4C)c3F)c2cc1OC (protonated)
COc1cc2cccc(Cc3cccc(CNS(=O)(=O)c4s/c(=N\C(C)=O)[n-]c4C)c3F)c2cc1OC (cis-trans isomerization)
COc1cc2cccc(Cc3cccc(CNS(=O)(=O)c4s/c(=N\C(C)=O)[n-]c4C)c3F)c2cc1OC (3D coordinates assigned)
COc1cc2cccc(Cc3cccc(CNS(=O)(=O)c4s/c(=N\C(C)=O)[n-]c4C)c3F)c2cc1OC (optimized conformer: 100.70366916820696 kcal/mol)

>  <smiles>  (76) 
COc1cc2cccc(Cc3cccc(CNS(=O)(=O)c4sc(=NC(C)=O)[nH]c4C)c3F)c2cc1OC

>  <score_type>  (76) 
oracle

>  <origin>  (76) 
adg

>  <m_score__min__energy>  (76) 
-11.56

>  <m_primary>  (76) 
energy

$$$$
76:0
     RDKit          3D

 39 41  0  0  1  0  0  0  0  0999 V2000
   58.5090   33.4480   44.1880 S   0  0  0  0  0  0  0  0  0  0  0  0
   58.3860   32.9540   45.7330 C   0  0  0  0  0  0  0  0  0  0  0  0
   57.3580   31.9530   45.9730 N   0  0  0  0  0  0  0  0  0  0  0  0
   57.3320   30.8860   45.2470 C   0  0  0  0  0  0  0  0  0  0  0  0
   56.4040   30.7930   44.2790 N   0  0  0  0  0  0  0  0  0  0  0  0
   56.3290   29.7010   43.4890 C   0  0  0  0  0  0  0  0  0  0  0  0
   57.2060   28.6720   43.6680 N   0  0  0  0  0  0  0  0  0  0  0  0
   58.1550   28.7170   44.6240 C   0  0  0  0  0  0  0  0  0  0  0  0
   58.2210   29.8430   45.4280 C   0  0  0  0  0  0  0  0  0  0  0  0
   59.2200   29.9720   46.4880 C   0  0  0  0  0  0  0  0  0  0  0  0
   60.5180   30.3490   46.1810 C   0  0  0  0  0  0  0  0  0  0  0  0
   61.4440   30.4650   47.2000 C   0  0  0  0  0  0  0  0  0  0  0  0
   61.0880   30.2080   48.5130 C   0  0  0  0  0  0  0  0  0  0  0  0
   59.7890   29.8310   48.8120 C   0  0  0  0  0  0  0  0  0  0  0  0
   58.8450   29.7110   47.7940 C   0  0  0  0  0  0  0  0  0  0  0  0
   59.1780   33.4110   46.7970 N   0  0  0  0  0  0  0  0  0  0  0  0
   60.2270   34.3840   46.7630 C   0  0  0  0  0  0  0  0  0  0  0  0
   61.5180   33.9360   47.3340 C   0  0  0  0  0  0  0  0  0  0  0  0
   62.5260   33.6370   46.4350 C   0  0  0  0  0  0  0  0  0  0  0  0
   63.7750   33.2290   46.8940 C   0  0  0  0  0  0  0  0  0  0  0  0
   64.0530   33.1110   48.2490 C   0  0  0  0  0  0  0  0  0  0  0  0
   63.0380   33.4140   49.1450 C   0  0  0  0  0  0  0  0  0  0  0  0
   61.7980   33.8190   48.6580 C   0  0  0  0  0  0  0  0  0  0  0  0
   55.5622   29.6412   42.7026 H   0  0  0  0  0  0  0  0  0  0  0  0
   57.1080   27.8450   43.0280 H   0  0  0  0  0  0  0  0  0  0  0  0
   58.8580   27.8823   44.7620 H   0  0  0  0  0  0  0  0  0  0  0  0
   60.8072   30.5532   45.1395 H   0  0  0  0  0  0  0  0  0  0  0  0
   62.4759   30.7650   46.9653 H   0  0  0  0  0  0  0  0  0  0  0  0
   61.8339   30.3028   49.3159 H   0  0  0  0  0  0  0  0  0  0  0  0
   59.5024   29.6262   49.8541 H   0  0  0  0  0  0  0  0  0  0  0  0
   57.8123   29.4118   48.0263 H   0  0  0  0  0  0  0  0  0  0  0  0
   58.9720   32.9800   47.7510 H   0  0  0  0  0  0  0  0  0  0  0  0
   60.3977   34.6645   45.7132 H   0  0  0  0  0  0  0  0  0  0  0  0
   59.8885   35.2215   47.3907 H   0  0  0  0  0  0  0  0  0  0  0  0
   62.3399   33.7220   45.3542 H   0  0  0  0  0  0  0  0  0  0  0  0
   64.5630   32.9937   46.1635 H   0  0  0  0  0  0  0  0  0  0  0  0
   65.0442   32.7883   48.6003 H   0  0  0  0  0  0  0  0  0  0  0  0
   63.2110   33.3351   50.2284 H   0  0  0  0  0  0  0  0  0  0  0  0
   61.0048   34.0563   49.3823 H   0  0  0  0  0  0  0  0  0  0  0  0
  1  2  2  0
  2  3  1  0
  3  4  2  0
  4  5  1  0
  5  6  2  0
  6  7  1  0
  7  8  1  0
  8  9  2  0
  9 10  1  0
 10 11  2  0
 11 12  1  0
 12 13  2  0
 13 14  1  0
 14 15  2  0
  2 16  1  0
 16 17  1  0
 17 18  1  0
 18 19  2  0
 19 20  1  0
 20 21  2  0
 21 22  1  0
 22 23  2  0
  9  4  1  0
 15 10  1  0
 23 18  1  0
  6 24  1  0
  7 25  1  0
  8 26  1  0
 11 27  1  0
 12 28  1  0
 13 29  1  0
 14 30  1  0
 15 31  1  0
 16 32  1  0
 17 33  1  0
 17 34  1  0
 19 35  1  0
 20 36  1  0
 21 37  1  0
 22 38  1  0
 23 39  1  0
M  END
>  <smiles>  (77) 
S=C(N=c1nc[nH]cc1-c1ccccc1)NCc1ccccc1

>  <score_type>  (77) 
oracle

>  <origin>  (77) 
adg

>  <m_score__min__energy>  (77) 
-7.54

>  <m_primary>  (77) 
energy

$$$$
77:0
     RDKit          3D

 32 33  0  0  1  0  0  0  0  0999 V2000
   60.5850   28.9820   44.9720 N   0  0  0  0  0  0  0  0  0  0  0  0
   59.4480   28.9640   45.2550 C   0  0  0  0  0  0  0  0  0  0  0  0
   58.0590   28.9170   45.6010 C   0  0  0  0  0  0  0  0  0  0  0  0
   57.6030   28.0690   46.5130 C   0  0  0  0  0  0  0  0  0  0  0  0
   57.6120   26.6280   46.3590 C   0  0  0  0  0  0  0  0  0  0  0  0
   58.7280   25.8340   46.4290 C   0  0  0  0  0  0  0  0  0  0  0  0
   59.9930   26.4000   46.7370 N   0  0  0  0  0  0  0  0  0  0  0  0
   58.6990   24.4940   46.2460 N   0  0  0  0  0  0  0  0  0  0  0  0
   57.4980   23.9030   45.9790 C   0  0  0  0  0  0  0  0  0  0  0  0
   57.4730   22.6460   45.8060 O   0  0  0  0  0  0  0  0  0  0  0  0
   56.3750   24.6510   45.9030 N   0  0  0  0  0  0  0  0  0  0  0  0
   56.3980   26.0010   46.0860 C   0  0  0  0  0  0  0  0  0  0  0  0
   55.2150   26.7190   45.9980 O   0  0  0  0  0  0  0  0  0  0  0  0
   57.0930   29.8270   44.9440 C   0  0  0  0  0  0  0  0  0  0  0  0
   55.8820   29.5070   44.9630 O   0  0  0  0  0  0  0  0  0  0  0  0
   57.5920   31.0110   44.3330 N   0  0  0  0  0  0  0  0  0  0  0  0
   57.9810   32.0050   45.0470 C   0  0  0  0  0  0  0  0  0  0  0  0
   57.2150   33.1440   45.2410 C   0  0  0  0  0  0  0  0  0  0  0  0
   57.7140   34.1610   46.0270 C   0  0  0  0  0  0  0  0  0  0  0  0
   58.9690   34.0740   46.6300 C   0  0  0  0  0  0  0  0  0  0  0  0
   59.6690   32.9110   46.3900 C   0  0  0  0  0  0  0  0  0  0  0  0
   59.1930   31.9060   45.6230 N   0  0  0  0  0  0  0  0  0  0  0  0
   57.1923   28.4854   47.4446 H   0  0  0  0  0  0  0  0  0  0  0  0
   60.4360   27.1450   46.1730 H   0  0  0  0  0  0  0  0  0  0  0  0
   60.4660   25.9990   47.6000 H   0  0  0  0  0  0  0  0  0  0  0  0
   55.4950   24.1300   45.6950 H   0  0  0  0  0  0  0  0  0  0  0  0
   55.1400   27.5270   45.3980 H   0  0  0  0  0  0  0  0  0  0  0  0
   56.2230   33.2352   44.7744 H   0  0  0  0  0  0  0  0  0  0  0  0
   57.1065   35.0647   46.1827 H   0  0  0  0  0  0  0  0  0  0  0  0
   59.3741   34.8819   47.2570 H   0  0  0  0  0  0  0  0  0  0  0  0
   60.6637   32.7957   46.8452 H   0  0  0  0  0  0  0  0  0  0  0  0
   59.7860   31.0590   45.4910 H   0  0  0  0  0  0  0  0  0  0  0  0
  1  2  3  0
  2  3  1  0
  3  4  2  0
  4  5  1  0
  5  6  1  0
  6  7  1  0
  6  8  2  0
  8  9  1  0
  9 10  2  0
  9 11  1  0
 11 12  1  0
 12 13  1  0
  3 14  1  0
 14 15  2  0
 14 16  1  0
 16 17  2  0
 17 18  1  0
 18 19  2  0
 19 20  1  0
 20 21  2  0
 21 22  1  0
 12  5  2  0
 22 17  1  0
  4 23  1  0
  7 24  1  0
  7 25  1  0
 11 26  1  0
 13 27  1  0
 18 28  1  0
 19 29  1  0
 20 30  1  0
 21 31  1  0
 22 32  1  0
M  END
>  <smiles>  (78) 
N#CC(=Cc1c(N)nc(=O)[nH]c1O)C(=O)N=c1cccc[nH]1

>  <score_type>  (78) 
oracle

>  <origin>  (78) 
adg

>  <m_score__min__energy>  (78) 
-7.9299999999999997

>  <m_primary>  (78) 
energy

$$$$
78:0
     RDKit          3D

 62 65  0  0  1  0  0  0  0  0999 V2000
   52.4840   22.6680   50.5340 C   0  0  0  0  0  0  0  0  0  0  0  0
   52.5510   22.5780   49.1420 O   0  0  0  0  0  0  0  0  0  0  0  0
   53.7410   22.5420   48.4220 C   0  0  0  0  0  0  0  0  0  0  0  0
   53.7160   22.6660   47.0350 C   0  0  0  0  0  0  0  0  0  0  0  0
   61.2560   34.2130   48.1230 C   0  0  0  0  0  0  0  0  0  0  0  0
   60.0970   34.6490   47.9050 N   0  0  0  0  0  0  0  0  0  0  0  0
   56.2110   22.8090   44.0480 S   0  0  0  0  0  0  0  0  0  0  0  0
   57.1910   21.8590   44.6440 O   0  0  0  0  0  0  0  0  0  0  0  0
   55.9180   22.5480   42.6060 O   0  0  0  0  0  0  0  0  0  0  0  0
   56.8560   24.4640   44.1420 C   0  0  0  0  0  0  0  0  0  0  0  0
   57.3850   25.0640   42.9930 C   0  0  0  0  0  0  0  0  0  0  0  0
   57.8500   26.3680   43.0120 C   0  0  0  0  0  0  0  0  0  0  0  0
   57.7790   27.0760   44.2100 C   0  0  0  0  0  0  0  0  0  0  0  0
   58.1550   28.4330   44.3260 N   0  0  0  0  0  0  0  0  0  0  0  0
   57.1420   29.7940   44.2490 S   0  0  0  0  0  0  0  0  0  0  0  0
   56.6750   29.9620   42.8020 O   0  0  0  0  0  0  0  0  0  0  0  0
   55.9070   29.5750   45.1240 O   0  0  0  0  0  0  0  0  0  0  0  0
   57.8470   31.2860   44.8170 C   0  0  0  0  0  0  0  0  0  0  0  0
   57.4720   32.5270   44.3860 C   0  0  0  0  0  0  0  0  0  0  0  0
   58.0170   33.6900   44.9200 C   0  0  0  0  0  0  0  0  0  0  0  0
   58.9670   33.5890   45.9180 C   0  0  0  0  0  0  0  0  0  0  0  0
   59.5720   34.7560   46.5620 C   0  0  0  0  0  0  0  0  0  0  0  0
   59.6690   35.8810   46.0080 O   0  0  0  0  0  0  0  0  0  0  0  0
   54.7630   22.7510   45.0240 N   0  0  0  0  0  0  0  0  0  0  0  0
   54.9020   22.6310   46.2910 C   0  0  0  0  0  0  0  0  0  0  0  0
   56.0630   22.4780   46.9330 N   0  0  0  0  0  0  0  0  0  0  0  0
   56.0870   22.3600   48.2730 C   0  0  0  0  0  0  0  0  0  0  0  0
   63.7900   33.2340   47.9970 C   0  0  0  0  0  0  0  0  0  0  0  0
   62.4210   33.6990   46.7650 S   0  0  0  0  0  0  0  0  0  0  0  0
   59.3330   32.3200   46.3360 C   0  0  0  0  0  0  0  0  0  0  0  0
   58.8110   31.1660   45.8250 C   0  0  0  0  0  0  0  0  0  0  0  0
   59.1400   29.8910   46.2040 O   0  0  0  0  0  0  0  0  0  0  0  0
   59.0890   29.3810   47.4960 C   0  0  0  0  0  0  0  0  0  0  0  0
   58.2320   28.2650   47.5560 F   0  0  0  0  0  0  0  0  0  0  0  0
   58.5600   30.3620   48.3300 F   0  0  0  0  0  0  0  0  0  0  0  0
   57.2540   26.4720   45.3480 C   0  0  0  0  0  0  0  0  0  0  0  0
   56.7880   25.1570   45.3240 C   0  0  0  0  0  0  0  0  0  0  0  0
   61.9720   33.9930   49.2410 N   0  0  0  0  0  0  0  0  0  0  0  0
   63.1680   33.5330   49.1940 C   0  0  0  0  0  0  0  0  0  0  0  0
   57.3000   22.1990   48.9470 O   0  0  0  0  0  0  0  0  0  0  0  0
   57.2210   21.8270   50.3300 C   0  0  0  0  0  0  0  0  0  0  0  0
   54.9490   22.3900   49.0180 N   0  0  0  0  0  0  0  0  0  0  0  0
   53.0837   21.8624   50.9828 H   0  0  0  0  0  0  0  0  0  0  0  0
   52.8782   23.6425   50.8578 H   0  0  0  0  0  0  0  0  0  0  0  0
   51.4373   22.5699   50.8578 H   0  0  0  0  0  0  0  0  0  0  0  0
   52.7535   22.7929   46.5179 H   0  0  0  0  0  0  0  0  0  0  0  0
   57.4321   24.4882   42.0569 H   0  0  0  0  0  0  0  0  0  0  0  0
   58.2645   26.8328   42.1053 H   0  0  0  0  0  0  0  0  0  0  0  0
   59.1950   28.5930   44.4870 H   0  0  0  0  0  0  0  0  0  0  0  0
   56.7154   32.6090   43.5918 H   0  0  0  0  0  0  0  0  0  0  0  0
   57.6962   34.6761   44.5529 H   0  0  0  0  0  0  0  0  0  0  0  0
   56.9260   22.4560   46.3740 H   0  0  0  0  0  0  0  0  0  0  0  0
   63.7151   33.3716   50.1346 H   0  0  0  0  0  0  0  0  0  0  0  0
   64.7985   32.8368   47.8095 H   0  0  0  0  0  0  0  0  0  0  0  0
   60.0911   32.2366   47.1287 H   0  0  0  0  0  0  0  0  0  0  0  0
   60.1027   29.0836   47.8025 H   0  0  0  0  0  0  0  0  0  0  0  0
   57.2052   27.0433   46.2867 H   0  0  0  0  0  0  0  0  0  0  0  0
   56.3765   24.6879   46.2299 H   0  0  0  0  0  0  0  0  0  0  0  0
   61.4770   34.2290   50.1800 H   0  0  0  0  0  0  0  0  0  0  0  0
   57.4085   22.7101   50.9585 H   0  0  0  0  0  0  0  0  0  0  0  0
   56.2184   21.4294   50.5461 H   0  0  0  0  0  0  0  0  0  0  0  0
   57.9755   21.0563   50.5461 H   0  0  0  0  0  0  0  0  0  0  0  0
  1  2  1  0
  2  3  1  0
  3  4  2  0
  4  5  1  0
  5  6  2  0
  6  7  1  0
  7  8  2  0
  7  9  2  0
  7 10  1  0
 10 11  2  0
 11 12  1  0
 12 13  2  0
 13 14  1  0
 14 15  1  0
 15 16  2  0
 15 17  2  0
 15 18  1  0
 18 19  2  0
 19 20  1  0
 20 21  2  0
 21 22  1  0
 22 23  2  0
 22 24  1  0
 24 25  2  0
 25 26  1  0
 26 27  1  0
 27 28  2  0
 28 29  1  0
 21 30  1  0
 30 31  2  0
 31 32  1  0
 32 33  1  0
 33 34  1  0
 33 35  1  0
 13 36  1  0
 36 37  2  0
  5 38  1  0
 38 39  1  0
 39 40  1  0
 40 41  1  0
 39 42  2  0
 42  3  1  0
 37 10  1  0
 31 18  1  0
 29 25  1  0
  1 43  1  0
  1 44  1  0
  1 45  1  0
  4 46  1  0
 11 47  1  0
 12 48  1  0
 14 49  1  0
 19 50  1  0
 20 51  1  0
 26 52  1  0
 27 53  1  0
 28 54  1  0
 30 55  1  0
 33 56  1  0
 36 57  1  0
 37 58  1  0
 38 59  1  0
 41 60  1  0
 41 61  1  0
 41 62  1  0
M  END
>  <smiles>  (79) 
COc1cc(=NS(=O)(=O)c2ccc(NS(=O)(=O)c3ccc(C(=O)N=c4[nH]ccs4)cc3OC(F)F)cc2)[nH]c(OC)n1

>  <score_type>  (79) 
oracle

>  <origin>  (79) 
adg

>  <m_score__min__energy>  (79) 
-9.7699999999999996

>  <m_primary>  (79) 
energy

$$$$
79:0
     RDKit          3D

 38 40  0  0  0  0  0  0  0  0999 V2000
   56.0880   22.0650   41.6390 H   0  0  0  0  0  0  0  0  0  0  0  0
   55.9030   21.9680   42.6640 N   0  0  0  0  0  0  0  0  0  0  0  0
   55.9330   22.9790   43.4730 C   0  0  0  0  0  0  0  0  0  0  0  0
   54.8920   23.1840   44.3230 N   0  0  0  0  0  0  0  0  0  0  0  0
   54.8710   24.2270   45.1970 C   0  0  0  0  0  0  0  0  0  0  0  0
   54.0066   24.3665   45.8628 H   0  0  0  0  0  0  0  0  0  0  0  0
   55.9440   25.1220   45.2520 C   0  0  0  0  0  0  0  0  0  0  0  0
   55.8930   26.2220   46.1730 N   0  0  0  0  0  0  0  0  0  0  0  0
   56.9840   27.0880   46.5180 C   0  0  0  0  0  0  0  0  0  0  0  0
   57.7500   26.7460   47.4580 O   0  0  0  0  0  0  0  0  0  0  0  0
   57.2610   28.3380   45.7720 C   0  0  0  0  0  0  0  0  0  0  0  0
   58.4940   28.9990   45.9110 C   0  0  0  0  0  0  0  0  0  0  0  0
   59.2584   28.5932   46.5899 H   0  0  0  0  0  0  0  0  0  0  0  0
   58.7540   30.1680   45.1920 C   0  0  0  0  0  0  0  0  0  0  0  0
   59.7261   30.6714   45.2993 H   0  0  0  0  0  0  0  0  0  0  0  0
   57.7810   30.7040   44.3330 C   0  0  0  0  0  0  0  0  0  0  0  0
   58.0710   31.9380   43.5220 C   0  0  0  0  0  0  0  0  0  0  0  0
   59.1569   32.1123   43.5014 H   0  0  0  0  0  0  0  0  0  0  0  0
   57.6944   31.7915   42.4989 H   0  0  0  0  0  0  0  0  0  0  0  0
   57.4090   33.0950   44.1110 N   0  0  0  0  0  0  0  0  0  0  0  0
   57.7430   33.6330   45.3940 C   0  0  0  0  0  0  0  0  0  0  0  0
   57.0870   33.3020   46.4180 O   0  0  0  0  0  0  0  0  0  0  0  0
   58.9130   34.5570   45.5290 C   0  0  0  0  0  0  0  0  0  0  0  0
   58.7137   35.1363   44.6154 H   0  0  0  0  0  0  0  0  0  0  0  0
   59.2890   34.8970   46.9630 C   0  0  0  0  0  0  0  0  0  0  0  0
   59.6711   35.8989   47.2085 H   0  0  0  0  0  0  0  0  0  0  0  0
   58.7718   34.8564   47.9330 H   0  0  0  0  0  0  0  0  0  0  0  0
   60.1470   33.9320   46.1620 C   0  0  0  0  0  0  0  0  0  0  0  0
   61.1501   34.2354   45.8277 H   0  0  0  0  0  0  0  0  0  0  0  0
   60.5079   32.9038   46.3121 H   0  0  0  0  0  0  0  0  0  0  0  0
   56.5440   30.0550   44.2070 C   0  0  0  0  0  0  0  0  0  0  0  0
   55.7754   30.4685   43.5375 H   0  0  0  0  0  0  0  0  0  0  0  0
   56.2820   28.8860   44.9270 C   0  0  0  0  0  0  0  0  0  0  0  0
   55.3036   28.3924   44.8313 H   0  0  0  0  0  0  0  0  0  0  0  0
   57.0190   24.9440   44.3650 C   0  0  0  0  0  0  0  0  0  0  0  0
   57.8592   25.6539   44.3690 H   0  0  0  0  0  0  0  0  0  0  0  0
   57.0200   23.8660   43.4790 C   0  0  0  0  0  0  0  0  0  0  0  0
   57.8651   23.7131   42.7917 H   0  0  0  0  0  0  0  0  0  0  0  0
  1  2  1  0
  2  3  2  0
  3  4  1  0
  4  5  1  0
  5  6  1  0
  5  7  2  0
  7  8  1  0
  8  9  1  0
  9 10  2  0
  9 11  1  0
 11 12  2  0
 12 13  1  0
 12 14  1  0
 14 15  1  0
 14 16  2  0
 16 17  1  0
 17 18  1  0
 17 19  1  0
 17 20  1  0
 20 21  1  0
 21 22  2  0
 21 23  1  0
 23 24  1  0
 23 25  1  0
 25 26  1  0
 25 27  1  0
 25 28  1  0
 28 29  1  0
 28 30  1  0
 16 31  1  0
 31 32  1  0
 31 33  2  0
 33 34  1  0
  7 35  1  0
 35 36  1  0
 35 37  2  0
 37 38  1  0
 37  3  1  0
 33 11  1  0
 28 23  1  0
M  CHG  3   4  -1   8  -1  20  -1
M  END
>  <UniqueID>  (80) 
69

>  <SMILES>  (80) 
[H]/N=c1\ccc([N-]C(=O)c2ccc(C[N-]C(=O)C3CC3)cc2)c[n-]1

>  <Energy>  (80) 
307.45145552375106

>  <Genealogy>  (80) 
N=c1ccc([N-]C(=O)c2ccc(C[N-]C(=O)C3CC3)cc2)c[n-]1 (protonated)
[H]/N=c1\ccc([N-]C(=O)c2ccc(C[N-]C(=O)C3CC3)cc2)c[n-]1 (cis-trans isomerization)
[H]/N=c1\ccc([N-]C(=O)c2ccc(C[N-]C(=O)C3CC3)cc2)c[n-]1 (3D coordinates assigned)
[H]/N=c1\ccc([N-]C(=O)c2ccc(C[N-]C(=O)C3CC3)cc2)c[n-]1 (nonaromatic ring conformer: 307.45145552375106 kcal/mol)

>  <smiles>  (80) 
N=c1ccc(NC(=O)c2ccc(CNC(=O)C3CC3)cc2)c[nH]1

>  <score_type>  (80) 
oracle

>  <origin>  (80) 
adg

>  <m_score__min__energy>  (80) 
-11.66

>  <m_primary>  (80) 
energy

$$$$
80:0
     RDKit          3D

 49 52  0  0  0  0  0  0  0  0999 V2000
   60.7710   27.3000   51.1090 C   0  0  0  0  0  0  0  0  0  0  0  0
   60.7740   27.1730   49.5870 C   0  0  0  0  0  0  0  0  0  0  0  0
   59.9320   28.2010   48.9510 N   0  0  0  0  0  0  0  0  0  0  0  0
   58.8840   27.7770   48.0100 C   0  0  0  0  0  0  0  0  0  0  0  0
   59.2520   28.0840   46.5490 C   0  0  0  0  0  0  0  0  0  0  0  0
   58.3710   29.1220   45.9600 N   0  0  0  0  0  0  0  0  0  0  0  0
   57.1990   28.7320   45.3490 C   0  0  0  0  0  0  0  0  0  0  0  0
   56.8880   27.5110   45.2630 O   0  0  0  0  0  0  0  0  0  0  0  0
   56.3280   29.6880   44.8170 C   0  0  0  0  0  0  0  0  0  0  0  0
   55.2520   29.3380   44.2630 O   0  0  0  0  0  0  0  0  0  0  0  0
   56.6400   31.0010   44.9010 N   0  0  0  0  0  0  0  0  0  0  0  0
   57.7850   31.4180   45.4880 C   0  0  0  0  0  0  0  0  0  0  0  0
   58.0660   32.7860   45.5430 C   0  0  0  0  0  0  0  0  0  0  0  0
   59.2400   33.2460   46.1390 C   0  0  0  0  0  0  0  0  0  0  0  0
   59.5700   34.9740   46.1010 Cl  0  0  0  0  0  0  0  0  0  0  0  0
   60.1520   32.3280   46.6940 C   0  0  0  0  0  0  0  0  0  0  0  0
   61.3640   32.7720   47.3280 N   0  0  0  0  0  0  0  0  0  0  0  0
   61.4670   33.7650   48.2340 C   0  0  0  0  0  0  0  0  0  0  0  0
   62.7920   33.9550   48.5700 C   0  0  0  0  0  0  0  0  0  0  0  0
   63.5210   33.0480   47.8260 C   0  0  0  0  0  0  0  0  0  0  0  0
   62.6140   32.3390   47.0660 C   0  0  0  0  0  0  0  0  0  0  0  0
   59.8770   30.9520   46.6240 C   0  0  0  0  0  0  0  0  0  0  0  0
   58.6860   30.4700   46.0290 C   0  0  0  0  0  0  0  0  0  0  0  0
   59.8450   29.5170   49.5320 C   0  0  0  0  0  0  0  0  0  0  0  0
   58.5920   30.1030   49.7790 C   0  0  0  0  0  0  0  0  0  0  0  0
   58.5090   31.3780   50.3450 C   0  0  0  0  0  0  0  0  0  0  0  0
   59.6720   32.0770   50.6740 C   0  0  0  0  0  0  0  0  0  0  0  0
   60.9220   31.5020   50.4360 C   0  0  0  0  0  0  0  0  0  0  0  0
   61.0110   30.2280   49.8680 C   0  0  0  0  0  0  0  0  0  0  0  0
   60.7947   26.2973   51.5607 H   0  0  0  0  0  0  0  0  0  0  0  0
   61.6560   27.8683   51.4313 H   0  0  0  0  0  0  0  0  0  0  0  0
   59.8602   27.8259   51.4313 H   0  0  0  0  0  0  0  0  0  0  0  0
   61.8061   27.2825   49.2225 H   0  0  0  0  0  0  0  0  0  0  0  0
   60.3651   26.1859   49.3253 H   0  0  0  0  0  0  0  0  0  0  0  0
   58.7312   26.6928   48.1159 H   0  0  0  0  0  0  0  0  0  0  0  0
   57.9687   28.3374   48.2512 H   0  0  0  0  0  0  0  0  0  0  0  0
   60.2926   28.4387   46.5120 H   0  0  0  0  0  0  0  0  0  0  0  0
   59.1254   27.1601   45.9656 H   0  0  0  0  0  0  0  0  0  0  0  0
   57.3549   33.5063   45.1124 H   0  0  0  0  0  0  0  0  0  0  0  0
   60.6220   34.3377   48.6438 H   0  0  0  0  0  0  0  0  0  0  0  0
   63.1897   34.6858   49.2896 H   0  0  0  0  0  0  0  0  0  0  0  0
   64.6131   32.9165   47.8373 H   0  0  0  0  0  0  0  0  0  0  0  0
   62.8714   31.5411   46.3539 H   0  0  0  0  0  0  0  0  0  0  0  0
   60.6008   30.2354   47.0394 H   0  0  0  0  0  0  0  0  0  0  0  0
   57.6721   29.5556   49.5256 H   0  0  0  0  0  0  0  0  0  0  0  0
   57.5247   31.8322   50.5318 H   0  0  0  0  0  0  0  0  0  0  0  0
   59.6036   33.0800   51.1204 H   0  0  0  0  0  0  0  0  0  0  0  0
   61.8381   32.0526   50.6959 H   0  0  0  0  0  0  0  0  0  0  0  0
   61.9981   29.7792   49.6828 H   0  0  0  0  0  0  0  0  0  0  0  0
  1  2  1  0
  2  3  1  0
  3  4  1  0
  4  5  1  0
  5  6  1  0
  6  7  1  0
  7  8  2  0
  7  9  1  0
  9 10  2  0
  9 11  1  0
 11 12  1  0
 12 13  2  0
 13 14  1  0
 14 15  1  0
 14 16  2  0
 16 17  1  0
 17 18  1  0
 18 19  2  0
 19 20  1  0
 20 21  2  0
 16 22  1  0
 22 23  2  0
  3 24  1  0
 24 25  2  0
 25 26  1  0
 26 27  2  0
 27 28  1  0
 28 29  2  0
 23  6  1  0
 29 24  1  0
 23 12  1  0
 21 17  1  0
  1 30  1  0
  1 31  1  0
  1 32  1  0
  2 33  1  0
  2 34  1  0
  4 35  1  0
  4 36  1  0
  5 37  1  0
  5 38  1  0
 13 39  1  0
 18 40  1  0
 19 41  1  0
 20 42  1  0
 21 43  1  0
 22 44  1  0
 25 45  1  0
 26 46  1  0
 27 47  1  0
 28 48  1  0
 29 49  1  0
M  CHG  1  11  -1
M  END
>  <UniqueID>  (81) 
70

>  <SMILES>  (81) 
CCN(CCn1c(=O)c(=O)[n-]c2cc(Cl)c(-n3cccc3)cc21)c1ccccc1

>  <Energy>  (81) 
95.93593215876217

>  <Genealogy>  (81) 
CCN(CCn1c(=O)c(=O)[n-]c2cc(Cl)c(-n3cccc3)cc21)c1ccccc1 (protonated)
CCN(CCn1c(=O)c(=O)[n-]c2cc(Cl)c(-n3cccc3)cc21)c1ccccc1 (3D coordinates assigned)
CCN(CCn1c(=O)c(=O)[n-]c2cc(Cl)c(-n3cccc3)cc21)c1ccccc1 (optimized conformer: 95.93593215876217 kcal/mol)

>  <smiles>  (81) 
CCN(CCn1c(=O)c(=O)[nH]c2cc(Cl)c(-n3cccc3)cc21)c1ccccc1

>  <score_type>  (81) 
oracle

>  <origin>  (81) 
adg

>  <m_score__min__energy>  (81) 
-9.4800000000000004

>  <m_primary>  (81) 
energy

$$$$
81:0
     RDKit          3D

 56 59  0  0  0  0  0  0  0  0999 V2000
   55.5230   30.8770   44.2320 O   0  0  0  0  0  0  0  0  0  0  0  0
   56.2800   29.8940   44.4540 C   0  0  0  0  0  0  0  0  0  0  0  0
   57.7250   29.9830   44.0490 C   0  0  0  0  0  0  0  0  0  0  0  0
   58.4920   30.6500   45.1000 N   0  0  0  0  0  0  0  0  0  0  0  0
   58.1200   31.7080   45.8530 C   0  0  0  0  0  0  0  0  0  0  0  0
   56.9390   32.4340   45.6930 O   0  0  0  0  0  0  0  0  0  0  0  0
   59.0710   31.9350   46.8290 C   0  0  0  0  0  0  0  0  0  0  0  0
   58.9550   32.9330   47.9490 C   0  0  0  0  0  0  0  0  0  0  0  0
   59.7470   34.2150   47.6520 C   0  0  0  0  0  0  0  0  0  0  0  0
   61.2350   33.9950   47.7620 C   0  0  0  0  0  0  0  0  0  0  0  0
   62.0200   33.8520   46.6040 C   0  0  0  0  0  0  0  0  0  0  0  0
   63.3880   33.5850   46.7090 C   0  0  0  0  0  0  0  0  0  0  0  0
   63.9820   33.4640   47.9680 C   0  0  0  0  0  0  0  0  0  0  0  0
   63.2080   33.5990   49.1240 C   0  0  0  0  0  0  0  0  0  0  0  0
   61.8380   33.8600   49.0230 C   0  0  0  0  0  0  0  0  0  0  0  0
   60.0380   30.9940   46.7030 N   0  0  0  0  0  0  0  0  0  0  0  0
   61.2570   30.8380   47.5030 C   0  0  0  0  0  0  0  0  0  0  0  0
   61.0410   29.8280   48.5990 C   0  0  0  0  0  0  0  0  0  0  0  0
   61.2760   30.1770   49.9390 C   0  0  0  0  0  0  0  0  0  0  0  0
   61.0660   29.2450   50.9590 C   0  0  0  0  0  0  0  0  0  0  0  0
   60.6250   27.9560   50.6500 C   0  0  0  0  0  0  0  0  0  0  0  0
   60.3980   27.5950   49.3180 C   0  0  0  0  0  0  0  0  0  0  0  0
   60.6050   28.5270   48.2960 C   0  0  0  0  0  0  0  0  0  0  0  0
   59.6540   30.2370   45.6500 C   0  0  0  0  0  0  0  0  0  0  0  0
   60.3020   29.2350   45.2380 O   0  0  0  0  0  0  0  0  0  0  0  0
   55.7090   28.6880   44.9820 N   0  0  0  0  0  0  0  0  0  0  0  0
   56.4270   27.6240   45.6180 C   0  0  0  0  0  0  0  0  0  0  0  0
   57.8260   27.6930   45.6720 C   0  0  0  0  0  0  0  0  0  0  0  0
   58.5620   26.6640   46.2680 C   0  0  0  0  0  0  0  0  0  0  0  0
   57.9060   25.5490   46.7950 C   0  0  0  0  0  0  0  0  0  0  0  0
   56.5140   25.4550   46.7160 C   0  0  0  0  0  0  0  0  0  0  0  0
   55.7720   26.4800   46.1160 C   0  0  0  0  0  0  0  0  0  0  0  0
   54.3930   26.3410   45.9970 O   0  0  0  0  0  0  0  0  0  0  0  0
   58.1238   28.9698   43.8925 H   0  0  0  0  0  0  0  0  0  0  0  0
   57.8067   30.5607   43.1165 H   0  0  0  0  0  0  0  0  0  0  0  0
   56.0400   31.9790   45.6100 H   0  0  0  0  0  0  0  0  0  0  0  0
   57.8950   33.1927   48.0867 H   0  0  0  0  0  0  0  0  0  0  0  0
   59.3705   32.4765   48.8594 H   0  0  0  0  0  0  0  0  0  0  0  0
   59.5116   34.5500   46.6310 H   0  0  0  0  0  0  0  0  0  0  0  0
   59.4587   34.9736   48.3946 H   0  0  0  0  0  0  0  0  0  0  0  0
   61.5556   33.9507   45.6117 H   0  0  0  0  0  0  0  0  0  0  0  0
   63.9971   33.4701   45.8003 H   0  0  0  0  0  0  0  0  0  0  0  0
   65.0603   33.2622   48.0494 H   0  0  0  0  0  0  0  0  0  0  0  0
   63.6770   33.4998   50.1141 H   0  0  0  0  0  0  0  0  0  0  0  0
   61.2305   33.9599   49.9345 H   0  0  0  0  0  0  0  0  0  0  0  0
   62.0761   30.4972   46.8526 H   0  0  0  0  0  0  0  0  0  0  0  0
   61.5122   31.8071   47.9566 H   0  0  0  0  0  0  0  0  0  0  0  0
   61.6273   31.1895   50.1870 H   0  0  0  0  0  0  0  0  0  0  0  0
   61.2482   29.5268   52.0066 H   0  0  0  0  0  0  0  0  0  0  0  0
   60.4563   27.2249   51.4544 H   0  0  0  0  0  0  0  0  0  0  0  0
   60.0567   26.5781   49.0742 H   0  0  0  0  0  0  0  0  0  0  0  0
   60.4255   28.2401   47.2494 H   0  0  0  0  0  0  0  0  0  0  0  0
   58.3478   28.5613   45.2432 H   0  0  0  0  0  0  0  0  0  0  0  0
   59.6585   26.7327   46.3219 H   0  0  0  0  0  0  0  0  0  0  0  0
   58.4853   24.7448   47.2723 H   0  0  0  0  0  0  0  0  0  0  0  0
   55.9996   24.5734   47.1262 H   0  0  0  0  0  0  0  0  0  0  0  0
  1  2  2  0
  2  3  1  0
  3  4  1  0
  4  5  1  0
  5  6  1  0
  5  7  2  0
  7  8  1  0
  8  9  1  0
  9 10  1  0
 10 11  2  0
 11 12  1  0
 12 13  2  0
 13 14  1  0
 14 15  2  0
  7 16  1  0
 16 17  1  0
 17 18  1  0
 18 19  2  0
 19 20  1  0
 20 21  2  0
 21 22  1  0
 22 23  2  0
 16 24  1  0
 24 25  2  0
  2 26  1  0
 26 27  1  0
 27 28  2  0
 28 29  1  0
 29 30  2  0
 30 31  1  0
 31 32  2  0
 32 33  1  0
 24  4  1  0
 32 27  1  0
 15 10  1  0
 23 18  1  0
  3 34  1  0
  3 35  1  0
  6 36  1  0
  8 37  1  0
  8 38  1  0
  9 39  1  0
  9 40  1  0
 11 41  1  0
 12 42  1  0
 13 43  1  0
 14 44  1  0
 15 45  1  0
 17 46  1  0
 17 47  1  0
 19 48  1  0
 20 49  1  0
 21 50  1  0
 22 51  1  0
 23 52  1  0
 28 53  1  0
 29 54  1  0
 30 55  1  0
 31 56  1  0
M  CHG  2  26  -1  33  -1
M  END
>  <UniqueID>  (82) 
71

>  <SMILES>  (82) 
O=C(Cn1c(O)c(CCc2ccccc2)n(Cc2ccccc2)c1=O)[N-]c1ccccc1[O-]

>  <Energy>  (82) 
91.49051248371813

>  <Genealogy>  (82) 
O=C(Cn1c(O)c(CCc2ccccc2)n(Cc2ccccc2)c1=O)[N-]c1ccccc1[O-] (protonated)
O=C(Cn1c(O)c(CCc2ccccc2)n(Cc2ccccc2)c1=O)[N-]c1ccccc1[O-] (3D coordinates assigned)
O=C(Cn1c(O)c(CCc2ccccc2)n(Cc2ccccc2)c1=O)[N-]c1ccccc1[O-] (optimized conformer: 91.49051248371813 kcal/mol)

>  <smiles>  (82) 
O=C(Cn1c(O)c(CCc2ccccc2)n(Cc2ccccc2)c1=O)Nc1ccccc1O

>  <score_type>  (82) 
oracle

>  <origin>  (82) 
adg

>  <m_score__min__energy>  (82) 
-15.460000000000001

>  <m_primary>  (82) 
energy

$$$$
82:0
     RDKit          3D

 64 68  0  0  0  0  0  0  0  0999 V2000
   51.3340   24.1120   45.4870 O   0  0  0  0  0  0  0  0  0  0  0  0
   52.2200   23.3380   45.0310 C   0  0  0  0  0  0  0  0  0  0  0  0
   53.3240   23.8740   44.1680 C   0  0  0  0  0  0  0  0  0  0  0  0
   54.4000   24.4260   44.9890 N   0  0  0  0  0  0  0  0  0  0  0  0
   55.6400   23.9280   45.1290 C   0  0  0  0  0  0  0  0  0  0  0  0
   56.3140   24.8160   45.9390 C   0  0  0  0  0  0  0  0  0  0  0  0
   57.7290   24.7070   46.4070 C   0  0  0  0  0  0  0  0  0  0  0  0
   58.5910   25.4500   45.5000 N   0  0  0  0  0  0  0  0  0  0  0  0
   58.0860   26.2770   44.4400 C   0  0  0  0  0  0  0  0  0  0  0  0
   57.7510   25.7610   43.3380 O   0  0  0  0  0  0  0  0  0  0  0  0
   57.9930   27.7400   44.6270 C   0  0  0  0  0  0  0  0  0  0  0  0
   57.5030   28.5620   43.5950 C   0  0  0  0  0  0  0  0  0  0  0  0
   57.4390   29.9460   43.7650 C   0  0  0  0  0  0  0  0  0  0  0  0
   57.8410   30.5300   44.9850 C   0  0  0  0  0  0  0  0  0  0  0  0
   57.7690   31.9150   45.2180 C   0  0  0  0  0  0  0  0  0  0  0  0
   57.3690   32.6810   44.2930 O   0  0  0  0  0  0  0  0  0  0  0  0
   58.1150   32.4310   46.4470 N   0  0  0  0  0  0  0  0  0  0  0  0
   57.9430   33.8730   46.7320 C   0  0  0  0  0  0  0  0  0  0  0  0
   59.1490   34.6850   46.2360 C   0  0  0  0  0  0  0  0  0  0  0  0
   60.3960   34.3560   47.0160 C   0  0  0  0  0  0  0  0  0  0  0  0
   60.4270   34.5260   48.4130 C   0  0  0  0  0  0  0  0  0  0  0  0
   61.5550   34.1510   49.1440 C   0  0  0  0  0  0  0  0  0  0  0  0
   62.6680   33.6140   48.4880 C   0  0  0  0  0  0  0  0  0  0  0  0
   62.6500   33.4440   47.1020 C   0  0  0  0  0  0  0  0  0  0  0  0
   61.5160   33.8060   46.3660 C   0  0  0  0  0  0  0  0  0  0  0  0
   58.5660   31.5890   47.4370 C   0  0  0  0  0  0  0  0  0  0  0  0
   58.8900   32.0380   48.5690 O   0  0  0  0  0  0  0  0  0  0  0  0
   58.6620   30.2560   47.2150 N   0  0  0  0  0  0  0  0  0  0  0  0
   58.3120   29.7070   46.0250 C   0  0  0  0  0  0  0  0  0  0  0  0
   58.4010   28.3240   45.8410 C   0  0  0  0  0  0  0  0  0  0  0  0
   55.4790   25.8270   46.2550 N   0  0  0  0  0  0  0  0  0  0  0  0
   54.3220   25.5640   45.6620 N   0  0  0  0  0  0  0  0  0  0  0  0
   52.1350   21.9280   45.2630 N   0  0  0  0  0  0  0  0  0  0  0  0
   52.3280   21.3190   46.5770 C   0  0  0  0  0  0  0  0  0  0  0  0
   53.7480   21.5100   47.0350 C   0  0  0  0  0  0  0  0  0  0  0  0
   54.0300   22.3960   48.0880 C   0  0  0  0  0  0  0  0  0  0  0  0
   55.3490   22.6010   48.5080 C   0  0  0  0  0  0  0  0  0  0  0  0
   56.3980   21.9180   47.8810 C   0  0  0  0  0  0  0  0  0  0  0  0
   56.1280   21.0310   46.8310 C   0  0  0  0  0  0  0  0  0  0  0  0
   54.8080   20.8280   46.4070 C   0  0  0  0  0  0  0  0  0  0  0  0
   53.7251   23.0592   43.5473 H   0  0  0  0  0  0  0  0  0  0  0  0
   52.9185   24.6744   43.5317 H   0  0  0  0  0  0  0  0  0  0  0  0
   56.0359   23.0015   44.6876 H   0  0  0  0  0  0  0  0  0  0  0  0
   57.8145   25.1248   47.4210 H   0  0  0  0  0  0  0  0  0  0  0  0
   58.0328   23.6499   46.4231 H   0  0  0  0  0  0  0  0  0  0  0  0
   57.1685   28.1112   42.6490 H   0  0  0  0  0  0  0  0  0  0  0  0
   57.0742   30.5830   42.9458 H   0  0  0  0  0  0  0  0  0  0  0  0
   57.0353   34.2331   46.2256 H   0  0  0  0  0  0  0  0  0  0  0  0
   57.8581   34.0052   47.8207 H   0  0  0  0  0  0  0  0  0  0  0  0
   59.3212   34.4564   45.1739 H   0  0  0  0  0  0  0  0  0  0  0  0
   58.9265   35.7531   46.3760 H   0  0  0  0  0  0  0  0  0  0  0  0
   59.5575   34.9567   48.9312 H   0  0  0  0  0  0  0  0  0  0  0  0
   61.5691   34.2777   50.2366 H   0  0  0  0  0  0  0  0  0  0  0  0
   63.5589   33.3252   49.0650 H   0  0  0  0  0  0  0  0  0  0  0  0
   63.5279   33.0252   46.5883 H   0  0  0  0  0  0  0  0  0  0  0  0
   61.5003   33.6600   45.2758 H   0  0  0  0  0  0  0  0  0  0  0  0
   58.7920   27.6887   46.6494 H   0  0  0  0  0  0  0  0  0  0  0  0
   51.6465   21.7912   47.2999 H   0  0  0  0  0  0  0  0  0  0  0  0
   52.1151   20.2420   46.5080 H   0  0  0  0  0  0  0  0  0  0  0  0
   53.2085   22.9322   48.5857 H   0  0  0  0  0  0  0  0  0  0  0  0
   55.5617   23.2990   49.3311 H   0  0  0  0  0  0  0  0  0  0  0  0
   57.4344   22.0779   48.2130 H   0  0  0  0  0  0  0  0  0  0  0  0
   56.9523   20.4937   46.3392 H   0  0  0  0  0  0  0  0  0  0  0  0
   54.5989   20.1331   45.5803 H   0  0  0  0  0  0  0  0  0  0  0  0
  1  2  2  0
  2  3  1  0
  3  4  1  0
  4  5  1  0
  5  6  2  0
  6  7  1  0
  7  8  1  0
  8  9  1  0
  9 10  2  0
  9 11  1  0
 11 12  2  0
 12 13  1  0
 13 14  2  0
 14 15  1  0
 15 16  2  0
 15 17  1  0
 17 18  1  0
 18 19  1  0
 19 20  1  0
 20 21  2  0
 21 22  1  0
 22 23  2  0
 23 24  1  0
 24 25  2  0
 17 26  1  0
 26 27  2  0
 26 28  1  0
 28 29  1  0
 29 30  2  0
  6 31  1  0
 31 32  2  0
  2 33  1  0
 33 34  1  0
 34 35  1  0
 35 36  2  0
 36 37  1  0
 37 38  2  0
 38 39  1  0
 39 40  2  0
 32  4  1  0
 40 35  1  0
 30 11  1  0
 29 14  1  0
 25 20  1  0
  3 41  1  0
  3 42  1  0
  5 43  1  0
  7 44  1  0
  7 45  1  0
 12 46  1  0
 13 47  1  0
 18 48  1  0
 18 49  1  0
 19 50  1  0
 19 51  1  0
 21 52  1  0
 22 53  1  0
 23 54  1  0
 24 55  1  0
 25 56  1  0
 30 57  1  0
 34 58  1  0
 34 59  1  0
 36 60  1  0
 37 61  1  0
 38 62  1  0
 39 63  1  0
 40 64  1  0
M  CHG  3   8  -1  28  -1  33  -1
M  END
>  <UniqueID>  (83) 
72

>  <SMILES>  (83) 
O=C(Cn1cc(C[N-]C(=O)c2ccc3c(=O)n(CCc4ccccc4)c(=O)[n-]c3c2)nn1)[N-]Cc1ccccc1

>  <Energy>  (83) 
105.21872540364963

>  <Genealogy>  (83) 
O=C(Cn1cc(C[N-]C(=O)c2ccc3c(=O)n(CCc4ccccc4)c(=O)[n-]c3c2)nn1)[N-]Cc1ccccc1 (protonated)
O=C(Cn1cc(C[N-]C(=O)c2ccc3c(=O)n(CCc4ccccc4)c(=O)[n-]c3c2)nn1)[N-]Cc1ccccc1 (3D coordinates assigned)
O=C(Cn1cc(C[N-]C(=O)c2ccc3c(=O)n(CCc4ccccc4)c(=O)[n-]c3c2)nn1)[N-]Cc1ccccc1 (optimized conformer: 105.21872540364963 kcal/mol)

>  <smiles>  (83) 
O=C(Cn1cc(CNC(=O)c2ccc3c(=O)n(CCc4ccccc4)c(=O)[nH]c3c2)nn1)NCc1ccccc1

>  <score_type>  (83) 
oracle

>  <origin>  (83) 
adg

>  <m_score__min__energy>  (83) 
-14.09

>  <m_primary>  (83) 
energy

$$$$
83:0
     RDKit          3D

 73 78  0  0  0  0  0  0  0  0999 V2000
   60.4582   29.4283   55.2652 H   0  0  0  0  0  0  0  0  0  0  0  0
   60.0940   29.3100   54.2340 C   0  0  0  0  0  0  0  0  0  0  0  0
   59.1030   30.1200   53.8300 C   0  0  0  0  0  0  0  0  0  0  0  0
   58.5529   30.6732   54.6055 H   0  0  0  0  0  0  0  0  0  0  0  0
   58.6930   30.3270   52.4270 C   0  0  0  0  0  0  0  0  0  0  0  0
   57.9760   29.4540   51.6760 N   0  0  0  0  0  0  0  0  0  0  0  0
   57.8110   29.9640   50.4580 N   0  0  0  0  0  0  0  0  0  0  0  0
   58.4350   31.1540   50.4380 C   0  0  0  0  0  0  0  0  0  0  0  0
   58.4880   32.0700   49.3910 C   0  0  0  0  0  0  0  0  0  0  0  0
   58.0209   31.8492   48.4199 H   0  0  0  0  0  0  0  0  0  0  0  0
   59.1610   33.2930   49.6150 C   0  0  0  0  0  0  0  0  0  0  0  0
   59.2710   34.2810   48.5770 N   0  0  0  0  0  0  0  0  0  0  0  0
   59.5860   35.2400   48.8460 H   0  0  0  0  0  0  0  0  0  0  0  0
   58.9990   34.0220   47.1900 C   0  0  0  0  0  0  0  0  0  0  0  0
   59.6300   34.8070   46.2140 C   0  0  0  0  0  0  0  0  0  0  0  0
   60.3294   35.5994   46.5188 H   0  0  0  0  0  0  0  0  0  0  0  0
   59.3770   34.5900   44.8600 C   0  0  0  0  0  0  0  0  0  0  0  0
   59.8956   35.1920   44.0993 H   0  0  0  0  0  0  0  0  0  0  0  0
   58.4640   33.6070   44.4710 C   0  0  0  0  0  0  0  0  0  0  0  0
   58.2767   33.4291   43.4018 H   0  0  0  0  0  0  0  0  0  0  0  0
   57.7850   32.8460   45.4310 C   0  0  0  0  0  0  0  0  0  0  0  0
   56.8460   31.8610   44.9680 N   0  0  0  0  0  0  0  0  0  0  0  0
   57.0130   30.4360   44.9210 C   0  0  0  0  0  0  0  0  0  0  0  0
   57.0190   29.7510   45.9760 O   0  0  0  0  0  0  0  0  0  0  0  0
   57.0430   29.7690   43.6140 C   0  0  0  0  0  0  0  0  0  0  0  0
   56.5840   30.3650   42.6000 O   0  0  0  0  0  0  0  0  0  0  0  0
   57.5640   28.4360   43.4960 N   0  0  0  0  0  0  0  0  0  0  0  0
   58.3860   27.8050   44.5230 C   0  0  0  0  0  0  0  0  0  0  0  0
   59.3197   27.4493   44.0630 H   0  0  0  0  0  0  0  0  0  0  0  0
   58.5899   28.5518   45.3045 H   0  0  0  0  0  0  0  0  0  0  0  0
   57.6680   26.6140   45.1760 C   0  0  0  0  0  0  0  0  0  0  0  0
   56.6630   26.5255   44.7377 H   0  0  0  0  0  0  0  0  0  0  0  0
   58.2744   25.7159   44.9870 H   0  0  0  0  0  0  0  0  0  0  0  0
   57.5290   26.7680   46.6950 C   0  0  0  0  0  0  0  0  0  0  0  0
   56.4809   26.9951   46.9398 H   0  0  0  0  0  0  0  0  0  0  0  0
   57.8397   25.8278   47.1740 H   0  0  0  0  0  0  0  0  0  0  0  0
   58.3800   27.8470   47.1880 N   0  0  0  0  0  0  0  0  0  0  0  0
   57.9660   28.8040   47.2500 H   0  0  0  0  0  0  0  0  0  0  0  0
   59.7140   27.6280   47.6680 C   0  0  0  0  0  0  0  0  0  0  0  0
   60.3010   26.5440   47.4150 O   0  0  0  0  0  0  0  0  0  0  0  0
   60.3920   28.6500   48.4830 C   0  0  0  0  0  0  0  0  0  0  0  0
   60.7540   28.5370   49.8240 C   0  0  0  0  0  0  0  0  0  0  0  0
   60.5276   27.6702   50.4623 H   0  0  0  0  0  0  0  0  0  0  0  0
   61.4210   29.6380   50.2320 N   0  0  0  0  0  0  0  0  0  0  0  0
   61.8360   29.7950   51.1730 H   0  0  0  0  0  0  0  0  0  0  0  0
   61.4780   30.4550   49.1660 C   0  0  0  0  0  0  0  0  0  0  0  0
   62.0790   31.7140   49.1030 C   0  0  0  0  0  0  0  0  0  0  0  0
   62.5697   32.1532   49.9841 H   0  0  0  0  0  0  0  0  0  0  0  0
   62.0370   32.4030   47.8770 C   0  0  0  0  0  0  0  0  0  0  0  0
   62.4990   33.3977   47.7927 H   0  0  0  0  0  0  0  0  0  0  0  0
   61.4040   31.8240   46.7520 C   0  0  0  0  0  0  0  0  0  0  0  0
   61.3780   32.3704   45.7977 H   0  0  0  0  0  0  0  0  0  0  0  0
   60.8070   30.5520   46.8470 C   0  0  0  0  0  0  0  0  0  0  0  0
   60.3103   30.0936   45.9791 H   0  0  0  0  0  0  0  0  0  0  0  0
   60.8640   29.8890   48.0760 C   0  0  0  0  0  0  0  0  0  0  0  0
   58.0720   33.0390   46.7950 C   0  0  0  0  0  0  0  0  0  0  0  0
   57.5709   32.4205   47.5542 H   0  0  0  0  0  0  0  0  0  0  0  0
   59.7940   33.5300   50.8620 C   0  0  0  0  0  0  0  0  0  0  0  0
   60.3545   34.4634   51.0187 H   0  0  0  0  0  0  0  0  0  0  0  0
   59.7130   32.5860   51.8990 C   0  0  0  0  0  0  0  0  0  0  0  0
   60.1863   32.7689   52.8750 H   0  0  0  0  0  0  0  0  0  0  0  0
   59.0120   31.4110   51.6460 C   0  0  0  0  0  0  0  0  0  0  0  0
   60.7330   28.2720   53.4000 C   0  0  0  0  0  0  0  0  0  0  0  0
   60.0210   27.1360   52.9710 C   0  0  0  0  0  0  0  0  0  0  0  0
   58.9558   27.0272   53.2230 H   0  0  0  0  0  0  0  0  0  0  0  0
   60.6680   26.1450   52.2240 C   0  0  0  0  0  0  0  0  0  0  0  0
   60.1093   25.2589   51.8883 H   0  0  0  0  0  0  0  0  0  0  0  0
   62.0230   26.2780   51.9030 C   0  0  0  0  0  0  0  0  0  0  0  0
   62.5255   25.5014   51.3078 H   0  0  0  0  0  0  0  0  0  0  0  0
   62.7390   27.3970   52.3380 C   0  0  0  0  0  0  0  0  0  0  0  0
   63.8042   27.5019   52.0842 H   0  0  0  0  0  0  0  0  0  0  0  0
   62.0990   28.3840   53.0970 C   0  0  0  0  0  0  0  0  0  0  0  0
   62.6698   29.2522   53.4580 H   0  0  0  0  0  0  0  0  0  0  0  0
  1  2  1  0
  2  3  2  0
  3  4  1  0
  3  5  1  0
  5  6  1  0
  6  7  1  0
  7  8  2  0
  8  9  1  0
  9 10  1  0
  9 11  2  0
 11 12  1  0
 12 13  1  0
 12 14  1  0
 14 15  2  0
 15 16  1  0
 15 17  1  0
 17 18  1  0
 17 19  2  0
 19 20  1  0
 19 21  1  0
 21 22  1  0
 22 23  1  0
 23 24  2  0
 23 25  1  0
 25 26  2  0
 25 27  1  0
 27 28  1  0
 28 29  1  0
 28 30  1  0
 28 31  1  0
 31 32  1  0
 31 33  1  0
 31 34  1  0
 34 35  1  0
 34 36  1  0
 34 37  1  0
 37 38  1  0
 37 39  1  0
 39 40  2  0
 39 41  1  0
 41 42  2  0
 42 43  1  0
 42 44  1  0
 44 45  1  0
 44 46  1  0
 46 47  2  0
 47 48  1  0
 47 49  1  0
 49 50  1  0
 49 51  2  0
 51 52  1  0
 51 53  1  0
 53 54  1  0
 53 55  2  0
 21 56  2  0
 56 57  1  0
 11 58  1  0
 58 59  1  0
 58 60  2  0
 60 61  1  0
 60 62  1  0
  2 63  1  0
 63 64  2  0
 64 65  1  0
 64 66  1  0
 66 67  1  0
 66 68  2  0
 68 69  1  0
 68 70  1  0
 70 71  1  0
 70 72  2  0
 72 73  1  0
 62  5  2  0
 72 63  1  0
 62  8  1  0
 56 14  1  0
 55 41  1  0
 55 46  1  0
M  CHG  3   6  -1  22  -1  27  -1
M  END
>  <UniqueID>  (84) 
73

>  <SMILES>  (84) 
O=C([N-]CCCNC(=O)c1c[nH]c2ccccc12)C(=O)[N-]c1cccc(Nc2ccc3c(/C=C\c4ccccc4)[n-]nc3c2)c1

>  <Energy>  (84) 
155.36163889734726

>  <Genealogy>  (84) 
O=C([N-]CCCNC(=O)c1c[nH]c2ccccc12)C(=O)[N-]c1cccc(Nc2ccc3c(C=Cc4ccccc4)[n-]nc3c2)c1 (protonated)
O=C([N-]CCCNC(=O)c1c[nH]c2ccccc12)C(=O)[N-]c1cccc(Nc2ccc3c(/C=C\c4ccccc4)[n-]nc3c2)c1 (cis-trans isomerization)
O=C([N-]CCCNC(=O)c1c[nH]c2ccccc12)C(=O)[N-]c1cccc(Nc2ccc3c(/C=C\c4ccccc4)[n-]nc3c2)c1 (3D coordinates assigned)
O=C([N-]CCCNC(=O)c1c[nH]c2ccccc12)C(=O)[N-]c1cccc(Nc2ccc3c(/C=C\c4ccccc4)[n-]nc3c2)c1 (optimized conformer: 155.36163889734726 kcal/mol)

>  <smiles>  (84) 
O=C(NCCCNC(=O)c1c[nH]c2ccccc12)C(=O)Nc1cccc(Nc2ccc3c(C=Cc4ccccc4)[nH]nc3c2)c1

>  <score_type>  (84) 
oracle

>  <origin>  (84) 
adg

>  <m_score__min__energy>  (84) 
-13.710000000000001

>  <m_primary>  (84) 
energy

$$$$
84:0
     RDKit          3D

 50 52  0  0  1  0  0  0  0  0999 V2000
   61.7360   33.3640   46.8740 C   0  0  0  0  0  0  0  0  0  0  0  0
   60.6960   32.4710   46.7850 O   0  0  0  0  0  0  0  0  0  0  0  0
   59.5000   32.4980   46.1730 C   0  0  0  0  0  0  0  0  0  0  0  0
   58.7520   33.6740   46.1760 C   0  0  0  0  0  0  0  0  0  0  0  0
   57.5200   33.6910   45.5440 C   0  0  0  0  0  0  0  0  0  0  0  0
   57.0240   32.5500   44.9090 C   0  0  0  0  0  0  0  0  0  0  0  0
   57.7960   31.4230   44.9350 C   0  0  0  0  0  0  0  0  0  0  0  0
   57.2670   30.2030   44.2060 C   0  0  0  0  0  0  0  0  0  0  0  0
   57.2120   25.1400   46.5850 N   0  0  0  0  0  0  0  0  0  0  0  0
   57.5230   26.3740   46.6860 C   0  0  0  0  0  0  0  0  0  0  0  0
   58.1510   29.0110   46.9060 N   0  0  0  0  0  0  0  0  0  0  0  0
   58.7660   28.1340   47.7430 C   0  0  0  0  0  0  0  0  0  0  0  0
   59.7230   28.6750   48.6980 C   0  0  0  0  0  0  0  0  0  0  0  0
   60.1820   30.0280   48.5900 N   0  0  0  0  0  0  0  0  0  0  0  0
   60.1640   27.9810   49.6270 O   0  0  0  0  0  0  0  0  0  0  0  0
   58.4570   26.7940   47.6410 C   0  0  0  0  0  0  0  0  0  0  0  0
   57.2520   28.5480   45.9950 C   0  0  0  0  0  0  0  0  0  0  0  0
   56.6790   29.3830   45.2320 N   0  0  0  0  0  0  0  0  0  0  0  0
   56.1320   24.7980   45.6920 C   0  0  0  0  0  0  0  0  0  0  0  0
   55.0340   25.3890   45.9340 O   0  0  0  0  0  0  0  0  0  0  0  0
   56.2820   23.8550   44.6050 C   0  0  0  0  0  0  0  0  0  0  0  0
   56.6160   24.1840   43.3010 C   0  0  0  0  0  0  0  0  0  0  0  0
   56.6450   22.9940   42.6230 N   0  0  0  0  0  0  0  0  0  0  0  0
   56.3490   21.9930   43.4490 C   0  0  0  0  0  0  0  0  0  0  0  0
   56.2710   20.6400   43.1570 O   0  0  0  0  0  0  0  0  0  0  0  0
   56.1130   22.4940   44.7090 C   0  0  0  0  0  0  0  0  0  0  0  0
   56.9390   27.2540   45.8810 N   0  0  0  0  0  0  0  0  0  0  0  0
   59.0360   31.3480   45.5510 C   0  0  0  0  0  0  0  0  0  0  0  0
   59.8190   30.2350   45.5920 O   0  0  0  0  0  0  0  0  0  0  0  0
   60.1070   29.3360   44.5590 C   0  0  0  0  0  0  0  0  0  0  0  0
   61.9626   33.5586   47.9327 H   0  0  0  0  0  0  0  0  0  0  0  0
   62.6242   32.9428   46.3803 H   0  0  0  0  0  0  0  0  0  0  0  0
   61.4540   34.3057   46.3803 H   0  0  0  0  0  0  0  0  0  0  0  0
   59.1353   34.5769   46.6739 H   0  0  0  0  0  0  0  0  0  0  0  0
   56.9239   34.6155   45.5420 H   0  0  0  0  0  0  0  0  0  0  0  0
   56.0460   32.5585   44.4056 H   0  0  0  0  0  0  0  0  0  0  0  0
   56.5102   30.4945   43.4628 H   0  0  0  0  0  0  0  0  0  0  0  0
   58.0595   29.6734   43.6569 H   0  0  0  0  0  0  0  0  0  0  0  0
   58.3560   30.0340   46.9550 H   0  0  0  0  0  0  0  0  0  0  0  0
   60.3060   30.5830   49.4890 H   0  0  0  0  0  0  0  0  0  0  0  0
   60.3930   30.4850   47.6740 H   0  0  0  0  0  0  0  0  0  0  0  0
   58.9401   26.0613   48.3041 H   0  0  0  0  0  0  0  0  0  0  0  0
   56.8154   25.1873   42.8964 H   0  0  0  0  0  0  0  0  0  0  0  0
   56.8710   22.9530   41.6120 H   0  0  0  0  0  0  0  0  0  0  0  0
   57.0680   20.0570   43.4290 H   0  0  0  0  0  0  0  0  0  0  0  0
   55.8451   21.9246   45.6112 H   0  0  0  0  0  0  0  0  0  0  0  0
   56.2470   26.9360   45.1710 H   0  0  0  0  0  0  0  0  0  0  0  0
   60.4160   28.3714   44.9879 H   0  0  0  0  0  0  0  0  0  0  0  0
   59.2104   29.1910   43.9385 H   0  0  0  0  0  0  0  0  0  0  0  0
   60.9210   29.7390   43.9385 H   0  0  0  0  0  0  0  0  0  0  0  0
  1  2  1  0
  2  3  1  0
  3  4  2  0
  4  5  1  0
  5  6  2  0
  6  7  1  0
  7  8  1  0
  8  9  1  0
  9 10  2  0
 10 11  1  0
 11 12  1  0
 12 13  1  0
 13 14  1  0
 13 15  2  0
 12 16  2  0
 16 17  1  0
 17 18  2  0
 18 19  1  0
 19 20  2  0
 19 21  1  0
 21 22  2  0
 22 23  1  0
 23 24  1  0
 24 25  1  0
 24 26  2  0
 17 27  1  0
  7 28  2  0
 28 29  1  0
 29 30  1  0
 28  3  1  0
 27 10  1  0
 26 21  1  0
  1 31  1  0
  1 32  1  0
  1 33  1  0
  4 34  1  0
  5 35  1  0
  6 36  1  0
  8 37  1  0
  8 38  1  0
 11 39  1  0
 14 40  1  0
 14 41  1  0
 16 42  1  0
 22 43  1  0
 23 44  1  0
 25 45  1  0
 26 46  1  0
 27 47  1  0
 30 48  1  0
 30 49  1  0
 30 50  1  0
M  END
>  <smiles>  (85) 
COc1cccc(CN=c2[nH]c(C(N)=O)cc(=NC(=O)c3c[nH]c(O)c3)[nH]2)c1OC

>  <score_type>  (85) 
oracle

>  <origin>  (85) 
adg

>  <m_score__min__energy>  (85) 
-8.8399999999999999

>  <m_primary>  (85) 
energy

$$$$
85:0
     RDKit          3D

 35 36  0  0  0  0  0  0  0  0999 V2000
   57.2935   25.1434   47.4404 H   0  0  0  0  0  0  0  0  0  0  0  0
   57.4510   25.5820   46.4440 C   0  0  0  0  0  0  0  0  0  0  0  0
   56.8070   26.8750   46.1280 C   0  0  0  0  0  0  0  0  0  0  0  0
   55.5590   26.8910   45.9540 O   0  0  0  0  0  0  0  0  0  0  0  0
   57.5620   28.1490   46.0440 C   0  0  0  0  0  0  0  0  0  0  0  0
   58.8640   28.2110   46.5630 C   0  0  0  0  0  0  0  0  0  0  0  0
   59.3182   27.3126   47.0065 H   0  0  0  0  0  0  0  0  0  0  0  0
   59.5850   29.4000   46.5210 C   0  0  0  0  0  0  0  0  0  0  0  0
   60.6084   29.4354   46.9228 H   0  0  0  0  0  0  0  0  0  0  0  0
   59.0150   30.5450   45.9720 C   0  0  0  0  0  0  0  0  0  0  0  0
   59.5926   31.4807   45.9452 H   0  0  0  0  0  0  0  0  0  0  0  0
   57.7060   30.5190   45.4500 C   0  0  0  0  0  0  0  0  0  0  0  0
   57.1310   31.6750   44.9000 O   0  0  0  0  0  0  0  0  0  0  0  0
   57.5900   33.0050   45.1270 C   0  0  0  0  0  0  0  0  0  0  0  0
   57.6542   33.1910   46.2093 H   0  0  0  0  0  0  0  0  0  0  0  0
   58.5840   33.1323   44.6735 H   0  0  0  0  0  0  0  0  0  0  0  0
   56.8860   33.7183   44.6735 H   0  0  0  0  0  0  0  0  0  0  0  0
   56.9680   29.3040   45.4850 C   0  0  0  0  0  0  0  0  0  0  0  0
   55.6620   29.1760   44.9720 O   0  0  0  0  0  0  0  0  0  0  0  0
   55.1690   29.7200   43.7520 C   0  0  0  0  0  0  0  0  0  0  0  0
   54.4453   30.5185   43.9726 H   0  0  0  0  0  0  0  0  0  0  0  0
   56.0059   30.1340   43.1705 H   0  0  0  0  0  0  0  0  0  0  0  0
   54.6749   28.9277   43.1705 H   0  0  0  0  0  0  0  0  0  0  0  0
   58.2200   24.9220   45.5640 C   0  0  0  0  0  0  0  0  0  0  0  0
   59.2667   25.2408   45.4506 H   0  0  0  0  0  0  0  0  0  0  0  0
   57.7440   23.7920   44.7380 C   0  0  0  0  0  0  0  0  0  0  0  0
   58.2920   22.5640   44.9490 N   0  0  0  0  0  0  0  0  0  0  0  0
   57.9110   21.4890   44.2560 N   0  0  0  0  0  0  0  0  0  0  0  0
   58.3700   20.5710   44.4530 H   0  0  0  0  0  0  0  0  0  0  0  0
   56.9440   21.5720   43.3020 C   0  0  0  0  0  0  0  0  0  0  0  0
   56.6000   20.5470   42.6560 O   0  0  0  0  0  0  0  0  0  0  0  0
   56.3350   22.7990   43.0470 C   0  0  0  0  0  0  0  0  0  0  0  0
   55.5493   22.8814   42.2815 H   0  0  0  0  0  0  0  0  0  0  0  0
   56.7320   23.9200   43.7720 C   0  0  0  0  0  0  0  0  0  0  0  0
   56.2579   24.8958   43.5901 H   0  0  0  0  0  0  0  0  0  0  0  0
  1  2  1  0
  2  3  1  0
  3  4  2  0
  3  5  1  0
  5  6  2  0
  6  7  1  0
  6  8  1  0
  8  9  1  0
  8 10  2  0
 10 11  1  0
 10 12  1  0
 12 13  1  0
 13 14  1  0
 14 15  1  0
 14 16  1  0
 14 17  1  0
 12 18  2  0
 18 19  1  0
 19 20  1  0
 20 21  1  0
 20 22  1  0
 20 23  1  0
  2 24  2  0
 24 25  1  0
 24 26  1  0
 26 27  2  0
 27 28  1  0
 28 29  1  0
 28 30  1  0
 30 31  2  0
 30 32  1  0
 32 33  1  0
 32 34  2  0
 34 35  1  0
 18  5  1  0
 34 26  1  0
M  END
>  <UniqueID>  (86) 
74

>  <SMILES>  (86) 
COc1cccc(C(=O)/C=C/c2ccc(=O)[nH]n2)c1OC

>  <Energy>  (86) 
45.790836319816265

>  <Genealogy>  (86) 
COc1cccc(C(=O)/C=C/c2ccc(=O)[nH]n2)c1OC (cis-trans isomerization)
COc1cccc(C(=O)/C=C/c2ccc(=O)[nH]n2)c1OC (3D coordinates assigned)
COc1cccc(C(=O)/C=C/c2ccc(=O)[nH]n2)c1OC (optimized conformer: 45.790836319816265 kcal/mol)

>  <smiles>  (86) 
COc1cccc(C(=O)C=Cc2ccc(=O)[nH]n2)c1OC

>  <score_type>  (86) 
oracle

>  <origin>  (86) 
adg

>  <m_score__min__energy>  (86) 
-7.4800000000000004

>  <m_primary>  (86) 
energy

$$$$
86:0
     RDKit          3D

 39 41  0  0  0  0  0  0  0  0999 V2000
   59.0210   30.3810   46.8090 C   0  0  0  0  0  0  0  0  0  0  0  0
   57.6880   30.5120   46.3300 O   0  0  0  0  0  0  0  0  0  0  0  0
   57.2740   30.5500   44.9840 C   0  0  0  0  0  0  0  0  0  0  0  0
   57.8650   31.5250   44.1470 C   0  0  0  0  0  0  0  0  0  0  0  0
   58.7740   32.5110   44.6610 N   0  0  0  0  0  0  0  0  0  0  0  0
   58.5090   33.4190   45.7410 C   0  0  0  0  0  0  0  0  0  0  0  0
   57.3960   34.0070   45.7730 O   0  0  0  0  0  0  0  0  0  0  0  0
   59.4910   33.6620   46.8240 C   0  0  0  0  0  0  0  0  0  0  0  0
   59.0680   33.9300   48.1400 C   0  0  0  0  0  0  0  0  0  0  0  0
   60.0050   34.1280   49.1570 C   0  0  0  0  0  0  0  0  0  0  0  0
   61.3720   34.0730   48.8720 C   0  0  0  0  0  0  0  0  0  0  0  0
   61.8030   33.8280   47.5660 C   0  0  0  0  0  0  0  0  0  0  0  0
   60.8690   33.6300   46.5440 C   0  0  0  0  0  0  0  0  0  0  0  0
   57.5680   31.5520   42.7810 C   0  0  0  0  0  0  0  0  0  0  0  0
   56.6430   30.6630   42.2410 C   0  0  0  0  0  0  0  0  0  0  0  0
   56.0130   29.7290   43.0610 C   0  0  0  0  0  0  0  0  0  0  0  0
   56.3120   29.6620   44.4330 C   0  0  0  0  0  0  0  0  0  0  0  0
   55.6870   28.6540   45.2370 N   0  0  0  0  0  0  0  0  0  0  0  0
   56.3260   27.4660   45.7180 C   0  0  0  0  0  0  0  0  0  0  0  0
   55.6240   26.4430   45.9350 O   0  0  0  0  0  0  0  0  0  0  0  0
   57.7890   27.3930   45.9030 C   0  0  0  0  0  0  0  0  0  0  0  0
   58.4390   27.0290   47.0760 C   0  0  0  0  0  0  0  0  0  0  0  0
   59.8340   26.9890   46.9490 C   0  0  0  0  0  0  0  0  0  0  0  0
   60.2870   27.3070   45.6750 C   0  0  0  0  0  0  0  0  0  0  0  0
   58.9530   27.6350   44.7090 S   0  0  0  0  0  0  0  0  0  0  0  0
   59.0170   30.3814   47.9090 H   0  0  0  0  0  0  0  0  0  0  0  0
   59.4505   29.4363   46.4442 H   0  0  0  0  0  0  0  0  0  0  0  0
   59.6262   31.2240   46.4442 H   0  0  0  0  0  0  0  0  0  0  0  0
   57.9934   33.9838   48.3686 H   0  0  0  0  0  0  0  0  0  0  0  0
   59.6661   34.3276   50.1843 H   0  0  0  0  0  0  0  0  0  0  0  0
   62.1082   34.2225   49.6756 H   0  0  0  0  0  0  0  0  0  0  0  0
   62.8791   33.7907   47.3410 H   0  0  0  0  0  0  0  0  0  0  0  0
   61.2140   33.4482   45.5154 H   0  0  0  0  0  0  0  0  0  0  0  0
   58.0693   32.2815   42.1279 H   0  0  0  0  0  0  0  0  0  0  0  0
   56.4093   30.6978   41.1667 H   0  0  0  0  0  0  0  0  0  0  0  0
   55.2742   29.0371   42.6304 H   0  0  0  0  0  0  0  0  0  0  0  0
   57.9106   26.7953   48.0120 H   0  0  0  0  0  0  0  0  0  0  0  0
   60.5068   26.7302   47.7799 H   0  0  0  0  0  0  0  0  0  0  0  0
   61.3387   27.3386   45.3540 H   0  0  0  0  0  0  0  0  0  0  0  0
  1  2  1  0
  2  3  1  0
  3  4  2  0
  4  5  1  0
  5  6  1  0
  6  7  2  0
  6  8  1  0
  8  9  2  0
  9 10  1  0
 10 11  2  0
 11 12  1  0
 12 13  2  0
  4 14  1  0
 14 15  2  0
 15 16  1  0
 16 17  2  0
 17 18  1  0
 18 19  1  0
 19 20  2  0
 19 21  1  0
 21 22  2  0
 22 23  1  0
 23 24  2  0
 24 25  1  0
 17  3  1  0
 25 21  1  0
 13  8  1  0
  1 26  1  0
  1 27  1  0
  1 28  1  0
  9 29  1  0
 10 30  1  0
 11 31  1  0
 12 32  1  0
 13 33  1  0
 14 34  1  0
 15 35  1  0
 16 36  1  0
 22 37  1  0
 23 38  1  0
 24 39  1  0
M  CHG  2   5  -1  18  -1
M  END
>  <UniqueID>  (87) 
75

>  <SMILES>  (87) 
COc1c([N-]C(=O)c2ccccc2)cccc1[N-]C(=O)c1cccs1

>  <Energy>  (87) 
82.96279794371333

>  <Genealogy>  (87) 
COc1c([N-]C(=O)c2ccccc2)cccc1[N-]C(=O)c1cccs1 (protonated)
COc1c([N-]C(=O)c2ccccc2)cccc1[N-]C(=O)c1cccs1 (3D coordinates assigned)
COc1c([N-]C(=O)c2ccccc2)cccc1[N-]C(=O)c1cccs1 (optimized conformer: 82.96279794371333 kcal/mol)

>  <smiles>  (87) 
COc1c(NC(=O)c2ccccc2)cccc1NC(=O)c1cccs1

>  <score_type>  (87) 
oracle

>  <origin>  (87) 
adg

>  <m_score__min__energy>  (87) 
-12.359999999999999

>  <m_primary>  (87) 
energy

$$$$
87:0
     RDKit          3D

 28 29  0  0  0  0  0  0  0  0999 V2000
   57.8158   26.2477   46.8078 H   0  0  0  0  0  0  0  0  0  0  0  0
   57.0930   26.3330   45.9830 C   0  0  0  0  0  0  0  0  0  0  0  0
   55.8100   25.6070   46.0820 C   0  0  0  0  0  0  0  0  0  0  0  0
   54.7200   26.2340   46.0020 O   0  0  0  0  0  0  0  0  0  0  0  0
   55.7730   24.1980   46.3420 N   0  0  0  0  0  0  0  0  0  0  0  0
   56.3850   23.1720   45.5460 C   0  0  0  0  0  0  0  0  0  0  0  0
   56.1730   23.0960   44.1570 C   0  0  0  0  0  0  0  0  0  0  0  0
   55.5445   23.8476   43.6569 H   0  0  0  0  0  0  0  0  0  0  0  0
   56.7580   22.0690   43.4100 C   0  0  0  0  0  0  0  0  0  0  0  0
   56.5997   22.0219   42.3225 H   0  0  0  0  0  0  0  0  0  0  0  0
   57.5430   21.1030   44.0430 C   0  0  0  0  0  0  0  0  0  0  0  0
   58.0111   20.3016   43.4525 H   0  0  0  0  0  0  0  0  0  0  0  0
   57.7340   21.1540   45.4260 C   0  0  0  0  0  0  0  0  0  0  0  0
   58.3433   20.3858   45.9246 H   0  0  0  0  0  0  0  0  0  0  0  0
   57.1520   22.1800   46.1780 C   0  0  0  0  0  0  0  0  0  0  0  0
   57.3450   22.2170   47.5550 O   0  0  0  0  0  0  0  0  0  0  0  0
   57.4070   27.0910   44.9250 C   0  0  0  0  0  0  0  0  0  0  0  0
   57.5673   26.5984   43.9546 H   0  0  0  0  0  0  0  0  0  0  0  0
   57.5480   28.5620   45.0030 C   0  0  0  0  0  0  0  0  0  0  0  0
   56.4450   29.4450   44.9590 C   0  0  0  0  0  0  0  0  0  0  0  0
   55.1440   28.9660   44.8690 O   0  0  0  0  0  0  0  0  0  0  0  0
   56.6470   30.7870   45.0370 N   0  0  0  0  0  0  0  0  0  0  0  0
   57.8870   31.3230   45.1750 C   0  0  0  0  0  0  0  0  0  0  0  0
   58.0260   32.5730   45.2390 O   0  0  0  0  0  0  0  0  0  0  0  0
   59.0030   30.4880   45.2550 C   0  0  0  0  0  0  0  0  0  0  0  0
   60.0091   30.9154   45.3775 H   0  0  0  0  0  0  0  0  0  0  0  0
   58.8290   29.1060   45.1780 C   0  0  0  0  0  0  0  0  0  0  0  0
   59.7007   28.4396   45.2549 H   0  0  0  0  0  0  0  0  0  0  0  0
  1  2  1  0
  2  3  1  0
  3  4  2  0
  3  5  1  0
  5  6  1  0
  6  7  2  0
  7  8  1  0
  7  9  1  0
  9 10  1  0
  9 11  2  0
 11 12  1  0
 11 13  1  0
 13 14  1  0
 13 15  2  0
 15 16  1  0
  2 17  2  0
 17 18  1  0
 17 19  1  0
 19 20  2  0
 20 21  1  0
 20 22  1  0
 22 23  1  0
 23 24  2  0
 23 25  1  0
 25 26  1  0
 25 27  2  0
 27 28  1  0
 15  6  1  0
 27 19  1  0
M  CHG  4   5  -1  16  -1  21  -1  22  -1
M  END
>  <UniqueID>  (88) 
76

>  <SMILES>  (88) 
O=C(/C=C/c1ccc(=O)[n-]c1[O-])[N-]c1ccccc1[O-]

>  <Energy>  (88) 
38.46390366273166

>  <Genealogy>  (88) 
O=C(C=Cc1ccc(=O)[n-]c1[O-])[N-]c1ccccc1[O-] (protonated)
O=C(/C=C/c1ccc(=O)[n-]c1[O-])[N-]c1ccccc1[O-] (cis-trans isomerization)
O=C(/C=C/c1ccc(=O)[n-]c1[O-])[N-]c1ccccc1[O-] (3D coordinates assigned)
O=C(/C=C/c1ccc(=O)[n-]c1[O-])[N-]c1ccccc1[O-] (optimized conformer: 38.46390366273166 kcal/mol)

>  <smiles>  (88) 
O=C(C=Cc1ccc(=O)[nH]c1O)Nc1ccccc1O

>  <score_type>  (88) 
oracle

>  <origin>  (88) 
adg

>  <m_score__min__energy>  (88) 
-17.100000000000001

>  <m_primary>  (88) 
energy

$$$$
88:0
     RDKit          3D

 32 35  0  0  0  0  0  0  0  0999 V2000
   54.8070   23.5180   48.3310 H   0  0  0  0  0  0  0  0  0  0  0  0
   55.6250   22.9950   48.6190 O   0  0  0  0  0  0  0  0  0  0  0  0
   56.3870   22.2670   47.7040 C   0  0  0  0  0  0  0  0  0  0  0  0
   56.7140   20.9290   47.9750 C   0  0  0  0  0  0  0  0  0  0  0  0
   56.3906   20.4665   48.9192 H   0  0  0  0  0  0  0  0  0  0  0  0
   57.4480   20.1830   47.0510 C   0  0  0  0  0  0  0  0  0  0  0  0
   57.7036   19.1356   47.2694 H   0  0  0  0  0  0  0  0  0  0  0  0
   57.8580   20.7650   45.8500 C   0  0  0  0  0  0  0  0  0  0  0  0
   58.4312   20.1733   45.1210 H   0  0  0  0  0  0  0  0  0  0  0  0
   57.5420   22.0970   45.5720 C   0  0  0  0  0  0  0  0  0  0  0  0
   57.8637   22.5489   44.6221 H   0  0  0  0  0  0  0  0  0  0  0  0
   56.8150   22.8630   46.5000 C   0  0  0  0  0  0  0  0  0  0  0  0
   56.4880   24.2750   46.1880 C   0  0  0  0  0  0  0  0  0  0  0  0
   57.5150   25.1680   45.8530 C   0  0  0  0  0  0  0  0  0  0  0  0
   58.5581   24.8191   45.8382 H   0  0  0  0  0  0  0  0  0  0  0  0
   57.2230   26.5050   45.5360 C   0  0  0  0  0  0  0  0  0  0  0  0
   58.2950   27.4680   45.1950 C   0  0  0  0  0  0  0  0  0  0  0  0
   59.1159   27.1174   44.5522 H   0  0  0  0  0  0  0  0  0  0  0  0
   58.3300   28.7400   45.6190 C   0  0  0  0  0  0  0  0  0  0  0  0
   58.6650   29.1830   46.9060 C   0  0  0  0  0  0  0  0  0  0  0  0
   59.1019   28.5528   47.6946 H   0  0  0  0  0  0  0  0  0  0  0  0
   58.3720   30.5040   47.0390 N   0  0  0  0  0  0  0  0  0  0  0  0
   57.9760   30.8930   45.8410 N   0  0  0  0  0  0  0  0  0  0  0  0
   57.0170   31.7470   45.5500 N   0  0  0  0  0  0  0  0  0  0  0  0
   56.3990   31.2760   44.4680 N   0  0  0  0  0  0  0  0  0  0  0  0
   56.8950   30.0840   44.1230 N   0  0  0  0  0  0  0  0  0  0  0  0
   57.8950   29.8930   45.0010 C   0  0  0  0  0  0  0  0  0  0  0  0
   55.8900   26.9360   45.6170 C   0  0  0  0  0  0  0  0  0  0  0  0
   55.5540   28.2560   45.3390 O   0  0  0  0  0  0  0  0  0  0  0  0
   54.9100   26.0610   45.9610 N   0  0  0  0  0  0  0  0  0  0  0  0
   55.1680   24.7570   46.2440 C   0  0  0  0  0  0  0  0  0  0  0  0
   54.2180   23.9990   46.5760 O   0  0  0  0  0  0  0  0  0  0  0  0
  1  2  1  0
  2  3  1  0
  3  4  2  0
  4  5  1  0
  4  6  1  0
  6  7  1  0
  6  8  2  0
  8  9  1  0
  8 10  1  0
 10 11  1  0
 10 12  2  0
 12 13  1  0
 13 14  2  0
 14 15  1  0
 14 16  1  0
 16 17  1  0
 17 18  1  0
 17 19  2  0
 19 20  1  0
 20 21  1  0
 20 22  2  0
 22 23  1  0
 23 24  1  0
 24 25  2  0
 25 26  1  0
 26 27  2  0
 16 28  2  0
 28 29  1  0
 28 30  1  0
 30 31  1  0
 31 32  2  0
 12  3  1  0
 31 13  1  0
 27 19  1  0
 27 23  1  0
M  CHG  2  29  -1  30  -1
M  END
>  <UniqueID>  (89) 
77

>  <SMILES>  (89) 
O=c1[n-]c([O-])c(/C=c2/cnn3nnnc23)cc1-c1ccccc1O

>  <Energy>  (89) 
155.6907372638196

>  <Genealogy>  (89) 
O=c1[n-]c([O-])c(C=c2cnn3nnnc23)cc1-c1ccccc1O (protonated)
O=c1[n-]c([O-])c(/C=c2/cnn3nnnc23)cc1-c1ccccc1O (cis-trans isomerization)
O=c1[n-]c([O-])c(/C=c2/cnn3nnnc23)cc1-c1ccccc1O (3D coordinates assigned)
O=c1[n-]c([O-])c(/C=c2/cnn3nnnc23)cc1-c1ccccc1O (optimized conformer: 155.6907372638196 kcal/mol)

>  <smiles>  (89) 
O=c1[nH]c(O)c(C=c2cnn3nnnc23)cc1-c1ccccc1O

>  <score_type>  (89) 
oracle

>  <origin>  (89) 
adg

>  <m_score__min__energy>  (89) 
-13.23

>  <m_primary>  (89) 
energy

$$$$
89:0
     RDKit          3D

 40 42  0  0  1  0  0  0  0  0999 V2000
   56.5820   29.9600   42.8020 O   0  0  0  0  0  0  0  0  0  0  0  0
   56.8680   30.6170   43.8510 C   0  0  0  0  0  0  0  0  0  0  0  0
   57.3480   31.9310   43.8230 N   0  0  0  0  0  0  0  0  0  0  0  0
   57.7890   32.6400   44.7730 C   0  0  0  0  0  0  0  0  0  0  0  0
   58.5130   33.7500   44.4580 N   0  0  0  0  0  0  0  0  0  0  0  0
   59.0180   34.5590   45.3910 C   0  0  0  0  0  0  0  0  0  0  0  0
   58.8330   34.3090   46.7290 C   0  0  0  0  0  0  0  0  0  0  0  0
   58.0960   33.1790   47.0600 C   0  0  0  0  0  0  0  0  0  0  0  0
   57.6110   32.4020   46.0810 N   0  0  0  0  0  0  0  0  0  0  0  0
   56.7000   30.0010   45.1380 N   0  0  0  0  0  0  0  0  0  0  0  0
   57.4060   28.9940   45.4610 C   0  0  0  0  0  0  0  0  0  0  0  0
   57.4090   27.9370   44.6200 N   0  0  0  0  0  0  0  0  0  0  0  0
   58.1150   26.8170   44.8550 C   0  0  0  0  0  0  0  0  0  0  0  0
   58.8700   26.7450   46.0050 C   0  0  0  0  0  0  0  0  0  0  0  0
   58.8720   27.8190   46.8700 C   0  0  0  0  0  0  0  0  0  0  0  0
   58.1440   28.9760   46.6300 C   0  0  0  0  0  0  0  0  0  0  0  0
   58.1490   30.0570   47.5050 O   0  0  0  0  0  0  0  0  0  0  0  0
   59.0790   30.0270   48.5680 C   0  0  0  0  0  0  0  0  0  0  0  0
   60.2630   30.8870   48.3560 C   0  0  0  0  0  0  0  0  0  0  0  0
   61.1810   30.4670   47.3970 C   0  0  0  0  0  0  0  0  0  0  0  0
   62.3190   31.2240   47.1450 C   0  0  0  0  0  0  0  0  0  0  0  0
   62.5310   32.3990   47.8530 C   0  0  0  0  0  0  0  0  0  0  0  0
   63.6890   33.1080   47.5510 O   0  0  0  0  0  0  0  0  0  0  0  0
   61.6250   32.8400   48.8190 C   0  0  0  0  0  0  0  0  0  0  0  0
   60.4930   32.0580   49.0490 C   0  0  0  0  0  0  0  0  0  0  0  0
   59.5940   35.4439   45.0826 H   0  0  0  0  0  0  0  0  0  0  0  0
   59.2488   34.9723   47.5018 H   0  0  0  0  0  0  0  0  0  0  0  0
   57.9123   32.9244   48.1142 H   0  0  0  0  0  0  0  0  0  0  0  0
   57.0660   31.5660   46.3620 H   0  0  0  0  0  0  0  0  0  0  0  0
   56.8490   27.9440   43.7270 H   0  0  0  0  0  0  0  0  0  0  0  0
   58.0902   25.9772   44.1450 H   0  0  0  0  0  0  0  0  0  0  0  0
   59.4617   25.8453   46.2297 H   0  0  0  0  0  0  0  0  0  0  0  0
   59.4752   27.7561   47.7877 H   0  0  0  0  0  0  0  0  0  0  0  0
   58.5687   30.3607   49.4835 H   0  0  0  0  0  0  0  0  0  0  0  0
   59.4460   28.9926   48.6405 H   0  0  0  0  0  0  0  0  0  0  0  0
   61.0055   29.5357   46.8386 H   0  0  0  0  0  0  0  0  0  0  0  0
   63.0471   30.8941   46.3893 H   0  0  0  0  0  0  0  0  0  0  0  0
   64.5690   32.6080   47.3650 H   0  0  0  0  0  0  0  0  0  0  0  0
   61.7975   33.7710   49.3789 H   0  0  0  0  0  0  0  0  0  0  0  0
   59.7628   32.3841   49.8043 H   0  0  0  0  0  0  0  0  0  0  0  0
  1  2  2  0
  2  3  1  0
  3  4  2  3
  4  5  1  0
  5  6  2  0
  6  7  1  0
  7  8  2  0
  8  9  1  0
  2 10  1  0
 10 11  2  0
 11 12  1  0
 12 13  1  0
 13 14  2  0
 14 15  1  0
 15 16  2  0
 16 17  1  0
 17 18  1  0
 18 19  1  0
 19 20  2  0
 20 21  1  0
 21 22  2  0
 22 23  1  0
 22 24  1  0
 24 25  2  0
  9  4  1  0
 16 11  1  0
 25 19  1  0
  6 26  1  0
  7 27  1  0
  8 28  1  0
  9 29  1  0
 12 30  1  0
 13 31  1  0
 14 32  1  0
 15 33  1  0
 18 34  1  0
 18 35  1  0
 20 36  1  0
 21 37  1  0
 23 38  1  0
 24 39  1  0
 25 40  1  0
M  END
>  <smiles>  (90) 
O=C(N=c1nccc[nH]1)N=c1[nH]cccc1OCc1ccc(O)cc1

>  <score_type>  (90) 
oracle

>  <origin>  (90) 
adg

>  <m_score__min__energy>  (90) 
-7.5599999999999996

>  <m_primary>  (90) 
energy

$$$$
90:0
     RDKit          3D

 52 55  0  0  0  0  0  0  0  0999 V2000
   60.0060   27.6260   46.7490 H   0  0  0  0  0  0  0  0  0  0  0  0
   60.3000   28.2980   47.4450 O   0  0  0  0  0  0  0  0  0  0  0  0
   59.6880   29.5440   47.5680 C   0  0  0  0  0  0  0  0  0  0  0  0
   58.9900   30.2280   46.5820 C   0  0  0  0  0  0  0  0  0  0  0  0
   58.7410   29.7600   45.1740 C   0  0  0  0  0  0  0  0  0  0  0  0
   59.3082   28.8348   44.9943 H   0  0  0  0  0  0  0  0  0  0  0  0
   59.0655   30.5451   44.4752 H   0  0  0  0  0  0  0  0  0  0  0  0
   57.2850   29.4940   44.9610 C   0  0  0  0  0  0  0  0  0  0  0  0
   56.4840   30.4630   44.8700 O   0  0  0  0  0  0  0  0  0  0  0  0
   56.8260   28.1410   44.8320 N   0  0  0  0  0  0  0  0  0  0  0  0
   57.1430   27.1460   45.6100 C   0  0  0  0  0  0  0  0  0  0  0  0
   58.4480   26.8160   45.8320 N   0  0  0  0  0  0  0  0  0  0  0  0
   58.8020   25.7630   46.6160 C   0  0  0  0  0  0  0  0  0  0  0  0
   59.8649   25.5260   46.7710 H   0  0  0  0  0  0  0  0  0  0  0  0
   57.8180   24.9830   47.2240 C   0  0  0  0  0  0  0  0  0  0  0  0
   58.0978   24.1283   47.8574 H   0  0  0  0  0  0  0  0  0  0  0  0
   56.4740   25.3000   47.0190 C   0  0  0  0  0  0  0  0  0  0  0  0
   55.6873   24.6979   47.4970 H   0  0  0  0  0  0  0  0  0  0  0  0
   56.1290   26.3830   46.2060 C   0  0  0  0  0  0  0  0  0  0  0  0
   54.7880   26.6940   45.9980 O   0  0  0  0  0  0  0  0  0  0  0  0
   58.5210   31.3790   47.1240 N   0  0  0  0  0  0  0  0  0  0  0  0
   57.6580   32.3890   46.5030 C   0  0  0  0  0  0  0  0  0  0  0  0
   57.2793   31.9988   45.5468 H   0  0  0  0  0  0  0  0  0  0  0  0
   56.8262   32.6066   47.1891 H   0  0  0  0  0  0  0  0  0  0  0  0
   58.4100   33.6610   46.2490 C   0  0  0  0  0  0  0  0  0  0  0  0
   58.7660   34.2770   44.7270 S   0  0  0  0  0  0  0  0  0  0  0  0
   59.6470   35.6060   45.2630 C   0  0  0  0  0  0  0  0  0  0  0  0
   60.1120   36.3715   44.6244 H   0  0  0  0  0  0  0  0  0  0  0  0
   59.6860   35.5700   46.6510 C   0  0  0  0  0  0  0  0  0  0  0  0
   60.2002   36.3293   47.2585 H   0  0  0  0  0  0  0  0  0  0  0  0
   59.0090   34.4760   47.2040 C   0  0  0  0  0  0  0  0  0  0  0  0
   58.9562   34.2807   48.2852 H   0  0  0  0  0  0  0  0  0  0  0  0
   58.9580   31.3700   48.4050 C   0  0  0  0  0  0  0  0  0  0  0  0
   58.7120   32.2880   49.2340 O   0  0  0  0  0  0  0  0  0  0  0  0
   59.6810   30.2700   48.7030 N   0  0  0  0  0  0  0  0  0  0  0  0
   60.3200   29.9390   49.9780 C   0  0  0  0  0  0  0  0  0  0  0  0
   59.8232   30.4995   50.7836 H   0  0  0  0  0  0  0  0  0  0  0  0
   60.2261   28.8553   50.1415 H   0  0  0  0  0  0  0  0  0  0  0  0
   61.8100   30.2980   49.9660 C   0  0  0  0  0  0  0  0  0  0  0  0
   62.1412   30.4778   50.9994 H   0  0  0  0  0  0  0  0  0  0  0  0
   62.3601   29.4591   49.5147 H   0  0  0  0  0  0  0  0  0  0  0  0
   62.0820   31.5320   49.1450 C   0  0  0  0  0  0  0  0  0  0  0  0
   61.7960   32.8040   49.6680 C   0  0  0  0  0  0  0  0  0  0  0  0
   61.3665   32.8988   50.6762 H   0  0  0  0  0  0  0  0  0  0  0  0
   62.0560   33.9500   48.9100 C   0  0  0  0  0  0  0  0  0  0  0  0
   61.8336   34.9444   49.3242 H   0  0  0  0  0  0  0  0  0  0  0  0
   62.5980   33.8340   47.6270 C   0  0  0  0  0  0  0  0  0  0  0  0
   62.8113   34.7372   47.0365 H   0  0  0  0  0  0  0  0  0  0  0  0
   62.8690   32.5710   47.0940 C   0  0  0  0  0  0  0  0  0  0  0  0
   63.2848   32.4801   46.0797 H   0  0  0  0  0  0  0  0  0  0  0  0
   62.6120   31.4230   47.8490 C   0  0  0  0  0  0  0  0  0  0  0  0
   62.8257   30.4302   47.4263 H   0  0  0  0  0  0  0  0  0  0  0  0
  1  2  1  0
  2  3  1  0
  3  4  2  0
  4  5  1  0
  5  6  1  0
  5  7  1  0
  5  8  1  0
  8  9  2  0
  8 10  1  0
 10 11  2  0
 11 12  1  0
 12 13  1  0
 13 14  1  0
 13 15  2  0
 15 16  1  0
 15 17  1  0
 17 18  1  0
 17 19  2  0
 19 20  1  0
  4 21  1  0
 21 22  1  0
 22 23  1  0
 22 24  1  0
 22 25  1  0
 25 26  1  0
 26 27  1  0
 27 28  1  0
 27 29  2  0
 29 30  1  0
 29 31  1  0
 31 32  1  0
 21 33  1  0
 33 34  2  0
 33 35  1  0
 35 36  1  0
 36 37  1  0
 36 38  1  0
 36 39  1  0
 39 40  1  0
 39 41  1  0
 39 42  1  0
 42 43  2  0
 43 44  1  0
 43 45  1  0
 45 46  1  0
 45 47  2  0
 47 48  1  0
 47 49  1  0
 49 50  1  0
 49 51  2  0
 51 52  1  0
 35  3  1  0
 51 42  1  0
 19 11  1  0
 31 25  2  0
M  CHG  2  12  -1  20  -1
M  END
>  <UniqueID>  (91) 
78

>  <SMILES>  (91) 
O=C(Cc1c(O)n(CCc2ccccc2)c(=O)n1Cc1cccs1)/N=c1\[n-]cccc1[O-]

>  <Energy>  (91) 
106.44889091810583

>  <Genealogy>  (91) 
O=C(Cc1c(O)n(CCc2ccccc2)c(=O)n1Cc1cccs1)N=c1[n-]cccc1[O-] (protonated)
O=C(Cc1c(O)n(CCc2ccccc2)c(=O)n1Cc1cccs1)/N=c1\[n-]cccc1[O-] (cis-trans isomerization)
O=C(Cc1c(O)n(CCc2ccccc2)c(=O)n1Cc1cccs1)/N=c1\[n-]cccc1[O-] (3D coordinates assigned)
O=C(Cc1c(O)n(CCc2ccccc2)c(=O)n1Cc1cccs1)/N=c1\[n-]cccc1[O-] (optimized conformer: 106.44889091810583 kcal/mol)

>  <smiles>  (91) 
O=C(Cc1c(O)n(CCc2ccccc2)c(=O)n1Cc1cccs1)N=c1[nH]cccc1O

>  <score_type>  (91) 
oracle

>  <origin>  (91) 
adg

>  <m_score__min__energy>  (91) 
-13.630000000000001

>  <m_primary>  (91) 
energy

$$$$
91:0
     RDKit          3D

 59 62  0  0  0  0  0  0  0  0999 V2000
   56.1296   32.9597   44.6714 H   0  0  0  0  0  0  0  0  0  0  0  0
   56.9810   32.2870   44.8520 C   0  0  0  0  0  0  0  0  0  0  0  0
   57.0030   31.1240   44.1810 C   0  0  0  0  0  0  0  0  0  0  0  0
   56.8919   31.1643   43.0874 H   0  0  0  0  0  0  0  0  0  0  0  0
   57.1660   29.7900   44.8060 C   0  0  0  0  0  0  0  0  0  0  0  0
   56.0690   28.9490   45.0320 C   0  0  0  0  0  0  0  0  0  0  0  0
   54.7820   29.3420   44.6860 O   0  0  0  0  0  0  0  0  0  0  0  0
   56.2570   27.7410   45.6150 N   0  0  0  0  0  0  0  0  0  0  0  0
   57.4860   27.3220   46.0070 C   0  0  0  0  0  0  0  0  0  0  0  0
   57.5970   26.1850   46.5390 O   0  0  0  0  0  0  0  0  0  0  0  0
   58.5840   28.1280   45.8290 N   0  0  0  0  0  0  0  0  0  0  0  0
   59.9150   27.6920   46.3010 C   0  0  0  0  0  0  0  0  0  0  0  0
   59.9883   26.5976   46.2175 H   0  0  0  0  0  0  0  0  0  0  0  0
   60.6873   28.1715   45.6817 H   0  0  0  0  0  0  0  0  0  0  0  0
   60.1220   28.0950   47.7380 C   0  0  0  0  0  0  0  0  0  0  0  0
   60.5840   27.1580   48.6780 C   0  0  0  0  0  0  0  0  0  0  0  0
   60.8199   26.1322   48.3584 H   0  0  0  0  0  0  0  0  0  0  0  0
   60.7450   27.5240   50.0170 C   0  0  0  0  0  0  0  0  0  0  0  0
   61.1097   26.7865   50.7471 H   0  0  0  0  0  0  0  0  0  0  0  0
   60.4440   28.8240   50.4310 C   0  0  0  0  0  0  0  0  0  0  0  0
   60.5720   29.1093   51.4856 H   0  0  0  0  0  0  0  0  0  0  0  0
   59.9800   29.7620   49.5040 C   0  0  0  0  0  0  0  0  0  0  0  0
   59.6880   31.0230   49.9050 F   0  0  0  0  0  0  0  0  0  0  0  0
   59.8180   29.4000   48.1630 C   0  0  0  0  0  0  0  0  0  0  0  0
   59.4508   30.1403   47.4370 H   0  0  0  0  0  0  0  0  0  0  0  0
   58.4300   29.3620   45.2430 C   0  0  0  0  0  0  0  0  0  0  0  0
   59.4280   30.1170   45.0780 O   0  0  0  0  0  0  0  0  0  0  0  0
   58.0120   32.7360   45.8160 C   0  0  0  0  0  0  0  0  0  0  0  0
   59.2250   33.2400   45.3300 C   0  0  0  0  0  0  0  0  0  0  0  0
   59.4028   33.2835   44.2453 H   0  0  0  0  0  0  0  0  0  0  0  0
   60.2110   33.6880   46.2130 C   0  0  0  0  0  0  0  0  0  0  0  0
   61.1612   34.0758   45.8170 H   0  0  0  0  0  0  0  0  0  0  0  0
   60.0010   33.6480   47.6000 C   0  0  0  0  0  0  0  0  0  0  0  0
   61.0760   34.1400   48.4970 C   0  0  0  0  0  0  0  0  0  0  0  0
   61.7465   34.9270   48.1215 H   0  0  0  0  0  0  0  0  0  0  0  0
   61.2750   33.6780   49.7400 C   0  0  0  0  0  0  0  0  0  0  0  0
   60.5308   33.9087   50.5165 H   0  0  0  0  0  0  0  0  0  0  0  0
   62.4580   32.8700   50.1050 C   0  0  0  0  0  0  0  0  0  0  0  0
   62.3130   31.6970   50.7780 N   0  0  0  0  0  0  0  0  0  0  0  0
   63.3880   30.9390   51.1220 C   0  0  0  0  0  0  0  0  0  0  0  0
   63.2250   29.7360   51.8130 O   0  0  0  0  0  0  0  0  0  0  0  0
   62.4570   29.6320   53.0060 C   0  0  0  0  0  0  0  0  0  0  0  0
   63.1209   29.7219   53.8785 H   0  0  0  0  0  0  0  0  0  0  0  0
   61.7076   30.4369   53.0310 H   0  0  0  0  0  0  0  0  0  0  0  0
   61.9487   28.6568   53.0310 H   0  0  0  0  0  0  0  0  0  0  0  0
   64.6690   31.3680   50.7810 C   0  0  0  0  0  0  0  0  0  0  0  0
   65.5503   30.7679   51.0514 H   0  0  0  0  0  0  0  0  0  0  0  0
   64.8160   32.5800   50.0860 C   0  0  0  0  0  0  0  0  0  0  0  0
   66.0730   33.0760   49.7080 O   0  0  0  0  0  0  0  0  0  0  0  0
   67.2330   33.0420   50.5330 C   0  0  0  0  0  0  0  0  0  0  0  0
   66.9311   33.0508   51.5907 H   0  0  0  0  0  0  0  0  0  0  0  0
   67.8057   32.1267   50.3228 H   0  0  0  0  0  0  0  0  0  0  0  0
   67.8584   33.9222   50.3228 H   0  0  0  0  0  0  0  0  0  0  0  0
   63.7060   33.3010   49.7660 N   0  0  0  0  0  0  0  0  0  0  0  0
   63.8240   34.2020   49.2480 H   0  0  0  0  0  0  0  0  0  0  0  0
   58.7620   33.1870   48.0860 C   0  0  0  0  0  0  0  0  0  0  0  0
   58.5690   33.1778   49.1689 H   0  0  0  0  0  0  0  0  0  0  0  0
   57.7760   32.7410   47.2010 C   0  0  0  0  0  0  0  0  0  0  0  0
   56.8089   32.3916   47.5916 H   0  0  0  0  0  0  0  0  0  0  0  0
  1  2  1  0
  2  3  2  3
  3  4  1  0
  3  5  1  0
  5  6  2  0
  6  7  1  0
  6  8  1  0
  8  9  1  0
  9 10  2  0
  9 11  1  0
 11 12  1  0
 12 13  1  0
 12 14  1  0
 12 15  1  0
 15 16  2  0
 16 17  1  0
 16 18  1  0
 18 19  1  0
 18 20  2  0
 20 21  1  0
 20 22  1  0
 22 23  1  0
 22 24  2  0
 24 25  1  0
 11 26  1  0
 26 27  2  0
  2 28  1  0
 28 29  2  0
 29 30  1  0
 29 31  1  0
 31 32  1  0
 31 33  2  0
 33 34  1  0
 34 35  1  0
 34 36  2  0
 36 37  1  0
 36 38  1  0
 38 39  2  0
 39 40  1  0
 40 41  1  0
 41 42  1  0
 42 43  1  0
 42 44  1  0
 42 45  1  0
 40 46  2  0
 46 47  1  0
 46 48  1  0
 48 49  1  0
 49 50  1  0
 50 51  1  0
 50 52  1  0
 50 53  1  0
 48 54  2  0
 54 55  1  0
 33 56  1  0
 56 57  1  0
 56 58  2  0
 58 59  1  0
 26  5  1  0
 58 28  1  0
 24 15  1  0
 54 38  1  0
M  CHG  3   7  -1   8  -1  54   1
M  END
>  <UniqueID>  (92) 
79

>  <SMILES>  (92) 
COc1cc(OC)[nH+]c(/C=C/c2ccc(C=Cc3c([O-])[n-]c(=O)n(Cc4cccc(F)c4)c3=O)cc2)n1

>  <Energy>  (92) 
78.79436877616826

>  <Genealogy>  (92) 
COc1cc(OC)[nH+]c(C=Cc2ccc(C=Cc3c([O-])[n-]c(=O)n(Cc4cccc(F)c4)c3=O)cc2)n1 (protonated)
COc1cc(OC)[nH+]c(/C=C/c2ccc(C=Cc3c([O-])[n-]c(=O)n(Cc4cccc(F)c4)c3=O)cc2)n1 (cis-trans isomerization)
COc1cc(OC)[nH+]c(/C=C/c2ccc(C=Cc3c([O-])[n-]c(=O)n(Cc4cccc(F)c4)c3=O)cc2)n1 (3D coordinates assigned)
COc1cc(OC)[nH+]c(/C=C/c2ccc(C=Cc3c([O-])[n-]c(=O)n(Cc4cccc(F)c4)c3=O)cc2)n1 (optimized conformer: 78.79436877616826 kcal/mol)

>  <smiles>  (92) 
COc1cc(OC)nc(C=Cc2ccc(C=Cc3c(O)[nH]c(=O)n(Cc4cccc(F)c4)c3=O)cc2)n1

>  <score_type>  (92) 
oracle

>  <origin>  (92) 
adg

>  <m_score__min__energy>  (92) 
-12.720000000000001

>  <m_primary>  (92) 
energy

$$$$
