0:0
     RDKit          3D

 58 62  0  0  0  0  0  0  0  0999 V2000
   57.4530   31.4420   43.2380 C   0  0  0  0  0  0  0  0  0  0  0  0
   57.6200   32.4440   44.2740 N   0  0  0  0  0  0  0  0  0  0  0  0
   56.7730   32.8230   45.2480 C   0  0  0  0  0  0  0  0  0  0  0  0
   57.3280   33.7990   46.0030 N   0  0  0  0  0  0  0  0  0  0  0  0
   58.5540   34.0550   45.5110 C   0  0  0  0  0  0  0  0  0  0  0  0
   59.5720   35.0170   45.9560 C   0  0  0  0  0  0  0  0  0  0  0  0
   60.4430   34.5070   47.0000 N   0  0  0  0  0  0  0  0  0  0  0  0
   59.7480   34.0670   48.1670 C   0  0  0  0  0  0  0  0  0  0  0  0
   59.2240   32.6460   48.0740 C   0  0  0  0  0  0  0  0  0  0  0  0
   60.3600   31.7880   47.9480 N   0  0  0  0  0  0  0  0  0  0  0  0
   60.3500   30.4510   48.4270 C   0  0  0  0  0  0  0  0  0  0  0  0
   60.9770   30.1060   49.6050 C   0  0  0  0  0  0  0  0  0  0  0  0
   60.9820   28.8010   50.0930 C   0  0  0  0  0  0  0  0  0  0  0  0
   60.3370   27.8160   49.3760 C   0  0  0  0  0  0  0  0  0  0  0  0
   59.6980   28.1230   48.1930 C   0  0  0  0  0  0  0  0  0  0  0  0
   59.0000   27.0910   47.4080 C   0  0  0  0  0  0  0  0  0  0  0  0
   57.6920   27.1360   47.1060 N   0  0  0  0  0  0  0  0  0  0  0  0
   57.3600   26.0530   46.3840 C   0  0  0  0  0  0  0  0  0  0  0  0
   56.1530   25.6530   45.8450 C   0  0  0  0  0  0  0  0  0  0  0  0
   55.1330   26.3700   46.0120 O   0  0  0  0  0  0  0  0  0  0  0  0
   56.1310   24.5050   45.1610 N   0  0  0  0  0  0  0  0  0  0  0  0
   54.8820   24.0380   44.5720 C   0  0  0  0  0  0  0  0  0  0  0  0
   57.2510   23.7440   44.9950 C   0  0  0  0  0  0  0  0  0  0  0  0
   57.1660   22.6650   44.3360 O   0  0  0  0  0  0  0  0  0  0  0  0
   58.4200   24.1570   45.5320 N   0  0  0  0  0  0  0  0  0  0  0  0
   59.6270   23.3630   45.3670 C   0  0  0  0  0  0  0  0  0  0  0  0
   58.5170   25.3020   46.2320 C   0  0  0  0  0  0  0  0  0  0  0  0
   59.5030   25.9650   46.8700 N   0  0  0  0  0  0  0  0  0  0  0  0
   59.7160   29.4380   47.7400 C   0  0  0  0  0  0  0  0  0  0  0  0
   61.5490   32.3150   47.3080 C   0  0  0  0  0  0  0  0  0  0  0  0
   61.2540   33.4850   46.3970 C   0  0  0  0  0  0  0  0  0  0  0  0
   58.7240   33.1950   44.4220 C   0  0  0  0  0  0  0  0  0  0  0  0
   57.2891   30.4583   43.7023 H   0  0  0  0  0  0  0  0  0  0  0  0
   56.5857   31.7017   42.6131 H   0  0  0  0  0  0  0  0  0  0  0  0
   58.3576   31.4063   42.6131 H   0  0  0  0  0  0  0  0  0  0  0  0
   55.7706   32.3992   45.4080 H   0  0  0  0  0  0  0  0  0  0  0  0
   60.1923   35.2912   45.0899 H   0  0  0  0  0  0  0  0  0  0  0  0
   59.0353   35.8790   46.3789 H   0  0  0  0  0  0  0  0  0  0  0  0
   60.4366   34.1265   49.0227 H   0  0  0  0  0  0  0  0  0  0  0  0
   58.8721   34.7224   48.2819 H   0  0  0  0  0  0  0  0  0  0  0  0
   58.6580   32.3921   48.9824 H   0  0  0  0  0  0  0  0  0  0  0  0
   58.5494   32.5325   47.2126 H   0  0  0  0  0  0  0  0  0  0  0  0
   61.4920   30.8892   50.1806 H   0  0  0  0  0  0  0  0  0  0  0  0
   61.4932   28.5602   51.0367 H   0  0  0  0  0  0  0  0  0  0  0  0
   60.3320   26.7811   49.7489 H   0  0  0  0  0  0  0  0  0  0  0  0
   54.1753   23.7738   45.3725 H   0  0  0  0  0  0  0  0  0  0  0  0
   54.4495   24.8352   43.9495 H   0  0  0  0  0  0  0  0  0  0  0  0
   55.0786   23.1526   43.9495 H   0  0  0  0  0  0  0  0  0  0  0  0
   60.0297   23.0981   46.3558 H   0  0  0  0  0  0  0  0  0  0  0  0
   59.3886   22.4448   44.8102 H   0  0  0  0  0  0  0  0  0  0  0  0
   60.3758   23.9455   44.8102 H   0  0  0  0  0  0  0  0  0  0  0  0
   60.4950   25.6450   46.9320 H   0  0  0  0  0  0  0  0  0  0  0  0
   59.2043   29.6790   46.7966 H   0  0  0  0  0  0  0  0  0  0  0  0
   62.2510   32.6450   48.0879 H   0  0  0  0  0  0  0  0  0  0  0  0
   61.9753   31.5121   46.6886 H   0  0  0  0  0  0  0  0  0  0  0  0
   62.2101   33.9366   46.0937 H   0  0  0  0  0  0  0  0  0  0  0  0
   60.6830   33.0880   45.5447 H   0  0  0  0  0  0  0  0  0  0  0  0
   59.6203   33.1417   43.7866 H   0  0  0  0  0  0  0  0  0  0  0  0
  1  2  1  0
  2  3  1  0
  3  4  2  0
  4  5  1  0
  5  6  1  0
  6  7  1  0
  7  8  1  0
  8  9  1  0
  9 10  1  0
 10 11  1  0
 11 12  2  0
 12 13  1  0
 13 14  2  0
 14 15  1  0
 15 16  1  0
 16 17  2  0
 17 18  1  0
 18 19  1  0
 19 20  2  0
 19 21  1  0
 21 22  1  0
 21 23  1  0
 23 24  2  0
 23 25  1  0
 25 26  1  0
 25 27  1  0
 27 28  1  0
 15 29  2  0
 10 30  1  0
 30 31  1  0
  5 32  2  0
 32  2  1  0
 31  7  1  0
 29 11  1  0
 28 16  1  0
 27 18  2  0
  1 33  1  0
  1 34  1  0
  1 35  1  0
  3 36  1  0
  6 37  1  0
  6 38  1  0
  8 39  1  0
  8 40  1  0
  9 41  1  0
  9 42  1  0
 12 43  1  0
 13 44  1  0
 14 45  1  0
 22 46  1  0
 22 47  1  0
 22 48  1  0
 26 49  1  0
 26 50  1  0
 26 51  1  0
 28 52  1  0
 29 53  1  0
 30 54  1  0
 30 55  1  0
 31 56  1  0
 31 57  1  0
 32 58  1  0
M  END
>  <smiles>  (1) 
Cn1cnc(CN2CCN(c3cccc(-c4nc5c(=O)n(C)c(=O)n(C)c5[nH]4)c3)CC2)c1

>  <score_type>  (1) 
oracle

>  <origin>  (1) 
adg

>  <m_score__min__energy>  (1) 
-8.5700000000000003

>  <m_primary>  (1) 
energy

$$$$
1:0
     RDKit          3D

 49 52  0  0  0  0  0  0  0  0999 V2000
   54.8680   29.6000   44.1730 O   0  0  0  0  0  0  0  0  0  0  0  0
   56.0800   29.6420   44.5160 C   0  0  0  0  0  0  0  0  0  0  0  0
   56.8490   30.8130   44.2000 N   0  0  0  0  0  0  0  0  0  0  0  0
   57.4060   31.7160   45.1650 C   0  0  0  0  0  0  0  0  0  0  0  0
   57.3890   33.0900   44.9040 C   0  0  0  0  0  0  0  0  0  0  0  0
   57.9830   33.9830   45.8000 C   0  0  0  0  0  0  0  0  0  0  0  0
   58.5910   33.5080   46.9670 C   0  0  0  0  0  0  0  0  0  0  0  0
   58.5780   32.1360   47.2600 C   0  0  0  0  0  0  0  0  0  0  0  0
   59.2310   31.6050   48.4780 C   0  0  0  0  0  0  0  0  0  0  0  0
   58.8150   32.0110   49.6000 O   0  0  0  0  0  0  0  0  0  0  0  0
   60.3110   30.6310   48.3870 N   0  0  0  0  0  0  0  0  0  0  0  0
   61.1130   30.5870   49.6290 C   0  0  0  0  0  0  0  0  0  0  0  0
   61.9140   31.8750   49.8370 C   0  0  0  0  0  0  0  0  0  0  0  0
   62.7360   32.1640   48.6530 N   0  0  0  0  0  0  0  0  0  0  0  0
   63.9640   32.9170   48.7840 C   0  0  0  0  0  0  0  0  0  0  0  0
   64.4690   33.4810   47.7720 O   0  0  0  0  0  0  0  0  0  0  0  0
   64.6410   33.0920   50.1180 C   0  0  0  0  0  0  0  0  0  0  0  0
   66.1530   32.9070   50.1140 C   0  0  0  0  0  0  0  0  0  0  0  0
   65.2580   31.8200   50.6820 C   0  0  0  0  0  0  0  0  0  0  0  0
   62.0940   32.0760   47.3340 C   0  0  0  0  0  0  0  0  0  0  0  0
   61.1980   30.8260   47.2160 C   0  0  0  0  0  0  0  0  0  0  0  0
   57.9660   31.2470   46.3640 C   0  0  0  0  0  0  0  0  0  0  0  0
   56.6730   28.4760   45.2080 C   0  0  0  0  0  0  0  0  0  0  0  0
   58.0550   28.3790   45.4320 C   0  0  0  0  0  0  0  0  0  0  0  0
   58.5470   27.2570   46.0990 C   0  0  0  0  0  0  0  0  0  0  0  0
   59.7800   27.1450   46.3280 O   0  0  0  0  0  0  0  0  0  0  0  0
   57.6940   26.2840   46.5090 N   0  0  0  0  0  0  0  0  0  0  0  0
   56.3600   26.3830   46.2730 C   0  0  0  0  0  0  0  0  0  0  0  0
   55.5840   25.4700   46.6600 O   0  0  0  0  0  0  0  0  0  0  0  0
   55.8610   27.4670   45.6260 N   0  0  0  0  0  0  0  0  0  0  0  0
   56.9067   33.4688   43.9908 H   0  0  0  0  0  0  0  0  0  0  0  0
   57.9725   35.0622   45.5871 H   0  0  0  0  0  0  0  0  0  0  0  0
   59.0803   34.2118   47.6564 H   0  0  0  0  0  0  0  0  0  0  0  0
   59.8660   29.6900   48.2680 H   0  0  0  0  0  0  0  0  0  0  0  0
   60.4361   30.4470   50.4847 H   0  0  0  0  0  0  0  0  0  0  0  0
   61.8248   29.7525   49.5459 H   0  0  0  0  0  0  0  0  0  0  0  0
   61.2191   32.7103   50.0085 H   0  0  0  0  0  0  0  0  0  0  0  0
   62.5743   31.7479   50.7075 H   0  0  0  0  0  0  0  0  0  0  0  0
   63.9560   33.8672   50.4920 H   0  0  0  0  0  0  0  0  0  0  0  0
   66.6842   32.7418   49.1650 H   0  0  0  0  0  0  0  0  0  0  0  0
   67.0082   33.4864   50.4921 H   0  0  0  0  0  0  0  0  0  0  0  0
   65.1414   30.8674   50.1444 H   0  0  0  0  0  0  0  0  0  0  0  0
   65.1972   31.2863   51.6420 H   0  0  0  0  0  0  0  0  0  0  0  0
   61.4765   32.9729   47.1779 H   0  0  0  0  0  0  0  0  0  0  0  0
   62.8847   32.0033   46.5727 H   0  0  0  0  0  0  0  0  0  0  0  0
   60.5726   30.9277   46.3168 H   0  0  0  0  0  0  0  0  0  0  0  0
   61.8628   29.9514   47.1602 H   0  0  0  0  0  0  0  0  0  0  0  0
   57.9245   30.1740   46.6026 H   0  0  0  0  0  0  0  0  0  0  0  0
   58.7363   29.1715   45.0887 H   0  0  0  0  0  0  0  0  0  0  0  0
  1  2  2  0
  2  3  1  0
  3  4  1  0
  4  5  2  0
  5  6  1  0
  6  7  2  0
  7  8  1  0
  8  9  1  0
  9 10  2  0
  9 11  1  0
 11 12  1  0
 12 13  1  0
 13 14  1  0
 14 15  1  0
 15 16  2  0
 15 17  1  0
 17 18  1  0
 18 19  1  0
 14 20  1  0
 20 21  1  0
  8 22  2  0
  2 23  1  0
 23 24  2  0
 24 25  1  0
 25 26  2  0
 25 27  1  0
 27 28  1  0
 28 29  2  0
 28 30  1  0
 22  4  1  0
 30 23  1  0
 21 11  1  0
 19 17  1  0
  5 31  1  0
  6 32  1  0
  7 33  1  0
 11 34  1  0
 12 35  1  0
 12 36  1  0
 13 37  1  0
 13 38  1  0
 17 39  1  0
 18 40  1  0
 18 41  1  0
 19 42  1  0
 19 43  1  0
 20 44  1  0
 20 45  1  0
 21 46  1  0
 21 47  1  0
 22 48  1  0
 24 49  1  0
M  CHG  4   3  -1  11   1  27  -1  30  -1
M  END
>  <UniqueID>  (2) 
1

>  <SMILES>  (2) 
O=C([N-]c1cccc(C(=O)[NH+]2CCN(C(=O)C3CC3)CC2)c1)c1cc(=O)[n-]c(=O)[n-]1

>  <Energy>  (2) 
330.69194237281096

>  <Genealogy>  (2) 
O=C([N-]c1cccc(C(=O)[NH+]2CCN(C(=O)C3CC3)CC2)c1)c1cc(=O)[n-]c(=O)[n-]1 (protonated)
O=C([N-]c1cccc(C(=O)[NH+]2CCN(C(=O)C3CC3)CC2)c1)c1cc(=O)[n-]c(=O)[n-]1 (3D coordinates assigned)
O=C([N-]c1cccc(C(=O)[NH+]2CCN(C(=O)C3CC3)CC2)c1)c1cc(=O)[n-]c(=O)[n-]1 (nonaromatic ring conformer: 330.69194237281096 kcal/mol)

>  <smiles>  (2) 
O=C(Nc1cccc(C(=O)N2CCN(C(=O)C3CC3)CC2)c1)c1cc(=O)[nH]c(=O)[nH]1

>  <score_type>  (2) 
oracle

>  <origin>  (2) 
adg

>  <m_score__min__energy>  (2) 
-13.470000000000001

>  <m_primary>  (2) 
energy

$$$$
2:0
     RDKit          3D

 54 58  0  0  0  0  0  0  0  0999 V2000
   65.1800   31.6420   49.6670 O   0  0  0  0  0  0  0  0  0  0  0  0
   64.0200   32.1130   49.8000 C   0  0  0  0  0  0  0  0  0  0  0  0
   62.9190   31.2720   50.1670 N   0  0  0  0  0  0  0  0  0  0  0  0
   61.8850   30.7660   49.3100 C   0  0  0  0  0  0  0  0  0  0  0  0
   60.8460   30.0220   49.8890 C   0  0  0  0  0  0  0  0  0  0  0  0
   59.8160   29.5080   49.0970 C   0  0  0  0  0  0  0  0  0  0  0  0
   59.8020   29.7380   47.7100 C   0  0  0  0  0  0  0  0  0  0  0  0
   58.7140   29.2080   46.8580 C   0  0  0  0  0  0  0  0  0  0  0  0
   58.3620   27.9100   46.8450 N   0  0  0  0  0  0  0  0  0  0  0  0
   57.3030   27.8650   46.0100 C   0  0  0  0  0  0  0  0  0  0  0  0
   56.6190   26.5900   45.6290 C   0  0  0  0  0  0  0  0  0  0  0  0
   57.5900   25.5010   45.5130 N   0  0  0  0  0  0  0  0  0  0  0  0
   57.2890   24.2360   44.8930 C   0  0  0  0  0  0  0  0  0  0  0  0
   57.6280   23.0120   45.5010 C   0  0  0  0  0  0  0  0  0  0  0  0
   57.3210   21.8000   44.8740 C   0  0  0  0  0  0  0  0  0  0  0  0
   56.6760   21.7930   43.6340 C   0  0  0  0  0  0  0  0  0  0  0  0
   56.3820   20.5790   43.0200 O   0  0  0  0  0  0  0  0  0  0  0  0
   56.3330   23.0060   43.0220 C   0  0  0  0  0  0  0  0  0  0  0  0
   56.6370   24.2190   43.6470 C   0  0  0  0  0  0  0  0  0  0  0  0
   56.9770   29.0590   45.4730 N   0  0  0  0  0  0  0  0  0  0  0  0
   57.8710   29.9110   46.0090 C   0  0  0  0  0  0  0  0  0  0  0  0
   57.9420   31.3340   45.6260 C   0  0  0  0  0  0  0  0  0  0  0  0
   57.8970   31.6930   44.2700 C   0  0  0  0  0  0  0  0  0  0  0  0
   57.9640   33.0380   43.8930 C   0  0  0  0  0  0  0  0  0  0  0  0
   58.0900   34.0310   44.8670 C   0  0  0  0  0  0  0  0  0  0  0  0
   58.1450   35.3350   44.5010 F   0  0  0  0  0  0  0  0  0  0  0  0
   58.1650   33.6800   46.2200 C   0  0  0  0  0  0  0  0  0  0  0  0
   58.1020   32.3360   46.6010 C   0  0  0  0  0  0  0  0  0  0  0  0
   60.8680   30.4380   47.1260 C   0  0  0  0  0  0  0  0  0  0  0  0
   61.9040   30.9440   47.9160 C   0  0  0  0  0  0  0  0  0  0  0  0
   63.7730   33.5490   49.4550 C   0  0  0  0  0  0  0  0  0  0  0  0
   63.3850   33.8140   48.0090 C   0  0  0  0  0  0  0  0  0  0  0  0
   62.3270   33.8680   49.0990 C   0  0  0  0  0  0  0  0  0  0  0  0
   60.8422   29.8420   50.9742 H   0  0  0  0  0  0  0  0  0  0  0  0
   59.0110   28.9197   49.5616 H   0  0  0  0  0  0  0  0  0  0  0  0
   55.8774   26.3330   46.3997 H   0  0  0  0  0  0  0  0  0  0  0  0
   56.1236   26.7293   44.6568 H   0  0  0  0  0  0  0  0  0  0  0  0
   58.5520   25.6380   45.9050 H   0  0  0  0  0  0  0  0  0  0  0  0
   58.1378   23.0090   46.4758 H   0  0  0  0  0  0  0  0  0  0  0  0
   57.5881   20.8492   45.3584 H   0  0  0  0  0  0  0  0  0  0  0  0
   56.9700   19.7640   43.1570 H   0  0  0  0  0  0  0  0  0  0  0  0
   55.8232   23.0038   42.0473 H   0  0  0  0  0  0  0  0  0  0  0  0
   56.3642   25.1672   43.1606 H   0  0  0  0  0  0  0  0  0  0  0  0
   57.8086   30.9125   43.4999 H   0  0  0  0  0  0  0  0  0  0  0  0
   57.9175   33.3139   42.8292 H   0  0  0  0  0  0  0  0  0  0  0  0
   58.2737   34.4629   46.9850 H   0  0  0  0  0  0  0  0  0  0  0  0
   58.1776   32.0618   47.6636 H   0  0  0  0  0  0  0  0  0  0  0  0
   60.8888   30.5900   46.0368 H   0  0  0  0  0  0  0  0  0  0  0  0
   62.7382   31.4841   47.4445 H   0  0  0  0  0  0  0  0  0  0  0  0
   64.5234   33.9642   50.1438 H   0  0  0  0  0  0  0  0  0  0  0  0
   63.7112   34.7402   47.5132 H   0  0  0  0  0  0  0  0  0  0  0  0
   63.4973   33.2667   47.0615 H   0  0  0  0  0  0  0  0  0  0  0  0
   61.8882   34.8331   49.3925 H   0  0  0  0  0  0  0  0  0  0  0  0
   61.3576   33.3763   49.2674 H   0  0  0  0  0  0  0  0  0  0  0  0
  1  2  2  0
  2  3  1  0
  3  4  1  0
  4  5  2  0
  5  6  1  0
  6  7  2  0
  7  8  1  0
  8  9  1  0
  9 10  1  0
 10 11  1  0
 11 12  1  0
 12 13  1  0
 13 14  2  0
 14 15  1  0
 15 16  2  0
 16 17  1  0
 16 18  1  0
 18 19  2  0
 10 20  2  0
 20 21  1  0
 21 22  1  0
 22 23  2  0
 23 24  1  0
 24 25  2  0
 25 26  1  0
 25 27  1  0
 27 28  2  0
  7 29  1  0
 29 30  2  0
  2 31  1  0
 31 32  1  0
 32 33  1  0
 30  4  1  0
 33 31  1  0
 21  8  2  0
 28 22  1  0
 19 13  1  0
  5 34  1  0
  6 35  1  0
 11 36  1  0
 11 37  1  0
 12 38  1  0
 14 39  1  0
 15 40  1  0
 17 41  1  0
 18 42  1  0
 19 43  1  0
 23 44  1  0
 24 45  1  0
 27 46  1  0
 28 47  1  0
 29 48  1  0
 30 49  1  0
 31 50  1  0
 32 51  1  0
 32 52  1  0
 33 53  1  0
 33 54  1  0
M  CHG  2   3  -1   9  -1
M  END
>  <UniqueID>  (3) 
2

>  <SMILES>  (3) 
O=C([N-]c1ccc(-c2[n-]c(CNc3ccc(O)cc3)nc2-c2ccc(F)cc2)cc1)C1CC1

>  <Energy>  (3) 
359.9754944378185

>  <Genealogy>  (3) 
O=C([N-]c1ccc(-c2[n-]c(CNc3ccc(O)cc3)nc2-c2ccc(F)cc2)cc1)C1CC1 (protonated)
O=C([N-]c1ccc(-c2[n-]c(CNc3ccc(O)cc3)nc2-c2ccc(F)cc2)cc1)C1CC1 (3D coordinates assigned)
O=C([N-]c1ccc(-c2[n-]c(CNc3ccc(O)cc3)nc2-c2ccc(F)cc2)cc1)C1CC1 (nonaromatic ring conformer: 359.9754944378185 kcal/mol)

>  <smiles>  (3) 
O=C(Nc1ccc(-c2[nH]c(CNc3ccc(O)cc3)nc2-c2ccc(F)cc2)cc1)C1CC1

>  <score_type>  (3) 
oracle

>  <origin>  (3) 
adg

>  <m_score__min__energy>  (3) 
-10.779999999999999

>  <m_primary>  (3) 
energy

$$$$
3:0
     RDKit          3D

 61 64  0  0  0  0  0  0  0  0999 V2000
   55.1220   29.3560   44.8840 O   0  0  0  0  0  0  0  0  0  0  0  0
   56.2260   29.8670   44.5580 C   0  0  0  0  0  0  0  0  0  0  0  0
   56.3670   31.2900   44.4950 N   0  0  0  0  0  0  0  0  0  0  0  0
   57.5710   31.9550   44.0140 C   0  0  0  0  0  0  0  0  0  0  0  0
   58.2320   32.7030   45.1390 C   0  0  0  0  0  0  0  0  0  0  0  0
   58.5830   34.0540   44.9950 C   0  0  0  0  0  0  0  0  0  0  0  0
   59.1750   34.7440   46.0560 C   0  0  0  0  0  0  0  0  0  0  0  0
   59.4160   34.0940   47.2700 C   0  0  0  0  0  0  0  0  0  0  0  0
   59.0550   32.7500   47.4310 C   0  0  0  0  0  0  0  0  0  0  0  0
   59.3890   31.9220   48.9510 S   0  0  0  0  0  0  0  0  0  0  0  0
   58.4130   32.3970   49.9930 O   0  0  0  0  0  0  0  0  0  0  0  0
   59.2040   30.4390   48.7670 O   0  0  0  0  0  0  0  0  0  0  0  0
   61.0200   32.2630   49.4740 N   0  0  0  0  0  0  0  0  0  0  0  0
   61.1060   33.6410   50.0080 C   0  0  0  0  0  0  0  0  0  0  0  0
   62.5600   34.1490   50.0920 C   0  0  0  0  0  0  0  0  0  0  0  0
   63.5040   33.0140   50.0910 N   0  0  0  0  0  0  0  0  0  0  0  0
   64.8760   33.4250   50.4960 C   0  0  0  0  0  0  0  0  0  0  0  0
   66.0120   32.6850   49.7580 C   0  0  0  0  0  0  0  0  0  0  0  0
   66.8560   31.9960   50.8250 C   0  0  0  0  0  0  0  0  0  0  0  0
   66.0310   32.0040   52.1000 C   0  0  0  0  0  0  0  0  0  0  0  0
   65.1260   33.2180   51.9920 C   0  0  0  0  0  0  0  0  0  0  0  0
   63.4190   32.2320   48.8310 C   0  0  0  0  0  0  0  0  0  0  0  0
   61.9590   32.0680   48.3550 C   0  0  0  0  0  0  0  0  0  0  0  0
   58.4660   32.0570   46.3640 C   0  0  0  0  0  0  0  0  0  0  0  0
   57.3720   29.0080   44.1960 C   0  0  0  0  0  0  0  0  0  0  0  0
   57.4380   28.5540   43.0220 O   0  0  0  0  0  0  0  0  0  0  0  0
   58.4350   28.6450   45.1670 C   0  0  0  0  0  0  0  0  0  0  0  0
   58.1380   27.9250   46.3410 C   0  0  0  0  0  0  0  0  0  0  0  0
   59.1550   27.5930   47.2430 C   0  0  0  0  0  0  0  0  0  0  0  0
   60.4720   27.9840   46.9910 C   0  0  0  0  0  0  0  0  0  0  0  0
   60.7730   28.7170   45.8420 C   0  0  0  0  0  0  0  0  0  0  0  0
   59.7610   29.0540   44.9380 C   0  0  0  0  0  0  0  0  0  0  0  0
   58.2687   31.2026   43.6178 H   0  0  0  0  0  0  0  0  0  0  0  0
   57.2974   32.6659   43.2204 H   0  0  0  0  0  0  0  0  0  0  0  0
   58.3914   34.5716   44.0435 H   0  0  0  0  0  0  0  0  0  0  0  0
   59.4522   35.8017   45.9357 H   0  0  0  0  0  0  0  0  0  0  0  0
   59.8898   34.6386   48.1000 H   0  0  0  0  0  0  0  0  0  0  0  0
   61.2490   31.5820   50.2360 H   0  0  0  0  0  0  0  0  0  0  0  0
   60.5350   34.3116   49.3490 H   0  0  0  0  0  0  0  0  0  0  0  0
   60.6943   33.6319   51.0280 H   0  0  0  0  0  0  0  0  0  0  0  0
   62.7687   34.7945   49.2261 H   0  0  0  0  0  0  0  0  0  0  0  0
   62.6858   34.7161   51.0261 H   0  0  0  0  0  0  0  0  0  0  0  0
   64.9030   34.4906   50.2244 H   0  0  0  0  0  0  0  0  0  0  0  0
   65.5918   31.9389   49.0675 H   0  0  0  0  0  0  0  0  0  0  0  0
   66.6195   33.3853   49.1660 H   0  0  0  0  0  0  0  0  0  0  0  0
   67.0794   30.9620   50.5235 H   0  0  0  0  0  0  0  0  0  0  0  0
   67.8154   32.5145   50.9691 H   0  0  0  0  0  0  0  0  0  0  0  0
   65.4325   31.0842   52.1760 H   0  0  0  0  0  0  0  0  0  0  0  0
   66.6669   32.0484   52.9964 H   0  0  0  0  0  0  0  0  0  0  0  0
   64.1766   33.0351   52.5166 H   0  0  0  0  0  0  0  0  0  0  0  0
   65.5858   34.1058   52.4507 H   0  0  0  0  0  0  0  0  0  0  0  0
   63.9919   32.7526   48.0495 H   0  0  0  0  0  0  0  0  0  0  0  0
   63.8309   31.2301   49.0221 H   0  0  0  0  0  0  0  0  0  0  0  0
   61.7485   32.8127   47.5733 H   0  0  0  0  0  0  0  0  0  0  0  0
   61.8291   31.0503   47.9583 H   0  0  0  0  0  0  0  0  0  0  0  0
   58.1853   31.0005   46.4870 H   0  0  0  0  0  0  0  0  0  0  0  0
   57.1013   27.6223   46.5497 H   0  0  0  0  0  0  0  0  0  0  0  0
   58.9166   27.0226   48.1529 H   0  0  0  0  0  0  0  0  0  0  0  0
   61.2711   27.7145   47.6973 H   0  0  0  0  0  0  0  0  0  0  0  0
   61.8092   29.0304   45.6471 H   0  0  0  0  0  0  0  0  0  0  0  0
   60.0036   29.6432   44.0413 H   0  0  0  0  0  0  0  0  0  0  0  0
  1  2  2  0
  2  3  1  0
  3  4  1  0
  4  5  1  0
  5  6  2  0
  6  7  1  0
  7  8  2  0
  8  9  1  0
  9 10  1  0
 10 11  2  0
 10 12  2  0
 10 13  1  0
 13 14  1  0
 14 15  1  0
 15 16  1  0
 16 17  1  0
 17 18  1  0
 18 19  1  0
 19 20  1  0
 20 21  1  0
 16 22  1  0
 22 23  1  0
  9 24  2  0
  2 25  1  0
 25 26  2  0
 25 27  1  0
 27 28  2  0
 28 29  1  0
 29 30  2  0
 30 31  1  0
 31 32  2  0
 24  5  1  0
 32 27  1  0
 23 13  1  0
 21 17  1  0
  4 33  1  0
  4 34  1  0
  6 35  1  0
  7 36  1  0
  8 37  1  0
 13 38  1  0
 14 39  1  0
 14 40  1  0
 15 41  1  0
 15 42  1  0
 17 43  1  0
 18 44  1  0
 18 45  1  0
 19 46  1  0
 19 47  1  0
 20 48  1  0
 20 49  1  0
 21 50  1  0
 21 51  1  0
 22 52  1  0
 22 53  1  0
 23 54  1  0
 23 55  1  0
 24 56  1  0
 28 57  1  0
 29 58  1  0
 30 59  1  0
 31 60  1  0
 32 61  1  0
M  CHG  2   3  -1  13   1
M  END
>  <UniqueID>  (4) 
3

>  <SMILES>  (4) 
O=C([N-]Cc1cccc(S(=O)(=O)[NH+]2CCN(C3CCCC3)CC2)c1)C(=O)c1ccccc1

>  <Energy>  (4) 
76.78262737485404

>  <Genealogy>  (4) 
O=C([N-]Cc1cccc(S(=O)(=O)[NH+]2CCN(C3CCCC3)CC2)c1)C(=O)c1ccccc1 (protonated)
O=C([N-]Cc1cccc(S(=O)(=O)[NH+]2CCN(C3CCCC3)CC2)c1)C(=O)c1ccccc1 (3D coordinates assigned)
O=C([N-]Cc1cccc(S(=O)(=O)[NH+]2CCN(C3CCCC3)CC2)c1)C(=O)c1ccccc1 (nonaromatic ring conformer: 76.78262737485404 kcal/mol)

>  <smiles>  (4) 
O=C(NCc1cccc(S(=O)(=O)N2CCN(C3CCCC3)CC2)c1)C(=O)c1ccccc1

>  <score_type>  (4) 
oracle

>  <origin>  (4) 
adg

>  <m_score__min__energy>  (4) 
-11.15

>  <m_primary>  (4) 
energy

$$$$
4:0
     RDKit          3D

 63 66  0  0  0  0  0  0  0  0999 V2000
   58.5950   30.1630   47.1280 H   0  0  0  0  0  0  0  0  0  0  0  0
   57.7780   29.7530   46.6970 O   0  0  0  0  0  0  0  0  0  0  0  0
   57.8330   29.1390   45.4470 C   0  0  0  0  0  0  0  0  0  0  0  0
   58.4720   27.9470   45.1650 C   0  0  0  0  0  0  0  0  0  0  0  0
   59.1750   27.0760   46.1220 C   0  0  0  0  0  0  0  0  0  0  0  0
   59.2815   26.0126   45.8613 H   0  0  0  0  0  0  0  0  0  0  0  0
   59.6950   27.4860   47.2890 C   0  0  0  0  0  0  0  0  0  0  0  0
   59.8750   26.6510   48.3360 N   0  0  0  0  0  0  0  0  0  0  0  0
   60.4280   27.4240   49.3010 C   0  0  0  0  0  0  0  0  0  0  0  0
   60.7700   26.9370   50.4950 C   0  0  0  0  0  0  0  0  0  0  0  0
   61.2168   27.5989   51.2515 H   0  0  0  0  0  0  0  0  0  0  0  0
   60.6052   25.8736   50.7230 H   0  0  0  0  0  0  0  0  0  0  0  0
   60.6080   28.7110   48.9090 N   0  0  0  0  0  0  0  0  0  0  0  0
   61.2350   29.8170   49.6450 C   0  0  0  0  0  0  0  0  0  0  0  0
   61.6035   29.4403   50.6106 H   0  0  0  0  0  0  0  0  0  0  0  0
   62.0626   30.2111   49.0368 H   0  0  0  0  0  0  0  0  0  0  0  0
   60.2570   30.9380   49.8970 C   0  0  0  0  0  0  0  0  0  0  0  0
   59.2390   31.0510   49.1570 O   0  0  0  0  0  0  0  0  0  0  0  0
   60.4740   31.8950   50.9570 N   0  0  0  0  0  0  0  0  0  0  0  0
   59.4730   32.9390   51.1930 C   0  0  0  0  0  0  0  0  0  0  0  0
   59.3381   33.0797   52.2756 H   0  0  0  0  0  0  0  0  0  0  0  0
   59.8130   33.8821   50.7403 H   0  0  0  0  0  0  0  0  0  0  0  0
   58.5165   32.6389   50.7403 H   0  0  0  0  0  0  0  0  0  0  0  0
   61.6900   31.8410   51.7790 C   0  0  0  0  0  0  0  0  0  0  0  0
   61.4137   31.8533   52.8437 H   0  0  0  0  0  0  0  0  0  0  0  0
   62.2436   30.9174   51.5545 H   0  0  0  0  0  0  0  0  0  0  0  0
   62.3233   32.7119   51.5545 H   0  0  0  0  0  0  0  0  0  0  0  0
   60.1680   28.7400   47.6380 C   0  0  0  0  0  0  0  0  0  0  0  0
   60.2480   29.7500   46.8890 O   0  0  0  0  0  0  0  0  0  0  0  0
   58.1930   27.5830   43.8970 N   0  0  0  0  0  0  0  0  0  0  0  0
   57.4310   28.5960   43.4300 C   0  0  0  0  0  0  0  0  0  0  0  0
   56.9470   28.5970   42.2680 O   0  0  0  0  0  0  0  0  0  0  0  0
   57.2040   29.5720   44.3370 N   0  0  0  0  0  0  0  0  0  0  0  0
   56.3880   30.7800   44.1790 C   0  0  0  0  0  0  0  0  0  0  0  0
   55.6529   30.6163   43.3772 H   0  0  0  0  0  0  0  0  0  0  0  0
   55.8768   30.9872   45.1307 H   0  0  0  0  0  0  0  0  0  0  0  0
   57.2500   31.9660   43.8250 C   0  0  0  0  0  0  0  0  0  0  0  0
   57.4560   32.1940   42.6020 O   0  0  0  0  0  0  0  0  0  0  0  0
   57.8650   32.8250   44.8140 N   0  0  0  0  0  0  0  0  0  0  0  0
   57.3910   32.9110   46.2040 C   0  0  0  0  0  0  0  0  0  0  0  0
   56.8360   33.8508   46.3411 H   0  0  0  0  0  0  0  0  0  0  0  0
   56.7348   32.0533   46.4131 H   0  0  0  0  0  0  0  0  0  0  0  0
   58.5800   32.8790   47.1720 C   0  0  0  0  0  0  0  0  0  0  0  0
   58.2447   33.2247   48.1610 H   0  0  0  0  0  0  0  0  0  0  0  0
   58.9544   31.8459   47.2233 H   0  0  0  0  0  0  0  0  0  0  0  0
   59.6760   33.7430   46.7110 N   0  0  0  0  0  0  0  0  0  0  0  0
   60.9530   33.6930   47.3790 C   0  0  0  0  0  0  0  0  0  0  0  0
   62.0570   33.0880   46.7550 C   0  0  0  0  0  0  0  0  0  0  0  0
   61.9498   32.6610   45.7469 H   0  0  0  0  0  0  0  0  0  0  0  0
   63.2910   33.0260   47.4090 C   0  0  0  0  0  0  0  0  0  0  0  0
   64.1505   32.5480   46.9163 H   0  0  0  0  0  0  0  0  0  0  0  0
   63.4340   33.5710   48.6890 C   0  0  0  0  0  0  0  0  0  0  0  0
   64.6320   33.5110   49.3220 F   0  0  0  0  0  0  0  0  0  0  0  0
   62.3390   34.1710   49.3180 C   0  0  0  0  0  0  0  0  0  0  0  0
   62.4504   34.5966   50.3262 H   0  0  0  0  0  0  0  0  0  0  0  0
   61.1030   34.2310   48.6680 C   0  0  0  0  0  0  0  0  0  0  0  0
   60.2438   34.7017   49.1681 H   0  0  0  0  0  0  0  0  0  0  0  0
   59.4850   34.5820   45.5220 C   0  0  0  0  0  0  0  0  0  0  0  0
   58.7642   35.3814   45.7489 H   0  0  0  0  0  0  0  0  0  0  0  0
   60.4467   35.0286   45.2293 H   0  0  0  0  0  0  0  0  0  0  0  0
   58.9500   33.7230   44.3740 C   0  0  0  0  0  0  0  0  0  0  0  0
   58.5646   34.3853   43.5848 H   0  0  0  0  0  0  0  0  0  0  0  0
   59.7768   33.0998   44.0024 H   0  0  0  0  0  0  0  0  0  0  0  0
  1  2  1  0
  2  3  1  0
  3  4  2  0
  4  5  1  0
  5  6  1  0
  5  7  2  0
  7  8  1  0
  8  9  1  0
  9 10  2  0
 10 11  1  0
 10 12  1  0
  9 13  1  0
 13 14  1  0
 14 15  1  0
 14 16  1  0
 14 17  1  0
 17 18  2  0
 17 19  1  0
 19 20  1  0
 20 21  1  0
 20 22  1  0
 20 23  1  0
 19 24  1  0
 24 25  1  0
 24 26  1  0
 24 27  1  0
 13 28  1  0
 28 29  2  0
  4 30  1  0
 30 31  1  0
 31 32  2  0
 31 33  1  0
 33 34  1  0
 34 35  1  0
 34 36  1  0
 34 37  1  0
 37 38  2  0
 37 39  1  0
 39 40  1  0
 40 41  1  0
 40 42  1  0
 40 43  1  0
 43 44  1  0
 43 45  1  0
 43 46  1  0
 46 47  1  0
 47 48  2  0
 48 49  1  0
 48 50  1  0
 50 51  1  0
 50 52  2  0
 52 53  1  0
 52 54  1  0
 54 55  1  0
 54 56  2  0
 56 57  1  0
 46 58  1  0
 58 59  1  0
 58 60  1  0
 58 61  1  0
 61 62  1  0
 61 63  1  0
 33  3  1  0
 61 39  1  0
 28  7  1  0
 56 47  1  0
M  CHG  2   8  -1  30  -1
M  END
>  <UniqueID>  (5) 
4

>  <SMILES>  (5) 
C=c1[n-]/c(=C/c2[n-]c(=O)n(CC(=O)N3CCN(c4ccc(F)cc4)CC3)c2O)c(=O)n1CC(=O)N(C)C

>  <Energy>  (5) 
141.55958353732797

>  <Genealogy>  (5) 
C=c1[n-]c(=Cc2[n-]c(=O)n(CC(=O)N3CCN(c4ccc(F)cc4)CC3)c2O)c(=O)n1CC(=O)N(C)C (protonated)
C=c1[n-]/c(=C/c2[n-]c(=O)n(CC(=O)N3CCN(c4ccc(F)cc4)CC3)c2O)c(=O)n1CC(=O)N(C)C (cis-trans isomerization)
C=c1[n-]/c(=C/c2[n-]c(=O)n(CC(=O)N3CCN(c4ccc(F)cc4)CC3)c2O)c(=O)n1CC(=O)N(C)C (3D coordinates assigned)
C=c1[n-]/c(=C/c2[n-]c(=O)n(CC(=O)N3CCN(c4ccc(F)cc4)CC3)c2O)c(=O)n1CC(=O)N(C)C (nonaromatic ring conformer: 141.55958353732797 kcal/mol)

>  <smiles>  (5) 
C=c1[nH]c(=Cc2[nH]c(=O)n(CC(=O)N3CCN(c4ccc(F)cc4)CC3)c2O)c(=O)n1CC(=O)N(C)C

>  <score_type>  (5) 
oracle

>  <origin>  (5) 
adg

>  <m_score__min__energy>  (5) 
-13.15

>  <m_primary>  (5) 
energy

$$$$
5:0
     RDKit          3D

 64 69  0  0  0  0  0  0  0  0999 V2000
   57.1630   30.2030   45.2230 O   0  0  0  0  0  0  0  0  0  0  0  0
   57.8950   29.3340   45.7700 C   0  0  0  0  0  0  0  0  0  0  0  0
   57.6650   27.9150   45.4230 C   0  0  0  0  0  0  0  0  0  0  0  0
   58.1170   27.4400   44.1830 C   0  0  0  0  0  0  0  0  0  0  0  0
   57.9260   26.1050   43.8200 C   0  0  0  0  0  0  0  0  0  0  0  0
   57.2880   25.2170   44.6990 C   0  0  0  0  0  0  0  0  0  0  0  0
   57.0270   23.8180   44.2950 C   0  0  0  0  0  0  0  0  0  0  0  0
   56.5400   23.5750   43.0470 N   0  0  0  0  0  0  0  0  0  0  0  0
   56.3360   22.3110   42.5950 C   0  0  0  0  0  0  0  0  0  0  0  0
   56.6400   21.2310   43.4210 C   0  0  0  0  0  0  0  0  0  0  0  0
   57.1020   21.4620   44.6760 N   0  0  0  0  0  0  0  0  0  0  0  0
   57.2930   22.7240   45.1480 C   0  0  0  0  0  0  0  0  0  0  0  0
   57.6800   22.9210   46.3760 N   0  0  0  0  0  0  0  0  0  0  0  0
   56.6330   22.8530   47.7570 S   0  0  0  0  0  0  0  0  0  0  0  0
   56.3730   24.2520   48.2400 O   0  0  0  0  0  0  0  0  0  0  0  0
   57.3190   22.0970   48.8610 O   0  0  0  0  0  0  0  0  0  0  0  0
   55.0810   22.1180   47.3130 C   0  0  0  0  0  0  0  0  0  0  0  0
   54.7780   20.8470   47.8250 C   0  0  0  0  0  0  0  0  0  0  0  0
   53.5490   20.2430   47.5520 C   0  0  0  0  0  0  0  0  0  0  0  0
   52.6000   20.9020   46.7680 C   0  0  0  0  0  0  0  0  0  0  0  0
   52.8790   22.1730   46.2460 C   0  0  0  0  0  0  0  0  0  0  0  0
   51.9370   22.8560   45.4620 C   0  0  0  0  0  0  0  0  0  0  0  0
   52.2370   24.1240   44.9600 C   0  0  0  0  0  0  0  0  0  0  0  0
   53.4750   24.6990   45.2500 C   0  0  0  0  0  0  0  0  0  0  0  0
   54.3790   24.0270   46.0120 N   0  0  0  0  0  0  0  0  0  0  0  0
   54.1260   22.7870   46.5160 C   0  0  0  0  0  0  0  0  0  0  0  0
   56.8540   25.6830   45.9480 C   0  0  0  0  0  0  0  0  0  0  0  0
   57.0630   27.0150   46.3180 C   0  0  0  0  0  0  0  0  0  0  0  0
   58.8220   29.7350   46.8020 N   0  0  0  0  0  0  0  0  0  0  0  0
   58.5260   30.9140   47.6310 C   0  0  0  0  0  0  0  0  0  0  0  0
   59.7180   31.8740   47.6090 C   0  0  0  0  0  0  0  0  0  0  0  0
   60.9880   31.1640   47.8450 N   0  0  0  0  0  0  0  0  0  0  0  0
   62.2210   31.9120   47.9420 C   0  0  0  0  0  0  0  0  0  0  0  0
   63.2600   31.3670   48.4110 O   0  0  0  0  0  0  0  0  0  0  0  0
   62.2800   33.3600   47.5310 C   0  0  0  0  0  0  0  0  0  0  0  0
   61.9510   34.3690   48.6260 C   0  0  0  0  0  0  0  0  0  0  0  0
   63.3930   34.1520   48.1990 C   0  0  0  0  0  0  0  0  0  0  0  0
   60.9780   29.7060   48.0570 C   0  0  0  0  0  0  0  0  0  0  0  0
   60.0970   29.0260   47.0000 C   0  0  0  0  0  0  0  0  0  0  0  0
   58.6267   28.1255   43.4899 H   0  0  0  0  0  0  0  0  0  0  0  0
   58.2773   25.7482   42.8406 H   0  0  0  0  0  0  0  0  0  0  0  0
   55.9341   22.1411   41.5852 H   0  0  0  0  0  0  0  0  0  0  0  0
   56.5068   20.2007   43.0593 H   0  0  0  0  0  0  0  0  0  0  0  0
   55.5164   20.3210   48.4479 H   0  0  0  0  0  0  0  0  0  0  0  0
   53.3276   19.2442   47.9561 H   0  0  0  0  0  0  0  0  0  0  0  0
   51.6319   20.4232   46.5596 H   0  0  0  0  0  0  0  0  0  0  0  0
   50.9634   22.3932   45.2431 H   0  0  0  0  0  0  0  0  0  0  0  0
   51.5047   24.6643   44.3421 H   0  0  0  0  0  0  0  0  0  0  0  0
   53.7203   25.6984   44.8613 H   0  0  0  0  0  0  0  0  0  0  0  0
   56.3459   24.9964   46.6412 H   0  0  0  0  0  0  0  0  0  0  0  0
   56.7542   27.3602   47.3157 H   0  0  0  0  0  0  0  0  0  0  0  0
   57.6370   31.4260   47.2340 H   0  0  0  0  0  0  0  0  0  0  0  0
   58.3366   30.5928   48.6659 H   0  0  0  0  0  0  0  0  0  0  0  0
   59.7615   32.3674   46.6268 H   0  0  0  0  0  0  0  0  0  0  0  0
   59.5811   32.6126   48.4126 H   0  0  0  0  0  0  0  0  0  0  0  0
   61.9356   33.2003   46.4986 H   0  0  0  0  0  0  0  0  0  0  0  0
   61.4375   35.3082   48.3725 H   0  0  0  0  0  0  0  0  0  0  0  0
   61.4083   34.3307   49.5820 H   0  0  0  0  0  0  0  0  0  0  0  0
   63.9235   34.9351   47.6374 H   0  0  0  0  0  0  0  0  0  0  0  0
   64.3264   33.8920   48.7198 H   0  0  0  0  0  0  0  0  0  0  0  0
   62.0049   29.3197   47.9781 H   0  0  0  0  0  0  0  0  0  0  0  0
   60.5730   29.4900   49.0567 H   0  0  0  0  0  0  0  0  0  0  0  0
   60.6423   29.0035   46.0450 H   0  0  0  0  0  0  0  0  0  0  0  0
   59.8680   28.0097   47.3530 H   0  0  0  0  0  0  0  0  0  0  0  0
  1  2  2  0
  2  3  1  0
  3  4  2  0
  4  5  1  0
  5  6  2  0
  6  7  1  0
  7  8  2  0
  8  9  1  0
  9 10  2  0
 10 11  1  0
 11 12  1  0
 12 13  2  3
 13 14  1  0
 14 15  2  0
 14 16  2  0
 14 17  1  0
 17 18  2  0
 18 19  1  0
 19 20  2  0
 20 21  1  0
 21 22  2  0
 22 23  1  0
 23 24  2  0
 24 25  1  0
 25 26  2  0
  6 27  1  0
 27 28  2  0
  2 29  1  0
 29 30  1  0
 30 31  1  0
 31 32  1  0
 32 33  1  0
 33 34  2  0
 33 35  1  0
 35 36  1  0
 36 37  1  0
 32 38  1  0
 38 39  1  0
 28  3  1  0
 39 29  1  0
 12  7  1  0
 26 17  1  0
 37 35  1  0
 26 21  1  0
  4 40  1  0
  5 41  1  0
  9 42  1  0
 10 43  1  0
 18 44  1  0
 19 45  1  0
 20 46  1  0
 22 47  1  0
 23 48  1  0
 24 49  1  0
 27 50  1  0
 28 51  1  0
 30 52  1  0
 30 53  1  0
 31 54  1  0
 31 55  1  0
 35 56  1  0
 36 57  1  0
 36 58  1  0
 37 59  1  0
 37 60  1  0
 38 61  1  0
 38 62  1  0
 39 63  1  0
 39 64  1  0
M  CHG  1  11  -1
M  END
>  <UniqueID>  (6) 
5

>  <SMILES>  (6) 
O=C(c1ccc(-c2ncc[n-]c2=NS(=O)(=O)c2cccc3cccnc23)cc1)N1CCN(C(=O)C2CC2)CC1

>  <Energy>  (6) 
360.2624373904871

>  <Genealogy>  (6) 
O=C(c1ccc(-c2ncc[n-]c2=NS(=O)(=O)c2cccc3cccnc23)cc1)N1CCN(C(=O)C2CC2)CC1 (protonated)
O=C(c1ccc(-c2ncc[n-]c2=NS(=O)(=O)c2cccc3cccnc23)cc1)N1CCN(C(=O)C2CC2)CC1 (3D coordinates assigned)
O=C(c1ccc(-c2ncc[n-]c2=NS(=O)(=O)c2cccc3cccnc23)cc1)N1CCN(C(=O)C2CC2)CC1 (nonaromatic ring conformer: 360.2624373904871 kcal/mol)

>  <smiles>  (6) 
O=C(c1ccc(-c2ncc[nH]c2=NS(=O)(=O)c2cccc3cccnc23)cc1)N1CCN(C(=O)C2CC2)CC1

>  <score_type>  (6) 
oracle

>  <origin>  (6) 
adg

>  <m_score__min__energy>  (6) 
-11.57

>  <m_primary>  (6) 
energy

$$$$
6:0
     RDKit          3D

 61 63  0  0  0  0  0  0  0  0999 V2000
   57.7780   27.0180   43.0480 C   0  0  0  0  0  0  0  0  0  0  0  0
   57.8390   27.8020   44.1270 C   0  0  0  0  0  0  0  0  0  0  0  0
   58.0410   29.4690   44.0440 S   0  0  0  0  0  0  0  0  0  0  0  0
   57.9770   29.6940   45.7100 C   0  0  0  0  0  0  0  0  0  0  0  0
   58.1000   30.8970   46.2950 C   0  0  0  0  0  0  0  0  0  0  0  0
   59.3800   31.5100   46.6930 C   0  0  0  0  0  0  0  0  0  0  0  0
   60.5480   30.7380   46.7990 C   0  0  0  0  0  0  0  0  0  0  0  0
   61.7430   31.3240   47.2250 C   0  0  0  0  0  0  0  0  0  0  0  0
   61.7820   32.6830   47.5610 C   0  0  0  0  0  0  0  0  0  0  0  0
   63.2890   33.4060   48.1230 S   0  0  0  0  0  0  0  0  0  0  0  0
   64.0710   33.8590   46.9210 O   0  0  0  0  0  0  0  0  0  0  0  0
   62.9860   34.6130   48.9670 O   0  0  0  0  0  0  0  0  0  0  0  0
   64.2320   32.2340   49.0230 N   0  0  0  0  0  0  0  0  0  0  0  0
   65.3710   32.8730   49.7270 C   0  0  0  0  0  0  0  0  0  0  0  0
   65.0720   33.1510   51.2120 C   0  0  0  0  0  0  0  0  0  0  0  0
   63.7020   33.4270   51.3950 O   0  0  0  0  0  0  0  0  0  0  0  0
   62.9320   32.2600   51.1730 C   0  0  0  0  0  0  0  0  0  0  0  0
   63.3900   31.4410   49.9410 C   0  0  0  0  0  0  0  0  0  0  0  0
   60.6090   33.4470   47.4880 C   0  0  0  0  0  0  0  0  0  0  0  0
   59.4130   32.8620   47.0660 C   0  0  0  0  0  0  0  0  0  0  0  0
   57.8150   28.4320   46.3000 C   0  0  0  0  0  0  0  0  0  0  0  0
   57.7690   28.2570   47.5490 O   0  0  0  0  0  0  0  0  0  0  0  0
   57.7400   27.3840   45.4230 N   0  0  0  0  0  0  0  0  0  0  0  0
   57.5300   25.9920   45.8510 C   0  0  0  0  0  0  0  0  0  0  0  0
   56.0960   25.7810   46.2230 C   0  0  0  0  0  0  0  0  0  0  0  0
   55.2500   26.6870   45.9950 O   0  0  0  0  0  0  0  0  0  0  0  0
   55.6890   24.5380   46.8000 N   0  0  0  0  0  0  0  0  0  0  0  0
   55.7330   23.2760   46.0730 C   0  0  0  0  0  0  0  0  0  0  0  0
   55.5270   23.5130   44.5710 C   0  0  0  0  0  0  0  0  0  0  0  0
   56.7830   23.2290   43.7120 C   0  0  0  0  0  0  0  0  0  0  0  0
   57.9580   22.8370   44.6170 C   0  0  0  0  0  0  0  0  0  0  0  0
   56.5340   22.1250   42.6730 C   0  0  0  0  0  0  0  0  0  0  0  0
   57.6446   25.9323   43.1639 H   0  0  0  0  0  0  0  0  0  0  0  0
   57.8612   27.4578   42.0432 H   0  0  0  0  0  0  0  0  0  0  0  0
   57.1790   31.4656   46.4912 H   0  0  0  0  0  0  0  0  0  0  0  0
   60.5223   29.6679   46.5458 H   0  0  0  0  0  0  0  0  0  0  0  0
   62.6565   30.7155   47.2967 H   0  0  0  0  0  0  0  0  0  0  0  0
   64.6230   31.5740   48.3100 H   0  0  0  0  0  0  0  0  0  0  0  0
   66.2433   32.2059   49.6626 H   0  0  0  0  0  0  0  0  0  0  0  0
   65.5617   33.8406   49.2399 H   0  0  0  0  0  0  0  0  0  0  0  0
   65.3465   32.2683   51.8082 H   0  0  0  0  0  0  0  0  0  0  0  0
   65.6578   34.0238   51.5362 H   0  0  0  0  0  0  0  0  0  0  0  0
   63.0066   31.6193   52.0640 H   0  0  0  0  0  0  0  0  0  0  0  0
   61.8998   32.5864   50.9782 H   0  0  0  0  0  0  0  0  0  0  0  0
   63.9673   30.5717   50.2888 H   0  0  0  0  0  0  0  0  0  0  0  0
   62.4902   31.1308   49.3894 H   0  0  0  0  0  0  0  0  0  0  0  0
   60.6306   34.5115   47.7642 H   0  0  0  0  0  0  0  0  0  0  0  0
   58.4931   33.4638   47.0259 H   0  0  0  0  0  0  0  0  0  0  0  0
   57.7961   25.3136   45.0270 H   0  0  0  0  0  0  0  0  0  0  0  0
   58.1640   25.7839   46.7255 H   0  0  0  0  0  0  0  0  0  0  0  0
   56.7116   22.7999   46.2334 H   0  0  0  0  0  0  0  0  0  0  0  0
   54.9284   22.6239   46.4437 H   0  0  0  0  0  0  0  0  0  0  0  0
   54.7153   22.8561   44.2251 H   0  0  0  0  0  0  0  0  0  0  0  0
   55.2900   24.5799   44.4462 H   0  0  0  0  0  0  0  0  0  0  0  0
   57.0253   24.1520   43.1649 H   0  0  0  0  0  0  0  0  0  0  0  0
   57.6585   22.9369   45.6707 H   0  0  0  0  0  0  0  0  0  0  0  0
   58.2448   21.7945   44.4146 H   0  0  0  0  0  0  0  0  0  0  0  0
   58.8133   23.4985   44.4146 H   0  0  0  0  0  0  0  0  0  0  0  0
   56.3203   21.1773   43.1890 H   0  0  0  0  0  0  0  0  0  0  0  0
   55.6756   22.4012   42.0430 H   0  0  0  0  0  0  0  0  0  0  0  0
   57.4279   22.0060   42.0430 H   0  0  0  0  0  0  0  0  0  0  0  0
  1  2  2  0
  2  3  1  0
  3  4  1  0
  4  5  2  3
  5  6  1  0
  6  7  2  0
  7  8  1  0
  8  9  2  0
  9 10  1  0
 10 11  2  0
 10 12  2  0
 10 13  1  0
 13 14  1  0
 14 15  1  0
 15 16  1  0
 16 17  1  0
 17 18  1  0
  9 19  1  0
 19 20  2  0
  4 21  1  0
 21 22  2  0
 21 23  1  0
 23 24  1  0
 24 25  1  0
 25 26  2  0
 25 27  1  0
 27 28  1  0
 28 29  1  0
 29 30  1  0
 30 31  1  0
 30 32  1  0
 23  2  1  0
 20  6  1  0
 18 13  1  0
  1 33  1  0
  1 34  1  0
  5 35  1  0
  7 36  1  0
  8 37  1  0
 13 38  1  0
 14 39  1  0
 14 40  1  0
 15 41  1  0
 15 42  1  0
 17 43  1  0
 17 44  1  0
 18 45  1  0
 18 46  1  0
 19 47  1  0
 20 48  1  0
 24 49  1  0
 24 50  1  0
 28 51  1  0
 28 52  1  0
 29 53  1  0
 29 54  1  0
 30 55  1  0
 31 56  1  0
 31 57  1  0
 31 58  1  0
 32 59  1  0
 32 60  1  0
 32 61  1  0
M  CHG  2  13   1  27  -1
M  END
>  <UniqueID>  (7) 
6

>  <SMILES>  (7) 
C=c1sc(=Cc2ccc(S(=O)(=O)[NH+]3CCOCC3)cc2)c(=O)n1CC(=O)[N-]CCC(C)C

>  <Energy>  (7) 
101.3510532977348

>  <Genealogy>  (7) 
C=c1sc(=Cc2ccc(S(=O)(=O)[NH+]3CCOCC3)cc2)c(=O)n1CC(=O)[N-]CCC(C)C (protonated)
C=c1sc(=Cc2ccc(S(=O)(=O)[NH+]3CCOCC3)cc2)c(=O)n1CC(=O)[N-]CCC(C)C (3D coordinates assigned)
C=c1sc(=Cc2ccc(S(=O)(=O)[NH+]3CCOCC3)cc2)c(=O)n1CC(=O)[N-]CCC(C)C (nonaromatic ring conformer: 101.3510532977348 kcal/mol)

>  <smiles>  (7) 
C=c1sc(=Cc2ccc(S(=O)(=O)N3CCOCC3)cc2)c(=O)n1CC(=O)NCCC(C)C

>  <score_type>  (7) 
oracle

>  <origin>  (7) 
adg

>  <m_score__min__energy>  (7) 
-9.9800000000000004

>  <m_primary>  (7) 
energy

$$$$
7:0
     RDKit          3D

 70 72  0  0  0  0  0  0  0  0999 V2000
   64.3700   32.2190   51.2460 C   0  0  0  0  0  0  0  0  0  0  0  0
   62.8630   32.1600   51.0050 C   0  0  1  0  0  0  0  0  0  0  0  0
   62.5160   33.0950   49.9340 N   0  0  0  0  0  0  0  0  0  0  0  0
   62.8150   32.9230   48.5410 C   0  0  0  0  0  0  0  0  0  0  0  0
   64.0110   32.7070   48.2080 O   0  0  0  0  0  0  0  0  0  0  0  0
   61.7320   32.9700   47.4900 C   0  0  0  0  0  0  0  0  0  0  0  0
   60.5140   33.7850   47.9510 C   0  0  0  0  0  0  0  0  0  0  0  0
   59.4070   33.7530   46.9310 C   0  0  0  0  0  0  0  0  0  0  0  0
   59.4190   34.6560   45.8530 C   0  0  0  0  0  0  0  0  0  0  0  0
   58.4230   34.6000   44.8750 C   0  0  0  0  0  0  0  0  0  0  0  0
   57.4030   33.6480   44.9670 C   0  0  0  0  0  0  0  0  0  0  0  0
   57.3710   32.7620   46.0480 C   0  0  0  0  0  0  0  0  0  0  0  0
   58.3700   32.8090   47.0260 C   0  0  0  0  0  0  0  0  0  0  0  0
   62.4640   30.7600   50.6330 C   0  0  0  0  0  0  0  0  0  0  0  0
   63.2270   29.7910   50.8980 O   0  0  0  0  0  0  0  0  0  0  0  0
   61.1740   30.5250   50.0630 N   0  0  0  0  0  0  0  0  0  0  0  0
   60.6600   29.1810   49.8450 C   0  0  0  0  0  0  0  0  0  0  0  0
   60.6820   28.8450   48.3820 C   0  0  0  0  0  0  0  0  0  0  0  0
   61.0880   29.7170   47.5660 O   0  0  0  0  0  0  0  0  0  0  0  0
   60.2370   27.5810   47.8700 N   0  0  0  0  0  0  0  0  0  0  0  0
   60.6260   26.9460   46.6100 C   0  0  2  0  0  0  0  0  0  0  0  0
   60.4970   27.9870   45.4820 C   0  0  0  0  0  0  0  0  0  0  0  0
   59.0710   28.4190   45.2340 C   0  0  0  0  0  0  0  0  0  0  0  0
   58.3400   29.0850   46.2300 C   0  0  0  0  0  0  0  0  0  0  0  0
   57.0200   29.4810   45.9870 C   0  0  0  0  0  0  0  0  0  0  0  0
   56.4260   29.2300   44.7460 C   0  0  0  0  0  0  0  0  0  0  0  0
   55.1110   29.6090   44.5120 O   0  0  0  0  0  0  0  0  0  0  0  0
   57.1570   28.5920   43.7420 C   0  0  0  0  0  0  0  0  0  0  0  0
   58.4720   28.1840   43.9840 C   0  0  0  0  0  0  0  0  0  0  0  0
   59.7710   25.7420   46.3310 C   0  0  0  0  0  0  0  0  0  0  0  0
   60.3050   24.6480   46.0020 O   0  0  0  0  0  0  0  0  0  0  0  0
   58.3510   25.8490   46.5050 N   0  0  0  0  0  0  0  0  0  0  0  0
   57.3220   25.1260   45.7600 C   0  0  1  0  0  0  0  0  0  0  0  0
   57.6870   23.6380   45.6100 C   0  0  0  0  0  0  0  0  0  0  0  0
   57.0770   23.0440   44.3760 C   0  0  0  0  0  0  0  0  0  0  0  0
   55.8860   23.4230   43.8000 C   0  0  0  0  0  0  0  0  0  0  0  0
   55.6450   22.6310   42.7410 N   0  0  0  0  0  0  0  0  0  0  0  0
   56.6990   21.7870   42.7120 C   0  0  0  0  0  0  0  0  0  0  0  0
   57.5930   22.0010   43.7020 N   0  0  0  0  0  0  0  0  0  0  0  0
   55.9640   25.3340   46.3810 C   0  0  0  0  0  0  0  0  0  0  0  0
   55.1780   26.4610   45.9980 N   0  0  0  0  0  0  0  0  0  0  0  0
   55.5230   24.5330   47.2500 O   0  0  0  0  0  0  0  0  0  0  0  0
   64.5683   32.2268   52.3280 H   0  0  0  0  0  0  0  0  0  0  0  0
   64.8487   31.3389   50.7918 H   0  0  0  0  0  0  0  0  0  0  0  0
   64.7784   33.1338   50.7918 H   0  0  0  0  0  0  0  0  0  0  0  0
   62.3235   32.4434   51.9208 H   0  0  0  0  0  0  0  0  0  0  0  0
   62.1420   33.4297   46.5786 H   0  0  0  0  0  0  0  0  0  0  0  0
   61.3980   31.9390   47.3016 H   0  0  0  0  0  0  0  0  0  0  0  0
   60.1404   33.3647   48.8964 H   0  0  0  0  0  0  0  0  0  0  0  0
   60.8297   34.8304   48.0832 H   0  0  0  0  0  0  0  0  0  0  0  0
   60.2165   35.4101   45.7795 H   0  0  0  0  0  0  0  0  0  0  0  0
   58.4412   35.3058   44.0314 H   0  0  0  0  0  0  0  0  0  0  0  0
   56.6265   33.5962   44.1896 H   0  0  0  0  0  0  0  0  0  0  0  0
   56.5578   32.0258   46.1297 H   0  0  0  0  0  0  0  0  0  0  0  0
   58.3440   32.1056   47.8713 H   0  0  0  0  0  0  0  0  0  0  0  0
   61.2854   28.4603   50.3922 H   0  0  0  0  0  0  0  0  0  0  0  0
   59.6226   29.1318   50.2076 H   0  0  0  0  0  0  0  0  0  0  0  0
   61.6669   26.5963   46.6747 H   0  0  0  0  0  0  0  0  0  0  0  0
   61.0889   28.8733   45.7543 H   0  0  0  0  0  0  0  0  0  0  0  0
   60.8622   27.5157   44.5576 H   0  0  0  0  0  0  0  0  0  0  0  0
   58.8058   29.2962   47.2039 H   0  0  0  0  0  0  0  0  0  0  0  0
   56.4473   29.9917   46.7752 H   0  0  0  0  0  0  0  0  0  0  0  0
   56.6976   28.4101   42.7592 H   0  0  0  0  0  0  0  0  0  0  0  0
   59.0414   27.6761   43.1917 H   0  0  0  0  0  0  0  0  0  0  0  0
   57.2721   25.5387   44.7416 H   0  0  0  0  0  0  0  0  0  0  0  0
   58.7812   23.5428   45.5491 H   0  0  0  0  0  0  0  0  0  0  0  0
   57.2947   23.0968   46.4836 H   0  0  0  0  0  0  0  0  0  0  0  0
   55.2375   24.2401   44.1490 H   0  0  0  0  0  0  0  0  0  0  0  0
   56.8183   20.9993   41.9535 H   0  0  0  0  0  0  0  0  0  0  0  0
   54.7040   27.0580   46.7140 H   0  0  0  0  0  0  0  0  0  0  0  0
  1  2  1  0
  2  3  1  0
  3  4  1  0
  4  5  2  0
  4  6  1  0
  6  7  1  0
  7  8  1  0
  8  9  2  0
  9 10  1  0
 10 11  2  0
 11 12  1  0
 12 13  2  0
  2 14  1  0
 14 15  2  0
 14 16  1  0
 16 17  1  0
 17 18  1  0
 18 19  2  0
 18 20  1  0
 20 21  1  0
 21 22  1  0
 22 23  1  0
 23 24  2  0
 24 25  1  0
 25 26  2  0
 26 27  1  0
 26 28  1  0
 28 29  2  0
 21 30  1  0
 30 31  2  0
 30 32  1  0
 32 33  1  0
 33 34  1  0
 34 35  1  0
 35 36  2  0
 36 37  1  0
 37 38  1  0
 38 39  2  0
 33 40  1  0
 40 41  1  0
 40 42  2  0
 13  8  1  0
 29 23  1  0
 39 35  1  0
  1 43  1  0
  1 44  1  0
  1 45  1  0
  2 46  1  1
  6 47  1  0
  6 48  1  0
  7 49  1  0
  7 50  1  0
  9 51  1  0
 10 52  1  0
 11 53  1  0
 12 54  1  0
 13 55  1  0
 17 56  1  0
 17 57  1  0
 21 58  1  1
 22 59  1  0
 22 60  1  0
 24 61  1  0
 25 62  1  0
 28 63  1  0
 29 64  1  0
 33 65  1  6
 34 66  1  0
 34 67  1  0
 36 68  1  0
 38 69  1  0
 41 70  1  0
M  CHG  7   3  -1  16  -1  20  -1  27  -1  32  -1  37  -1  41  -1
M  END
>  <UniqueID>  (8) 
7

>  <SMILES>  (8) 
C[C@@H]([N-]C(=O)CCc1ccccc1)C(=O)[N-]CC(=O)[N-][C@H](Cc1ccc([O-])cc1)C(=O)[N-]C(Cc1c[n-]cn1)C([NH-])=O

>  <Energy>  (8) 
74.85431791182847

>  <Genealogy>  (8) 
CC([N-]C(=O)CCc1ccccc1)C(=O)[N-]CC(=O)[N-]C(Cc1ccc([O-])cc1)C(=O)[N-]C(Cc1c[n-]cn1)C([NH-])=O (protonated)
C[C@@H]([N-]C(=O)CCc1ccccc1)C(=O)[N-]CC(=O)[N-][C@H](Cc1ccc([O-])cc1)C(=O)[N-]C(Cc1c[n-]cn1)C([NH-])=O (chirality)
C[C@@H]([N-]C(=O)CCc1ccccc1)C(=O)[N-]CC(=O)[N-][C@H](Cc1ccc([O-])cc1)C(=O)[N-]C(Cc1c[n-]cn1)C([NH-])=O (3D coordinates assigned)
C[C@@H]([N-]C(=O)CCc1ccccc1)C(=O)[N-]CC(=O)[N-][C@H](Cc1ccc([O-])cc1)C(=O)[N-]C(Cc1c[n-]cn1)C([NH-])=O (optimized conformer: 74.85431791182847 kcal/mol)

>  <smiles>  (8) 
CC(NC(=O)CCc1ccccc1)C(=O)NCC(=O)NC(Cc1ccc(O)cc1)C(=O)NC(Cc1c[nH]cn1)C(N)=O

>  <score_type>  (8) 
oracle

>  <origin>  (8) 
adg

>  <m_score__min__energy>  (8) 
-20.920000000000002

>  <m_primary>  (8) 
energy

$$$$
8:0
     RDKit          3D

 55 57  0  0  0  0  0  0  0  0999 V2000
   64.0923   32.2415   48.6639 H   0  0  0  0  0  0  0  0  0  0  0  0
   63.2200   32.7770   48.2610 C   0  0  0  0  0  0  0  0  0  0  0  0
   63.1900   33.1460   46.9160 C   0  0  0  0  0  0  0  0  0  0  0  0
   64.0360   32.8960   46.2589 H   0  0  0  0  0  0  0  0  0  0  0  0
   62.0880   33.8320   46.4030 C   0  0  0  0  0  0  0  0  0  0  0  0
   62.0667   34.1145   45.3401 H   0  0  0  0  0  0  0  0  0  0  0  0
   61.0060   34.1640   47.2350 C   0  0  0  0  0  0  0  0  0  0  0  0
   59.8120   34.8780   46.6580 C   0  0  0  0  0  0  0  0  0  0  0  0
   59.7310   35.8784   47.1081 H   0  0  0  0  0  0  0  0  0  0  0  0
   59.9343   34.9729   45.5690 H   0  0  0  0  0  0  0  0  0  0  0  0
   58.5960   34.1140   46.9460 N   0  0  0  0  0  0  0  0  0  0  0  0
   58.8220   33.4130   47.6900 H   0  0  0  0  0  0  0  0  0  0  0  0
   58.1150   33.2160   45.5390 S   0  0  0  0  0  0  0  0  0  0  0  0
   58.9210   33.6670   44.3510 O   0  0  0  0  0  0  0  0  0  0  0  0
   56.6630   33.4800   45.2550 O   0  0  0  0  0  0  0  0  0  0  0  0
   58.3440   31.4890   45.8060 C   0  0  0  0  0  0  0  0  0  0  0  0
   59.3020   31.0300   46.7190 C   0  0  0  0  0  0  0  0  0  0  0  0
   59.9345   31.7504   47.2585 H   0  0  0  0  0  0  0  0  0  0  0  0
   59.4570   29.6590   46.9470 C   0  0  0  0  0  0  0  0  0  0  0  0
   60.2159   29.3071   47.6613 H   0  0  0  0  0  0  0  0  0  0  0  0
   58.6500   28.7260   46.2700 C   0  0  0  0  0  0  0  0  0  0  0  0
   58.8090   27.2730   46.5200 C   0  0  0  0  0  0  0  0  0  0  0  0
   59.8790   26.6940   46.1840 O   0  0  0  0  0  0  0  0  0  0  0  0
   57.7440   26.5350   47.1430 N   0  0  0  0  0  0  0  0  0  0  0  0
   56.7010   26.0410   46.5450 C   0  0  0  0  0  0  0  0  0  0  0  0
   55.5370   26.6910   46.3590 N   0  0  0  0  0  0  0  0  0  0  0  0
   54.7550   25.8660   45.7250 O   0  0  0  0  0  0  0  0  0  0  0  0
   55.3550   24.7160   45.4940 C   0  0  0  0  0  0  0  0  0  0  0  0
   54.7250   23.5390   44.7770 C   0  0  0  0  0  0  0  0  0  0  0  0
   54.9220   22.2630   45.6170 C   0  0  0  0  0  0  0  0  0  0  0  0
   54.8826   22.5182   46.6863 H   0  0  0  0  0  0  0  0  0  0  0  0
   54.1244   21.5427   45.3823 H   0  0  0  0  0  0  0  0  0  0  0  0
   55.8997   21.8168   45.3823 H   0  0  0  0  0  0  0  0  0  0  0  0
   53.2200   23.8040   44.5810 C   0  0  0  0  0  0  0  0  0  0  0  0
   52.7319   23.8899   45.5630 H   0  0  0  0  0  0  0  0  0  0  0  0
   53.0825   24.7402   44.0200 H   0  0  0  0  0  0  0  0  0  0  0  0
   52.7710   22.9711   44.0200 H   0  0  0  0  0  0  0  0  0  0  0  0
   55.3870   23.3410   43.4000 C   0  0  0  0  0  0  0  0  0  0  0  0
   56.4326   23.0283   43.5374 H   0  0  0  0  0  0  0  0  0  0  0  0
   54.8432   22.5662   42.8397 H   0  0  0  0  0  0  0  0  0  0  0  0
   55.3579   24.2872   42.8397 H   0  0  0  0  0  0  0  0  0  0  0  0
   56.6380   24.7750   46.0120 C   0  0  0  0  0  0  0  0  0  0  0  0
   57.4169   23.9984   46.0000 H   0  0  0  0  0  0  0  0  0  0  0  0
   57.6870   29.1960   45.3590 C   0  0  0  0  0  0  0  0  0  0  0  0
   57.0487   28.4796   44.8211 H   0  0  0  0  0  0  0  0  0  0  0  0
   57.5350   30.5680   45.1320 C   0  0  0  0  0  0  0  0  0  0  0  0
   56.7758   30.9243   44.4202 H   0  0  0  0  0  0  0  0  0  0  0  0
   61.0240   33.7770   48.5920 C   0  0  0  0  0  0  0  0  0  0  0  0
   59.9200   34.0890   49.4020 O   0  0  0  0  0  0  0  0  0  0  0  0
   59.6320   33.4670   50.6500 C   0  0  0  0  0  0  0  0  0  0  0  0
   59.9398   34.1317   51.4706 H   0  0  0  0  0  0  0  0  0  0  0  0
   58.5518   33.2718   50.7218 H   0  0  0  0  0  0  0  0  0  0  0  0
   60.1819   32.5170   50.7218 H   0  0  0  0  0  0  0  0  0  0  0  0
   62.1450   33.0860   49.0970 C   0  0  0  0  0  0  0  0  0  0  0  0
   62.1727   32.7887   50.1557 H   0  0  0  0  0  0  0  0  0  0  0  0
  1  2  1  0
  2  3  2  0
  3  4  1  0
  3  5  1  0
  5  6  1  0
  5  7  2  0
  7  8  1  0
  8  9  1  0
  8 10  1  0
  8 11  1  0
 11 12  1  0
 11 13  1  0
 13 14  2  0
 13 15  2  0
 13 16  1  0
 16 17  2  0
 17 18  1  0
 17 19  1  0
 19 20  1  0
 19 21  2  0
 21 22  1  0
 22 23  2  0
 22 24  1  0
 24 25  2  0
 25 26  1  0
 26 27  1  0
 27 28  1  0
 28 29  1  0
 29 30  1  0
 30 31  1  0
 30 32  1  0
 30 33  1  0
 29 34  1  0
 34 35  1  0
 34 36  1  0
 34 37  1  0
 29 38  1  0
 38 39  1  0
 38 40  1  0
 38 41  1  0
 28 42  2  0
 42 43  1  0
 21 44  1  0
 44 45  1  0
 44 46  2  0
 46 47  1  0
  7 48  1  0
 48 49  1  0
 49 50  1  0
 50 51  1  0
 50 52  1  0
 50 53  1  0
 48 54  2  0
 54 55  1  0
 54  2  1  0
 46 16  1  0
 42 25  1  0
M  CHG  1  26  -1
M  END
>  <UniqueID>  (9) 
8

>  <SMILES>  (9) 
COc1ccccc1CNS(=O)(=O)c1ccc(C(=O)/N=c2/cc(C(C)(C)C)o[n-]2)cc1

>  <Energy>  (9) 
82.8842157633588

>  <Genealogy>  (9) 
COc1ccccc1CNS(=O)(=O)c1ccc(C(=O)N=c2cc(C(C)(C)C)o[n-]2)cc1 (protonated)
COc1ccccc1CNS(=O)(=O)c1ccc(C(=O)/N=c2/cc(C(C)(C)C)o[n-]2)cc1 (cis-trans isomerization)
COc1ccccc1CNS(=O)(=O)c1ccc(C(=O)/N=c2/cc(C(C)(C)C)o[n-]2)cc1 (3D coordinates assigned)
COc1ccccc1CNS(=O)(=O)c1ccc(C(=O)/N=c2/cc(C(C)(C)C)o[n-]2)cc1 (optimized conformer: 82.8842157633588 kcal/mol)

>  <smiles>  (9) 
COc1ccccc1CNS(=O)(=O)c1ccc(C(=O)N=c2cc(C(C)(C)C)o[nH]2)cc1

>  <score_type>  (9) 
oracle

>  <origin>  (9) 
adg

>  <m_score__min__energy>  (9) 
-11.31

>  <m_primary>  (9) 
energy

$$$$
9:0
     RDKit          3D

 59 63  0  0  0  0  0  0  0  0999 V2000
   52.6116   20.8206   47.1738 H   0  0  0  0  0  0  0  0  0  0  0  0
   52.8280   21.7300   46.5940 C   0  0  0  0  0  0  0  0  0  0  0  0
   53.9090   22.5120   46.8000 N   0  0  0  0  0  0  0  0  0  0  0  0
   53.7800   23.4960   45.8870 C   0  0  0  0  0  0  0  0  0  0  0  0
   54.7360   24.6210   45.7250 C   0  0  0  0  0  0  0  0  0  0  0  0
   54.3000   25.8050   45.7130 O   0  0  0  0  0  0  0  0  0  0  0  0
   56.1520   24.4240   45.5930 N   0  0  0  0  0  0  0  0  0  0  0  0
   57.1890   24.9290   46.4860 C   0  0  0  0  0  0  0  0  0  0  0  0
   56.7679   25.0781   47.4912 H   0  0  0  0  0  0  0  0  0  0  0  0
   58.0141   24.2036   46.5408 H   0  0  0  0  0  0  0  0  0  0  0  0
   57.7040   26.2400   45.9570 C   0  0  0  0  0  0  0  0  0  0  0  0
   59.0860   26.4690   45.8560 C   0  0  0  0  0  0  0  0  0  0  0  0
   59.7939   25.6690   46.1185 H   0  0  0  0  0  0  0  0  0  0  0  0
   59.5670   27.7100   45.4230 C   0  0  0  0  0  0  0  0  0  0  0  0
   60.6505   27.8785   45.3351 H   0  0  0  0  0  0  0  0  0  0  0  0
   58.6730   28.7360   45.1020 C   0  0  0  0  0  0  0  0  0  0  0  0
   59.0557   29.7053   44.7498 H   0  0  0  0  0  0  0  0  0  0  0  0
   57.2900   28.5350   45.2270 C   0  0  0  0  0  0  0  0  0  0  0  0
   56.3680   29.6250   44.8580 C   0  0  0  0  0  0  0  0  0  0  0  0
   55.1460   29.3400   44.6760 O   0  0  0  0  0  0  0  0  0  0  0  0
   56.8050   30.9720   44.5780 N   0  0  0  0  0  0  0  0  0  0  0  0
   57.5490   31.7600   45.2990 C   0  0  0  0  0  0  0  0  0  0  0  0
   57.7590   31.6160   46.6300 N   0  0  0  0  0  0  0  0  0  0  0  0
   58.5530   32.6080   47.1100 C   0  0  0  0  0  0  0  0  0  0  0  0
   59.0300   33.4930   46.1520 C   0  0  0  0  0  0  0  0  0  0  0  0
   58.3560   33.0950   44.6630 S   0  0  0  0  0  0  0  0  0  0  0  0
   59.7790   34.7460   46.4820 C   0  0  0  0  0  0  0  0  0  0  0  0
   60.5299   34.9345   45.7006 H   0  0  0  0  0  0  0  0  0  0  0  0
   59.0657   35.5817   46.5345 H   0  0  0  0  0  0  0  0  0  0  0  0
   60.4960   34.6110   47.8590 C   0  0  2  0  0  0  0  0  0  0  0  0
   60.9196   35.5952   48.1080 H   0  0  0  0  0  0  0  0  0  0  0  0
   61.6650   33.6750   47.8660 N   0  0  0  0  0  0  0  0  0  0  0  0
   62.4510   33.8480   49.1210 C   0  0  0  0  0  0  0  0  0  0  0  0
   62.4459   34.9136   49.3941 H   0  0  0  0  0  0  0  0  0  0  0  0
   61.9787   33.2244   49.8944 H   0  0  0  0  0  0  0  0  0  0  0  0
   63.9080   33.3850   48.9830 C   0  0  0  0  0  0  0  0  0  0  0  0
   64.5277   34.2240   48.6337 H   0  0  0  0  0  0  0  0  0  0  0  0
   64.2764   33.0385   49.9598 H   0  0  0  0  0  0  0  0  0  0  0  0
   63.9800   32.3270   48.0510 O   0  0  0  0  0  0  0  0  0  0  0  0
   63.7660   32.8500   46.7560 C   0  0  0  0  0  0  0  0  0  0  0  0
   64.6574   33.4220   46.4589 H   0  0  0  0  0  0  0  0  0  0  0  0
   63.5786   31.9970   46.0872 H   0  0  0  0  0  0  0  0  0  0  0  0
   62.5290   33.7840   46.6670 C   0  0  0  0  0  0  0  0  0  0  0  0
   62.8750   34.8238   46.5717 H   0  0  0  0  0  0  0  0  0  0  0  0
   61.9360   33.4807   45.7916 H   0  0  0  0  0  0  0  0  0  0  0  0
   59.4370   34.1430   48.8940 C   0  0  0  0  0  0  0  0  0  0  0  0
   59.8937   34.1322   49.8947 H   0  0  0  0  0  0  0  0  0  0  0  0
   58.5874   34.8410   48.8627 H   0  0  0  0  0  0  0  0  0  0  0  0
   58.9190   32.7280   48.5620 C   0  0  0  0  0  0  0  0  0  0  0  0
   59.7050   31.9947   48.7953 H   0  0  0  0  0  0  0  0  0  0  0  0
   58.0184   32.5376   49.1642 H   0  0  0  0  0  0  0  0  0  0  0  0
   56.8070   27.2810   45.6370 C   0  0  0  0  0  0  0  0  0  0  0  0
   55.7228   27.1097   45.7090 H   0  0  0  0  0  0  0  0  0  0  0  0
   52.6160   23.2740   45.1660 C   0  0  0  0  0  0  0  0  0  0  0  0
   52.0520   24.0810   44.0390 C   0  0  0  0  0  0  0  0  0  0  0  0
   51.4664   24.9189   44.4452 H   0  0  0  0  0  0  0  0  0  0  0  0
   52.8737   24.4731   43.4217 H   0  0  0  0  0  0  0  0  0  0  0  0
   51.4013   23.4441   43.4217 H   0  0  0  0  0  0  0  0  0  0  0  0
   52.0630   22.1770   45.6230 O   0  0  0  0  0  0  0  0  0  0  0  0
  1  2  1  0
  2  3  2  0
  3  4  1  0
  4  5  1  0
  5  6  2  0
  5  7  1  0
  7  8  1  0
  8  9  1  0
  8 10  1  0
  8 11  1  0
 11 12  2  0
 12 13  1  0
 12 14  1  0
 14 15  1  0
 14 16  2  0
 16 17  1  0
 16 18  1  0
 18 19  1  0
 19 20  2  0
 19 21  1  0
 21 22  2  0
 22 23  1  0
 23 24  1  0
 24 25  2  0
 25 26  1  0
 25 27  1  0
 27 28  1  0
 27 29  1  0
 27 30  1  0
 30 31  1  1
 30 32  1  0
 32 33  1  0
 33 34  1  0
 33 35  1  0
 33 36  1  0
 36 37  1  0
 36 38  1  0
 36 39  1  0
 39 40  1  0
 40 41  1  0
 40 42  1  0
 40 43  1  0
 43 44  1  0
 43 45  1  0
 30 46  1  0
 46 47  1  0
 46 48  1  0
 46 49  1  0
 49 50  1  0
 49 51  1  0
 18 52  2  0
 52 53  1  0
  4 54  2  0
 54 55  1  0
 55 56  1  0
 55 57  1  0
 55 58  1  0
 54 59  1  0
 59  2  1  0
 52 11  1  0
 26 22  1  0
 43 32  1  0
 49 24  1  0
M  CHG  2   7  -1  23  -1
M  END
>  <UniqueID>  (10) 
9

>  <SMILES>  (10) 
Cc1ocnc1C(=O)[N-]Cc1cccc(C(=O)/N=c2\[n-]c3c(s2)C[C@H](N2CCOCC2)CC3)c1

>  <Energy>  (10) 
147.8893395882964

>  <Genealogy>  (10) 
Cc1ocnc1C(=O)[N-]Cc1cccc(C(=O)N=c2[n-]c3c(s2)CC(N2CCOCC2)CC3)c1 (protonated)
Cc1ocnc1C(=O)[N-]Cc1cccc(C(=O)N=c2[n-]c3c(s2)C[C@H](N2CCOCC2)CC3)c1 (chirality)
Cc1ocnc1C(=O)[N-]Cc1cccc(C(=O)/N=c2\[n-]c3c(s2)C[C@H](N2CCOCC2)CC3)c1 (cis-trans isomerization)
Cc1ocnc1C(=O)[N-]Cc1cccc(C(=O)/N=c2\[n-]c3c(s2)C[C@H](N2CCOCC2)CC3)c1 (3D coordinates assigned)
Cc1ocnc1C(=O)[N-]Cc1cccc(C(=O)/N=c2\[n-]c3c(s2)C[C@H](N2CCOCC2)CC3)c1 (nonaromatic ring conformer: 147.8893395882964 kcal/mol)

>  <smiles>  (10) 
Cc1ocnc1C(=O)NCc1cccc(C(=O)N=c2[nH]c3c(s2)CC(N2CCOCC2)CC3)c1

>  <score_type>  (10) 
oracle

>  <origin>  (10) 
adg

>  <m_score__min__energy>  (10) 
-14.73

>  <m_primary>  (10) 
energy

$$$$
10:0
     RDKit          3D

 55 59  0  0  0  0  0  0  0  0999 V2000
   55.8910   27.4820   45.6380 O   0  0  0  0  0  0  0  0  0  0  0  0
   56.7580   26.7220   46.1460 C   0  0  0  0  0  0  0  0  0  0  0  0
   57.5590   27.2130   47.2270 N   0  0  0  0  0  0  0  0  0  0  0  0
   58.4710   28.3170   47.1480 C   0  0  0  0  0  0  0  0  0  0  0  0
   58.3970   29.2590   46.1130 C   0  0  0  0  0  0  0  0  0  0  0  0
   59.3130   30.3140   46.0510 C   0  0  0  0  0  0  0  0  0  0  0  0
   60.3420   30.4490   47.0150 C   0  0  0  0  0  0  0  0  0  0  0  0
   61.2920   31.5600   46.9600 N   0  0  0  0  0  0  0  0  0  0  0  0
   60.7640   32.9360   46.8440 C   0  0  0  0  0  0  0  0  0  0  0  0
   61.8380   34.0100   46.6790 C   0  0  0  0  0  0  0  0  0  0  0  0
   63.0110   33.7710   47.5290 N   0  0  0  0  0  0  0  0  0  0  0  0
   62.6980   33.8500   48.9470 C   0  0  0  0  0  0  0  0  0  0  0  0
   61.8210   34.6020   49.3530 O   0  0  0  0  0  0  0  0  0  0  0  0
   63.4620   32.9910   49.9300 C   0  0  0  0  0  0  0  0  0  0  0  0
   64.0340   33.6840   51.1630 C   0  0  0  0  0  0  0  0  0  0  0  0
   64.9460   33.3340   49.9960 C   0  0  0  0  0  0  0  0  0  0  0  0
   63.6650   32.5100   47.1410 C   0  0  0  0  0  0  0  0  0  0  0  0
   62.7320   31.2810   47.1700 C   0  0  0  0  0  0  0  0  0  0  0  0
   60.4130   29.4690   48.0330 C   0  0  0  0  0  0  0  0  0  0  0  0
   59.4950   28.4180   48.0890 C   0  0  0  0  0  0  0  0  0  0  0  0
   56.9560   25.4040   45.6070 N   0  0  0  0  0  0  0  0  0  0  0  0
   58.2260   24.6730   45.6720 C   0  0  0  0  0  0  0  0  0  0  0  0
   57.9920   23.5130   44.7810 C   0  0  0  0  0  0  0  0  0  0  0  0
   58.8660   22.4650   44.4870 C   0  0  0  0  0  0  0  0  0  0  0  0
   58.4280   21.4480   43.6230 C   0  0  0  0  0  0  0  0  0  0  0  0
   57.1320   21.4940   43.0720 C   0  0  0  0  0  0  0  0  0  0  0  0
   56.2680   22.5580   43.3820 C   0  0  0  0  0  0  0  0  0  0  0  0
   56.7250   23.5570   44.2430 C   0  0  0  0  0  0  0  0  0  0  0  0
   55.9940   24.7590   44.7100 C   0  0  0  0  0  0  0  0  0  0  0  0
   57.6144   29.1681   45.3454 H   0  0  0  0  0  0  0  0  0  0  0  0
   59.2329   31.0520   45.2392 H   0  0  0  0  0  0  0  0  0  0  0  0
   60.0986   32.9770   45.9690 H   0  0  0  0  0  0  0  0  0  0  0  0
   60.2431   33.1540   47.7880 H   0  0  0  0  0  0  0  0  0  0  0  0
   62.1620   34.0257   45.6279 H   0  0  0  0  0  0  0  0  0  0  0  0
   61.3972   34.9711   46.9822 H   0  0  0  0  0  0  0  0  0  0  0  0
   63.6950   34.5370   47.3130 H   0  0  0  0  0  0  0  0  0  0  0  0
   62.8513   32.0878   49.7840 H   0  0  0  0  0  0  0  0  0  0  0  0
   63.7833   34.7351   51.3690 H   0  0  0  0  0  0  0  0  0  0  0  0
   64.0368   33.4729   52.2426 H   0  0  0  0  0  0  0  0  0  0  0  0
   65.3545   34.1323   49.3590 H   0  0  0  0  0  0  0  0  0  0  0  0
   65.8809   32.7653   49.8836 H   0  0  0  0  0  0  0  0  0  0  0  0
   64.0550   32.6235   46.1187 H   0  0  0  0  0  0  0  0  0  0  0  0
   64.4580   32.3236   47.8802 H   0  0  0  0  0  0  0  0  0  0  0  0
   63.0605   30.5891   46.3804 H   0  0  0  0  0  0  0  0  0  0  0  0
   62.8115   30.8692   48.1869 H   0  0  0  0  0  0  0  0  0  0  0  0
   61.2049   29.5360   48.7935 H   0  0  0  0  0  0  0  0  0  0  0  0
   59.5806   27.6621   48.8836 H   0  0  0  0  0  0  0  0  0  0  0  0
   59.0573   25.2922   45.3040 H   0  0  0  0  0  0  0  0  0  0  0  0
   58.5058   24.3826   46.6954 H   0  0  0  0  0  0  0  0  0  0  0  0
   59.8757   22.4363   44.9225 H   0  0  0  0  0  0  0  0  0  0  0  0
   59.0993   20.6124   43.3755 H   0  0  0  0  0  0  0  0  0  0  0  0
   56.7952   20.6938   42.3965 H   0  0  0  0  0  0  0  0  0  0  0  0
   55.2549   22.6026   42.9559 H   0  0  0  0  0  0  0  0  0  0  0  0
   55.7369   25.4173   43.8671 H   0  0  0  0  0  0  0  0  0  0  0  0
   55.0380   24.5212   45.1994 H   0  0  0  0  0  0  0  0  0  0  0  0
  1  2  2  0
  2  3  1  0
  3  4  1  0
  4  5  2  0
  5  6  1  0
  6  7  2  0
  7  8  1  0
  8  9  1  0
  9 10  1  0
 10 11  1  0
 11 12  1  0
 12 13  2  0
 12 14  1  0
 14 15  1  0
 15 16  1  0
 11 17  1  0
 17 18  1  0
  7 19  1  0
 19 20  2  0
  2 21  1  0
 21 22  1  0
 22 23  1  0
 23 24  2  0
 24 25  1  0
 25 26  2  0
 26 27  1  0
 27 28  2  0
 28 29  1  0
 20  4  1  0
 29 21  1  0
 18  8  1  0
 28 23  1  0
 16 14  1  0
  5 30  1  0
  6 31  1  0
  9 32  1  0
  9 33  1  0
 10 34  1  0
 10 35  1  0
 11 36  1  0
 14 37  1  0
 15 38  1  0
 15 39  1  0
 16 40  1  0
 16 41  1  0
 17 42  1  0
 17 43  1  0
 18 44  1  0
 18 45  1  0
 19 46  1  0
 20 47  1  0
 22 48  1  0
 22 49  1  0
 24 50  1  0
 25 51  1  0
 26 52  1  0
 27 53  1  0
 29 54  1  0
 29 55  1  0
M  CHG  2   3  -1  11   1
M  END
>  <UniqueID>  (11) 
10

>  <SMILES>  (11) 
O=C([N-]c1ccc(N2CC[NH+](C(=O)C3CC3)CC2)cc1)N1Cc2ccccc2C1

>  <Energy>  (11) 
351.2920595318407

>  <Genealogy>  (11) 
O=C([N-]c1ccc(N2CC[NH+](C(=O)C3CC3)CC2)cc1)N1Cc2ccccc2C1 (protonated)
O=C([N-]c1ccc(N2CC[NH+](C(=O)C3CC3)CC2)cc1)N1Cc2ccccc2C1 (3D coordinates assigned)
O=C([N-]c1ccc(N2CC[NH+](C(=O)C3CC3)CC2)cc1)N1Cc2ccccc2C1 (nonaromatic ring conformer: 351.2920595318407 kcal/mol)

>  <smiles>  (11) 
O=C(Nc1ccc(N2CCN(C(=O)C3CC3)CC2)cc1)N1Cc2ccccc2C1

>  <score_type>  (11) 
oracle

>  <origin>  (11) 
adg

>  <m_score__min__energy>  (11) 
-8.2400000000000002

>  <m_primary>  (11) 
energy

$$$$
11:0
     RDKit          3D

 56 59  0  0  0  0  0  0  0  0999 V2000
   56.5610   29.6030   42.7570 O   0  0  0  0  0  0  0  0  0  0  0  0
   56.6860   29.8300   44.2400 S   0  0  0  0  0  0  0  0  0  0  0  0
   55.3110   29.7940   44.8440 O   0  0  0  0  0  0  0  0  0  0  0  0
   57.6690   28.6120   45.0050 N   0  0  0  0  0  0  0  0  0  0  0  0
   56.9220   27.8480   46.0050 C   0  0  0  0  0  0  0  0  0  0  0  0
   56.8560   26.3940   45.6280 C   0  0  0  0  0  0  0  0  0  0  0  0
   58.0010   25.7380   45.2920 N   0  0  0  0  0  0  0  0  0  0  0  0
   58.0030   24.4210   44.9540 C   0  0  0  0  0  0  0  0  0  0  0  0
   56.8080   23.7000   44.9400 C   0  0  0  0  0  0  0  0  0  0  0  0
   55.6170   24.3480   45.2740 C   0  0  0  0  0  0  0  0  0  0  0  0
   55.6350   25.6990   45.6290 C   0  0  0  0  0  0  0  0  0  0  0  0
   54.4480   26.3380   45.9750 O   0  0  0  0  0  0  0  0  0  0  0  0
   57.3910   31.4110   44.5190 C   0  0  0  0  0  0  0  0  0  0  0  0
   57.7580   32.3200   43.5370 C   0  0  0  0  0  0  0  0  0  0  0  0
   58.3200   33.4910   44.0560 C   0  0  0  0  0  0  0  0  0  0  0  0
   58.3780   33.5020   45.4470 C   0  0  0  0  0  0  0  0  0  0  0  0
   58.9400   34.6120   46.2910 C   0  0  0  0  0  0  0  0  0  0  0  0
   59.9860   34.1560   47.2300 N   0  0  0  0  0  0  0  0  0  0  0  0
   60.9760   33.2130   46.6540 C   0  0  0  0  0  0  0  0  0  0  0  0
   61.3330   32.0620   47.6000 C   0  0  0  0  0  0  0  0  0  0  0  0
   60.0450   31.4040   48.1120 C   0  0  0  0  0  0  0  0  0  0  0  0
   60.3070   30.1010   48.9060 C   0  0  0  0  0  0  0  0  0  0  0  0
   60.3890   28.8540   48.0560 C   0  0  0  0  0  0  0  0  0  0  0  0
   60.4080   28.9510   46.6530 C   0  0  0  0  0  0  0  0  0  0  0  0
   60.4820   27.7970   45.8660 C   0  0  0  0  0  0  0  0  0  0  0  0
   60.5260   26.5390   46.4700 C   0  0  0  0  0  0  0  0  0  0  0  0
   60.4900   26.4310   47.8630 C   0  0  0  0  0  0  0  0  0  0  0  0
   60.4160   27.5810   48.6540 C   0  0  0  0  0  0  0  0  0  0  0  0
   59.1620   32.4170   48.8800 C   0  0  0  0  0  0  0  0  0  0  0  0
   59.5270   33.8920   48.6120 C   0  0  0  0  0  0  0  0  0  0  0  0
   57.7560   32.0500   46.0280 S   0  0  0  0  0  0  0  0  0  0  0  0
   57.4218   27.9452   46.9800 H   0  0  0  0  0  0  0  0  0  0  0  0
   55.8974   28.2448   46.0580 H   0  0  0  0  0  0  0  0  0  0  0  0
   58.9479   23.9230   44.6912 H   0  0  0  0  0  0  0  0  0  0  0  0
   56.8044   22.6339   44.6691 H   0  0  0  0  0  0  0  0  0  0  0  0
   54.6660   23.7954   45.2576 H   0  0  0  0  0  0  0  0  0  0  0  0
   57.6210   32.1384   42.4608 H   0  0  0  0  0  0  0  0  0  0  0  0
   58.6799   34.3197   43.4284 H   0  0  0  0  0  0  0  0  0  0  0  0
   59.3750   35.3718   45.6251 H   0  0  0  0  0  0  0  0  0  0  0  0
   58.1130   35.0158   46.8935 H   0  0  0  0  0  0  0  0  0  0  0  0
   60.5581   32.7888   45.7291 H   0  0  0  0  0  0  0  0  0  0  0  0
   61.8991   33.7813   46.4670 H   0  0  0  0  0  0  0  0  0  0  0  0
   61.9360   31.3170   47.0602 H   0  0  0  0  0  0  0  0  0  0  0  0
   61.9095   32.4522   48.4517 H   0  0  0  0  0  0  0  0  0  0  0  0
   59.4715   31.0877   47.2282 H   0  0  0  0  0  0  0  0  0  0  0  0
   61.2596   30.2127   49.4446 H   0  0  0  0  0  0  0  0  0  0  0  0
   59.4461   29.9656   49.5773 H   0  0  0  0  0  0  0  0  0  0  0  0
   60.3644   29.9394   46.1722 H   0  0  0  0  0  0  0  0  0  0  0  0
   60.5056   27.8808   44.7694 H   0  0  0  0  0  0  0  0  0  0  0  0
   60.5890   25.6329   45.8495 H   0  0  0  0  0  0  0  0  0  0  0  0
   60.5200   25.4392   48.3377 H   0  0  0  0  0  0  0  0  0  0  0  0
   60.3787   27.4901   49.7496 H   0  0  0  0  0  0  0  0  0  0  0  0
   58.1149   32.2595   48.5822 H   0  0  0  0  0  0  0  0  0  0  0  0
   59.3272   32.2365   49.9524 H   0  0  0  0  0  0  0  0  0  0  0  0
   58.6372   34.5093   48.8050 H   0  0  0  0  0  0  0  0  0  0  0  0
   60.3660   34.1389   49.2791 H   0  0  0  0  0  0  0  0  0  0  0  0
  1  2  2  0
  2  3  2  0
  2  4  1  0
  4  5  1  0
  5  6  1  0
  6  7  2  0
  7  8  1  0
  8  9  2  0
  9 10  1  0
 10 11  2  0
 11 12  1  0
  2 13  1  0
 13 14  2  0
 14 15  1  0
 15 16  2  0
 16 17  1  0
 17 18  1  0
 18 19  1  0
 19 20  1  0
 20 21  1  0
 21 22  1  0
 22 23  1  0
 23 24  2  0
 24 25  1  0
 25 26  2  0
 26 27  1  0
 27 28  2  0
 21 29  1  0
 29 30  1  0
 16 31  1  0
 11  6  1  0
 31 13  1  0
 30 18  1  0
 28 23  1  0
  5 32  1  0
  5 33  1  0
  8 34  1  0
  9 35  1  0
 10 36  1  0
 14 37  1  0
 15 38  1  0
 17 39  1  0
 17 40  1  0
 19 41  1  0
 19 42  1  0
 20 43  1  0
 20 44  1  0
 21 45  1  0
 22 46  1  0
 22 47  1  0
 24 48  1  0
 25 49  1  0
 26 50  1  0
 27 51  1  0
 28 52  1  0
 29 53  1  0
 29 54  1  0
 30 55  1  0
 30 56  1  0
M  CHG  2   4  -1  12  -1
M  END
>  <UniqueID>  (12) 
11

>  <SMILES>  (12) 
O=S(=O)([N-]Cc1ncccc1[O-])c1ccc(CN2CCC(Cc3ccccc3)CC2)s1

>  <Energy>  (12) 
92.31879435150258

>  <Genealogy>  (12) 
O=S(=O)([N-]Cc1ncccc1[O-])c1ccc(CN2CCC(Cc3ccccc3)CC2)s1 (protonated)
O=S(=O)([N-]Cc1ncccc1[O-])c1ccc(CN2CCC(Cc3ccccc3)CC2)s1 (3D coordinates assigned)
O=S(=O)([N-]Cc1ncccc1[O-])c1ccc(CN2CCC(Cc3ccccc3)CC2)s1 (nonaromatic ring conformer: 92.31879435150258 kcal/mol)

>  <smiles>  (12) 
O=S(=O)(NCc1ncccc1O)c1ccc(CN2CCC(Cc3ccccc3)CC2)s1

>  <score_type>  (12) 
oracle

>  <origin>  (12) 
adg

>  <m_score__min__energy>  (12) 
-15.49

>  <m_primary>  (12) 
energy

$$$$
12:0
     RDKit          3D

 46 48  0  0  0  0  0  0  0  0999 V2000
   60.1800   35.9400   46.6920 H   0  0  0  0  0  0  0  0  0  0  0  0
   59.2510   35.5740   46.5230 O   0  0  0  0  0  0  0  0  0  0  0  0
   59.0230   34.3060   45.9750 C   0  0  0  0  0  0  0  0  0  0  0  0
   58.2300   34.2030   44.8260 C   0  0  0  0  0  0  0  0  0  0  0  0
   57.8081   35.1115   44.3715 H   0  0  0  0  0  0  0  0  0  0  0  0
   57.9690   32.9530   44.2500 C   0  0  0  0  0  0  0  0  0  0  0  0
   57.3616   32.8874   43.3353 H   0  0  0  0  0  0  0  0  0  0  0  0
   58.4800   31.7830   44.8360 C   0  0  0  0  0  0  0  0  0  0  0  0
   58.2570   30.4600   44.2180 C   0  0  0  0  0  0  0  0  0  0  0  0
   57.9313   30.4393   43.1675 H   0  0  0  0  0  0  0  0  0  0  0  0
   58.4210   29.2800   44.8390 C   0  0  0  0  0  0  0  0  0  0  0  0
   59.9170   28.5320   45.0140 S   0  0  0  0  0  0  0  0  0  0  0  0
   59.3100   27.2170   45.8650 C   0  0  0  0  0  0  0  0  0  0  0  0
   60.0800   26.2310   46.3330 C   0  0  0  0  0  0  0  0  0  0  0  0
   59.6270   25.3937   46.8841 H   0  0  0  0  0  0  0  0  0  0  0  0
   61.1672   26.2563   46.1673 H   0  0  0  0  0  0  0  0  0  0  0  0
   57.9590   27.3210   46.0320 N   0  0  0  0  0  0  0  0  0  0  0  0
   57.1130   26.3570   46.7590 C   0  0  0  0  0  0  0  0  0  0  0  0
   57.7575   25.6101   47.2456 H   0  0  0  0  0  0  0  0  0  0  0  0
   56.5227   26.9072   47.5066 H   0  0  0  0  0  0  0  0  0  0  0  0
   56.1620   25.6520   45.8260 C   0  0  0  0  0  0  0  0  0  0  0  0
   54.9670   26.0460   45.7510 O   0  0  0  0  0  0  0  0  0  0  0  0
   56.5850   24.5130   45.0450 N   0  0  0  0  0  0  0  0  0  0  0  0
   55.7520   24.0500   43.9290 C   0  0  0  0  0  0  0  0  0  0  0  0
   54.9546   23.3993   44.3173 H   0  0  0  0  0  0  0  0  0  0  0  0
   55.3140   24.9234   43.4238 H   0  0  0  0  0  0  0  0  0  0  0  0
   56.6000   23.2640   42.9200 C   0  0  0  0  0  0  0  0  0  0  0  0
   55.9343   22.8634   42.1413 H   0  0  0  0  0  0  0  0  0  0  0  0
   57.3462   23.9599   42.5090 H   0  0  0  0  0  0  0  0  0  0  0  0
   57.3430   22.1330   43.5330 N   0  0  0  0  0  0  0  0  0  0  0  0
   56.6450   20.8530   43.3150 C   0  0  0  0  0  0  0  0  0  0  0  0
   56.3980   20.4000   44.2865 H   0  0  0  0  0  0  0  0  0  0  0  0
   55.7196   21.0319   42.7479 H   0  0  0  0  0  0  0  0  0  0  0  0
   57.2966   20.1720   42.7479 H   0  0  0  0  0  0  0  0  0  0  0  0
   57.6610   22.3100   44.9730 C   0  0  0  0  0  0  0  0  0  0  0  0
   56.8474   21.8725   45.5701 H   0  0  0  0  0  0  0  0  0  0  0  0
   58.6206   21.8085   45.1670 H   0  0  0  0  0  0  0  0  0  0  0  0
   57.8190   23.7820   45.3630 C   0  0  0  0  0  0  0  0  0  0  0  0
   58.0196   23.8550   46.4421 H   0  0  0  0  0  0  0  0  0  0  0  0
   58.6572   24.2200   44.8013 H   0  0  0  0  0  0  0  0  0  0  0  0
   57.4700   28.4770   45.4870 C   0  0  0  0  0  0  0  0  0  0  0  0
   56.2570   28.8020   45.6060 O   0  0  0  0  0  0  0  0  0  0  0  0
   59.3040   31.8860   45.9660 C   0  0  0  0  0  0  0  0  0  0  0  0
   59.7460   30.9783   46.4027 H   0  0  0  0  0  0  0  0  0  0  0  0
   59.5700   33.1370   46.5450 C   0  0  0  0  0  0  0  0  0  0  0  0
   60.6910   33.2010   48.0990 Br  0  0  0  0  0  0  0  0  0  0  0  0
  1  2  1  0
  2  3  1  0
  3  4  2  0
  4  5  1  0
  4  6  1  0
  6  7  1  0
  6  8  2  0
  8  9  1  0
  9 10  1  0
  9 11  2  0
 11 12  1  0
 12 13  1  0
 13 14  2  0
 14 15  1  0
 14 16  1  0
 13 17  1  0
 17 18  1  0
 18 19  1  0
 18 20  1  0
 18 21  1  0
 21 22  2  0
 21 23  1  0
 23 24  1  0
 24 25  1  0
 24 26  1  0
 24 27  1  0
 27 28  1  0
 27 29  1  0
 27 30  1  0
 30 31  1  0
 31 32  1  0
 31 33  1  0
 31 34  1  0
 30 35  1  0
 35 36  1  0
 35 37  1  0
 35 38  1  0
 38 39  1  0
 38 40  1  0
 17 41  1  0
 41 42  2  0
  8 43  1  0
 43 44  1  0
 43 45  2  0
 45 46  1  0
 45  3  1  0
 41 11  1  0
 38 23  1  0
M  END
>  <UniqueID>  (13) 
12

>  <SMILES>  (13) 
C=c1s/c(=C/c2ccc(O)c(Br)c2)c(=O)n1CC(=O)N1CCN(C)CC1

>  <Energy>  (13) 
95.64953564419868

>  <Genealogy>  (13) 
C=c1s/c(=C/c2ccc(O)c(Br)c2)c(=O)n1CC(=O)N1CCN(C)CC1 (cis-trans isomerization)
C=c1s/c(=C/c2ccc(O)c(Br)c2)c(=O)n1CC(=O)N1CCN(C)CC1 (3D coordinates assigned)
C=c1s/c(=C/c2ccc(O)c(Br)c2)c(=O)n1CC(=O)N1CCN(C)CC1 (nonaromatic ring conformer: 95.64953564419868 kcal/mol)

>  <smiles>  (13) 
C=c1sc(=Cc2ccc(O)c(Br)c2)c(=O)n1CC(=O)N1CCN(C)CC1

>  <score_type>  (13) 
oracle

>  <origin>  (13) 
adg

>  <m_score__min__energy>  (13) 
-8.5299999999999994

>  <m_primary>  (13) 
energy

$$$$
13:0
     RDKit          3D

 50 53  0  0  0  0  0  0  0  0999 V2000
   57.6375   27.8696   44.2807 H   0  0  0  0  0  0  0  0  0  0  0  0
   57.5950   27.2520   45.1900 C   0  0  0  0  0  0  0  0  0  0  0  0
   56.8490   25.9850   45.1220 C   0  0  0  0  0  0  0  0  0  0  0  0
   57.5080   24.5210   44.6150 S   0  0  0  0  0  0  0  0  0  0  0  0
   56.1190   23.6550   45.0020 C   0  0  0  0  0  0  0  0  0  0  0  0
   55.9970   22.3740   44.8090 N   0  0  0  0  0  0  0  0  0  0  0  0
   56.7130   21.5920   43.8400 C   0  0  0  0  0  0  0  0  0  0  0  0
   56.1050   20.9270   42.9570 O   0  0  0  0  0  0  0  0  0  0  0  0
   58.2010   21.5100   43.9240 C   0  0  0  0  0  0  0  0  0  0  0  0
   58.5083   21.4931   44.9801 H   0  0  0  0  0  0  0  0  0  0  0  0
   58.5463   20.5915   43.4269 H   0  0  0  0  0  0  0  0  0  0  0  0
   58.6451   22.3850   43.4269 H   0  0  0  0  0  0  0  0  0  0  0  0
   55.1600   24.4420   45.5430 N   0  0  0  0  0  0  0  0  0  0  0  0
   55.5720   25.7350   45.6250 C   0  0  0  0  0  0  0  0  0  0  0  0
   54.7750   26.7160   46.2020 O   0  0  0  0  0  0  0  0  0  0  0  0
   58.2270   27.7070   46.2830 C   0  0  0  0  0  0  0  0  0  0  0  0
   59.3460   26.7940   47.1530 S   0  0  0  0  0  0  0  0  0  0  0  0
   59.6450   27.9990   48.2860 C   0  0  0  0  0  0  0  0  0  0  0  0
   60.5010   27.8670   49.3030 C   0  0  0  0  0  0  0  0  0  0  0  0
   60.6487   28.6976   50.0089 H   0  0  0  0  0  0  0  0  0  0  0  0
   61.0582   26.9277   49.4345 H   0  0  0  0  0  0  0  0  0  0  0  0
   58.9170   29.1150   48.0140 N   0  0  0  0  0  0  0  0  0  0  0  0
   58.9390   30.3190   48.7970 C   0  0  0  0  0  0  0  0  0  0  0  0
   58.6040   30.2740   50.1540 C   0  0  0  0  0  0  0  0  0  0  0  0
   58.3233   29.3180   50.6201 H   0  0  0  0  0  0  0  0  0  0  0  0
   58.6260   31.4420   50.9160 C   0  0  0  0  0  0  0  0  0  0  0  0
   58.3538   31.4070   51.9812 H   0  0  0  0  0  0  0  0  0  0  0  0
   58.9930   32.6570   50.3300 C   0  0  0  0  0  0  0  0  0  0  0  0
   59.0063   33.5718   50.9408 H   0  0  0  0  0  0  0  0  0  0  0  0
   59.3470   32.7260   48.9640 C   0  0  0  0  0  0  0  0  0  0  0  0
   59.7510   34.0060   48.2880 C   0  0  0  0  0  0  0  0  0  0  0  0
   60.8060   34.5740   48.6860 O   0  0  0  0  0  0  0  0  0  0  0  0
   59.0190   34.6220   47.1920 N   0  0  0  0  0  0  0  0  0  0  0  0
   58.7200   35.5770   47.5080 H   0  0  0  0  0  0  0  0  0  0  0  0
   57.7890   33.9050   46.7970 C   0  0  0  0  0  0  0  0  0  0  0  0
   57.7796   32.9022   47.2489 H   0  0  0  0  0  0  0  0  0  0  0  0
   56.8992   34.4513   47.1433 H   0  0  0  0  0  0  0  0  0  0  0  0
   57.7820   33.7880   45.2750 C   0  0  0  0  0  0  0  0  0  0  0  0
   57.9152   32.7390   44.9719 H   0  0  0  0  0  0  0  0  0  0  0  0
   56.8280   34.1325   44.8494 H   0  0  0  0  0  0  0  0  0  0  0  0
   58.9450   34.6300   44.7840 C   0  0  0  0  0  0  0  0  0  0  0  0
   59.4834   34.1099   43.9780 H   0  0  0  0  0  0  0  0  0  0  0  0
   58.6079   35.5932   44.3733 H   0  0  0  0  0  0  0  0  0  0  0  0
   59.8480   34.8160   45.9930 C   0  0  0  0  0  0  0  0  0  0  0  0
   60.6607   34.0750   45.9734 H   0  0  0  0  0  0  0  0  0  0  0  0
   60.3005   35.8186   45.9905 H   0  0  0  0  0  0  0  0  0  0  0  0
   59.3000   31.5370   48.2050 C   0  0  0  0  0  0  0  0  0  0  0  0
   59.5501   31.5667   47.1342 H   0  0  0  0  0  0  0  0  0  0  0  0
   58.1390   28.9650   46.9000 C   0  0  0  0  0  0  0  0  0  0  0  0
   57.4290   29.9090   46.4550 O   0  0  0  0  0  0  0  0  0  0  0  0
  1  2  1  0
  2  3  1  0
  3  4  1  0
  4  5  1  0
  5  6  2  0
  6  7  1  0
  7  8  2  0
  7  9  1  0
  9 10  1  0
  9 11  1  0
  9 12  1  0
  5 13  1  0
 13 14  1  0
 14 15  1  0
  2 16  2  3
 16 17  1  0
 17 18  1  0
 18 19  2  0
 19 20  1  0
 19 21  1  0
 18 22  1  0
 22 23  1  0
 23 24  2  0
 24 25  1  0
 24 26  1  0
 26 27  1  0
 26 28  2  0
 28 29  1  0
 28 30  1  0
 30 31  1  0
 31 32  2  0
 31 33  1  0
 33 34  1  0
 33 35  1  0
 35 36  1  0
 35 37  1  0
 35 38  1  0
 38 39  1  0
 38 40  1  0
 38 41  1  0
 41 42  1  0
 41 43  1  0
 41 44  1  0
 44 45  1  0
 44 46  1  0
 30 47  2  0
 47 48  1  0
 22 49  1  0
 49 50  2  0
 14  3  2  0
 49 16  1  0
 47 23  1  0
 44 33  1  0
M  CHG  3  13  -1  15  -1  33   1
M  END
>  <UniqueID>  (14) 
13

>  <SMILES>  (14) 
C=c1sc(=Cc2s/c(=N/C(C)=O)[n-]c2[O-])c(=O)n1-c1cccc(C(=O)[NH+]2CCCC2)c1

>  <Energy>  (14) 
142.29517980836226

>  <Genealogy>  (14) 
C=c1sc(=Cc2sc(=NC(C)=O)[n-]c2[O-])c(=O)n1-c1cccc(C(=O)[NH+]2CCCC2)c1 (protonated)
C=c1sc(=Cc2s/c(=N/C(C)=O)[n-]c2[O-])c(=O)n1-c1cccc(C(=O)[NH+]2CCCC2)c1 (cis-trans isomerization)
C=c1sc(=Cc2s/c(=N/C(C)=O)[n-]c2[O-])c(=O)n1-c1cccc(C(=O)[NH+]2CCCC2)c1 (3D coordinates assigned)
C=c1sc(=Cc2s/c(=N/C(C)=O)[n-]c2[O-])c(=O)n1-c1cccc(C(=O)[NH+]2CCCC2)c1 (nonaromatic ring conformer: 142.29517980836226 kcal/mol)

>  <smiles>  (14) 
C=c1sc(=Cc2sc(=NC(C)=O)[nH]c2O)c(=O)n1-c1cccc(C(=O)N2CCCC2)c1

>  <score_type>  (14) 
oracle

>  <origin>  (14) 
adg

>  <m_score__min__energy>  (14) 
-14.68

>  <m_primary>  (14) 
energy

$$$$
14:0
     RDKit          3D

 56 59  0  0  0  0  0  0  0  0999 V2000
   59.2510   25.4500   46.1560 C   0  0  0  0  0  0  0  0  0  0  0  0
   58.4840   26.1180   47.0190 C   0  0  0  0  0  0  0  0  0  0  0  0
   58.6620   27.5670   47.2890 C   0  0  0  0  0  0  0  0  0  0  0  0
   59.4320   27.9620   48.3420 N   0  0  0  0  0  0  0  0  0  0  0  0
   59.6660   29.2730   48.6110 C   0  0  0  0  0  0  0  0  0  0  0  0
   59.1100   30.2480   47.7890 C   0  0  0  0  0  0  0  0  0  0  0  0
   58.3360   29.8700   46.7410 N   0  0  0  0  0  0  0  0  0  0  0  0
   58.0940   28.5610   46.4550 C   0  0  0  0  0  0  0  0  0  0  0  0
   57.2000   28.2420   45.3260 C   0  0  0  0  0  0  0  0  0  0  0  0
   57.5920   27.4420   44.4350 O   0  0  0  0  0  0  0  0  0  0  0  0
   55.8890   28.8090   45.2090 N   0  0  0  0  0  0  0  0  0  0  0  0
   55.4320   29.6850   44.1330 C   0  0  0  0  0  0  0  0  0  0  0  0
   56.4250   30.7860   43.8730 C   0  0  0  0  0  0  0  0  0  0  0  0
   57.0250   30.9150   42.6110 C   0  0  0  0  0  0  0  0  0  0  0  0
   57.9340   31.9480   42.3650 C   0  0  0  0  0  0  0  0  0  0  0  0
   58.2320   32.8740   43.3660 C   0  0  0  0  0  0  0  0  0  0  0  0
   57.6140   32.7830   44.6250 C   0  0  0  0  0  0  0  0  0  0  0  0
   57.9220   33.7690   45.6880 C   0  0  0  0  0  0  0  0  0  0  0  0
   57.1630   34.7640   45.8510 O   0  0  0  0  0  0  0  0  0  0  0  0
   59.0680   33.6070   46.5420 N   0  0  0  0  0  0  0  0  0  0  0  0
   58.9860   34.0470   47.9420 C   0  0  0  0  0  0  0  0  0  0  0  0
   59.8970   33.1920   48.8280 C   0  0  0  0  0  0  0  0  0  0  0  0
   61.2220   33.0640   48.2100 N   0  0  0  0  0  0  0  0  0  0  0  0
   62.4220   33.2050   48.9950 C   0  0  0  0  0  0  0  0  0  0  0  0
   63.6830   32.9560   48.4260 C   0  0  0  0  0  0  0  0  0  0  0  0
   64.8420   33.0820   49.1980 C   0  0  0  0  0  0  0  0  0  0  0  0
   64.7540   33.4510   50.5410 C   0  0  0  0  0  0  0  0  0  0  0  0
   63.5040   33.6980   51.1190 C   0  0  0  0  0  0  0  0  0  0  0  0
   63.3900   34.1480   52.8120 Cl  0  0  0  0  0  0  0  0  0  0  0  0
   62.3420   33.5740   50.3480 C   0  0  0  0  0  0  0  0  0  0  0  0
   61.2850   32.5890   46.8230 C   0  0  0  0  0  0  0  0  0  0  0  0
   60.4030   33.4690   45.9410 C   0  0  0  0  0  0  0  0  0  0  0  0
   56.7150   31.7310   44.8710 C   0  0  0  0  0  0  0  0  0  0  0  0
   59.0827   24.3761   45.9876 H   0  0  0  0  0  0  0  0  0  0  0  0
   60.0518   25.9730   45.6128 H   0  0  0  0  0  0  0  0  0  0  0  0
   57.6892   25.5745   47.5510 H   0  0  0  0  0  0  0  0  0  0  0  0
   60.2892   29.5608   49.4706 H   0  0  0  0  0  0  0  0  0  0  0  0
   59.2960   31.3140   47.9867 H   0  0  0  0  0  0  0  0  0  0  0  0
   55.3052   29.0914   43.2156 H   0  0  0  0  0  0  0  0  0  0  0  0
   54.4766   30.1396   44.4340 H   0  0  0  0  0  0  0  0  0  0  0  0
   56.7789   30.2002   41.8120 H   0  0  0  0  0  0  0  0  0  0  0  0
   58.4159   32.0314   41.3797 H   0  0  0  0  0  0  0  0  0  0  0  0
   58.9546   33.6795   43.1684 H   0  0  0  0  0  0  0  0  0  0  0  0
   59.2994   35.0992   48.0096 H   0  0  0  0  0  0  0  0  0  0  0  0
   57.9479   33.9372   48.2889 H   0  0  0  0  0  0  0  0  0  0  0  0
   59.9994   33.6698   49.8135 H   0  0  0  0  0  0  0  0  0  0  0  0
   59.4539   32.1917   48.9425 H   0  0  0  0  0  0  0  0  0  0  0  0
   63.7583   32.6608   47.3690 H   0  0  0  0  0  0  0  0  0  0  0  0
   65.8260   32.8897   48.7454 H   0  0  0  0  0  0  0  0  0  0  0  0
   65.6679   33.5477   51.1455 H   0  0  0  0  0  0  0  0  0  0  0  0
   61.3600   33.7668   50.8047 H   0  0  0  0  0  0  0  0  0  0  0  0
   62.3243   32.6376   46.4661 H   0  0  0  0  0  0  0  0  0  0  0  0
   60.9282   31.5495   46.7758 H   0  0  0  0  0  0  0  0  0  0  0  0
   60.8628   34.4635   45.8431 H   0  0  0  0  0  0  0  0  0  0  0  0
   60.3058   33.0033   44.9492 H   0  0  0  0  0  0  0  0  0  0  0  0
   56.2331   31.6467   45.8562 H   0  0  0  0  0  0  0  0  0  0  0  0
  1  2  2  0
  2  3  1  0
  3  4  2  0
  4  5  1  0
  5  6  2  0
  6  7  1  0
  7  8  2  0
  8  9  1  0
  9 10  2  0
  9 11  1  0
 11 12  1  0
 12 13  1  0
 13 14  2  0
 14 15  1  0
 15 16  2  0
 16 17  1  0
 17 18  1  0
 18 19  2  0
 18 20  1  0
 20 21  1  0
 21 22  1  0
 22 23  1  0
 23 24  1  0
 24 25  2  0
 25 26  1  0
 26 27  2  0
 27 28  1  0
 28 29  1  0
 28 30  2  0
 23 31  1  0
 31 32  1  0
 17 33  2  0
  8  3  1  0
 33 13  1  0
 32 20  1  0
 30 24  1  0
  1 34  1  0
  1 35  1  0
  2 36  1  0
  5 37  1  0
  6 38  1  0
 12 39  1  0
 12 40  1  0
 14 41  1  0
 15 42  1  0
 16 43  1  0
 21 44  1  0
 21 45  1  0
 22 46  1  0
 22 47  1  0
 25 48  1  0
 26 49  1  0
 27 50  1  0
 30 51  1  0
 31 52  1  0
 31 53  1  0
 32 54  1  0
 32 55  1  0
 33 56  1  0
M  CHG  1  11  -1
M  END
>  <UniqueID>  (15) 
14

>  <SMILES>  (15) 
C=Cc1nccnc1C(=O)[N-]Cc1cccc(C(=O)N2CCN(c3cccc(Cl)c3)CC2)c1

>  <Energy>  (15) 
73.22675530003599

>  <Genealogy>  (15) 
C=Cc1nccnc1C(=O)[N-]Cc1cccc(C(=O)N2CCN(c3cccc(Cl)c3)CC2)c1 (protonated)
C=Cc1nccnc1C(=O)[N-]Cc1cccc(C(=O)N2CCN(c3cccc(Cl)c3)CC2)c1 (3D coordinates assigned)
C=Cc1nccnc1C(=O)[N-]Cc1cccc(C(=O)N2CCN(c3cccc(Cl)c3)CC2)c1 (nonaromatic ring conformer: 73.22675530003599 kcal/mol)

>  <smiles>  (15) 
C=Cc1nccnc1C(=O)NCc1cccc(C(=O)N2CCN(c3cccc(Cl)c3)CC2)c1

>  <score_type>  (15) 
oracle

>  <origin>  (15) 
adg

>  <m_score__min__energy>  (15) 
-11.32

>  <m_primary>  (15) 
energy

$$$$
15:0
     RDKit          3D

 56 59  0  0  0  0  0  0  0  0999 V2000
   60.3810   34.7880   46.0360 C   0  0  0  0  0  0  0  0  0  0  0  0
   59.8500   33.4600   46.3130 N   0  0  0  0  0  0  0  0  0  0  0  0
   59.2250   32.6670   45.2950 C   0  0  0  0  0  0  0  0  0  0  0  0
   59.1060   33.1190   44.1240 O   0  0  0  0  0  0  0  0  0  0  0  0
   58.6780   31.3360   45.6210 C   0  0  0  0  0  0  0  0  0  0  0  0
   57.4060   30.9040   45.2660 C   0  0  0  0  0  0  0  0  0  0  0  0
   56.3640   31.6720   44.5070 C   0  0  0  0  0  0  0  0  0  0  0  0
   57.3390   29.5870   45.6720 C   0  0  0  0  0  0  0  0  0  0  0  0
   56.3480   28.6370   45.4650 C   0  0  0  0  0  0  0  0  0  0  0  0
   55.1600   28.9580   44.8170 O   0  0  0  0  0  0  0  0  0  0  0  0
   56.5920   27.3280   45.8950 C   0  0  0  0  0  0  0  0  0  0  0  0
   55.7140   26.4510   45.6630 O   0  0  0  0  0  0  0  0  0  0  0  0
   57.7660   26.9990   46.5520 N   0  0  0  0  0  0  0  0  0  0  0  0
   58.0400   25.5740   46.8630 C   0  0  0  0  0  0  0  0  0  0  0  0
   57.5650   24.6820   45.7420 C   0  0  0  0  0  0  0  0  0  0  0  0
   57.7710   25.0610   44.4040 C   0  0  0  0  0  0  0  0  0  0  0  0
   57.3560   24.2250   43.3630 C   0  0  0  0  0  0  0  0  0  0  0  0
   56.7200   23.0140   43.6470 C   0  0  0  0  0  0  0  0  0  0  0  0
   56.4940   22.6400   44.9740 C   0  0  0  0  0  0  0  0  0  0  0  0
   56.9090   23.4710   46.0200 C   0  0  0  0  0  0  0  0  0  0  0  0
   58.7000   27.9850   46.8560 C   0  0  0  0  0  0  0  0  0  0  0  0
   59.8260   27.7200   47.8290 C   0  0  0  0  0  0  0  0  0  0  0  0
   58.5200   29.2770   46.3000 C   0  0  0  0  0  0  0  0  0  0  0  0
   59.3760   30.3420   46.2420 N   0  0  0  0  0  0  0  0  0  0  0  0
   60.8480   30.3390   46.3530 C   0  0  0  0  0  0  0  0  0  0  0  0
   61.3000   31.2170   47.4940 C   0  0  0  0  0  0  0  0  0  0  0  0
   62.4690   31.9590   47.5140 C   0  0  0  0  0  0  0  0  0  0  0  0
   62.5160   32.5870   48.7420 C   0  0  0  0  0  0  0  0  0  0  0  0
   61.3820   32.2030   49.4300 C   0  0  0  0  0  0  0  0  0  0  0  0
   60.6500   31.3630   48.6710 N   0  0  0  0  0  0  0  0  0  0  0  0
   59.3840   30.7530   49.0700 C   0  0  0  0  0  0  0  0  0  0  0  0
   60.5879   35.3053   46.9845 H   0  0  0  0  0  0  0  0  0  0  0  0
   61.3120   34.6972   45.4572 H   0  0  0  0  0  0  0  0  0  0  0  0
   59.6441   35.3642   45.4572 H   0  0  0  0  0  0  0  0  0  0  0  0
   59.8860   33.0990   47.2930 H   0  0  0  0  0  0  0  0  0  0  0  0
   55.6871   32.1709   45.2162 H   0  0  0  0  0  0  0  0  0  0  0  0
   56.8534   32.4270   43.8742 H   0  0  0  0  0  0  0  0  0  0  0  0
   55.7876   30.9811   43.8742 H   0  0  0  0  0  0  0  0  0  0  0  0
   59.1227   25.4361   47.0000 H   0  0  0  0  0  0  0  0  0  0  0  0
   57.5011   25.3030   47.7829 H   0  0  0  0  0  0  0  0  0  0  0  0
   58.2606   26.0191   44.1752 H   0  0  0  0  0  0  0  0  0  0  0  0
   57.5306   24.5214   42.3182 H   0  0  0  0  0  0  0  0  0  0  0  0
   56.3976   22.3557   42.8268 H   0  0  0  0  0  0  0  0  0  0  0  0
   55.9881   21.6890   45.1970 H   0  0  0  0  0  0  0  0  0  0  0  0
   56.7213   23.1756   47.0628 H   0  0  0  0  0  0  0  0  0  0  0  0
   59.4493   27.8087   48.8587 H   0  0  0  0  0  0  0  0  0  0  0  0
   60.2183   26.7050   47.6682 H   0  0  0  0  0  0  0  0  0  0  0  0
   60.6298   28.4535   47.6682 H   0  0  0  0  0  0  0  0  0  0  0  0
   61.1944   29.3101   46.5303 H   0  0  0  0  0  0  0  0  0  0  0  0
   61.2735   30.7297   45.4169 H   0  0  0  0  0  0  0  0  0  0  0  0
   63.2145   32.0333   46.7085 H   0  0  0  0  0  0  0  0  0  0  0  0
   63.3049   33.2632   49.1032 H   0  0  0  0  0  0  0  0  0  0  0  0
   61.1159   32.5330   50.4450 H   0  0  0  0  0  0  0  0  0  0  0  0
   59.3214   30.7228   50.1678 H   0  0  0  0  0  0  0  0  0  0  0  0
   58.5488   31.3475   48.6713 H   0  0  0  0  0  0  0  0  0  0  0  0
   59.3285   29.7293   48.6713 H   0  0  0  0  0  0  0  0  0  0  0  0
  1  2  1  0
  2  3  1  0
  3  4  2  0
  3  5  1  0
  5  6  2  0
  6  7  1  0
  6  8  1  0
  8  9  2  0
  9 10  1  0
  9 11  1  0
 11 12  2  0
 11 13  1  0
 13 14  1  0
 14 15  1  0
 15 16  2  0
 16 17  1  0
 17 18  2  0
 18 19  1  0
 19 20  2  0
 13 21  1  0
 21 22  1  0
 21 23  2  0
 23 24  1  0
 24 25  1  0
 25 26  1  0
 26 27  2  0
 27 28  1  0
 28 29  2  0
 29 30  1  0
 30 31  1  0
 24  5  1  0
 30 26  1  0
 23  8  1  0
 20 15  1  0
  1 32  1  0
  1 33  1  0
  1 34  1  0
  2 35  1  0
  7 36  1  0
  7 37  1  0
  7 38  1  0
 14 39  1  0
 14 40  1  0
 16 41  1  0
 17 42  1  0
 18 43  1  0
 19 44  1  0
 20 45  1  0
 22 46  1  0
 22 47  1  0
 22 48  1  0
 25 49  1  0
 25 50  1  0
 27 51  1  0
 28 52  1  0
 29 53  1  0
 31 54  1  0
 31 55  1  0
 31 56  1  0
M  CHG  1  10  -1
M  END
>  <UniqueID>  (16) 
15

>  <SMILES>  (16) 
CNC(=O)c1c(C)c2c([O-])c(=O)n(Cc3ccccc3)c(C)c2n1Cc1cccn1C

>  <Energy>  (16) 
134.30989038892227

>  <Genealogy>  (16) 
CNC(=O)c1c(C)c2c([O-])c(=O)n(Cc3ccccc3)c(C)c2n1Cc1cccn1C (protonated)
CNC(=O)c1c(C)c2c([O-])c(=O)n(Cc3ccccc3)c(C)c2n1Cc1cccn1C (3D coordinates assigned)
CNC(=O)c1c(C)c2c([O-])c(=O)n(Cc3ccccc3)c(C)c2n1Cc1cccn1C (optimized conformer: 134.30989038892227 kcal/mol)

>  <smiles>  (16) 
CNC(=O)c1c(C)c2c(O)c(=O)n(Cc3ccccc3)c(C)c2n1Cc1cccn1C

>  <score_type>  (16) 
oracle

>  <origin>  (16) 
adg

>  <m_score__min__energy>  (16) 
-10.25

>  <m_primary>  (16) 
energy

$$$$
16:0
     RDKit          3D

 48 50  0  0  0  0  0  0  0  0999 V2000
   51.0170   32.3120   50.0310 N   0  0  0  0  0  0  0  0  0  0  0  0
   51.2160   31.9760   51.4030 C   0  0  0  0  0  0  0  0  0  0  0  0
   50.3950   32.3950   52.2640 O   0  0  0  0  0  0  0  0  0  0  0  0
   52.3710   31.1430   51.8160 C   0  0  0  0  0  0  0  0  0  0  0  0
   52.1700   29.8560   52.3460 C   0  0  0  0  0  0  0  0  0  0  0  0
   53.2610   29.0690   52.7240 C   0  0  0  0  0  0  0  0  0  0  0  0
   54.5620   29.5570   52.5880 C   0  0  0  0  0  0  0  0  0  0  0  0
   54.7830   30.8490   52.0820 C   0  0  0  0  0  0  0  0  0  0  0  0
   56.1130   31.3650   51.9050 N   0  0  0  0  0  0  0  0  0  0  0  0
   57.2710   30.5400   51.6690 C   0  0  0  0  0  0  0  0  0  0  0  0
   57.1830   29.2900   51.8300 O   0  0  0  0  0  0  0  0  0  0  0  0
   58.6050   31.1660   51.2620 C   0  0  2  0  0  0  0  0  0  0  0  0
   58.6550   31.3920   49.7110 C   0  0  0  0  0  0  0  0  0  0  0  0
   58.9580   30.1520   48.8920 C   0  0  0  0  0  0  0  0  0  0  0  0
   58.6220   29.0220   49.3310 O   0  0  0  0  0  0  0  0  0  0  0  0
   59.6250   30.2150   47.6240 N   0  0  0  0  0  0  0  0  0  0  0  0
   59.0270   30.6640   46.3720 C   0  0  0  0  0  0  0  0  0  0  0  0
   59.1440   32.1560   46.2740 C   0  0  0  0  0  0  0  0  0  0  0  0
   58.2030   32.8960   45.5380 C   0  0  0  0  0  0  0  0  0  0  0  0
   58.2960   34.2900   45.4780 C   0  0  0  0  0  0  0  0  0  0  0  0
   59.3200   34.9540   46.1590 C   0  0  0  0  0  0  0  0  0  0  0  0
   60.2500   34.2260   46.9060 C   0  0  0  0  0  0  0  0  0  0  0  0
   60.1620   32.8320   46.9690 C   0  0  0  0  0  0  0  0  0  0  0  0
   59.8000   30.2740   51.7320 C   0  0  0  0  0  0  0  0  0  0  0  0
   60.8210   31.1660   52.3830 C   0  0  0  0  0  0  0  0  0  0  0  0
   61.9700   30.7460   52.6830 O   0  0  0  0  0  0  0  0  0  0  0  0
   60.4300   32.4960   52.6780 N   0  0  0  0  0  0  0  0  0  0  0  0
   58.8260   32.7290   52.1350 S   0  0  0  0  0  0  0  0  0  0  0  0
   57.9030   32.8890   53.3110 O   0  0  0  0  0  0  0  0  0  0  0  0
   58.7280   33.9310   51.2380 O   0  0  0  0  0  0  0  0  0  0  0  0
   53.6850   31.6260   51.6800 C   0  0  0  0  0  0  0  0  0  0  0  0
   50.0590   32.3430   49.6200 H   0  0  0  0  0  0  0  0  0  0  0  0
   51.1480   29.4666   52.4637 H   0  0  0  0  0  0  0  0  0  0  0  0
   53.0941   28.0606   53.1305 H   0  0  0  0  0  0  0  0  0  0  0  0
   55.4166   28.9281   52.8779 H   0  0  0  0  0  0  0  0  0  0  0  0
   56.2430   32.3960   52.0040 H   0  0  0  0  0  0  0  0  0  0  0  0
   57.6773   31.7816   49.3912 H   0  0  0  0  0  0  0  0  0  0  0  0
   59.4845   32.0910   49.5288 H   0  0  0  0  0  0  0  0  0  0  0  0
   59.5527   30.1978   45.5257 H   0  0  0  0  0  0  0  0  0  0  0  0
   57.9660   30.3750   46.3459 H   0  0  0  0  0  0  0  0  0  0  0  0
   57.3909   32.3772   45.0075 H   0  0  0  0  0  0  0  0  0  0  0  0
   57.5621   34.8648   44.8940 H   0  0  0  0  0  0  0  0  0  0  0  0
   59.3940   36.0503   46.1070 H   0  0  0  0  0  0  0  0  0  0  0  0
   61.0525   34.7505   47.4453 H   0  0  0  0  0  0  0  0  0  0  0  0
   60.8913   32.2627   47.5640 H   0  0  0  0  0  0  0  0  0  0  0  0
   59.4444   29.5249   52.4547 H   0  0  0  0  0  0  0  0  0  0  0  0
   60.2445   29.7491   50.8735 H   0  0  0  0  0  0  0  0  0  0  0  0
   53.8545   32.6255   51.2531 H   0  0  0  0  0  0  0  0  0  0  0  0
  1  2  1  0
  2  3  2  0
  2  4  1  0
  4  5  2  0
  5  6  1  0
  6  7  2  0
  7  8  1  0
  8  9  1  0
  9 10  1  0
 10 11  2  0
 10 12  1  0
 12 13  1  6
 13 14  1  0
 14 15  2  0
 14 16  1  0
 16 17  1  0
 17 18  1  0
 18 19  2  0
 19 20  1  0
 20 21  2  0
 21 22  1  0
 22 23  2  0
 12 24  1  0
 24 25  1  0
 25 26  2  0
 25 27  1  0
 27 28  1  0
 28 29  2  0
 28 30  2  0
  8 31  2  0
 31  4  1  0
 28 12  1  0
 23 18  1  0
  1 32  1  0
  5 33  1  0
  6 34  1  0
  7 35  1  0
  9 36  1  0
 13 37  1  0
 13 38  1  0
 17 39  1  0
 17 40  1  0
 19 41  1  0
 20 42  1  0
 21 43  1  0
 22 44  1  0
 23 45  1  0
 24 46  1  0
 24 47  1  0
 31 48  1  0
M  CHG  3   1  -1  16  -1  27  -1
M  END
>  <UniqueID>  (17) 
16

>  <SMILES>  (17) 
[NH-]C(=O)c1cccc(NC(=O)[C@]2(CC(=O)[N-]Cc3ccccc3)CC(=O)[N-]S2(=O)=O)c1

>  <Energy>  (17) 
66.11531537277207

>  <Genealogy>  (17) 
[NH-]C(=O)c1cccc(NC(=O)C2(CC(=O)[N-]Cc3ccccc3)CC(=O)[N-]S2(=O)=O)c1 (protonated)
[NH-]C(=O)c1cccc(NC(=O)[C@]2(CC(=O)[N-]Cc3ccccc3)CC(=O)[N-]S2(=O)=O)c1 (chirality)
[NH-]C(=O)c1cccc(NC(=O)[C@]2(CC(=O)[N-]Cc3ccccc3)CC(=O)[N-]S2(=O)=O)c1 (3D coordinates assigned)
[NH-]C(=O)c1cccc(NC(=O)[C@]2(CC(=O)[N-]Cc3ccccc3)CC(=O)[N-]S2(=O)=O)c1 (nonaromatic ring conformer: 66.11531537277207 kcal/mol)

>  <smiles>  (17) 
NC(=O)c1cccc(NC(=O)C2(CC(=O)NCc3ccccc3)CC(=O)NS2(=O)=O)c1

>  <score_type>  (17) 
oracle

>  <origin>  (17) 
adg

>  <m_score__min__energy>  (17) 
-13.779999999999999

>  <m_primary>  (17) 
energy

$$$$
17:0
     RDKit          3D

 56 59  0  0  0  0  0  0  0  0999 V2000
   56.5240   30.2270   44.4960 O   0  0  0  0  0  0  0  0  0  0  0  0
   57.3870   30.1210   45.4100 C   0  0  0  0  0  0  0  0  0  0  0  0
   57.7680   28.7480   45.9180 C   0  0  0  0  0  0  0  0  0  0  0  0
   57.4760   27.6270   44.9110 C   0  0  0  0  0  0  0  0  0  0  0  0
   57.3570   26.3350   45.6060 N   0  0  0  0  0  0  0  0  0  0  0  0
   58.4500   25.5170   45.6820 C   0  0  0  0  0  0  0  0  0  0  0  0
   58.3630   24.2760   46.3100 C   0  0  0  0  0  0  0  0  0  0  0  0
   57.1390   23.8860   46.8460 C   0  0  0  0  0  0  0  0  0  0  0  0
   57.0230   22.7730   47.4220 O   0  0  0  0  0  0  0  0  0  0  0  0
   56.0660   24.7090   46.7440 N   0  0  0  0  0  0  0  0  0  0  0  0
   56.1600   25.9180   46.1310 C   0  0  0  0  0  0  0  0  0  0  0  0
   55.1330   26.6450   46.0500 O   0  0  0  0  0  0  0  0  0  0  0  0
   57.9860   31.3110   45.9720 N   0  0  0  0  0  0  0  0  0  0  0  0
   58.7130   31.2330   47.2490 C   0  0  0  0  0  0  0  0  0  0  0  0
   59.2570   32.5980   47.6620 C   0  0  0  0  0  0  0  0  0  0  0  0
   59.8810   33.2280   46.4880 N   0  0  0  0  0  0  0  0  0  0  0  0
   60.6980   34.3900   46.8930 C   0  0  0  0  0  0  0  0  0  0  0  0
   61.9130   33.9440   47.6630 C   0  0  0  0  0  0  0  0  0  0  0  0
   61.8930   33.9180   49.0640 C   0  0  0  0  0  0  0  0  0  0  0  0
   63.0110   33.4740   49.7710 C   0  0  0  0  0  0  0  0  0  0  0  0
   64.1430   33.0440   49.0710 C   0  0  0  0  0  0  0  0  0  0  0  0
   65.2690   32.6180   49.7870 O   0  0  0  0  0  0  0  0  0  0  0  0
   66.1090   33.4470   50.5430 C   0  0  0  0  0  0  0  0  0  0  0  0
   65.5390   34.2500   51.5390 C   0  0  0  0  0  0  0  0  0  0  0  0
   66.3420   35.0830   52.3240 C   0  0  0  0  0  0  0  0  0  0  0  0
   67.7260   35.1070   52.1290 C   0  0  0  0  0  0  0  0  0  0  0  0
   68.3080   34.2950   51.1530 C   0  0  0  0  0  0  0  0  0  0  0  0
   67.5070   33.4620   50.3650 C   0  0  0  0  0  0  0  0  0  0  0  0
   64.1460   33.0810   47.7090 N   0  0  0  0  0  0  0  0  0  0  0  0
   63.0690   33.5110   46.9970 C   0  0  0  0  0  0  0  0  0  0  0  0
   58.8590   33.6090   45.4810 C   0  0  0  0  0  0  0  0  0  0  0  0
   57.6660   32.6290   45.4010 C   0  0  0  0  0  0  0  0  0  0  0  0
   58.8450   28.7447   46.1419 H   0  0  0  0  0  0  0  0  0  0  0  0
   57.1588   28.5502   46.8123 H   0  0  0  0  0  0  0  0  0  0  0  0
   56.5336   27.8457   44.3875 H   0  0  0  0  0  0  0  0  0  0  0  0
   58.3036   27.5701   44.1886 H   0  0  0  0  0  0  0  0  0  0  0  0
   59.4056   25.8411   45.2440 H   0  0  0  0  0  0  0  0  0  0  0  0
   59.2424   23.6190   46.3806 H   0  0  0  0  0  0  0  0  0  0  0  0
   58.0284   30.8691   48.0293 H   0  0  0  0  0  0  0  0  0  0  0  0
   59.5617   30.5445   47.1237 H   0  0  0  0  0  0  0  0  0  0  0  0
   58.4343   33.2296   48.0284 H   0  0  0  0  0  0  0  0  0  0  0  0
   59.9995   32.4799   48.4649 H   0  0  0  0  0  0  0  0  0  0  0  0
   61.0205   34.9356   45.9939 H   0  0  0  0  0  0  0  0  0  0  0  0
   60.0904   35.0420   47.5377 H   0  0  0  0  0  0  0  0  0  0  0  0
   60.9950   34.2480   49.6069 H   0  0  0  0  0  0  0  0  0  0  0  0
   63.0022   33.4622   50.8709 H   0  0  0  0  0  0  0  0  0  0  0  0
   64.4519   34.2251   51.7048 H   0  0  0  0  0  0  0  0  0  0  0  0
   65.8844   35.7198   53.0954 H   0  0  0  0  0  0  0  0  0  0  0  0
   68.3567   35.7655   52.7443 H   0  0  0  0  0  0  0  0  0  0  0  0
   69.3977   34.3106   51.0038 H   0  0  0  0  0  0  0  0  0  0  0  0
   67.9697   32.8165   49.6039 H   0  0  0  0  0  0  0  0  0  0  0  0
   63.1050   33.5190   45.8976 H   0  0  0  0  0  0  0  0  0  0  0  0
   58.4722   34.6058   45.7395 H   0  0  0  0  0  0  0  0  0  0  0  0
   59.3546   33.5912   44.4991 H   0  0  0  0  0  0  0  0  0  0  0  0
   56.8181   33.0580   45.9551 H   0  0  0  0  0  0  0  0  0  0  0  0
   57.4201   32.4845   44.3386 H   0  0  0  0  0  0  0  0  0  0  0  0
  1  2  2  0
  2  3  1  0
  3  4  1  0
  4  5  1  0
  5  6  1  0
  6  7  2  0
  7  8  1  0
  8  9  2  0
  8 10  1  0
 10 11  1  0
 11 12  2  0
  2 13  1  0
 13 14  1  0
 14 15  1  0
 15 16  1  0
 16 17  1  0
 17 18  1  0
 18 19  2  0
 19 20  1  0
 20 21  2  0
 21 22  1  0
 22 23  1  0
 23 24  2  0
 24 25  1  0
 25 26  2  0
 26 27  1  0
 27 28  2  0
 21 29  1  0
 29 30  2  0
 16 31  1  0
 31 32  1  0
 11  5  1  0
 32 13  1  0
 30 18  1  0
 28 23  1  0
  3 33  1  0
  3 34  1  0
  4 35  1  0
  4 36  1  0
  6 37  1  0
  7 38  1  0
 14 39  1  0
 14 40  1  0
 15 41  1  0
 15 42  1  0
 17 43  1  0
 17 44  1  0
 19 45  1  0
 20 46  1  0
 24 47  1  0
 25 48  1  0
 26 49  1  0
 27 50  1  0
 28 51  1  0
 30 52  1  0
 31 53  1  0
 31 54  1  0
 32 55  1  0
 32 56  1  0
M  CHG  1  10  -1
M  END
>  <UniqueID>  (18) 
17

>  <SMILES>  (18) 
O=C(CCn1ccc(=O)[n-]c1=O)N1CCN(Cc2ccc(Oc3ccccc3)nc2)CC1

>  <Energy>  (18) 
72.01146098098155

>  <Genealogy>  (18) 
O=C(CCn1ccc(=O)[n-]c1=O)N1CCN(Cc2ccc(Oc3ccccc3)nc2)CC1 (protonated)
O=C(CCn1ccc(=O)[n-]c1=O)N1CCN(Cc2ccc(Oc3ccccc3)nc2)CC1 (3D coordinates assigned)
O=C(CCn1ccc(=O)[n-]c1=O)N1CCN(Cc2ccc(Oc3ccccc3)nc2)CC1 (nonaromatic ring conformer: 72.01146098098155 kcal/mol)

>  <smiles>  (18) 
O=C(CCn1ccc(=O)[nH]c1=O)N1CCN(Cc2ccc(Oc3ccccc3)nc2)CC1

>  <score_type>  (18) 
oracle

>  <origin>  (18) 
adg

>  <m_score__min__energy>  (18) 
-11.19

>  <m_primary>  (18) 
energy

$$$$
18:0
     RDKit          3D

 49 52  0  0  0  0  0  0  0  0999 V2000
   56.1490   25.9450   46.3910 C   0  0  0  0  0  0  0  0  0  0  0  0
   56.6500   27.0950   45.9430 C   0  0  0  0  0  0  0  0  0  0  0  0
   55.9090   27.9850   45.2490 N   0  0  0  0  0  0  0  0  0  0  0  0
   56.7410   28.9930   44.9160 C   0  0  0  0  0  0  0  0  0  0  0  0
   56.3230   30.0530   44.2080 C   0  0  0  0  0  0  0  0  0  0  0  0
   57.1670   31.2090   43.8620 C   0  0  0  0  0  0  0  0  0  0  0  0
   57.4250   31.6720   42.5770 C   0  0  0  0  0  0  0  0  0  0  0  0
   58.1460   32.8170   42.6240 N   0  0  0  0  0  0  0  0  0  0  0  0
   58.3180   33.0950   43.9290 C   0  0  0  0  0  0  0  0  0  0  0  0
   58.9600   34.2040   44.4780 C   0  0  0  0  0  0  0  0  0  0  0  0
   58.9780   34.3270   45.8790 C   0  0  0  0  0  0  0  0  0  0  0  0
   58.3490   33.3570   46.6910 C   0  0  0  0  0  0  0  0  0  0  0  0
   57.7030   32.2520   46.1090 C   0  0  0  0  0  0  0  0  0  0  0  0
   57.7220   32.1430   44.7170 C   0  0  0  0  0  0  0  0  0  0  0  0
   58.0240   28.7290   45.3820 C   0  0  0  0  0  0  0  0  0  0  0  0
   59.1550   29.5190   45.1900 O   0  0  0  0  0  0  0  0  0  0  0  0
   57.9690   27.5240   46.0580 C   0  0  0  0  0  0  0  0  0  0  0  0
   59.0930   26.8340   46.7230 C   0  0  0  0  0  0  0  0  0  0  0  0
   59.3660   25.6480   46.3960 O   0  0  0  0  0  0  0  0  0  0  0  0
   59.8760   27.4920   47.7370 N   0  0  0  0  0  0  0  0  0  0  0  0
   60.5480   26.6930   48.7640 C   0  0  0  0  0  0  0  0  0  0  0  0
   60.6060   27.4650   50.0830 C   0  0  0  0  0  0  0  0  0  0  0  0
   61.1020   28.8330   49.8640 N   0  0  0  0  0  0  0  0  0  0  0  0
   61.9440   29.4940   50.8400 C   0  0  0  0  0  0  0  0  0  0  0  0
   62.3810   28.8140   52.1030 C   0  0  0  0  0  0  0  0  0  0  0  0
   62.3480   30.6710   50.6300 O   0  0  0  0  0  0  0  0  0  0  0  0
   60.4380   29.6290   48.8190 C   0  0  0  0  0  0  0  0  0  0  0  0
   60.3750   28.8530   47.5040 C   0  0  0  0  0  0  0  0  0  0  0  0
   56.7885   25.2481   46.9526 H   0  0  0  0  0  0  0  0  0  0  0  0
   55.0958   25.6921   46.1993 H   0  0  0  0  0  0  0  0  0  0  0  0
   55.2787   30.0591   43.8624 H   0  0  0  0  0  0  0  0  0  0  0  0
   57.0907   31.1780   41.6527 H   0  0  0  0  0  0  0  0  0  0  0  0
   58.4750   33.3830   41.8100 H   0  0  0  0  0  0  0  0  0  0  0  0
   59.4373   34.9589   43.8359 H   0  0  0  0  0  0  0  0  0  0  0  0
   59.4853   35.1843   46.3456 H   0  0  0  0  0  0  0  0  0  0  0  0
   58.3647   33.4669   47.7854 H   0  0  0  0  0  0  0  0  0  0  0  0
   57.1987   31.4974   46.7305 H   0  0  0  0  0  0  0  0  0  0  0  0
   59.3030   30.3770   45.7040 H   0  0  0  0  0  0  0  0  0  0  0  0
   59.9924   25.7559   48.9161 H   0  0  0  0  0  0  0  0  0  0  0  0
   61.5736   26.4732   48.4324 H   0  0  0  0  0  0  0  0  0  0  0  0
   59.5969   27.5122   50.5184 H   0  0  0  0  0  0  0  0  0  0  0  0
   61.2930   26.9451   50.7670 H   0  0  0  0  0  0  0  0  0  0  0  0
   62.0156   29.3826   52.9709 H   0  0  0  0  0  0  0  0  0  0  0  0
   61.9684   27.7947   52.1323 H   0  0  0  0  0  0  0  0  0  0  0  0
   63.4796   28.7659   52.1323 H   0  0  0  0  0  0  0  0  0  0  0  0
   59.4154   29.8705   49.1447 H   0  0  0  0  0  0  0  0  0  0  0  0
   61.0159   30.5509   48.6572 H   0  0  0  0  0  0  0  0  0  0  0  0
   59.6997   29.3726   46.8084 H   0  0  0  0  0  0  0  0  0  0  0  0
   61.3863   28.7940   47.0754 H   0  0  0  0  0  0  0  0  0  0  0  0
  1  2  2  0
  2  3  1  0
  3  4  1  0
  4  5  2  3
  5  6  1  0
  6  7  2  0
  7  8  1  0
  8  9  1  0
  9 10  2  0
 10 11  1  0
 11 12  2  0
 12 13  1  0
 13 14  2  0
  4 15  1  0
 15 16  1  0
 15 17  2  0
 17 18  1  0
 18 19  2  0
 18 20  1  0
 20 21  1  0
 21 22  1  0
 22 23  1  0
 23 24  1  0
 24 25  1  0
 24 26  2  0
 23 27  1  0
 27 28  1  0
 17  2  1  0
 28 20  1  0
 14  6  1  0
 14  9  1  0
  1 29  1  0
  1 30  1  0
  5 31  1  0
  7 32  1  0
  8 33  1  0
 10 34  1  0
 11 35  1  0
 12 36  1  0
 13 37  1  0
 16 38  1  0
 21 39  1  0
 21 40  1  0
 22 41  1  0
 22 42  1  0
 25 43  1  0
 25 44  1  0
 25 45  1  0
 27 46  1  0
 27 47  1  0
 28 48  1  0
 28 49  1  0
M  CHG  1   3  -1
M  END
>  <UniqueID>  (19) 
18

>  <SMILES>  (19) 
C=c1[n-]c(=Cc2c[nH]c3ccccc23)c(O)c1C(=O)N1CCN(C(C)=O)CC1

>  <Energy>  (19) 
123.69112535588812

>  <Genealogy>  (19) 
C=c1[n-]c(=Cc2c[nH]c3ccccc23)c(O)c1C(=O)N1CCN(C(C)=O)CC1 (protonated)
C=c1[n-]c(=Cc2c[nH]c3ccccc23)c(O)c1C(=O)N1CCN(C(C)=O)CC1 (3D coordinates assigned)
C=c1[n-]c(=Cc2c[nH]c3ccccc23)c(O)c1C(=O)N1CCN(C(C)=O)CC1 (nonaromatic ring conformer: 123.69112535588812 kcal/mol)

>  <smiles>  (19) 
C=c1[nH]c(=Cc2c[nH]c3ccccc23)c(O)c1C(=O)N1CCN(C(C)=O)CC1

>  <score_type>  (19) 
oracle

>  <origin>  (19) 
adg

>  <m_score__min__energy>  (19) 
-10.59

>  <m_primary>  (19) 
energy

$$$$
19:0
     RDKit          3D

 49 51  0  0  0  0  0  0  0  0999 V2000
   56.6860   22.0040   42.7770 C   0  0  0  0  0  0  0  0  0  0  0  0
   56.7180   21.5360   44.2010 C   0  0  0  0  0  0  0  0  0  0  0  0
   56.3280   20.2470   44.5650 C   0  0  0  0  0  0  0  0  0  0  0  0
   56.4340   20.1080   46.2390 S   0  0  0  0  0  0  0  0  0  0  0  0
   56.9600   21.6870   46.4340 C   0  0  0  0  0  0  0  0  0  0  0  0
   57.2340   22.2060   47.5500 O   0  0  0  0  0  0  0  0  0  0  0  0
   57.0550   22.3460   45.2520 N   0  0  0  0  0  0  0  0  0  0  0  0
   57.5070   23.7390   45.1380 C   0  0  0  0  0  0  0  0  0  0  0  0
   56.3810   24.6230   44.5890 C   0  0  0  0  0  0  0  0  0  0  0  0
   55.5230   25.1650   45.6940 C   0  0  0  0  0  0  0  0  0  0  0  0
   54.7780   24.3870   46.3470 O   0  0  0  0  0  0  0  0  0  0  0  0
   55.5740   26.5650   46.0000 N   0  0  0  0  0  0  0  0  0  0  0  0
   56.6810   27.4570   45.7910 C   0  0  0  0  0  0  0  0  0  0  0  0
   57.9680   27.0100   46.1150 C   0  0  0  0  0  0  0  0  0  0  0  0
   59.0760   27.8380   45.9130 C   0  0  0  0  0  0  0  0  0  0  0  0
   58.9080   29.1180   45.3760 C   0  0  0  0  0  0  0  0  0  0  0  0
   57.6300   29.5740   45.0360 C   0  0  0  0  0  0  0  0  0  0  0  0
   57.3930   31.1990   44.3960 S   0  0  0  0  0  0  0  0  0  0  0  0
   55.9500   31.5800   44.5630 O   0  0  0  0  0  0  0  0  0  0  0  0
   57.7410   31.2300   42.9310 O   0  0  0  0  0  0  0  0  0  0  0  0
   58.4090   32.3240   45.2650 N   0  0  0  0  0  0  0  0  0  0  0  0
   58.5630   33.5670   44.4760 C   0  0  0  0  0  0  0  0  0  0  0  0
   59.1760   34.7210   45.3010 C   0  0  0  0  0  0  0  0  0  0  0  0
   59.8140   34.2150   46.5970 C   0  0  0  0  0  0  0  0  0  0  0  0
   58.7970   33.4320   47.4450 C   0  0  0  0  0  0  0  0  0  0  0  0
   57.8190   32.6120   46.5830 C   0  0  0  0  0  0  0  0  0  0  0  0
   56.5210   28.7380   45.2290 C   0  0  0  0  0  0  0  0  0  0  0  0
   56.6110   23.1012   42.7532 H   0  0  0  0  0  0  0  0  0  0  0  0
   57.6078   21.6884   42.2665 H   0  0  0  0  0  0  0  0  0  0  0  0
   55.8157   21.5658   42.2665 H   0  0  0  0  0  0  0  0  0  0  0  0
   56.0053   19.4544   43.8739 H   0  0  0  0  0  0  0  0  0  0  0  0
   57.8043   24.1060   46.1314 H   0  0  0  0  0  0  0  0  0  0  0  0
   58.3625   23.7812   44.4478 H   0  0  0  0  0  0  0  0  0  0  0  0
   56.8238   25.4635   44.0345 H   0  0  0  0  0  0  0  0  0  0  0  0
   55.7496   24.0098   43.9292 H   0  0  0  0  0  0  0  0  0  0  0  0
   58.1079   26.0013   46.5309 H   0  0  0  0  0  0  0  0  0  0  0  0
   60.0826   27.4817   46.1772 H   0  0  0  0  0  0  0  0  0  0  0  0
   59.7821   29.7674   45.2207 H   0  0  0  0  0  0  0  0  0  0  0  0
   59.2187   33.3605   43.6173 H   0  0  0  0  0  0  0  0  0  0  0  0
   57.5603   33.8837   44.1531 H   0  0  0  0  0  0  0  0  0  0  0  0
   59.9467   35.2212   44.6961 H   0  0  0  0  0  0  0  0  0  0  0  0
   58.3682   35.4188   45.5666 H   0  0  0  0  0  0  0  0  0  0  0  0
   60.6582   33.5552   46.3482 H   0  0  0  0  0  0  0  0  0  0  0  0
   60.1600   35.0824   47.1784 H   0  0  0  0  0  0  0  0  0  0  0  0
   59.3443   32.7455   48.1077 H   0  0  0  0  0  0  0  0  0  0  0  0
   58.2067   34.1620   48.0182 H   0  0  0  0  0  0  0  0  0  0  0  0
   57.5939   31.6641   47.0936 H   0  0  0  0  0  0  0  0  0  0  0  0
   56.8969   33.1944   46.4401 H   0  0  0  0  0  0  0  0  0  0  0  0
   55.5184   29.0856   44.9392 H   0  0  0  0  0  0  0  0  0  0  0  0
  1  2  1  0
  2  3  2  0
  3  4  1  0
  4  5  1  0
  5  6  2  0
  5  7  1  0
  7  8  1  0
  8  9  1  0
  9 10  1  0
 10 11  2  0
 10 12  1  0
 12 13  1  0
 13 14  2  0
 14 15  1  0
 15 16  2  0
 16 17  1  0
 17 18  1  0
 18 19  2  0
 18 20  2  0
 18 21  1  0
 21 22  1  0
 22 23  1  0
 23 24  1  0
 24 25  1  0
 25 26  1  0
 17 27  2  0
  7  2  1  0
 27 13  1  0
 26 21  1  0
  1 28  1  0
  1 29  1  0
  1 30  1  0
  3 31  1  0
  8 32  1  0
  8 33  1  0
  9 34  1  0
  9 35  1  0
 14 36  1  0
 15 37  1  0
 16 38  1  0
 22 39  1  0
 22 40  1  0
 23 41  1  0
 23 42  1  0
 24 43  1  0
 24 44  1  0
 25 45  1  0
 25 46  1  0
 26 47  1  0
 26 48  1  0
 27 49  1  0
M  CHG  1  12  -1
M  END
>  <UniqueID>  (20) 
19

>  <SMILES>  (20) 
Cc1csc(=O)n1CCC(=O)[N-]c1cccc(S(=O)(=O)N2CCCCC2)c1

>  <Energy>  (20) 
83.03684128575753

>  <Genealogy>  (20) 
Cc1csc(=O)n1CCC(=O)[N-]c1cccc(S(=O)(=O)N2CCCCC2)c1 (protonated)
Cc1csc(=O)n1CCC(=O)[N-]c1cccc(S(=O)(=O)N2CCCCC2)c1 (3D coordinates assigned)
Cc1csc(=O)n1CCC(=O)[N-]c1cccc(S(=O)(=O)N2CCCCC2)c1 (nonaromatic ring conformer: 83.03684128575753 kcal/mol)

>  <smiles>  (20) 
Cc1csc(=O)n1CCC(=O)Nc1cccc(S(=O)(=O)N2CCCCC2)c1

>  <score_type>  (20) 
oracle

>  <origin>  (20) 
adg

>  <m_score__min__energy>  (20) 
-11.32

>  <m_primary>  (20) 
energy

$$$$
20:0
     RDKit          3D

 52 54  0  0  1  0  0  0  0  0999 V2000
   56.1300   23.2670   43.4560 C   0  0  0  0  0  0  0  0  0  0  0  0
   57.3070   24.1740   43.7440 C   0  0  0  0  0  0  0  0  0  0  0  0
   58.0020   23.7920   45.0190 C   0  0  0  0  0  0  0  0  0  0  0  0
   58.4970   24.9770   45.8000 C   0  0  0  0  0  0  0  0  0  0  0  0
   57.4480   25.5900   46.7030 C   0  0  1  0  0  0  0  0  0  0  0  0
   58.3050   26.6950   47.8560 S   0  0  0  0  0  0  0  0  0  0  0  0
   59.4420   27.7940   47.0130 C   0  0  0  0  0  0  0  0  0  0  0  0
   59.9320   28.9000   47.5860 N   0  0  0  0  0  0  0  0  0  0  0  0
   60.7580   29.5390   46.7190 C   0  0  0  0  0  0  0  0  0  0  0  0
   61.4130   30.8140   47.0980 C   0  0  0  0  0  0  0  0  0  0  0  0
   60.6010   32.0220   46.8740 C   0  0  0  0  0  0  0  0  0  0  0  0
   59.2220   31.8330   46.8040 C   0  0  0  0  0  0  0  0  0  0  0  0
   58.3410   32.8590   46.5510 C   0  0  0  0  0  0  0  0  0  0  0  0
   58.8000   34.1410   46.3540 C   0  0  0  0  0  0  0  0  0  0  0  0
   60.1670   34.3470   46.4210 C   0  0  0  0  0  0  0  0  0  0  0  0
   61.0480   33.2900   46.6800 C   0  0  0  0  0  0  0  0  0  0  0  0
   62.7350   33.7050   46.7990 Cl  0  0  0  0  0  0  0  0  0  0  0  0
   60.7570   28.7810   45.5950 C   0  0  0  0  0  0  0  0  0  0  0  0
   61.4380   28.9860   44.4130 O   0  0  0  0  0  0  0  0  0  0  0  0
   59.9470   27.7060   45.7750 N   0  0  0  0  0  0  0  0  0  0  0  0
   56.6610   26.5340   45.8220 C   0  0  0  0  0  0  0  0  0  0  0  0
   55.4250   26.7020   45.9760 O   0  0  0  0  0  0  0  0  0  0  0  0
   57.4030   27.2130   44.8190 N   0  0  0  0  0  0  0  0  0  0  0  0
   57.1870   28.4460   44.5640 C   0  0  0  0  0  0  0  0  0  0  0  0
   58.1710   29.3340   44.1810 C   0  0  0  0  0  0  0  0  0  0  0  0
   57.8200   30.6320   43.9380 C   0  0  0  0  0  0  0  0  0  0  0  0
   56.5000   31.0550   44.0730 C   0  0  0  0  0  0  0  0  0  0  0  0
   55.5370   30.1390   44.4580 C   0  0  0  0  0  0  0  0  0  0  0  0
   55.8920   28.8640   44.6950 N   0  0  0  0  0  0  0  0  0  0  0  0
   55.6886   22.9268   44.4044 H   0  0  0  0  0  0  0  0  0  0  0  0
   55.3748   23.8189   42.8772 H   0  0  0  0  0  0  0  0  0  0  0  0
   56.4712   22.3961   42.8772 H   0  0  0  0  0  0  0  0  0  0  0  0
   58.0235   24.1036   42.9123 H   0  0  0  0  0  0  0  0  0  0  0  0
   56.9301   25.2017   43.8529 H   0  0  0  0  0  0  0  0  0  0  0  0
   57.2960   23.2291   45.6472 H   0  0  0  0  0  0  0  0  0  0  0  0
   58.8810   23.1900   44.7451 H   0  0  0  0  0  0  0  0  0  0  0  0
   59.3450   24.6539   46.4217 H   0  0  0  0  0  0  0  0  0  0  0  0
   58.7832   25.7477   45.0692 H   0  0  0  0  0  0  0  0  0  0  0  0
   56.8477   24.8189   47.2080 H   0  0  0  0  0  0  0  0  0  0  0  0
   61.6626   30.7644   48.1681 H   0  0  0  0  0  0  0  0  0  0  0  0
   62.2948   30.9116   46.4476 H   0  0  0  0  0  0  0  0  0  0  0  0
   58.8208   30.8203   46.9576 H   0  0  0  0  0  0  0  0  0  0  0  0
   57.2614   32.6528   46.5059 H   0  0  0  0  0  0  0  0  0  0  0  0
   58.1069   34.9707   46.1510 H   0  0  0  0  0  0  0  0  0  0  0  0
   60.5686   35.3596   46.2680 H   0  0  0  0  0  0  0  0  0  0  0  0
   62.0560   28.2290   44.0920 H   0  0  0  0  0  0  0  0  0  0  0  0
   59.7570   26.9640   45.0930 H   0  0  0  0  0  0  0  0  0  0  0  0
   59.2149   29.0044   44.0736 H   0  0  0  0  0  0  0  0  0  0  0  0
   58.5915   31.3536   43.6312 H   0  0  0  0  0  0  0  0  0  0  0  0
   56.2269   32.1023   43.8764 H   0  0  0  0  0  0  0  0  0  0  0  0
   54.4883   30.4517   44.5694 H   0  0  0  0  0  0  0  0  0  0  0  0
   55.1490   28.1810   44.9880 H   0  0  0  0  0  0  0  0  0  0  0  0
  1  2  1  0
  2  3  1  0
  3  4  1  0
  4  5  1  0
  5  6  1  0
  6  7  1  0
  7  8  2  0
  8  9  1  0
  9 10  1  0
 10 11  1  0
 11 12  2  0
 12 13  1  0
 13 14  2  0
 14 15  1  0
 15 16  2  0
 16 17  1  0
  9 18  2  0
 18 19  1  0
 18 20  1  0
  5 21  1  0
 21 22  2  0
 21 23  1  0
 23 24  2  0
 24 25  1  0
 25 26  2  0
 26 27  1  0
 27 28  2  0
 28 29  1  0
 20  7  1  0
 29 24  1  0
 16 11  1  0
  1 30  1  0
  1 31  1  0
  1 32  1  0
  2 33  1  0
  2 34  1  0
  3 35  1  0
  3 36  1  0
  4 37  1  0
  4 38  1  0
  5 39  1  1
 10 40  1  0
 10 41  1  0
 12 42  1  0
 13 43  1  0
 14 44  1  0
 15 45  1  0
 19 46  1  0
 20 47  1  0
 25 48  1  0
 26 49  1  0
 27 50  1  0
 28 51  1  0
 29 52  1  0
M  END
>  <smiles>  (21) 
CCCCC(Sc1nc(Cc2ccccc2Cl)c(O)[nH]1)C(=O)N=c1cccc[nH]1

>  <score_type>  (21) 
oracle

>  <origin>  (21) 
adg

>  <m_score__min__energy>  (21) 
-9.3699999999999992

>  <m_primary>  (21) 
energy

$$$$
21:0
     RDKit          3D

 65 69  0  0  0  0  0  0  0  0999 V2000
   58.7070   27.9390   46.9270 C   0  0  0  0  0  0  0  0  0  0  0  0
   58.2380   28.2920   45.7190 C   0  0  0  0  0  0  0  0  0  0  0  0
   57.9380   27.4210   44.6520 C   0  0  0  0  0  0  0  0  0  0  0  0
   58.1450   26.1000   44.4930 C   0  0  0  0  0  0  0  0  0  0  0  0
   57.5310   25.0280   45.2870 C   0  0  0  0  0  0  0  0  0  0  0  0
   58.1810   23.9000   45.6360 N   0  0  0  0  0  0  0  0  0  0  0  0
   57.3220   23.2720   46.4640 C   0  0  0  0  0  0  0  0  0  0  0  0
   57.5860   22.1680   47.0130 O   0  0  0  0  0  0  0  0  0  0  0  0
   56.1690   23.9440   46.6630 N   0  0  0  0  0  0  0  0  0  0  0  0
   55.0930   23.6070   47.5890 C   0  0  0  0  0  0  0  0  0  0  0  0
   56.3140   25.0740   45.9520 C   0  0  0  0  0  0  0  0  0  0  0  0
   55.3970   26.1210   45.9450 O   0  0  0  0  0  0  0  0  0  0  0  0
   57.3900   28.2060   43.6570 C   0  0  0  0  0  0  0  0  0  0  0  0
   57.4230   29.5080   44.1030 C   0  0  0  0  0  0  0  0  0  0  0  0
   56.9480   30.6780   43.2940 C   0  0  0  0  0  0  0  0  0  0  0  0
   57.9320   29.5730   45.3600 N   0  0  0  0  0  0  0  0  0  0  0  0
   58.1530   30.7890   46.1110 C   0  0  0  0  0  0  0  0  0  0  0  0
   58.2230   30.7640   47.3680 O   0  0  0  0  0  0  0  0  0  0  0  0
   58.3150   32.0320   45.4200 N   0  0  0  0  0  0  0  0  0  0  0  0
   58.1840   33.3400   46.0500 C   0  0  0  0  0  0  0  0  0  0  0  0
   59.3580   33.6620   46.9300 C   0  0  0  0  0  0  0  0  0  0  0  0
   59.2690   34.5590   47.9920 C   0  0  0  0  0  0  0  0  0  0  0  0
   60.7360   34.5490   48.8020 S   0  0  0  0  0  0  0  0  0  0  0  0
   61.4990   33.3970   47.8330 C   0  0  0  0  0  0  0  0  0  0  0  0
   62.9000   32.9570   48.0400 C   0  0  0  0  0  0  0  0  0  0  0  0
   63.6210   32.8040   47.0150 O   0  0  0  0  0  0  0  0  0  0  0  0
   63.4730   32.7270   49.3480 N   0  0  0  0  0  0  0  0  0  0  0  0
   62.9960   33.4530   50.5390 C   0  0  0  0  0  0  0  0  0  0  0  0
   64.1080   33.5960   51.5910 C   0  0  0  0  0  0  0  0  0  0  0  0
   65.3900   33.9390   50.9390 N   0  0  0  0  0  0  0  0  0  0  0  0
   66.3790   34.3970   51.9550 C   0  0  0  0  0  0  0  0  0  0  0  0
   67.7480   34.7570   51.4140 C   0  0  0  0  0  0  0  0  0  0  0  0
   67.5970   36.1200   51.7500 O   0  0  0  0  0  0  0  0  0  0  0  0
   66.3320   35.8680   52.3270 C   0  0  0  0  0  0  0  0  0  0  0  0
   65.8560   32.9030   49.9680 C   0  0  0  0  0  0  0  0  0  0  0  0
   64.7300   31.9750   49.4760 C   0  0  0  0  0  0  0  0  0  0  0  0
   60.6070   33.0290   46.8270 C   0  0  0  0  0  0  0  0  0  0  0  0
   58.9060   28.7095   47.6864 H   0  0  0  0  0  0  0  0  0  0  0  0
   58.8922   26.8794   47.1570 H   0  0  0  0  0  0  0  0  0  0  0  0
   58.8380   25.7958   43.6947 H   0  0  0  0  0  0  0  0  0  0  0  0
   55.4507   23.7190   48.6232 H   0  0  0  0  0  0  0  0  0  0  0  0
   54.2401   24.2810   47.4210 H   0  0  0  0  0  0  0  0  0  0  0  0
   54.7770   22.5669   47.4210 H   0  0  0  0  0  0  0  0  0  0  0  0
   54.8450   26.3410   46.7630 H   0  0  0  0  0  0  0  0  0  0  0  0
   57.0002   27.8566   42.6895 H   0  0  0  0  0  0  0  0  0  0  0  0
   56.6214   31.4824   43.9694 H   0  0  0  0  0  0  0  0  0  0  0  0
   57.7693   31.0427   42.6596 H   0  0  0  0  0  0  0  0  0  0  0  0
   56.1049   30.3670   42.6596 H   0  0  0  0  0  0  0  0  0  0  0  0
   58.1085   34.1063   45.2645 H   0  0  0  0  0  0  0  0  0  0  0  0
   57.2821   33.3246   46.6796 H   0  0  0  0  0  0  0  0  0  0  0  0
   58.3903   35.1670   48.2531 H   0  0  0  0  0  0  0  0  0  0  0  0
   62.6588   34.4553   50.2361 H   0  0  0  0  0  0  0  0  0  0  0  0
   62.1688   32.8813   50.9849 H   0  0  0  0  0  0  0  0  0  0  0  0
   63.8368   34.3923   52.2997 H   0  0  0  0  0  0  0  0  0  0  0  0
   64.2218   32.6403   52.1236 H   0  0  0  0  0  0  0  0  0  0  0  0
   66.1905   33.5846   52.6722 H   0  0  0  0  0  0  0  0  0  0  0  0
   68.5737   34.2631   51.9472 H   0  0  0  0  0  0  0  0  0  0  0  0
   67.9975   34.4892   50.3767 H   0  0  0  0  0  0  0  0  0  0  0  0
   66.3014   36.0455   53.4122 H   0  0  0  0  0  0  0  0  0  0  0  0
   65.4699   36.4719   52.0074 H   0  0  0  0  0  0  0  0  0  0  0  0
   66.2929   33.4131   49.0969 H   0  0  0  0  0  0  0  0  0  0  0  0
   66.5897   32.2733   50.4925 H   0  0  0  0  0  0  0  0  0  0  0  0
   65.0052   31.5574   48.4963 H   0  0  0  0  0  0  0  0  0  0  0  0
   64.5901   31.1625   50.2042 H   0  0  0  0  0  0  0  0  0  0  0  0
   60.8571   32.3128   46.0305 H   0  0  0  0  0  0  0  0  0  0  0  0
  1  2  2  0
  2  3  1  0
  3  4  2  3
  4  5  1  0
  5  6  1  0
  6  7  1  0
  7  8  2  0
  7  9  1  0
  9 10  1  0
  9 11  1  0
 11 12  1  0
  3 13  1  0
 13 14  2  0
 14 15  1  0
 14 16  1  0
 16 17  1  0
 17 18  2  0
 17 19  1  0
 19 20  1  0
 20 21  1  0
 21 22  2  0
 22 23  1  0
 23 24  1  0
 24 25  1  0
 25 26  2  0
 25 27  1  0
 27 28  1  0
 28 29  1  0
 29 30  1  0
 30 31  1  0
 31 32  1  0
 32 33  1  0
 33 34  1  0
 30 35  1  0
 35 36  1  0
 24 37  2  0
 16  2  1  0
 37 21  1  0
 11  5  2  0
 36 27  1  0
 34 31  1  0
  1 38  1  0
  1 39  1  0
  4 40  1  0
 10 41  1  0
 10 42  1  0
 10 43  1  0
 12 44  1  0
 13 45  1  0
 15 46  1  0
 15 47  1  0
 15 48  1  0
 20 49  1  0
 20 50  1  0
 22 51  1  0
 28 52  1  0
 28 53  1  0
 29 54  1  0
 29 55  1  0
 31 56  1  0
 32 57  1  0
 32 58  1  0
 34 59  1  0
 34 60  1  0
 35 61  1  0
 35 62  1  0
 36 63  1  0
 36 64  1  0
 37 65  1  0
M  CHG  2   6  -1  19  -1
M  END
>  <UniqueID>  (22) 
20

>  <SMILES>  (22) 
C=c1c(=Cc2[n-]c(=O)n(C)c2O)cc(C)n1C(=O)[N-]Cc1csc(C(=O)N2CCN(C3COC3)CC2)c1

>  <Energy>  (22) 
251.8036128684325

>  <Genealogy>  (22) 
C=c1c(=Cc2[n-]c(=O)n(C)c2O)cc(C)n1C(=O)[N-]Cc1csc(C(=O)N2CCN(C3COC3)CC2)c1 (protonated)
C=c1c(=Cc2[n-]c(=O)n(C)c2O)cc(C)n1C(=O)[N-]Cc1csc(C(=O)N2CCN(C3COC3)CC2)c1 (3D coordinates assigned)
C=c1c(=Cc2[n-]c(=O)n(C)c2O)cc(C)n1C(=O)[N-]Cc1csc(C(=O)N2CCN(C3COC3)CC2)c1 (nonaromatic ring conformer: 251.8036128684325 kcal/mol)

>  <smiles>  (22) 
C=c1c(=Cc2[nH]c(=O)n(C)c2O)cc(C)n1C(=O)NCc1csc(C(=O)N2CCN(C3COC3)CC2)c1

>  <score_type>  (22) 
oracle

>  <origin>  (22) 
adg

>  <m_score__min__energy>  (22) 
-14.07

>  <m_primary>  (22) 
energy

$$$$
22:0
     RDKit          3D

 51 54  0  0  0  0  0  0  0  0999 V2000
   58.1660   26.0960   43.4860 C   0  0  0  0  0  0  0  0  0  0  0  0
   57.6590   27.3300   43.4930 C   0  0  0  0  0  0  0  0  0  0  0  0
   57.3870   27.9630   42.3730 O   0  0  0  0  0  0  0  0  0  0  0  0
   57.0150   29.1910   42.6470 C   0  0  0  0  0  0  0  0  0  0  0  0
   57.0280   29.3870   44.0120 C   0  0  0  0  0  0  0  0  0  0  0  0
   56.5930   30.6300   44.6820 C   0  0  0  0  0  0  0  0  0  0  0  0
   55.3640   30.9090   44.7000 O   0  0  0  0  0  0  0  0  0  0  0  0
   57.5290   31.4920   45.3510 N   0  0  0  0  0  0  0  0  0  0  0  0
   57.3740   32.9510   45.2760 C   0  0  0  0  0  0  0  0  0  0  0  0
   57.9180   33.6090   46.5490 C   0  0  0  0  0  0  0  0  0  0  0  0
   59.3300   33.2480   46.8140 N   0  0  0  0  0  0  0  0  0  0  0  0
   59.7170   33.5220   48.5000 S   0  0  0  0  0  0  0  0  0  0  0  0
   58.9530   32.5490   49.3540 O   0  0  0  0  0  0  0  0  0  0  0  0
   59.2960   34.9130   48.8900 O   0  0  0  0  0  0  0  0  0  0  0  0
   61.4470   33.3300   48.8010 C   0  0  0  0  0  0  0  0  0  0  0  0
   62.3480   33.2680   47.7270 C   0  0  0  0  0  0  0  0  0  0  0  0
   63.7120   33.0710   47.9640 C   0  0  0  0  0  0  0  0  0  0  0  0
   64.1910   32.9290   49.2780 C   0  0  0  0  0  0  0  0  0  0  0  0
   65.6570   32.7370   49.5420 C   0  0  0  0  0  0  0  0  0  0  0  0
   63.2940   33.0230   50.3530 C   0  0  0  0  0  0  0  0  0  0  0  0
   61.9290   33.2200   50.1150 C   0  0  0  0  0  0  0  0  0  0  0  0
   59.7200   31.8820   46.3860 C   0  0  0  0  0  0  0  0  0  0  0  0
   58.5280   30.9260   46.2650 C   0  0  0  0  0  0  0  0  0  0  0  0
   57.4190   28.1800   44.5860 C   0  0  0  0  0  0  0  0  0  0  0  0
   57.5520   27.9580   45.9110 C   0  0  0  0  0  0  0  0  0  0  0  0
   57.1420   26.7320   46.6130 C   0  0  0  0  0  0  0  0  0  0  0  0
   57.9830   25.9000   47.2540 N   0  0  0  0  0  0  0  0  0  0  0  0
   57.1870   24.8710   47.6180 C   0  0  0  0  0  0  0  0  0  0  0  0
   57.6090   23.8870   48.2770 O   0  0  0  0  0  0  0  0  0  0  0  0
   55.9000   24.9840   47.2230 N   0  0  0  0  0  0  0  0  0  0  0  0
   55.8960   26.1580   46.5720 C   0  0  0  0  0  0  0  0  0  0  0  0
   54.7790   26.6880   45.9430 O   0  0  0  0  0  0  0  0  0  0  0  0
   58.3856   25.5862   44.4357 H   0  0  0  0  0  0  0  0  0  0  0  0
   58.3645   25.5883   42.5305 H   0  0  0  0  0  0  0  0  0  0  0  0
   56.7351   29.9493   41.9009 H   0  0  0  0  0  0  0  0  0  0  0  0
   57.9289   33.3308   44.4055 H   0  0  0  0  0  0  0  0  0  0  0  0
   56.3056   33.1930   45.1762 H   0  0  0  0  0  0  0  0  0  0  0  0
   57.8475   34.7013   46.4395 H   0  0  0  0  0  0  0  0  0  0  0  0
   57.3157   33.2483   47.3958 H   0  0  0  0  0  0  0  0  0  0  0  0
   61.9803   33.3747   46.6958 H   0  0  0  0  0  0  0  0  0  0  0  0
   64.4137   33.0269   47.1180 H   0  0  0  0  0  0  0  0  0  0  0  0
   65.8341   32.7138   50.6274 H   0  0  0  0  0  0  0  0  0  0  0  0
   65.9886   31.7877   49.0960 H   0  0  0  0  0  0  0  0  0  0  0  0
   66.2219   33.5688   49.0960 H   0  0  0  0  0  0  0  0  0  0  0  0
   63.6647   32.9416   51.3855 H   0  0  0  0  0  0  0  0  0  0  0  0
   61.2303   33.2890   50.9618 H   0  0  0  0  0  0  0  0  0  0  0  0
   60.2148   31.9502   45.4060 H   0  0  0  0  0  0  0  0  0  0  0  0
   60.3894   31.4751   47.1582 H   0  0  0  0  0  0  0  0  0  0  0  0
   58.8742   29.9580   45.8738 H   0  0  0  0  0  0  0  0  0  0  0  0
   58.0741   30.7834   47.2568 H   0  0  0  0  0  0  0  0  0  0  0  0
   58.0036   28.7590   46.5147 H   0  0  0  0  0  0  0  0  0  0  0  0
  1  2  2  0
  2  3  1  0
  3  4  1  0
  4  5  2  0
  5  6  1  0
  6  7  2  0
  6  8  1  0
  8  9  1  0
  9 10  1  0
 10 11  1  0
 11 12  1  0
 12 13  2  0
 12 14  2  0
 12 15  1  0
 15 16  2  0
 16 17  1  0
 17 18  2  0
 18 19  1  0
 18 20  1  0
 20 21  2  0
 11 22  1  0
 22 23  1  0
  5 24  1  0
 24 25  2  3
 25 26  1  0
 26 27  1  0
 27 28  1  0
 28 29  2  0
 28 30  1  0
 30 31  1  0
 31 32  1  0
 24  2  1  0
 31 26  2  0
 23  8  1  0
 21 15  1  0
  1 33  1  0
  1 34  1  0
  4 35  1  0
  9 36  1  0
  9 37  1  0
 10 38  1  0
 10 39  1  0
 16 40  1  0
 17 41  1  0
 19 42  1  0
 19 43  1  0
 19 44  1  0
 20 45  1  0
 21 46  1  0
 22 47  1  0
 22 48  1  0
 23 49  1  0
 23 50  1  0
 25 51  1  0
M  CHG  3  27  -1  30  -1  32  -1
M  END
>  <UniqueID>  (23) 
21

>  <SMILES>  (23) 
C=c1occ(C(=O)N2CCN(S(=O)(=O)c3ccc(C)cc3)CC2)c1=Cc1[n-]c(=O)[n-]c1[O-]

>  <Energy>  (23) 
132.16551666235924

>  <Genealogy>  (23) 
C=c1occ(C(=O)N2CCN(S(=O)(=O)c3ccc(C)cc3)CC2)c1=Cc1[n-]c(=O)[n-]c1[O-] (protonated)
C=c1occ(C(=O)N2CCN(S(=O)(=O)c3ccc(C)cc3)CC2)c1=Cc1[n-]c(=O)[n-]c1[O-] (3D coordinates assigned)
C=c1occ(C(=O)N2CCN(S(=O)(=O)c3ccc(C)cc3)CC2)c1=Cc1[n-]c(=O)[n-]c1[O-] (nonaromatic ring conformer: 132.16551666235924 kcal/mol)

>  <smiles>  (23) 
C=c1occ(C(=O)N2CCN(S(=O)(=O)c3ccc(C)cc3)CC2)c1=Cc1[nH]c(=O)[nH]c1O

>  <score_type>  (23) 
oracle

>  <origin>  (23) 
adg

>  <m_score__min__energy>  (23) 
-16.649999999999999

>  <m_primary>  (23) 
energy

$$$$
23:0
     RDKit          3D

 59 62  0  0  0  0  0  0  0  0999 V2000
   56.7182   29.5061   51.8901 H   0  0  0  0  0  0  0  0  0  0  0  0
   56.6870   30.4190   52.5030 C   0  0  0  0  0  0  0  0  0  0  0  0
   57.8710   31.3050   52.5130 C   0  0  0  0  0  0  0  0  0  0  0  0
   58.4790   31.4700   53.6060 O   0  0  0  0  0  0  0  0  0  0  0  0
   58.3620   32.0130   51.3070 C   0  0  0  0  0  0  0  0  0  0  0  0
   59.0840   33.2140   51.4160 C   0  0  0  0  0  0  0  0  0  0  0  0
   59.2803   33.6457   52.4085 H   0  0  0  0  0  0  0  0  0  0  0  0
   59.5540   33.8630   50.2710 C   0  0  0  0  0  0  0  0  0  0  0  0
   60.1072   34.8087   50.3695 H   0  0  0  0  0  0  0  0  0  0  0  0
   59.3280   33.3220   49.0010 C   0  0  0  0  0  0  0  0  0  0  0  0
   59.8190   34.0190   47.8850 O   0  0  0  0  0  0  0  0  0  0  0  0
   60.4630   33.4230   46.7580 C   0  0  0  0  0  0  0  0  0  0  0  0
   60.7597   34.2139   46.0534 H   0  0  0  0  0  0  0  0  0  0  0  0
   61.3460   32.8701   47.1110 H   0  0  0  0  0  0  0  0  0  0  0  0
   59.5420   32.4590   46.0570 C   0  0  0  0  0  0  0  0  0  0  0  0
   59.7510   31.0740   46.1620 C   0  0  0  0  0  0  0  0  0  0  0  0
   60.6038   30.6918   46.7422 H   0  0  0  0  0  0  0  0  0  0  0  0
   58.8810   30.1790   45.5330 C   0  0  0  0  0  0  0  0  0  0  0  0
   59.0530   29.0958   45.6174 H   0  0  0  0  0  0  0  0  0  0  0  0
   57.7900   30.6580   44.7950 C   0  0  0  0  0  0  0  0  0  0  0  0
   56.6830   29.5220   44.0290 S   0  0  0  0  0  0  0  0  0  0  0  0
   57.4620   28.5740   43.1620 O   0  0  0  0  0  0  0  0  0  0  0  0
   55.6920   30.2530   43.1660 O   0  0  0  0  0  0  0  0  0  0  0  0
   55.8430   28.6220   45.2460 N   0  0  0  0  0  0  0  0  0  0  0  0
   56.2890   27.3420   45.6990 C   0  0  0  0  0  0  0  0  0  0  0  0
   55.4550   26.4710   46.0640 O   0  0  0  0  0  0  0  0  0  0  0  0
   57.7630   27.0350   45.7090 C   0  0  1  0  0  0  0  0  0  0  0  0
   58.1679   27.8182   45.0512 H   0  0  0  0  0  0  0  0  0  0  0  0
   58.3790   27.0580   47.0980 C   0  0  0  0  0  0  0  0  0  0  0  0
   57.6287   26.7506   47.8414 H   0  0  0  0  0  0  0  0  0  0  0  0
   58.7240   28.0742   47.3396 H   0  0  0  0  0  0  0  0  0  0  0  0
   59.4660   26.1620   47.1220 O   0  0  0  0  0  0  0  0  0  0  0  0
   59.3450   25.3110   46.0010 C   0  0  0  0  0  0  0  0  0  0  0  0
   59.3053   24.2650   46.3390 H   0  0  0  0  0  0  0  0  0  0  0  0
   60.2130   25.4541   45.3406 H   0  0  0  0  0  0  0  0  0  0  0  0
   58.0750   25.6430   45.2390 C   0  0  0  0  0  0  0  0  0  0  0  0
   57.2639   24.9461   45.4968 H   0  0  0  0  0  0  0  0  0  0  0  0
   58.1877   25.5655   44.1475 H   0  0  0  0  0  0  0  0  0  0  0  0
   57.5660   32.0370   44.7050 C   0  0  0  0  0  0  0  0  0  0  0  0
   56.7048   32.4165   44.1356 H   0  0  0  0  0  0  0  0  0  0  0  0
   58.4340   32.9340   45.3370 C   0  0  0  0  0  0  0  0  0  0  0  0
   58.2476   34.0160   45.2696 H   0  0  0  0  0  0  0  0  0  0  0  0
   58.6190   32.1100   48.8890 C   0  0  0  0  0  0  0  0  0  0  0  0
   58.4335   31.6738   47.8964 H   0  0  0  0  0  0  0  0  0  0  0  0
   58.1500   31.4590   50.0340 C   0  0  0  0  0  0  0  0  0  0  0  0
   57.6106   30.5052   49.9370 H   0  0  0  0  0  0  0  0  0  0  0  0
   55.5780   30.6800   53.2080 C   0  0  0  0  0  0  0  0  0  0  0  0
   55.6861   31.1019   54.2181 H   0  0  0  0  0  0  0  0  0  0  0  0
   54.2130   30.4270   52.6910 C   0  0  0  0  0  0  0  0  0  0  0  0
   53.5760   31.4450   51.9620 C   0  0  0  0  0  0  0  0  0  0  0  0
   54.0922   32.4022   51.7967 H   0  0  0  0  0  0  0  0  0  0  0  0
   52.2920   31.2520   51.4450 C   0  0  0  0  0  0  0  0  0  0  0  0
   51.6820   32.2470   50.7550 F   0  0  0  0  0  0  0  0  0  0  0  0
   51.6370   30.0340   51.6390 C   0  0  0  0  0  0  0  0  0  0  0  0
   50.6229   29.8855   51.2396 H   0  0  0  0  0  0  0  0  0  0  0  0
   52.2690   29.0040   52.3400 C   0  0  0  0  0  0  0  0  0  0  0  0
   51.7545   28.0423   52.4825 H   0  0  0  0  0  0  0  0  0  0  0  0
   53.5550   29.1910   52.8620 C   0  0  0  0  0  0  0  0  0  0  0  0
   54.1640   28.1460   53.4780 F   0  0  0  0  0  0  0  0  0  0  0  0
  1  2  1  0
  2  3  1  0
  3  4  2  0
  3  5  1  0
  5  6  2  0
  6  7  1  0
  6  8  1  0
  8  9  1  0
  8 10  2  0
 10 11  1  0
 11 12  1  0
 12 13  1  0
 12 14  1  0
 12 15  1  0
 15 16  2  0
 16 17  1  0
 16 18  1  0
 18 19  1  0
 18 20  2  0
 20 21  1  0
 21 22  2  0
 21 23  2  0
 21 24  1  0
 24 25  1  0
 25 26  2  0
 25 27  1  0
 27 28  1  6
 27 29  1  0
 29 30  1  0
 29 31  1  0
 29 32  1  0
 32 33  1  0
 33 34  1  0
 33 35  1  0
 33 36  1  0
 36 37  1  0
 36 38  1  0
 20 39  1  0
 39 40  1  0
 39 41  2  0
 41 42  1  0
 10 43  1  0
 43 44  1  0
 43 45  2  0
 45 46  1  0
  2 47  2  0
 47 48  1  0
 47 49  1  0
 49 50  2  0
 50 51  1  0
 50 52  1  0
 52 53  1  0
 52 54  2  0
 54 55  1  0
 54 56  1  0
 56 57  1  0
 56 58  2  0
 58 59  1  0
 45  5  1  0
 58 49  1  0
 41 15  1  0
 36 27  1  0
M  CHG  1  24  -1
M  END
>  <UniqueID>  (24) 
22

>  <SMILES>  (24) 
O=C(/C=C/c1cc(F)ccc1F)c1ccc(OCc2ccc(S(=O)(=O)[N-]C(=O)[C@@H]3CCOC3)cc2)cc1

>  <Energy>  (24) 
73.69737231641336

>  <Genealogy>  (24) 
O=C(C=Cc1cc(F)ccc1F)c1ccc(OCc2ccc(S(=O)(=O)[N-]C(=O)C3CCOC3)cc2)cc1 (protonated)
O=C(C=Cc1cc(F)ccc1F)c1ccc(OCc2ccc(S(=O)(=O)[N-]C(=O)[C@@H]3CCOC3)cc2)cc1 (chirality)
O=C(/C=C/c1cc(F)ccc1F)c1ccc(OCc2ccc(S(=O)(=O)[N-]C(=O)[C@@H]3CCOC3)cc2)cc1 (cis-trans isomerization)
O=C(/C=C/c1cc(F)ccc1F)c1ccc(OCc2ccc(S(=O)(=O)[N-]C(=O)[C@@H]3CCOC3)cc2)cc1 (3D coordinates assigned)
O=C(/C=C/c1cc(F)ccc1F)c1ccc(OCc2ccc(S(=O)(=O)[N-]C(=O)[C@@H]3CCOC3)cc2)cc1 (nonaromatic ring conformer: 73.69737231641336 kcal/mol)

>  <smiles>  (24) 
O=C(C=Cc1cc(F)ccc1F)c1ccc(OCc2ccc(S(=O)(=O)NC(=O)C3CCOC3)cc2)cc1

>  <score_type>  (24) 
oracle

>  <origin>  (24) 
adg

>  <m_score__min__energy>  (24) 
-12.02

>  <m_primary>  (24) 
energy

$$$$
24:0
     RDKit          3D

 46 48  0  0  0  0  0  0  0  0999 V2000
   59.2000   29.6540   47.7670 C   0  0  0  0  0  0  0  0  0  0  0  0
   58.6510   30.2970   46.7290 C   0  0  0  0  0  0  0  0  0  0  0  0
   58.2660   29.7480   45.5030 C   0  0  0  0  0  0  0  0  0  0  0  0
   58.4060   28.4710   45.1000 C   0  0  0  0  0  0  0  0  0  0  0  0
   57.5380   27.3670   45.5670 C   0  0  0  0  0  0  0  0  0  0  0  0
   56.1390   27.4980   45.6170 C   0  0  0  0  0  0  0  0  0  0  0  0
   55.5200   28.6800   45.2270 O   0  0  0  0  0  0  0  0  0  0  0  0
   55.3790   26.4700   46.0730 N   0  0  0  0  0  0  0  0  0  0  0  0
   55.9460   25.3140   46.5020 C   0  0  0  0  0  0  0  0  0  0  0  0
   55.2200   24.3740   46.9160 O   0  0  0  0  0  0  0  0  0  0  0  0
   57.2960   25.1740   46.4930 N   0  0  0  0  0  0  0  0  0  0  0  0
   58.1010   26.1730   46.0440 C   0  0  0  0  0  0  0  0  0  0  0  0
   59.3500   26.0080   46.0530 O   0  0  0  0  0  0  0  0  0  0  0  0
   57.7290   30.7950   44.7590 C   0  0  0  0  0  0  0  0  0  0  0  0
   57.7940   31.9210   45.5570 C   0  0  0  0  0  0  0  0  0  0  0  0
   57.2600   33.2670   45.1750 C   0  0  0  0  0  0  0  0  0  0  0  0
   58.3830   31.6180   46.7340 N   0  0  0  0  0  0  0  0  0  0  0  0
   58.5680   32.4620   47.8160 O   0  0  0  0  0  0  0  0  0  0  0  0
   59.3750   33.6040   47.7510 C   0  0  0  0  0  0  0  0  0  0  0  0
   58.8500   34.7460   47.6400 O   0  0  0  0  0  0  0  0  0  0  0  0
   60.8120   33.4740   47.7770 N   0  0  0  0  0  0  0  0  0  0  0  0
   61.3730   33.8540   46.4700 C   0  0  0  0  0  0  0  0  0  0  0  0
   62.9140   33.8530   46.5240 C   0  0  0  0  0  0  0  0  0  0  0  0
   63.4780   32.7400   47.3290 N   0  0  0  0  0  0  0  0  0  0  0  0
   64.0700   33.2030   48.5970 C   0  0  0  0  0  0  0  0  0  0  0  0
   62.5290   31.6310   47.5380 C   0  0  0  0  0  0  0  0  0  0  0  0
   61.1960   32.0950   48.1690 C   0  0  0  0  0  0  0  0  0  0  0  0
   59.4586   30.2069   48.6821 H   0  0  0  0  0  0  0  0  0  0  0  0
   59.3925   28.5728   47.7048 H   0  0  0  0  0  0  0  0  0  0  0  0
   59.2085   28.2356   44.3854 H   0  0  0  0  0  0  0  0  0  0  0  0
   57.3306   30.7371   43.7353 H   0  0  0  0  0  0  0  0  0  0  0  0
   57.0317   33.8424   46.0843 H   0  0  0  0  0  0  0  0  0  0  0  0
   58.0129   33.8048   44.5801 H   0  0  0  0  0  0  0  0  0  0  0  0
   56.3432   33.1424   44.5801 H   0  0  0  0  0  0  0  0  0  0  0  0
   61.1830   34.1430   48.4930 H   0  0  0  0  0  0  0  0  0  0  0  0
   61.0368   33.1348   45.7086 H   0  0  0  0  0  0  0  0  0  0  0  0
   61.0262   34.8661   46.2142 H   0  0  0  0  0  0  0  0  0  0  0  0
   63.2983   33.7692   45.4967 H   0  0  0  0  0  0  0  0  0  0  0  0
   63.2212   34.7912   47.0092 H   0  0  0  0  0  0  0  0  0  0  0  0
   63.5145   32.7686   49.4412 H   0  0  0  0  0  0  0  0  0  0  0  0
   65.1219   32.8855   48.6480 H   0  0  0  0  0  0  0  0  0  0  0  0
   64.0153   34.3005   48.6480 H   0  0  0  0  0  0  0  0  0  0  0  0
   62.3139   31.1643   46.5654 H   0  0  0  0  0  0  0  0  0  0  0  0
   62.9970   30.9214   48.2362 H   0  0  0  0  0  0  0  0  0  0  0  0
   60.3998   31.4064   47.8499 H   0  0  0  0  0  0  0  0  0  0  0  0
   61.3325   32.0916   49.2605 H   0  0  0  0  0  0  0  0  0  0  0  0
  1  2  2  0
  2  3  1  0
  3  4  2  3
  4  5  1  0
  5  6  2  0
  6  7  1  0
  6  8  1  0
  8  9  1  0
  9 10  2  0
  9 11  1  0
 11 12  1  0
 12 13  2  0
  3 14  1  0
 14 15  2  0
 15 16  1  0
 15 17  1  0
 17 18  1  0
 18 19  1  0
 19 20  2  0
 19 21  1  0
 21 22  1  0
 22 23  1  0
 23 24  1  0
 24 25  1  0
 24 26  1  0
 26 27  1  0
 17  2  1  0
 27 21  1  0
 12  5  1  0
  1 28  1  0
  1 29  1  0
  4 30  1  0
 14 31  1  0
 16 32  1  0
 16 33  1  0
 16 34  1  0
 21 35  1  0
 22 36  1  0
 22 37  1  0
 23 38  1  0
 23 39  1  0
 25 40  1  0
 25 41  1  0
 25 42  1  0
 26 43  1  0
 26 44  1  0
 27 45  1  0
 27 46  1  0
M  CHG  4   7  -1   8  -1  11  -1  21   1
M  END
>  <UniqueID>  (25) 
23

>  <SMILES>  (25) 
C=c1c(=Cc2c([O-])[n-]c(=O)[n-]c2=O)cc(C)n1OC(=O)[NH+]1CCN(C)CC1

>  <Energy>  (25) 
103.23238955018662

>  <Genealogy>  (25) 
C=c1c(=Cc2c([O-])[n-]c(=O)[n-]c2=O)cc(C)n1OC(=O)[NH+]1CCN(C)CC1 (protonated)
C=c1c(=Cc2c([O-])[n-]c(=O)[n-]c2=O)cc(C)n1OC(=O)[NH+]1CCN(C)CC1 (3D coordinates assigned)
C=c1c(=Cc2c([O-])[n-]c(=O)[n-]c2=O)cc(C)n1OC(=O)[NH+]1CCN(C)CC1 (nonaromatic ring conformer: 103.23238955018662 kcal/mol)

>  <smiles>  (25) 
C=c1c(=Cc2c(O)[nH]c(=O)[nH]c2=O)cc(C)n1OC(=O)N1CCN(C)CC1

>  <score_type>  (25) 
oracle

>  <origin>  (25) 
adg

>  <m_score__min__energy>  (25) 
-14.65

>  <m_primary>  (25) 
energy

$$$$
25:0
     RDKit          3D

 57 60  0  0  0  0  0  0  0  0999 V2000
   61.7740   34.2201   47.0310 H   0  0  0  0  0  0  0  0  0  0  0  0
   61.8120   34.1910   48.1300 C   0  0  0  0  0  0  0  0  0  0  0  0
   62.6963   34.5744   48.6601 H   0  0  0  0  0  0  0  0  0  0  0  0
   60.7840   33.6900   48.8210 C   0  0  0  0  0  0  0  0  0  0  0  0
   60.7790   33.6320   50.1360 O   0  0  0  0  0  0  0  0  0  0  0  0
   59.6160   33.1540   50.5240 C   0  0  0  0  0  0  0  0  0  0  0  0
   59.2420   33.0100   51.8190 C   0  0  0  0  0  0  0  0  0  0  0  0
   59.7010   33.8710   52.8320 O   0  0  0  0  0  0  0  0  0  0  0  0
   58.9040   34.7860   53.5780 C   0  0  0  0  0  0  0  0  0  0  0  0
   59.0556   34.6120   54.6535 H   0  0  0  0  0  0  0  0  0  0  0  0
   59.1977   35.8162   53.3283 H   0  0  0  0  0  0  0  0  0  0  0  0
   57.8432   34.6364   53.3283 H   0  0  0  0  0  0  0  0  0  0  0  0
   58.2950   31.9570   52.2530 C   0  0  0  0  0  0  0  0  0  0  0  0
   58.7360   30.6410   52.4930 C   0  0  0  0  0  0  0  0  0  0  0  0
   59.8078   30.4020   52.4279 H   0  0  0  0  0  0  0  0  0  0  0  0
   57.8160   29.6360   52.8140 C   0  0  0  0  0  0  0  0  0  0  0  0
   58.1687   28.6152   53.0225 H   0  0  0  0  0  0  0  0  0  0  0  0
   56.4510   29.9270   52.8700 C   0  0  0  0  0  0  0  0  0  0  0  0
   55.7288   29.1358   53.1198 H   0  0  0  0  0  0  0  0  0  0  0  0
   56.0040   31.2260   52.6080 C   0  0  0  0  0  0  0  0  0  0  0  0
   54.9287   31.4544   52.6473 H   0  0  0  0  0  0  0  0  0  0  0  0
   56.9210   32.2360   52.2960 C   0  0  0  0  0  0  0  0  0  0  0  0
   56.5625   33.2540   52.0834 H   0  0  0  0  0  0  0  0  0  0  0  0
   58.8960   32.8750   49.3720 C   0  0  0  0  0  0  0  0  0  0  0  0
   57.7610   32.3310   49.3120 O   0  0  0  0  0  0  0  0  0  0  0  0
   59.6280   33.2130   48.2890 N   0  0  0  0  0  0  0  0  0  0  0  0
   59.1900   33.1970   46.9160 C   0  0  0  0  0  0  0  0  0  0  0  0
   59.4460   34.2990   46.0790 C   0  0  0  0  0  0  0  0  0  0  0  0
   60.0207   35.1545   46.4635 H   0  0  0  0  0  0  0  0  0  0  0  0
   58.9750   34.3150   44.7610 C   0  0  0  0  0  0  0  0  0  0  0  0
   59.1530   35.1950   44.1255 H   0  0  0  0  0  0  0  0  0  0  0  0
   58.2800   33.2170   44.2510 C   0  0  0  0  0  0  0  0  0  0  0  0
   57.9333   33.2218   43.2071 H   0  0  0  0  0  0  0  0  0  0  0  0
   58.0240   32.1080   45.0700 C   0  0  0  0  0  0  0  0  0  0  0  0
   57.3940   30.9080   44.5090 C   0  0  0  0  0  0  0  0  0  0  0  0
   56.1360   30.8590   44.4910 O   0  0  0  0  0  0  0  0  0  0  0  0
   58.2050   29.8410   43.9500 N   0  0  0  0  0  0  0  0  0  0  0  0
   58.4480   30.1220   42.9670 H   0  0  0  0  0  0  0  0  0  0  0  0
   57.4380   28.5820   43.8480 C   0  0  0  0  0  0  0  0  0  0  0  0
   56.4410   28.8055   43.4404 H   0  0  0  0  0  0  0  0  0  0  0  0
   57.9930   27.8983   43.1889 H   0  0  0  0  0  0  0  0  0  0  0  0
   57.2740   27.8980   45.2100 C   0  0  0  0  0  0  0  0  0  0  0  0
   56.7015   28.5556   45.8807 H   0  0  0  0  0  0  0  0  0  0  0  0
   56.7396   26.9464   45.0728 H   0  0  0  0  0  0  0  0  0  0  0  0
   58.5940   27.6280   45.8030 N   0  0  0  0  0  0  0  0  0  0  0  0
   58.4380   26.9360   47.0910 C   0  0  0  0  0  0  0  0  0  0  0  0
   58.5989   27.6496   47.9125 H   0  0  0  0  0  0  0  0  0  0  0  0
   57.4231   26.5179   47.1620 H   0  0  0  0  0  0  0  0  0  0  0  0
   59.1754   26.1228   47.1620 H   0  0  0  0  0  0  0  0  0  0  0  0
   59.3410   28.8860   45.9940 C   0  0  0  0  0  0  0  0  0  0  0  0
   58.8001   29.5198   46.7121 H   0  0  0  0  0  0  0  0  0  0  0  0
   60.3446   28.6430   46.3732 H   0  0  0  0  0  0  0  0  0  0  0  0
   59.4910   29.6480   44.6630 C   0  0  0  0  0  0  0  0  0  0  0  0
   59.9254   30.6364   44.8735 H   0  0  0  0  0  0  0  0  0  0  0  0
   60.1373   29.0418   44.0113 H   0  0  0  0  0  0  0  0  0  0  0  0
   58.4650   32.1080   46.4020 C   0  0  0  0  0  0  0  0  0  0  0  0
   58.2413   31.2478   47.0500 H   0  0  0  0  0  0  0  0  0  0  0  0
  1  2  1  0
  2  3  1  0
  2  4  2  0
  4  5  1  0
  5  6  1  0
  6  7  2  0
  7  8  1  0
  8  9  1  0
  9 10  1  0
  9 11  1  0
  9 12  1  0
  7 13  1  0
 13 14  2  0
 14 15  1  0
 14 16  1  0
 16 17  1  0
 16 18  2  0
 18 19  1  0
 18 20  1  0
 20 21  1  0
 20 22  2  0
 22 23  1  0
  6 24  1  0
 24 25  2  0
 24 26  1  0
 26 27  1  0
 27 28  2  0
 28 29  1  0
 28 30  1  0
 30 31  1  0
 30 32  2  0
 32 33  1  0
 32 34  1  0
 34 35  1  0
 35 36  2  0
 35 37  1  0
 37 38  1  0
 37 39  1  0
 39 40  1  0
 39 41  1  0
 39 42  1  0
 42 43  1  0
 42 44  1  0
 42 45  1  0
 45 46  1  0
 46 47  1  0
 46 48  1  0
 46 49  1  0
 45 50  1  0
 50 51  1  0
 50 52  1  0
 50 53  1  0
 53 54  1  0
 53 55  1  0
 34 56  2  0
 56 57  1  0
 26  4  1  0
 56 27  1  0
 22 13  1  0
 53 37  1  0
M  CHG  1  37   1
M  END
>  <UniqueID>  (26) 
24

>  <SMILES>  (26) 
C=c1o/c(=C(\OC)c2ccccc2)c(=O)n1-c1cccc(C(=O)[NH+]2CCN(C)CC2)c1

>  <Energy>  (26) 
125.42377113404453

>  <Genealogy>  (26) 
C=c1oc(=C(OC)c2ccccc2)c(=O)n1-c1cccc(C(=O)[NH+]2CCN(C)CC2)c1 (protonated)
C=c1o/c(=C(\OC)c2ccccc2)c(=O)n1-c1cccc(C(=O)[NH+]2CCN(C)CC2)c1 (cis-trans isomerization)
C=c1o/c(=C(\OC)c2ccccc2)c(=O)n1-c1cccc(C(=O)[NH+]2CCN(C)CC2)c1 (3D coordinates assigned)
C=c1o/c(=C(\OC)c2ccccc2)c(=O)n1-c1cccc(C(=O)[NH+]2CCN(C)CC2)c1 (nonaromatic ring conformer: 125.42377113404453 kcal/mol)

>  <smiles>  (26) 
C=c1oc(=C(OC)c2ccccc2)c(=O)n1-c1cccc(C(=O)N2CCN(C)CC2)c1

>  <score_type>  (26) 
oracle

>  <origin>  (26) 
adg

>  <m_score__min__energy>  (26) 
-8.4199999999999999

>  <m_primary>  (26) 
energy

$$$$
26:0
     RDKit          3D

 48 50  0  0  0  0  0  0  0  0999 V2000
   56.4760   25.7700   45.8040 C   0  0  0  0  0  0  0  0  0  0  0  0
   55.8690   27.0960   45.8620 N   0  0  0  0  0  0  0  0  0  0  0  0
   56.3400   28.1380   45.2470 C   0  0  0  0  0  0  0  0  0  0  0  0
   57.6430   28.1870   44.8500 N   0  0  0  0  0  0  0  0  0  0  0  0
   58.1400   29.2750   44.2060 C   0  0  0  0  0  0  0  0  0  0  0  0
   57.3090   30.3690   43.9370 C   0  0  0  0  0  0  0  0  0  0  0  0
   57.8370   31.6000   43.2480 C   0  0  0  0  0  0  0  0  0  0  0  0
   58.4510   32.5290   44.2210 N   0  0  0  0  0  0  0  0  0  0  0  0
   59.1840   31.7970   45.2890 C   0  0  0  0  0  0  0  0  0  0  0  0
   58.5040   31.8670   46.6660 C   0  0  0  0  0  0  0  0  0  0  0  0
   58.1880   33.2540   47.0930 N   0  0  0  0  0  0  0  0  0  0  0  0
   59.0140   33.7420   48.2150 C   0  0  0  0  0  0  0  0  0  0  0  0
   60.4380   33.3070   48.0430 C   0  0  0  0  0  0  0  0  0  0  0  0
   61.2980   32.9020   49.0440 C   0  0  0  0  0  0  0  0  0  0  0  0
   62.4780   32.5990   48.4700 N   0  0  0  0  0  0  0  0  0  0  0  0
   63.6530   32.0470   49.1320 C   0  0  0  0  0  0  0  0  0  0  0  0
   62.3150   32.7960   47.1460 C   0  0  0  0  0  0  0  0  0  0  0  0
   61.0760   33.2390   46.8580 N   0  0  0  0  0  0  0  0  0  0  0  0
   57.9790   34.2290   45.9890 C   0  0  1  0  0  0  0  0  0  0  0  0
   59.2230   35.0830   45.6470 C   0  0  0  0  0  0  0  0  0  0  0  0
   57.4590   33.5020   44.7370 C   0  0  0  0  0  0  0  0  0  0  0  0
   55.9760   30.3010   44.3580 C   0  0  0  0  0  0  0  0  0  0  0  0
   55.5210   29.1930   44.9990 N   0  0  0  0  0  0  0  0  0  0  0  0
   56.6457   25.3994   46.8257 H   0  0  0  0  0  0  0  0  0  0  0  0
   55.8033   25.0818   45.2713 H   0  0  0  0  0  0  0  0  0  0  0  0
   57.4366   25.8294   45.2713 H   0  0  0  0  0  0  0  0  0  0  0  0
   59.1952   29.2964   43.8960 H   0  0  0  0  0  0  0  0  0  0  0  0
   58.5944   31.3014   42.5083 H   0  0  0  0  0  0  0  0  0  0  0  0
   56.9981   32.1128   42.7547 H   0  0  0  0  0  0  0  0  0  0  0  0
   59.2628   30.7402   44.9941 H   0  0  0  0  0  0  0  0  0  0  0  0
   60.1674   32.2791   45.3917 H   0  0  0  0  0  0  0  0  0  0  0  0
   57.5669   31.2925   46.6227 H   0  0  0  0  0  0  0  0  0  0  0  0
   59.2098   31.4518   47.4005 H   0  0  0  0  0  0  0  0  0  0  0  0
   58.9717   34.8408   48.2452 H   0  0  0  0  0  0  0  0  0  0  0  0
   58.6237   33.3229   49.1542 H   0  0  0  0  0  0  0  0  0  0  0  0
   61.0621   32.8383   50.1165 H   0  0  0  0  0  0  0  0  0  0  0  0
   63.5222   32.1084   50.2225 H   0  0  0  0  0  0  0  0  0  0  0  0
   63.7800   30.9950   48.8366 H   0  0  0  0  0  0  0  0  0  0  0  0
   64.5438   32.6209   48.8366 H   0  0  0  0  0  0  0  0  0  0  0  0
   63.0974   32.6170   46.3938 H   0  0  0  0  0  0  0  0  0  0  0  0
   60.6910   33.4670   45.9150 H   0  0  0  0  0  0  0  0  0  0  0  0
   57.2262   34.9440   46.3524 H   0  0  0  0  0  0  0  0  0  0  0  0
   59.7068   35.4151   46.5774 H   0  0  0  0  0  0  0  0  0  0  0  0
   59.9316   34.4801   45.0602 H   0  0  0  0  0  0  0  0  0  0  0  0
   58.9150   35.9610   45.0602 H   0  0  0  0  0  0  0  0  0  0  0  0
   56.5333   32.9662   44.9937 H   0  0  0  0  0  0  0  0  0  0  0  0
   57.2736   34.2527   43.9547 H   0  0  0  0  0  0  0  0  0  0  0  0
   55.2964   31.1452   44.1698 H   0  0  0  0  0  0  0  0  0  0  0  0
  1  2  1  0
  2  3  2  3
  3  4  1  0
  4  5  2  0
  5  6  1  0
  6  7  1  0
  7  8  1  0
  8  9  1  0
  9 10  1  0
 10 11  1  0
 11 12  1  0
 12 13  1  0
 13 14  2  0
 14 15  1  0
 15 16  1  0
 15 17  1  0
 17 18  2  0
 11 19  1  0
 19 20  1  0
 19 21  1  0
  6 22  2  0
 22 23  1  0
 23  3  1  0
 21  8  1  0
 18 13  1  0
  1 24  1  0
  1 25  1  0
  1 26  1  0
  5 27  1  0
  7 28  1  0
  7 29  1  0
  9 30  1  0
  9 31  1  0
 10 32  1  0
 10 33  1  0
 12 34  1  0
 12 35  1  0
 14 36  1  0
 16 37  1  0
 16 38  1  0
 16 39  1  0
 17 40  1  0
 18 41  1  0
 19 42  1  1
 20 43  1  0
 20 44  1  0
 20 45  1  0
 21 46  1  0
 21 47  1  0
 22 48  1  0
M  CHG  2  18   1  23  -1
M  END
>  <UniqueID>  (27) 
25

>  <SMILES>  (27) 
CN=c1ncc(CN2CCN(Cc3cn(C)c[nH+]3)[C@@H](C)C2)c[n-]1

>  <Energy>  (27) 
95.17989345027104

>  <Genealogy>  (27) 
CN=c1ncc(CN2CCN(Cc3cn(C)c[nH+]3)C(C)C2)c[n-]1 (protonated)
CN=c1ncc(CN2CCN(Cc3cn(C)c[nH+]3)[C@@H](C)C2)c[n-]1 (chirality)
CN=c1ncc(CN2CCN(Cc3cn(C)c[nH+]3)[C@@H](C)C2)c[n-]1 (3D coordinates assigned)
CN=c1ncc(CN2CCN(Cc3cn(C)c[nH+]3)[C@@H](C)C2)c[n-]1 (nonaromatic ring conformer: 95.17989345027104 kcal/mol)

>  <smiles>  (27) 
CN=c1ncc(CN2CCN(Cc3cn(C)cn3)C(C)C2)c[nH]1

>  <score_type>  (27) 
oracle

>  <origin>  (27) 
adg

>  <m_score__min__energy>  (27) 
-7.7800000000000002

>  <m_primary>  (27) 
energy

$$$$
27:0
     RDKit          3D

 41 42  0  0  0  0  0  0  0  0999 V2000
   57.2770   34.5970   44.8740 C   0  0  0  0  0  0  0  0  0  0  0  0
   57.0110   33.7250   46.0960 C   0  0  0  0  0  0  0  0  0  0  0  0
   58.1050   32.7470   46.2850 N   0  0  0  0  0  0  0  0  0  0  0  0
   59.2230   33.0520   47.0320 C   0  0  0  0  0  0  0  0  0  0  0  0
   59.4250   34.5100   47.7630 S   0  0  0  0  0  0  0  0  0  0  0  0
   60.2100   32.1340   47.1860 N   0  0  0  0  0  0  0  0  0  0  0  0
   60.1320   30.8980   46.6430 C   0  0  0  0  0  0  0  0  0  0  0  0
   61.2010   30.0180   46.7910 O   0  0  0  0  0  0  0  0  0  0  0  0
   58.9920   30.5280   45.9210 C   0  0  0  0  0  0  0  0  0  0  0  0
   58.8560   29.1700   45.3420 C   0  0  0  0  0  0  0  0  0  0  0  0
   59.8350   28.6570   44.7360 O   0  0  0  0  0  0  0  0  0  0  0  0
   57.5470   28.4310   45.3700 C   0  0  0  0  0  0  0  0  0  0  0  0
   57.6680   27.1590   46.1670 C   0  0  0  0  0  0  0  0  0  0  0  0
   58.3260   27.1720   47.2430 O   0  0  0  0  0  0  0  0  0  0  0  0
   57.0600   25.8850   45.7120 C   0  0  0  0  0  0  0  0  0  0  0  0
   57.9030   24.8410   45.2970 C   0  0  0  0  0  0  0  0  0  0  0  0
   57.3700   23.6270   44.8590 C   0  0  0  0  0  0  0  0  0  0  0  0
   55.9870   23.4340   44.8080 C   0  0  0  0  0  0  0  0  0  0  0  0
   55.5030   22.1920   44.3680 O   0  0  0  0  0  0  0  0  0  0  0  0
   56.2890   21.0700   44.0740 C   0  0  0  0  0  0  0  0  0  0  0  0
   56.9440   20.3270   45.1880 C   0  0  0  0  0  0  0  0  0  0  0  0
   56.5290   20.7370   42.8810 O   0  0  0  0  0  0  0  0  0  0  0  0
   55.1350   24.4700   45.2290 C   0  0  0  0  0  0  0  0  0  0  0  0
   55.6620   25.6930   45.6600 C   0  0  0  0  0  0  0  0  0  0  0  0
   54.7830   26.7160   46.0070 O   0  0  0  0  0  0  0  0  0  0  0  0
   57.9780   31.4870   45.7490 C   0  0  0  0  0  0  0  0  0  0  0  0
   56.9350   31.1700   45.1080 O   0  0  0  0  0  0  0  0  0  0  0  0
   57.5835   35.6018   45.2003 H   0  0  0  0  0  0  0  0  0  0  0  0
   58.0788   34.1471   44.2700 H   0  0  0  0  0  0  0  0  0  0  0  0
   56.3606   34.6712   44.2700 H   0  0  0  0  0  0  0  0  0  0  0  0
   56.9396   34.3646   46.9881 H   0  0  0  0  0  0  0  0  0  0  0  0
   56.0686   33.1784   45.9437 H   0  0  0  0  0  0  0  0  0  0  0  0
   61.3610   29.2750   46.1230 H   0  0  0  0  0  0  0  0  0  0  0  0
   56.7804   29.0726   45.8290 H   0  0  0  0  0  0  0  0  0  0  0  0
   57.2644   28.1751   44.3382 H   0  0  0  0  0  0  0  0  0  0  0  0
   58.9939   24.9811   45.3172 H   0  0  0  0  0  0  0  0  0  0  0  0
   58.0452   22.8150   44.5512 H   0  0  0  0  0  0  0  0  0  0  0  0
   56.5926   20.7256   46.1511 H   0  0  0  0  0  0  0  0  0  0  0  0
   56.6876   19.2596   45.1175 H   0  0  0  0  0  0  0  0  0  0  0  0
   58.0351   20.4475   45.1175 H   0  0  0  0  0  0  0  0  0  0  0  0
   54.0456   24.3183   45.2196 H   0  0  0  0  0  0  0  0  0  0  0  0
  1  2  1  0
  2  3  1  0
  3  4  1  0
  4  5  2  0
  4  6  1  0
  6  7  1  0
  7  8  1  0
  7  9  2  0
  9 10  1  0
 10 11  2  0
 10 12  1  0
 12 13  1  0
 13 14  2  0
 13 15  1  0
 15 16  2  0
 16 17  1  0
 17 18  2  0
 18 19  1  0
 19 20  1  0
 20 21  1  0
 20 22  2  0
 18 23  1  0
 23 24  2  0
 24 25  1  0
  9 26  1  0
 26 27  2  0
 26  3  1  0
 24 15  1  0
  1 28  1  0
  1 29  1  0
  1 30  1  0
  2 31  1  0
  2 32  1  0
  8 33  1  0
 12 34  1  0
 12 35  1  0
 16 36  1  0
 17 37  1  0
 21 38  1  0
 21 39  1  0
 21 40  1  0
 23 41  1  0
M  CHG  2   6  -1  25  -1
M  END
>  <UniqueID>  (28) 
26

>  <SMILES>  (28) 
CCn1c(=S)[n-]c(O)c(C(=O)CC(=O)c2ccc(OC(C)=O)cc2[O-])c1=O

>  <Energy>  (28) 
58.18251571644405

>  <Genealogy>  (28) 
CCn1c(=S)[n-]c(O)c(C(=O)CC(=O)c2ccc(OC(C)=O)cc2[O-])c1=O (protonated)
CCn1c(=S)[n-]c(O)c(C(=O)CC(=O)c2ccc(OC(C)=O)cc2[O-])c1=O (3D coordinates assigned)
CCn1c(=S)[n-]c(O)c(C(=O)CC(=O)c2ccc(OC(C)=O)cc2[O-])c1=O (optimized conformer: 58.18251571644405 kcal/mol)

>  <smiles>  (28) 
CCn1c(=S)[nH]c(O)c(C(=O)CC(=O)c2ccc(OC(C)=O)cc2O)c1=O

>  <score_type>  (28) 
oracle

>  <origin>  (28) 
adg

>  <m_score__min__energy>  (28) 
-13.01

>  <m_primary>  (28) 
energy

$$$$
28:0
     RDKit          3D

 64 67  0  0  0  0  0  0  0  0999 V2000
   58.4660   33.5910   44.1250 C   0  0  0  0  0  0  0  0  0  0  0  0
   58.6660   33.1220   45.5020 N   0  0  0  0  0  0  0  0  0  0  0  0
   59.0500   34.0950   46.4950 C   0  0  0  0  0  0  0  0  0  0  0  0
   58.2780   34.3280   47.4650 O   0  0  0  0  0  0  0  0  0  0  0  0
   60.3690   34.8180   46.4140 C   0  0  0  0  0  0  0  0  0  0  0  0
   61.4780   34.0190   47.0460 C   0  0  0  0  0  0  0  0  0  0  0  0
   62.6910   33.8310   46.3620 C   0  0  0  0  0  0  0  0  0  0  0  0
   63.7270   33.1030   46.9530 C   0  0  0  0  0  0  0  0  0  0  0  0
   63.5650   32.5640   48.2330 C   0  0  0  0  0  0  0  0  0  0  0  0
   62.3670   32.7580   48.9250 C   0  0  0  0  0  0  0  0  0  0  0  0
   61.3260   33.4870   48.3380 C   0  0  0  0  0  0  0  0  0  0  0  0
   58.4650   31.7030   45.8610 C   0  0  0  0  0  0  0  0  0  0  0  0
   57.8380   30.9070   44.6810 C   0  0  0  0  0  0  0  0  0  0  0  0
   58.4120   29.4900   44.5410 C   0  0  0  0  0  0  0  0  0  0  0  0
   58.6650   28.9100   45.8670 N   0  0  0  0  0  0  0  0  0  0  0  0
   58.0030   27.7000   46.2820 C   0  0  0  0  0  0  0  0  0  0  0  0
   58.6950   26.7330   47.0280 C   0  0  0  0  0  0  0  0  0  0  0  0
   58.0550   25.5580   47.4230 C   0  0  0  0  0  0  0  0  0  0  0  0
   56.7250   25.3280   47.0640 C   0  0  0  0  0  0  0  0  0  0  0  0
   56.0240   26.2660   46.2960 C   0  0  0  0  0  0  0  0  0  0  0  0
   54.6540   25.9880   45.9670 N   0  0  0  0  0  0  0  0  0  0  0  0
   54.1300   24.8410   45.2860 C   0  0  0  0  0  0  0  0  0  0  0  0
   52.9230   24.5010   45.4220 O   0  0  0  0  0  0  0  0  0  0  0  0
   55.0410   24.0360   44.4060 C   0  0  0  0  0  0  0  0  0  0  0  0
   55.8540   23.0520   45.2060 C   0  0  0  0  0  0  0  0  0  0  0  0
   57.2010   22.8120   44.8830 C   0  0  0  0  0  0  0  0  0  0  0  0
   57.9670   21.9220   45.6500 C   0  0  0  0  0  0  0  0  0  0  0  0
   59.3000   21.6800   45.3260 O   0  0  0  0  0  0  0  0  0  0  0  0
   57.3900   21.2740   46.7500 C   0  0  0  0  0  0  0  0  0  0  0  0
   58.1520   20.3930   47.5110 O   0  0  0  0  0  0  0  0  0  0  0  0
   56.0490   21.5150   47.0830 C   0  0  0  0  0  0  0  0  0  0  0  0
   55.3140   20.7180   48.4670 Cl  0  0  0  0  0  0  0  0  0  0  0  0
   55.2850   22.4020   46.3140 C   0  0  0  0  0  0  0  0  0  0  0  0
   56.6640   27.4640   45.9230 C   0  0  0  0  0  0  0  0  0  0  0  0
   59.5410   29.6210   46.8110 C   0  0  0  0  0  0  0  0  0  0  0  0
   59.7770   31.0750   46.3750 C   0  0  0  0  0  0  0  0  0  0  0  0
   58.0346   34.6027   44.1413 H   0  0  0  0  0  0  0  0  0  0  0  0
   59.4330   33.6131   43.6011 H   0  0  0  0  0  0  0  0  0  0  0  0
   57.7806   32.9085   43.6011 H   0  0  0  0  0  0  0  0  0  0  0  0
   60.6146   34.9955   45.3566 H   0  0  0  0  0  0  0  0  0  0  0  0
   60.2749   35.7683   46.9600 H   0  0  0  0  0  0  0  0  0  0  0  0
   62.8255   34.2586   45.3575 H   0  0  0  0  0  0  0  0  0  0  0  0
   64.6720   32.9536   46.4101 H   0  0  0  0  0  0  0  0  0  0  0  0
   64.3802   31.9876   48.6947 H   0  0  0  0  0  0  0  0  0  0  0  0
   62.2414   32.3370   49.9334 H   0  0  0  0  0  0  0  0  0  0  0  0
   60.3870   33.6438   48.8891 H   0  0  0  0  0  0  0  0  0  0  0  0
   57.7425   31.6515   46.6889 H   0  0  0  0  0  0  0  0  0  0  0  0
   56.7532   30.8310   44.8467 H   0  0  0  0  0  0  0  0  0  0  0  0
   58.0748   31.4509   43.7547 H   0  0  0  0  0  0  0  0  0  0  0  0
   57.6920   28.8585   43.9999 H   0  0  0  0  0  0  0  0  0  0  0  0
   59.3600   29.5408   43.9854 H   0  0  0  0  0  0  0  0  0  0  0  0
   59.7467   26.9025   47.3024 H   0  0  0  0  0  0  0  0  0  0  0  0
   58.5994   24.8106   48.0189 H   0  0  0  0  0  0  0  0  0  0  0  0
   56.2245   24.4032   47.3869 H   0  0  0  0  0  0  0  0  0  0  0  0
   54.4342   23.4852   43.6722 H   0  0  0  0  0  0  0  0  0  0  0  0
   55.7333   24.7267   43.9023 H   0  0  0  0  0  0  0  0  0  0  0  0
   57.6569   23.3253   44.0236 H   0  0  0  0  0  0  0  0  0  0  0  0
   59.6770   20.7390   45.3000 H   0  0  0  0  0  0  0  0  0  0  0  0
   54.2342   22.5907   46.5789 H   0  0  0  0  0  0  0  0  0  0  0  0
   56.1121   28.2209   45.3464 H   0  0  0  0  0  0  0  0  0  0  0  0
   59.0715   29.6180   47.8058 H   0  0  0  0  0  0  0  0  0  0  0  0
   60.5127   29.1060   46.8347 H   0  0  0  0  0  0  0  0  0  0  0  0
   60.1444   31.6557   47.2340 H   0  0  0  0  0  0  0  0  0  0  0  0
   60.5200   31.0878   45.5639 H   0  0  0  0  0  0  0  0  0  0  0  0
  1  2  1  0
  2  3  1  0
  3  4  2  0
  3  5  1  0
  5  6  1  0
  6  7  2  0
  7  8  1  0
  8  9  2  0
  9 10  1  0
 10 11  2  0
  2 12  1  0
 12 13  1  0
 13 14  1  0
 14 15  1  0
 15 16  1  0
 16 17  2  0
 17 18  1  0
 18 19  2  0
 19 20  1  0
 20 21  1  0
 21 22  1  0
 22 23  2  0
 22 24  1  0
 24 25  1  0
 25 26  2  0
 26 27  1  0
 27 28  1  0
 27 29  2  0
 29 30  1  0
 29 31  1  0
 31 32  1  0
 31 33  2  0
 20 34  2  0
 15 35  1  0
 35 36  1  0
 11  6  1  0
 36 12  1  0
 34 16  1  0
 33 25  1  0
  1 37  1  0
  1 38  1  0
  1 39  1  0
  5 40  1  0
  5 41  1  0
  7 42  1  0
  8 43  1  0
  9 44  1  0
 10 45  1  0
 11 46  1  0
 12 47  1  0
 13 48  1  0
 13 49  1  0
 14 50  1  0
 14 51  1  0
 17 52  1  0
 18 53  1  0
 19 54  1  0
 24 55  1  0
 24 56  1  0
 26 57  1  0
 28 58  1  0
 33 59  1  0
 34 60  1  0
 35 61  1  0
 35 62  1  0
 36 63  1  0
 36 64  1  0
M  CHG  2  21  -1  30  -1
M  END
>  <UniqueID>  (29) 
27

>  <SMILES>  (29) 
CN(C(=O)Cc1ccccc1)C1CCN(c2cccc([N-]C(=O)Cc3cc(O)c([O-])c(Cl)c3)c2)CC1

>  <Energy>  (29) 
77.5303329200479

>  <Genealogy>  (29) 
CN(C(=O)Cc1ccccc1)C1CCN(c2cccc([N-]C(=O)Cc3cc(O)c([O-])c(Cl)c3)c2)CC1 (protonated)
CN(C(=O)Cc1ccccc1)C1CCN(c2cccc([N-]C(=O)Cc3cc(O)c([O-])c(Cl)c3)c2)CC1 (3D coordinates assigned)
CN(C(=O)Cc1ccccc1)C1CCN(c2cccc([N-]C(=O)Cc3cc(O)c([O-])c(Cl)c3)c2)CC1 (nonaromatic ring conformer: 77.5303329200479 kcal/mol)

>  <smiles>  (29) 
CN(C(=O)Cc1ccccc1)C1CCN(c2cccc(NC(=O)Cc3cc(O)c(O)c(Cl)c3)c2)CC1

>  <score_type>  (29) 
oracle

>  <origin>  (29) 
adg

>  <m_score__min__energy>  (29) 
-15.81

>  <m_primary>  (29) 
energy

$$$$
29:0
     RDKit          3D

 52 55  0  0  0  0  0  0  0  0999 V2000
   56.9990   24.5030   43.4690 C   0  0  0  0  0  0  0  0  0  0  0  0
   56.4860   23.6290   44.5940 C   0  0  0  0  0  0  0  0  0  0  0  0
   56.3090   24.1570   45.9010 C   0  0  0  0  0  0  0  0  0  0  0  0
   56.4940   25.5920   46.2030 C   0  0  0  0  0  0  0  0  0  0  0  0
   55.4980   26.3610   46.1050 O   0  0  0  0  0  0  0  0  0  0  0  0
   57.7820   26.1280   46.5870 N   0  0  0  0  0  0  0  0  0  0  0  0
   59.0180   25.3420   46.3970 C   0  0  0  0  0  0  0  0  0  0  0  0
   60.2400   26.2190   46.0200 C   0  0  0  0  0  0  0  0  0  0  0  0
   60.0200   27.6820   46.1750 N   0  0  0  0  0  0  0  0  0  0  0  0
   59.4050   28.3390   45.0240 C   0  0  0  0  0  0  0  0  0  0  0  0
   59.2680   27.6990   43.9440 O   0  0  0  0  0  0  0  0  0  0  0  0
   58.8190   29.6940   45.0830 C   0  0  0  0  0  0  0  0  0  0  0  0
   59.5090   30.6940   45.6530 C   0  0  0  0  0  0  0  0  0  0  0  0
   58.9350   32.0490   45.7400 C   0  0  0  0  0  0  0  0  0  0  0  0
   59.6830   33.1300   46.2290 C   0  0  0  0  0  0  0  0  0  0  0  0
   59.0970   34.3970   46.3130 C   0  0  0  0  0  0  0  0  0  0  0  0
   57.7640   34.5850   45.9200 C   0  0  0  0  0  0  0  0  0  0  0  0
   57.0120   33.5040   45.4550 C   0  0  0  0  0  0  0  0  0  0  0  0
   57.6000   32.2390   45.3540 C   0  0  0  0  0  0  0  0  0  0  0  0
   56.8610   31.1480   44.8900 O   0  0  0  0  0  0  0  0  0  0  0  0
   57.4900   29.9550   44.4090 C   0  0  0  0  0  0  0  0  0  0  0  0
   59.2600   27.9430   47.4180 C   0  0  0  0  0  0  0  0  0  0  0  0
   57.8240   27.4060   47.3130 C   0  0  0  0  0  0  0  0  0  0  0  0
   55.9430   23.3060   46.9540 C   0  0  0  0  0  0  0  0  0  0  0  0
   55.7140   21.9510   46.7240 C   0  0  0  0  0  0  0  0  0  0  0  0
   55.8430   21.4270   45.4390 C   0  0  0  0  0  0  0  0  0  0  0  0
   56.2120   22.2510   44.3610 C   0  0  0  0  0  0  0  0  0  0  0  0
   56.3010   21.6670   43.0470 N   0  0  0  0  0  0  0  0  0  0  0  0
   57.1790   20.8130   42.7920 O   0  0  0  0  0  0  0  0  0  0  0  0
   55.5650   22.1980   42.0070 O   0  0  0  0  0  0  0  0  0  0  0  0
   57.5133   25.3792   43.8907 H   0  0  0  0  0  0  0  0  0  0  0  0
   57.7028   23.9277   42.8495 H   0  0  0  0  0  0  0  0  0  0  0  0
   56.1536   24.8370   42.8495 H   0  0  0  0  0  0  0  0  0  0  0  0
   59.2432   24.8105   47.3334 H   0  0  0  0  0  0  0  0  0  0  0  0
   58.8415   24.6465   45.5632 H   0  0  0  0  0  0  0  0  0  0  0  0
   61.0833   25.9282   46.6636 H   0  0  0  0  0  0  0  0  0  0  0  0
   60.4340   26.0430   44.9516 H   0  0  0  0  0  0  0  0  0  0  0  0
   60.9630   28.1260   46.2920 H   0  0  0  0  0  0  0  0  0  0  0  0
   60.5128   30.5007   46.0593 H   0  0  0  0  0  0  0  0  0  0  0  0
   60.7261   32.9819   46.5451 H   0  0  0  0  0  0  0  0  0  0  0  0
   59.6834   35.2486   46.6884 H   0  0  0  0  0  0  0  0  0  0  0  0
   57.3101   35.5853   45.9781 H   0  0  0  0  0  0  0  0  0  0  0  0
   55.9596   33.6471   45.1688 H   0  0  0  0  0  0  0  0  0  0  0  0
   56.8228   29.1016   44.6004 H   0  0  0  0  0  0  0  0  0  0  0  0
   57.6784   30.0846   43.3330 H   0  0  0  0  0  0  0  0  0  0  0  0
   59.7675   27.4488   48.2596 H   0  0  0  0  0  0  0  0  0  0  0  0
   59.2150   29.0304   47.5775 H   0  0  0  0  0  0  0  0  0  0  0  0
   57.4229   27.2556   48.3262 H   0  0  0  0  0  0  0  0  0  0  0  0
   57.2193   28.1393   46.7593 H   0  0  0  0  0  0  0  0  0  0  0  0
   55.8358   23.7120   47.9707 H   0  0  0  0  0  0  0  0  0  0  0  0
   55.4307   21.2931   47.5588 H   0  0  0  0  0  0  0  0  0  0  0  0
   55.6541   20.3572   45.2662 H   0  0  0  0  0  0  0  0  0  0  0  0
  1  2  1  0
  2  3  2  0
  3  4  1  0
  4  5  2  0
  4  6  1  0
  6  7  1  0
  7  8  1  0
  8  9  1  0
  9 10  1  0
 10 11  2  0
 10 12  1  0
 12 13  2  0
 13 14  1  0
 14 15  2  0
 15 16  1  0
 16 17  2  0
 17 18  1  0
 18 19  2  0
 19 20  1  0
 20 21  1  0
  9 22  1  0
 22 23  1  0
  3 24  1  0
 24 25  2  0
 25 26  1  0
 26 27  2  0
 27 28  1  0
 28 29  2  0
 28 30  1  0
 27  2  1  0
 23  6  1  0
 21 12  1  0
 19 14  1  0
  1 31  1  0
  1 32  1  0
  1 33  1  0
  7 34  1  0
  7 35  1  0
  8 36  1  0
  8 37  1  0
  9 38  1  0
 13 39  1  0
 15 40  1  0
 16 41  1  0
 17 42  1  0
 18 43  1  0
 21 44  1  0
 21 45  1  0
 22 46  1  0
 22 47  1  0
 23 48  1  0
 23 49  1  0
 24 50  1  0
 25 51  1  0
 26 52  1  0
M  CHG  3   9   1  28   1  30  -1
M  END
>  <UniqueID>  (30) 
28

>  <SMILES>  (30) 
Cc1c(C(=O)N2CC[NH+](C(=O)C3=Cc4ccccc4OC3)CC2)cccc1[N+](=O)[O-]

>  <Energy>  (30) 
90.16999666509777

>  <Genealogy>  (30) 
Cc1c(C(=O)N2CC[NH+](C(=O)C3=Cc4ccccc4OC3)CC2)cccc1[N+](=O)[O-] (protonated)
Cc1c(C(=O)N2CC[NH+](C(=O)C3=Cc4ccccc4OC3)CC2)cccc1[N+](=O)[O-] (3D coordinates assigned)
Cc1c(C(=O)N2CC[NH+](C(=O)C3=Cc4ccccc4OC3)CC2)cccc1[N+](=O)[O-] (nonaromatic ring conformer: 90.16999666509777 kcal/mol)

>  <smiles>  (30) 
Cc1c(C(=O)N2CCN(C(=O)C3=Cc4ccccc4OC3)CC2)cccc1[N+](=O)[O-]

>  <score_type>  (30) 
oracle

>  <origin>  (30) 
adg

>  <m_score__min__energy>  (30) 
-8.1500000000000004

>  <m_primary>  (30) 
energy

$$$$
30:0
     RDKit          3D

 56 59  0  0  0  0  0  0  0  0999 V2000
   51.3090   29.4710   53.7600 C   0  0  0  0  0  0  0  0  0  0  0  0
   52.6460   29.4320   53.8110 C   0  0  0  0  0  0  0  0  0  0  0  0
   53.3040   28.6150   54.6530 N   0  0  0  0  0  0  0  0  0  0  0  0
   54.6170   28.8220   54.4680 C   0  0  0  0  0  0  0  0  0  0  0  0
   55.6670   28.1410   55.2990 C   0  0  0  0  0  0  0  0  0  0  0  0
   54.8250   29.7490   53.4530 C   0  0  0  0  0  0  0  0  0  0  0  0
   56.1590   30.1280   52.9360 C   0  0  0  0  0  0  0  0  0  0  0  0
   56.6330   29.4160   52.0080 O   0  0  0  0  0  0  0  0  0  0  0  0
   56.8610   31.3500   53.3130 N   0  0  2  0  0  0  0  0  0  0  0  0
   56.7570   32.4700   52.3640 C   0  0  0  0  0  0  0  0  0  0  0  0
   57.6970   32.3960   51.1500 C   0  0  0  0  0  0  0  0  0  0  0  0
   58.9460   31.4950   51.2880 C   0  0  1  0  0  0  0  0  0  0  0  0
   60.1620   32.1150   50.6170 C   0  0  0  0  0  0  0  0  0  0  0  0
   60.7960   32.9940   51.2620 O   0  0  0  0  0  0  0  0  0  0  0  0
   60.6230   31.7390   49.2940 N   0  0  0  0  0  0  0  0  0  0  0  0
   61.7510   32.4680   48.6930 C   0  0  0  0  0  0  0  0  0  0  0  0
   62.5240   31.5560   47.7340 C   0  0  0  0  0  0  0  0  0  0  0  0
   61.6560   30.9400   46.8020 O   0  0  0  0  0  0  0  0  0  0  0  0
   60.7580   30.0880   47.4830 C   0  0  0  0  0  0  0  0  0  0  0  0
   59.8280   30.9020   48.3850 C   0  0  0  0  0  0  0  0  0  0  0  0
   59.2890   30.9400   52.6910 C   0  0  0  0  0  0  0  0  0  0  0  0
   58.2410   31.1540   53.7940 C   0  0  0  0  0  0  0  0  0  0  0  0
   53.5510   30.2120   53.0790 C   0  0  0  0  0  0  0  0  0  0  0  0
   53.2110   31.2100   52.2320 C   0  0  0  0  0  0  0  0  0  0  0  0
   52.2450   31.1200   51.1270 C   0  0  0  0  0  0  0  0  0  0  0  0
   52.3200   30.0440   49.8290 S   0  0  0  0  0  0  0  0  0  0  0  0
   51.0980   30.8300   48.9890 C   0  0  0  0  0  0  0  0  0  0  0  0
   50.6500   30.4580   47.8740 O   0  0  0  0  0  0  0  0  0  0  0  0
   50.6500   31.9280   49.6340 N   0  0  0  0  0  0  0  0  0  0  0  0
   51.3080   32.1040   50.8120 C   0  0  0  0  0  0  0  0  0  0  0  0
   51.0570   33.2000   51.6300 O   0  0  0  0  0  0  0  0  0  0  0  0
   50.8050   30.1521   53.0585 H   0  0  0  0  0  0  0  0  0  0  0  0
   50.7143   28.8220   54.4196 H   0  0  0  0  0  0  0  0  0  0  0  0
   52.8790   27.9530   55.3420 H   0  0  0  0  0  0  0  0  0  0  0  0
   55.4420   28.2870   56.3658 H   0  0  0  0  0  0  0  0  0  0  0  0
   55.6752   27.0652   55.0698 H   0  0  0  0  0  0  0  0  0  0  0  0
   56.6527   28.5722   55.0698 H   0  0  0  0  0  0  0  0  0  0  0  0
   56.3490   31.6960   54.1610 H   0  0  0  0  0  0  0  0  0  0  0  0
   55.7228   32.5034   51.9907 H   0  0  0  0  0  0  0  0  0  0  0  0
   57.0549   33.3692   52.9231 H   0  0  0  0  0  0  0  0  0  0  0  0
   57.1104   32.0231   50.2974 H   0  0  0  0  0  0  0  0  0  0  0  0
   58.0905   33.4160   51.0286 H   0  0  0  0  0  0  0  0  0  0  0  0
   58.6394   30.5875   50.7473 H   0  0  0  0  0  0  0  0  0  0  0  0
   61.3671   33.3363   48.1375 H   0  0  0  0  0  0  0  0  0  0  0  0
   62.4282   32.8015   49.4931 H   0  0  0  0  0  0  0  0  0  0  0  0
   63.2676   32.1562   47.1893 H   0  0  0  0  0  0  0  0  0  0  0  0
   63.0171   30.7690   48.3235 H   0  0  0  0  0  0  0  0  0  0  0  0
   60.1559   29.5343   46.7476 H   0  0  0  0  0  0  0  0  0  0  0  0
   61.3342   29.3875   48.1052 H   0  0  0  0  0  0  0  0  0  0  0  0
   59.1871   31.5447   47.7636 H   0  0  0  0  0  0  0  0  0  0  0  0
   59.2034   30.2160   48.9760 H   0  0  0  0  0  0  0  0  0  0  0  0
   59.4502   29.8565   52.5904 H   0  0  0  0  0  0  0  0  0  0  0  0
   60.1723   31.5081   53.0181 H   0  0  0  0  0  0  0  0  0  0  0  0
   58.2514   30.2714   54.4504 H   0  0  0  0  0  0  0  0  0  0  0  0
   58.5222   32.0846   54.3087 H   0  0  0  0  0  0  0  0  0  0  0  0
   53.7040   32.1815   52.3842 H   0  0  0  0  0  0  0  0  0  0  0  0
  1  2  2  0
  2  3  1  0
  3  4  1  0
  4  5  1  0
  4  6  2  0
  6  7  1  0
  7  8  2  0
  7  9  1  0
  9 10  1  0
 10 11  1  0
 11 12  1  0
 12 13  1  0
 13 14  2  0
 13 15  1  0
 15 16  1  0
 16 17  1  0
 17 18  1  0
 18 19  1  0
 19 20  1  0
 12 21  1  0
 21 22  1  0
  6 23  1  0
 23 24  2  3
 24 25  1  0
 25 26  1  0
 26 27  1  0
 27 28  2  0
 27 29  1  0
 29 30  1  0
 30 31  1  0
 23  2  1  0
 30 25  2  0
 22  9  1  0
 20 15  1  0
  1 32  1  0
  1 33  1  0
  3 34  1  0
  5 35  1  0
  5 36  1  0
  5 37  1  0
  9 38  1  1
 10 39  1  0
 10 40  1  0
 11 41  1  0
 11 42  1  0
 12 43  1  6
 16 44  1  0
 16 45  1  0
 17 46  1  0
 17 47  1  0
 19 48  1  0
 19 49  1  0
 20 50  1  0
 20 51  1  0
 21 52  1  0
 21 53  1  0
 22 54  1  0
 22 55  1  0
 24 56  1  0
M  CHG  3   9   1  29  -1  31  -1
M  END
>  <UniqueID>  (31) 
29

>  <SMILES>  (31) 
C=c1[nH]c(C)c(C(=O)[NH+]2CCC(C(=O)N3CCOCC3)CC2)c1=Cc1sc(=O)[n-]c1[O-]

>  <Energy>  (31) 
159.51906550627962

>  <Genealogy>  (31) 
C=c1[nH]c(C)c(C(=O)[NH+]2CCC(C(=O)N3CCOCC3)CC2)c1=Cc1sc(=O)[n-]c1[O-] (protonated)
C=c1[nH]c(C)c(C(=O)[NH+]2CCC(C(=O)N3CCOCC3)CC2)c1=Cc1sc(=O)[n-]c1[O-] (3D coordinates assigned)
C=c1[nH]c(C)c(C(=O)[NH+]2CCC(C(=O)N3CCOCC3)CC2)c1=Cc1sc(=O)[n-]c1[O-] (nonaromatic ring conformer: 159.51906550627962 kcal/mol)

>  <smiles>  (31) 
C=c1[nH]c(C)c(C(=O)N2CCC(C(=O)N3CCOCC3)CC2)c1=Cc1sc(=O)[nH]c1O

>  <score_type>  (31) 
oracle

>  <origin>  (31) 
adg

>  <m_score__min__energy>  (31) 
-15.109999999999999

>  <m_primary>  (31) 
energy

$$$$
31:0
     RDKit          3D

 56 59  0  0  0  0  0  0  0  0999 V2000
   59.6290   29.3630   46.7740 C   0  0  0  0  0  0  0  0  0  0  0  0
   58.6180   29.2790   45.8950 C   0  0  0  0  0  0  0  0  0  0  0  0
   57.9350   28.1170   45.5030 C   0  0  0  0  0  0  0  0  0  0  0  0
   58.2310   26.8150   45.6860 C   0  0  0  0  0  0  0  0  0  0  0  0
   57.4010   25.8460   46.4200 C   0  0  0  0  0  0  0  0  0  0  0  0
   57.8720   24.7470   47.0380 N   0  0  0  0  0  0  0  0  0  0  0  0
   56.7510   24.1130   47.4440 C   0  0  0  0  0  0  0  0  0  0  0  0
   56.7770   23.0320   48.0870 O   0  0  0  0  0  0  0  0  0  0  0  0
   55.5970   24.7260   47.0990 N   0  0  0  0  0  0  0  0  0  0  0  0
   56.0300   25.8140   46.4390 C   0  0  0  0  0  0  0  0  0  0  0  0
   55.1880   26.7570   45.8610 O   0  0  0  0  0  0  0  0  0  0  0  0
   56.8150   28.5410   44.8080 C   0  0  0  0  0  0  0  0  0  0  0  0
   56.8930   29.9150   44.7240 C   0  0  0  0  0  0  0  0  0  0  0  0
   55.9040   30.7800   44.0040 C   0  0  0  0  0  0  0  0  0  0  0  0
   57.9840   30.3660   45.3840 N   0  0  0  0  0  0  0  0  0  0  0  0
   58.3910   31.7430   45.4990 C   0  0  0  0  0  0  0  0  0  0  0  0
   58.2500   32.6190   44.4180 C   0  0  0  0  0  0  0  0  0  0  0  0
   58.6630   33.9480   44.5310 C   0  0  0  0  0  0  0  0  0  0  0  0
   59.2320   34.4230   45.7260 C   0  0  0  0  0  0  0  0  0  0  0  0
   59.6860   35.8580   45.7950 C   0  0  0  0  0  0  0  0  0  0  0  0
   59.3600   33.5440   46.8320 C   0  0  0  0  0  0  0  0  0  0  0  0
   59.9060   33.9850   48.1400 C   0  0  0  0  0  0  0  0  0  0  0  0
   59.2620   34.8180   48.8320 O   0  0  0  0  0  0  0  0  0  0  0  0
   61.1230   33.4210   48.6670 N   0  0  0  0  0  0  0  0  0  0  0  0
   61.2780   33.2740   50.1170 C   0  0  0  0  0  0  0  0  0  0  0  0
   62.5520   32.4810   50.4550 C   0  0  0  0  0  0  0  0  0  0  0  0
   62.7540   31.3460   49.5290 N   0  0  0  0  0  0  0  0  0  0  0  0
   61.7480   30.2880   49.7280 C   0  0  0  0  0  0  0  0  0  0  0  0
   62.8580   31.7530   48.1030 C   0  0  0  0  0  0  0  0  0  0  0  0
   62.2740   33.1470   47.8010 C   0  0  0  0  0  0  0  0  0  0  0  0
   58.9380   32.2110   46.7000 C   0  0  0  0  0  0  0  0  0  0  0  0
   60.0835   30.3394   46.9978 H   0  0  0  0  0  0  0  0  0  0  0  0
   60.0030   28.4555   47.2705 H   0  0  0  0  0  0  0  0  0  0  0  0
   59.1712   26.4457   45.2506 H   0  0  0  0  0  0  0  0  0  0  0  0
   54.3690   27.0900   46.3550 H   0  0  0  0  0  0  0  0  0  0  0  0
   56.0161   27.9038   44.4009 H   0  0  0  0  0  0  0  0  0  0  0  0
   55.2868   31.3198   44.7373 H   0  0  0  0  0  0  0  0  0  0  0  0
   56.4408   31.5037   43.3731 H   0  0  0  0  0  0  0  0  0  0  0  0
   55.2582   30.1516   43.3731 H   0  0  0  0  0  0  0  0  0  0  0  0
   57.8121   32.2596   43.4751 H   0  0  0  0  0  0  0  0  0  0  0  0
   58.5421   34.6303   43.6767 H   0  0  0  0  0  0  0  0  0  0  0  0
   59.7822   36.1619   46.8478 H   0  0  0  0  0  0  0  0  0  0  0  0
   60.6600   35.9589   45.2938 H   0  0  0  0  0  0  0  0  0  0  0  0
   58.9473   36.5008   45.2938 H   0  0  0  0  0  0  0  0  0  0  0  0
   61.3426   34.2719   50.5753 H   0  0  0  0  0  0  0  0  0  0  0  0
   60.4085   32.7265   50.5098 H   0  0  0  0  0  0  0  0  0  0  0  0
   63.4191   33.1545   50.3873 H   0  0  0  0  0  0  0  0  0  0  0  0
   62.4436   32.0772   51.4724 H   0  0  0  0  0  0  0  0  0  0  0  0
   61.5942   30.1262   50.8051 H   0  0  0  0  0  0  0  0  0  0  0  0
   60.7985   30.5928   49.2637 H   0  0  0  0  0  0  0  0  0  0  0  0
   62.1003   29.3551   49.2637 H   0  0  0  0  0  0  0  0  0  0  0  0
   63.9214   31.7558   47.8215 H   0  0  0  0  0  0  0  0  0  0  0  0
   62.2662   31.0294   47.5232 H   0  0  0  0  0  0  0  0  0  0  0  0
   63.0478   33.9091   47.9756 H   0  0  0  0  0  0  0  0  0  0  0  0
   61.9441   33.1745   46.7520 H   0  0  0  0  0  0  0  0  0  0  0  0
   59.0387   31.5240   47.5532 H   0  0  0  0  0  0  0  0  0  0  0  0
  1  2  2  0
  2  3  1  0
  3  4  2  3
  4  5  1  0
  5  6  1  0
  6  7  1  0
  7  8  2  0
  7  9  1  0
  9 10  1  0
 10 11  1  0
  3 12  1  0
 12 13  2  0
 13 14  1  0
 13 15  1  0
 15 16  1  0
 16 17  2  0
 17 18  1  0
 18 19  2  0
 19 20  1  0
 19 21  1  0
 21 22  1  0
 22 23  2  0
 22 24  1  0
 24 25  1  0
 25 26  1  0
 26 27  1  0
 27 28  1  0
 27 29  1  0
 29 30  1  0
 21 31  2  0
 15  2  1  0
 31 16  1  0
 10  5  2  0
 30 24  1  0
  1 32  1  0
  1 33  1  0
  4 34  1  0
 11 35  1  0
 12 36  1  0
 14 37  1  0
 14 38  1  0
 14 39  1  0
 17 40  1  0
 18 41  1  0
 20 42  1  0
 20 43  1  0
 20 44  1  0
 25 45  1  0
 25 46  1  0
 26 47  1  0
 26 48  1  0
 28 49  1  0
 28 50  1  0
 28 51  1  0
 29 52  1  0
 29 53  1  0
 30 54  1  0
 30 55  1  0
 31 56  1  0
M  CHG  2   6  -1   9  -1
M  END
>  <UniqueID>  (32) 
30

>  <SMILES>  (32) 
C=c1c(=Cc2[n-]c(=O)[n-]c2O)cc(C)n1-c1ccc(C)c(C(=O)N2CCN(C)CC2)c1

>  <Energy>  (32) 
144.72865771956842

>  <Genealogy>  (32) 
C=c1c(=Cc2[n-]c(=O)[n-]c2O)cc(C)n1-c1ccc(C)c(C(=O)N2CCN(C)CC2)c1 (protonated)
C=c1c(=Cc2[n-]c(=O)[n-]c2O)cc(C)n1-c1ccc(C)c(C(=O)N2CCN(C)CC2)c1 (3D coordinates assigned)
C=c1c(=Cc2[n-]c(=O)[n-]c2O)cc(C)n1-c1ccc(C)c(C(=O)N2CCN(C)CC2)c1 (nonaromatic ring conformer: 144.72865771956842 kcal/mol)

>  <smiles>  (32) 
C=c1c(=Cc2[nH]c(=O)[nH]c2O)cc(C)n1-c1ccc(C)c(C(=O)N2CCN(C)CC2)c1

>  <score_type>  (32) 
oracle

>  <origin>  (32) 
adg

>  <m_score__min__energy>  (32) 
-14.720000000000001

>  <m_primary>  (32) 
energy

$$$$
32:0
     RDKit          3D

 44 46  0  0  0  0  0  0  0  0999 V2000
   59.2630   34.9660   44.9970 C   0  0  0  0  0  0  0  0  0  0  0  0
   58.5540   33.9630   45.5290 C   0  0  0  0  0  0  0  0  0  0  0  0
   57.3010   33.4870   44.8610 C   0  0  0  0  0  0  0  0  0  0  0  0
   57.4320   31.7400   44.6170 S   0  0  0  0  0  0  0  0  0  0  0  0
   56.0530   31.1440   44.5620 O   0  0  0  0  0  0  0  0  0  0  0  0
   58.1600   31.4630   43.3320 O   0  0  0  0  0  0  0  0  0  0  0  0
   58.3300   31.0600   45.9650 C   0  0  0  0  0  0  0  0  0  0  0  0
   58.3850   29.6690   46.0950 C   0  0  0  0  0  0  0  0  0  0  0  0
   59.0950   29.0670   47.1390 C   0  0  0  0  0  0  0  0  0  0  0  0
   59.1280   27.2980   47.2430 S   0  0  0  0  0  0  0  0  0  0  0  0
   60.0320   26.7610   46.1690 O   0  0  0  0  0  0  0  0  0  0  0  0
   59.6430   26.8690   48.5890 O   0  0  0  0  0  0  0  0  0  0  0  0
   57.5210   26.6790   47.0370 N   0  0  0  0  0  0  0  0  0  0  0  0
   57.1360   25.6760   46.0870 C   0  0  0  0  0  0  0  0  0  0  0  0
   57.5900   25.6920   44.7570 C   0  0  0  0  0  0  0  0  0  0  0  0
   57.1870   24.6950   43.8620 C   0  0  0  0  0  0  0  0  0  0  0  0
   56.3240   23.6680   44.2800 C   0  0  0  0  0  0  0  0  0  0  0  0
   55.8920   22.6140   43.3360 C   0  0  0  0  0  0  0  0  0  0  0  0
   56.2440   21.4170   43.5080 O   0  0  0  0  0  0  0  0  0  0  0  0
   55.0870   22.9310   42.2460 O   0  0  0  0  0  0  0  0  0  0  0  0
   55.8750   23.6550   45.6120 C   0  0  0  0  0  0  0  0  0  0  0  0
   56.2820   24.6510   46.5050 C   0  0  0  0  0  0  0  0  0  0  0  0
   59.7580   29.8830   48.0840 C   0  0  0  0  0  0  0  0  0  0  0  0
   60.5600   29.2970   49.2180 C   0  0  0  0  0  0  0  0  0  0  0  0
   59.7200   31.2790   47.9360 C   0  0  0  0  0  0  0  0  0  0  0  0
   58.9980   31.8920   46.8910 C   0  0  0  0  0  0  0  0  0  0  0  0
   58.9690   33.3410   46.7630 N   0  0  0  0  0  0  0  0  0  0  0  0
   59.3660   34.2040   47.8850 C   0  0  0  0  0  0  0  0  0  0  0  0
   60.1827   35.3121   45.4914 H   0  0  0  0  0  0  0  0  0  0  0  0
   58.9260   35.4441   44.0655 H   0  0  0  0  0  0  0  0  0  0  0  0
   56.4322   33.7096   45.4979 H   0  0  0  0  0  0  0  0  0  0  0  0
   57.1693   33.9961   43.8948 H   0  0  0  0  0  0  0  0  0  0  0  0
   57.8606   29.0369   45.3633 H   0  0  0  0  0  0  0  0  0  0  0  0
   58.2650   26.4918   44.4183 H   0  0  0  0  0  0  0  0  0  0  0  0
   57.5485   24.7153   42.8233 H   0  0  0  0  0  0  0  0  0  0  0  0
   55.1997   22.8568   45.9537 H   0  0  0  0  0  0  0  0  0  0  0  0
   55.9270   24.6279   47.5459 H   0  0  0  0  0  0  0  0  0  0  0  0
   60.1252   29.6147   50.1771 H   0  0  0  0  0  0  0  0  0  0  0  0
   60.5402   28.1992   49.1522 H   0  0  0  0  0  0  0  0  0  0  0  0
   61.5999   29.6495   49.1522 H   0  0  0  0  0  0  0  0  0  0  0  0
   60.2666   31.9097   48.6525 H   0  0  0  0  0  0  0  0  0  0  0  0
   59.1342   33.7002   48.8350 H   0  0  0  0  0  0  0  0  0  0  0  0
   60.4464   34.4034   47.8298 H   0  0  0  0  0  0  0  0  0  0  0  0
   58.8145   35.1541   47.8298 H   0  0  0  0  0  0  0  0  0  0  0  0
  1  2  2  0
  2  3  1  0
  3  4  1  0
  4  5  2  0
  4  6  2  0
  4  7  1  0
  7  8  2  0
  8  9  1  0
  9 10  1  0
 10 11  2  0
 10 12  2  0
 10 13  1  0
 13 14  1  0
 14 15  2  0
 15 16  1  0
 16 17  2  0
 17 18  1  0
 18 19  2  0
 18 20  1  0
 17 21  1  0
 21 22  2  0
  9 23  2  0
 23 24  1  0
 23 25  1  0
 25 26  2  0
 26 27  1  0
 27 28  1  0
 27  2  1  0
 26  7  1  0
 22 14  1  0
  1 29  1  0
  1 30  1  0
  3 31  1  0
  3 32  1  0
  8 33  1  0
 15 34  1  0
 16 35  1  0
 21 36  1  0
 22 37  1  0
 24 38  1  0
 24 39  1  0
 24 40  1  0
 25 41  1  0
 28 42  1  0
 28 43  1  0
 28 44  1  0
M  CHG  2  13  -1  20  -1
M  END
>  <UniqueID>  (33) 
31

>  <SMILES>  (33) 
C=C1CS(=O)(=O)c2cc(S(=O)(=O)[N-]c3ccc(C(=O)[O-])cc3)c(C)cc2N1C

>  <Energy>  (33) 
58.820955144623596

>  <Genealogy>  (33) 
C=C1CS(=O)(=O)c2cc(S(=O)(=O)[N-]c3ccc(C(=O)[O-])cc3)c(C)cc2N1C (protonated)
C=C1CS(=O)(=O)c2cc(S(=O)(=O)[N-]c3ccc(C(=O)[O-])cc3)c(C)cc2N1C (3D coordinates assigned)
C=C1CS(=O)(=O)c2cc(S(=O)(=O)[N-]c3ccc(C(=O)[O-])cc3)c(C)cc2N1C (nonaromatic ring conformer: 58.820955144623596 kcal/mol)

>  <smiles>  (33) 
C=C1CS(=O)(=O)c2cc(S(=O)(=O)Nc3ccc(C(=O)O)cc3)c(C)cc2N1C

>  <score_type>  (33) 
oracle

>  <origin>  (33) 
adg

>  <m_score__min__energy>  (33) 
-12.390000000000001

>  <m_primary>  (33) 
energy

$$$$
33:0
     RDKit          3D

 61 65  0  0  0  0  0  0  0  0999 V2000
   62.2210   30.7680   50.3090 C   0  0  0  0  0  0  0  0  0  0  0  0
   61.3390   30.1010   49.4140 O   0  0  0  0  0  0  0  0  0  0  0  0
   60.8580   30.7000   48.2490 C   0  0  0  0  0  0  0  0  0  0  0  0
   61.4790   30.5690   47.1590 O   0  0  0  0  0  0  0  0  0  0  0  0
   59.6100   31.4810   48.2960 C   0  0  0  0  0  0  0  0  0  0  0  0
   59.0580   32.0160   47.1760 C   0  0  0  0  0  0  0  0  0  0  0  0
   58.5500   31.2680   45.9930 C   0  0  0  0  0  0  0  0  0  0  0  0
   58.4190   29.8930   45.7370 C   0  0  0  0  0  0  0  0  0  0  0  0
   57.8030   29.4840   44.5410 C   0  0  0  0  0  0  0  0  0  0  0  0
   57.2920   30.4360   43.6390 C   0  0  0  0  0  0  0  0  0  0  0  0
   57.3790   31.8050   43.9310 C   0  0  0  0  0  0  0  0  0  0  0  0
   58.0040   32.1850   45.1170 C   0  0  0  0  0  0  0  0  0  0  0  0
   58.1420   33.5000   45.7000 C   0  0  0  0  0  0  0  0  0  0  0  0
   57.7850   34.5770   45.1510 O   0  0  0  0  0  0  0  0  0  0  0  0
   58.7860   33.4260   46.9750 N   0  0  0  0  0  0  0  0  0  0  0  0
   59.5680   34.5610   47.4880 C   0  0  0  0  0  0  0  0  0  0  0  0
   61.0320   34.2140   47.6140 C   0  0  0  0  0  0  0  0  0  0  0  0
   61.7520   33.8290   46.4730 C   0  0  0  0  0  0  0  0  0  0  0  0
   63.1060   33.4810   46.5700 C   0  0  0  0  0  0  0  0  0  0  0  0
   63.7420   33.4870   47.8160 C   0  0  0  0  0  0  0  0  0  0  0  0
   63.0290   33.8480   48.9620 C   0  0  0  0  0  0  0  0  0  0  0  0
   61.6820   34.2070   48.8650 C   0  0  0  0  0  0  0  0  0  0  0  0
   59.0320   31.6940   49.6360 C   0  0  0  0  0  0  0  0  0  0  0  0
   59.2900   32.8700   50.3540 C   0  0  0  0  0  0  0  0  0  0  0  0
   58.7080   33.0420   51.6100 C   0  0  0  0  0  0  0  0  0  0  0  0
   57.8860   32.0470   52.1420 C   0  0  0  0  0  0  0  0  0  0  0  0
   57.6490   30.8710   51.4000 C   0  0  0  0  0  0  0  0  0  0  0  0
   56.8840   29.9050   51.8270 N   0  0  0  0  0  0  0  0  0  0  0  0
   55.5220   29.9860   52.2700 C   0  0  0  0  0  0  0  0  0  0  0  0
   55.0940   29.1120   53.0690 O   0  0  0  0  0  0  0  0  0  0  0  0
   54.7090   31.1250   51.9410 N   0  0  0  0  0  0  0  0  0  0  0  0
   53.3000   31.2170   52.2130 C   0  0  0  0  0  0  0  0  0  0  0  0
   52.4160   31.8480   51.3180 C   0  0  0  0  0  0  0  0  0  0  0  0
   51.0530   31.9320   51.6130 C   0  0  0  0  0  0  0  0  0  0  0  0
   50.5580   31.3900   52.8030 C   0  0  0  0  0  0  0  0  0  0  0  0
   51.4310   30.7840   53.7100 C   0  0  0  0  0  0  0  0  0  0  0  0
   52.7970   30.7070   53.4200 C   0  0  0  0  0  0  0  0  0  0  0  0
   58.2100   30.7480   50.1670 N   0  0  0  0  0  0  0  0  0  0  0  0
   61.9279   30.5464   51.3458 H   0  0  0  0  0  0  0  0  0  0  0  0
   63.2503   30.4203   50.1366 H   0  0  0  0  0  0  0  0  0  0  0  0
   62.1668   31.8531   50.1366 H   0  0  0  0  0  0  0  0  0  0  0  0
   58.7912   29.1505   46.4583 H   0  0  0  0  0  0  0  0  0  0  0  0
   57.7199   28.4121   44.3086 H   0  0  0  0  0  0  0  0  0  0  0  0
   56.8224   30.1049   42.7010 H   0  0  0  0  0  0  0  0  0  0  0  0
   56.9656   32.5574   43.2433 H   0  0  0  0  0  0  0  0  0  0  0  0
   59.4604   35.4102   46.7972 H   0  0  0  0  0  0  0  0  0  0  0  0
   59.1875   34.8178   48.4876 H   0  0  0  0  0  0  0  0  0  0  0  0
   61.2498   33.8001   45.4948 H   0  0  0  0  0  0  0  0  0  0  0  0
   63.6686   33.2032   45.6665 H   0  0  0  0  0  0  0  0  0  0  0  0
   64.8031   33.2076   47.8934 H   0  0  0  0  0  0  0  0  0  0  0  0
   63.5287   33.8496   49.9420 H   0  0  0  0  0  0  0  0  0  0  0  0
   61.1247   34.4862   49.7714 H   0  0  0  0  0  0  0  0  0  0  0  0
   59.9435   33.6478   49.9321 H   0  0  0  0  0  0  0  0  0  0  0  0
   58.8970   33.9625   52.1818 H   0  0  0  0  0  0  0  0  0  0  0  0
   57.4264   32.1791   53.1326 H   0  0  0  0  0  0  0  0  0  0  0  0
   55.2000   31.9860   51.6040 H   0  0  0  0  0  0  0  0  0  0  0  0
   52.8003   32.2774   50.3810 H   0  0  0  0  0  0  0  0  0  0  0  0
   50.3680   32.4254   50.9078 H   0  0  0  0  0  0  0  0  0  0  0  0
   49.4818   31.4407   53.0250 H   0  0  0  0  0  0  0  0  0  0  0  0
   51.0441   30.3676   54.6518 H   0  0  0  0  0  0  0  0  0  0  0  0
   53.4829   30.2428   54.1439 H   0  0  0  0  0  0  0  0  0  0  0  0
  1  2  1  0
  2  3  1  0
  3  4  2  0
  3  5  1  0
  5  6  2  3
  6  7  1  0
  7  8  2  0
  8  9  1  0
  9 10  2  0
 10 11  1  0
 11 12  2  0
 12 13  1  0
 13 14  2  0
 13 15  1  0
 15 16  1  0
 16 17  1  0
 17 18  2  0
 18 19  1  0
 19 20  2  0
 20 21  1  0
 21 22  2  0
  5 23  1  0
 23 24  2  0
 24 25  1  0
 25 26  2  0
 26 27  1  0
 27 28  2  3
 28 29  1  0
 29 30  2  0
 29 31  1  0
 31 32  1  0
 32 33  2  0
 33 34  1  0
 34 35  2  0
 35 36  1  0
 36 37  2  0
 27 38  1  0
 15  6  1  0
 22 17  1  0
 38 23  1  0
 12  7  1  0
 37 32  1  0
  1 39  1  0
  1 40  1  0
  1 41  1  0
  8 42  1  0
  9 43  1  0
 10 44  1  0
 11 45  1  0
 16 46  1  0
 16 47  1  0
 18 48  1  0
 19 49  1  0
 20 50  1  0
 21 51  1  0
 22 52  1  0
 24 53  1  0
 25 54  1  0
 26 55  1  0
 31 56  1  0
 33 57  1  0
 34 58  1  0
 35 59  1  0
 36 60  1  0
 37 61  1  0
M  CHG  1  38  -1
M  END
>  <UniqueID>  (34) 
32

>  <SMILES>  (34) 
COC(=O)C(=C1c2ccccc2C(=O)N1Cc1ccccc1)c1cccc(=NC(=O)Nc2ccccc2)[n-]1

>  <Energy>  (34) 
127.34218546146596

>  <Genealogy>  (34) 
COC(=O)C(=C1c2ccccc2C(=O)N1Cc1ccccc1)c1cccc(=NC(=O)Nc2ccccc2)[n-]1 (protonated)
COC(=O)C(=C1c2ccccc2C(=O)N1Cc1ccccc1)c1cccc(=NC(=O)Nc2ccccc2)[n-]1 (3D coordinates assigned)
COC(=O)C(=C1c2ccccc2C(=O)N1Cc1ccccc1)c1cccc(=NC(=O)Nc2ccccc2)[n-]1 (nonaromatic ring conformer: 127.34218546146596 kcal/mol)

>  <smiles>  (34) 
COC(=O)C(=C1c2ccccc2C(=O)N1Cc1ccccc1)c1cccc(=NC(=O)Nc2ccccc2)[nH]1

>  <score_type>  (34) 
oracle

>  <origin>  (34) 
adg

>  <m_score__min__energy>  (34) 
-12

>  <m_primary>  (34) 
energy

$$$$
34:0
     RDKit          3D

 78 82  0  0  0  0  0  0  0  0999 V2000
   59.9780   29.2540   46.6700 C   0  0  0  0  0  0  0  0  0  0  0  0
   58.8280   28.9280   46.0590 C   0  0  0  0  0  0  0  0  0  0  0  0
   58.2470   27.6580   45.9910 C   0  0  0  0  0  0  0  0  0  0  0  0
   58.7070   26.5180   46.5420 C   0  0  0  0  0  0  0  0  0  0  0  0
   58.4310   25.1780   45.9850 C   0  0  0  0  0  0  0  0  0  0  0  0
   59.3880   24.3030   45.6120 N   0  0  0  0  0  0  0  0  0  0  0  0
   58.7620   23.1640   45.2580 C   0  0  0  0  0  0  0  0  0  0  0  0
   59.4720   21.9330   44.7880 C   0  0  0  0  0  0  0  0  0  0  0  0
   57.3950   23.3030   45.4140 C   0  0  0  0  0  0  0  0  0  0  0  0
   56.3820   22.2680   45.1620 C   0  0  0  0  0  0  0  0  0  0  0  0
   56.1620   21.9240   43.9690 O   0  0  0  0  0  0  0  0  0  0  0  0
   55.6270   21.6790   46.2440 N   0  0  0  0  0  0  0  0  0  0  0  0
   55.7240   22.2230   47.6080 C   0  0  0  0  0  0  0  0  0  0  0  0
   55.0370   21.2990   48.6240 C   0  0  0  0  0  0  0  0  0  0  0  0
   53.6390   20.9550   48.2540 N   0  0  0  0  0  0  0  0  0  0  0  0
   52.6510   21.8400   48.9110 C   0  0  0  0  0  0  0  0  0  0  0  0
   53.2840   22.5850   50.0840 C   0  0  0  0  0  0  0  0  0  0  0  0
   53.3910   20.8680   46.7910 C   0  0  0  0  0  0  0  0  0  0  0  0
   54.6680   20.5950   45.9910 C   0  0  0  0  0  0  0  0  0  0  0  0
   57.1790   24.5880   45.8870 C   0  0  0  0  0  0  0  0  0  0  0  0
   55.8730   25.1760   46.3290 C   0  0  0  0  0  0  0  0  0  0  0  0
   57.0630   27.8070   45.2760 C   0  0  0  0  0  0  0  0  0  0  0  0
   56.9790   29.1390   44.9260 C   0  0  0  0  0  0  0  0  0  0  0  0
   55.8340   29.7610   44.1820 C   0  0  0  0  0  0  0  0  0  0  0  0
   58.0450   29.8170   45.4020 N   0  0  0  0  0  0  0  0  0  0  0  0
   58.2990   31.2140   45.2010 C   0  0  0  0  0  0  0  0  0  0  0  0
   57.9520   31.8190   43.9870 C   0  0  0  0  0  0  0  0  0  0  0  0
   58.1570   33.1890   43.8040 C   0  0  0  0  0  0  0  0  0  0  0  0
   58.7190   33.9560   44.8280 C   0  0  0  0  0  0  0  0  0  0  0  0
   59.0950   33.3540   46.0410 C   0  0  0  0  0  0  0  0  0  0  0  0
   59.7100   34.1630   47.1140 C   0  0  0  0  0  0  0  0  0  0  0  0
   59.0490   35.1040   47.6340 O   0  0  0  0  0  0  0  0  0  0  0  0
   61.0520   33.9030   47.5630 N   0  0  0  0  0  0  0  0  0  0  0  0
   61.4080   34.2200   48.9490 C   0  0  0  0  0  0  0  0  0  0  0  0
   62.6740   33.4550   49.3540 C   0  0  0  0  0  0  0  0  0  0  0  0
   63.7110   33.6670   48.4150 O   0  0  0  0  0  0  0  0  0  0  0  0
   63.3460   33.1110   47.1690 C   0  0  0  0  0  0  0  0  0  0  0  0
   62.1380   33.8460   46.5780 C   0  0  0  0  0  0  0  0  0  0  0  0
   58.8670   31.9800   46.2270 C   0  0  0  0  0  0  0  0  0  0  0  0
   60.3334   30.2949   46.6541 H   0  0  0  0  0  0  0  0  0  0  0  0
   60.5649   28.4802   47.1866 H   0  0  0  0  0  0  0  0  0  0  0  0
   59.3193   26.5886   47.4531 H   0  0  0  0  0  0  0  0  0  0  0  0
   60.4210   24.4510   45.6450 H   0  0  0  0  0  0  0  0  0  0  0  0
   59.8086   21.3493   45.6575 H   0  0  0  0  0  0  0  0  0  0  0  0
   58.7866   21.3238   44.1805 H   0  0  0  0  0  0  0  0  0  0  0  0
   60.3426   22.2212   44.1805 H   0  0  0  0  0  0  0  0  0  0  0  0
   56.7852   22.3274   47.8781 H   0  0  0  0  0  0  0  0  0  0  0  0
   55.2204   23.2007   47.6299 H   0  0  0  0  0  0  0  0  0  0  0  0
   55.6179   20.3678   48.6977 H   0  0  0  0  0  0  0  0  0  0  0  0
   54.9972   21.8394   49.5813 H   0  0  0  0  0  0  0  0  0  0  0  0
   52.2788   22.5712   48.1783 H   0  0  0  0  0  0  0  0  0  0  0  0
   51.8236   21.2228   49.2912 H   0  0  0  0  0  0  0  0  0  0  0  0
   52.9201   22.1568   51.0296 H   0  0  0  0  0  0  0  0  0  0  0  0
   54.3784   22.4859   50.0337 H   0  0  0  0  0  0  0  0  0  0  0  0
   53.0095   23.6490   50.0337 H   0  0  0  0  0  0  0  0  0  0  0  0
   52.6767   20.0529   46.6029 H   0  0  0  0  0  0  0  0  0  0  0  0
   52.9942   21.8400   46.4626 H   0  0  0  0  0  0  0  0  0  0  0  0
   55.1035   19.6353   46.3062 H   0  0  0  0  0  0  0  0  0  0  0  0
   54.4331   20.5473   44.9174 H   0  0  0  0  0  0  0  0  0  0  0  0
   55.8324   25.1943   47.4281 H   0  0  0  0  0  0  0  0  0  0  0  0
   55.7828   26.2016   45.9416 H   0  0  0  0  0  0  0  0  0  0  0  0
   55.0454   24.5636   45.9416 H   0  0  0  0  0  0  0  0  0  0  0  0
   56.3358   27.0172   45.0365 H   0  0  0  0  0  0  0  0  0  0  0  0
   55.1023   30.1585   44.9008 H   0  0  0  0  0  0  0  0  0  0  0  0
   56.2089   30.5795   43.5499 H   0  0  0  0  0  0  0  0  0  0  0  0
   55.3514   29.0010   43.5499 H   0  0  0  0  0  0  0  0  0  0  0  0
   57.5176   31.2153   43.1766 H   0  0  0  0  0  0  0  0  0  0  0  0
   57.8757   33.6643   42.8527 H   0  0  0  0  0  0  0  0  0  0  0  0
   58.8678   35.0363   44.6839 H   0  0  0  0  0  0  0  0  0  0  0  0
   61.5909   35.3009   49.0399 H   0  0  0  0  0  0  0  0  0  0  0  0
   60.5805   33.9244   49.6108 H   0  0  0  0  0  0  0  0  0  0  0  0
   63.0058   33.8046   50.3428 H   0  0  0  0  0  0  0  0  0  0  0  0
   62.4415   32.3803   49.3860 H   0  0  0  0  0  0  0  0  0  0  0  0
   64.1946   33.1950   46.4741 H   0  0  0  0  0  0  0  0  0  0  0  0
   63.0773   32.0550   47.3193 H   0  0  0  0  0  0  0  0  0  0  0  0
   62.4335   34.8691   46.3025 H   0  0  0  0  0  0  0  0  0  0  0  0
   61.7879   33.3051   45.6865 H   0  0  0  0  0  0  0  0  0  0  0  0
   59.1355   31.5042   47.1817 H   0  0  0  0  0  0  0  0  0  0  0  0
  1  2  2  0
  2  3  1  0
  3  4  2  3
  4  5  1  0
  5  6  1  0
  6  7  1  0
  7  8  1  0
  7  9  2  0
  9 10  1  0
 10 11  2  0
 10 12  1  0
 12 13  1  0
 13 14  1  0
 14 15  1  0
 15 16  1  0
 16 17  1  0
 15 18  1  0
 18 19  1  0
  9 20  1  0
 20 21  1  0
  3 22  1  0
 22 23  2  0
 23 24  1  0
 23 25  1  0
 25 26  1  0
 26 27  2  0
 27 28  1  0
 28 29  2  0
 29 30  1  0
 30 31  1  0
 31 32  2  0
 31 33  1  0
 33 34  1  0
 34 35  1  0
 35 36  1  0
 36 37  1  0
 37 38  1  0
 30 39  2  0
 25  2  1  0
 39 26  1  0
 20  5  2  0
 38 33  1  0
 19 12  1  0
  1 40  1  0
  1 41  1  0
  4 42  1  0
  6 43  1  0
  8 44  1  0
  8 45  1  0
  8 46  1  0
 13 47  1  0
 13 48  1  0
 14 49  1  0
 14 50  1  0
 16 51  1  0
 16 52  1  0
 17 53  1  0
 17 54  1  0
 17 55  1  0
 18 56  1  0
 18 57  1  0
 19 58  1  0
 19 59  1  0
 21 60  1  0
 21 61  1  0
 21 62  1  0
 22 63  1  0
 24 64  1  0
 24 65  1  0
 24 66  1  0
 27 67  1  0
 28 68  1  0
 29 69  1  0
 34 70  1  0
 34 71  1  0
 35 72  1  0
 35 73  1  0
 37 74  1  0
 37 75  1  0
 38 76  1  0
 38 77  1  0
 39 78  1  0
M  END
>  <UniqueID>  (35) 
33

>  <SMILES>  (35) 
C=c1c(=Cc2[nH]c(C)c(C(=O)N3CCN(CC)CC3)c2C)cc(C)n1-c1cccc(C(=O)N2CCOCC2)c1

>  <Energy>  (35) 
164.1269354447696

>  <Genealogy>  (35) 
C=c1c(=Cc2[nH]c(C)c(C(=O)N3CCN(CC)CC3)c2C)cc(C)n1-c1cccc(C(=O)N2CCOCC2)c1 (3D coordinates assigned)
C=c1c(=Cc2[nH]c(C)c(C(=O)N3CCN(CC)CC3)c2C)cc(C)n1-c1cccc(C(=O)N2CCOCC2)c1 (nonaromatic ring conformer: 164.1269354447696 kcal/mol)

>  <smiles>  (35) 
C=c1c(=Cc2[nH]c(C)c(C(=O)N3CCN(CC)CC3)c2C)cc(C)n1-c1cccc(C(=O)N2CCOCC2)c1

>  <score_type>  (35) 
oracle

>  <origin>  (35) 
adg

>  <m_score__min__energy>  (35) 
-11.02

>  <m_primary>  (35) 
energy

$$$$
35:0
     RDKit          3D

 58 61  0  0  0  0  0  0  0  0999 V2000
   56.5840   28.3831   42.5306 H   0  0  0  0  0  0  0  0  0  0  0  0
   56.9960   28.9710   43.3640 C   0  0  0  0  0  0  0  0  0  0  0  0
   58.1730   28.4210   44.0670 C   0  0  0  0  0  0  0  0  0  0  0  0
   58.6100   27.2710   43.7860 O   0  0  0  0  0  0  0  0  0  0  0  0
   58.8480   29.2220   45.0470 N   0  0  0  0  0  0  0  0  0  0  0  0
   58.4550   30.1560   45.2970 H   0  0  0  0  0  0  0  0  0  0  0  0
   60.0160   28.7430   45.7870 C   0  0  0  0  0  0  0  0  0  0  0  0
   59.6756   28.1632   46.6576 H   0  0  0  0  0  0  0  0  0  0  0  0
   60.6203   28.1164   45.1145 H   0  0  0  0  0  0  0  0  0  0  0  0
   60.8840   29.9090   46.2720 C   0  0  0  0  0  0  0  0  0  0  0  0
   61.9188   29.5577   46.3978 H   0  0  0  0  0  0  0  0  0  0  0  0
   60.8353   30.7137   45.5236 H   0  0  0  0  0  0  0  0  0  0  0  0
   60.3880   30.4480   47.5810 C   0  0  0  0  0  0  0  0  0  0  0  0
   61.0870   30.3950   48.7860 C   0  0  0  0  0  0  0  0  0  0  0  0
   62.0642   29.9265   48.9749 H   0  0  0  0  0  0  0  0  0  0  0  0
   60.2840   31.0590   49.6890 C   0  0  0  0  0  0  0  0  0  0  0  0
   60.4700   31.3260   51.0440 C   0  0  0  0  0  0  0  0  0  0  0  0
   61.3731   30.9853   51.5716 H   0  0  0  0  0  0  0  0  0  0  0  0
   59.4640   32.0460   51.7150 C   0  0  0  0  0  0  0  0  0  0  0  0
   59.5754   32.2722   52.7857 H   0  0  0  0  0  0  0  0  0  0  0  0
   58.3120   32.4800   51.0220 C   0  0  0  0  0  0  0  0  0  0  0  0
   57.5320   33.0415   51.5571 H   0  0  0  0  0  0  0  0  0  0  0  0
   58.1550   32.1990   49.6510 C   0  0  0  0  0  0  0  0  0  0  0  0
   57.2638   32.5351   49.1007 H   0  0  0  0  0  0  0  0  0  0  0  0
   59.1660   31.4810   49.0140 C   0  0  0  0  0  0  0  0  0  0  0  0
   59.2200   31.1190   47.7210 N   0  0  0  0  0  0  0  0  0  0  0  0
   58.5150   31.3220   46.9770 H   0  0  0  0  0  0  0  0  0  0  0  0
   56.3890   30.1310   43.6610 C   0  0  0  0  0  0  0  0  0  0  0  0
   55.2927   30.1686   43.5790 H   0  0  0  0  0  0  0  0  0  0  0  0
   57.0850   31.3580   44.0890 C   0  0  0  0  0  0  0  0  0  0  0  0
   57.1040   31.7820   45.3640 N   0  0  0  0  0  0  0  0  0  0  0  0
   57.7890   32.9450   45.3070 C   0  0  0  0  0  0  0  0  0  0  0  0
   58.0850   33.7760   46.5190 C   0  0  0  0  0  0  0  0  0  0  0  0
   57.3871   34.6258   46.5455 H   0  0  0  0  0  0  0  0  0  0  0  0
   57.9679   33.1357   47.4057 H   0  0  0  0  0  0  0  0  0  0  0  0
   59.5230   34.3160   46.5120 C   0  0  0  0  0  0  0  0  0  0  0  0
   60.1766   33.5770   46.0255 H   0  0  0  0  0  0  0  0  0  0  0  0
   59.5227   35.2708   45.9659 H   0  0  0  0  0  0  0  0  0  0  0  0
   60.0490   34.5840   47.9310 C   0  0  0  0  0  0  0  0  0  0  0  0
   60.0649   35.6690   48.1114 H   0  0  0  0  0  0  0  0  0  0  0  0
   59.3857   34.0869   48.6542 H   0  0  0  0  0  0  0  0  0  0  0  0
   61.4420   34.0350   48.0940 C   0  0  0  0  0  0  0  0  0  0  0  0
   62.1120   33.4670   46.9970 C   0  0  0  0  0  0  0  0  0  0  0  0
   61.6198   33.4287   46.0140 H   0  0  0  0  0  0  0  0  0  0  0  0
   63.4030   32.9500   47.1510 C   0  0  0  0  0  0  0  0  0  0  0  0
   63.9288   32.5175   46.2870 H   0  0  0  0  0  0  0  0  0  0  0  0
   64.0250   32.9830   48.4030 C   0  0  0  0  0  0  0  0  0  0  0  0
   65.0417   32.5805   48.5222 H   0  0  0  0  0  0  0  0  0  0  0  0
   63.3560   33.5270   49.5030 C   0  0  0  0  0  0  0  0  0  0  0  0
   63.8441   33.5460   50.4886 H   0  0  0  0  0  0  0  0  0  0  0  0
   62.0670   34.0470   49.3520 C   0  0  0  0  0  0  0  0  0  0  0  0
   61.5403   34.4671   50.2215 H   0  0  0  0  0  0  0  0  0  0  0  0
   58.1890   33.2870   44.0620 N   0  0  0  0  0  0  0  0  0  0  0  0
   57.7210   32.2900   43.2900 C   0  0  0  0  0  0  0  0  0  0  0  0
   57.8800   32.2600   41.8030 C   0  0  0  0  0  0  0  0  0  0  0  0
   58.9321   32.0615   41.5507 H   0  0  0  0  0  0  0  0  0  0  0  0
   57.2459   31.4657   41.3824 H   0  0  0  0  0  0  0  0  0  0  0  0
   57.5790   33.2308   41.3824 H   0  0  0  0  0  0  0  0  0  0  0  0
  1  2  1  0
  2  3  1  0
  3  4  2  0
  3  5  1  0
  5  6  1  0
  5  7  1  0
  7  8  1  0
  7  9  1  0
  7 10  1  0
 10 11  1  0
 10 12  1  0
 10 13  1  0
 13 14  2  0
 14 15  1  0
 14 16  1  0
 16 17  2  0
 17 18  1  0
 17 19  1  0
 19 20  1  0
 19 21  2  0
 21 22  1  0
 21 23  1  0
 23 24  1  0
 23 25  2  0
 25 26  1  0
 26 27  1  0
  2 28  2  0
 28 29  1  0
 28 30  1  0
 30 31  1  0
 31 32  2  0
 32 33  1  0
 33 34  1  0
 33 35  1  0
 33 36  1  0
 36 37  1  0
 36 38  1  0
 36 39  1  0
 39 40  1  0
 39 41  1  0
 39 42  1  0
 42 43  2  0
 43 44  1  0
 43 45  1  0
 45 46  1  0
 45 47  2  0
 47 48  1  0
 47 49  1  0
 49 50  1  0
 49 51  2  0
 51 52  1  0
 32 53  1  0
 53 54  1  0
 54 55  1  0
 55 56  1  0
 55 57  1  0
 55 58  1  0
 26 13  1  0
 54 30  2  0
 25 16  1  0
 51 42  1  0
M  CHG  1  53  -1
M  END
>  <UniqueID>  (36) 
34

>  <SMILES>  (36) 
Cc1[n-]c(CCCc2ccccc2)nc1/C=C\C(=O)NCCc1cc2ccccc2[nH]1

>  <Energy>  (36) 
116.99021330177555

>  <Genealogy>  (36) 
Cc1[n-]c(CCCc2ccccc2)nc1C=CC(=O)NCCc1cc2ccccc2[nH]1 (protonated)
Cc1[n-]c(CCCc2ccccc2)nc1/C=C\C(=O)NCCc1cc2ccccc2[nH]1 (cis-trans isomerization)
Cc1[n-]c(CCCc2ccccc2)nc1/C=C\C(=O)NCCc1cc2ccccc2[nH]1 (3D coordinates assigned)
Cc1[n-]c(CCCc2ccccc2)nc1/C=C\C(=O)NCCc1cc2ccccc2[nH]1 (optimized conformer: 116.99021330177555 kcal/mol)

>  <smiles>  (36) 
Cc1[nH]c(CCCc2ccccc2)nc1C=CC(=O)NCCc1cc2ccccc2[nH]1

>  <score_type>  (36) 
oracle

>  <origin>  (36) 
adg

>  <m_score__min__energy>  (36) 
-10.220000000000001

>  <m_primary>  (36) 
energy

$$$$
36:0
     RDKit          3D

 58 62  0  0  1  0  0  0  0  0999 V2000
   60.7730   27.6260   50.3620 N   0  0  0  0  0  0  0  0  0  0  0  0
   60.2490   28.3320   48.8880 S   0  0  0  0  0  0  0  0  0  0  0  0
   61.1280   27.8160   47.7610 O   0  0  0  0  0  0  0  0  0  0  0  0
   58.8330   27.9430   48.6010 O   0  0  0  0  0  0  0  0  0  0  0  0
   60.4150   30.0650   48.9990 C   0  0  0  0  0  0  0  0  0  0  0  0
   61.3900   30.7440   48.2660 C   0  0  0  0  0  0  0  0  0  0  0  0
   61.5440   32.1100   48.3300 C   0  0  0  0  0  0  0  0  0  0  0  0
   60.6860   32.8190   49.1590 C   0  0  0  0  0  0  0  0  0  0  0  0
   60.8190   34.3130   49.2510 C   0  0  0  0  0  0  0  0  0  0  0  0
   60.1330   34.9570   48.1650 N   0  0  0  0  0  0  0  0  0  0  0  0
   59.5570   34.3770   47.1750 C   0  0  0  0  0  0  0  0  0  0  0  0
   58.4570   33.6240   47.5180 N   0  0  0  0  0  0  0  0  0  0  0  0
   57.8010   32.9830   46.5120 C   0  0  0  0  0  0  0  0  0  0  0  0
   58.2210   33.0840   45.2000 C   0  0  0  0  0  0  0  0  0  0  0  0
   57.4330   32.3510   44.1830 C   0  0  0  0  0  0  0  0  0  0  0  0
   57.1220   30.9650   44.5960 C   0  0  0  0  0  0  0  0  0  0  0  0
   58.1480   30.2150   45.1330 C   0  0  0  0  0  0  0  0  0  0  0  0
   57.8710   28.9170   45.5250 C   0  0  0  0  0  0  0  0  0  0  0  0
   58.6320   27.9380   46.0750 N   0  0  0  0  0  0  0  0  0  0  0  0
   57.9110   26.8690   46.2680 N   0  0  0  0  0  0  0  0  0  0  0  0
   56.6530   27.0950   45.8570 C   0  0  0  0  0  0  0  0  0  0  0  0
   55.6820   26.2560   45.9050 N   0  0  0  0  0  0  0  0  0  0  0  0
   55.9540   24.9200   46.2620 C   0  0  0  0  0  0  0  0  0  0  0  0
   55.9150   24.4930   47.4600 O   0  0  0  0  0  0  0  0  0  0  0  0
   56.3010   23.9770   45.2060 C   0  0  0  0  0  0  0  0  0  0  0  0
   55.5400   23.8320   44.0620 C   0  0  0  0  0  0  0  0  0  0  0  0
   55.8780   22.9310   43.0550 C   0  0  0  0  0  0  0  0  0  0  0  0
   57.0190   22.1350   43.1860 C   0  0  0  0  0  0  0  0  0  0  0  0
   57.7890   22.2680   44.3270 C   0  0  0  0  0  0  0  0  0  0  0  0
   57.4290   23.1700   45.3050 C   0  0  0  0  0  0  0  0  0  0  0  0
   56.5950   28.3890   45.3790 C   0  0  0  0  0  0  0  0  0  0  0  0
   55.6380   29.1580   44.8520 N   0  0  0  0  0  0  0  0  0  0  0  0
   55.9170   30.3910   44.4850 N   0  0  0  0  0  0  0  0  0  0  0  0
   59.3390   33.8530   44.8700 C   0  0  0  0  0  0  0  0  0  0  0  0
   59.9480   34.4620   45.8990 N   0  0  0  0  0  0  0  0  0  0  0  0
   59.7080   32.1600   49.8970 C   0  0  0  0  0  0  0  0  0  0  0  0
   59.5570   30.7850   49.8300 C   0  0  0  0  0  0  0  0  0  0  0  0
   60.0470   27.8550   51.0910 H   0  0  0  0  0  0  0  0  0  0  0  0
   61.6520   28.0940   50.6480 H   0  0  0  0  0  0  0  0  0  0  0  0
   62.0601   30.1656   47.6130 H   0  0  0  0  0  0  0  0  0  0  0  0
   62.3209   32.6226   47.7439 H   0  0  0  0  0  0  0  0  0  0  0  0
   60.3871   34.6550   50.2031 H   0  0  0  0  0  0  0  0  0  0  0  0
   61.8861   34.5747   49.1970 H   0  0  0  0  0  0  0  0  0  0  0  0
   56.9177   32.3717   46.7490 H   0  0  0  0  0  0  0  0  0  0  0  0
   56.4884   32.8888   44.0141 H   0  0  0  0  0  0  0  0  0  0  0  0
   58.0387   32.2980   43.2663 H   0  0  0  0  0  0  0  0  0  0  0  0
   59.1576   30.6368   45.2463 H   0  0  0  0  0  0  0  0  0  0  0  0
   59.6470   28.0600   46.2970 H   0  0  0  0  0  0  0  0  0  0  0  0
   58.2580   25.9940   46.6720 H   0  0  0  0  0  0  0  0  0  0  0  0
   54.6370   24.4487   43.9425 H   0  0  0  0  0  0  0  0  0  0  0  0
   55.2475   22.8461   42.1577 H   0  0  0  0  0  0  0  0  0  0  0  0
   57.2984   21.4188   42.3993 H   0  0  0  0  0  0  0  0  0  0  0  0
   58.6915   21.6521   44.4544 H   0  0  0  0  0  0  0  0  0  0  0  0
   58.0606   23.2550   46.2016 H   0  0  0  0  0  0  0  0  0  0  0  0
   59.6969   33.9529   43.8346 H   0  0  0  0  0  0  0  0  0  0  0  0
   60.7890   35.0430   45.6720 H   0  0  0  0  0  0  0  0  0  0  0  0
   59.0403   32.7436   50.5478 H   0  0  0  0  0  0  0  0  0  0  0  0
   58.7801   30.2737   50.4173 H   0  0  0  0  0  0  0  0  0  0  0  0
  1  2  1  0
  2  3  2  0
  2  4  2  0
  2  5  1  0
  5  6  2  0
  6  7  1  0
  7  8  2  0
  8  9  1  0
  9 10  1  0
 10 11  2  3
 11 12  1  0
 12 13  2  0
 13 14  1  0
 14 15  1  0
 15 16  1  0
 16 17  2  0
 17 18  1  0
 18 19  1  0
 19 20  1  0
 20 21  1  0
 21 22  2  0
 22 23  1  0
 23 24  2  0
 23 25  1  0
 25 26  2  0
 26 27  1  0
 27 28  2  0
 28 29  1  0
 29 30  2  0
 21 31  1  0
 31 32  1  0
 32 33  2  0
 14 34  2  0
 34 35  1  0
  8 36  1  0
 36 37  2  0
 37  5  1  0
 35 11  1  0
 33 16  1  0
 31 18  2  0
 30 25  1  0
  1 38  1  0
  1 39  1  0
  6 40  1  0
  7 41  1  0
  9 42  1  0
  9 43  1  0
 13 44  1  0
 15 45  1  0
 15 46  1  0
 17 47  1  0
 19 48  1  0
 20 49  1  0
 26 50  1  0
 27 51  1  0
 28 52  1  0
 29 53  1  0
 30 54  1  0
 34 55  1  0
 35 56  1  0
 36 57  1  0
 37 58  1  0
M  END
>  <smiles>  (37) 
NS(=O)(=O)c1ccc(CN=c2ncc(Cc3cc4[nH][nH]c(=NC(=O)c5ccccc5)c4nn3)c[nH]2)cc1

>  <score_type>  (37) 
oracle

>  <origin>  (37) 
adg

>  <m_score__min__energy>  (37) 
-10.59

>  <m_primary>  (37) 
energy

$$$$
37:0
     RDKit          3D

 54 58  0  0  0  0  0  0  0  0999 V2000
   56.9297   23.8167   47.4087 H   0  0  0  0  0  0  0  0  0  0  0  0
   56.7620   24.8000   46.9450 C   0  0  0  0  0  0  0  0  0  0  0  0
   55.5160   25.1670   46.5520 N   0  0  0  0  0  0  0  0  0  0  0  0
   55.2870   26.3550   45.9870 N   0  0  0  0  0  0  0  0  0  0  0  0
   56.2830   27.2560   45.7750 C   0  0  0  0  0  0  0  0  0  0  0  0
   55.9870   28.3920   45.2120 N   0  0  0  0  0  0  0  0  0  0  0  0
   56.9820   29.2880   44.1050 S   0  0  0  0  0  0  0  0  0  0  0  0
   56.1220   29.8290   42.9970 O   0  0  0  0  0  0  0  0  0  0  0  0
   58.0120   28.3660   43.5170 O   0  0  0  0  0  0  0  0  0  0  0  0
   57.8070   30.5950   44.9510 C   0  0  0  0  0  0  0  0  0  0  0  0
   58.3580   30.3670   46.2160 C   0  0  0  0  0  0  0  0  0  0  0  0
   58.2842   29.3689   46.6725 H   0  0  0  0  0  0  0  0  0  0  0  0
   59.0010   31.3980   46.9030 C   0  0  0  0  0  0  0  0  0  0  0  0
   59.4198   31.2093   47.9025 H   0  0  0  0  0  0  0  0  0  0  0  0
   59.1180   32.6780   46.3270 C   0  0  0  0  0  0  0  0  0  0  0  0
   59.7610   33.7560   46.9860 C   0  0  0  0  0  0  0  0  0  0  0  0
   60.4240   33.6080   48.2990 C   0  0  0  0  0  0  0  0  0  0  0  0
   61.7990   33.8600   48.4250 C   0  0  0  0  0  0  0  0  0  0  0  0
   62.3884   34.1397   47.5393 H   0  0  0  0  0  0  0  0  0  0  0  0
   62.4210   33.7570   49.6700 C   0  0  0  0  0  0  0  0  0  0  0  0
   63.5000   33.9505   49.7615 H   0  0  0  0  0  0  0  0  0  0  0  0
   61.6780   33.4090   50.8000 C   0  0  0  0  0  0  0  0  0  0  0  0
   62.1756   33.3284   51.7777 H   0  0  0  0  0  0  0  0  0  0  0  0
   60.2980   33.1610   50.6960 C   0  0  0  0  0  0  0  0  0  0  0  0
   59.5220   32.7870   51.9040 C   0  0  0  0  0  0  0  0  0  0  0  0
   59.9110   33.2560   53.1700 C   0  0  0  0  0  0  0  0  0  0  0  0
   60.7949   33.9037   53.2657 H   0  0  0  0  0  0  0  0  0  0  0  0
   59.1810   32.9040   54.3080 C   0  0  0  0  0  0  0  0  0  0  0  0
   59.4899   33.2784   55.2951 H   0  0  0  0  0  0  0  0  0  0  0  0
   58.0600   32.0780   54.1960 C   0  0  0  0  0  0  0  0  0  0  0  0
   57.4833   31.8102   55.0936 H   0  0  0  0  0  0  0  0  0  0  0  0
   57.6690   31.5900   52.9420 C   0  0  0  0  0  0  0  0  0  0  0  0
   56.2550   30.5540   52.7900 S   0  0  0  0  0  0  0  0  0  0  0  0
   56.6800   29.1810   52.3460 O   0  0  0  0  0  0  0  0  0  0  0  0
   55.5580   30.4360   54.1160 O   0  0  0  0  0  0  0  0  0  0  0  0
   55.1690   31.2320   51.6280 N   0  0  0  0  0  0  0  0  0  0  0  0
   55.7530   31.6090   50.8480 H   0  0  0  0  0  0  0  0  0  0  0  0
   54.7070   32.0510   52.0830 H   0  0  0  0  0  0  0  0  0  0  0  0
   58.3990   31.9480   51.7990 C   0  0  0  0  0  0  0  0  0  0  0  0
   58.0905   31.5695   50.8133 H   0  0  0  0  0  0  0  0  0  0  0  0
   59.6710   33.2740   49.4390 C   0  0  0  0  0  0  0  0  0  0  0  0
   58.3310   33.0810   49.3230 F   0  0  0  0  0  0  0  0  0  0  0  0
   59.7860   34.9830   46.3970 N   0  0  0  0  0  0  0  0  0  0  0  0
   59.2320   35.2180   45.1800 C   0  0  0  0  0  0  0  0  0  0  0  0
   59.2747   36.2272   44.7444 H   0  0  0  0  0  0  0  0  0  0  0  0
   58.6100   34.1870   44.4810 C   0  0  0  0  0  0  0  0  0  0  0  0
   58.1731   34.3745   43.4890 H   0  0  0  0  0  0  0  0  0  0  0  0
   58.5450   32.9090   45.0510 C   0  0  0  0  0  0  0  0  0  0  0  0
   57.9030   31.8640   44.3690 C   0  0  0  0  0  0  0  0  0  0  0  0
   57.4733   32.0432   43.3724 H   0  0  0  0  0  0  0  0  0  0  0  0
   57.5910   26.9180   46.1680 C   0  0  0  0  0  0  0  0  0  0  0  0
   58.4189   27.6253   46.0121 H   0  0  0  0  0  0  0  0  0  0  0  0
   57.8260   25.6770   46.7570 C   0  0  0  0  0  0  0  0  0  0  0  0
   58.8418   25.3937   47.0700 H   0  0  0  0  0  0  0  0  0  0  0  0
  1  2  1  0
  2  3  2  0
  3  4  1  0
  4  5  1  0
  5  6  2  0
  6  7  1  0
  7  8  2  0
  7  9  2  0
  7 10  1  0
 10 11  2  0
 11 12  1  0
 11 13  1  0
 13 14  1  0
 13 15  2  0
 15 16  1  0
 16 17  1  0
 17 18  2  0
 18 19  1  0
 18 20  1  0
 20 21  1  0
 20 22  2  0
 22 23  1  0
 22 24  1  0
 24 25  1  0
 25 26  2  0
 26 27  1  0
 26 28  1  0
 28 29  1  0
 28 30  2  0
 30 31  1  0
 30 32  1  0
 32 33  1  0
 33 34  2  0
 33 35  2  0
 33 36  1  0
 36 37  1  0
 36 38  1  0
 32 39  2  0
 39 40  1  0
 24 41  2  0
 41 42  1  0
 16 43  2  0
 43 44  1  0
 44 45  1  0
 44 46  2  0
 46 47  1  0
 46 48  1  0
 48 49  2  0
 49 50  1  0
  5 51  1  0
 51 52  1  0
 51 53  2  0
 53 54  1  0
 53  2  1  0
 49 10  1  0
 48 15  1  0
 41 17  1  0
 39 25  1  0
M  CHG  1   4  -1
M  END
>  <UniqueID>  (38) 
35

>  <SMILES>  (38) 
NS(=O)(=O)c1cccc(-c2cccc(-c3nccc4cc(S(=O)(=O)/N=c5\cccn[n-]5)ccc34)c2F)c1

>  <Energy>  (38) 
84.66037386540282

>  <Genealogy>  (38) 
NS(=O)(=O)c1cccc(-c2cccc(-c3nccc4cc(S(=O)(=O)N=c5cccn[n-]5)ccc34)c2F)c1 (protonated)
NS(=O)(=O)c1cccc(-c2cccc(-c3nccc4cc(S(=O)(=O)/N=c5\cccn[n-]5)ccc34)c2F)c1 (cis-trans isomerization)
NS(=O)(=O)c1cccc(-c2cccc(-c3nccc4cc(S(=O)(=O)/N=c5\cccn[n-]5)ccc34)c2F)c1 (3D coordinates assigned)
NS(=O)(=O)c1cccc(-c2cccc(-c3nccc4cc(S(=O)(=O)/N=c5\cccn[n-]5)ccc34)c2F)c1 (optimized conformer: 84.66037386540282 kcal/mol)

>  <smiles>  (38) 
NS(=O)(=O)c1cccc(-c2cccc(-c3nccc4cc(S(=O)(=O)N=c5cccn[nH]5)ccc34)c2F)c1

>  <score_type>  (38) 
oracle

>  <origin>  (38) 
adg

>  <m_score__min__energy>  (38) 
-14.130000000000001

>  <m_primary>  (38) 
energy

$$$$
38:0
     RDKit          3D

 63 65  0  0  0  0  0  0  0  0999 V2000
   54.9680   31.1780   52.1090 C   0  0  0  0  0  0  0  0  0  0  0  0
   56.1850   30.3100   52.0430 C   0  0  0  0  0  0  0  0  0  0  0  0
   56.0910   29.1120   52.2700 O   0  0  0  0  0  0  0  0  0  0  0  0
   57.7760   31.0170   51.5890 S   0  0  0  0  0  0  0  0  0  0  0  0
   58.7750   29.6660   52.3020 C   0  0  0  0  0  0  0  0  0  0  0  0
   60.1070   29.6230   51.6190 C   0  0  0  0  0  0  0  0  0  0  0  0
   61.0380   30.3590   52.0470 O   0  0  0  0  0  0  0  0  0  0  0  0
   60.3280   28.8100   50.4060 C   0  0  0  0  0  0  0  0  0  0  0  0
   60.1920   29.3980   49.1380 C   0  0  0  0  0  0  0  0  0  0  0  0
   60.3430   28.6270   47.9820 C   0  0  0  0  0  0  0  0  0  0  0  0
   60.6690   27.2640   48.0800 C   0  0  0  0  0  0  0  0  0  0  0  0
   60.7840   26.4430   46.9140 N   0  0  0  0  0  0  0  0  0  0  0  0
   59.6660   25.8150   46.2740 C   0  0  0  0  0  0  0  0  0  0  0  0
   59.7250   24.6020   45.9340 O   0  0  0  0  0  0  0  0  0  0  0  0
   58.4790   26.6140   45.9230 C   0  0  0  0  0  0  0  0  0  0  0  0
   58.6550   27.8860   45.3610 C   0  0  0  0  0  0  0  0  0  0  0  0
   57.5500   28.6750   45.0350 C   0  0  0  0  0  0  0  0  0  0  0  0
   57.7400   29.9420   44.4950 O   0  0  0  0  0  0  0  0  0  0  0  0
   56.2560   28.1910   45.2510 C   0  0  0  0  0  0  0  0  0  0  0  0
   55.1580   28.9710   44.9020 O   0  0  0  0  0  0  0  0  0  0  0  0
   56.0620   26.9130   45.7890 C   0  0  0  0  0  0  0  0  0  0  0  0
   54.7680   26.4270   45.9610 O   0  0  0  0  0  0  0  0  0  0  0  0
   57.1700   26.1160   46.1270 C   0  0  0  0  0  0  0  0  0  0  0  0
   56.9590   24.7280   46.5970 C   0  0  0  0  0  0  0  0  0  0  0  0
   57.0320   24.4840   47.9770 C   0  0  0  0  0  0  0  0  0  0  0  0
   56.9870   23.1820   48.4720 C   0  0  0  0  0  0  0  0  0  0  0  0
   56.8400   22.0940   47.6000 C   0  0  0  0  0  0  0  0  0  0  0  0
   56.8570   20.7050   48.1160 C   0  0  0  0  0  0  0  0  0  0  0  0
   55.8390   19.9740   47.9940 O   0  0  0  0  0  0  0  0  0  0  0  0
   58.0240   20.2130   48.7920 N   0  0  0  0  0  0  0  0  0  0  0  0
   58.2020   20.0470   50.2400 C   0  0  0  0  0  0  0  0  0  0  0  0
   59.6120   19.4770   50.4720 C   0  0  0  0  0  0  0  0  0  0  0  0
   57.1630   19.0610   50.8030 C   0  0  0  0  0  0  0  0  0  0  0  0
   58.0890   21.4130   50.9400 C   0  0  0  0  0  0  0  0  0  0  0  0
   56.7210   22.3370   46.2220 C   0  0  0  0  0  0  0  0  0  0  0  0
   56.7860   23.6410   45.6990 C   0  0  0  0  0  0  0  0  0  0  0  0
   56.6910   23.8180   44.2210 C   0  0  0  0  0  0  0  0  0  0  0  0
   57.4210   24.6410   43.6090 O   0  0  0  0  0  0  0  0  0  0  0  0
   55.7740   23.0740   43.4850 O   0  0  0  0  0  0  0  0  0  0  0  0
   60.8620   26.6900   49.3400 C   0  0  0  0  0  0  0  0  0  0  0  0
   60.6760   27.4520   50.4990 C   0  0  0  0  0  0  0  0  0  0  0  0
   54.7070   31.3641   53.1613 H   0  0  0  0  0  0  0  0  0  0  0  0
   55.1727   32.1352   51.6071 H   0  0  0  0  0  0  0  0  0  0  0  0
   54.1296   30.6728   51.6071 H   0  0  0  0  0  0  0  0  0  0  0  0
   58.9192   29.8438   53.3779 H   0  0  0  0  0  0  0  0  0  0  0  0
   58.2554   28.7073   52.1577 H   0  0  0  0  0  0  0  0  0  0  0  0
   59.9654   30.4711   49.0541 H   0  0  0  0  0  0  0  0  0  0  0  0
   60.2062   29.0886   46.9930 H   0  0  0  0  0  0  0  0  0  0  0  0
   59.6707   28.2653   45.1755 H   0  0  0  0  0  0  0  0  0  0  0  0
   57.1257   25.3289   48.6751 H   0  0  0  0  0  0  0  0  0  0  0  0
   57.0674   23.0066   49.5549 H   0  0  0  0  0  0  0  0  0  0  0  0
   59.8031   19.3998   51.5525 H   0  0  0  0  0  0  0  0  0  0  0  0
   59.6839   18.4792   50.0147 H   0  0  0  0  0  0  0  0  0  0  0  0
   60.3572   20.1445   50.0147 H   0  0  0  0  0  0  0  0  0  0  0  0
   57.1907   19.0872   51.9023 H   0  0  0  0  0  0  0  0  0  0  0  0
   56.1596   19.3470   50.4545 H   0  0  0  0  0  0  0  0  0  0  0  0
   57.3961   18.0440   50.4545 H   0  0  0  0  0  0  0  0  0  0  0  0
   58.1010   21.2683   52.0304 H   0  0  0  0  0  0  0  0  0  0  0  0
   58.9377   22.0475   50.6450 H   0  0  0  0  0  0  0  0  0  0  0  0
   57.1475   21.8994   50.6450 H   0  0  0  0  0  0  0  0  0  0  0  0
   56.5738   21.4891   45.5368 H   0  0  0  0  0  0  0  0  0  0  0  0
   61.1614   25.6346   49.4208 H   0  0  0  0  0  0  0  0  0  0  0  0
   60.8028   26.9857   51.4872 H   0  0  0  0  0  0  0  0  0  0  0  0
  1  2  1  0
  2  3  2  0
  2  4  1  0
  4  5  1  0
  5  6  1  0
  6  7  2  0
  6  8  1  0
  8  9  2  0
  9 10  1  0
 10 11  2  0
 11 12  1  0
 12 13  1  0
 13 14  2  0
 13 15  1  0
 15 16  2  0
 16 17  1  0
 17 18  1  0
 17 19  2  0
 19 20  1  0
 19 21  1  0
 21 22  1  0
 21 23  2  0
 23 24  1  0
 24 25  2  0
 25 26  1  0
 26 27  2  0
 27 28  1  0
 28 29  2  0
 28 30  1  0
 30 31  1  0
 31 32  1  0
 31 33  1  0
 31 34  1  0
 27 35  1  0
 35 36  2  0
 36 37  1  0
 37 38  2  0
 37 39  1  0
 11 40  1  0
 40 41  2  0
 41  8  1  0
 23 15  1  0
 36 24  1  0
  1 42  1  0
  1 43  1  0
  1 44  1  0
  5 45  1  0
  5 46  1  0
  9 47  1  0
 10 48  1  0
 16 49  1  0
 25 50  1  0
 26 51  1  0
 32 52  1  0
 32 53  1  0
 32 54  1  0
 33 55  1  0
 33 56  1  0
 33 57  1  0
 34 58  1  0
 34 59  1  0
 34 60  1  0
 35 61  1  0
 40 62  1  0
 41 63  1  0
M  CHG  6  12  -1  18  -1  20  -1  22  -1  30  -1  39  -1
M  END
>  <UniqueID>  (39) 
36

>  <SMILES>  (39) 
CC(=O)SCC(=O)c1ccc([N-]C(=O)c2cc([O-])c([O-])c([O-])c2-c2ccc(C(=O)[N-]C(C)(C)C)cc2C(=O)[O-])cc1

>  <Energy>  (39) 
80.7808788188003

>  <Genealogy>  (39) 
CC(=O)SCC(=O)c1ccc([N-]C(=O)c2cc([O-])c([O-])c([O-])c2-c2ccc(C(=O)[N-]C(C)(C)C)cc2C(=O)[O-])cc1 (protonated)
CC(=O)SCC(=O)c1ccc([N-]C(=O)c2cc([O-])c([O-])c([O-])c2-c2ccc(C(=O)[N-]C(C)(C)C)cc2C(=O)[O-])cc1 (3D coordinates assigned)
CC(=O)SCC(=O)c1ccc([N-]C(=O)c2cc([O-])c([O-])c([O-])c2-c2ccc(C(=O)[N-]C(C)(C)C)cc2C(=O)[O-])cc1 (optimized conformer: 80.7808788188003 kcal/mol)

>  <smiles>  (39) 
CC(=O)SCC(=O)c1ccc(NC(=O)c2cc(O)c(O)c(O)c2-c2ccc(C(=O)NC(C)(C)C)cc2C(=O)O)cc1

>  <score_type>  (39) 
oracle

>  <origin>  (39) 
adg

>  <m_score__min__energy>  (39) 
-19.18

>  <m_primary>  (39) 
energy

$$$$
39:0
     RDKit          3D

 59 61  0  0  0  0  0  0  0  0999 V2000
   59.1034   31.3911   43.7434 H   0  0  0  0  0  0  0  0  0  0  0  0
   58.4040   31.3270   44.5900 C   0  0  0  0  0  0  0  0  0  0  0  0
   58.1110   32.4560   45.2600 C   0  0  0  0  0  0  0  0  0  0  0  0
   58.3620   32.5840   46.7140 C   0  0  0  0  0  0  0  0  0  0  0  0
   58.4500   33.7360   47.2170 O   0  0  0  0  0  0  0  0  0  0  0  0
   58.5000   31.4490   47.5770 N   0  0  0  0  0  0  0  0  0  0  0  0
   59.7490   30.8340   48.0180 C   0  0  0  0  0  0  0  0  0  0  0  0
   60.5249   31.0156   47.2597 H   0  0  0  0  0  0  0  0  0  0  0  0
   59.5770   29.7555   48.1491 H   0  0  0  0  0  0  0  0  0  0  0  0
   60.2170   31.4180   49.3640 C   0  0  0  0  0  0  0  0  0  0  0  0
   61.3001   31.6019   49.3088 H   0  0  0  0  0  0  0  0  0  0  0  0
   59.9643   30.6867   50.1459 H   0  0  0  0  0  0  0  0  0  0  0  0
   59.5350   32.6970   49.7120 N   0  0  2  0  0  0  0  0  0  0  0  0
   58.8290   32.9260   48.9730 H   0  0  0  0  0  0  0  0  0  0  0  0
   60.5180   33.8110   49.7710 C   0  0  0  0  0  0  0  0  0  0  0  0
   59.9931   34.7569   49.5718 H   0  0  0  0  0  0  0  0  0  0  0  0
   60.9717   33.8068   50.7730 H   0  0  0  0  0  0  0  0  0  0  0  0
   61.6320   33.6490   48.7570 C   0  0  0  0  0  0  0  0  0  0  0  0
   62.9160   33.2560   49.1690 C   0  0  0  0  0  0  0  0  0  0  0  0
   63.1184   33.0773   50.2353 H   0  0  0  0  0  0  0  0  0  0  0  0
   63.9380   33.0910   48.2290 C   0  0  0  0  0  0  0  0  0  0  0  0
   64.9420   32.7854   48.5586 H   0  0  0  0  0  0  0  0  0  0  0  0
   63.6880   33.3130   46.8730 C   0  0  0  0  0  0  0  0  0  0  0  0
   64.4931   33.1784   46.1356 H   0  0  0  0  0  0  0  0  0  0  0  0
   62.4150   33.7060   46.4540 C   0  0  0  0  0  0  0  0  0  0  0  0
   62.2167   33.8780   45.3858 H   0  0  0  0  0  0  0  0  0  0  0  0
   61.3920   33.8810   47.3920 C   0  0  0  0  0  0  0  0  0  0  0  0
   60.3939   34.2021   47.0591 H   0  0  0  0  0  0  0  0  0  0  0  0
   58.8240   32.5660   51.0120 C   0  0  0  0  0  0  0  0  0  0  0  0
   59.2684   31.7320   51.5750 H   0  0  0  0  0  0  0  0  0  0  0  0
   57.7607   32.3857   50.7955 H   0  0  0  0  0  0  0  0  0  0  0  0
   58.9180   33.8390   51.8620 C   0  0  0  0  0  0  0  0  0  0  0  0
   58.8981   33.5701   52.9284 H   0  0  0  0  0  0  0  0  0  0  0  0
   59.8573   34.3639   51.6336 H   0  0  0  0  0  0  0  0  0  0  0  0
   58.0659   34.4961   51.6336 H   0  0  0  0  0  0  0  0  0  0  0  0
   57.4430   33.5860   44.5310 C   0  0  0  0  0  0  0  0  0  0  0  0
   57.0236   34.2954   45.2596 H   0  0  0  0  0  0  0  0  0  0  0  0
   58.1811   34.1023   43.8996 H   0  0  0  0  0  0  0  0  0  0  0  0
   56.6348   33.1882   43.8996 H   0  0  0  0  0  0  0  0  0  0  0  0
   57.8350   30.0000   44.9310 C   0  0  0  0  0  0  0  0  0  0  0  0
   58.6360   28.8950   45.3140 C   0  0  0  0  0  0  0  0  0  0  0  0
   60.1480   29.0210   45.2300 C   0  0  0  0  0  0  0  0  0  0  0  0
   60.5700   29.0562   46.2452 H   0  0  0  0  0  0  0  0  0  0  0  0
   60.5589   28.1540   44.6920 H   0  0  0  0  0  0  0  0  0  0  0  0
   60.4097   29.9441   44.6920 H   0  0  0  0  0  0  0  0  0  0  0  0
   58.0410   27.7120   45.7340 N   0  0  0  0  0  0  0  0  0  0  0  0
   58.9310   26.6590   46.3260 C   0  0  0  0  0  0  0  0  0  0  0  0
   59.3365   26.3892   45.3397 H   0  0  0  0  0  0  0  0  0  0  0  0
   59.5640   26.8790   47.6960 C   0  0  0  0  0  0  0  0  0  0  0  0
   60.5718   26.4912   47.9056 H   0  0  0  0  0  0  0  0  0  0  0  0
   59.7713   27.7561   48.3267 H   0  0  0  0  0  0  0  0  0  0  0  0
   58.3890   25.9120   47.5370 C   0  0  0  0  0  0  0  0  0  0  0  0
   58.5515   24.8283   47.6330 H   0  0  0  0  0  0  0  0  0  0  0  0
   57.4001   25.8051   48.0068 H   0  0  0  0  0  0  0  0  0  0  0  0
   56.6700   27.5820   45.5820 C   0  0  0  0  0  0  0  0  0  0  0  0
   56.0740   26.4970   45.8040 O   0  0  0  0  0  0  0  0  0  0  0  0
   55.9180   28.6260   45.1580 N   0  0  0  0  0  0  0  0  0  0  0  0
   56.4560   29.8220   44.8510 C   0  0  0  0  0  0  0  0  0  0  0  0
   55.7010   30.7670   44.4930 O   0  0  0  0  0  0  0  0  0  0  0  0
  1  2  1  0
  2  3  2  0
  3  4  1  0
  4  5  2  0
  4  6  1  0
  6  7  1  0
  7  8  1  0
  7  9  1  0
  7 10  1  0
 10 11  1  0
 10 12  1  0
 10 13  1  0
 13 14  1  6
 13 15  1  0
 15 16  1  0
 15 17  1  0
 15 18  1  0
 18 19  2  0
 19 20  1  0
 19 21  1  0
 21 22  1  0
 21 23  2  0
 23 24  1  0
 23 25  1  0
 25 26  1  0
 25 27  2  0
 27 28  1  0
 13 29  1  0
 29 30  1  0
 29 31  1  0
 29 32  1  0
 32 33  1  0
 32 34  1  0
 32 35  1  0
  3 36  1  0
 36 37  1  0
 36 38  1  0
 36 39  1  0
  2 40  1  0
 40 41  2  0
 41 42  1  0
 42 43  1  0
 42 44  1  0
 42 45  1  0
 41 46  1  0
 46 47  1  0
 47 48  1  0
 47 49  1  0
 49 50  1  0
 49 51  1  0
 49 52  1  0
 52 53  1  0
 52 54  1  0
 46 55  1  0
 55 56  2  0
 55 57  1  0
 57 58  1  0
 58 59  2  0
 27 18  1  0
 58 40  1  0
 52 47  1  0
M  CHG  3   6  -1  13   1  57  -1
M  END
>  <UniqueID>  (40) 
37

>  <SMILES>  (40) 
CC[N@H+](CC[N-]C(=O)/C(C)=C\c1c(C)n(C2CC2)c(=O)[n-]c1=O)Cc1ccccc1

>  <Energy>  (40) 
358.9079815932614

>  <Genealogy>  (40) 
CC[NH+](CC[N-]C(=O)C(C)=Cc1c(C)n(C2CC2)c(=O)[n-]c1=O)Cc1ccccc1 (protonated)
CC[N@H+](CC[N-]C(=O)C(C)=Cc1c(C)n(C2CC2)c(=O)[n-]c1=O)Cc1ccccc1 (chirality)
CC[N@H+](CC[N-]C(=O)/C(C)=C\c1c(C)n(C2CC2)c(=O)[n-]c1=O)Cc1ccccc1 (cis-trans isomerization)
CC[N@H+](CC[N-]C(=O)/C(C)=C\c1c(C)n(C2CC2)c(=O)[n-]c1=O)Cc1ccccc1 (3D coordinates assigned)
CC[N@H+](CC[N-]C(=O)/C(C)=C\c1c(C)n(C2CC2)c(=O)[n-]c1=O)Cc1ccccc1 (nonaromatic ring conformer: 358.9079815932614 kcal/mol)

>  <smiles>  (40) 
CCN(CCNC(=O)C(C)=Cc1c(C)n(C2CC2)c(=O)[nH]c1=O)Cc1ccccc1

>  <score_type>  (40) 
oracle

>  <origin>  (40) 
adg

>  <m_score__min__energy>  (40) 
-9.5

>  <m_primary>  (40) 
energy

$$$$
40:0
     RDKit          3D

 67 71  0  0  0  0  0  0  0  0999 V2000
   64.4840   32.6320   49.0090 C   0  0  0  0  0  0  0  0  0  0  0  0
   63.3810   33.0600   49.9170 C   0  0  0  0  0  0  0  0  0  0  0  0
   63.5420   33.6200   51.1700 C   0  0  0  0  0  0  0  0  0  0  0  0
   62.2670   33.8450   51.6430 C   0  0  0  0  0  0  0  0  0  0  0  0
   61.4130   33.4060   50.6480 C   0  0  0  0  0  0  0  0  0  0  0  0
   59.9080   33.4470   50.6970 C   0  0  0  0  0  0  0  0  0  0  0  0
   59.2510   33.1150   49.4100 N   0  0  1  0  0  0  0  0  0  0  0  0
   59.9270   33.7460   48.2510 C   0  0  0  0  0  0  0  0  0  0  0  0
   59.0160   33.8190   47.0580 C   0  0  0  0  0  0  0  0  0  0  0  0
   57.6400   33.6220   47.0700 C   0  0  0  0  0  0  0  0  0  0  0  0
   57.0410   33.8510   45.8250 C   0  0  0  0  0  0  0  0  0  0  0  0
   57.9380   34.2390   44.8380 C   0  0  0  0  0  0  0  0  0  0  0  0
   59.4760   34.3020   45.5150 S   0  0  0  0  0  0  0  0  0  0  0  0
   59.1330   31.6770   49.2430 C   0  0  0  0  0  0  0  0  0  0  0  0
   58.6710   30.9690   50.1830 O   0  0  0  0  0  0  0  0  0  0  0  0
   59.5040   31.0080   47.9710 C   0  0  0  0  0  0  0  0  0  0  0  0
   60.8460   30.7150   47.6630 C   0  0  0  0  0  0  0  0  0  0  0  0
   61.1700   30.0770   46.4630 C   0  0  0  0  0  0  0  0  0  0  0  0
   60.1650   29.7180   45.5640 C   0  0  0  0  0  0  0  0  0  0  0  0
   58.8240   29.9910   45.8610 C   0  0  0  0  0  0  0  0  0  0  0  0
   57.5490   29.5470   44.7230 S   0  0  0  0  0  0  0  0  0  0  0  0
   56.2340   30.0890   45.2110 O   0  0  0  0  0  0  0  0  0  0  0  0
   57.8440   30.1710   43.3870 O   0  0  0  0  0  0  0  0  0  0  0  0
   57.4320   27.8150   44.5340 N   0  0  0  0  0  0  0  0  0  0  0  0
   58.1670   27.3800   43.3400 C   0  0  0  0  0  0  0  0  0  0  0  0
   57.7700   25.9390   43.0330 C   0  0  0  0  0  0  0  0  0  0  0  0
   57.7630   25.1180   44.2540 N   0  0  0  0  0  0  0  0  0  0  0  0
   57.4730   23.7100   44.1430 C   0  0  0  0  0  0  0  0  0  0  0  0
   57.8780   22.8160   45.1520 C   0  0  0  0  0  0  0  0  0  0  0  0
   57.5860   21.4520   45.0490 C   0  0  0  0  0  0  0  0  0  0  0  0
   56.8860   20.9670   43.9430 C   0  0  0  0  0  0  0  0  0  0  0  0
   56.4790   21.8430   42.9350 C   0  0  0  0  0  0  0  0  0  0  0  0
   56.7720   23.2070   43.0300 C   0  0  0  0  0  0  0  0  0  0  0  0
   58.3180   25.6540   45.5060 C   0  0  0  0  0  0  0  0  0  0  0  0
   57.9160   27.1270   45.7500 C   0  0  0  0  0  0  0  0  0  0  0  0
   58.4990   30.6270   47.0680 C   0  0  0  0  0  0  0  0  0  0  0  0
   62.1050   32.9420   49.6320 O   0  0  0  0  0  0  0  0  0  0  0  0
   65.3438   32.2984   49.6085 H   0  0  0  0  0  0  0  0  0  0  0  0
   64.1360   31.8037   48.3744 H   0  0  0  0  0  0  0  0  0  0  0  0
   64.7858   33.4783   48.3744 H   0  0  0  0  0  0  0  0  0  0  0  0
   64.4898   33.8403   51.6829 H   0  0  0  0  0  0  0  0  0  0  0  0
   61.9867   34.2834   52.6121 H   0  0  0  0  0  0  0  0  0  0  0  0
   59.5673   32.7261   51.4548 H   0  0  0  0  0  0  0  0  0  0  0  0
   59.6267   34.4826   50.9388 H   0  0  0  0  0  0  0  0  0  0  0  0
   58.2960   33.5360   49.4800 H   0  0  0  0  0  0  0  0  0  0  0  0
   60.2362   34.7646   48.5281 H   0  0  0  0  0  0  0  0  0  0  0  0
   60.7998   33.1324   47.9831 H   0  0  0  0  0  0  0  0  0  0  0  0
   57.0790   33.3174   47.9658 H   0  0  0  0  0  0  0  0  0  0  0  0
   55.9620   33.7346   45.6457 H   0  0  0  0  0  0  0  0  0  0  0  0
   57.6854   34.4663   43.7918 H   0  0  0  0  0  0  0  0  0  0  0  0
   61.6428   30.9895   48.3700 H   0  0  0  0  0  0  0  0  0  0  0  0
   62.2214   29.8568   46.2260 H   0  0  0  0  0  0  0  0  0  0  0  0
   60.4269   29.2191   44.6193 H   0  0  0  0  0  0  0  0  0  0  0  0
   57.9093   28.0266   42.4882 H   0  0  0  0  0  0  0  0  0  0  0  0
   59.2507   27.4456   43.5166 H   0  0  0  0  0  0  0  0  0  0  0  0
   56.7635   25.9308   42.5892 H   0  0  0  0  0  0  0  0  0  0  0  0
   58.5057   25.5163   42.3330 H   0  0  0  0  0  0  0  0  0  0  0  0
   58.4277   23.1925   46.0272 H   0  0  0  0  0  0  0  0  0  0  0  0
   57.9086   20.7602   45.8410 H   0  0  0  0  0  0  0  0  0  0  0  0
   56.6550   19.8943   43.8656 H   0  0  0  0  0  0  0  0  0  0  0  0
   55.9268   21.4595   42.0644 H   0  0  0  0  0  0  0  0  0  0  0  0
   56.4529   23.8915   42.2302 H   0  0  0  0  0  0  0  0  0  0  0  0
   57.9498   25.0445   46.3444 H   0  0  0  0  0  0  0  0  0  0  0  0
   59.4146   25.6156   45.4286 H   0  0  0  0  0  0  0  0  0  0  0  0
   57.1159   27.1492   46.5045 H   0  0  0  0  0  0  0  0  0  0  0  0
   58.8194   27.6580   46.0845 H   0  0  0  0  0  0  0  0  0  0  0  0
   57.4452   30.8295   47.3097 H   0  0  0  0  0  0  0  0  0  0  0  0
  1  2  1  0
  2  3  2  0
  3  4  1  0
  4  5  2  0
  5  6  1  0
  6  7  1  0
  7  8  1  0
  8  9  1  0
  9 10  2  0
 10 11  1  0
 11 12  2  0
 12 13  1  0
  7 14  1  0
 14 15  2  0
 14 16  1  0
 16 17  2  0
 17 18  1  0
 18 19  2  0
 19 20  1  0
 20 21  1  0
 21 22  2  0
 21 23  2  0
 21 24  1  0
 24 25  1  0
 25 26  1  0
 26 27  1  0
 27 28  1  0
 28 29  2  0
 29 30  1  0
 30 31  2  0
 31 32  1  0
 32 33  2  0
 27 34  1  0
 34 35  1  0
 20 36  2  0
  5 37  1  0
 37  2  1  0
 13  9  1  0
 36 16  1  0
 35 24  1  0
 33 28  1  0
  1 38  1  0
  1 39  1  0
  1 40  1  0
  3 41  1  0
  4 42  1  0
  6 43  1  0
  6 44  1  0
  7 45  1  1
  8 46  1  0
  8 47  1  0
 10 48  1  0
 11 49  1  0
 12 50  1  0
 17 51  1  0
 18 52  1  0
 19 53  1  0
 25 54  1  0
 25 55  1  0
 26 56  1  0
 26 57  1  0
 29 58  1  0
 30 59  1  0
 31 60  1  0
 32 61  1  0
 33 62  1  0
 34 63  1  0
 34 64  1  0
 35 65  1  0
 35 66  1  0
 36 67  1  0
M  CHG  1   7   1
M  END
>  <UniqueID>  (41) 
38

>  <SMILES>  (41) 
Cc1ccc(C[N@@H+](Cc2cccs2)C(=O)c2cccc(S(=O)(=O)N3CCN(c4ccccc4)CC3)c2)o1

>  <Energy>  (41) 
135.6084768520134

>  <Genealogy>  (41) 
Cc1ccc(C[NH+](Cc2cccs2)C(=O)c2cccc(S(=O)(=O)N3CCN(c4ccccc4)CC3)c2)o1 (protonated)
Cc1ccc(C[N@@H+](Cc2cccs2)C(=O)c2cccc(S(=O)(=O)N3CCN(c4ccccc4)CC3)c2)o1 (chirality)
Cc1ccc(C[N@@H+](Cc2cccs2)C(=O)c2cccc(S(=O)(=O)N3CCN(c4ccccc4)CC3)c2)o1 (3D coordinates assigned)
Cc1ccc(C[N@@H+](Cc2cccs2)C(=O)c2cccc(S(=O)(=O)N3CCN(c4ccccc4)CC3)c2)o1 (nonaromatic ring conformer: 135.6084768520134 kcal/mol)

>  <smiles>  (41) 
Cc1ccc(CN(Cc2cccs2)C(=O)c2cccc(S(=O)(=O)N3CCN(c4ccccc4)CC3)c2)o1

>  <score_type>  (41) 
oracle

>  <origin>  (41) 
adg

>  <m_score__min__energy>  (41) 
-8.5099999999999998

>  <m_primary>  (41) 
energy

$$$$
41:0
     RDKit          3D

 66 69  0  0  0  0  0  0  0  0999 V2000
   50.5230   33.4030   53.3820 C   0  0  0  0  0  0  0  0  0  0  0  0
   50.7180   33.1170   52.0050 O   0  0  0  0  0  0  0  0  0  0  0  0
   51.3730   31.9750   51.5150 C   0  0  0  0  0  0  0  0  0  0  0  0
   52.2440   31.2060   52.3120 C   0  0  0  0  0  0  0  0  0  0  0  0
   52.8920   30.0780   51.7810 C   0  0  0  0  0  0  0  0  0  0  0  0
   53.8260   29.2550   52.6430 C   0  0  0  0  0  0  0  0  0  0  0  0
   55.2470   29.6550   52.5390 N   0  0  0  0  0  0  0  0  0  0  0  0
   55.9500   29.6750   53.8430 C   0  0  0  0  0  0  0  0  0  0  0  0
   57.3160   30.3900   53.7620 C   0  0  0  0  0  0  0  0  0  0  0  0
   57.8110   30.4120   52.3780 N   0  0  0  0  0  0  0  0  0  0  0  0
   59.0340   29.7300   52.0280 C   0  0  0  0  0  0  0  0  0  0  0  0
   59.4260   28.7530   52.7230 O   0  0  0  0  0  0  0  0  0  0  0  0
   59.8270   30.1260   50.8450 C   0  0  0  0  0  0  0  0  0  0  0  0
   61.1420   30.5830   50.9850 C   0  0  0  0  0  0  0  0  0  0  0  0
   61.8860   30.9440   49.8610 C   0  0  0  0  0  0  0  0  0  0  0  0
   61.3350   30.8450   48.5730 C   0  0  0  0  0  0  0  0  0  0  0  0
   62.1710   31.2460   47.3850 C   0  0  0  0  0  0  0  0  0  0  0  0
   60.0050   30.3820   48.4240 C   0  0  0  0  0  0  0  0  0  0  0  0
   59.2480   30.2190   46.8310 S   0  0  0  0  0  0  0  0  0  0  0  0
   60.2830   29.8390   45.8040 O   0  0  0  0  0  0  0  0  0  0  0  0
   58.2120   29.1300   46.8900 O   0  0  0  0  0  0  0  0  0  0  0  0
   58.4970   31.7260   46.3780 N   0  0  0  0  0  0  0  0  0  0  0  0
   58.4420   31.8420   44.9110 C   0  0  0  0  0  0  0  0  0  0  0  0
   57.6610   33.1010   44.4820 C   0  0  0  0  0  0  0  0  0  0  0  0
   57.4250   34.0710   45.6480 C   0  0  0  0  0  0  0  0  0  0  0  0
   58.6920   34.2200   46.4980 C   0  0  0  0  0  0  0  0  0  0  0  0
   59.2450   32.8530   46.9630 C   0  0  0  0  0  0  0  0  0  0  0  0
   59.2710   30.0130   49.5630 C   0  0  0  0  0  0  0  0  0  0  0  0
   56.9330   30.9500   51.3270 C   0  0  0  0  0  0  0  0  0  0  0  0
   55.4630   30.8880   51.7610 C   0  0  0  0  0  0  0  0  0  0  0  0
   52.6460   29.7090   50.4490 C   0  0  0  0  0  0  0  0  0  0  0  0
   51.7810   30.4660   49.6570 C   0  0  0  0  0  0  0  0  0  0  0  0
   51.1470   31.5930   50.1840 C   0  0  0  0  0  0  0  0  0  0  0  0
   50.2860   32.3340   49.3810 O   0  0  0  0  0  0  0  0  0  0  0  0
   51.0392   32.6458   53.9904 H   0  0  0  0  0  0  0  0  0  0  0  0
   50.9314   34.3983   53.6112 H   0  0  0  0  0  0  0  0  0  0  0  0
   49.4473   33.3864   53.6112 H   0  0  0  0  0  0  0  0  0  0  0  0
   52.4184   31.4914   53.3599 H   0  0  0  0  0  0  0  0  0  0  0  0
   53.5124   29.3607   53.6920 H   0  0  0  0  0  0  0  0  0  0  0  0
   53.7595   28.2171   52.2847 H   0  0  0  0  0  0  0  0  0  0  0  0
   55.3196   30.1989   54.5766 H   0  0  0  0  0  0  0  0  0  0  0  0
   56.1334   28.6325   54.1422 H   0  0  0  0  0  0  0  0  0  0  0  0
   57.2043   31.4235   54.1218 H   0  0  0  0  0  0  0  0  0  0  0  0
   58.0381   29.8438   54.3867 H   0  0  0  0  0  0  0  0  0  0  0  0
   61.5916   30.6581   51.9861 H   0  0  0  0  0  0  0  0  0  0  0  0
   62.9158   31.3103   49.9852 H   0  0  0  0  0  0  0  0  0  0  0  0
   63.1116   31.6972   47.7340 H   0  0  0  0  0  0  0  0  0  0  0  0
   62.3943   30.3570   46.7769 H   0  0  0  0  0  0  0  0  0  0  0  0
   61.6174   31.9766   46.7769 H   0  0  0  0  0  0  0  0  0  0  0  0
   59.4671   31.9036   44.5169 H   0  0  0  0  0  0  0  0  0  0  0  0
   57.9258   30.9573   44.5099 H   0  0  0  0  0  0  0  0  0  0  0  0
   58.2330   33.6218   43.7000 H   0  0  0  0  0  0  0  0  0  0  0  0
   56.6771   32.7751   44.1135 H   0  0  0  0  0  0  0  0  0  0  0  0
   57.1424   35.0553   45.2465 H   0  0  0  0  0  0  0  0  0  0  0  0
   56.6204   33.6704   46.2822 H   0  0  0  0  0  0  0  0  0  0  0  0
   59.4622   34.7293   45.9002 H   0  0  0  0  0  0  0  0  0  0  0  0
   58.4320   34.8026   47.3941 H   0  0  0  0  0  0  0  0  0  0  0  0
   60.2994   32.7748   46.6596 H   0  0  0  0  0  0  0  0  0  0  0  0
   59.1401   32.7987   48.0566 H   0  0  0  0  0  0  0  0  0  0  0  0
   58.2462   29.6302   49.4477 H   0  0  0  0  0  0  0  0  0  0  0  0
   57.2068   31.9969   51.1292 H   0  0  0  0  0  0  0  0  0  0  0  0
   57.0583   30.3433   50.4180 H   0  0  0  0  0  0  0  0  0  0  0  0
   55.2242   31.7635   52.3826 H   0  0  0  0  0  0  0  0  0  0  0  0
   54.8121   30.8882   50.8743 H   0  0  0  0  0  0  0  0  0  0  0  0
   53.1370   28.8194   50.0276 H   0  0  0  0  0  0  0  0  0  0  0  0
   51.5979   30.1733   48.6126 H   0  0  0  0  0  0  0  0  0  0  0  0
  1  2  1  0
  2  3  1  0
  3  4  2  0
  4  5  1  0
  5  6  1  0
  6  7  1  0
  7  8  1  0
  8  9  1  0
  9 10  1  0
 10 11  1  0
 11 12  2  0
 11 13  1  0
 13 14  2  0
 14 15  1  0
 15 16  2  0
 16 17  1  0
 16 18  1  0
 18 19  1  0
 19 20  2  0
 19 21  2  0
 19 22  1  0
 22 23  1  0
 23 24  1  0
 24 25  1  0
 25 26  1  0
 26 27  1  0
 18 28  2  0
 10 29  1  0
 29 30  1  0
  5 31  2  0
 31 32  1  0
 32 33  2  0
 33 34  1  0
 33  3  1  0
 30  7  1  0
 28 13  1  0
 27 22  1  0
  1 35  1  0
  1 36  1  0
  1 37  1  0
  4 38  1  0
  6 39  1  0
  6 40  1  0
  8 41  1  0
  8 42  1  0
  9 43  1  0
  9 44  1  0
 14 45  1  0
 15 46  1  0
 17 47  1  0
 17 48  1  0
 17 49  1  0
 23 50  1  0
 23 51  1  0
 24 52  1  0
 24 53  1  0
 25 54  1  0
 25 55  1  0
 26 56  1  0
 26 57  1  0
 27 58  1  0
 27 59  1  0
 28 60  1  0
 29 61  1  0
 29 62  1  0
 30 63  1  0
 30 64  1  0
 31 65  1  0
 32 66  1  0
M  CHG  1  34  -1
M  END
>  <UniqueID>  (42) 
39

>  <SMILES>  (42) 
COc1cc(CN2CCN(C(=O)c3ccc(C)c(S(=O)(=O)N4CCCCC4)c3)CC2)ccc1[O-]

>  <Energy>  (42) 
85.1450380862415

>  <Genealogy>  (42) 
COc1cc(CN2CCN(C(=O)c3ccc(C)c(S(=O)(=O)N4CCCCC4)c3)CC2)ccc1[O-] (protonated)
COc1cc(CN2CCN(C(=O)c3ccc(C)c(S(=O)(=O)N4CCCCC4)c3)CC2)ccc1[O-] (3D coordinates assigned)
COc1cc(CN2CCN(C(=O)c3ccc(C)c(S(=O)(=O)N4CCCCC4)c3)CC2)ccc1[O-] (nonaromatic ring conformer: 85.1450380862415 kcal/mol)

>  <smiles>  (42) 
COc1cc(CN2CCN(C(=O)c3ccc(C)c(S(=O)(=O)N4CCCCC4)c3)CC2)ccc1O

>  <score_type>  (42) 
oracle

>  <origin>  (42) 
adg

>  <m_score__min__energy>  (42) 
-16.52

>  <m_primary>  (42) 
energy

$$$$
42:0
     RDKit          3D

 47 48  0  0  0  0  0  0  0  0999 V2000
   57.0160   34.1230   44.8740 C   0  0  0  0  0  0  0  0  0  0  0  0
   57.8390   33.1520   45.6750 C   0  0  0  0  0  0  0  0  0  0  0  0
   58.7700   33.6500   46.6030 C   0  0  0  0  0  0  0  0  0  0  0  0
   59.5210   32.7770   47.3920 C   0  0  0  0  0  0  0  0  0  0  0  0
   59.3530   31.3970   47.2650 C   0  0  0  0  0  0  0  0  0  0  0  0
   58.4460   30.8870   46.3340 C   0  0  0  0  0  0  0  0  0  0  0  0
   57.7070   31.7510   45.5150 C   0  0  0  0  0  0  0  0  0  0  0  0
   56.8040   31.1800   44.5610 N   0  0  0  0  0  0  0  0  0  0  0  0
   56.3530   29.8220   44.6060 C   0  0  0  0  0  0  0  0  0  0  0  0
   55.1490   29.5560   44.8700 O   0  0  0  0  0  0  0  0  0  0  0  0
   57.3150   28.7130   44.3180 C   0  0  0  0  0  0  0  0  0  0  0  0
   57.0080   27.5460   45.1410 N   0  0  0  0  0  0  0  0  0  0  0  0
   57.7600   27.2130   46.3170 C   0  0  0  0  0  0  0  0  0  0  0  0
   58.7280   27.9340   46.6800 O   0  0  0  0  0  0  0  0  0  0  0  0
   57.4020   25.9970   47.1140 C   0  0  0  0  0  0  0  0  0  0  0  0
   56.0410   25.5640   46.7930 N   0  0  0  0  0  0  0  0  0  0  0  0
   55.8960   23.8350   46.9110 S   0  0  0  0  0  0  0  0  0  0  0  0
   56.9860   23.3120   47.8020 O   0  0  0  0  0  0  0  0  0  0  0  0
   54.5620   23.4990   47.5170 O   0  0  0  0  0  0  0  0  0  0  0  0
   56.0510   23.0810   45.3180 C   0  0  0  0  0  0  0  0  0  0  0  0
   55.1080   23.1060   44.2980 C   0  0  0  0  0  0  0  0  0  0  0  0
   53.7880   23.8050   44.3220 C   0  0  0  0  0  0  0  0  0  0  0  0
   55.5240   22.3860   43.2390 N   0  0  0  0  0  0  0  0  0  0  0  0
   56.7440   21.9170   43.5640 C   0  0  0  0  0  0  0  0  0  0  0  0
   57.5580   21.0800   42.6320 C   0  0  0  0  0  0  0  0  0  0  0  0
   57.1160   22.3290   44.8380 C   0  0  0  0  0  0  0  0  0  0  0  0
   58.4100   22.0640   45.5000 C   0  0  0  0  0  0  0  0  0  0  0  0
   59.4300   22.7390   45.2090 O   0  0  0  0  0  0  0  0  0  0  0  0
   58.5250   21.0360   46.4260 O   0  0  0  0  0  0  0  0  0  0  0  0
   56.4582   34.7811   45.5565 H   0  0  0  0  0  0  0  0  0  0  0  0
   57.6791   34.7298   44.2398 H   0  0  0  0  0  0  0  0  0  0  0  0
   56.3088   33.5683   44.2398 H   0  0  0  0  0  0  0  0  0  0  0  0
   58.9078   34.7362   46.7083 H   0  0  0  0  0  0  0  0  0  0  0  0
   60.2467   33.1773   48.1153 H   0  0  0  0  0  0  0  0  0  0  0  0
   59.9351   30.7114   47.8983 H   0  0  0  0  0  0  0  0  0  0  0  0
   58.3106   29.7992   46.2428 H   0  0  0  0  0  0  0  0  0  0  0  0
   57.2421   28.4367   43.2558 H   0  0  0  0  0  0  0  0  0  0  0  0
   58.3342   29.0554   44.5505 H   0  0  0  0  0  0  0  0  0  0  0  0
   56.2180   26.9250   44.8530 H   0  0  0  0  0  0  0  0  0  0  0  0
   58.1066   25.1865   46.8762 H   0  0  0  0  0  0  0  0  0  0  0  0
   57.4574   26.2411   48.1851 H   0  0  0  0  0  0  0  0  0  0  0  0
   53.4787   23.9688   45.3648 H   0  0  0  0  0  0  0  0  0  0  0  0
   53.8770   24.7742   43.8094 H   0  0  0  0  0  0  0  0  0  0  0  0
   53.0363   23.1867   43.8094 H   0  0  0  0  0  0  0  0  0  0  0  0
   58.2089   20.4107   43.2138 H   0  0  0  0  0  0  0  0  0  0  0  0
   56.8884   20.4803   41.9980 H   0  0  0  0  0  0  0  0  0  0  0  0
   58.1761   21.7327   41.9980 H   0  0  0  0  0  0  0  0  0  0  0  0
  1  2  1  0
  2  3  2  0
  3  4  1  0
  4  5  2  0
  5  6  1  0
  6  7  2  0
  7  8  1  0
  8  9  1  0
  9 10  2  0
  9 11  1  0
 11 12  1  0
 12 13  1  0
 13 14  2  0
 13 15  1  0
 15 16  1  0
 16 17  1  0
 17 18  2  0
 17 19  2  0
 17 20  1  0
 20 21  2  0
 21 22  1  0
 21 23  1  0
 23 24  1  0
 24 25  1  0
 24 26  2  0
 26 27  1  0
 27 28  2  0
 27 29  1  0
  7  2  1  0
 26 20  1  0
  1 30  1  0
  1 31  1  0
  1 32  1  0
  3 33  1  0
  4 34  1  0
  5 35  1  0
  6 36  1  0
 11 37  1  0
 11 38  1  0
 12 39  1  0
 15 40  1  0
 15 41  1  0
 22 42  1  0
 22 43  1  0
 22 44  1  0
 25 45  1  0
 25 46  1  0
 25 47  1  0
M  CHG  4   8  -1  16  -1  23  -1  29  -1
M  END
>  <UniqueID>  (43) 
40

>  <SMILES>  (43) 
Cc1ccccc1[N-]C(=O)CNC(=O)C[N-]S(=O)(=O)c1c(C)[n-]c(C)c1C(=O)[O-]

>  <Energy>  (43) 
75.03327564799507

>  <Genealogy>  (43) 
Cc1ccccc1[N-]C(=O)CNC(=O)C[N-]S(=O)(=O)c1c(C)[n-]c(C)c1C(=O)[O-] (protonated)
Cc1ccccc1[N-]C(=O)CNC(=O)C[N-]S(=O)(=O)c1c(C)[n-]c(C)c1C(=O)[O-] (3D coordinates assigned)
Cc1ccccc1[N-]C(=O)CNC(=O)C[N-]S(=O)(=O)c1c(C)[n-]c(C)c1C(=O)[O-] (optimized conformer: 75.03327564799507 kcal/mol)

>  <smiles>  (43) 
Cc1ccccc1NC(=O)CNC(=O)CNS(=O)(=O)c1c(C)[nH]c(C)c1C(=O)O

>  <score_type>  (43) 
oracle

>  <origin>  (43) 
adg

>  <m_score__min__energy>  (43) 
-14.800000000000001

>  <m_primary>  (43) 
energy

$$$$
43:0
     RDKit          3D

 48 50  0  0  0  0  0  0  0  0999 V2000
   56.1760   26.0020   46.7490 O   0  0  0  0  0  0  0  0  0  0  0  0
   57.0880   26.8340   46.4980 C   0  0  0  0  0  0  0  0  0  0  0  0
   57.0230   27.6510   45.2340 C   0  0  0  0  0  0  0  0  0  0  0  0
   55.8500   28.5180   45.2380 N   0  0  0  0  0  0  0  0  0  0  0  0
   55.7440   29.7180   44.4670 C   0  0  0  0  0  0  0  0  0  0  0  0
   55.0120   29.7300   43.4440 O   0  0  0  0  0  0  0  0  0  0  0  0
   56.4690   30.8920   44.8530 N   0  0  0  0  0  0  0  0  0  0  0  0
   57.7730   30.8570   45.5050 C   0  0  0  0  0  0  0  0  0  0  0  0
   58.2700   32.2570   45.7410 C   0  0  0  0  0  0  0  0  0  0  0  0
   58.5270   33.1030   44.6490 C   0  0  0  0  0  0  0  0  0  0  0  0
   59.0140   34.3960   44.8600 C   0  0  0  0  0  0  0  0  0  0  0  0
   59.2540   34.8540   46.1590 C   0  0  0  0  0  0  0  0  0  0  0  0
   59.7390   36.1410   46.3580 O   0  0  0  0  0  0  0  0  0  0  0  0
   59.0070   34.0160   47.2540 C   0  0  0  0  0  0  0  0  0  0  0  0
   59.2520   34.4790   48.5460 O   0  0  0  0  0  0  0  0  0  0  0  0
   58.5180   32.7190   47.0440 C   0  0  0  0  0  0  0  0  0  0  0  0
   58.1830   26.9520   47.4160 N   0  0  0  0  0  0  0  0  0  0  0  0
   59.0600   28.0770   47.5620 C   0  0  0  0  0  0  0  0  0  0  0  0
   58.9700   28.8620   48.7150 C   0  0  0  0  0  0  0  0  0  0  0  0
   59.7900   29.9820   48.8770 C   0  0  0  0  0  0  0  0  0  0  0  0
   60.7070   30.3500   47.8750 C   0  0  0  0  0  0  0  0  0  0  0  0
   61.5590   31.5090   48.0410 N   0  0  0  0  0  0  0  0  0  0  0  0
   61.4130   32.4790   49.1180 C   0  0  0  0  0  0  0  0  0  0  0  0
   62.3970   33.5980   48.8070 C   0  0  0  0  0  0  0  0  0  0  0  0
   63.3830   33.0160   47.8020 C   0  0  0  0  0  0  0  0  0  0  0  0
   62.6660   31.8380   47.1560 C   0  0  0  0  0  0  0  0  0  0  0  0
   60.7720   29.5720   46.7030 C   0  0  0  0  0  0  0  0  0  0  0  0
   59.9510   28.4530   46.5450 C   0  0  0  0  0  0  0  0  0  0  0  0
   57.9290   28.2702   45.1577 H   0  0  0  0  0  0  0  0  0  0  0  0
   56.9534   26.9672   44.3751 H   0  0  0  0  0  0  0  0  0  0  0  0
   57.6839   30.3351   46.4692 H   0  0  0  0  0  0  0  0  0  0  0  0
   58.4858   30.3261   44.8568 H   0  0  0  0  0  0  0  0  0  0  0  0
   58.3443   32.7465   43.6245 H   0  0  0  0  0  0  0  0  0  0  0  0
   59.2091   35.0553   44.0014 H   0  0  0  0  0  0  0  0  0  0  0  0
   59.4390   35.4580   48.7320 H   0  0  0  0  0  0  0  0  0  0  0  0
   58.3276   32.0600   47.9039 H   0  0  0  0  0  0  0  0  0  0  0  0
   58.2480   28.5961   49.5011 H   0  0  0  0  0  0  0  0  0  0  0  0
   59.7180   30.5816   49.7964 H   0  0  0  0  0  0  0  0  0  0  0  0
   60.3850   32.8697   49.1445 H   0  0  0  0  0  0  0  0  0  0  0  0
   61.6136   32.0258   50.1000 H   0  0  0  0  0  0  0  0  0  0  0  0
   61.8711   34.4607   48.3721 H   0  0  0  0  0  0  0  0  0  0  0  0
   62.9064   33.9532   49.7149 H   0  0  0  0  0  0  0  0  0  0  0  0
   63.6460   33.7678   47.0433 H   0  0  0  0  0  0  0  0  0  0  0  0
   64.3203   32.7047   48.2864 H   0  0  0  0  0  0  0  0  0  0  0  0
   62.2898   32.1183   46.1611 H   0  0  0  0  0  0  0  0  0  0  0  0
   63.3414   30.9806   47.0192 H   0  0  0  0  0  0  0  0  0  0  0  0
   61.4761   29.8481   45.9042 H   0  0  0  0  0  0  0  0  0  0  0  0
   60.0031   27.8631   45.6180 H   0  0  0  0  0  0  0  0  0  0  0  0
  1  2  2  0
  2  3  1  0
  3  4  1  0
  4  5  1  0
  5  6  2  0
  5  7  1  0
  7  8  1  0
  8  9  1  0
  9 10  2  0
 10 11  1  0
 11 12  2  0
 12 13  1  0
 12 14  1  0
 14 15  1  0
 14 16  2  0
  2 17  1  0
 17 18  1  0
 18 19  2  0
 19 20  1  0
 20 21  2  0
 21 22  1  0
 22 23  1  0
 23 24  1  0
 24 25  1  0
 25 26  1  0
 21 27  1  0
 27 28  2  0
 16  9  1  0
 28 18  1  0
 26 22  1  0
  3 29  1  0
  3 30  1  0
  8 31  1  0
  8 32  1  0
 10 33  1  0
 11 34  1  0
 15 35  1  0
 16 36  1  0
 19 37  1  0
 20 38  1  0
 23 39  1  0
 23 40  1  0
 24 41  1  0
 24 42  1  0
 25 43  1  0
 25 44  1  0
 26 45  1  0
 26 46  1  0
 27 47  1  0
 28 48  1  0
M  CHG  4   4  -1   7  -1  13  -1  17  -1
M  END
>  <UniqueID>  (44) 
41

>  <SMILES>  (44) 
O=C(C[N-]C(=O)[N-]Cc1ccc([O-])c(O)c1)[N-]c1ccc(N2CCCC2)cc1

>  <Energy>  (44) 
50.24490578962388

>  <Genealogy>  (44) 
O=C(C[N-]C(=O)[N-]Cc1ccc([O-])c(O)c1)[N-]c1ccc(N2CCCC2)cc1 (protonated)
O=C(C[N-]C(=O)[N-]Cc1ccc([O-])c(O)c1)[N-]c1ccc(N2CCCC2)cc1 (3D coordinates assigned)
O=C(C[N-]C(=O)[N-]Cc1ccc([O-])c(O)c1)[N-]c1ccc(N2CCCC2)cc1 (nonaromatic ring conformer: 50.24490578962388 kcal/mol)

>  <smiles>  (44) 
O=C(CNC(=O)NCc1ccc(O)c(O)c1)Nc1ccc(N2CCCC2)cc1

>  <score_type>  (44) 
oracle

>  <origin>  (44) 
adg

>  <m_score__min__energy>  (44) 
-15.289999999999999

>  <m_primary>  (44) 
energy

$$$$
44:0
     RDKit          3D

 68 71  0  0  0  0  0  0  0  0999 V2000
   59.6970   35.4090   46.1710 C   0  0  0  0  0  0  0  0  0  0  0  0
   58.9760   34.4430   47.1140 C   0  0  0  0  0  0  0  0  0  0  0  0
   59.8490   34.1080   48.3280 C   0  0  0  0  0  0  0  0  0  0  0  0
   58.5780   33.1930   46.3720 C   0  0  0  0  0  0  0  0  0  0  0  0
   58.6000   32.0790   46.9670 O   0  0  0  0  0  0  0  0  0  0  0  0
   58.2610   33.2600   44.9730 N   0  0  0  0  0  0  0  0  0  0  0  0
   57.6710   32.1810   44.2280 C   0  0  0  0  0  0  0  0  0  0  0  0
   57.6420   32.2490   42.8280 C   0  0  0  0  0  0  0  0  0  0  0  0
   57.0360   31.2350   42.0840 C   0  0  0  0  0  0  0  0  0  0  0  0
   56.4480   30.1470   42.7320 C   0  0  0  0  0  0  0  0  0  0  0  0
   56.4680   30.0570   44.1280 C   0  0  0  0  0  0  0  0  0  0  0  0
   55.8180   28.9410   44.7540 N   0  0  0  0  0  0  0  0  0  0  0  0
   56.4490   27.9100   45.5240 C   0  0  0  0  0  0  0  0  0  0  0  0
   55.8980   26.7830   45.6560 O   0  0  0  0  0  0  0  0  0  0  0  0
   57.7230   28.1960   46.2090 C   0  0  0  0  0  0  0  0  0  0  0  0
   58.8880   28.5050   45.4900 C   0  0  0  0  0  0  0  0  0  0  0  0
   60.0750   28.7590   46.1790 C   0  0  0  0  0  0  0  0  0  0  0  0
   60.1050   28.6990   47.5750 C   0  0  0  0  0  0  0  0  0  0  0  0
   61.3080   28.9740   48.2420 O   0  0  0  0  0  0  0  0  0  0  0  0
   61.5140   30.0140   49.1610 C   0  0  0  0  0  0  0  0  0  0  0  0
   62.1260   31.2250   48.7910 C   0  0  0  0  0  0  0  0  0  0  0  0
   62.3040   32.2430   49.7330 C   0  0  0  0  0  0  0  0  0  0  0  0
   61.8580   32.0680   51.0490 C   0  0  0  0  0  0  0  0  0  0  0  0
   62.0680   33.3400   52.2500 S   0  0  0  0  0  0  0  0  0  0  0  0
   62.7810   34.5170   51.6410 O   0  0  0  0  0  0  0  0  0  0  0  0
   62.8990   32.7990   53.3810 O   0  0  0  0  0  0  0  0  0  0  0  0
   60.5050   33.8450   52.8450 N   0  0  0  0  0  0  0  0  0  0  0  0
   60.1040   33.0490   54.0300 C   0  0  0  0  0  0  0  0  0  0  0  0
   59.0480   31.9870   53.6950 C   0  0  0  0  0  0  0  0  0  0  0  0
   57.8220   32.6050   53.1410 N   0  0  0  0  0  0  0  0  0  0  0  0
   57.0260   31.5970   52.4230 C   0  0  0  0  0  0  0  0  0  0  0  0
   58.0850   33.7930   52.2910 C   0  0  0  0  0  0  0  0  0  0  0  0
   59.5200   33.8150   51.7450 C   0  0  0  0  0  0  0  0  0  0  0  0
   61.2290   30.8720   51.4140 C   0  0  0  0  0  0  0  0  0  0  0  0
   61.0530   29.8530   50.4720 C   0  0  0  0  0  0  0  0  0  0  0  0
   58.9130   28.4130   48.2610 C   0  0  0  0  0  0  0  0  0  0  0  0
   57.7700   28.1650   47.5700 N   0  0  0  0  0  0  0  0  0  0  0  0
   57.0600   31.0910   44.8770 C   0  0  0  0  0  0  0  0  0  0  0  0
   60.2520   36.1525   46.7619 H   0  0  0  0  0  0  0  0  0  0  0  0
   60.3984   34.8472   45.5367 H   0  0  0  0  0  0  0  0  0  0  0  0
   58.9589   35.9216   45.5367 H   0  0  0  0  0  0  0  0  0  0  0  0
   58.0637   34.9326   47.4855 H   0  0  0  0  0  0  0  0  0  0  0  0
   59.2908   34.3222   49.2513 H   0  0  0  0  0  0  0  0  0  0  0  0
   60.1197   33.0421   48.3021 H   0  0  0  0  0  0  0  0  0  0  0  0
   60.7632   34.7192   48.3021 H   0  0  0  0  0  0  0  0  0  0  0  0
   58.5560   34.1150   44.4470 H   0  0  0  0  0  0  0  0  0  0  0  0
   58.0995   33.1064   42.3127 H   0  0  0  0  0  0  0  0  0  0  0  0
   57.0217   31.2933   40.9856 H   0  0  0  0  0  0  0  0  0  0  0  0
   55.9655   29.3548   42.1406 H   0  0  0  0  0  0  0  0  0  0  0  0
   58.8658   28.5467   44.3910 H   0  0  0  0  0  0  0  0  0  0  0  0
   60.9901   29.0073   45.6213 H   0  0  0  0  0  0  0  0  0  0  0  0
   62.4664   31.3721   47.7554 H   0  0  0  0  0  0  0  0  0  0  0  0
   62.7951   33.1827   49.4399 H   0  0  0  0  0  0  0  0  0  0  0  0
   60.9945   32.5456   54.4345 H   0  0  0  0  0  0  0  0  0  0  0  0
   59.6620   33.7402   54.7628 H   0  0  0  0  0  0  0  0  0  0  0  0
   59.4641   31.2890   52.9536 H   0  0  0  0  0  0  0  0  0  0  0  0
   58.7820   31.4569   54.6214 H   0  0  0  0  0  0  0  0  0  0  0  0
   56.5140   30.9487   53.1493 H   0  0  0  0  0  0  0  0  0  0  0  0
   56.2796   32.1010   51.7915 H   0  0  0  0  0  0  0  0  0  0  0  0
   57.6893   30.9878   51.7915 H   0  0  0  0  0  0  0  0  0  0  0  0
   57.3844   33.7829   51.4431 H   0  0  0  0  0  0  0  0  0  0  0  0
   57.9494   34.6888   52.9148 H   0  0  0  0  0  0  0  0  0  0  0  0
   59.6873   32.9137   51.1370 H   0  0  0  0  0  0  0  0  0  0  0  0
   59.6487   34.7212   51.1349 H   0  0  0  0  0  0  0  0  0  0  0  0
   60.8719   30.7330   52.4451 H   0  0  0  0  0  0  0  0  0  0  0  0
   60.5492   28.9197   50.7637 H   0  0  0  0  0  0  0  0  0  0  0  0
   58.9051   28.3898   49.3607 H   0  0  0  0  0  0  0  0  0  0  0  0
   57.0453   31.0474   45.9760 H   0  0  0  0  0  0  0  0  0  0  0  0
  1  2  1  0
  2  3  1  0
  2  4  1  0
  4  5  2  0
  4  6  1  0
  6  7  1  0
  7  8  2  0
  8  9  1  0
  9 10  2  0
 10 11  1  0
 11 12  1  0
 12 13  1  0
 13 14  2  0
 13 15  1  0
 15 16  2  0
 16 17  1  0
 17 18  2  0
 18 19  1  0
 19 20  1  0
 20 21  2  0
 21 22  1  0
 22 23  2  0
 23 24  1  0
 24 25  2  0
 24 26  2  0
 24 27  1  0
 27 28  1  0
 28 29  1  0
 29 30  1  0
 30 31  1  0
 30 32  1  0
 32 33  1  0
 23 34  1  0
 34 35  2  0
 18 36  1  0
 36 37  2  0
 11 38  2  0
 38  7  1  0
 37 15  1  0
 35 20  1  0
 33 27  1  0
  1 39  1  0
  1 40  1  0
  1 41  1  0
  2 42  1  0
  3 43  1  0
  3 44  1  0
  3 45  1  0
  6 46  1  0
  8 47  1  0
  9 48  1  0
 10 49  1  0
 16 50  1  0
 17 51  1  0
 21 52  1  0
 22 53  1  0
 28 54  1  0
 28 55  1  0
 29 56  1  0
 29 57  1  0
 31 58  1  0
 31 59  1  0
 31 60  1  0
 32 61  1  0
 32 62  1  0
 33 63  1  0
 33 64  1  0
 34 65  1  0
 35 66  1  0
 36 67  1  0
 38 68  1  0
M  CHG  1  12  -1
M  END
>  <UniqueID>  (45) 
42

>  <SMILES>  (45) 
CC(C)C(=O)Nc1cccc([N-]C(=O)c2ccc(Oc3ccc(S(=O)(=O)N4CCN(C)CC4)cc3)cn2)c1

>  <Energy>  (45) 
89.77065912600445

>  <Genealogy>  (45) 
CC(C)C(=O)Nc1cccc([N-]C(=O)c2ccc(Oc3ccc(S(=O)(=O)N4CCN(C)CC4)cc3)cn2)c1 (protonated)
CC(C)C(=O)Nc1cccc([N-]C(=O)c2ccc(Oc3ccc(S(=O)(=O)N4CCN(C)CC4)cc3)cn2)c1 (3D coordinates assigned)
CC(C)C(=O)Nc1cccc([N-]C(=O)c2ccc(Oc3ccc(S(=O)(=O)N4CCN(C)CC4)cc3)cn2)c1 (nonaromatic ring conformer: 89.77065912600445 kcal/mol)

>  <smiles>  (45) 
CC(C)C(=O)Nc1cccc(NC(=O)c2ccc(Oc3ccc(S(=O)(=O)N4CCN(C)CC4)cc3)cn2)c1

>  <score_type>  (45) 
oracle

>  <origin>  (45) 
adg

>  <m_score__min__energy>  (45) 
-11.380000000000001

>  <m_primary>  (45) 
energy

$$$$
45:0
     RDKit          3D

 55 58  0  0  0  0  0  0  0  0999 V2000
   60.7510   27.0760   47.0580 C   0  0  0  0  0  0  0  0  0  0  0  0
   59.6650   27.8070   46.3260 C   0  0  0  0  0  0  0  0  0  0  0  0
   58.3180   27.5100   46.5770 C   0  0  0  0  0  0  0  0  0  0  0  0
   57.3090   28.1660   45.8680 C   0  0  0  0  0  0  0  0  0  0  0  0
   57.6360   29.1200   44.8950 C   0  0  0  0  0  0  0  0  0  0  0  0
   56.3490   29.9480   44.0220 S   0  0  0  0  0  0  0  0  0  0  0  0
   55.0230   29.2910   44.2810 O   0  0  0  0  0  0  0  0  0  0  0  0
   56.6430   29.8860   42.5510 O   0  0  0  0  0  0  0  0  0  0  0  0
   56.2770   31.5860   44.5100 O   0  0  0  0  0  0  0  0  0  0  0  0
   57.3130   32.2800   45.1520 C   0  0  0  0  0  0  0  0  0  0  0  0
   57.7900   31.9310   46.4290 C   0  0  0  0  0  0  0  0  0  0  0  0
   58.8190   32.6680   47.0250 C   0  0  0  0  0  0  0  0  0  0  0  0
   59.3790   33.7620   46.3550 C   0  0  0  0  0  0  0  0  0  0  0  0
   60.4530   34.5440   46.9860 C   0  0  0  0  0  0  0  0  0  0  0  0
   61.6520   34.0750   47.1730 N   0  0  0  0  0  0  0  0  0  0  0  0
   62.0010   32.6980   47.5460 C   0  0  1  0  0  0  0  0  0  0  0  0
   63.5220   32.5020   47.3680 C   0  0  0  0  0  0  0  0  0  0  0  0
   64.3140   33.1220   48.5360 C   0  0  0  0  0  0  0  0  0  0  0  0
   63.9110   32.5520   49.9230 C   0  0  0  0  0  0  0  0  0  0  0  0
   62.5920   31.7440   49.8950 C   0  0  1  0  0  0  0  0  0  0  0  0
   62.1090   31.3850   51.2530 N   0  0  0  0  0  0  0  0  0  0  0  0
   61.3760   32.4520   51.9380 C   0  0  0  0  0  0  0  0  0  0  0  0
   59.9280   32.8340   51.0020 S   0  0  0  0  0  0  0  0  0  0  0  0
   58.8900   31.7620   51.1760 O   0  0  0  0  0  0  0  0  0  0  0  0
   59.3790   34.1640   51.4250 O   0  0  0  0  0  0  0  0  0  0  0  0
   60.4370   32.8970   49.3740 N   0  0  0  0  0  0  0  0  0  0  0  0
   61.5780   32.4390   48.9770 C   0  0  0  0  0  0  0  0  0  0  0  0
   58.9140   34.1090   45.0800 C   0  0  0  0  0  0  0  0  0  0  0  0
   57.8900   33.3680   44.4830 C   0  0  0  0  0  0  0  0  0  0  0  0
   58.9810   29.4070   44.6300 C   0  0  0  0  0  0  0  0  0  0  0  0
   59.9910   28.7470   45.3360 C   0  0  0  0  0  0  0  0  0  0  0  0
   60.5966   27.1799   48.1421 H   0  0  0  0  0  0  0  0  0  0  0  0
   60.7249   26.0109   46.7844 H   0  0  0  0  0  0  0  0  0  0  0  0
   61.7280   27.5011   46.7844 H   0  0  0  0  0  0  0  0  0  0  0  0
   58.0548   26.7576   47.3350 H   0  0  0  0  0  0  0  0  0  0  0  0
   56.2539   27.9329   46.0742 H   0  0  0  0  0  0  0  0  0  0  0  0
   57.3515   31.0742   46.9615 H   0  0  0  0  0  0  0  0  0  0  0  0
   59.1888   32.3872   48.0222 H   0  0  0  0  0  0  0  0  0  0  0  0
   60.2328   35.5705   47.3142 H   0  0  0  0  0  0  0  0  0  0  0  0
   61.4752   31.9798   46.8997 H   0  0  0  0  0  0  0  0  0  0  0  0
   63.7401   31.4249   47.3207 H   0  0  0  0  0  0  0  0  0  0  0  0
   63.8276   33.0056   46.4391 H   0  0  0  0  0  0  0  0  0  0  0  0
   65.3843   32.9252   48.3753 H   0  0  0  0  0  0  0  0  0  0  0  0
   64.0874   34.1983   48.5480 H   0  0  0  0  0  0  0  0  0  0  0  0
   64.7169   31.8920   50.2764 H   0  0  0  0  0  0  0  0  0  0  0  0
   63.7525   33.4097   50.5932 H   0  0  0  0  0  0  0  0  0  0  0  0
   62.7717   30.7563   49.4453 H   0  0  0  0  0  0  0  0  0  0  0  0
   62.9230   31.1070   51.8510 H   0  0  0  0  0  0  0  0  0  0  0  0
   61.4860   30.5460   51.1800 H   0  0  0  0  0  0  0  0  0  0  0  0
   61.0880   32.1159   52.9450 H   0  0  0  0  0  0  0  0  0  0  0  0
   62.0112   33.3456   52.0279 H   0  0  0  0  0  0  0  0  0  0  0  0
   59.3549   34.9651   44.5483 H   0  0  0  0  0  0  0  0  0  0  0  0
   57.5338   33.6414   43.4788 H   0  0  0  0  0  0  0  0  0  0  0  0
   59.2430   30.1529   43.8652 H   0  0  0  0  0  0  0  0  0  0  0  0
   61.0461   28.9654   45.1146 H   0  0  0  0  0  0  0  0  0  0  0  0
  1  2  1  0
  2  3  2  0
  3  4  1  0
  4  5  2  0
  5  6  1  0
  6  7  2  0
  6  8  2  0
  6  9  1  0
  9 10  1  0
 10 11  2  0
 11 12  1  0
 12 13  2  0
 13 14  1  0
 14 15  2  3
 15 16  1  0
 16 17  1  0
 17 18  1  0
 18 19  1  0
 19 20  1  0
 20 21  1  0
 21 22  1  0
 22 23  1  0
 23 24  2  0
 23 25  2  0
 23 26  1  0
 26 27  2  0
 13 28  1  0
 28 29  2  0
  5 30  1  0
 30 31  2  0
 31  2  1  0
 29 10  1  0
 27 16  1  0
 27 20  1  0
  1 32  1  0
  1 33  1  0
  1 34  1  0
  3 35  1  0
  4 36  1  0
 11 37  1  0
 12 38  1  0
 14 39  1  0
 16 40  1  6
 17 41  1  0
 17 42  1  0
 18 43  1  0
 18 44  1  0
 19 45  1  0
 19 46  1  0
 20 47  1  6
 21 48  1  0
 21 49  1  0
 22 50  1  0
 22 51  1  0
 28 52  1  0
 29 53  1  0
 30 54  1  0
 31 55  1  0
M  CHG  1  21   1
M  END
>  <UniqueID>  (46) 
43

>  <SMILES>  (46) 
Cc1ccc(S(=O)(=O)Oc2ccc(C=N[C@H]3CCC[C@H]4[NH2+]CS(=O)(=O)N=C34)cc2)cc1

>  <Energy>  (46) 
77.18293553043581

>  <Genealogy>  (46) 
Cc1ccc(S(=O)(=O)Oc2ccc(C=NC3CCCC4[NH2+]CS(=O)(=O)N=C34)cc2)cc1 (protonated)
Cc1ccc(S(=O)(=O)Oc2ccc(C=N[C@H]3CCC[C@H]4[NH2+]CS(=O)(=O)N=C34)cc2)cc1 (chirality)
Cc1ccc(S(=O)(=O)Oc2ccc(C=N[C@H]3CCC[C@H]4[NH2+]CS(=O)(=O)N=C34)cc2)cc1 (3D coordinates assigned)
Cc1ccc(S(=O)(=O)Oc2ccc(C=N[C@H]3CCC[C@H]4[NH2+]CS(=O)(=O)N=C34)cc2)cc1 (nonaromatic ring conformer: 77.18293553043581 kcal/mol)

>  <smiles>  (46) 
Cc1ccc(S(=O)(=O)Oc2ccc(C=NC3CCCC4NCS(=O)(=O)N=C34)cc2)cc1

>  <score_type>  (46) 
oracle

>  <origin>  (46) 
adg

>  <m_score__min__energy>  (46) 
-8.9600000000000009

>  <m_primary>  (46) 
energy

$$$$
46:0
     RDKit          3D

 51 54  0  0  0  0  0  0  0  0999 V2000
   54.9100   29.7890   51.6530 O   0  0  0  0  0  0  0  0  0  0  0  0
   54.5290   30.9260   52.0340 C   0  0  0  0  0  0  0  0  0  0  0  0
   53.0750   31.1370   52.3570 C   0  0  0  0  0  0  0  0  0  0  0  0
   52.2220   31.2130   51.1250 C   0  0  0  0  0  0  0  0  0  0  0  0
   52.2240   30.3190   50.1170 N   0  0  0  0  0  0  0  0  0  0  0  0
   51.3050   30.8130   49.2610 C   0  0  0  0  0  0  0  0  0  0  0  0
   51.0210   30.2470   48.1750 O   0  0  0  0  0  0  0  0  0  0  0  0
   50.7170   31.9620   49.6600 N   0  0  0  0  0  0  0  0  0  0  0  0
   51.3080   32.1990   50.8410 C   0  0  0  0  0  0  0  0  0  0  0  0
   51.0220   33.2990   51.6440 O   0  0  0  0  0  0  0  0  0  0  0  0
   55.5050   31.9620   52.2040 N   0  0  0  0  0  0  0  0  0  0  0  0
   56.9280   31.7870   52.2470 C   0  0  0  0  0  0  0  0  0  0  0  0
   57.7490   32.6450   52.9930 C   0  0  0  0  0  0  0  0  0  0  0  0
   59.1330   32.4630   53.0000 C   0  0  0  0  0  0  0  0  0  0  0  0
   59.7100   31.4360   52.2490 C   0  0  0  0  0  0  0  0  0  0  0  0
   58.9060   30.5880   51.4660 C   0  0  0  0  0  0  0  0  0  0  0  0
   59.5210   29.4900   50.6770 C   0  0  0  0  0  0  0  0  0  0  0  0
   59.9400   28.4510   51.2560 O   0  0  0  0  0  0  0  0  0  0  0  0
   59.6270   29.5870   49.2500 N   0  0  0  0  0  0  0  0  0  0  0  0
   58.8850   28.6450   48.4070 C   0  0  0  0  0  0  0  0  0  0  0  0
   58.2430   29.4000   47.2380 C   0  0  0  0  0  0  0  0  0  0  0  0
   59.1660   30.3930   46.6660 N   0  0  0  0  0  0  0  0  0  0  0  0
   58.6830   31.3010   45.6610 C   0  0  0  0  0  0  0  0  0  0  0  0
   58.6570   32.6830   45.9190 C   0  0  0  0  0  0  0  0  0  0  0  0
   58.1990   33.5720   44.9460 C   0  0  0  0  0  0  0  0  0  0  0  0
   57.7650   33.0950   43.7080 C   0  0  0  0  0  0  0  0  0  0  0  0
   57.7950   31.7260   43.4380 C   0  0  0  0  0  0  0  0  0  0  0  0
   58.2590   30.8240   44.4070 C   0  0  0  0  0  0  0  0  0  0  0  0
   58.3160   29.4600   44.1220 O   0  0  0  0  0  0  0  0  0  0  0  0
   60.5610   30.4590   47.1250 C   0  0  0  0  0  0  0  0  0  0  0  0
   60.6000   30.5180   48.6580 C   0  0  0  0  0  0  0  0  0  0  0  0
   57.5100   30.7740   51.4740 C   0  0  0  0  0  0  0  0  0  0  0  0
   52.7255   30.2989   52.9778 H   0  0  0  0  0  0  0  0  0  0  0  0
   52.9845   32.0961   52.8880 H   0  0  0  0  0  0  0  0  0  0  0  0
   57.3009   33.4641   53.5746 H   0  0  0  0  0  0  0  0  0  0  0  0
   59.7710   33.1300   53.5984 H   0  0  0  0  0  0  0  0  0  0  0  0
   60.8000   31.2896   52.2701 H   0  0  0  0  0  0  0  0  0  0  0  0
   59.5741   27.8818   48.0161 H   0  0  0  0  0  0  0  0  0  0  0  0
   58.0996   28.1591   49.0046 H   0  0  0  0  0  0  0  0  0  0  0  0
   57.9649   28.6782   46.4559 H   0  0  0  0  0  0  0  0  0  0  0  0
   57.3558   29.9300   47.6148 H   0  0  0  0  0  0  0  0  0  0  0  0
   58.9992   33.0649   46.8921 H   0  0  0  0  0  0  0  0  0  0  0  0
   58.1799   34.6518   45.1551 H   0  0  0  0  0  0  0  0  0  0  0  0
   57.3993   33.7981   42.9452 H   0  0  0  0  0  0  0  0  0  0  0  0
   57.4534   31.3528   42.4613 H   0  0  0  0  0  0  0  0  0  0  0  0
   58.5090   29.1200   43.1870 H   0  0  0  0  0  0  0  0  0  0  0  0
   61.1020   29.5656   46.7798 H   0  0  0  0  0  0  0  0  0  0  0  0
   61.0370   31.3615   46.7139 H   0  0  0  0  0  0  0  0  0  0  0  0
   61.6096   30.2489   49.0021 H   0  0  0  0  0  0  0  0  0  0  0  0
   60.3424   31.5395   48.9744 H   0  0  0  0  0  0  0  0  0  0  0  0
   56.8699   30.1169   50.8669 H   0  0  0  0  0  0  0  0  0  0  0  0
  1  2  2  0
  2  3  1  0
  3  4  1  0
  4  5  1  0
  5  6  1  0
  6  7  2  0
  6  8  1  0
  8  9  1  0
  9 10  1  0
  2 11  1  0
 11 12  1  0
 12 13  2  0
 13 14  1  0
 14 15  2  0
 15 16  1  0
 16 17  1  0
 17 18  2  0
 17 19  1  0
 19 20  1  0
 20 21  1  0
 21 22  1  0
 22 23  1  0
 23 24  2  0
 24 25  1  0
 25 26  2  0
 26 27  1  0
 27 28  2  0
 28 29  1  0
 22 30  1  0
 30 31  1  0
 16 32  2  0
  9  4  2  0
 32 12  1  0
 31 19  1  0
 28 23  1  0
  3 33  1  0
  3 34  1  0
 13 35  1  0
 14 36  1  0
 15 37  1  0
 20 38  1  0
 20 39  1  0
 21 40  1  0
 21 41  1  0
 24 42  1  0
 25 43  1  0
 26 44  1  0
 27 45  1  0
 29 46  1  0
 30 47  1  0
 30 48  1  0
 31 49  1  0
 31 50  1  0
 32 51  1  0
M  CHG  4   5  -1   8  -1  10  -1  11  -1
M  END
>  <UniqueID>  (47) 
44

>  <SMILES>  (47) 
O=C(Cc1[n-]c(=O)[n-]c1[O-])[N-]c1cccc(C(=O)N2CCN(c3ccccc3O)CC2)c1

>  <Energy>  (47) 
98.38214343941752

>  <Genealogy>  (47) 
O=C(Cc1[n-]c(=O)[n-]c1[O-])[N-]c1cccc(C(=O)N2CCN(c3ccccc3O)CC2)c1 (protonated)
O=C(Cc1[n-]c(=O)[n-]c1[O-])[N-]c1cccc(C(=O)N2CCN(c3ccccc3O)CC2)c1 (3D coordinates assigned)
O=C(Cc1[n-]c(=O)[n-]c1[O-])[N-]c1cccc(C(=O)N2CCN(c3ccccc3O)CC2)c1 (nonaromatic ring conformer: 98.38214343941752 kcal/mol)

>  <smiles>  (47) 
O=C(Cc1[nH]c(=O)[nH]c1O)Nc1cccc(C(=O)N2CCN(c3ccccc3O)CC2)c1

>  <score_type>  (47) 
oracle

>  <origin>  (47) 
adg

>  <m_score__min__energy>  (47) 
-18.940000000000001

>  <m_primary>  (47) 
energy

$$$$
47:0
     RDKit          3D

 55 58  0  0  0  0  0  0  0  0999 V2000
   54.5117   27.7700   54.5653 H   0  0  0  0  0  0  0  0  0  0  0  0
   53.9000   28.4630   53.9690 C   0  0  0  0  0  0  0  0  0  0  0  0
   52.8042   28.4507   54.0641 H   0  0  0  0  0  0  0  0  0  0  0  0
   54.4910   29.3240   53.1250 C   0  0  0  0  0  0  0  0  0  0  0  0
   53.8400   30.2560   52.3100 C   0  0  0  0  0  0  0  0  0  0  0  0
   52.5130   30.4500   52.1870 C   0  0  0  0  0  0  0  0  0  0  0  0
   51.8815   30.2727   53.0700 H   0  0  0  0  0  0  0  0  0  0  0  0
   51.8550   30.8850   50.9430 C   0  0  0  0  0  0  0  0  0  0  0  0
   51.7200   30.0930   49.8640 N   0  0  0  0  0  0  0  0  0  0  0  0
   51.0010   30.8490   49.0070 C   0  0  0  0  0  0  0  0  0  0  0  0
   50.6770   30.4500   47.8580 O   0  0  0  0  0  0  0  0  0  0  0  0
   50.6480   32.0630   49.4810 N   0  0  0  0  0  0  0  0  0  0  0  0
   51.1850   32.0660   50.7120 C   0  0  0  0  0  0  0  0  0  0  0  0
   51.0220   33.1080   51.6170 O   0  0  0  0  0  0  0  0  0  0  0  0
   54.8330   30.8950   51.5810 C   0  0  0  0  0  0  0  0  0  0  0  0
   54.6907   31.6830   50.8268 H   0  0  0  0  0  0  0  0  0  0  0  0
   56.0320   30.3500   51.9860 C   0  0  0  0  0  0  0  0  0  0  0  0
   57.3280   30.6720   51.3690 C   0  0  0  0  0  0  0  0  0  0  0  0
   58.1870   29.7650   51.2310 O   0  0  0  0  0  0  0  0  0  0  0  0
   57.6300   31.9960   50.9100 N   0  0  0  0  0  0  0  0  0  0  0  0
   58.9670   32.4780   50.5720 C   0  0  0  0  0  0  0  0  0  0  0  0
   59.2669   33.2479   51.2982 H   0  0  0  0  0  0  0  0  0  0  0  0
   59.6656   31.6289   50.6028 H   0  0  0  0  0  0  0  0  0  0  0  0
   58.9890   33.0710   49.1860 C   0  0  0  0  0  0  0  0  0  0  0  0
   59.8920   34.1010   48.8730 C   0  0  0  0  0  0  0  0  0  0  0  0
   60.5597   34.4995   49.6510 H   0  0  0  0  0  0  0  0  0  0  0  0
   59.9450   34.6210   47.5770 C   0  0  0  0  0  0  0  0  0  0  0  0
   60.6576   35.4236   47.3362 H   0  0  0  0  0  0  0  0  0  0  0  0
   59.0940   34.1230   46.5860 C   0  0  0  0  0  0  0  0  0  0  0  0
   59.1520   34.6230   45.3270 F   0  0  0  0  0  0  0  0  0  0  0  0
   58.1830   33.1090   46.8940 C   0  0  0  0  0  0  0  0  0  0  0  0
   57.5108   32.7201   46.1150 H   0  0  0  0  0  0  0  0  0  0  0  0
   58.1240   32.5880   48.1890 C   0  0  0  0  0  0  0  0  0  0  0  0
   57.3981   31.7971   48.4291 H   0  0  0  0  0  0  0  0  0  0  0  0
   55.8330   29.3950   52.9230 N   0  0  0  0  0  0  0  0  0  0  0  0
   56.8770   28.5700   53.5550 C   0  0  0  0  0  0  0  0  0  0  0  0
   56.5242   27.5301   53.6188 H   0  0  0  0  0  0  0  0  0  0  0  0
   57.7895   28.6305   52.9437 H   0  0  0  0  0  0  0  0  0  0  0  0
   57.1990   29.0770   54.9640 C   0  0  0  0  0  0  0  0  0  0  0  0
   56.2910   29.5092   55.4098 H   0  0  0  0  0  0  0  0  0  0  0  0
   57.5552   28.2335   55.5736 H   0  0  0  0  0  0  0  0  0  0  0  0
   58.2550   30.1100   54.9120 N   0  0  0  0  0  0  0  0  0  0  0  0
   57.6970   31.4370   54.5920 C   0  0  0  0  0  0  0  0  0  0  0  0
   57.2207   31.4012   53.6011 H   0  0  0  0  0  0  0  0  0  0  0  0
   56.9543   31.7072   55.3571 H   0  0  0  0  0  0  0  0  0  0  0  0
   58.8160   32.4990   54.5810 C   0  0  0  0  0  0  0  0  0  0  0  0
   58.7696   33.0527   53.6316 H   0  0  0  0  0  0  0  0  0  0  0  0
   58.6573   33.1657   55.4414 H   0  0  0  0  0  0  0  0  0  0  0  0
   60.1040   31.9210   54.7100 O   0  0  0  0  0  0  0  0  0  0  0  0
   60.2810   30.9280   53.7200 C   0  0  0  0  0  0  0  0  0  0  0  0
   60.1033   31.3721   52.7295 H   0  0  0  0  0  0  0  0  0  0  0  0
   61.3086   30.5421   53.7911 H   0  0  0  0  0  0  0  0  0  0  0  0
   59.3010   29.7560   53.9300 C   0  0  0  0  0  0  0  0  0  0  0  0
   58.8243   29.5092   52.9699 H   0  0  0  0  0  0  0  0  0  0  0  0
   59.8642   28.8926   54.3137 H   0  0  0  0  0  0  0  0  0  0  0  0
  1  2  1  0
  2  3  1  0
  2  4  2  0
  4  5  1  0
  5  6  2  0
  6  7  1  0
  6  8  1  0
  8  9  1  0
  9 10  1  0
 10 11  2  0
 10 12  1  0
 12 13  1  0
 13 14  1  0
  5 15  1  0
 15 16  1  0
 15 17  2  0
 17 18  1  0
 18 19  2  0
 18 20  1  0
 20 21  1  0
 21 22  1  0
 21 23  1  0
 21 24  1  0
 24 25  2  0
 25 26  1  0
 25 27  1  0
 27 28  1  0
 27 29  2  0
 29 30  1  0
 29 31  1  0
 31 32  1  0
 31 33  2  0
 33 34  1  0
 17 35  1  0
 35 36  1  0
 36 37  1  0
 36 38  1  0
 36 39  1  0
 39 40  1  0
 39 41  1  0
 39 42  1  0
 42 43  1  0
 43 44  1  0
 43 45  1  0
 43 46  1  0
 46 47  1  0
 46 48  1  0
 46 49  1  0
 49 50  1  0
 50 51  1  0
 50 52  1  0
 50 53  1  0
 53 54  1  0
 53 55  1  0
 35  4  1  0
 53 42  1  0
 13  8  2  0
 33 24  1  0
M  CHG  4   9  -1  12  -1  14  -1  20  -1
M  END
>  <UniqueID>  (48) 
45

>  <SMILES>  (48) 
C=c1/c(=C/c2[n-]c(=O)[n-]c2[O-])cc(C(=O)[N-]Cc2ccc(F)cc2)n1CCN1CCOCC1

>  <Energy>  (48) 
131.44604848792508

>  <Genealogy>  (48) 
C=c1c(=Cc2[n-]c(=O)[n-]c2[O-])cc(C(=O)[N-]Cc2ccc(F)cc2)n1CCN1CCOCC1 (protonated)
C=c1/c(=C/c2[n-]c(=O)[n-]c2[O-])cc(C(=O)[N-]Cc2ccc(F)cc2)n1CCN1CCOCC1 (cis-trans isomerization)
C=c1/c(=C/c2[n-]c(=O)[n-]c2[O-])cc(C(=O)[N-]Cc2ccc(F)cc2)n1CCN1CCOCC1 (3D coordinates assigned)
C=c1/c(=C/c2[n-]c(=O)[n-]c2[O-])cc(C(=O)[N-]Cc2ccc(F)cc2)n1CCN1CCOCC1 (nonaromatic ring conformer: 131.44604848792508 kcal/mol)

>  <smiles>  (48) 
C=c1c(=Cc2[nH]c(=O)[nH]c2O)cc(C(=O)NCc2ccc(F)cc2)n1CCN1CCOCC1

>  <score_type>  (48) 
oracle

>  <origin>  (48) 
adg

>  <m_score__min__energy>  (48) 
-17.73

>  <m_primary>  (48) 
energy

$$$$
48:0
     RDKit          3D

 43 45  0  0  0  0  0  0  0  0999 V2000
   58.6730   24.9090   45.8340 O   0  0  0  0  0  0  0  0  0  0  0  0
   57.7620   25.6700   45.3980 C   0  0  0  0  0  0  0  0  0  0  0  0
   57.9310   27.1390   45.5330 C   0  0  0  0  0  0  0  0  0  0  0  0
   59.2210   27.7020   45.5760 C   0  0  0  0  0  0  0  0  0  0  0  0
   59.3950   29.0860   45.6940 C   0  0  0  0  0  0  0  0  0  0  0  0
   60.7280   29.6150   45.7780 N   0  0  0  0  0  0  0  0  0  0  0  0
   61.2290   30.3490   46.7320 C   0  0  0  0  0  0  0  0  0  0  0  0
   60.4530   30.8700   47.8790 C   0  0  0  0  0  0  0  0  0  0  0  0
   59.9030   32.1560   47.8050 C   0  0  0  0  0  0  0  0  0  0  0  0
   59.1400   32.6610   48.8620 C   0  0  0  0  0  0  0  0  0  0  0  0
   58.8960   31.8800   50.0040 C   0  0  0  0  0  0  0  0  0  0  0  0
   58.1080   32.4030   51.0890 N   0  0  0  0  0  0  0  0  0  0  0  0
   58.4960   33.3970   51.7370 O   0  0  0  0  0  0  0  0  0  0  0  0
   56.9180   31.8080   51.4390 O   0  0  0  0  0  0  0  0  0  0  0  0
   59.4250   30.5780   50.0630 C   0  0  0  0  0  0  0  0  0  0  0  0
   60.1880   30.0740   49.0050 C   0  0  0  0  0  0  0  0  0  0  0  0
   58.2690   29.9140   45.8320 C   0  0  0  0  0  0  0  0  0  0  0  0
   56.9850   29.3650   45.8000 C   0  0  0  0  0  0  0  0  0  0  0  0
   56.8110   27.9860   45.6480 C   0  0  0  0  0  0  0  0  0  0  0  0
   55.5190   27.4700   45.6040 O   0  0  0  0  0  0  0  0  0  0  0  0
   56.6050   25.1020   44.7350 N   0  0  0  0  0  0  0  0  0  0  0  0
   56.9920   24.4670   43.4470 C   0  0  0  0  0  0  0  0  0  0  0  0
   56.9770   22.9300   43.5360 C   0  0  0  0  0  0  0  0  0  0  0  0
   55.7070   22.4070   43.8970 O   0  0  0  0  0  0  0  0  0  0  0  0
   55.0000   23.2100   44.8370 C   0  0  0  0  0  0  0  0  0  0  0  0
   55.8900   24.1730   45.6420 C   0  0  0  0  0  0  0  0  0  0  0  0
   60.1024   27.0465   45.5162 H   0  0  0  0  0  0  0  0  0  0  0  0
   62.2994   30.5974   46.6808 H   0  0  0  0  0  0  0  0  0  0  0  0
   60.0724   32.7723   46.9098 H   0  0  0  0  0  0  0  0  0  0  0  0
   58.7271   33.6786   48.7990 H   0  0  0  0  0  0  0  0  0  0  0  0
   59.2372   29.9518   50.9476 H   0  0  0  0  0  0  0  0  0  0  0  0
   60.5827   29.0485   49.0551 H   0  0  0  0  0  0  0  0  0  0  0  0
   58.3986   30.9981   45.9657 H   0  0  0  0  0  0  0  0  0  0  0  0
   56.1068   30.0205   45.8948 H   0  0  0  0  0  0  0  0  0  0  0  0
   55.9290   25.8740   44.5190 H   0  0  0  0  0  0  0  0  0  0  0  0
   56.2842   24.7848   42.6673 H   0  0  0  0  0  0  0  0  0  0  0  0
   58.0173   24.7840   43.2057 H   0  0  0  0  0  0  0  0  0  0  0  0
   57.2592   22.5194   42.5553 H   0  0  0  0  0  0  0  0  0  0  0  0
   57.6882   22.6393   44.3232 H   0  0  0  0  0  0  0  0  0  0  0  0
   54.2547   23.8057   44.2897 H   0  0  0  0  0  0  0  0  0  0  0  0
   54.5455   22.5195   45.5628 H   0  0  0  0  0  0  0  0  0  0  0  0
   55.2616   24.7541   46.3330 H   0  0  0  0  0  0  0  0  0  0  0  0
   56.6306   23.5857   46.2046 H   0  0  0  0  0  0  0  0  0  0  0  0
  1  2  2  0
  2  3  1  0
  3  4  2  0
  4  5  1  0
  5  6  1  0
  6  7  2  3
  7  8  1  0
  8  9  2  0
  9 10  1  0
 10 11  2  0
 11 12  1  0
 12 13  2  0
 12 14  1  0
 11 15  1  0
 15 16  2  0
  5 17  2  0
 17 18  1  0
 18 19  2  0
 19 20  1  0
  2 21  1  0
 21 22  1  0
 22 23  1  0
 23 24  1  0
 24 25  1  0
 25 26  1  0
 19  3  1  0
 26 21  1  0
 16  8  1  0
  4 27  1  0
  7 28  1  0
  9 29  1  0
 10 30  1  0
 15 31  1  0
 16 32  1  0
 17 33  1  0
 18 34  1  0
 21 35  1  0
 22 36  1  0
 22 37  1  0
 23 38  1  0
 23 39  1  0
 25 40  1  0
 25 41  1  0
 26 42  1  0
 26 43  1  0
M  CHG  4  12   1  14  -1  20  -1  21   1
M  END
>  <UniqueID>  (49) 
46

>  <SMILES>  (49) 
O=C(c1cc(N=Cc2ccc([N+](=O)[O-])cc2)ccc1[O-])[NH+]1CCOCC1

>  <Energy>  (49) 
77.29765089059983

>  <Genealogy>  (49) 
O=C(c1cc(N=Cc2ccc([N+](=O)[O-])cc2)ccc1[O-])[NH+]1CCOCC1 (protonated)
O=C(c1cc(N=Cc2ccc([N+](=O)[O-])cc2)ccc1[O-])[NH+]1CCOCC1 (3D coordinates assigned)
O=C(c1cc(N=Cc2ccc([N+](=O)[O-])cc2)ccc1[O-])[NH+]1CCOCC1 (nonaromatic ring conformer: 77.29765089059983 kcal/mol)

>  <smiles>  (49) 
O=C(c1cc(N=Cc2ccc([N+](=O)[O-])cc2)ccc1O)N1CCOCC1

>  <score_type>  (49) 
oracle

>  <origin>  (49) 
adg

>  <m_score__min__energy>  (49) 
-9.0700000000000003

>  <m_primary>  (49) 
energy

$$$$
49:0
     RDKit          3D

 50 53  0  0  0  0  0  0  0  0999 V2000
   54.3550   26.7320   44.9230 H   0  0  0  0  0  0  0  0  0  0  0  0
   54.3550   26.1960   45.7820 O   0  0  0  0  0  0  0  0  0  0  0  0
   55.5420   25.6850   46.2980 C   0  0  0  0  0  0  0  0  0  0  0  0
   55.6660   24.4480   46.8050 N   0  0  0  0  0  0  0  0  0  0  0  0
   56.9480   24.4300   47.2310 C   0  0  0  0  0  0  0  0  0  0  0  0
   57.4640   23.4240   47.7830 O   0  0  0  0  0  0  0  0  0  0  0  0
   57.6290   25.5770   47.0250 N   0  0  0  0  0  0  0  0  0  0  0  0
   56.7350   26.3640   46.4030 C   0  0  0  0  0  0  0  0  0  0  0  0
   56.9860   27.7750   46.0730 C   0  0  0  0  0  0  0  0  0  0  0  0
   56.2696   28.5204   46.4487 H   0  0  0  0  0  0  0  0  0  0  0  0
   58.0290   28.2240   45.3440 C   0  0  0  0  0  0  0  0  0  0  0  0
   58.7750   29.3950   45.5040 C   0  0  0  0  0  0  0  0  0  0  0  0
   58.5340   30.5540   46.3850 C   0  0  0  0  0  0  0  0  0  0  0  0
   57.7440   31.4530   45.9890 O   0  0  0  0  0  0  0  0  0  0  0  0
   59.1190   30.6370   47.7000 N   0  0  0  0  0  0  0  0  0  0  0  0
   59.4880   29.4180   48.4280 C   0  0  0  0  0  0  0  0  0  0  0  0
   58.6567   28.7000   48.3695 H   0  0  0  0  0  0  0  0  0  0  0  0
   60.3957   29.0000   47.9683 H   0  0  0  0  0  0  0  0  0  0  0  0
   59.7860   29.7190   49.9030 C   0  0  0  0  0  0  0  0  0  0  0  0
   59.8540   28.7726   50.4596 H   0  0  0  0  0  0  0  0  0  0  0  0
   60.7379   30.2662   49.9705 H   0  0  0  0  0  0  0  0  0  0  0  0
   58.7080   30.5540   50.4880 N   0  0  0  0  0  0  0  0  0  0  0  0
   58.8660   30.7860   51.9590 C   0  0  0  0  0  0  0  0  0  0  0  0
   59.9142   31.0984   52.0756 H   0  0  0  0  0  0  0  0  0  0  0  0
   58.5990   29.5290   52.8210 C   0  0  0  0  0  0  0  0  0  0  0  0
   59.2808   28.7251   52.5065 H   0  0  0  0  0  0  0  0  0  0  0  0
   58.7682   29.7848   53.8774 H   0  0  0  0  0  0  0  0  0  0  0  0
   57.1400   29.0480   52.6570 C   0  0  0  0  0  0  0  0  0  0  0  0
   57.1378   28.1389   52.0377 H   0  0  0  0  0  0  0  0  0  0  0  0
   56.7399   28.8587   53.6640 H   0  0  0  0  0  0  0  0  0  0  0  0
   56.3040   30.0170   52.0420 O   0  0  0  0  0  0  0  0  0  0  0  0
   56.4500   31.2710   52.6810 C   0  0  0  0  0  0  0  0  0  0  0  0
   55.7037   31.9686   52.2731 H   0  0  0  0  0  0  0  0  0  0  0  0
   56.3027   31.1260   53.7614 H   0  0  0  0  0  0  0  0  0  0  0  0
   57.8620   31.8610   52.4600 C   0  0  0  0  0  0  0  0  0  0  0  0
   57.7987   32.6649   51.7118 H   0  0  0  0  0  0  0  0  0  0  0  0
   58.2262   32.2453   53.4242 H   0  0  0  0  0  0  0  0  0  0  0  0
   58.5330   31.8490   49.7570 C   0  0  0  0  0  0  0  0  0  0  0  0
   57.4566   32.0075   49.5948 H   0  0  0  0  0  0  0  0  0  0  0  0
   58.9963   32.6240   50.3852 H   0  0  0  0  0  0  0  0  0  0  0  0
   59.2380   31.9200   48.3920 C   0  0  0  0  0  0  0  0  0  0  0  0
   58.7718   32.7076   47.7818 H   0  0  0  0  0  0  0  0  0  0  0  0
   60.3026   32.1492   48.5470 H   0  0  0  0  0  0  0  0  0  0  0  0
   59.7540   29.3700   44.5310 C   0  0  0  0  0  0  0  0  0  0  0  0
   60.5256   30.1412   44.3901 H   0  0  0  0  0  0  0  0  0  0  0  0
   59.6260   28.2890   43.8000 O   0  0  0  0  0  0  0  0  0  0  0  0
   58.6080   27.5870   44.2440 C   0  0  0  0  0  0  0  0  0  0  0  0
   58.2420   26.4300   43.6860 C   0  0  0  0  0  0  0  0  0  0  0  0
   57.3832   25.8727   44.0883 H   0  0  0  0  0  0  0  0  0  0  0  0
   58.7994   26.0344   42.8241 H   0  0  0  0  0  0  0  0  0  0  0  0
  1  2  1  0
  2  3  1  0
  3  4  1  0
  4  5  1  0
  5  6  2  0
  5  7  1  0
  7  8  1  0
  8  9  1  0
  9 10  1  0
  9 11  2  0
 11 12  1  0
 12 13  1  0
 13 14  2  0
 13 15  1  0
 15 16  1  0
 16 17  1  0
 16 18  1  0
 16 19  1  0
 19 20  1  0
 19 21  1  0
 19 22  1  0
 22 23  1  0
 23 24  1  0
 23 25  1  0
 25 26  1  0
 25 27  1  0
 25 28  1  0
 28 29  1  0
 28 30  1  0
 28 31  1  0
 31 32  1  0
 32 33  1  0
 32 34  1  0
 32 35  1  0
 35 36  1  0
 35 37  1  0
 22 38  1  0
 38 39  1  0
 38 40  1  0
 38 41  1  0
 41 42  1  0
 41 43  1  0
 12 44  2  0
 44 45  1  0
 44 46  1  0
 46 47  1  0
 47 48  2  0
 48 49  1  0
 48 50  1  0
  8  3  2  0
 47 11  1  0
 41 15  1  0
 35 23  1  0
M  CHG  2   4  -1   7  -1
M  END
>  <UniqueID>  (50) 
47

>  <SMILES>  (50) 
C=c1occ(C(=O)N2CCN(C3CCOCC3)CC2)/c1=C\c1[n-]c(=O)[n-]c1O

>  <Energy>  (50) 
143.33444206200735

>  <Genealogy>  (50) 
C=c1occ(C(=O)N2CCN(C3CCOCC3)CC2)c1=Cc1[n-]c(=O)[n-]c1O (protonated)
C=c1occ(C(=O)N2CCN(C3CCOCC3)CC2)/c1=C\c1[n-]c(=O)[n-]c1O (cis-trans isomerization)
C=c1occ(C(=O)N2CCN(C3CCOCC3)CC2)/c1=C\c1[n-]c(=O)[n-]c1O (3D coordinates assigned)
C=c1occ(C(=O)N2CCN(C3CCOCC3)CC2)/c1=C\c1[n-]c(=O)[n-]c1O (nonaromatic ring conformer: 143.33444206200735 kcal/mol)

>  <smiles>  (50) 
C=c1occ(C(=O)N2CCN(C3CCOCC3)CC2)c1=Cc1[nH]c(=O)[nH]c1O

>  <score_type>  (50) 
oracle

>  <origin>  (50) 
adg

>  <m_score__min__energy>  (50) 
-12.07

>  <m_primary>  (50) 
energy

$$$$
50:0
     RDKit          3D

 46 48  0  0  0  0  0  0  0  0999 V2000
   60.3660   28.2480   48.5690 C   0  0  0  0  0  0  0  0  0  0  0  0
   60.6190   29.6460   48.0120 C   0  0  0  0  0  0  0  0  0  0  0  0
   59.5310   30.0490   47.0970 N   0  0  0  0  0  0  0  0  0  0  0  0
   58.8470   29.0430   46.4700 C   0  0  0  0  0  0  0  0  0  0  0  0
   57.7920   29.3040   45.5860 C   0  0  0  0  0  0  0  0  0  0  0  0
   57.0650   28.1660   44.9630 C   0  0  0  0  0  0  0  0  0  0  0  0
   57.4290   27.7080   43.8450 O   0  0  0  0  0  0  0  0  0  0  0  0
   55.9240   27.6050   45.6200 N   0  0  0  0  0  0  0  0  0  0  0  0
   55.8370   26.2130   46.0490 C   0  0  0  0  0  0  0  0  0  0  0  0
   57.1610   25.4800   45.7990 C   0  0  0  0  0  0  0  0  0  0  0  0
   56.9450   24.1890   45.0440 C   0  0  0  0  0  0  0  0  0  0  0  0
   56.6430   24.2190   43.6750 C   0  0  0  0  0  0  0  0  0  0  0  0
   56.4960   23.0610   42.9800 N   0  0  0  0  0  0  0  0  0  0  0  0
   56.6430   21.8560   43.5950 C   0  0  0  0  0  0  0  0  0  0  0  0
   56.5050   20.7910   42.9390 O   0  0  0  0  0  0  0  0  0  0  0  0
   56.9410   21.8000   44.9180 N   0  0  0  0  0  0  0  0  0  0  0  0
   57.0950   22.9300   45.6540 C   0  0  0  0  0  0  0  0  0  0  0  0
   57.3740   22.8350   46.8780 O   0  0  0  0  0  0  0  0  0  0  0  0
   57.4360   30.6400   45.3390 C   0  0  0  0  0  0  0  0  0  0  0  0
   56.5070   30.9080   44.5270 O   0  0  0  0  0  0  0  0  0  0  0  0
   58.1180   31.6800   45.9950 C   0  0  0  0  0  0  0  0  0  0  0  0
   57.7610   33.0240   45.7730 C   0  0  0  0  0  0  0  0  0  0  0  0
   58.4180   34.0540   46.4410 C   0  0  0  0  0  0  0  0  0  0  0  0
   59.4440   33.7660   47.3510 C   0  0  0  0  0  0  0  0  0  0  0  0
   60.1260   34.7690   48.0570 O   0  0  0  0  0  0  0  0  0  0  0  0
   61.1690   34.5260   48.9950 C   0  0  0  0  0  0  0  0  0  0  0  0
   59.8100   32.4340   47.5760 C   0  0  0  0  0  0  0  0  0  0  0  0
   59.1700   31.3680   46.8990 C   0  0  0  0  0  0  0  0  0  0  0  0
   60.3726   28.2846   49.6684 H   0  0  0  0  0  0  0  0  0  0  0  0
   59.3877   27.8858   48.2201 H   0  0  0  0  0  0  0  0  0  0  0  0
   61.1553   27.5659   48.2201 H   0  0  0  0  0  0  0  0  0  0  0  0
   60.6738   30.3621   48.8452 H   0  0  0  0  0  0  0  0  0  0  0  0
   61.5662   29.6376   47.4528 H   0  0  0  0  0  0  0  0  0  0  0  0
   59.1339   27.9993   46.6658 H   0  0  0  0  0  0  0  0  0  0  0  0
   55.6049   26.1811   47.1238 H   0  0  0  0  0  0  0  0  0  0  0  0
   55.0449   25.7155   45.4702 H   0  0  0  0  0  0  0  0  0  0  0  0
   57.8246   26.1312   45.2112 H   0  0  0  0  0  0  0  0  0  0  0  0
   57.6115   25.2390   46.7732 H   0  0  0  0  0  0  0  0  0  0  0  0
   56.5246   25.1845   43.1615 H   0  0  0  0  0  0  0  0  0  0  0  0
   56.2690   23.1030   41.9610 H   0  0  0  0  0  0  0  0  0  0  0  0
   56.9544   33.2627   45.0642 H   0  0  0  0  0  0  0  0  0  0  0  0
   58.1302   35.0990   46.2535 H   0  0  0  0  0  0  0  0  0  0  0  0
   60.7721   34.6185   50.0167 H   0  0  0  0  0  0  0  0  0  0  0  0
   61.5666   33.5112   48.8465 H   0  0  0  0  0  0  0  0  0  0  0  0
   61.9742   35.2606   48.8465 H   0  0  0  0  0  0  0  0  0  0  0  0
   60.6124   32.2105   48.2945 H   0  0  0  0  0  0  0  0  0  0  0  0
  1  2  1  0
  2  3  1  0
  3  4  1  0
  4  5  2  0
  5  6  1  0
  6  7  2  0
  6  8  1  0
  8  9  1  0
  9 10  1  0
 10 11  1  0
 11 12  2  0
 12 13  1  0
 13 14  1  0
 14 15  2  0
 14 16  1  0
 16 17  1  0
 17 18  2  0
  5 19  1  0
 19 20  2  0
 19 21  1  0
 21 22  2  0
 22 23  1  0
 23 24  2  0
 24 25  1  0
 25 26  1  0
 24 27  1  0
 27 28  2  0
 28  3  1  0
 17 11  1  0
 28 21  1  0
  1 29  1  0
  1 30  1  0
  1 31  1  0
  2 32  1  0
  2 33  1  0
  4 34  1  0
  9 35  1  0
  9 36  1  0
 10 37  1  0
 10 38  1  0
 12 39  1  0
 13 40  1  0
 22 41  1  0
 23 42  1  0
 26 43  1  0
 26 44  1  0
 26 45  1  0
 27 46  1  0
M  CHG  2   8  -1  16  -1
M  END
>  <UniqueID>  (51) 
48

>  <SMILES>  (51) 
CCn1cc(C(=O)[N-]CCc2c[nH]c(=O)[n-]c2=O)c(=O)c2ccc(OC)cc21

>  <Energy>  (51) 
54.371100815229354

>  <Genealogy>  (51) 
CCn1cc(C(=O)[N-]CCc2c[nH]c(=O)[n-]c2=O)c(=O)c2ccc(OC)cc21 (protonated)
CCn1cc(C(=O)[N-]CCc2c[nH]c(=O)[n-]c2=O)c(=O)c2ccc(OC)cc21 (3D coordinates assigned)
CCn1cc(C(=O)[N-]CCc2c[nH]c(=O)[n-]c2=O)c(=O)c2ccc(OC)cc21 (optimized conformer: 54.371100815229354 kcal/mol)

>  <smiles>  (51) 
CCn1cc(C(=O)NCCc2c[nH]c(=O)[nH]c2=O)c(=O)c2ccc(OC)cc21

>  <score_type>  (51) 
oracle

>  <origin>  (51) 
adg

>  <m_score__min__energy>  (51) 
-11.51

>  <m_primary>  (51) 
energy

$$$$
51:0
     RDKit          3D

 66 70  0  0  0  0  0  0  0  0999 V2000
   54.5270   24.8760   45.9020 O   0  0  0  0  0  0  0  0  0  0  0  0
   56.0270   24.7710   45.9270 S   0  0  0  0  0  0  0  0  0  0  0  0
   56.4460   24.4210   47.3280 O   0  0  0  0  0  0  0  0  0  0  0  0
   56.5370   23.4890   44.8270 C   0  0  0  0  0  0  0  0  0  0  0  0
   55.8600   23.2810   43.6160 C   0  0  0  0  0  0  0  0  0  0  0  0
   56.2670   22.2640   42.7470 C   0  0  0  0  0  0  0  0  0  0  0  0
   57.3510   21.4470   43.0840 C   0  0  0  0  0  0  0  0  0  0  0  0
   58.0320   21.6520   44.2870 C   0  0  0  0  0  0  0  0  0  0  0  0
   57.6270   22.6690   45.1590 C   0  0  0  0  0  0  0  0  0  0  0  0
   56.7190   26.3120   45.4850 N   0  0  0  0  0  0  0  0  0  0  0  0
   57.7290   26.1420   44.4300 C   0  0  0  0  0  0  0  0  0  0  0  0
   58.0930   27.5200   43.8620 C   0  0  0  0  0  0  0  0  0  0  0  0
   58.1210   28.5290   44.9310 N   0  0  0  0  0  0  0  0  0  0  0  0
   57.9530   29.9260   44.6160 C   0  0  0  0  0  0  0  0  0  0  0  0
   57.4720   30.3210   43.3560 C   0  0  0  0  0  0  0  0  0  0  0  0
   57.3300   31.6750   43.0450 C   0  0  0  0  0  0  0  0  0  0  0  0
   57.6710   32.6490   43.9850 C   0  0  0  0  0  0  0  0  0  0  0  0
   58.1550   32.2770   45.2490 C   0  0  0  0  0  0  0  0  0  0  0  0
   58.5300   33.2830   46.2110 N   0  0  0  0  0  0  0  0  0  0  0  0
   58.5990   34.7000   45.8420 C   0  0  0  0  0  0  0  0  0  0  0  0
   60.0000   35.2660   46.1420 C   0  0  0  0  0  0  0  0  0  0  0  0
   60.7100   34.5700   47.2490 N   0  0  0  0  0  0  0  0  0  0  0  0
   61.6980   33.5850   46.7570 C   0  0  0  0  0  0  0  0  0  0  0  0
   62.5230   33.0520   47.9000 C   0  0  0  0  0  0  0  0  0  0  0  0
   63.7790   33.6100   48.1790 C   0  0  0  0  0  0  0  0  0  0  0  0
   64.5590   33.1030   49.2230 C   0  0  0  0  0  0  0  0  0  0  0  0
   64.0910   32.0350   49.9920 C   0  0  0  0  0  0  0  0  0  0  0  0
   62.8410   31.4710   49.7200 C   0  0  0  0  0  0  0  0  0  0  0  0
   62.2590   30.1170   50.6730 Cl  0  0  0  0  0  0  0  0  0  0  0  0
   62.0580   31.9770   48.6770 C   0  0  0  0  0  0  0  0  0  0  0  0
   59.7770   33.9730   48.2290 C   0  0  0  0  0  0  0  0  0  0  0  0
   58.8840   32.9000   47.5820 C   0  0  0  0  0  0  0  0  0  0  0  0
   58.3030   30.9140   45.5530 C   0  0  0  0  0  0  0  0  0  0  0  0
   58.3120   28.0750   46.3140 C   0  0  0  0  0  0  0  0  0  0  0  0
   57.2750   26.9930   46.6770 C   0  0  0  0  0  0  0  0  0  0  0  0
   55.0057   23.9205   43.3491 H   0  0  0  0  0  0  0  0  0  0  0  0
   55.7342   22.1064   41.7976 H   0  0  0  0  0  0  0  0  0  0  0  0
   57.6673   20.6435   42.4025 H   0  0  0  0  0  0  0  0  0  0  0  0
   58.8880   21.0128   44.5490 H   0  0  0  0  0  0  0  0  0  0  0  0
   58.1637   22.8261   46.1062 H   0  0  0  0  0  0  0  0  0  0  0  0
   58.6273   25.6678   44.8521 H   0  0  0  0  0  0  0  0  0  0  0  0
   57.3270   25.5038   43.6293 H   0  0  0  0  0  0  0  0  0  0  0  0
   59.0850   27.4659   43.3898 H   0  0  0  0  0  0  0  0  0  0  0  0
   57.3340   27.8098   43.1204 H   0  0  0  0  0  0  0  0  0  0  0  0
   57.2055   29.5583   42.6095 H   0  0  0  0  0  0  0  0  0  0  0  0
   56.9488   31.9745   42.0576 H   0  0  0  0  0  0  0  0  0  0  0  0
   57.5598   33.7141   43.7338 H   0  0  0  0  0  0  0  0  0  0  0  0
   58.3881   34.8053   44.7676 H   0  0  0  0  0  0  0  0  0  0  0  0
   57.8555   35.2582   46.4299 H   0  0  0  0  0  0  0  0  0  0  0  0
   60.6104   35.1791   45.2310 H   0  0  0  0  0  0  0  0  0  0  0  0
   59.8600   36.3096   46.4604 H   0  0  0  0  0  0  0  0  0  0  0  0
   61.1683   32.7513   46.2728 H   0  0  0  0  0  0  0  0  0  0  0  0
   62.3653   34.0791   46.0355 H   0  0  0  0  0  0  0  0  0  0  0  0
   64.1520   34.4497   47.5743 H   0  0  0  0  0  0  0  0  0  0  0  0
   65.5425   33.5459   49.4389 H   0  0  0  0  0  0  0  0  0  0  0  0
   64.7065   31.6373   50.8124 H   0  0  0  0  0  0  0  0  0  0  0  0
   61.0748   31.5320   48.4642 H   0  0  0  0  0  0  0  0  0  0  0  0
   60.3590   33.5111   49.0401 H   0  0  0  0  0  0  0  0  0  0  0  0
   59.1279   34.7722   48.6163 H   0  0  0  0  0  0  0  0  0  0  0  0
   59.4255   31.9427   47.5618 H   0  0  0  0  0  0  0  0  0  0  0  0
   57.9614   32.8021   48.1730 H   0  0  0  0  0  0  0  0  0  0  0  0
   58.6974   30.6159   46.5357 H   0  0  0  0  0  0  0  0  0  0  0  0
   59.3237   27.6567   46.4209 H   0  0  0  0  0  0  0  0  0  0  0  0
   58.1820   28.9326   46.9904 H   0  0  0  0  0  0  0  0  0  0  0  0
   57.7598   26.2416   47.3175 H   0  0  0  0  0  0  0  0  0  0  0  0
   56.4417   27.4913   47.1941 H   0  0  0  0  0  0  0  0  0  0  0  0
  1  2  2  0
  2  3  2  0
  2  4  1  0
  4  5  2  0
  5  6  1  0
  6  7  2  0
  7  8  1  0
  8  9  2  0
  2 10  1  0
 10 11  1  0
 11 12  1  0
 12 13  1  0
 13 14  1  0
 14 15  2  0
 15 16  1  0
 16 17  2  0
 17 18  1  0
 18 19  1  0
 19 20  1  0
 20 21  1  0
 21 22  1  0
 22 23  1  0
 23 24  1  0
 24 25  2  0
 25 26  1  0
 26 27  2  0
 27 28  1  0
 28 29  1  0
 28 30  2  0
 22 31  1  0
 31 32  1  0
 18 33  2  0
 13 34  1  0
 34 35  1  0
  9  4  1  0
 35 10  1  0
 33 14  1  0
 32 19  1  0
 30 24  1  0
  5 36  1  0
  6 37  1  0
  7 38  1  0
  8 39  1  0
  9 40  1  0
 11 41  1  0
 11 42  1  0
 12 43  1  0
 12 44  1  0
 15 45  1  0
 16 46  1  0
 17 47  1  0
 20 48  1  0
 20 49  1  0
 21 50  1  0
 21 51  1  0
 23 52  1  0
 23 53  1  0
 25 54  1  0
 26 55  1  0
 27 56  1  0
 30 57  1  0
 31 58  1  0
 31 59  1  0
 32 60  1  0
 32 61  1  0
 33 62  1  0
 34 63  1  0
 34 64  1  0
 35 65  1  0
 35 66  1  0
M  END
>  <UniqueID>  (52) 
49

>  <SMILES>  (52) 
O=S(=O)(c1ccccc1)N1CCN(c2cccc(N3CCN(Cc4cccc(Cl)c4)CC3)c2)CC1

>  <Energy>  (52) 
89.47056036165174

>  <Genealogy>  (52) 
O=S(=O)(c1ccccc1)N1CCN(c2cccc(N3CCN(Cc4cccc(Cl)c4)CC3)c2)CC1 (3D coordinates assigned)
O=S(=O)(c1ccccc1)N1CCN(c2cccc(N3CCN(Cc4cccc(Cl)c4)CC3)c2)CC1 (nonaromatic ring conformer: 89.47056036165174 kcal/mol)

>  <smiles>  (52) 
O=S(=O)(c1ccccc1)N1CCN(c2cccc(N3CCN(Cc4cccc(Cl)c4)CC3)c2)CC1

>  <score_type>  (52) 
oracle

>  <origin>  (52) 
adg

>  <m_score__min__energy>  (52) 
-11.289999999999999

>  <m_primary>  (52) 
energy

$$$$
52:0
     RDKit          3D

 47 50  0  0  0  0  0  0  0  0999 V2000
   54.9660   22.9320   46.5930 C   0  0  0  0  0  0  0  0  0  0  0  0
   55.9610   23.8000   46.4360 C   0  0  0  0  0  0  0  0  0  0  0  0
   57.3480   23.4610   46.5320 N   0  0  0  0  0  0  0  0  0  0  0  0
   58.0390   24.6860   46.2970 C   0  0  0  0  0  0  0  0  0  0  0  0
   59.3860   24.8410   46.2940 N   0  0  0  0  0  0  0  0  0  0  0  0
   59.9230   26.0750   46.0620 C   0  0  0  0  0  0  0  0  0  0  0  0
   59.0910   27.2000   45.8300 C   0  0  0  0  0  0  0  0  0  0  0  0
   59.6960   28.5280   45.5700 C   0  0  0  0  0  0  0  0  0  0  0  0
   60.1010   28.7990   44.4060 O   0  0  0  0  0  0  0  0  0  0  0  0
   59.8330   29.5120   46.6160 N   0  0  0  0  0  0  0  0  0  0  0  0
   58.8330   29.6000   47.6930 C   0  0  0  0  0  0  0  0  0  0  0  0
   58.6740   31.0500   48.1600 C   0  0  0  0  0  0  0  0  0  0  0  0
   60.0160   31.6520   48.6550 C   0  0  0  0  0  0  0  0  0  0  0  0
   59.9950   33.1970   48.5920 C   0  0  0  0  0  0  0  0  0  0  0  0
   59.3850   33.7010   47.3080 C   0  0  0  0  0  0  0  0  0  0  0  0
   60.2050   34.1110   46.2420 C   0  0  0  0  0  0  0  0  0  0  0  0
   59.6350   34.5470   45.0420 C   0  0  0  0  0  0  0  0  0  0  0  0
   58.2430   34.5740   44.8960 C   0  0  0  0  0  0  0  0  0  0  0  0
   57.4210   34.1650   45.9500 C   0  0  0  0  0  0  0  0  0  0  0  0
   57.9880   33.7290   47.1520 C   0  0  0  0  0  0  0  0  0  0  0  0
   61.2430   31.0840   47.8870 C   0  0  0  0  0  0  0  0  0  0  0  0
   60.8750   30.5430   46.5020 C   0  0  0  0  0  0  0  0  0  0  0  0
   57.6870   27.0220   45.8240 C   0  0  0  0  0  0  0  0  0  0  0  0
   56.8990   27.9870   45.6230 O   0  0  0  0  0  0  0  0  0  0  0  0
   57.1900   25.7440   46.0640 C   0  0  0  0  0  0  0  0  0  0  0  0
   55.8310   25.2280   46.1420 C   0  0  0  0  0  0  0  0  0  0  0  0
   54.7630   25.8790   45.9870 O   0  0  0  0  0  0  0  0  0  0  0  0
   53.9228   23.2692   46.5041 H   0  0  0  0  0  0  0  0  0  0  0  0
   55.1861   21.8767   46.8118 H   0  0  0  0  0  0  0  0  0  0  0  0
   57.7670   22.5270   46.7380 H   0  0  0  0  0  0  0  0  0  0  0  0
   61.0161   26.1982   46.0550 H   0  0  0  0  0  0  0  0  0  0  0  0
   57.8659   29.2317   47.3201 H   0  0  0  0  0  0  0  0  0  0  0  0
   59.1700   28.9876   48.5423 H   0  0  0  0  0  0  0  0  0  0  0  0
   58.3019   31.6548   47.3199 H   0  0  0  0  0  0  0  0  0  0  0  0
   57.9661   31.0600   49.0019 H   0  0  0  0  0  0  0  0  0  0  0  0
   60.1260   31.3490   49.7067 H   0  0  0  0  0  0  0  0  0  0  0  0
   59.4063   33.5792   49.4390 H   0  0  0  0  0  0  0  0  0  0  0  0
   61.0346   33.5534   48.6376 H   0  0  0  0  0  0  0  0  0  0  0  0
   61.2992   34.0887   46.3525 H   0  0  0  0  0  0  0  0  0  0  0  0
   60.2809   34.8691   44.2119 H   0  0  0  0  0  0  0  0  0  0  0  0
   57.7959   34.9172   43.9514 H   0  0  0  0  0  0  0  0  0  0  0  0
   56.3273   34.1860   45.8340 H   0  0  0  0  0  0  0  0  0  0  0  0
   57.3381   33.4066   47.9789 H   0  0  0  0  0  0  0  0  0  0  0  0
   61.9846   31.8872   47.7654 H   0  0  0  0  0  0  0  0  0  0  0  0
   61.6441   30.2456   48.4753 H   0  0  0  0  0  0  0  0  0  0  0  0
   60.5019   31.3682   45.8777 H   0  0  0  0  0  0  0  0  0  0  0  0
   61.7699   30.0974   46.0431 H   0  0  0  0  0  0  0  0  0  0  0  0
  1  2  2  0
  2  3  1  0
  3  4  1  0
  4  5  1  0
  5  6  1  0
  6  7  2  0
  7  8  1  0
  8  9  2  0
  8 10  1  0
 10 11  1  0
 11 12  1  0
 12 13  1  0
 13 14  1  0
 14 15  1  0
 15 16  2  0
 16 17  1  0
 17 18  2  0
 18 19  1  0
 19 20  2  0
 13 21  1  0
 21 22  1  0
  7 23  1  0
 23 24  2  0
 23 25  1  0
 25 26  1  0
 26 27  2  0
 26  2  1  0
 25  4  2  0
 22 10  1  0
 20 15  1  0
  1 28  1  0
  1 29  1  0
  3 30  1  0
  6 31  1  0
 11 32  1  0
 11 33  1  0
 12 34  1  0
 12 35  1  0
 13 36  1  0
 14 37  1  0
 14 38  1  0
 16 39  1  0
 17 40  1  0
 18 41  1  0
 19 42  1  0
 20 43  1  0
 21 44  1  0
 21 45  1  0
 22 46  1  0
 22 47  1  0
M  CHG  1   5  -1
M  END
>  <UniqueID>  (53) 
50

>  <SMILES>  (53) 
C=C1Nc2[n-]cc(C(=O)N3CCC(Cc4ccccc4)CC3)c(=O)c2C1=O

>  <Energy>  (53) 
88.61221936351859

>  <Genealogy>  (53) 
C=C1Nc2[n-]cc(C(=O)N3CCC(Cc4ccccc4)CC3)c(=O)c2C1=O (protonated)
C=C1Nc2[n-]cc(C(=O)N3CCC(Cc4ccccc4)CC3)c(=O)c2C1=O (3D coordinates assigned)
C=C1Nc2[n-]cc(C(=O)N3CCC(Cc4ccccc4)CC3)c(=O)c2C1=O (nonaromatic ring conformer: 88.61221936351859 kcal/mol)

>  <smiles>  (53) 
C=C1Nc2[nH]cc(C(=O)N3CCC(Cc4ccccc4)CC3)c(=O)c2C1=O

>  <score_type>  (53) 
oracle

>  <origin>  (53) 
adg

>  <m_score__min__energy>  (53) 
-10.33

>  <m_primary>  (53) 
energy

$$$$
53:0
     RDKit          3D

 44 46  0  0  0  0  0  0  0  0999 V2000
   56.5910   26.7630   45.9540 C   0  0  0  0  0  0  0  0  0  0  0  0
   57.2450   28.0840   45.6590 C   0  0  0  0  0  0  0  0  0  0  0  0
   58.6050   28.2800   45.9480 C   0  0  0  0  0  0  0  0  0  0  0  0
   59.2290   29.5040   45.6540 C   0  0  0  0  0  0  0  0  0  0  0  0
   60.6850   29.7210   45.9940 C   0  0  0  0  0  0  0  0  0  0  0  0
   60.9620   30.0600   47.4150 N   0  0  0  0  0  0  0  0  0  0  0  0
   60.8310   28.9190   48.3630 C   0  0  0  0  0  0  0  0  0  0  0  0
   59.4450   28.7980   49.0080 C   0  0  0  0  0  0  0  0  0  0  0  0
   59.0320   30.1000   49.5200 N   0  0  0  0  0  0  0  0  0  0  0  0
   59.0790   30.3850   50.9290 C   0  0  0  0  0  0  0  0  0  0  0  0
   59.9860   29.8700   51.6380 O   0  0  0  0  0  0  0  0  0  0  0  0
   58.0730   31.2610   51.5620 C   0  0  0  0  0  0  0  0  0  0  0  0
   58.1740   32.6060   51.8790 C   0  0  0  0  0  0  0  0  0  0  0  0
   59.3340   33.5100   51.6190 C   0  0  0  0  0  0  0  0  0  0  0  0
   57.0620   32.9880   52.4690 O   0  0  0  0  0  0  0  0  0  0  0  0
   56.2190   32.0000   52.5800 N   0  0  0  0  0  0  0  0  0  0  0  0
   56.8190   30.9280   52.0330 C   0  0  0  0  0  0  0  0  0  0  0  0
   56.2960   29.7830   51.9960 O   0  0  0  0  0  0  0  0  0  0  0  0
   58.9780   31.1770   48.5400 C   0  0  0  0  0  0  0  0  0  0  0  0
   60.3540   31.3380   47.8800 C   0  0  0  0  0  0  0  0  0  0  0  0
   58.4590   30.5580   45.1350 C   0  0  0  0  0  0  0  0  0  0  0  0
   57.1040   30.3710   44.8560 C   0  0  0  0  0  0  0  0  0  0  0  0
   56.4960   29.1390   45.1100 C   0  0  0  0  0  0  0  0  0  0  0  0
   55.1440   28.9720   44.8230 O   0  0  0  0  0  0  0  0  0  0  0  0
   56.5218   26.6232   47.0429 H   0  0  0  0  0  0  0  0  0  0  0  0
   55.5814   26.7481   45.5175 H   0  0  0  0  0  0  0  0  0  0  0  0
   57.1912   25.9511   45.5175 H   0  0  0  0  0  0  0  0  0  0  0  0
   59.1870   27.4681   46.4086 H   0  0  0  0  0  0  0  0  0  0  0  0
   61.2317   28.7977   45.7521 H   0  0  0  0  0  0  0  0  0  0  0  0
   61.0084   30.5919   45.4049 H   0  0  0  0  0  0  0  0  0  0  0  0
   61.9920   30.2610   47.4040 H   0  0  0  0  0  0  0  0  0  0  0  0
   61.0395   27.9884   47.8147 H   0  0  0  0  0  0  0  0  0  0  0  0
   61.5462   29.1002   49.1788 H   0  0  0  0  0  0  0  0  0  0  0  0
   58.7197   28.4525   48.2566 H   0  0  0  0  0  0  0  0  0  0  0  0
   59.4875   28.0749   49.8359 H   0  0  0  0  0  0  0  0  0  0  0  0
   59.7612   33.8429   52.5764 H   0  0  0  0  0  0  0  0  0  0  0  0
   60.0997   32.9680   51.0445 H   0  0  0  0  0  0  0  0  0  0  0  0
   58.9955   34.3849   51.0445 H   0  0  0  0  0  0  0  0  0  0  0  0
   58.2287   30.9362   47.7715 H   0  0  0  0  0  0  0  0  0  0  0  0
   58.7001   32.1156   49.0418 H   0  0  0  0  0  0  0  0  0  0  0  0
   60.2440   32.0038   47.0113 H   0  0  0  0  0  0  0  0  0  0  0  0
   61.0269   31.7468   48.6482 H   0  0  0  0  0  0  0  0  0  0  0  0
   58.9262   31.5360   44.9474 H   0  0  0  0  0  0  0  0  0  0  0  0
   56.5125   31.1971   44.4344 H   0  0  0  0  0  0  0  0  0  0  0  0
  1  2  1  0
  2  3  2  0
  3  4  1  0
  4  5  1  0
  5  6  1  0
  6  7  1  0
  7  8  1  0
  8  9  1  0
  9 10  1  0
 10 11  2  0
 10 12  1  0
 12 13  2  0
 13 14  1  0
 13 15  1  0
 15 16  1  0
 16 17  1  0
 17 18  2  0
  9 19  1  0
 19 20  1  0
  4 21  2  0
 21 22  1  0
 22 23  2  0
 23 24  1  0
 23  2  1  0
 20  6  1  0
 17 12  1  0
  1 25  1  0
  1 26  1  0
  1 27  1  0
  3 28  1  0
  5 29  1  0
  5 30  1  0
  6 31  1  0
  7 32  1  0
  7 33  1  0
  8 34  1  0
  8 35  1  0
 14 36  1  0
 14 37  1  0
 14 38  1  0
 19 39  1  0
 19 40  1  0
 20 41  1  0
 20 42  1  0
 21 43  1  0
 22 44  1  0
M  CHG  3   6   1  16  -1  24  -1
M  END
>  <UniqueID>  (54) 
51

>  <SMILES>  (54) 
Cc1cc(C[NH+]2CCN(C(=O)c3c(C)o[n-]c3=O)CC2)ccc1[O-]

>  <Energy>  (54) 
91.287033661128

>  <Genealogy>  (54) 
Cc1cc(C[NH+]2CCN(C(=O)c3c(C)o[n-]c3=O)CC2)ccc1[O-] (protonated)
Cc1cc(C[NH+]2CCN(C(=O)c3c(C)o[n-]c3=O)CC2)ccc1[O-] (3D coordinates assigned)
Cc1cc(C[NH+]2CCN(C(=O)c3c(C)o[n-]c3=O)CC2)ccc1[O-] (nonaromatic ring conformer: 91.287033661128 kcal/mol)

>  <smiles>  (54) 
Cc1cc(CN2CCN(C(=O)c3c(C)o[nH]c3=O)CC2)ccc1O

>  <score_type>  (54) 
oracle

>  <origin>  (54) 
adg

>  <m_score__min__energy>  (54) 
-10.050000000000001

>  <m_primary>  (54) 
energy

$$$$
54:0
     RDKit          3D

 49 52  0  0  0  0  0  0  0  0999 V2000
   60.6182   31.3628   48.9832 H   0  0  0  0  0  0  0  0  0  0  0  0
   60.4930   32.3440   48.5020 C   0  0  0  0  0  0  0  0  0  0  0  0
   60.0110   33.3790   49.2000 C   0  0  0  0  0  0  0  0  0  0  0  0
   59.5850   33.2100   50.6140 C   0  0  0  0  0  0  0  0  0  0  0  0
   58.3710   32.5690   50.9290 C   0  0  0  0  0  0  0  0  0  0  0  0
   57.7369   32.1722   50.1225 H   0  0  0  0  0  0  0  0  0  0  0  0
   57.9670   32.4340   52.2610 C   0  0  0  0  0  0  0  0  0  0  0  0
   57.0197   31.9278   52.4984 H   0  0  0  0  0  0  0  0  0  0  0  0
   58.7630   32.9400   53.2900 C   0  0  0  0  0  0  0  0  0  0  0  0
   58.4433   32.8306   54.3368 H   0  0  0  0  0  0  0  0  0  0  0  0
   59.9650   33.5850   52.9910 C   0  0  0  0  0  0  0  0  0  0  0  0
   60.5904   33.9851   53.8027 H   0  0  0  0  0  0  0  0  0  0  0  0
   60.3750   33.7230   51.6600 C   0  0  0  0  0  0  0  0  0  0  0  0
   61.3206   34.2356   51.4298 H   0  0  0  0  0  0  0  0  0  0  0  0
   59.9670   34.7470   48.5560 C   0  0  0  0  0  0  0  0  0  0  0  0
   59.1392   35.3127   49.0085 H   0  0  0  0  0  0  0  0  0  0  0  0
   60.9508   35.2063   48.7325 H   0  0  0  0  0  0  0  0  0  0  0  0
   59.7580   34.7310   47.0130 C   0  0  0  0  0  0  0  0  0  0  0  0
   58.7509   35.1193   46.8012 H   0  0  0  0  0  0  0  0  0  0  0  0
   60.5629   35.3484   46.5876 H   0  0  0  0  0  0  0  0  0  0  0  0
   59.8800   33.3920   46.3750 N   0  0  2  0  0  0  0  0  0  0  0  0
   60.2460   33.5440   45.4060 H   0  0  0  0  0  0  0  0  0  0  0  0
   58.5980   32.7270   46.2590 C   0  0  0  0  0  0  0  0  0  0  0  0
   57.5580   33.2410   46.7590 O   0  0  0  0  0  0  0  0  0  0  0  0
   58.5070   31.4340   45.6370 N   0  0  0  0  0  0  0  0  0  0  0  0
   58.2580   31.1970   44.3310 C   0  0  0  0  0  0  0  0  0  0  0  0
   58.0670   32.2530   43.2840 C   0  0  0  0  0  0  0  0  0  0  0  0
   57.8914   33.2239   43.7703 H   0  0  0  0  0  0  0  0  0  0  0  0
   58.9685   32.3148   42.6568 H   0  0  0  0  0  0  0  0  0  0  0  0
   57.2009   31.9951   42.6568 H   0  0  0  0  0  0  0  0  0  0  0  0
   58.2190   29.8390   44.0860 C   0  0  0  0  0  0  0  0  0  0  0  0
   58.0505   29.3524   43.1140 H   0  0  0  0  0  0  0  0  0  0  0  0
   58.4340   29.2040   45.3060 C   0  0  0  0  0  0  0  0  0  0  0  0
   58.4660   27.8730   45.5440 C   0  0  0  0  0  0  0  0  0  0  0  0
   59.4532   27.3879   45.5371 H   0  0  0  0  0  0  0  0  0  0  0  0
   57.2940   27.0090   45.8130 C   0  0  0  0  0  0  0  0  0  0  0  0
   57.3260   25.7510   46.2880 N   0  0  0  0  0  0  0  0  0  0  0  0
   56.0230   25.4040   46.3590 C   0  0  0  0  0  0  0  0  0  0  0  0
   55.6430   24.2740   46.7630 O   0  0  0  0  0  0  0  0  0  0  0  0
   55.1600   26.3620   45.9610 N   0  0  0  0  0  0  0  0  0  0  0  0
   55.9800   27.3700   45.6200 C   0  0  0  0  0  0  0  0  0  0  0  0
   55.5350   28.5960   45.1400 O   0  0  0  0  0  0  0  0  0  0  0  0
   58.6090   30.2280   46.2480 C   0  0  0  0  0  0  0  0  0  0  0  0
   58.8660   30.0760   47.5580 C   0  0  0  0  0  0  0  0  0  0  0  0
   58.9840   30.9603   48.2016 H   0  0  0  0  0  0  0  0  0  0  0  0
   58.9584   29.0673   47.9869 H   0  0  0  0  0  0  0  0  0  0  0  0
   60.8610   32.5290   47.0620 C   0  0  0  0  0  0  0  0  0  0  0  0
   60.8855   31.5468   46.5673 H   0  0  0  0  0  0  0  0  0  0  0  0
   61.8492   33.0095   47.0104 H   0  0  0  0  0  0  0  0  0  0  0  0
  1  2  1  0
  2  3  2  0
  3  4  1  0
  4  5  2  0
  5  6  1  0
  5  7  1  0
  7  8  1  0
  7  9  2  0
  9 10  1  0
  9 11  1  0
 11 12  1  0
 11 13  2  0
 13 14  1  0
  3 15  1  0
 15 16  1  0
 15 17  1  0
 15 18  1  0
 18 19  1  0
 18 20  1  0
 18 21  1  0
 21 22  1  6
 21 23  1  0
 23 24  2  0
 23 25  1  0
 25 26  1  0
 26 27  1  0
 27 28  1  0
 27 29  1  0
 27 30  1  0
 26 31  2  0
 31 32  1  0
 31 33  1  0
 33 34  2  0
 34 35  1  0
 34 36  1  0
 36 37  1  0
 37 38  1  0
 38 39  2  0
 38 40  1  0
 40 41  1  0
 41 42  1  0
 33 43  1  0
 43 44  2  0
 44 45  1  0
 44 46  1  0
 21 47  1  0
 47 48  1  0
 47 49  1  0
 47  2  1  0
 13  4  1  0
 43 25  1  0
 41 36  2  0
M  CHG  4  21   1  37  -1  40  -1  42  -1
M  END
>  <UniqueID>  (55) 
52

>  <SMILES>  (55) 
C=c1/c(=C/c2[n-]c(=O)[n-]c2[O-])cc(C)n1C(=O)[N@@H+]1CC=C(c2ccccc2)CC1

>  <Energy>  (55) 
134.20425441812134

>  <Genealogy>  (55) 
C=c1c(=Cc2[n-]c(=O)[n-]c2[O-])cc(C)n1C(=O)[NH+]1CC=C(c2ccccc2)CC1 (protonated)
C=c1c(=Cc2[n-]c(=O)[n-]c2[O-])cc(C)n1C(=O)[N@@H+]1CC=C(c2ccccc2)CC1 (chirality)
C=c1/c(=C/c2[n-]c(=O)[n-]c2[O-])cc(C)n1C(=O)[N@@H+]1CC=C(c2ccccc2)CC1 (cis-trans isomerization)
C=c1/c(=C/c2[n-]c(=O)[n-]c2[O-])cc(C)n1C(=O)[N@@H+]1CC=C(c2ccccc2)CC1 (3D coordinates assigned)
C=c1/c(=C/c2[n-]c(=O)[n-]c2[O-])cc(C)n1C(=O)[N@@H+]1CC=C(c2ccccc2)CC1 (nonaromatic ring conformer: 134.20425441812134 kcal/mol)

>  <smiles>  (55) 
C=c1c(=Cc2[nH]c(=O)[nH]c2O)cc(C)n1C(=O)N1CC=C(c2ccccc2)CC1

>  <score_type>  (55) 
oracle

>  <origin>  (55) 
adg

>  <m_score__min__energy>  (55) 
-16.370000000000001

>  <m_primary>  (55) 
energy

$$$$
55:0
     RDKit          3D

 69 73  0  0  0  0  0  0  0  0999 V2000
   61.8300   34.6602   48.4655 H   0  0  0  0  0  0  0  0  0  0  0  0
   62.1390   33.7650   47.9060 C   0  0  0  0  0  0  0  0  0  0  0  0
   62.9592   33.8287   47.1758 H   0  0  0  0  0  0  0  0  0  0  0  0
   61.5190   32.6020   48.1130 C   0  0  0  0  0  0  0  0  0  0  0  0
   60.4770   32.3700   48.9960 C   0  0  0  0  0  0  0  0  0  0  0  0
   59.7690   33.3830   49.8050 C   0  0  0  0  0  0  0  0  0  0  0  0
   59.2830   34.3910   49.2240 O   0  0  0  0  0  0  0  0  0  0  0  0
   59.6120   33.2300   51.2300 N   0  0  0  0  0  0  0  0  0  0  0  0
   60.6020   32.5070   52.0380 C   0  0  0  0  0  0  0  0  0  0  0  0
   61.2278   31.8879   51.3784 H   0  0  0  0  0  0  0  0  0  0  0  0
   61.2291   33.2342   52.5746 H   0  0  0  0  0  0  0  0  0  0  0  0
   59.8920   31.6040   53.0600 C   0  0  0  0  0  0  0  0  0  0  0  0
   59.5548   30.6945   52.5412 H   0  0  0  0  0  0  0  0  0  0  0  0
   60.6208   31.3947   53.8569 H   0  0  0  0  0  0  0  0  0  0  0  0
   58.7120   32.2330   53.7140 N   0  0  0  0  0  0  0  0  0  0  0  0
   57.4730   31.4820   53.4470 C   0  0  0  0  0  0  0  0  0  0  0  0
   57.0039   31.1977   54.4005 H   0  0  0  0  0  0  0  0  0  0  0  0
   56.7794   32.1119   52.8706 H   0  0  0  0  0  0  0  0  0  0  0  0
   57.7105   30.5757   52.8706 H   0  0  0  0  0  0  0  0  0  0  0  0
   58.5510   33.6740   53.4260 C   0  0  0  0  0  0  0  0  0  0  0  0
   57.5999   34.0180   53.8585 H   0  0  0  0  0  0  0  0  0  0  0  0
   59.4064   34.2054   53.8687 H   0  0  0  0  0  0  0  0  0  0  0  0
   58.5430   33.9650   51.9170 C   0  0  0  0  0  0  0  0  0  0  0  0
   57.5722   33.6617   51.4980 H   0  0  0  0  0  0  0  0  0  0  0  0
   58.7093   35.0422   51.7686 H   0  0  0  0  0  0  0  0  0  0  0  0
   60.1540   31.0200   48.8950 C   0  0  0  0  0  0  0  0  0  0  0  0
   58.9460   30.3910   49.5440 C   0  0  0  0  0  0  0  0  0  0  0  0
   58.3232   31.1812   49.9885 H   0  0  0  0  0  0  0  0  0  0  0  0
   58.3797   29.8425   48.7769 H   0  0  0  0  0  0  0  0  0  0  0  0
   59.3650   29.4110   50.6360 C   0  0  0  0  0  0  0  0  0  0  0  0
   59.1739   29.8579   51.6228 H   0  0  0  0  0  0  0  0  0  0  0  0
   58.7857   28.4812   50.5362 H   0  0  0  0  0  0  0  0  0  0  0  0
   60.4374   29.1874   50.5362 H   0  0  0  0  0  0  0  0  0  0  0  0
   61.0160   30.4940   47.9170 C   0  0  0  0  0  0  0  0  0  0  0  0
   61.0650   29.2520   47.3980 C   0  0  0  0  0  0  0  0  0  0  0  0
   61.9692   28.9789   46.8342 H   0  0  0  0  0  0  0  0  0  0  0  0
   60.0180   28.2320   47.5190 C   0  0  0  0  0  0  0  0  0  0  0  0
   60.0880   27.0300   48.2100 C   0  0  0  0  0  0  0  0  0  0  0  0
   61.1400   26.6550   49.0370 O   0  0  0  0  0  0  0  0  0  0  0  0
   59.0100   26.2420   47.9820 N   0  0  0  0  0  0  0  0  0  0  0  0
   58.2680   26.9530   47.1100 C   0  0  0  0  0  0  0  0  0  0  0  0
   57.0580   26.5640   46.5390 C   0  0  0  0  0  0  0  0  0  0  0  0
   56.5904   25.6037   46.8020 H   0  0  0  0  0  0  0  0  0  0  0  0
   56.4520   27.4360   45.6160 C   0  0  0  0  0  0  0  0  0  0  0  0
   55.4937   27.1586   45.1527 H   0  0  0  0  0  0  0  0  0  0  0  0
   57.0640   28.6670   45.2780 C   0  0  0  0  0  0  0  0  0  0  0  0
   56.2850   29.7450   44.1210 S   0  0  0  0  0  0  0  0  0  0  0  0
   56.9220   29.5900   42.7680 O   0  0  0  0  0  0  0  0  0  0  0  0
   54.8330   29.3760   44.0080 O   0  0  0  0  0  0  0  0  0  0  0  0
   56.4110   31.4010   44.6330 N   0  0  0  0  0  0  0  0  0  0  0  0
   57.8140   31.8130   44.7670 C   0  0  0  0  0  0  0  0  0  0  0  0
   58.4406   30.9803   44.4149 H   0  0  0  0  0  0  0  0  0  0  0  0
   58.0420   33.1000   43.9850 C   0  0  0  0  0  0  0  0  0  0  0  0
   59.0896   33.1654   43.6559 H   0  0  0  0  0  0  0  0  0  0  0  0
   57.4113   33.1384   43.0846 H   0  0  0  0  0  0  0  0  0  0  0  0
   57.7160   34.2430   44.9400 C   0  0  0  0  0  0  0  0  0  0  0  0
   58.4852   35.0262   44.8693 H   0  0  0  0  0  0  0  0  0  0  0  0
   56.7470   34.7002   44.6909 H   0  0  0  0  0  0  0  0  0  0  0  0
   57.6960   33.6520   46.3480 C   0  0  0  0  0  0  0  0  0  0  0  0
   58.4059   34.1880   46.9951 H   0  0  0  0  0  0  0  0  0  0  0  0
   56.6985   33.7423   46.8029 H   0  0  0  0  0  0  0  0  0  0  0  0
   58.1080   32.1930   46.2110 C   0  0  0  0  0  0  0  0  0  0  0  0
   59.1802   32.0758   46.4272 H   0  0  0  0  0  0  0  0  0  0  0  0
   57.5628   31.5503   46.9178 H   0  0  0  0  0  0  0  0  0  0  0  0
   58.2860   29.0330   45.8760 C   0  0  0  0  0  0  0  0  0  0  0  0
   58.7754   29.9862   45.6273 H   0  0  0  0  0  0  0  0  0  0  0  0
   58.8560   28.1510   46.7920 C   0  0  0  0  0  0  0  0  0  0  0  0
   61.8400   31.4660   47.4680 N   0  0  0  0  0  0  0  0  0  0  0  0
   62.5800   31.3630   46.7360 H   0  0  0  0  0  0  0  0  0  0  0  0
  1  2  1  0
  2  3  1  0
  2  4  2  0
  4  5  1  0
  5  6  1  0
  6  7  2  0
  6  8  1  0
  8  9  1  0
  9 10  1  0
  9 11  1  0
  9 12  1  0
 12 13  1  0
 12 14  1  0
 12 15  1  0
 15 16  1  0
 16 17  1  0
 16 18  1  0
 16 19  1  0
 15 20  1  0
 20 21  1  0
 20 22  1  0
 20 23  1  0
 23 24  1  0
 23 25  1  0
  5 26  2  0
 26 27  1  0
 27 28  1  0
 27 29  1  0
 27 30  1  0
 30 31  1  0
 30 32  1  0
 30 33  1  0
 26 34  1  0
 34 35  2  0
 35 36  1  0
 35 37  1  0
 37 38  2  0
 38 39  1  0
 38 40  1  0
 40 41  1  0
 41 42  2  0
 42 43  1  0
 42 44  1  0
 44 45  1  0
 44 46  2  0
 46 47  1  0
 47 48  2  0
 47 49  2  0
 47 50  1  0
 50 51  1  0
 51 52  1  0
 51 53  1  0
 53 54  1  0
 53 55  1  0
 53 56  1  0
 56 57  1  0
 56 58  1  0
 56 59  1  0
 59 60  1  0
 59 61  1  0
 59 62  1  0
 62 63  1  0
 62 64  1  0
 46 65  1  0
 65 66  1  0
 65 67  2  0
 34 68  1  0
 68 69  1  0
 68  4  1  0
 23  8  1  0
 67 37  1  0
 67 41  1  0
 62 51  1  0
M  CHG  3  39  -1  40  -1  50  -1
M  END
>  <UniqueID>  (56) 
53

>  <SMILES>  (56) 
C=c1[nH]/c(=C/c2c([O-])[n-]c3ccc(S(=O)(=O)[N-]C4CCCC4)cc23)c(CC)c1C(=O)N1CCN(C)CC1

>  <Energy>  (56) 
149.76965328793992

>  <Genealogy>  (56) 
C=c1[nH]c(=Cc2c([O-])[n-]c3ccc(S(=O)(=O)[N-]C4CCCC4)cc23)c(CC)c1C(=O)N1CCN(C)CC1 (protonated)
C=c1[nH]/c(=C/c2c([O-])[n-]c3ccc(S(=O)(=O)[N-]C4CCCC4)cc23)c(CC)c1C(=O)N1CCN(C)CC1 (cis-trans isomerization)
C=c1[nH]/c(=C/c2c([O-])[n-]c3ccc(S(=O)(=O)[N-]C4CCCC4)cc23)c(CC)c1C(=O)N1CCN(C)CC1 (3D coordinates assigned)
C=c1[nH]/c(=C/c2c([O-])[n-]c3ccc(S(=O)(=O)[N-]C4CCCC4)cc23)c(CC)c1C(=O)N1CCN(C)CC1 (nonaromatic ring conformer: 149.76965328793992 kcal/mol)

>  <smiles>  (56) 
C=c1[nH]c(=Cc2c(O)[nH]c3ccc(S(=O)(=O)NC4CCCC4)cc23)c(CC)c1C(=O)N1CCN(C)CC1

>  <score_type>  (56) 
oracle

>  <origin>  (56) 
adg

>  <m_score__min__energy>  (56) 
-14.98

>  <m_primary>  (56) 
energy

$$$$
56:0
     RDKit          3D

 49 52  0  0  0  0  0  0  0  0999 V2000
   56.6750   34.5910   44.8720 C   0  0  0  0  0  0  0  0  0  0  0  0
   57.9250   33.9290   45.3500 C   0  0  0  0  0  0  0  0  0  0  0  0
   58.6820   34.3890   46.3140 O   0  0  0  0  0  0  0  0  0  0  0  0
   59.6630   33.5270   46.4790 C   0  0  0  0  0  0  0  0  0  0  0  0
   60.7340   33.6880   47.4830 C   0  0  0  0  0  0  0  0  0  0  0  0
   62.0760   33.4850   47.1200 C   0  0  0  0  0  0  0  0  0  0  0  0
   63.0940   33.6370   48.0670 C   0  0  0  0  0  0  0  0  0  0  0  0
   62.7830   33.9930   49.3850 C   0  0  0  0  0  0  0  0  0  0  0  0
   63.7890   34.1480   50.3360 O   0  0  0  0  0  0  0  0  0  0  0  0
   61.4490   34.1970   49.7510 C   0  0  0  0  0  0  0  0  0  0  0  0
   60.4290   34.0450   48.8070 C   0  0  0  0  0  0  0  0  0  0  0  0
   59.5780   32.4740   45.6350 N   0  0  0  0  0  0  0  0  0  0  0  0
   58.4720   32.7390   44.9130 C   0  0  0  0  0  0  0  0  0  0  0  0
   57.9190   31.8130   43.8710 C   0  0  0  0  0  0  0  0  0  0  0  0
   57.8400   30.4390   44.3960 N   0  0  0  0  0  0  0  0  0  0  0  0
   58.9960   29.7290   44.5800 C   0  0  0  0  0  0  0  0  0  0  0  0
   58.9590   28.4140   45.0420 C   0  0  0  0  0  0  0  0  0  0  0  0
   57.7250   27.8070   45.3170 C   0  0  0  0  0  0  0  0  0  0  0  0
   57.6120   26.4830   45.7700 O   0  0  0  0  0  0  0  0  0  0  0  0
   58.6290   25.4840   45.6590 C   0  0  0  0  0  0  0  0  0  0  0  0
   58.1040   24.2630   44.9500 C   0  0  0  0  0  0  0  0  0  0  0  0
   58.7300   23.0170   45.1140 C   0  0  0  0  0  0  0  0  0  0  0  0
   58.2320   21.8870   44.4560 C   0  0  0  0  0  0  0  0  0  0  0  0
   57.1050   21.9930   43.6390 C   0  0  0  0  0  0  0  0  0  0  0  0
   56.4690   23.2270   43.4790 C   0  0  0  0  0  0  0  0  0  0  0  0
   55.3720   23.3270   42.6890 F   0  0  0  0  0  0  0  0  0  0  0  0
   56.9620   24.3590   44.1360 C   0  0  0  0  0  0  0  0  0  0  0  0
   56.5560   28.5460   45.1330 C   0  0  0  0  0  0  0  0  0  0  0  0
   56.6240   29.8630   44.6680 C   0  0  0  0  0  0  0  0  0  0  0  0
   55.5540   30.5090   44.5020 O   0  0  0  0  0  0  0  0  0  0  0  0
   56.0746   34.9090   45.7371 H   0  0  0  0  0  0  0  0  0  0  0  0
   56.9351   35.4696   44.2634 H   0  0  0  0  0  0  0  0  0  0  0  0
   56.0944   33.8822   44.2634 H   0  0  0  0  0  0  0  0  0  0  0  0
   62.3272   33.2052   46.0863 H   0  0  0  0  0  0  0  0  0  0  0  0
   64.1424   33.4763   47.7754 H   0  0  0  0  0  0  0  0  0  0  0  0
   63.6740   33.8190   51.2880 H   0  0  0  0  0  0  0  0  0  0  0  0
   61.2012   34.4780   50.7852 H   0  0  0  0  0  0  0  0  0  0  0  0
   59.3818   34.2059   49.1027 H   0  0  0  0  0  0  0  0  0  0  0  0
   56.9120   32.1500   43.5841 H   0  0  0  0  0  0  0  0  0  0  0  0
   58.5843   31.8229   42.9951 H   0  0  0  0  0  0  0  0  0  0  0  0
   59.9650   30.2013   44.3609 H   0  0  0  0  0  0  0  0  0  0  0  0
   59.8945   27.8546   45.1903 H   0  0  0  0  0  0  0  0  0  0  0  0
   59.4770   25.8942   45.0910 H   0  0  0  0  0  0  0  0  0  0  0  0
   58.9502   25.1938   46.6703 H   0  0  0  0  0  0  0  0  0  0  0  0
   59.6147   22.9289   45.7618 H   0  0  0  0  0  0  0  0  0  0  0  0
   58.7291   20.9140   44.5826 H   0  0  0  0  0  0  0  0  0  0  0  0
   56.7170   21.1039   43.1204 H   0  0  0  0  0  0  0  0  0  0  0  0
   56.4545   25.3275   44.0154 H   0  0  0  0  0  0  0  0  0  0  0  0
   55.5789   28.0917   45.3542 H   0  0  0  0  0  0  0  0  0  0  0  0
  1  2  1  0
  2  3  1  0
  3  4  1  0
  4  5  1  0
  5  6  2  0
  6  7  1  0
  7  8  2  0
  8  9  1  0
  8 10  1  0
 10 11  2  0
  4 12  2  0
 12 13  1  0
 13 14  1  0
 14 15  1  0
 15 16  1  0
 16 17  2  0
 17 18  1  0
 18 19  1  0
 19 20  1  0
 20 21  1  0
 21 22  2  0
 22 23  1  0
 23 24  2  0
 24 25  1  0
 25 26  1  0
 25 27  2  0
 18 28  2  0
 28 29  1  0
 29 30  2  0
 13  2  2  0
 29 15  1  0
 11  5  1  0
 27 21  1  0
  1 31  1  0
  1 32  1  0
  1 33  1  0
  6 34  1  0
  7 35  1  0
  9 36  1  0
 10 37  1  0
 11 38  1  0
 14 39  1  0
 14 40  1  0
 16 41  1  0
 17 42  1  0
 20 43  1  0
 20 44  1  0
 22 45  1  0
 23 46  1  0
 24 47  1  0
 27 48  1  0
 28 49  1  0
M  END
>  <UniqueID>  (57) 
54

>  <SMILES>  (57) 
Cc1oc(-c2ccc(O)cc2)nc1Cn1ccc(OCc2cccc(F)c2)cc1=O

>  <Energy>  (57) 
82.25026518559648

>  <Genealogy>  (57) 
Cc1oc(-c2ccc(O)cc2)nc1Cn1ccc(OCc2cccc(F)c2)cc1=O (3D coordinates assigned)
Cc1oc(-c2ccc(O)cc2)nc1Cn1ccc(OCc2cccc(F)c2)cc1=O (optimized conformer: 82.25026518559648 kcal/mol)

>  <smiles>  (57) 
Cc1oc(-c2ccc(O)cc2)nc1Cn1ccc(OCc2cccc(F)c2)cc1=O

>  <score_type>  (57) 
oracle

>  <origin>  (57) 
adg

>  <m_score__min__energy>  (57) 
-7.7999999999999998

>  <m_primary>  (57) 
energy

$$$$
57:0
     RDKit          3D

 45 48  0  0  0  0  0  0  0  0999 V2000
   53.4720   22.9250   45.2420 O   0  0  0  0  0  0  0  0  0  0  0  0
   54.4750   23.4800   44.7150 C   0  0  0  0  0  0  0  0  0  0  0  0
   55.0620   22.9350   43.5320 N   0  0  0  0  0  0  0  0  0  0  0  0
   56.5050   22.8460   43.3500 C   0  0  0  0  0  0  0  0  0  0  0  0
   57.1920   21.9600   44.3730 C   0  0  0  0  0  0  0  0  0  0  0  0
   56.9650   21.4560   42.9530 C   0  0  0  0  0  0  0  0  0  0  0  0
   55.0440   24.6910   45.3180 C   0  0  0  0  0  0  0  0  0  0  0  0
   56.3690   24.8920   45.6460 C   0  0  0  0  0  0  0  0  0  0  0  0
   56.3850   26.1670   46.1680 C   0  0  0  0  0  0  0  0  0  0  0  0
   57.5960   26.9050   46.6520 C   0  0  0  0  0  0  0  0  0  0  0  0
   58.6730   26.9010   45.6360 N   0  0  0  0  0  0  0  0  0  0  0  0
   59.8060   27.7940   45.9750 C   0  0  0  0  0  0  0  0  0  0  0  0
   59.3870   29.2730   45.9760 C   0  0  0  0  0  0  0  0  0  0  0  0
   58.4150   29.5390   44.9070 N   0  0  0  0  0  0  0  0  0  0  0  0
   57.4600   30.6170   45.0150 C   0  0  0  0  0  0  0  0  0  0  0  0
   56.3330   30.5050   44.4600 O   0  0  0  0  0  0  0  0  0  0  0  0
   57.7610   31.8580   45.7610 C   0  0  0  0  0  0  0  0  0  0  0  0
   57.5660   33.1400   45.2750 C   0  0  0  0  0  0  0  0  0  0  0  0
   57.9950   33.9990   46.2610 C   0  0  0  0  0  0  0  0  0  0  0  0
   58.4330   33.1940   47.2880 C   0  0  0  0  0  0  0  0  0  0  0  0
   58.9550   33.6630   48.4890 O   0  0  0  0  0  0  0  0  0  0  0  0
   58.3000   31.8860   46.9960 N   0  0  0  0  0  0  0  0  0  0  0  0
   58.3630   28.6060   43.7760 C   0  0  0  0  0  0  0  0  0  0  0  0
   58.1430   27.1620   44.2710 C   0  0  0  0  0  0  0  0  0  0  0  0
   55.1440   26.6900   46.1420 N   0  0  0  0  0  0  0  0  0  0  0  0
   54.3240   25.7870   45.6260 N   0  0  0  0  0  0  0  0  0  0  0  0
   56.6710   23.8647   42.9697 H   0  0  0  0  0  0  0  0  0  0  0  0
   58.2091   22.2012   44.7155 H   0  0  0  0  0  0  0  0  0  0  0  0
   56.9409   21.5930   45.3791 H   0  0  0  0  0  0  0  0  0  0  0  0
   57.8182   21.3329   42.2697 H   0  0  0  0  0  0  0  0  0  0  0  0
   56.4819   20.5736   42.5080 H   0  0  0  0  0  0  0  0  0  0  0  0
   57.2133   24.1981   45.5204 H   0  0  0  0  0  0  0  0  0  0  0  0
   57.3163   27.9456   46.8730 H   0  0  0  0  0  0  0  0  0  0  0  0
   57.9704   26.4012   47.5553 H   0  0  0  0  0  0  0  0  0  0  0  0
   60.1810   27.5295   46.9747 H   0  0  0  0  0  0  0  0  0  0  0  0
   60.5867   27.6604   45.2117 H   0  0  0  0  0  0  0  0  0  0  0  0
   58.9319   29.5185   46.9469 H   0  0  0  0  0  0  0  0  0  0  0  0
   60.2793   29.8931   45.8045 H   0  0  0  0  0  0  0  0  0  0  0  0
   57.1505   33.4169   44.2949 H   0  0  0  0  0  0  0  0  0  0  0  0
   57.9891   35.0987   46.2340 H   0  0  0  0  0  0  0  0  0  0  0  0
   59.8540   33.3370   48.8230 H   0  0  0  0  0  0  0  0  0  0  0  0
   57.5340   28.8902   43.1112 H   0  0  0  0  0  0  0  0  0  0  0  0
   59.3193   28.6527   43.2345 H   0  0  0  0  0  0  0  0  0  0  0  0
   57.0619   26.9592   44.2755 H   0  0  0  0  0  0  0  0  0  0  0  0
   58.6957   26.5036   43.5847 H   0  0  0  0  0  0  0  0  0  0  0  0
  1  2  2  0
  2  3  1  0
  3  4  1  0
  4  5  1  0
  5  6  1  0
  2  7  1  0
  7  8  1  0
  8  9  2  0
  9 10  1  0
 10 11  1  0
 11 12  1  0
 12 13  1  0
 13 14  1  0
 14 15  1  0
 15 16  2  0
 15 17  1  0
 17 18  2  0
 18 19  1  0
 19 20  2  0
 20 21  1  0
 20 22  1  0
 14 23  1  0
 23 24  1  0
  9 25  1  0
 25 26  1  0
  6  4  1  0
 26  7  2  0
 24 11  1  0
 22 17  1  0
  4 27  1  0
  5 28  1  0
  5 29  1  0
  6 30  1  0
  6 31  1  0
  8 32  1  0
 10 33  1  0
 10 34  1  0
 12 35  1  0
 12 36  1  0
 13 37  1  0
 13 38  1  0
 18 39  1  0
 19 40  1  0
 21 41  1  0
 23 42  1  0
 23 43  1  0
 24 44  1  0
 24 45  1  0
M  CHG  3   3  -1  22  -1  25  -1
M  END
>  <UniqueID>  (58) 
55

>  <SMILES>  (58) 
O=C([N-]C1CC1)c1cc(CN2CCN(C(=O)c3ccc(O)[n-]3)CC2)[n-]n1

>  <Energy>  (58) 
372.8473496528537

>  <Genealogy>  (58) 
O=C([N-]C1CC1)c1cc(CN2CCN(C(=O)c3ccc(O)[n-]3)CC2)[n-]n1 (protonated)
O=C([N-]C1CC1)c1cc(CN2CCN(C(=O)c3ccc(O)[n-]3)CC2)[n-]n1 (3D coordinates assigned)
O=C([N-]C1CC1)c1cc(CN2CCN(C(=O)c3ccc(O)[n-]3)CC2)[n-]n1 (nonaromatic ring conformer: 372.8473496528537 kcal/mol)

>  <smiles>  (58) 
O=C(NC1CC1)c1cc(CN2CCN(C(=O)c3ccc(O)[nH]3)CC2)[nH]n1

>  <score_type>  (58) 
oracle

>  <origin>  (58) 
adg

>  <m_score__min__energy>  (58) 
-14.140000000000001

>  <m_primary>  (58) 
energy

$$$$
58:0
     RDKit          3D

 58 60  0  0  0  0  0  0  0  0999 V2000
   58.1720   32.3290   43.4160 C   0  0  0  0  0  0  0  0  0  0  0  0
   57.6960   32.4270   44.8330 C   0  0  0  0  0  0  0  0  0  0  0  0
   56.8330   31.6000   45.2360 O   0  0  0  0  0  0  0  0  0  0  0  0
   58.2090   33.4360   45.7320 N   0  0  0  0  0  0  0  0  0  0  0  0
   59.0500   34.5250   45.2180 C   0  0  0  0  0  0  0  0  0  0  0  0
   59.5860   35.4020   46.3570 C   0  0  0  0  0  0  0  0  0  0  0  0
   60.0130   34.5950   47.5160 N   0  0  0  0  0  0  0  0  0  0  0  0
   61.4350   33.6330   47.1710 S   0  0  0  0  0  0  0  0  0  0  0  0
   62.6310   34.2040   47.8830 O   0  0  0  0  0  0  0  0  0  0  0  0
   61.7070   33.6680   45.6920 O   0  0  0  0  0  0  0  0  0  0  0  0
   61.1940   31.9550   47.6520 C   0  0  0  0  0  0  0  0  0  0  0  0
   60.5470   31.0710   46.7790 C   0  0  0  0  0  0  0  0  0  0  0  0
   60.3310   29.7450   47.1580 C   0  0  0  0  0  0  0  0  0  0  0  0
   60.7540   29.2940   48.4110 C   0  0  0  0  0  0  0  0  0  0  0  0
   61.3990   30.1710   49.3020 C   0  0  0  0  0  0  0  0  0  0  0  0
   61.8460   29.7040   50.6310 C   0  0  0  0  0  0  0  0  0  0  0  0
   61.8230   28.4730   50.9110 O   0  0  0  0  0  0  0  0  0  0  0  0
   62.2930   30.6320   51.5800 O   0  0  0  0  0  0  0  0  0  0  0  0
   63.4530   31.4400   51.3980 C   0  0  0  0  0  0  0  0  0  0  0  0
   64.6880   30.5710   51.3360 C   0  0  0  0  0  0  0  0  0  0  0  0
   64.5800   29.2580   51.6890 N   0  0  0  0  0  0  0  0  0  0  0  0
   65.6500   28.4120   51.6630 C   0  0  0  0  0  0  0  0  0  0  0  0
   65.4750   26.9730   52.0670 C   0  0  0  0  0  0  0  0  0  0  0  0
   66.9020   28.9090   51.2550 C   0  0  0  0  0  0  0  0  0  0  0  0
   68.1250   28.0420   51.1980 C   0  0  0  0  0  0  0  0  0  0  0  0
   67.0070   30.2150   50.8960 N   0  0  0  0  0  0  0  0  0  0  0  0
   65.9460   31.0620   50.9180 C   0  0  0  0  0  0  0  0  0  0  0  0
   66.1630   32.4880   50.5020 C   0  0  0  0  0  0  0  0  0  0  0  0
   61.6160   31.5040   48.9100 C   0  0  0  0  0  0  0  0  0  0  0  0
   58.9240   33.7680   48.0900 C   0  0  0  0  0  0  0  0  0  0  0  0
   57.7500   33.5010   47.1270 C   0  0  0  0  0  0  0  0  0  0  0  0
   59.2494   32.1072   43.4056 H   0  0  0  0  0  0  0  0  0  0  0  0
   57.6270   31.5242   42.9009 H   0  0  0  0  0  0  0  0  0  0  0  0
   57.9892   33.2836   42.9009 H   0  0  0  0  0  0  0  0  0  0  0  0
   59.8994   34.0928   44.6687 H   0  0  0  0  0  0  0  0  0  0  0  0
   58.4367   35.1536   44.5556 H   0  0  0  0  0  0  0  0  0  0  0  0
   60.4472   35.9781   45.9876 H   0  0  0  0  0  0  0  0  0  0  0  0
   58.7753   36.0691   46.6852 H   0  0  0  0  0  0  0  0  0  0  0  0
   60.2086   31.4223   45.7931 H   0  0  0  0  0  0  0  0  0  0  0  0
   59.8261   29.0529   46.4680 H   0  0  0  0  0  0  0  0  0  0  0  0
   60.5817   28.2474   48.7024 H   0  0  0  0  0  0  0  0  0  0  0  0
   63.3587   32.0054   50.4591 H   0  0  0  0  0  0  0  0  0  0  0  0
   63.5442   32.1345   52.2462 H   0  0  0  0  0  0  0  0  0  0  0  0
   63.6470   28.8930   51.9890 H   0  0  0  0  0  0  0  0  0  0  0  0
   65.4660   26.8988   53.1645 H   0  0  0  0  0  0  0  0  0  0  0  0
   64.5240   26.5926   51.6659 H   0  0  0  0  0  0  0  0  0  0  0  0
   66.3071   26.3758   51.6659 H   0  0  0  0  0  0  0  0  0  0  0  0
   68.4561   27.8073   52.2204 H   0  0  0  0  0  0  0  0  0  0  0  0
   67.8884   27.1088   50.6659 H   0  0  0  0  0  0  0  0  0  0  0  0
   68.9273   28.5742   50.6659 H   0  0  0  0  0  0  0  0  0  0  0  0
   66.2592   33.1204   51.3969 H   0  0  0  0  0  0  0  0  0  0  0  0
   67.0823   32.5591   49.9022 H   0  0  0  0  0  0  0  0  0  0  0  0
   65.3065   32.8294   49.9022 H   0  0  0  0  0  0  0  0  0  0  0  0
   62.1214   32.1988   49.5969 H   0  0  0  0  0  0  0  0  0  0  0  0
   59.3497   32.7991   48.3900 H   0  0  0  0  0  0  0  0  0  0  0  0
   58.5117   34.3366   48.9366 H   0  0  0  0  0  0  0  0  0  0  0  0
   57.2778   32.5441   47.3940 H   0  0  0  0  0  0  0  0  0  0  0  0
   57.0306   34.3281   47.2181 H   0  0  0  0  0  0  0  0  0  0  0  0
  1  2  1  0
  2  3  2  0
  2  4  1  0
  4  5  1  0
  5  6  1  0
  6  7  1  0
  7  8  1  0
  8  9  2  0
  8 10  2  0
  8 11  1  0
 11 12  2  0
 12 13  1  0
 13 14  2  0
 14 15  1  0
 15 16  1  0
 16 17  2  0
 16 18  1  0
 18 19  1  0
 19 20  1  0
 20 21  2  0
 21 22  1  0
 22 23  1  0
 22 24  2  0
 24 25  1  0
 24 26  1  0
 26 27  2  0
 27 28  1  0
 15 29  2  0
  7 30  1  0
 30 31  1  0
 31  4  1  0
 29 11  1  0
 27 20  1  0
  1 32  1  0
  1 33  1  0
  1 34  1  0
  5 35  1  0
  5 36  1  0
  6 37  1  0
  6 38  1  0
 12 39  1  0
 13 40  1  0
 14 41  1  0
 19 42  1  0
 19 43  1  0
 21 44  1  0
 23 45  1  0
 23 46  1  0
 23 47  1  0
 25 48  1  0
 25 49  1  0
 25 50  1  0
 28 51  1  0
 28 52  1  0
 28 53  1  0
 29 54  1  0
 30 55  1  0
 30 56  1  0
 31 57  1  0
 31 58  1  0
M  CHG  1  21   1
M  END
>  <UniqueID>  (59) 
56

>  <SMILES>  (59) 
CC(=O)N1CCN(S(=O)(=O)c2cccc(C(=O)OCc3[nH+]c(C)c(C)nc3C)c2)CC1

>  <Energy>  (59) 
63.58220919558581

>  <Genealogy>  (59) 
CC(=O)N1CCN(S(=O)(=O)c2cccc(C(=O)OCc3[nH+]c(C)c(C)nc3C)c2)CC1 (protonated)
CC(=O)N1CCN(S(=O)(=O)c2cccc(C(=O)OCc3[nH+]c(C)c(C)nc3C)c2)CC1 (3D coordinates assigned)
CC(=O)N1CCN(S(=O)(=O)c2cccc(C(=O)OCc3[nH+]c(C)c(C)nc3C)c2)CC1 (nonaromatic ring conformer: 63.58220919558581 kcal/mol)

>  <smiles>  (59) 
CC(=O)N1CCN(S(=O)(=O)c2cccc(C(=O)OCc3nc(C)c(C)nc3C)c2)CC1

>  <score_type>  (59) 
oracle

>  <origin>  (59) 
adg

>  <m_score__min__energy>  (59) 
-8.3499999999999996

>  <m_primary>  (59) 
energy

$$$$
59:0
     RDKit          3D

 43 45  0  0  0  0  0  0  0  0999 V2000
   61.5210   33.5710   47.1760 C   0  0  0  0  0  0  0  0  0  0  0  0
   60.2910   34.2900   46.7080 C   0  0  0  0  0  0  0  0  0  0  0  0
   60.4050   35.4940   46.3510 O   0  0  0  0  0  0  0  0  0  0  0  0
   58.9960   33.6390   46.6560 N   0  0  0  0  0  0  0  0  0  0  0  0
   58.0460   33.9190   45.5730 C   0  0  0  0  0  0  0  0  0  0  0  0
   58.2710   32.9510   44.4110 C   0  0  0  0  0  0  0  0  0  0  0  0
   57.5970   31.6170   44.6640 C   0  0  0  0  0  0  0  0  0  0  0  0
   56.5390   31.2370   43.8170 C   0  0  0  0  0  0  0  0  0  0  0  0
   55.8630   30.0300   44.0100 C   0  0  0  0  0  0  0  0  0  0  0  0
   54.8170   29.6620   43.1630 O   0  0  0  0  0  0  0  0  0  0  0  0
   56.2350   29.1880   45.0560 C   0  0  0  0  0  0  0  0  0  0  0  0
   55.5650   27.9860   45.2530 O   0  0  0  0  0  0  0  0  0  0  0  0
   57.2780   29.5470   45.9110 C   0  0  0  0  0  0  0  0  0  0  0  0
   57.9850   30.7610   45.7360 C   0  0  0  0  0  0  0  0  0  0  0  0
   59.1210   31.1650   46.6860 C   0  0  2  0  0  0  0  0  0  0  0  0
   59.5790   30.0470   47.6170 C   0  0  0  0  0  0  0  0  0  0  0  0
   59.4820   30.1700   49.0170 C   0  0  0  0  0  0  0  0  0  0  0  0
   59.8760   29.1210   49.8520 C   0  0  0  0  0  0  0  0  0  0  0  0
   60.3530   27.9220   49.3040 C   0  0  0  0  0  0  0  0  0  0  0  0
   60.8110   26.8110   50.2010 C   0  0  0  0  0  0  0  0  0  0  0  0
   60.4530   27.7930   47.9120 C   0  0  0  0  0  0  0  0  0  0  0  0
   60.0580   28.8410   47.0750 C   0  0  0  0  0  0  0  0  0  0  0  0
   58.7540   32.4440   47.4760 C   0  0  0  0  0  0  0  0  0  0  0  0
   61.5423   33.5585   48.2757 H   0  0  0  0  0  0  0  0  0  0  0  0
   61.5082   32.5381   46.7978 H   0  0  0  0  0  0  0  0  0  0  0  0
   62.4147   34.0889   46.7978 H   0  0  0  0  0  0  0  0  0  0  0  0
   57.0195   33.8015   45.9505 H   0  0  0  0  0  0  0  0  0  0  0  0
   58.1995   34.9487   45.2177 H   0  0  0  0  0  0  0  0  0  0  0  0
   57.8574   33.3924   43.4923 H   0  0  0  0  0  0  0  0  0  0  0  0
   59.3526   32.7785   44.3086 H   0  0  0  0  0  0  0  0  0  0  0  0
   56.2403   31.8998   42.9915 H   0  0  0  0  0  0  0  0  0  0  0  0
   54.7140   28.7120   42.8290 H   0  0  0  0  0  0  0  0  0  0  0  0
   57.5558   28.8744   46.7359 H   0  0  0  0  0  0  0  0  0  0  0  0
   59.9872   31.3821   46.0437 H   0  0  0  0  0  0  0  0  0  0  0  0
   59.0927   31.1000   49.4568 H   0  0  0  0  0  0  0  0  0  0  0  0
   59.8116   29.2366   50.9440 H   0  0  0  0  0  0  0  0  0  0  0  0
   60.6866   27.1129   51.2514 H   0  0  0  0  0  0  0  0  0  0  0  0
   60.2109   25.9103   50.0048 H   0  0  0  0  0  0  0  0  0  0  0  0
   61.8716   26.5949   50.0048 H   0  0  0  0  0  0  0  0  0  0  0  0
   60.8444   26.8622   47.4756 H   0  0  0  0  0  0  0  0  0  0  0  0
   60.1224   28.7212   45.9834 H   0  0  0  0  0  0  0  0  0  0  0  0
   57.6907   32.4051   47.7552 H   0  0  0  0  0  0  0  0  0  0  0  0
   59.3799   32.4978   48.3790 H   0  0  0  0  0  0  0  0  0  0  0  0
  1  2  1  0
  2  3  2  0
  2  4  1  0
  4  5  1  0
  5  6  1  0
  6  7  1  0
  7  8  2  0
  8  9  1  0
  9 10  1  0
  9 11  2  0
 11 12  1  0
 11 13  1  0
 13 14  2  0
 14 15  1  0
 15 16  1  0
 16 17  2  0
 17 18  1  0
 18 19  2  0
 19 20  1  0
 19 21  1  0
 21 22  2  0
 15 23  1  0
 23  4  1  0
 14  7  1  0
 22 16  1  0
  1 24  1  0
  1 25  1  0
  1 26  1  0
  5 27  1  0
  5 28  1  0
  6 29  1  0
  6 30  1  0
  8 31  1  0
 10 32  1  0
 13 33  1  0
 15 34  1  6
 17 35  1  0
 18 36  1  0
 20 37  1  0
 20 38  1  0
 20 39  1  0
 21 40  1  0
 22 41  1  0
 23 42  1  0
 23 43  1  0
M  CHG  1  12  -1
M  END
>  <UniqueID>  (60) 
57

>  <SMILES>  (60) 
CC(=O)N1CCc2cc(O)c([O-])cc2[C@H](c2ccc(C)cc2)C1

>  <Energy>  (60) 
51.59673520107166

>  <Genealogy>  (60) 
CC(=O)N1CCc2cc(O)c([O-])cc2C(c2ccc(C)cc2)C1 (protonated)
CC(=O)N1CCc2cc(O)c([O-])cc2[C@H](c2ccc(C)cc2)C1 (chirality)
CC(=O)N1CCc2cc(O)c([O-])cc2[C@H](c2ccc(C)cc2)C1 (3D coordinates assigned)
CC(=O)N1CCc2cc(O)c([O-])cc2[C@H](c2ccc(C)cc2)C1 (nonaromatic ring conformer: 51.59673520107166 kcal/mol)

>  <smiles>  (60) 
CC(=O)N1CCc2cc(O)c(O)cc2C(c2ccc(C)cc2)C1

>  <score_type>  (60) 
oracle

>  <origin>  (60) 
adg

>  <m_score__min__energy>  (60) 
-8.9800000000000004

>  <m_primary>  (60) 
energy

$$$$
60:0
     RDKit          3D

 58 62  0  0  0  0  0  0  0  0999 V2000
   60.8310   34.6080   49.6240 O   0  0  0  0  0  0  0  0  0  0  0  0
   61.2160   33.5770   49.0110 C   0  0  0  0  0  0  0  0  0  0  0  0
   62.3560   33.7100   48.0410 C   0  0  0  0  0  0  0  0  0  0  0  0
   62.8870   32.3390   47.6300 C   0  0  0  0  0  0  0  0  0  0  0  0
   61.7320   31.4430   47.1790 C   0  0  0  0  0  0  0  0  0  0  0  0
   60.6780   31.2940   48.2630 C   0  0  0  0  0  0  0  0  0  0  0  0
   60.4940   32.2800   49.1820 C   0  0  0  0  0  0  0  0  0  0  0  0
   59.4400   32.1230   50.2860 C   0  0  2  0  0  0  0  0  0  0  0  0
   59.8140   32.8560   51.5640 C   0  0  0  0  0  0  0  0  0  0  0  0
   58.8920   33.7080   52.1990 C   0  0  0  0  0  0  0  0  0  0  0  0
   59.2460   34.3870   53.3670 C   0  0  0  0  0  0  0  0  0  0  0  0
   60.5250   34.2330   53.9130 C   0  0  0  0  0  0  0  0  0  0  0  0
   60.9310   35.1060   55.3870 Cl  0  0  0  0  0  0  0  0  0  0  0  0
   61.4580   33.3960   53.2810 C   0  0  0  0  0  0  0  0  0  0  0  0
   63.0770   33.1800   53.9320 Cl  0  0  0  0  0  0  0  0  0  0  0  0
   61.1020   32.7150   52.1100 C   0  0  0  0  0  0  0  0  0  0  0  0
   59.1710   30.6490   50.6390 C   0  0  0  0  0  0  0  0  0  0  0  0
   58.9990   29.8410   49.4010 C   0  0  0  0  0  0  0  0  0  0  0  0
   58.1690   28.8920   49.3800 O   0  0  0  0  0  0  0  0  0  0  0  0
   59.8230   30.1250   48.2590 N   0  0  0  0  0  0  0  0  0  0  0  0
   59.7350   29.2760   47.1010 C   0  0  0  0  0  0  0  0  0  0  0  0
   60.4260   28.0570   47.0670 C   0  0  0  0  0  0  0  0  0  0  0  0
   60.3510   27.2420   45.9370 C   0  0  0  0  0  0  0  0  0  0  0  0
   59.5820   27.6320   44.8370 C   0  0  0  0  0  0  0  0  0  0  0  0
   58.8750   28.8500   44.8580 C   0  0  0  0  0  0  0  0  0  0  0  0
   58.0680   29.2840   43.7480 N   0  0  0  0  0  0  0  0  0  0  0  0
   56.9300   30.5930   43.8260 S   0  0  0  0  0  0  0  0  0  0  0  0
   56.4300   30.8970   42.4420 O   0  0  0  0  0  0  0  0  0  0  0  0
   55.7640   30.1870   44.6820 O   0  0  0  0  0  0  0  0  0  0  0  0
   57.6980   32.0030   44.5470 C   0  0  0  0  0  0  0  0  0  0  0  0
   58.4920   32.8610   43.7720 C   0  0  0  0  0  0  0  0  0  0  0  0
   59.0940   33.9790   44.3590 C   0  0  0  0  0  0  0  0  0  0  0  0
   58.9030   34.2470   45.7190 C   0  0  0  0  0  0  0  0  0  0  0  0
   59.6500   35.6540   46.4510 Cl  0  0  0  0  0  0  0  0  0  0  0  0
   58.1120   33.3930   46.4940 C   0  0  0  0  0  0  0  0  0  0  0  0
   57.5120   32.2720   45.9100 C   0  0  0  0  0  0  0  0  0  0  0  0
   58.9590   29.6640   45.9990 C   0  0  0  0  0  0  0  0  0  0  0  0
   62.0057   34.2435   47.1451 H   0  0  0  0  0  0  0  0  0  0  0  0
   63.1682   34.2686   48.5291 H   0  0  0  0  0  0  0  0  0  0  0  0
   63.6003   32.4583   46.8011 H   0  0  0  0  0  0  0  0  0  0  0  0
   63.3892   31.8739   48.4911 H   0  0  0  0  0  0  0  0  0  0  0  0
   61.2652   31.8857   46.2868 H   0  0  0  0  0  0  0  0  0  0  0  0
   62.1390   30.4453   46.9580 H   0  0  0  0  0  0  0  0  0  0  0  0
   58.5283   32.5715   49.8644 H   0  0  0  0  0  0  0  0  0  0  0  0
   57.8864   33.8402   51.7731 H   0  0  0  0  0  0  0  0  0  0  0  0
   58.5160   35.0459   53.8599 H   0  0  0  0  0  0  0  0  0  0  0  0
   61.8365   32.0641   51.6131 H   0  0  0  0  0  0  0  0  0  0  0  0
   60.0208   30.2534   51.2146 H   0  0  0  0  0  0  0  0  0  0  0  0
   58.2487   30.5880   51.2354 H   0  0  0  0  0  0  0  0  0  0  0  0
   61.0281   27.7425   47.9322 H   0  0  0  0  0  0  0  0  0  0  0  0
   60.8993   26.2887   45.9118 H   0  0  0  0  0  0  0  0  0  0  0  0
   59.5286   26.9840   43.9498 H   0  0  0  0  0  0  0  0  0  0  0  0
   58.1190   28.7570   42.8470 H   0  0  0  0  0  0  0  0  0  0  0  0
   58.6414   32.6546   42.7019 H   0  0  0  0  0  0  0  0  0  0  0  0
   59.7189   34.6489   43.7501 H   0  0  0  0  0  0  0  0  0  0  0  0
   57.9614   33.6027   47.5633 H   0  0  0  0  0  0  0  0  0  0  0  0
   56.8926   31.6000   46.5222 H   0  0  0  0  0  0  0  0  0  0  0  0
   58.4100   30.6167   46.0289 H   0  0  0  0  0  0  0  0  0  0  0  0
  1  2  2  0
  2  3  1  0
  3  4  1  0
  4  5  1  0
  5  6  1  0
  6  7  2  0
  7  8  1  0
  8  9  1  0
  9 10  2  0
 10 11  1  0
 11 12  2  0
 12 13  1  0
 12 14  1  0
 14 15  1  0
 14 16  2  0
  8 17  1  0
 17 18  1  0
 18 19  2  0
 18 20  1  0
 20 21  1  0
 21 22  2  0
 22 23  1  0
 23 24  2  0
 24 25  1  0
 25 26  1  0
 26 27  1  0
 27 28  2  0
 27 29  2  0
 27 30  1  0
 30 31  2  0
 31 32  1  0
 32 33  2  0
 33 34  1  0
 33 35  1  0
 35 36  2  0
 25 37  2  0
  7  2  1  0
 16  9  1  0
 37 21  1  0
 20  6  1  0
 36 30  1  0
  3 38  1  0
  3 39  1  0
  4 40  1  0
  4 41  1  0
  5 42  1  0
  5 43  1  0
  8 44  1  6
 10 45  1  0
 11 46  1  0
 16 47  1  0
 17 48  1  0
 17 49  1  0
 22 50  1  0
 23 51  1  0
 24 52  1  0
 26 53  1  0
 31 54  1  0
 32 55  1  0
 35 56  1  0
 36 57  1  0
 37 58  1  0
M  END
>  <UniqueID>  (61) 
58

>  <SMILES>  (61) 
O=C1CCCC2=C1[C@H](c1ccc(Cl)c(Cl)c1)CC(=O)N2c1cccc(NS(=O)(=O)c2ccc(Cl)cc2)c1

>  <Energy>  (61) 
77.535091380898

>  <Genealogy>  (61) 
O=C1CCCC2=C1[C@H](c1ccc(Cl)c(Cl)c1)CC(=O)N2c1cccc(NS(=O)(=O)c2ccc(Cl)cc2)c1 (chirality)
O=C1CCCC2=C1[C@H](c1ccc(Cl)c(Cl)c1)CC(=O)N2c1cccc(NS(=O)(=O)c2ccc(Cl)cc2)c1 (3D coordinates assigned)
O=C1CCCC2=C1[C@H](c1ccc(Cl)c(Cl)c1)CC(=O)N2c1cccc(NS(=O)(=O)c2ccc(Cl)cc2)c1 (nonaromatic ring conformer: 77.535091380898 kcal/mol)

>  <smiles>  (61) 
O=C1CCCC2=C1C(c1ccc(Cl)c(Cl)c1)CC(=O)N2c1cccc(NS(=O)(=O)c2ccc(Cl)cc2)c1

>  <score_type>  (61) 
oracle

>  <origin>  (61) 
adg

>  <m_score__min__energy>  (61) 
-11.029999999999999

>  <m_primary>  (61) 
energy

$$$$
61:0
     RDKit          3D

 51 53  0  0  0  0  0  0  0  0999 V2000
   55.3140   29.3960   45.2010 N   0  0  0  0  0  0  0  0  0  0  0  0
   56.5360   29.9540   44.1130 S   0  0  0  0  0  0  0  0  0  0  0  0
   57.4770   28.8200   43.8210 O   0  0  0  0  0  0  0  0  0  0  0  0
   55.8990   30.4160   42.8350 O   0  0  0  0  0  0  0  0  0  0  0  0
   57.4150   31.2920   44.8440 C   0  0  0  0  0  0  0  0  0  0  0  0
   56.7310   32.4540   45.2240 C   0  0  0  0  0  0  0  0  0  0  0  0
   57.4230   33.5130   45.8200 C   0  0  0  0  0  0  0  0  0  0  0  0
   58.8020   33.4120   46.0650 C   0  0  0  0  0  0  0  0  0  0  0  0
   59.5030   34.5510   46.6970 C   0  0  0  0  0  0  0  0  0  0  0  0
   59.2570   35.7040   46.2480 O   0  0  0  0  0  0  0  0  0  0  0  0
   60.3920   34.4120   47.8440 N   0  0  0  0  0  0  0  0  0  0  0  0
   59.6810   34.0820   49.0960 C   0  0  0  0  0  0  0  0  0  0  0  0
   59.1630   32.6380   49.1320 C   0  0  0  0  0  0  0  0  0  0  0  0
   60.0510   31.7130   48.4200 N   0  0  0  0  0  0  0  0  0  0  0  0
   59.5930   30.3570   48.2120 C   0  0  0  0  0  0  0  0  0  0  0  0
   58.3570   30.1430   48.0670 O   0  0  0  0  0  0  0  0  0  0  0  0
   60.5570   29.1900   48.1170 C   0  0  0  0  0  0  0  0  0  0  0  0
   60.1030   28.0050   49.0140 C   0  0  0  0  0  0  0  0  0  0  0  0
   60.6830   26.6780   48.5170 C   0  0  0  0  0  0  0  0  0  0  0  0
   60.1930   26.3420   47.0920 C   0  0  0  0  0  0  0  0  0  0  0  0
   59.8810   27.5910   46.2410 C   0  0  0  0  0  0  0  0  0  0  0  0
   60.7690   28.7750   46.6370 C   0  0  0  0  0  0  0  0  0  0  0  0
   61.4410   32.1040   48.1470 C   0  0  0  0  0  0  0  0  0  0  0  0
   61.5650   33.5410   47.5890 C   0  0  0  0  0  0  0  0  0  0  0  0
   59.4930   32.2670   45.6350 C   0  0  0  0  0  0  0  0  0  0  0  0
   58.8010   31.2120   45.0320 C   0  0  0  0  0  0  0  0  0  0  0  0
   54.4250   29.3370   44.6550 H   0  0  0  0  0  0  0  0  0  0  0  0
   55.6473   32.5336   45.0532 H   0  0  0  0  0  0  0  0  0  0  0  0
   56.8839   34.4305   46.0985 H   0  0  0  0  0  0  0  0  0  0  0  0
   60.7880   35.3690   48.0090 H   0  0  0  0  0  0  0  0  0  0  0  0
   60.3719   34.2271   49.9395 H   0  0  0  0  0  0  0  0  0  0  0  0
   58.8062   34.7458   49.1609 H   0  0  0  0  0  0  0  0  0  0  0  0
   59.0836   32.3162   50.1809 H   0  0  0  0  0  0  0  0  0  0  0  0
   58.1834   32.6180   48.6319 H   0  0  0  0  0  0  0  0  0  0  0  0
   61.5346   29.5120   48.5050 H   0  0  0  0  0  0  0  0  0  0  0  0
   60.4463   28.1829   50.0438 H   0  0  0  0  0  0  0  0  0  0  0  0
   59.0056   27.9407   48.9756 H   0  0  0  0  0  0  0  0  0  0  0  0
   61.7807   26.7486   48.5097 H   0  0  0  0  0  0  0  0  0  0  0  0
   60.3453   25.8797   49.1942 H   0  0  0  0  0  0  0  0  0  0  0  0
   60.9748   25.7594   46.5827 H   0  0  0  0  0  0  0  0  0  0  0  0
   59.2549   25.7771   47.1959 H   0  0  0  0  0  0  0  0  0  0  0  0
   60.0533   27.3536   45.1808 H   0  0  0  0  0  0  0  0  0  0  0  0
   58.8318   27.8731   46.4130 H   0  0  0  0  0  0  0  0  0  0  0  0
   61.8225   28.4922   46.4947 H   0  0  0  0  0  0  0  0  0  0  0  0
   60.4979   29.6310   46.0015 H   0  0  0  0  0  0  0  0  0  0  0  0
   62.0135   32.0411   49.0841 H   0  0  0  0  0  0  0  0  0  0  0  0
   61.8317   31.4182   47.3808 H   0  0  0  0  0  0  0  0  0  0  0  0
   62.4466   34.0115   48.0488 H   0  0  0  0  0  0  0  0  0  0  0  0
   61.6450   33.4424   46.4964 H   0  0  0  0  0  0  0  0  0  0  0  0
   60.5822   32.2001   45.7731 H   0  0  0  0  0  0  0  0  0  0  0  0
   59.3473   30.3154   44.7039 H   0  0  0  0  0  0  0  0  0  0  0  0
  1  2  1  0
  2  3  2  0
  2  4  2  0
  2  5  1  0
  5  6  2  0
  6  7  1  0
  7  8  2  0
  8  9  1  0
  9 10  2  0
  9 11  1  0
 11 12  1  0
 12 13  1  0
 13 14  1  0
 14 15  1  0
 15 16  2  0
 15 17  1  0
 17 18  1  0
 18 19  1  0
 19 20  1  0
 20 21  1  0
 21 22  1  0
 14 23  1  0
 23 24  1  0
  8 25  1  0
 25 26  2  0
 26  5  1  0
 24 11  1  0
 22 17  1  0
  1 27  1  0
  6 28  1  0
  7 29  1  0
 11 30  1  0
 12 31  1  0
 12 32  1  0
 13 33  1  0
 13 34  1  0
 17 35  1  0
 18 36  1  0
 18 37  1  0
 19 38  1  0
 19 39  1  0
 20 40  1  0
 20 41  1  0
 21 42  1  0
 21 43  1  0
 22 44  1  0
 22 45  1  0
 23 46  1  0
 23 47  1  0
 24 48  1  0
 24 49  1  0
 25 50  1  0
 26 51  1  0
M  CHG  2   1  -1  11   1
M  END
>  <UniqueID>  (62) 
59

>  <SMILES>  (62) 
[NH-]S(=O)(=O)c1ccc(C(=O)[NH+]2CCN(C(=O)C3CCCCC3)CC2)cc1

>  <Energy>  (62) 
70.9211895530542

>  <Genealogy>  (62) 
[NH-]S(=O)(=O)c1ccc(C(=O)[NH+]2CCN(C(=O)C3CCCCC3)CC2)cc1 (protonated)
[NH-]S(=O)(=O)c1ccc(C(=O)[NH+]2CCN(C(=O)C3CCCCC3)CC2)cc1 (3D coordinates assigned)
[NH-]S(=O)(=O)c1ccc(C(=O)[NH+]2CCN(C(=O)C3CCCCC3)CC2)cc1 (nonaromatic ring conformer: 70.9211895530542 kcal/mol)

>  <smiles>  (62) 
NS(=O)(=O)c1ccc(C(=O)N2CCN(C(=O)C3CCCCC3)CC2)cc1

>  <score_type>  (62) 
oracle

>  <origin>  (62) 
adg

>  <m_score__min__energy>  (62) 
-11.220000000000001

>  <m_primary>  (62) 
energy

$$$$
62:0
     RDKit          3D

 40 42  0  0  0  0  0  0  0  0999 V2000
   58.9280   35.3460   47.0980 N   0  0  0  0  0  0  0  0  0  0  0  0
   59.6990   34.4850   47.1490 C   0  0  0  0  0  0  0  0  0  0  0  0
   60.6580   33.4110   47.2100 C   0  0  0  0  0  0  0  0  0  0  0  0
   62.0170   33.7020   47.0230 C   0  0  0  0  0  0  0  0  0  0  0  0
   62.9670   32.6770   47.0450 C   0  0  0  0  0  0  0  0  0  0  0  0
   62.5650   31.3550   47.2460 C   0  0  0  0  0  0  0  0  0  0  0  0
   61.2140   31.0550   47.4350 C   0  0  0  0  0  0  0  0  0  0  0  0
   60.2530   32.0780   47.4340 C   0  0  0  0  0  0  0  0  0  0  0  0
   58.5220   31.6490   47.6900 S   0  0  0  0  0  0  0  0  0  0  0  0
   58.1780   31.4890   45.9270 C   0  0  0  0  0  0  0  0  0  0  0  0
   58.0870   32.6600   45.1620 C   0  0  0  0  0  0  0  0  0  0  0  0
   57.7660   32.5970   43.8050 C   0  0  0  0  0  0  0  0  0  0  0  0
   57.5390   31.3630   43.1970 C   0  0  0  0  0  0  0  0  0  0  0  0
   57.6440   30.1870   43.9420 C   0  0  0  0  0  0  0  0  0  0  0  0
   57.9740   30.2310   45.3080 C   0  0  0  0  0  0  0  0  0  0  0  0
   58.1090   28.9590   46.0530 C   0  0  0  0  0  0  0  0  0  0  0  0
   58.7220   28.9450   47.1550 O   0  0  0  0  0  0  0  0  0  0  0  0
   57.5320   27.7510   45.5300 N   0  0  0  0  0  0  0  0  0  0  0  0
   57.7130   26.4600   46.1340 C   0  0  0  0  0  0  0  0  0  0  0  0
   58.6680   26.2680   46.9350 O   0  0  0  0  0  0  0  0  0  0  0  0
   56.8210   25.3300   45.7870 C   0  0  0  0  0  0  0  0  0  0  0  0
   57.3760   24.0580   45.5540 C   0  0  0  0  0  0  0  0  0  0  0  0
   56.5570   22.9770   45.2190 C   0  0  0  0  0  0  0  0  0  0  0  0
   55.1760   23.1490   45.1200 C   0  0  0  0  0  0  0  0  0  0  0  0
   54.6090   24.4010   45.3670 C   0  0  0  0  0  0  0  0  0  0  0  0
   55.4200   25.4890   45.7090 C   0  0  0  0  0  0  0  0  0  0  0  0
   54.8190   26.7100   45.9940 O   0  0  0  0  0  0  0  0  0  0  0  0
   62.3368   34.7415   46.8583 H   0  0  0  0  0  0  0  0  0  0  0  0
   64.0323   32.9120   46.9038 H   0  0  0  0  0  0  0  0  0  0  0  0
   63.3132   30.5488   47.2555 H   0  0  0  0  0  0  0  0  0  0  0  0
   60.9014   30.0111   47.5855 H   0  0  0  0  0  0  0  0  0  0  0  0
   58.2700   33.6362   45.6347 H   0  0  0  0  0  0  0  0  0  0  0  0
   57.6920   33.5221   43.2145 H   0  0  0  0  0  0  0  0  0  0  0  0
   57.2770   31.3160   42.1297 H   0  0  0  0  0  0  0  0  0  0  0  0
   57.4668   29.2165   43.4555 H   0  0  0  0  0  0  0  0  0  0  0  0
   56.9390   27.8180   44.6720 H   0  0  0  0  0  0  0  0  0  0  0  0
   58.4634   23.9138   45.6363 H   0  0  0  0  0  0  0  0  0  0  0  0
   57.0018   21.9883   45.0329 H   0  0  0  0  0  0  0  0  0  0  0  0
   54.5339   22.2985   44.8474 H   0  0  0  0  0  0  0  0  0  0  0  0
   53.5195   24.5327   45.2924 H   0  0  0  0  0  0  0  0  0  0  0  0
  1  2  3  0
  2  3  1  0
  3  4  2  0
  4  5  1  0
  5  6  2  0
  6  7  1  0
  7  8  2  0
  8  9  1  0
  9 10  1  0
 10 11  2  0
 11 12  1  0
 12 13  2  0
 13 14  1  0
 14 15  2  0
 15 16  1  0
 16 17  2  0
 16 18  1  0
 18 19  1  0
 19 20  2  0
 19 21  1  0
 21 22  2  0
 22 23  1  0
 23 24  2  0
 24 25  1  0
 25 26  2  0
 26 27  1  0
  8  3  1  0
 15 10  1  0
 26 21  1  0
  4 28  1  0
  5 29  1  0
  6 30  1  0
  7 31  1  0
 11 32  1  0
 12 33  1  0
 13 34  1  0
 14 35  1  0
 18 36  1  0
 22 37  1  0
 23 38  1  0
 24 39  1  0
 25 40  1  0
M  CHG  1  27  -1
M  END
>  <UniqueID>  (63) 
60

>  <SMILES>  (63) 
N#Cc1ccccc1Sc1ccccc1C(=O)NC(=O)c1ccccc1[O-]

>  <Energy>  (63) 
47.87124332715463

>  <Genealogy>  (63) 
N#Cc1ccccc1Sc1ccccc1C(=O)NC(=O)c1ccccc1[O-] (protonated)
N#Cc1ccccc1Sc1ccccc1C(=O)NC(=O)c1ccccc1[O-] (3D coordinates assigned)
N#Cc1ccccc1Sc1ccccc1C(=O)NC(=O)c1ccccc1[O-] (optimized conformer: 47.87124332715463 kcal/mol)

>  <smiles>  (63) 
N#Cc1ccccc1Sc1ccccc1C(=O)NC(=O)c1ccccc1O

>  <score_type>  (63) 
oracle

>  <origin>  (63) 
adg

>  <m_score__min__energy>  (63) 
-12.67

>  <m_primary>  (63) 
energy

$$$$
63:0
     RDKit          3D

 74 78  0  0  0  0  0  0  0  0999 V2000
   55.1100   26.3090   47.0880 H   0  0  0  0  0  0  0  0  0  0  0  0
   55.6720   26.4380   46.2560 O   0  0  0  0  0  0  0  0  0  0  0  0
   56.1340   25.3520   45.5150 C   0  0  0  0  0  0  0  0  0  0  0  0
   57.4500   25.0380   45.2230 C   0  0  0  0  0  0  0  0  0  0  0  0
   58.6590   25.7660   45.6380 C   0  0  0  0  0  0  0  0  0  0  0  0
   59.5207   25.1834   45.9959 H   0  0  0  0  0  0  0  0  0  0  0  0
   58.7670   27.1090   45.6030 C   0  0  0  0  0  0  0  0  0  0  0  0
   59.3480   27.9050   46.5790 C   0  0  0  0  0  0  0  0  0  0  0  0
   59.7733   27.5665   47.5353 H   0  0  0  0  0  0  0  0  0  0  0  0
   59.2890   29.2020   46.1180 C   0  0  0  0  0  0  0  0  0  0  0  0
   59.8160   30.3830   46.8750 C   0  0  0  0  0  0  0  0  0  0  0  0
   59.7315   30.1935   47.9553 H   0  0  0  0  0  0  0  0  0  0  0  0
   60.8719   30.5452   46.6127 H   0  0  0  0  0  0  0  0  0  0  0  0
   59.2315   31.2772   46.6127 H   0  0  0  0  0  0  0  0  0  0  0  0
   58.6780   29.2570   44.9070 N   0  0  0  0  0  0  0  0  0  0  0  0
   58.4840   30.4810   44.1080 C   0  0  0  0  0  0  0  0  0  0  0  0
   59.4601   30.9646   43.9552 H   0  0  0  0  0  0  0  0  0  0  0  0
   58.0298   30.1937   43.1482 H   0  0  0  0  0  0  0  0  0  0  0  0
   57.5590   31.4550   44.7900 C   0  0  0  0  0  0  0  0  0  0  0  0
   56.3310   31.1740   44.8580 O   0  0  0  0  0  0  0  0  0  0  0  0
   58.0410   32.6780   45.3790 N   0  0  0  0  0  0  0  0  0  0  0  0
   59.4200   33.1360   45.3310 C   0  0  0  0  0  0  0  0  0  0  0  0
   60.0747   32.4391   45.8748 H   0  0  0  0  0  0  0  0  0  0  0  0
   59.7939   33.1906   44.2980 H   0  0  0  0  0  0  0  0  0  0  0  0
   59.4240   34.5020   46.0030 C   0  0  0  0  0  0  0  0  0  0  0  0
   60.2801   34.5887   46.6883 H   0  0  0  0  0  0  0  0  0  0  0  0
   59.5135   35.3141   45.2664 H   0  0  0  0  0  0  0  0  0  0  0  0
   58.1110   34.5910   46.7790 C   0  0  0  0  0  0  0  0  0  0  0  0
   58.2791   34.3629   47.8419 H   0  0  0  0  0  0  0  0  0  0  0  0
   57.6797   35.6016   46.7264 H   0  0  0  0  0  0  0  0  0  0  0  0
   57.1840   33.5560   46.1560 C   0  0  0  0  0  0  0  0  0  0  0  0
   56.6621   32.9874   46.9398 H   0  0  0  0  0  0  0  0  0  0  0  0
   56.4115   34.0271   45.5305 H   0  0  0  0  0  0  0  0  0  0  0  0
   58.3730   27.9700   44.5730 C   0  0  0  0  0  0  0  0  0  0  0  0
   57.7650   27.5920   43.4320 C   0  0  0  0  0  0  0  0  0  0  0  0
   57.4926   28.3454   42.6783 H   0  0  0  0  0  0  0  0  0  0  0  0
   57.5409   26.5299   43.2540 H   0  0  0  0  0  0  0  0  0  0  0  0
   57.4830   23.9440   44.4310 N   0  0  0  0  0  0  0  0  0  0  0  0
   56.1830   23.6060   44.2960 C   0  0  0  0  0  0  0  0  0  0  0  0
   55.8050   22.6000   43.6360 O   0  0  0  0  0  0  0  0  0  0  0  0
   55.3350   24.4440   44.9320 N   0  0  0  0  0  0  0  0  0  0  0  0
   53.8850   24.3200   45.0690 C   0  0  0  0  0  0  0  0  0  0  0  0
   53.4934   25.1849   45.6246 H   0  0  0  0  0  0  0  0  0  0  0  0
   53.4227   24.2869   44.0714 H   0  0  0  0  0  0  0  0  0  0  0  0
   53.5620   23.0580   45.8140 C   0  0  0  0  0  0  0  0  0  0  0  0
   52.5000   22.4420   45.5280 O   0  0  0  0  0  0  0  0  0  0  0  0
   54.4800   22.4920   46.7680 N   0  0  0  0  0  0  0  0  0  0  0  0
   54.5120   21.0400   46.9710 C   0  0  0  0  0  0  0  0  0  0  0  0
   53.8336   20.7740   47.7951 H   0  0  0  0  0  0  0  0  0  0  0  0
   54.1924   20.5424   46.0435 H   0  0  0  0  0  0  0  0  0  0  0  0
   55.9370   20.5800   47.3190 C   0  0  0  0  0  0  0  0  0  0  0  0
   55.8856   19.5497   47.7009 H   0  0  0  0  0  0  0  0  0  0  0  0
   56.5333   20.6575   46.3979 H   0  0  0  0  0  0  0  0  0  0  0  0
   56.6060   21.4260   48.3410 N   0  0  0  0  0  0  0  0  0  0  0  0
   57.2910   20.6630   49.4090 C   0  0  0  0  0  0  0  0  0  0  0  0
   56.8220   19.6707   49.4826 H   0  0  0  0  0  0  0  0  0  0  0  0
   58.3539   20.6046   49.1319 H   0  0  0  0  0  0  0  0  0  0  0  0
   57.2230   21.3270   50.7700 C   0  0  0  0  0  0  0  0  0  0  0  0
   56.1950   21.0070   51.6770 C   0  0  0  0  0  0  0  0  0  0  0  0
   55.4326   20.2641   51.3999 H   0  0  0  0  0  0  0  0  0  0  0  0
   56.1380   21.6290   52.9290 C   0  0  0  0  0  0  0  0  0  0  0  0
   55.3257   21.3821   53.6284 H   0  0  0  0  0  0  0  0  0  0  0  0
   57.1110   22.5630   53.2920 C   0  0  0  0  0  0  0  0  0  0  0  0
   57.0626   23.0536   54.2753 H   0  0  0  0  0  0  0  0  0  0  0  0
   58.1450   22.8740   52.4070 C   0  0  0  0  0  0  0  0  0  0  0  0
   58.9118   23.6082   52.6951 H   0  0  0  0  0  0  0  0  0  0  0  0
   58.2080   22.2540   51.1550 C   0  0  0  0  0  0  0  0  0  0  0  0
   59.0327   22.4928   50.4674 H   0  0  0  0  0  0  0  0  0  0  0  0
   55.8110   22.5620   48.8440 C   0  0  0  0  0  0  0  0  0  0  0  0
   54.9864   22.1813   49.4645 H   0  0  0  0  0  0  0  0  0  0  0  0
   56.4616   23.2169   49.4422 H   0  0  0  0  0  0  0  0  0  0  0  0
   55.2350   23.3650   47.6770 C   0  0  0  0  0  0  0  0  0  0  0  0
   54.5643   24.1431   48.0704 H   0  0  0  0  0  0  0  0  0  0  0  0
   56.0651   23.8229   47.1191 H   0  0  0  0  0  0  0  0  0  0  0  0
  1  2  1  0
  2  3  1  0
  3  4  2  0
  4  5  1  0
  5  6  1  0
  5  7  2  0
  7  8  1  0
  8  9  1  0
  8 10  2  0
 10 11  1  0
 11 12  1  0
 11 13  1  0
 11 14  1  0
 10 15  1  0
 15 16  1  0
 16 17  1  0
 16 18  1  0
 16 19  1  0
 19 20  2  0
 19 21  1  0
 21 22  1  0
 22 23  1  0
 22 24  1  0
 22 25  1  0
 25 26  1  0
 25 27  1  0
 25 28  1  0
 28 29  1  0
 28 30  1  0
 28 31  1  0
 31 32  1  0
 31 33  1  0
 15 34  1  0
 34 35  2  0
 35 36  1  0
 35 37  1  0
  4 38  1  0
 38 39  1  0
 39 40  2  0
 39 41  1  0
 41 42  1  0
 42 43  1  0
 42 44  1  0
 42 45  1  0
 45 46  2  0
 45 47  1  0
 47 48  1  0
 48 49  1  0
 48 50  1  0
 48 51  1  0
 51 52  1  0
 51 53  1  0
 51 54  1  0
 54 55  1  0
 55 56  1  0
 55 57  1  0
 55 58  1  0
 58 59  2  0
 59 60  1  0
 59 61  1  0
 61 62  1  0
 61 63  2  0
 63 64  1  0
 63 65  1  0
 65 66  1  0
 65 67  2  0
 67 68  1  0
 54 69  1  0
 69 70  1  0
 69 71  1  0
 69 72  1  0
 72 73  1  0
 72 74  1  0
 41  3  1  0
 72 47  1  0
 34  7  1  0
 67 58  1  0
 31 21  1  0
M  CHG  1  38  -1
M  END
>  <UniqueID>  (64) 
61

>  <SMILES>  (64) 
C=c1/c(=C/c2[n-]c(=O)n(CC(=O)N3CCN(Cc4ccccc4)CC3)c2O)cc(C)n1CC(=O)N1CCCC1

>  <Energy>  (64) 
151.0189653053647

>  <Genealogy>  (64) 
C=c1c(=Cc2[n-]c(=O)n(CC(=O)N3CCN(Cc4ccccc4)CC3)c2O)cc(C)n1CC(=O)N1CCCC1 (protonated)
C=c1/c(=C/c2[n-]c(=O)n(CC(=O)N3CCN(Cc4ccccc4)CC3)c2O)cc(C)n1CC(=O)N1CCCC1 (cis-trans isomerization)
C=c1/c(=C/c2[n-]c(=O)n(CC(=O)N3CCN(Cc4ccccc4)CC3)c2O)cc(C)n1CC(=O)N1CCCC1 (3D coordinates assigned)
C=c1/c(=C/c2[n-]c(=O)n(CC(=O)N3CCN(Cc4ccccc4)CC3)c2O)cc(C)n1CC(=O)N1CCCC1 (nonaromatic ring conformer: 151.0189653053647 kcal/mol)

>  <smiles>  (64) 
C=c1c(=Cc2[nH]c(=O)n(CC(=O)N3CCN(Cc4ccccc4)CC3)c2O)cc(C)n1CC(=O)N1CCCC1

>  <score_type>  (64) 
oracle

>  <origin>  (64) 
adg

>  <m_score__min__energy>  (64) 
-11.529999999999999

>  <m_primary>  (64) 
energy

$$$$
64:0
     RDKit          3D

 46 48  0  0  0  0  0  0  0  0999 V2000
   60.2728   29.3173   44.6320 H   0  0  0  0  0  0  0  0  0  0  0  0
   59.6020   28.5040   44.9460 C   0  0  0  0  0  0  0  0  0  0  0  0
   60.0194   27.5308   45.2436 H   0  0  0  0  0  0  0  0  0  0  0  0
   58.2750   28.6990   44.9660 C   0  0  0  0  0  0  0  0  0  0  0  0
   57.2910   27.7810   45.3350 C   0  0  0  0  0  0  0  0  0  0  0  0
   57.4730   26.4980   45.6940 C   0  0  0  0  0  0  0  0  0  0  0  0
   58.3582   26.2514   46.2987 H   0  0  0  0  0  0  0  0  0  0  0  0
   56.5570   25.4000   45.3260 C   0  0  0  0  0  0  0  0  0  0  0  0
   56.9960   24.1980   44.8920 N   0  0  0  0  0  0  0  0  0  0  0  0
   55.8680   23.4710   44.7460 C   0  0  0  0  0  0  0  0  0  0  0  0
   55.8740   22.2700   44.3670 O   0  0  0  0  0  0  0  0  0  0  0  0
   54.7440   24.1440   45.0650 N   0  0  0  0  0  0  0  0  0  0  0  0
   53.3840   23.6230   45.1450 C   0  0  0  0  0  0  0  0  0  0  0  0
   53.0952   23.5124   46.2006 H   0  0  0  0  0  0  0  0  0  0  0  0
   52.6943   24.3206   44.6473 H   0  0  0  0  0  0  0  0  0  0  0  0
   53.3369   22.6431   44.6473 H   0  0  0  0  0  0  0  0  0  0  0  0
   55.1800   25.3500   45.4640 C   0  0  0  0  0  0  0  0  0  0  0  0
   54.3600   26.3400   45.9940 O   0  0  0  0  0  0  0  0  0  0  0  0
   56.0780   28.3680   45.2420 N   0  0  0  0  0  0  0  0  0  0  0  0
   56.3490   29.6230   44.8310 C   0  0  0  0  0  0  0  0  0  0  0  0
   55.4520   30.4880   44.6500 O   0  0  0  0  0  0  0  0  0  0  0  0
   57.6640   29.8610   44.6400 N   0  0  0  0  0  0  0  0  0  0  0  0
   58.2710   31.1430   44.2660 C   0  0  0  0  0  0  0  0  0  0  0  0
   59.2787   30.9654   43.8624 H   0  0  0  0  0  0  0  0  0  0  0  0
   57.6457   31.6310   43.5038 H   0  0  0  0  0  0  0  0  0  0  0  0
   58.3670   32.0320   45.4680 C   0  0  0  0  0  0  0  0  0  0  0  0
   57.5610   32.9940   45.5890 O   0  0  0  0  0  0  0  0  0  0  0  0
   59.3640   31.7880   46.4730 N   0  0  0  0  0  0  0  0  0  0  0  0
   60.1710   31.1740   46.2230 H   0  0  0  0  0  0  0  0  0  0  0  0
   59.3270   32.3780   47.7850 C   0  0  0  0  0  0  0  0  0  0  0  0
   58.9450   31.6030   48.8940 C   0  0  0  0  0  0  0  0  0  0  0  0
   58.6474   30.5539   48.7494 H   0  0  0  0  0  0  0  0  0  0  0  0
   58.9400   32.1530   50.1770 C   0  0  0  0  0  0  0  0  0  0  0  0
   58.6186   31.5416   51.0331 H   0  0  0  0  0  0  0  0  0  0  0  0
   59.3420   33.4790   50.3800 C   0  0  0  0  0  0  0  0  0  0  0  0
   59.3020   34.0760   51.7560 C   0  0  0  0  0  0  0  0  0  0  0  0
   59.3558   33.2729   52.5058 H   0  0  0  0  0  0  0  0  0  0  0  0
   60.1566   34.7564   51.8855 H   0  0  0  0  0  0  0  0  0  0  0  0
   58.3643   34.6363   51.8855 H   0  0  0  0  0  0  0  0  0  0  0  0
   59.7210   34.2600   49.2810 C   0  0  0  0  0  0  0  0  0  0  0  0
   60.0227   35.3065   49.4354 H   0  0  0  0  0  0  0  0  0  0  0  0
   59.7200   33.7210   47.9830 C   0  0  0  0  0  0  0  0  0  0  0  0
   60.1460   34.5820   46.8240 C   0  0  0  0  0  0  0  0  0  0  0  0
   60.6039   35.5074   47.2035 H   0  0  0  0  0  0  0  0  0  0  0  0
   60.8777   34.0356   46.2108 H   0  0  0  0  0  0  0  0  0  0  0  0
   59.2677   34.8322   46.2108 H   0  0  0  0  0  0  0  0  0  0  0  0
  1  2  1  0
  2  3  1  0
  2  4  2  0
  4  5  1  0
  5  6  2  0
  6  7  1  0
  6  8  1  0
  8  9  1  0
  9 10  1  0
 10 11  2  0
 10 12  1  0
 12 13  1  0
 13 14  1  0
 13 15  1  0
 13 16  1  0
 12 17  1  0
 17 18  1  0
  5 19  1  0
 19 20  1  0
 20 21  2  0
 20 22  1  0
 22 23  1  0
 23 24  1  0
 23 25  1  0
 23 26  1  0
 26 27  2  0
 26 28  1  0
 28 29  1  0
 28 30  1  0
 30 31  2  0
 31 32  1  0
 31 33  1  0
 33 34  1  0
 33 35  2  0
 35 36  1  0
 36 37  1  0
 36 38  1  0
 36 39  1  0
 35 40  1  0
 40 41  1  0
 40 42  2  0
 42 43  1  0
 43 44  1  0
 43 45  1  0
 43 46  1  0
 22  4  1  0
 42 30  1  0
 17  8  2  0
M  CHG  3   9  -1  18  -1  19  -1
M  END
>  <UniqueID>  (65) 
62

>  <SMILES>  (65) 
C=c1/c(=C/c2[n-]c(=O)n(C)c2[O-])[n-]c(=O)n1CC(=O)Nc1ccc(C)cc1C

>  <Energy>  (65) 
119.46165571871043

>  <Genealogy>  (65) 
C=c1c(=Cc2[n-]c(=O)n(C)c2[O-])[n-]c(=O)n1CC(=O)Nc1ccc(C)cc1C (protonated)
C=c1/c(=C/c2[n-]c(=O)n(C)c2[O-])[n-]c(=O)n1CC(=O)Nc1ccc(C)cc1C (cis-trans isomerization)
C=c1/c(=C/c2[n-]c(=O)n(C)c2[O-])[n-]c(=O)n1CC(=O)Nc1ccc(C)cc1C (3D coordinates assigned)
C=c1/c(=C/c2[n-]c(=O)n(C)c2[O-])[n-]c(=O)n1CC(=O)Nc1ccc(C)cc1C (optimized conformer: 119.46165571871043 kcal/mol)

>  <smiles>  (65) 
C=c1c(=Cc2[nH]c(=O)n(C)c2O)[nH]c(=O)n1CC(=O)Nc1ccc(C)cc1C

>  <score_type>  (65) 
oracle

>  <origin>  (65) 
adg

>  <m_score__min__energy>  (65) 
-15.56

>  <m_primary>  (65) 
energy

$$$$
65:0
     RDKit          3D

 49 52  0  0  0  0  0  0  0  0999 V2000
   58.5680   30.3990   47.7400 C   0  0  0  0  0  0  0  0  0  0  0  0
   58.5460   30.4990   46.4030 C   0  0  0  0  0  0  0  0  0  0  0  0
   58.4110   29.4570   45.4710 C   0  0  0  0  0  0  0  0  0  0  0  0
   58.4740   28.1200   45.6220 C   0  0  0  0  0  0  0  0  0  0  0  0
   57.3430   27.2380   45.9570 C   0  0  0  0  0  0  0  0  0  0  0  0
   57.4590   25.9930   46.4550 N   0  0  0  0  0  0  0  0  0  0  0  0
   56.1860   25.5410   46.4640 C   0  0  0  0  0  0  0  0  0  0  0  0
   55.8730   24.3990   46.8910 O   0  0  0  0  0  0  0  0  0  0  0  0
   55.2730   26.4090   45.9770 N   0  0  0  0  0  0  0  0  0  0  0  0
   56.0250   27.4710   45.6480 C   0  0  0  0  0  0  0  0  0  0  0  0
   55.5180   28.6290   45.0720 O   0  0  0  0  0  0  0  0  0  0  0  0
   58.1850   30.0610   44.2430 C   0  0  0  0  0  0  0  0  0  0  0  0
   58.2610   31.4230   44.4470 C   0  0  0  0  0  0  0  0  0  0  0  0
   58.0690   32.4620   43.3840 C   0  0  0  0  0  0  0  0  0  0  0  0
   58.4790   31.6880   45.7530 N   0  0  0  0  0  0  0  0  0  0  0  0
   58.5360   32.9980   46.3360 C   0  0  0  0  0  0  0  0  0  0  0  0
   57.4990   33.7160   46.3410 O   0  0  0  0  0  0  0  0  0  0  0  0
   59.7590   33.4870   46.9140 N   0  0  0  0  0  0  0  0  0  0  0  0
   61.0410   33.0100   46.3820 C   0  0  0  0  0  0  0  0  0  0  0  0
   62.2100   33.6290   47.1450 C   0  0  0  0  0  0  0  0  0  0  0  0
   61.9220   33.5550   48.5920 N   0  0  0  0  0  0  0  0  0  0  0  0
   63.1580   33.8020   49.3830 C   0  0  2  0  0  0  0  0  0  0  0  0
   64.3460   32.9760   48.8290 C   0  0  0  0  0  0  0  0  0  0  0  0
   64.9660   32.2160   50.0130 C   0  0  0  0  0  0  0  0  0  0  0  0
   64.0740   32.3920   51.0930 O   0  0  0  0  0  0  0  0  0  0  0  0
   63.0840   33.2970   50.7880 C   0  0  0  0  0  0  0  0  0  0  0  0
   62.2890   33.7320   51.6620 O   0  0  0  0  0  0  0  0  0  0  0  0
   60.8210   34.4920   48.9380 C   0  0  0  0  0  0  0  0  0  0  0  0
   59.7350   34.6230   47.8450 C   0  0  0  0  0  0  0  0  0  0  0  0
   58.6804   31.3025   48.3573 H   0  0  0  0  0  0  0  0  0  0  0  0
   58.4737   29.4135   48.2195 H   0  0  0  0  0  0  0  0  0  0  0  0
   59.4564   27.6452   45.4829 H   0  0  0  0  0  0  0  0  0  0  0  0
   57.9837   29.5514   43.2892 H   0  0  0  0  0  0  0  0  0  0  0  0
   57.8884   33.4395   43.8551 H   0  0  0  0  0  0  0  0  0  0  0  0
   58.9721   32.5177   42.7584 H   0  0  0  0  0  0  0  0  0  0  0  0
   57.2057   32.1913   42.7584 H   0  0  0  0  0  0  0  0  0  0  0  0
   61.0866   31.9152   46.4790 H   0  0  0  0  0  0  0  0  0  0  0  0
   61.1150   33.3047   45.3248 H   0  0  0  0  0  0  0  0  0  0  0  0
   63.1331   33.0738   46.9223 H   0  0  0  0  0  0  0  0  0  0  0  0
   62.3425   34.6781   46.8419 H   0  0  0  0  0  0  0  0  0  0  0  0
   63.2774   34.8942   49.3295 H   0  0  0  0  0  0  0  0  0  0  0  0
   63.9883   32.2641   48.0706 H   0  0  0  0  0  0  0  0  0  0  0  0
   65.0902   33.6333   48.3556 H   0  0  0  0  0  0  0  0  0  0  0  0
   65.0684   31.1478   49.7710 H   0  0  0  0  0  0  0  0  0  0  0  0
   65.9715   32.5918   50.2532 H   0  0  0  0  0  0  0  0  0  0  0  0
   60.3407   34.1346   49.8608 H   0  0  0  0  0  0  0  0  0  0  0  0
   61.2762   35.4868   49.0530 H   0  0  0  0  0  0  0  0  0  0  0  0
   58.7475   34.6672   48.3276 H   0  0  0  0  0  0  0  0  0  0  0  0
   59.9358   35.5398   47.2713 H   0  0  0  0  0  0  0  0  0  0  0  0
  1  2  2  0
  2  3  1  0
  3  4  2  3
  4  5  1  0
  5  6  1  0
  6  7  1  0
  7  8  2  0
  7  9  1  0
  9 10  1  0
 10 11  1  0
  3 12  1  0
 12 13  2  0
 13 14  1  0
 13 15  1  0
 15 16  1  0
 16 17  2  0
 16 18  1  0
 18 19  1  0
 19 20  1  0
 20 21  1  0
 21 22  1  0
 22 23  1  0
 23 24  1  0
 24 25  1  0
 25 26  1  0
 26 27  2  0
 21 28  1  0
 28 29  1  0
 15  2  1  0
 29 18  1  0
 10  5  2  0
 26 22  1  0
  1 30  1  0
  1 31  1  0
  4 32  1  0
 12 33  1  0
 14 34  1  0
 14 35  1  0
 14 36  1  0
 19 37  1  0
 19 38  1  0
 20 39  1  0
 20 40  1  0
 22 41  1  1
 23 42  1  0
 23 43  1  0
 24 44  1  0
 24 45  1  0
 28 46  1  0
 28 47  1  0
 29 48  1  0
 29 49  1  0
M  CHG  3   6  -1   9  -1  11  -1
M  END
>  <UniqueID>  (66) 
63

>  <SMILES>  (66) 
C=c1c(=Cc2[n-]c(=O)[n-]c2[O-])cc(C)n1C(=O)N1CCN([C@@H]2CCOC2=O)CC1

>  <Energy>  (66) 
143.30920828118698

>  <Genealogy>  (66) 
C=c1c(=Cc2[n-]c(=O)[n-]c2[O-])cc(C)n1C(=O)N1CCN(C2CCOC2=O)CC1 (protonated)
C=c1c(=Cc2[n-]c(=O)[n-]c2[O-])cc(C)n1C(=O)N1CCN([C@@H]2CCOC2=O)CC1 (chirality)
C=c1c(=Cc2[n-]c(=O)[n-]c2[O-])cc(C)n1C(=O)N1CCN([C@@H]2CCOC2=O)CC1 (3D coordinates assigned)
C=c1c(=Cc2[n-]c(=O)[n-]c2[O-])cc(C)n1C(=O)N1CCN([C@@H]2CCOC2=O)CC1 (nonaromatic ring conformer: 143.30920828118698 kcal/mol)

>  <smiles>  (66) 
C=c1c(=Cc2[nH]c(=O)[nH]c2O)cc(C)n1C(=O)N1CCN(C2CCOC2=O)CC1

>  <score_type>  (66) 
oracle

>  <origin>  (66) 
adg

>  <m_score__min__energy>  (66) 
-16.27

>  <m_primary>  (66) 
energy

$$$$
66:0
     RDKit          3D

 23 24  0  0  0  0  0  0  0  0999 V2000
   54.1390   25.5550   46.3600 H   0  0  0  0  0  0  0  0  0  0  0  0
   54.6470   26.3380   45.9650 O   0  0  0  0  0  0  0  0  0  0  0  0
   56.0240   26.4830   46.1310 C   0  0  0  0  0  0  0  0  0  0  0  0
   56.6710   27.5710   45.5320 C   0  0  0  0  0  0  0  0  0  0  0  0
   56.0871   28.3026   44.9542 H   0  0  0  0  0  0  0  0  0  0  0  0
   58.0570   27.7350   45.6630 C   0  0  0  0  0  0  0  0  0  0  0  0
   58.7080   28.9180   45.0680 C   0  0  0  0  0  0  0  0  0  0  0  0
   59.6139   28.7519   44.4666 H   0  0  0  0  0  0  0  0  0  0  0  0
   58.2770   30.1820   45.2060 C   0  0  0  0  0  0  0  0  0  0  0  0
   59.2130   31.4100   45.8810 S   0  0  0  0  0  0  0  0  0  0  0  0
   58.0090   32.5730   45.7120 C   0  0  0  0  0  0  0  0  0  0  0  0
   58.1280   33.8460   46.0750 C   0  0  0  0  0  0  0  0  0  0  0  0
   59.0685   34.2062   46.5173 H   0  0  0  0  0  0  0  0  0  0  0  0
   57.2859   34.5394   45.9331 H   0  0  0  0  0  0  0  0  0  0  0  0
   56.8870   32.0580   45.1630 N   0  0  0  0  0  0  0  0  0  0  0  0
   57.0260   30.7340   44.8870 C   0  0  0  0  0  0  0  0  0  0  0  0
   56.0670   30.0690   44.4120 O   0  0  0  0  0  0  0  0  0  0  0  0
   58.7880   26.8270   46.4470 C   0  0  0  0  0  0  0  0  0  0  0  0
   59.8688   26.9724   46.5907 H   0  0  0  0  0  0  0  0  0  0  0  0
   58.1450   25.7390   47.0450 C   0  0  0  0  0  0  0  0  0  0  0  0
   58.7251   25.0198   47.6418 H   0  0  0  0  0  0  0  0  0  0  0  0
   56.7670   25.5620   46.8870 C   0  0  0  0  0  0  0  0  0  0  0  0
   56.1430   24.4750   47.4870 O   0  0  0  0  0  0  0  0  0  0  0  0
  1  2  1  0
  2  3  1  0
  3  4  2  0
  4  5  1  0
  4  6  1  0
  6  7  1  0
  7  8  1  0
  7  9  2  0
  9 10  1  0
 10 11  1  0
 11 12  2  0
 12 13  1  0
 12 14  1  0
 11 15  1  0
 15 16  1  0
 16 17  2  0
  6 18  2  0
 18 19  1  0
 18 20  1  0
 20 21  1  0
 20 22  2  0
 22 23  1  0
 22  3  1  0
 16  9  1  0
M  CHG  2  15  -1  23  -1
M  END
>  <UniqueID>  (67) 
64

>  <SMILES>  (67) 
C=c1[n-]c(=O)/c(=C\c2ccc([O-])c(O)c2)s1

>  <Energy>  (67) 
61.96294291988666

>  <Genealogy>  (67) 
C=c1[n-]c(=O)c(=Cc2ccc([O-])c(O)c2)s1 (protonated)
C=c1[n-]c(=O)/c(=C\c2ccc([O-])c(O)c2)s1 (cis-trans isomerization)
C=c1[n-]c(=O)/c(=C\c2ccc([O-])c(O)c2)s1 (3D coordinates assigned)
C=c1[n-]c(=O)/c(=C\c2ccc([O-])c(O)c2)s1 (optimized conformer: 61.96294291988666 kcal/mol)

>  <smiles>  (67) 
C=c1[nH]c(=O)c(=Cc2ccc(O)c(O)c2)s1

>  <score_type>  (67) 
oracle

>  <origin>  (67) 
adg

>  <m_score__min__energy>  (67) 
-10.81

>  <m_primary>  (67) 
energy

$$$$
67:0
     RDKit          3D

 51 53  0  0  0  0  0  0  0  0999 V2000
   54.8560   26.2280   45.8910 N   0  0  0  0  0  0  0  0  0  0  0  0
   54.7140   24.5190   45.6670 S   0  0  0  0  0  0  0  0  0  0  0  0
   55.2030   24.1520   44.2930 O   0  0  0  0  0  0  0  0  0  0  0  0
   53.2700   24.1230   45.7970 O   0  0  0  0  0  0  0  0  0  0  0  0
   55.6680   23.6560   46.9120 C   0  0  0  0  0  0  0  0  0  0  0  0
   56.8870   22.9190   46.3300 C   0  0  0  0  0  0  0  0  0  0  0  0
   57.8250   23.8170   45.5040 C   0  0  0  0  0  0  0  0  0  0  0  0
   58.5720   24.7750   46.3510 N   0  0  0  0  0  0  0  0  0  0  0  0
   60.0190   24.7920   46.0050 C   0  0  0  0  0  0  0  0  0  0  0  0
   60.7040   26.0910   46.4450 C   0  0  0  0  0  0  0  0  0  0  0  0
   60.0890   27.3110   45.7360 C   0  0  0  0  0  0  0  0  0  0  0  0
   58.6070   27.0900   45.3620 C   0  0  2  0  0  0  0  0  0  0  0  0
   57.8700   28.4000   45.3030 C   0  0  0  0  0  0  0  0  0  0  0  0
   58.4380   29.6510   45.4120 C   0  0  0  0  0  0  0  0  0  0  0  0
   57.3630   30.5110   45.3230 C   0  0  0  0  0  0  0  0  0  0  0  0
   57.4090   31.9820   45.3180 C   0  0  0  0  0  0  0  0  0  0  0  0
   56.3620   32.6180   45.0210 O   0  0  0  0  0  0  0  0  0  0  0  0
   58.6090   32.7050   45.6450 N   0  0  0  0  0  0  0  0  0  0  0  0
   58.8620   34.0540   45.1640 C   0  0  0  0  0  0  0  0  0  0  0  0
   59.9610   34.6160   46.0570 C   0  0  0  0  0  0  0  0  0  0  0  0
   60.5590   33.4200   46.7930 C   0  0  0  0  0  0  0  0  0  0  0  0
   59.5140   32.3160   46.7150 C   0  0  0  0  0  0  0  0  0  0  0  0
   56.2290   29.8030   45.1550 N   0  0  0  0  0  0  0  0  0  0  0  0
   56.5350   28.5150   45.1540 N   0  0  0  0  0  0  0  0  0  0  0  0
   57.9330   26.1200   46.3520 C   0  0  0  0  0  0  0  0  0  0  0  0
   55.6440   26.5520   45.2860 H   0  0  0  0  0  0  0  0  0  0  0  0
   55.1500   26.3840   46.8810 H   0  0  0  0  0  0  0  0  0  0  0  0
   56.0216   24.3882   47.6529 H   0  0  0  0  0  0  0  0  0  0  0  0
   55.0107   22.8992   47.3649 H   0  0  0  0  0  0  0  0  0  0  0  0
   57.4631   22.4911   47.1637 H   0  0  0  0  0  0  0  0  0  0  0  0
   56.4978   22.1505   45.6460 H   0  0  0  0  0  0  0  0  0  0  0  0
   58.5454   23.1801   44.9697 H   0  0  0  0  0  0  0  0  0  0  0  0
   57.2065   24.3970   44.8032 H   0  0  0  0  0  0  0  0  0  0  0  0
   60.5125   23.9447   46.5036 H   0  0  0  0  0  0  0  0  0  0  0  0
   60.1057   24.7182   44.9109 H   0  0  0  0  0  0  0  0  0  0  0  0
   60.5845   26.2095   47.5320 H   0  0  0  0  0  0  0  0  0  0  0  0
   61.7691   26.0319   46.1767 H   0  0  0  0  0  0  0  0  0  0  0  0
   60.1583   28.1808   46.4058 H   0  0  0  0  0  0  0  0  0  0  0  0
   60.6492   27.4744   44.8036 H   0  0  0  0  0  0  0  0  0  0  0  0
   58.5687   26.6347   44.3614 H   0  0  0  0  0  0  0  0  0  0  0  0
   59.5007   29.9046   45.5401 H   0  0  0  0  0  0  0  0  0  0  0  0
   59.1952   34.0304   44.1159 H   0  0  0  0  0  0  0  0  0  0  0  0
   57.9539   34.6736   45.2024 H   0  0  0  0  0  0  0  0  0  0  0  0
   60.7304   35.1139   45.4486 H   0  0  0  0  0  0  0  0  0  0  0  0
   59.5655   35.3643   46.7596 H   0  0  0  0  0  0  0  0  0  0  0  0
   61.4918   33.0988   46.3064 H   0  0  0  0  0  0  0  0  0  0  0  0
   60.8051   33.6697   47.8356 H   0  0  0  0  0  0  0  0  0  0  0  0
   59.9909   31.3524   46.4826 H   0  0  0  0  0  0  0  0  0  0  0  0
   58.9831   32.1915   47.6703 H   0  0  0  0  0  0  0  0  0  0  0  0
   58.0026   26.5437   47.3648 H   0  0  0  0  0  0  0  0  0  0  0  0
   56.8859   25.9947   46.0393 H   0  0  0  0  0  0  0  0  0  0  0  0
  1  2  1  0
  2  3  2  0
  2  4  2  0
  2  5  1  0
  5  6  1  0
  6  7  1  0
  7  8  1  0
  8  9  1  0
  9 10  1  0
 10 11  1  0
 11 12  1  0
 12 13  1  0
 13 14  1  0
 14 15  2  0
 15 16  1  0
 16 17  2  0
 16 18  1  0
 18 19  1  0
 19 20  1  0
 20 21  1  0
 21 22  1  0
 15 23  1  0
 23 24  1  0
 12 25  1  0
 25  8  1  0
 24 13  2  0
 22 18  1  0
  1 26  1  0
  1 27  1  0
  5 28  1  0
  5 29  1  0
  6 30  1  0
  6 31  1  0
  7 32  1  0
  7 33  1  0
  9 34  1  0
  9 35  1  0
 10 36  1  0
 10 37  1  0
 11 38  1  0
 11 39  1  0
 12 40  1  6
 14 41  1  0
 19 42  1  0
 19 43  1  0
 20 44  1  0
 20 45  1  0
 21 46  1  0
 21 47  1  0
 22 48  1  0
 22 49  1  0
 25 50  1  0
 25 51  1  0
M  CHG  1  23  -1
M  END
>  <UniqueID>  (68) 
65

>  <SMILES>  (68) 
NS(=O)(=O)CCCN1CCC[C@H](c2cc(C(=O)N3CCCC3)[n-]n2)C1

>  <Energy>  (68) 
81.91733823363208

>  <Genealogy>  (68) 
NS(=O)(=O)CCCN1CCCC(c2cc(C(=O)N3CCCC3)[n-]n2)C1 (protonated)
NS(=O)(=O)CCCN1CCC[C@H](c2cc(C(=O)N3CCCC3)[n-]n2)C1 (chirality)
NS(=O)(=O)CCCN1CCC[C@H](c2cc(C(=O)N3CCCC3)[n-]n2)C1 (3D coordinates assigned)
NS(=O)(=O)CCCN1CCC[C@H](c2cc(C(=O)N3CCCC3)[n-]n2)C1 (nonaromatic ring conformer: 81.91733823363208 kcal/mol)

>  <smiles>  (68) 
NS(=O)(=O)CCCN1CCCC(c2cc(C(=O)N3CCCC3)[nH]n2)C1

>  <score_type>  (68) 
oracle

>  <origin>  (68) 
adg

>  <m_score__min__energy>  (68) 
-11.220000000000001

>  <m_primary>  (68) 
energy

$$$$
68:0
     RDKit          3D

 38 39  0  0  0  0  0  0  0  0999 V2000
   54.2880   22.7770   47.8950 C   0  0  0  0  0  0  0  0  0  0  0  0
   53.2470   22.9680   46.7920 C   0  0  0  0  0  0  0  0  0  0  0  0
   53.8420   23.5710   45.5440 C   0  0  0  0  0  0  0  0  0  0  0  0
   53.1420   23.6310   44.4950 O   0  0  0  0  0  0  0  0  0  0  0  0
   55.2550   24.0320   45.5060 C   0  0  0  0  0  0  0  0  0  0  0  0
   56.2930   23.1150   45.2620 C   0  0  0  0  0  0  0  0  0  0  0  0
   57.6250   23.5390   45.2150 C   0  0  0  0  0  0  0  0  0  0  0  0
   59.0000   22.2490   44.8840 Br  0  0  0  0  0  0  0  0  0  0  0  0
   57.9490   24.8890   45.4090 C   0  0  0  0  0  0  0  0  0  0  0  0
   59.3010   25.2710   45.3610 O   0  0  0  0  0  0  0  0  0  0  0  0
   60.0500   25.8030   46.4540 C   0  0  0  0  0  0  0  0  0  0  0  0
   59.4840   27.1150   46.8970 C   0  0  0  0  0  0  0  0  0  0  0  0
   58.8010   27.1720   47.9550 O   0  0  0  0  0  0  0  0  0  0  0  0
   59.7400   28.2930   46.1230 N   0  0  0  0  0  0  0  0  0  0  0  0
   58.7610   29.1520   45.5190 C   0  0  0  0  0  0  0  0  0  0  0  0
   59.1990   30.3240   44.8880 C   0  0  0  0  0  0  0  0  0  0  0  0
   58.2830   31.1800   44.2700 C   0  0  0  0  0  0  0  0  0  0  0  0
   56.9210   30.8620   44.2660 C   0  0  0  0  0  0  0  0  0  0  0  0
   56.4730   29.6830   44.8690 C   0  0  0  0  0  0  0  0  0  0  0  0
   55.1160   29.3710   44.8430 O   0  0  0  0  0  0  0  0  0  0  0  0
   57.3930   28.8250   45.4910 C   0  0  0  0  0  0  0  0  0  0  0  0
   56.9130   25.8120   45.6460 C   0  0  0  0  0  0  0  0  0  0  0  0
   55.5810   25.3910   45.6960 C   0  0  0  0  0  0  0  0  0  0  0  0
   54.5900   26.3330   45.9530 O   0  0  0  0  0  0  0  0  0  0  0  0
   53.8017   22.8662   48.8776 H   0  0  0  0  0  0  0  0  0  0  0  0
   54.7436   21.7803   47.8006 H   0  0  0  0  0  0  0  0  0  0  0  0
   55.0678   23.5471   47.8006 H   0  0  0  0  0  0  0  0  0  0  0  0
   52.8140   21.9886   46.5403 H   0  0  0  0  0  0  0  0  0  0  0  0
   52.4798   23.6606   47.1685 H   0  0  0  0  0  0  0  0  0  0  0  0
   56.0546   22.0525   45.1064 H   0  0  0  0  0  0  0  0  0  0  0  0
   60.0159   25.0935   47.2939 H   0  0  0  0  0  0  0  0  0  0  0  0
   61.0885   25.9594   46.1269 H   0  0  0  0  0  0  0  0  0  0  0  0
   60.2706   30.5720   44.8790 H   0  0  0  0  0  0  0  0  0  0  0  0
   58.6334   32.1039   43.7867 H   0  0  0  0  0  0  0  0  0  0  0  0
   56.2005   31.5413   43.7871 H   0  0  0  0  0  0  0  0  0  0  0  0
   54.7850   28.4720   44.5150 H   0  0  0  0  0  0  0  0  0  0  0  0
   57.0430   27.8929   45.9586 H   0  0  0  0  0  0  0  0  0  0  0  0
   57.1540   26.8751   45.7933 H   0  0  0  0  0  0  0  0  0  0  0  0
  1  2  1  0
  2  3  1  0
  3  4  2  0
  3  5  1  0
  5  6  2  0
  6  7  1  0
  7  8  1  0
  7  9  2  0
  9 10  1  0
 10 11  1  0
 11 12  1  0
 12 13  2  0
 12 14  1  0
 14 15  1  0
 15 16  2  0
 16 17  1  0
 17 18  2  0
 18 19  1  0
 19 20  1  0
 19 21  2  0
  9 22  1  0
 22 23  2  0
 23 24  1  0
 23  5  1  0
 21 15  1  0
  1 25  1  0
  1 26  1  0
  1 27  1  0
  2 28  1  0
  2 29  1  0
  6 30  1  0
 11 31  1  0
 11 32  1  0
 16 33  1  0
 17 34  1  0
 18 35  1  0
 20 36  1  0
 21 37  1  0
 22 38  1  0
M  CHG  2  14  -1  24  -1
M  END
>  <UniqueID>  (69) 
66

>  <SMILES>  (69) 
CCC(=O)c1cc(Br)c(OCC(=O)[N-]c2cccc(O)c2)cc1[O-]

>  <Energy>  (69) 
42.15875926884581

>  <Genealogy>  (69) 
CCC(=O)c1cc(Br)c(OCC(=O)[N-]c2cccc(O)c2)cc1[O-] (protonated)
CCC(=O)c1cc(Br)c(OCC(=O)[N-]c2cccc(O)c2)cc1[O-] (3D coordinates assigned)
CCC(=O)c1cc(Br)c(OCC(=O)[N-]c2cccc(O)c2)cc1[O-] (optimized conformer: 42.15875926884581 kcal/mol)

>  <smiles>  (69) 
CCC(=O)c1cc(Br)c(OCC(=O)Nc2cccc(O)c2)cc1O

>  <score_type>  (69) 
oracle

>  <origin>  (69) 
adg

>  <m_score__min__energy>  (69) 
-12.140000000000001

>  <m_primary>  (69) 
energy

$$$$
69:0
     RDKit          3D

 42 44  0  0  0  0  0  0  0  0999 V2000
   59.2253   23.9865   45.6233 H   0  0  0  0  0  0  0  0  0  0  0  0
   59.0210   22.9590   45.2880 C   0  0  0  0  0  0  0  0  0  0  0  0
   59.7656   22.4191   44.6846 H   0  0  0  0  0  0  0  0  0  0  0  0
   57.8670   22.3660   45.6140 C   0  0  0  0  0  0  0  0  0  0  0  0
   56.7510   22.9280   46.2560 C   0  0  0  0  0  0  0  0  0  0  0  0
   56.5810   24.1250   46.8530 C   0  0  0  0  0  0  0  0  0  0  0  0
   55.9358   24.1576   47.7433 H   0  0  0  0  0  0  0  0  0  0  0  0
   57.1860   25.3890   46.4130 C   0  0  0  0  0  0  0  0  0  0  0  0
   58.5120   25.5550   46.2260 N   0  0  0  0  0  0  0  0  0  0  0  0
   58.6100   26.8100   45.7340 C   0  0  0  0  0  0  0  0  0  0  0  0
   59.7160   27.3520   45.4650 O   0  0  0  0  0  0  0  0  0  0  0  0
   57.4180   27.4240   45.5630 N   0  0  0  0  0  0  0  0  0  0  0  0
   57.1580   28.7950   45.1140 C   0  0  0  0  0  0  0  0  0  0  0  0
   57.5878   28.9327   44.1108 H   0  0  0  0  0  0  0  0  0  0  0  0
   56.0702   28.9566   45.0923 H   0  0  0  0  0  0  0  0  0  0  0  0
   57.7740   29.7970   46.0560 C   0  0  0  0  0  0  0  0  0  0  0  0
   58.1740   29.3850   47.1810 O   0  0  0  0  0  0  0  0  0  0  0  0
   57.9470   31.1880   45.6980 N   0  0  0  0  0  0  0  0  0  0  0  0
   58.5980   32.0930   46.6560 C   0  0  0  0  0  0  0  0  0  0  0  0
   57.8553   32.4377   47.3906 H   0  0  0  0  0  0  0  0  0  0  0  0
   59.4093   31.5505   47.1633 H   0  0  0  0  0  0  0  0  0  0  0  0
   59.1900   33.3050   45.9310 C   0  0  0  0  0  0  0  0  0  0  0  0
   59.5517   34.0298   46.6752 H   0  0  0  0  0  0  0  0  0  0  0  0
   60.0202   32.9655   45.2942 H   0  0  0  0  0  0  0  0  0  0  0  0
   58.2160   33.9240   45.1160 O   0  0  0  0  0  0  0  0  0  0  0  0
   57.8500   33.0460   44.0710 C   0  0  0  0  0  0  0  0  0  0  0  0
   57.1660   33.5683   43.3859 H   0  0  0  0  0  0  0  0  0  0  0  0
   58.7622   32.7328   43.5421 H   0  0  0  0  0  0  0  0  0  0  0  0
   57.1510   31.7950   44.6200 C   0  0  0  0  0  0  0  0  0  0  0  0
   56.1634   32.0764   45.0144 H   0  0  0  0  0  0  0  0  0  0  0  0
   57.0413   31.0639   43.8055 H   0  0  0  0  0  0  0  0  0  0  0  0
   56.5200   26.5230   45.9940 C   0  0  0  0  0  0  0  0  0  0  0  0
   55.1420   26.7150   45.9950 O   0  0  0  0  0  0  0  0  0  0  0  0
   55.7470   21.9750   46.1790 C   0  0  0  0  0  0  0  0  0  0  0  0
   54.7116   22.0806   46.5349 H   0  0  0  0  0  0  0  0  0  0  0  0
   56.3010   20.8670   45.5680 C   0  0  0  0  0  0  0  0  0  0  0  0
   55.5700   19.6100   45.2290 C   0  0  0  0  0  0  0  0  0  0  0  0
   55.2721   19.0978   46.1558 H   0  0  0  0  0  0  0  0  0  0  0  0
   54.6733   19.8546   44.6407 H   0  0  0  0  0  0  0  0  0  0  0  0
   56.2261   18.9516   44.6407 H   0  0  0  0  0  0  0  0  0  0  0  0
   57.5790   21.1070   45.2220 N   0  0  0  0  0  0  0  0  0  0  0  0
   58.2070   20.4560   44.6960 H   0  0  0  0  0  0  0  0  0  0  0  0
  1  2  1  0
  2  3  1  0
  2  4  2  0
  4  5  1  0
  5  6  2  0
  6  7  1  0
  6  8  1  0
  8  9  1  0
  9 10  1  0
 10 11  2  0
 10 12  1  0
 12 13  1  0
 13 14  1  0
 13 15  1  0
 13 16  1  0
 16 17  2  0
 16 18  1  0
 18 19  1  0
 19 20  1  0
 19 21  1  0
 19 22  1  0
 22 23  1  0
 22 24  1  0
 22 25  1  0
 25 26  1  0
 26 27  1  0
 26 28  1  0
 26 29  1  0
 29 30  1  0
 29 31  1  0
 12 32  1  0
 32 33  1  0
  5 34  1  0
 34 35  1  0
 34 36  2  0
 36 37  1  0
 37 38  1  0
 37 39  1  0
 37 40  1  0
 36 41  1  0
 41 42  1  0
 41  4  1  0
 32  8  2  0
 29 18  1  0
M  CHG  2   9  -1  33  -1
M  END
>  <UniqueID>  (70) 
67

>  <SMILES>  (70) 
C=c1[nH]c(C)c/c1=C/c1[n-]c(=O)n(CC(=O)N2CCOCC2)c1[O-]

>  <Energy>  (70) 
113.4109273280233

>  <Genealogy>  (70) 
C=c1[nH]c(C)cc1=Cc1[n-]c(=O)n(CC(=O)N2CCOCC2)c1[O-] (protonated)
C=c1[nH]c(C)c/c1=C/c1[n-]c(=O)n(CC(=O)N2CCOCC2)c1[O-] (cis-trans isomerization)
C=c1[nH]c(C)c/c1=C/c1[n-]c(=O)n(CC(=O)N2CCOCC2)c1[O-] (3D coordinates assigned)
C=c1[nH]c(C)c/c1=C/c1[n-]c(=O)n(CC(=O)N2CCOCC2)c1[O-] (nonaromatic ring conformer: 113.4109273280233 kcal/mol)

>  <smiles>  (70) 
C=c1[nH]c(C)cc1=Cc1[nH]c(=O)n(CC(=O)N2CCOCC2)c1O

>  <score_type>  (70) 
oracle

>  <origin>  (70) 
adg

>  <m_score__min__energy>  (70) 
-12.789999999999999

>  <m_primary>  (70) 
energy

$$$$
70:0
     RDKit          3D

 51 54  0  0  0  0  0  0  0  0999 V2000
   59.9950   27.0610   46.8360 C   0  0  0  0  0  0  0  0  0  0  0  0
   59.4470   28.4210   46.8470 N   0  0  0  0  0  0  0  0  0  0  0  0
   58.0130   28.6450   46.6210 C   0  0  0  0  0  0  0  0  0  0  0  0
   57.8170   29.4530   45.3670 C   0  0  0  0  0  0  0  0  0  0  0  0
   58.4020   30.7240   45.2450 C   0  0  0  0  0  0  0  0  0  0  0  0
   58.1610   31.5020   44.1110 C   0  0  0  0  0  0  0  0  0  0  0  0
   57.3270   31.0240   43.0970 C   0  0  0  0  0  0  0  0  0  0  0  0
   56.7310   29.7650   43.2150 C   0  0  0  0  0  0  0  0  0  0  0  0
   55.9080   29.3080   42.2380 F   0  0  0  0  0  0  0  0  0  0  0  0
   56.9710   28.9820   44.3480 C   0  0  0  0  0  0  0  0  0  0  0  0
   60.2790   29.4970   47.3150 C   0  0  0  0  0  0  0  0  0  0  0  0
   61.3200   29.8010   46.6700 O   0  0  0  0  0  0  0  0  0  0  0  0
   59.9130   30.2760   48.5150 C   0  0  0  0  0  0  0  0  0  0  0  0
   58.8390   29.9930   49.2910 N   0  0  0  0  0  0  0  0  0  0  0  0
   58.7450   31.0010   50.1790 C   0  0  0  0  0  0  0  0  0  0  0  0
   57.7700   31.1690   51.1600 C   0  0  0  0  0  0  0  0  0  0  0  0
   57.8410   32.3200   51.9670 C   0  0  0  0  0  0  0  0  0  0  0  0
   58.8720   33.2670   51.7770 C   0  0  0  0  0  0  0  0  0  0  0  0
   59.8410   33.0740   50.7750 C   0  0  0  0  0  0  0  0  0  0  0  0
   59.7400   31.9290   49.9860 C   0  0  0  0  0  0  0  0  0  0  0  0
   60.4960   31.4750   48.9270 C   0  0  0  0  0  0  0  0  0  0  0  0
   61.5590   32.1720   48.2760 N   0  0  0  0  0  0  0  0  0  0  0  0
   61.3260   33.8080   47.7570 S   0  0  0  0  0  0  0  0  0  0  0  0
   62.4610   34.2100   46.8570 O   0  0  0  0  0  0  0  0  0  0  0  0
   61.3060   34.7340   48.9420 O   0  0  0  0  0  0  0  0  0  0  0  0
   59.8090   33.9210   46.8710 C   0  0  0  0  0  0  0  0  0  0  0  0
   58.6170   33.4610   47.4500 C   0  0  0  0  0  0  0  0  0  0  0  0
   57.4050   33.5980   46.7640 C   0  0  0  0  0  0  0  0  0  0  0  0
   57.3780   34.2010   45.5020 C   0  0  0  0  0  0  0  0  0  0  0  0
   58.5640   34.6670   44.9260 C   0  0  0  0  0  0  0  0  0  0  0  0
   59.7770   34.5290   45.6080 C   0  0  0  0  0  0  0  0  0  0  0  0
   60.1349   26.7137   47.8703 H   0  0  0  0  0  0  0  0  0  0  0  0
   59.2975   26.3888   46.3147 H   0  0  0  0  0  0  0  0  0  0  0  0
   60.9636   27.0602   46.3147 H   0  0  0  0  0  0  0  0  0  0  0  0
   57.5039   27.6757   46.5147 H   0  0  0  0  0  0  0  0  0  0  0  0
   57.5907   29.1924   47.4766 H   0  0  0  0  0  0  0  0  0  0  0  0
   59.0520   31.1076   46.0452 H   0  0  0  0  0  0  0  0  0  0  0  0
   58.6286   32.4931   44.0157 H   0  0  0  0  0  0  0  0  0  0  0  0
   57.1391   31.6392   42.2047 H   0  0  0  0  0  0  0  0  0  0  0  0
   56.4963   27.9942   44.4424 H   0  0  0  0  0  0  0  0  0  0  0  0
   58.1710   29.1960   49.1830 H   0  0  0  0  0  0  0  0  0  0  0  0
   56.9707   30.4262   51.2993 H   0  0  0  0  0  0  0  0  0  0  0  0
   57.0878   32.4835   52.7518 H   0  0  0  0  0  0  0  0  0  0  0  0
   58.9176   34.1609   52.4164 H   0  0  0  0  0  0  0  0  0  0  0  0
   60.6508   33.8020   50.6195 H   0  0  0  0  0  0  0  0  0  0  0  0
   62.2840   31.6100   47.7740 H   0  0  0  0  0  0  0  0  0  0  0  0
   58.6350   32.9919   48.4448 H   0  0  0  0  0  0  0  0  0  0  0  0
   56.4725   33.2311   47.2176 H   0  0  0  0  0  0  0  0  0  0  0  0
   56.4249   34.3085   44.9634 H   0  0  0  0  0  0  0  0  0  0  0  0
   58.5427   35.1430   43.9346 H   0  0  0  0  0  0  0  0  0  0  0  0
   60.7078   34.8982   45.1527 H   0  0  0  0  0  0  0  0  0  0  0  0
  1  2  1  0
  2  3  1  0
  3  4  1  0
  4  5  2  0
  5  6  1  0
  6  7  2  0
  7  8  1  0
  8  9  1  0
  8 10  2  0
  2 11  1  0
 11 12  2  0
 11 13  1  0
 13 14  1  0
 14 15  1  0
 15 16  2  0
 16 17  1  0
 17 18  2  0
 18 19  1  0
 19 20  2  0
 20 21  1  0
 21 22  1  0
 22 23  1  0
 23 24  2  0
 23 25  2  0
 23 26  1  0
 26 27  2  0
 27 28  1  0
 28 29  2  0
 29 30  1  0
 30 31  2  0
 10  4  1  0
 21 13  2  0
 31 26  1  0
 20 15  1  0
  1 32  1  0
  1 33  1  0
  1 34  1  0
  3 35  1  0
  3 36  1  0
  5 37  1  0
  6 38  1  0
  7 39  1  0
 10 40  1  0
 14 41  1  0
 16 42  1  0
 17 43  1  0
 18 44  1  0
 19 45  1  0
 22 46  1  0
 27 47  1  0
 28 48  1  0
 29 49  1  0
 30 50  1  0
 31 51  1  0
M  END
>  <UniqueID>  (71) 
68

>  <SMILES>  (71) 
CN(Cc1cccc(F)c1)C(=O)c1[nH]c2ccccc2c1NS(=O)(=O)c1ccccc1

>  <Energy>  (71) 
95.70482118819564

>  <Genealogy>  (71) 
CN(Cc1cccc(F)c1)C(=O)c1[nH]c2ccccc2c1NS(=O)(=O)c1ccccc1 (3D coordinates assigned)
CN(Cc1cccc(F)c1)C(=O)c1[nH]c2ccccc2c1NS(=O)(=O)c1ccccc1 (optimized conformer: 95.70482118819564 kcal/mol)

>  <smiles>  (71) 
CN(Cc1cccc(F)c1)C(=O)c1[nH]c2ccccc2c1NS(=O)(=O)c1ccccc1

>  <score_type>  (71) 
oracle

>  <origin>  (71) 
adg

>  <m_score__min__energy>  (71) 
-9.0999999999999996

>  <m_primary>  (71) 
energy

$$$$
71:0
     RDKit          3D

 63 66  0  0  0  0  0  0  0  0999 V2000
   55.1050   20.9200   46.8750 C   0  0  0  0  0  0  0  0  0  0  0  0
   54.1850   21.9390   47.2590 O   0  0  0  0  0  0  0  0  0  0  0  0
   53.3020   22.5860   46.3810 C   0  0  0  0  0  0  0  0  0  0  0  0
   51.9030   22.5020   46.5330 C   0  0  0  0  0  0  0  0  0  0  0  0
   51.0550   23.1680   45.6430 C   0  0  0  0  0  0  0  0  0  0  0  0
   51.5890   23.9390   44.6080 C   0  0  0  0  0  0  0  0  0  0  0  0
   50.5220   24.8010   43.5110 Cl  0  0  0  0  0  0  0  0  0  0  0  0
   52.9750   24.0300   44.4500 C   0  0  0  0  0  0  0  0  0  0  0  0
   53.8380   23.3370   45.3200 C   0  0  0  0  0  0  0  0  0  0  0  0
   55.2650   23.4460   45.1960 N   0  0  0  0  0  0  0  0  0  0  0  0
   56.0380   23.0290   44.0650 C   0  0  0  0  0  0  0  0  0  0  0  0
   55.5200   22.2580   43.2170 O   0  0  0  0  0  0  0  0  0  0  0  0
   57.3710   23.5200   43.8760 N   0  0  0  0  0  0  0  0  0  0  0  0
   58.0600   24.3800   44.8290 C   0  0  0  0  0  0  0  0  0  0  0  0
   57.7470   25.8230   44.5380 C   0  0  0  0  0  0  0  0  0  0  0  0
   58.1520   26.4730   43.3880 C   0  0  0  0  0  0  0  0  0  0  0  0
   57.7310   27.7780   43.5060 C   0  0  0  0  0  0  0  0  0  0  0  0
   57.0790   27.8760   44.7230 C   0  0  0  0  0  0  0  0  0  0  0  0
   56.5070   29.1360   45.2500 C   0  0  0  0  0  0  0  0  0  0  0  0
   55.3090   29.4310   45.0060 O   0  0  0  0  0  0  0  0  0  0  0  0
   57.3190   30.0880   45.9500 N   0  0  0  0  0  0  0  0  0  0  0  0
   57.7580   31.3530   45.4340 C   0  0  0  0  0  0  0  0  0  0  0  0
   58.5320   32.1820   46.2560 C   0  0  0  0  0  0  0  0  0  0  0  0
   58.9790   33.4280   45.7950 C   0  0  0  0  0  0  0  0  0  0  0  0
   59.9310   34.4780   46.8500 S   0  0  0  0  0  0  0  0  0  0  0  0
   60.3140   35.7210   46.0940 O   0  0  0  0  0  0  0  0  0  0  0  0
   59.0880   34.8920   48.0250 O   0  0  0  0  0  0  0  0  0  0  0  0
   61.3760   33.6860   47.4290 N   0  0  0  0  0  0  0  0  0  0  0  0
   62.4730   33.8420   46.4610 C   0  0  0  0  0  0  0  0  0  0  0  0
   63.7910   33.2900   47.0430 C   0  0  0  0  0  0  0  0  0  0  0  0
   63.5680   32.6220   48.2690 O   0  0  0  0  0  0  0  0  0  0  0  0
   63.0640   33.5360   49.2240 C   0  0  0  0  0  0  0  0  0  0  0  0
   61.7720   34.2260   48.7370 C   0  0  0  0  0  0  0  0  0  0  0  0
   58.6600   33.8390   44.4950 C   0  0  0  0  0  0  0  0  0  0  0  0
   57.9140   33.0050   43.6570 C   0  0  0  0  0  0  0  0  0  0  0  0
   57.4720   31.7610   44.1140 C   0  0  0  0  0  0  0  0  0  0  0  0
   56.7790   30.9270   43.2440 O   0  0  0  0  0  0  0  0  0  0  0  0
   57.0670   26.6710   45.3470 N   0  0  0  0  0  0  0  0  0  0  0  0
   56.6280   26.3870   46.7170 C   0  0  0  0  0  0  0  0  0  0  0  0
   55.5288   20.4506   47.7750 H   0  0  0  0  0  0  0  0  0  0  0  0
   54.5814   20.1597   46.2769 H   0  0  0  0  0  0  0  0  0  0  0  0
   55.9147   21.3635   46.2769 H   0  0  0  0  0  0  0  0  0  0  0  0
   51.4765   21.9096   47.3559 H   0  0  0  0  0  0  0  0  0  0  0  0
   49.9642   23.0845   45.7582 H   0  0  0  0  0  0  0  0  0  0  0  0
   53.3938   24.6467   43.6411 H   0  0  0  0  0  0  0  0  0  0  0  0
   57.7284   24.1335   45.8484 H   0  0  0  0  0  0  0  0  0  0  0  0
   59.1448   24.2205   44.7415 H   0  0  0  0  0  0  0  0  0  0  0  0
   58.7030   26.0335   42.5435 H   0  0  0  0  0  0  0  0  0  0  0  0
   57.8831   28.5860   42.7752 H   0  0  0  0  0  0  0  0  0  0  0  0
   58.7915   31.8521   47.2728 H   0  0  0  0  0  0  0  0  0  0  0  0
   62.2251   33.2917   45.5414 H   0  0  0  0  0  0  0  0  0  0  0  0
   62.6026   34.9118   46.2401 H   0  0  0  0  0  0  0  0  0  0  0  0
   64.2325   32.5836   46.3246 H   0  0  0  0  0  0  0  0  0  0  0  0
   64.4722   34.1343   47.2251 H   0  0  0  0  0  0  0  0  0  0  0  0
   62.8472   32.9929   50.1557 H   0  0  0  0  0  0  0  0  0  0  0  0
   63.8250   34.3138   49.3852 H   0  0  0  0  0  0  0  0  0  0  0  0
   60.9666   34.0461   49.4643 H   0  0  0  0  0  0  0  0  0  0  0  0
   61.9539   35.3066   48.6414 H   0  0  0  0  0  0  0  0  0  0  0  0
   58.9974   34.8211   44.1320 H   0  0  0  0  0  0  0  0  0  0  0  0
   57.6741   33.3295   42.6337 H   0  0  0  0  0  0  0  0  0  0  0  0
   57.3318   26.8423   47.4293 H   0  0  0  0  0  0  0  0  0  0  0  0
   55.6236   26.8069   46.8747 H   0  0  0  0  0  0  0  0  0  0  0  0
   56.5993   25.2987   46.8747 H   0  0  0  0  0  0  0  0  0  0  0  0
  1  2  1  0
  2  3  1  0
  3  4  2  0
  4  5  1  0
  5  6  2  0
  6  7  1  0
  6  8  1  0
  8  9  2  0
  9 10  1  0
 10 11  1  0
 11 12  2  0
 11 13  1  0
 13 14  1  0
 14 15  1  0
 15 16  2  0
 16 17  1  0
 17 18  2  0
 18 19  1  0
 19 20  2  0
 19 21  1  0
 21 22  1  0
 22 23  2  0
 23 24  1  0
 24 25  1  0
 25 26  2  0
 25 27  2  0
 25 28  1  0
 28 29  1  0
 29 30  1  0
 30 31  1  0
 31 32  1  0
 32 33  1  0
 24 34  2  0
 34 35  1  0
 35 36  2  0
 36 37  1  0
 18 38  1  0
 38 39  1  0
  9  3  1  0
 38 15  1  0
 36 22  1  0
 33 28  1  0
  1 40  1  0
  1 41  1  0
  1 42  1  0
  4 43  1  0
  5 44  1  0
  8 45  1  0
 14 46  1  0
 14 47  1  0
 16 48  1  0
 17 49  1  0
 23 50  1  0
 29 51  1  0
 29 52  1  0
 30 53  1  0
 30 54  1  0
 32 55  1  0
 32 56  1  0
 33 57  1  0
 33 58  1  0
 34 59  1  0
 35 60  1  0
 39 61  1  0
 39 62  1  0
 39 63  1  0
M  CHG  4  10  -1  13  -1  21  -1  37  -1
M  END
>  <UniqueID>  (72) 
69

>  <SMILES>  (72) 
COc1ccc(Cl)cc1[N-]C(=O)[N-]Cc1ccc(C(=O)[N-]c2cc(S(=O)(=O)N3CCOCC3)ccc2[O-])n1C

>  <Energy>  (72) 
109.10591613977232

>  <Genealogy>  (72) 
COc1ccc(Cl)cc1[N-]C(=O)[N-]Cc1ccc(C(=O)[N-]c2cc(S(=O)(=O)N3CCOCC3)ccc2[O-])n1C (protonated)
COc1ccc(Cl)cc1[N-]C(=O)[N-]Cc1ccc(C(=O)[N-]c2cc(S(=O)(=O)N3CCOCC3)ccc2[O-])n1C (3D coordinates assigned)
COc1ccc(Cl)cc1[N-]C(=O)[N-]Cc1ccc(C(=O)[N-]c2cc(S(=O)(=O)N3CCOCC3)ccc2[O-])n1C (nonaromatic ring conformer: 109.10591613977232 kcal/mol)

>  <smiles>  (72) 
COc1ccc(Cl)cc1NC(=O)NCc1ccc(C(=O)Nc2cc(S(=O)(=O)N3CCOCC3)ccc2O)n1C

>  <score_type>  (72) 
oracle

>  <origin>  (72) 
adg

>  <m_score__min__energy>  (72) 
-16.390000000000001

>  <m_primary>  (72) 
energy

$$$$
72:0
     RDKit          3D

 48 49  0  0  0  0  0  0  0  0999 V2000
   61.6430   34.2580   49.3970 C   0  0  0  0  0  0  0  0  0  0  0  0
   60.6730   33.9760   48.2880 C   0  0  0  0  0  0  0  0  0  0  0  0
   59.3590   33.5910   48.5920 C   0  0  0  0  0  0  0  0  0  0  0  0
   58.4350   33.3770   47.5680 C   0  0  0  0  0  0  0  0  0  0  0  0
   58.8090   33.5520   46.2270 C   0  0  0  0  0  0  0  0  0  0  0  0
   57.6060   33.3470   44.9520 S   0  0  0  0  0  0  0  0  0  0  0  0
   56.6410   34.5000   44.9450 O   0  0  0  0  0  0  0  0  0  0  0  0
   58.3090   33.2940   43.6280 O   0  0  0  0  0  0  0  0  0  0  0  0
   56.7280   31.8650   45.1920 N   0  0  0  0  0  0  0  0  0  0  0  0
   56.7790   31.0270   43.9940 C   0  0  0  0  0  0  0  0  0  0  0  0
   55.8410   29.8590   44.1290 C   0  0  0  0  0  0  0  0  0  0  0  0
   55.0070   29.6440   43.2100 O   0  0  0  0  0  0  0  0  0  0  0  0
   55.8710   28.9650   45.2530 N   0  0  0  0  0  0  0  0  0  0  0  0
   56.7320   27.7960   45.4010 C   0  0  0  0  0  0  0  0  0  0  0  0
   58.1090   28.2010   45.8390 C   0  0  0  0  0  0  0  0  0  0  0  0
   58.9750   27.3140   46.0520 O   0  0  0  0  0  0  0  0  0  0  0  0
   58.4280   29.5860   46.0290 N   0  0  0  0  0  0  0  0  0  0  0  0
   59.7960   30.0600   46.2300 C   0  0  0  0  0  0  0  0  0  0  0  0
   60.1110   30.1800   47.7070 C   0  0  0  0  0  0  0  0  0  0  0  0
   59.1390   29.7500   48.6270 C   0  0  0  0  0  0  0  0  0  0  0  0
   59.3740   29.8290   50.0010 C   0  0  0  0  0  0  0  0  0  0  0  0
   60.5770   30.3480   50.4760 C   0  0  0  0  0  0  0  0  0  0  0  0
   61.5530   30.7870   49.5790 C   0  0  0  0  0  0  0  0  0  0  0  0
   61.3380   30.7070   48.1920 C   0  0  0  0  0  0  0  0  0  0  0  0
   62.4180   31.1950   47.2620 C   0  0  0  0  0  0  0  0  0  0  0  0
   60.1230   33.9310   45.9180 C   0  0  0  0  0  0  0  0  0  0  0  0
   61.0480   34.1500   46.9450 C   0  0  0  0  0  0  0  0  0  0  0  0
   61.1439   34.1129   50.3664 H   0  0  0  0  0  0  0  0  0  0  0  0
   62.4989   33.5715   49.3189 H   0  0  0  0  0  0  0  0  0  0  0  0
   61.9975   35.2964   49.3189 H   0  0  0  0  0  0  0  0  0  0  0  0
   59.0557   33.4573   49.6409 H   0  0  0  0  0  0  0  0  0  0  0  0
   57.4078   33.0694   47.8137 H   0  0  0  0  0  0  0  0  0  0  0  0
   56.4868   31.6270   43.1196 H   0  0  0  0  0  0  0  0  0  0  0  0
   57.8039   30.6480   43.8678 H   0  0  0  0  0  0  0  0  0  0  0  0
   56.2980   27.1213   46.1536 H   0  0  0  0  0  0  0  0  0  0  0  0
   56.8065   27.2873   44.4285 H   0  0  0  0  0  0  0  0  0  0  0  0
   57.6670   30.2950   45.9570 H   0  0  0  0  0  0  0  0  0  0  0  0
   60.4961   29.3481   45.7684 H   0  0  0  0  0  0  0  0  0  0  0  0
   59.8978   31.0519   45.7655 H   0  0  0  0  0  0  0  0  0  0  0  0
   58.1833   29.3471   48.2606 H   0  0  0  0  0  0  0  0  0  0  0  0
   58.6082   29.4810   50.7099 H   0  0  0  0  0  0  0  0  0  0  0  0
   60.7580   30.4119   51.5591 H   0  0  0  0  0  0  0  0  0  0  0  0
   62.4986   31.1991   49.9611 H   0  0  0  0  0  0  0  0  0  0  0  0
   63.2643   31.5774   47.8515 H   0  0  0  0  0  0  0  0  0  0  0  0
   62.7590   30.3635   46.6277 H   0  0  0  0  0  0  0  0  0  0  0  0
   62.0193   32.0004   46.6277 H   0  0  0  0  0  0  0  0  0  0  0  0
   60.4268   34.0562   44.8682 H   0  0  0  0  0  0  0  0  0  0  0  0
   62.0744   34.4601   46.6996 H   0  0  0  0  0  0  0  0  0  0  0  0
  1  2  1  0
  2  3  2  0
  3  4  1  0
  4  5  2  0
  5  6  1  0
  6  7  2  0
  6  8  2  0
  6  9  1  0
  9 10  1  0
 10 11  1  0
 11 12  2  0
 11 13  1  0
 13 14  1  0
 14 15  1  0
 15 16  2  0
 15 17  1  0
 17 18  1  0
 18 19  1  0
 19 20  2  0
 20 21  1  0
 21 22  2  0
 22 23  1  0
 23 24  2  0
 24 25  1  0
  5 26  1  0
 26 27  2  0
 27  2  1  0
 24 19  1  0
  1 28  1  0
  1 29  1  0
  1 30  1  0
  3 31  1  0
  4 32  1  0
 10 33  1  0
 10 34  1  0
 14 35  1  0
 14 36  1  0
 17 37  1  0
 18 38  1  0
 18 39  1  0
 20 40  1  0
 21 41  1  0
 22 42  1  0
 23 43  1  0
 25 44  1  0
 25 45  1  0
 25 46  1  0
 26 47  1  0
 27 48  1  0
M  CHG  2   9  -1  13  -1
M  END
>  <UniqueID>  (73) 
70

>  <SMILES>  (73) 
Cc1ccc(S(=O)(=O)[N-]CC(=O)[N-]CC(=O)NCc2ccccc2C)cc1

>  <Energy>  (73) 
40.470648978196245

>  <Genealogy>  (73) 
Cc1ccc(S(=O)(=O)[N-]CC(=O)[N-]CC(=O)NCc2ccccc2C)cc1 (protonated)
Cc1ccc(S(=O)(=O)[N-]CC(=O)[N-]CC(=O)NCc2ccccc2C)cc1 (3D coordinates assigned)
Cc1ccc(S(=O)(=O)[N-]CC(=O)[N-]CC(=O)NCc2ccccc2C)cc1 (optimized conformer: 40.470648978196245 kcal/mol)

>  <smiles>  (73) 
Cc1ccc(S(=O)(=O)NCC(=O)NCC(=O)NCc2ccccc2C)cc1

>  <score_type>  (73) 
oracle

>  <origin>  (73) 
adg

>  <m_score__min__energy>  (73) 
-11.4

>  <m_primary>  (73) 
energy

$$$$
73:0
     RDKit          3D

 38 40  0  0  0  0  0  0  0  0999 V2000
   59.1170   29.2390   54.3050 O   0  0  0  0  0  0  0  0  0  0  0  0
   58.5210   28.9190   53.2410 C   0  0  0  0  0  0  0  0  0  0  0  0
   57.1910   28.3910   53.2850 N   0  0  0  0  0  0  0  0  0  0  0  0
   55.9750   29.1220   53.0750 C   0  0  0  0  0  0  0  0  0  0  0  0
   55.9730   30.4540   52.6240 C   0  0  0  0  0  0  0  0  0  0  0  0
   54.7660   31.1390   52.4520 C   0  0  0  0  0  0  0  0  0  0  0  0
   53.5470   30.5110   52.7510 C   0  0  0  0  0  0  0  0  0  0  0  0
   52.2470   31.2350   52.5290 C   0  0  0  0  0  0  0  0  0  0  0  0
   51.8120   31.0900   51.1010 C   0  0  0  0  0  0  0  0  0  0  0  0
   52.2140   29.9860   50.3390 C   0  0  0  0  0  0  0  0  0  0  0  0
   51.8140   29.9170   49.0030 C   0  0  0  0  0  0  0  0  0  0  0  0
   52.1540   28.9370   48.2900 O   0  0  0  0  0  0  0  0  0  0  0  0
   51.0570   30.9120   48.4700 N   0  0  0  0  0  0  0  0  0  0  0  0
   50.6840   31.9820   49.2200 C   0  0  0  0  0  0  0  0  0  0  0  0
   49.9860   32.8950   48.7080 O   0  0  0  0  0  0  0  0  0  0  0  0
   51.0630   32.0670   50.5210 N   0  0  0  0  0  0  0  0  0  0  0  0
   53.5510   29.1860   53.2110 C   0  0  0  0  0  0  0  0  0  0  0  0
   54.7580   28.5040   53.3840 C   0  0  0  0  0  0  0  0  0  0  0  0
   59.1220   29.1750   51.9680 N   0  0  0  0  0  0  0  0  0  0  0  0
   58.9880   30.3710   51.1840 C   0  0  0  0  0  0  0  0  0  0  0  0
   58.8000   30.3190   49.7890 C   0  0  0  0  0  0  0  0  0  0  0  0
   58.6480   31.4960   49.0520 C   0  0  0  0  0  0  0  0  0  0  0  0
   58.6700   32.7340   49.6950 C   0  0  0  0  0  0  0  0  0  0  0  0
   58.8330   32.7970   51.0820 C   0  0  0  0  0  0  0  0  0  0  0  0
   58.9850   31.6250   51.8300 C   0  0  0  0  0  0  0  0  0  0  0  0
   59.1390   31.7290   53.2140 O   0  0  0  0  0  0  0  0  0  0  0  0
   56.9253   30.9594   52.4055 H   0  0  0  0  0  0  0  0  0  0  0  0
   54.7720   32.1744   52.0808 H   0  0  0  0  0  0  0  0  0  0  0  0
   51.4766   30.8094   53.1888 H   0  0  0  0  0  0  0  0  0  0  0  0
   52.3868   32.3023   52.7555 H   0  0  0  0  0  0  0  0  0  0  0  0
   52.8311   29.1910   50.7830 H   0  0  0  0  0  0  0  0  0  0  0  0
   52.5998   28.6817   53.4365 H   0  0  0  0  0  0  0  0  0  0  0  0
   54.7517   27.4726   53.7663 H   0  0  0  0  0  0  0  0  0  0  0  0
   58.7727   29.3459   49.2769 H   0  0  0  0  0  0  0  0  0  0  0  0
   58.5106   31.4466   47.9617 H   0  0  0  0  0  0  0  0  0  0  0  0
   58.5592   33.6596   49.1111 H   0  0  0  0  0  0  0  0  0  0  0  0
   58.8418   33.7737   51.5879 H   0  0  0  0  0  0  0  0  0  0  0  0
   59.1700   30.9170   53.8190 H   0  0  0  0  0  0  0  0  0  0  0  0
  1  2  2  0
  2  3  1  0
  3  4  1  0
  4  5  2  0
  5  6  1  0
  6  7  2  0
  7  8  1  0
  8  9  1  0
  9 10  2  0
 10 11  1  0
 11 12  2  0
 11 13  1  0
 13 14  1  0
 14 15  2  0
 14 16  1  0
  7 17  1  0
 17 18  2  0
  2 19  1  0
 19 20  1  0
 20 21  2  0
 21 22  1  0
 22 23  2  0
 23 24  1  0
 24 25  2  0
 25 26  1  0
 18  4  1  0
 25 20  1  0
 16  9  1  0
  5 27  1  0
  6 28  1  0
  8 29  1  0
  8 30  1  0
 10 31  1  0
 17 32  1  0
 18 33  1  0
 21 34  1  0
 22 35  1  0
 23 36  1  0
 24 37  1  0
 26 38  1  0
M  CHG  4   3  -1  13  -1  16  -1  19  -1
M  END
>  <UniqueID>  (74) 
71

>  <SMILES>  (74) 
O=C([N-]c1ccc(Cc2cc(=O)[n-]c(=O)[n-]2)cc1)[N-]c1ccccc1O

>  <Energy>  (74) 
47.67157094990335

>  <Genealogy>  (74) 
O=C([N-]c1ccc(Cc2cc(=O)[n-]c(=O)[n-]2)cc1)[N-]c1ccccc1O (protonated)
O=C([N-]c1ccc(Cc2cc(=O)[n-]c(=O)[n-]2)cc1)[N-]c1ccccc1O (3D coordinates assigned)
O=C([N-]c1ccc(Cc2cc(=O)[n-]c(=O)[n-]2)cc1)[N-]c1ccccc1O (optimized conformer: 47.67157094990335 kcal/mol)

>  <smiles>  (74) 
O=C(Nc1ccc(Cc2cc(=O)[nH]c(=O)[nH]2)cc1)Nc1ccccc1O

>  <score_type>  (74) 
oracle

>  <origin>  (74) 
adg

>  <m_score__min__energy>  (74) 
-14.08

>  <m_primary>  (74) 
energy

$$$$
74:0
     RDKit          3D

 64 67  0  0  0  0  0  0  0  0999 V2000
   60.5930   34.9640   48.5820 O   0  0  0  0  0  0  0  0  0  0  0  0
   60.8290   34.0390   47.7530 C   0  0  0  0  0  0  0  0  0  0  0  0
   59.6790   33.4660   46.9840 C   0  0  0  0  0  0  0  0  0  0  0  0
   58.8330   32.4750   47.5230 C   0  0  0  0  0  0  0  0  0  0  0  0
   57.8220   31.9020   46.7470 C   0  0  0  0  0  0  0  0  0  0  0  0
   57.6290   32.3010   45.4210 C   0  0  0  0  0  0  0  0  0  0  0  0
   56.6370   31.6260   44.6370 N   0  0  0  0  0  0  0  0  0  0  0  0
   56.6260   29.9210   44.3110 S   0  0  0  0  0  0  0  0  0  0  0  0
   56.6660   29.7050   42.8230 O   0  0  0  0  0  0  0  0  0  0  0  0
   55.3650   29.3170   44.8630 O   0  0  0  0  0  0  0  0  0  0  0  0
   58.0100   29.1600   45.0920 C   0  0  0  0  0  0  0  0  0  0  0  0
   59.3030   29.3260   44.5750 C   0  0  0  0  0  0  0  0  0  0  0  0
   60.4020   28.7730   45.2430 C   0  0  0  0  0  0  0  0  0  0  0  0
   60.2150   28.0520   46.4270 C   0  0  0  0  0  0  0  0  0  0  0  0
   58.9260   27.8750   46.9380 C   0  0  0  0  0  0  0  0  0  0  0  0
   57.8250   28.4260   46.2720 C   0  0  0  0  0  0  0  0  0  0  0  0
   58.4280   33.3270   44.8930 C   0  0  0  0  0  0  0  0  0  0  0  0
   59.4440   33.8980   45.6630 C   0  0  0  0  0  0  0  0  0  0  0  0
   62.2040   33.6240   47.5080 N   0  0  0  0  0  0  0  0  0  0  0  0
   63.0390   33.8440   48.7100 C   0  0  0  0  0  0  0  0  0  0  0  0
   62.6140   32.9360   49.8840 C   0  0  0  0  0  0  0  0  0  0  0  0
   62.0150   31.6680   49.4160 N   0  0  0  0  0  0  0  0  0  0  0  0
   61.9040   30.6350   50.4720 C   0  0  0  0  0  0  0  0  0  0  0  0
   60.5580   29.8690   50.5180 C   0  0  0  0  0  0  0  0  0  0  0  0
   59.4970   30.6570   51.1800 N   0  0  0  0  0  0  0  0  0  0  0  0
   58.1600   30.1060   50.8820 C   0  0  0  0  0  0  0  0  0  0  0  0
   57.0420   30.8840   51.6150 C   0  0  0  0  0  0  0  0  0  0  0  0
   57.5820   32.0820   52.4030 C   0  0  0  0  0  0  0  0  0  0  0  0
   58.5110   32.9320   51.5320 C   0  0  0  0  0  0  0  0  0  0  0  0
   59.5600   32.0820   50.7820 C   0  0  0  0  0  0  0  0  0  0  0  0
   62.5860   31.1960   48.1460 C   0  0  0  0  0  0  0  0  0  0  0  0
   62.3140   32.2180   47.0220 C   0  0  0  0  0  0  0  0  0  0  0  0
   58.9703   32.1497   48.5648 H   0  0  0  0  0  0  0  0  0  0  0  0
   57.1718   31.1296   47.1836 H   0  0  0  0  0  0  0  0  0  0  0  0
   59.4538   29.8914   43.6435 H   0  0  0  0  0  0  0  0  0  0  0  0
   61.4152   28.9058   44.8358 H   0  0  0  0  0  0  0  0  0  0  0  0
   61.0805   27.6252   46.9549 H   0  0  0  0  0  0  0  0  0  0  0  0
   58.7766   27.3018   47.8649 H   0  0  0  0  0  0  0  0  0  0  0  0
   56.8118   28.2827   46.6756 H   0  0  0  0  0  0  0  0  0  0  0  0
   58.2532   33.6834   43.8671 H   0  0  0  0  0  0  0  0  0  0  0  0
   60.0686   34.6949   45.2330 H   0  0  0  0  0  0  0  0  0  0  0  0
   62.5830   34.2180   46.7350 H   0  0  0  0  0  0  0  0  0  0  0  0
   64.0881   33.6302   48.4575 H   0  0  0  0  0  0  0  0  0  0  0  0
   62.9107   34.8898   49.0259 H   0  0  0  0  0  0  0  0  0  0  0  0
   63.5002   32.7062   50.4938 H   0  0  0  0  0  0  0  0  0  0  0  0
   61.8549   33.4735   50.4712 H   0  0  0  0  0  0  0  0  0  0  0  0
   62.7068   29.9000   50.3126 H   0  0  0  0  0  0  0  0  0  0  0  0
   61.9780   31.1726   51.4288 H   0  0  0  0  0  0  0  0  0  0  0  0
   60.2427   29.6422   49.4889 H   0  0  0  0  0  0  0  0  0  0  0  0
   60.7103   28.9473   51.0987 H   0  0  0  0  0  0  0  0  0  0  0  0
   57.9837   30.1660   49.7979 H   0  0  0  0  0  0  0  0  0  0  0  0
   58.1349   29.0626   51.2294 H   0  0  0  0  0  0  0  0  0  0  0  0
   56.3190   31.2483   50.8704 H   0  0  0  0  0  0  0  0  0  0  0  0
   56.5709   30.1962   52.3327 H   0  0  0  0  0  0  0  0  0  0  0  0
   56.7380   32.7013   52.7410 H   0  0  0  0  0  0  0  0  0  0  0  0
   58.1525   31.7080   53.2660 H   0  0  0  0  0  0  0  0  0  0  0  0
   57.9031   33.4748   50.7932 H   0  0  0  0  0  0  0  0  0  0  0  0
   59.0525   33.6223   52.1955 H   0  0  0  0  0  0  0  0  0  0  0  0
   59.3736   32.1586   49.7006 H   0  0  0  0  0  0  0  0  0  0  0  0
   60.5586   32.4656   51.0383 H   0  0  0  0  0  0  0  0  0  0  0  0
   63.6720   31.0660   48.2628 H   0  0  0  0  0  0  0  0  0  0  0  0
   62.1176   30.2374   47.8782 H   0  0  0  0  0  0  0  0  0  0  0  0
   63.1387   32.1644   46.2960 H   0  0  0  0  0  0  0  0  0  0  0  0
   61.3447   31.9546   46.5737 H   0  0  0  0  0  0  0  0  0  0  0  0
  1  2  2  0
  2  3  1  0
  3  4  2  0
  4  5  1  0
  5  6  2  0
  6  7  1  0
  7  8  1  0
  8  9  2  0
  8 10  2  0
  8 11  1  0
 11 12  2  0
 12 13  1  0
 13 14  2  0
 14 15  1  0
 15 16  2  0
  6 17  1  0
 17 18  2  0
  2 19  1  0
 19 20  1  0
 20 21  1  0
 21 22  1  0
 22 23  1  0
 23 24  1  0
 24 25  1  0
 25 26  1  0
 26 27  1  0
 27 28  1  0
 28 29  1  0
 29 30  1  0
 22 31  1  0
 31 32  1  0
 18  3  1  0
 32 19  1  0
 16 11  1  0
 30 25  1  0
  4 33  1  0
  5 34  1  0
 12 35  1  0
 13 36  1  0
 14 37  1  0
 15 38  1  0
 16 39  1  0
 17 40  1  0
 18 41  1  0
 19 42  1  0
 20 43  1  0
 20 44  1  0
 21 45  1  0
 21 46  1  0
 23 47  1  0
 23 48  1  0
 24 49  1  0
 24 50  1  0
 26 51  1  0
 26 52  1  0
 27 53  1  0
 27 54  1  0
 28 55  1  0
 28 56  1  0
 29 57  1  0
 29 58  1  0
 30 59  1  0
 30 60  1  0
 31 61  1  0
 31 62  1  0
 32 63  1  0
 32 64  1  0
M  CHG  2   7  -1  19   1
M  END
>  <UniqueID>  (75) 
72

>  <SMILES>  (75) 
O=C(c1ccc([N-]S(=O)(=O)c2ccccc2)cc1)[NH+]1CCN(CCN2CCCCC2)CC1

>  <Energy>  (75) 
94.60100753901703

>  <Genealogy>  (75) 
O=C(c1ccc([N-]S(=O)(=O)c2ccccc2)cc1)[NH+]1CCN(CCN2CCCCC2)CC1 (protonated)
O=C(c1ccc([N-]S(=O)(=O)c2ccccc2)cc1)[NH+]1CCN(CCN2CCCCC2)CC1 (3D coordinates assigned)
O=C(c1ccc([N-]S(=O)(=O)c2ccccc2)cc1)[NH+]1CCN(CCN2CCCCC2)CC1 (nonaromatic ring conformer: 94.60100753901703 kcal/mol)

>  <smiles>  (75) 
O=C(c1ccc(NS(=O)(=O)c2ccccc2)cc1)N1CCN(CCN2CCCCC2)CC1

>  <score_type>  (75) 
oracle

>  <origin>  (75) 
adg

>  <m_score__min__energy>  (75) 
-9.6699999999999999

>  <m_primary>  (75) 
energy

$$$$
75:0
     RDKit          3D

 59 62  0  0  0  0  0  0  0  0999 V2000
   58.8630   32.2920   48.4360 C   0  0  0  0  0  0  0  0  0  0  0  0
   58.4830   32.5860   47.0090 C   0  0  0  0  0  0  0  0  0  0  0  0
   57.7160   33.7260   46.7320 C   0  0  0  0  0  0  0  0  0  0  0  0
   57.3500   34.0340   45.4230 C   0  0  0  0  0  0  0  0  0  0  0  0
   57.7320   33.2000   44.3730 C   0  0  0  0  0  0  0  0  0  0  0  0
   58.4790   32.0520   44.6310 C   0  0  0  0  0  0  0  0  0  0  0  0
   58.8640   31.7310   45.9430 C   0  0  0  0  0  0  0  0  0  0  0  0
   59.6330   30.4860   46.1690 C   0  0  0  0  0  0  0  0  0  0  0  0
   60.8190   30.5630   46.5890 O   0  0  0  0  0  0  0  0  0  0  0  0
   59.0360   29.1920   45.9430 N   0  0  0  0  0  0  0  0  0  0  0  0
   59.5390   28.0190   46.6730 C   0  0  0  0  0  0  0  0  0  0  0  0
   58.3930   27.0770   47.0740 C   0  0  0  0  0  0  0  0  0  0  0  0
   57.2680   26.9800   46.0070 C   0  0  0  0  0  0  0  0  0  0  0  0
   56.7150   25.5690   45.8700 C   0  0  0  0  0  0  0  0  0  0  0  0
   57.6130   24.4880   45.8100 C   0  0  0  0  0  0  0  0  0  0  0  0
   57.1480   23.1660   45.7480 C   0  0  0  0  0  0  0  0  0  0  0  0
   58.1010   22.0400   45.6980 C   0  0  0  0  0  0  0  0  0  0  0  0
   58.8940   21.9500   44.7260 O   0  0  0  0  0  0  0  0  0  0  0  0
   58.1560   21.0460   46.7290 N   0  0  0  0  0  0  0  0  0  0  0  0
   57.5120   19.7390   46.6530 C   0  0  0  0  0  0  0  0  0  0  0  0
   56.0260   19.9100   46.7630 C   0  0  0  0  0  0  0  0  0  0  0  0
   55.4710   20.6400   47.8260 C   0  0  0  0  0  0  0  0  0  0  0  0
   54.0880   20.8250   47.9070 C   0  0  0  0  0  0  0  0  0  0  0  0
   53.2470   20.2960   46.9210 C   0  0  0  0  0  0  0  0  0  0  0  0
   51.8710   20.4850   47.0090 O   0  0  0  0  0  0  0  0  0  0  0  0
   53.7910   19.5790   45.8470 C   0  0  0  0  0  0  0  0  0  0  0  0
   52.9490   19.0590   44.8660 O   0  0  0  0  0  0  0  0  0  0  0  0
   55.1800   19.3910   45.7670 C   0  0  0  0  0  0  0  0  0  0  0  0
   55.7690   22.9240   45.6890 C   0  0  0  0  0  0  0  0  0  0  0  0
   54.8670   23.9870   45.7370 C   0  0  0  0  0  0  0  0  0  0  0  0
   55.3280   25.3050   45.8340 C   0  0  0  0  0  0  0  0  0  0  0  0
   54.3980   26.3380   45.8940 O   0  0  0  0  0  0  0  0  0  0  0  0
   57.6910   27.5520   44.6430 C   0  0  0  0  0  0  0  0  0  0  0  0
   58.1210   29.0140   44.8030 C   0  0  0  0  0  0  0  0  0  0  0  0
   58.1782   32.8219   49.1144 H   0  0  0  0  0  0  0  0  0  0  0  0
   58.7946   31.2093   48.6180 H   0  0  0  0  0  0  0  0  0  0  0  0
   59.8938   32.6300   48.6180 H   0  0  0  0  0  0  0  0  0  0  0  0
   57.4001   34.3836   47.5553 H   0  0  0  0  0  0  0  0  0  0  0  0
   56.7579   34.9380   45.2176 H   0  0  0  0  0  0  0  0  0  0  0  0
   57.4438   33.4481   43.3408 H   0  0  0  0  0  0  0  0  0  0  0  0
   58.7694   31.3920   43.8003 H   0  0  0  0  0  0  0  0  0  0  0  0
   60.2440   27.4720   46.0298 H   0  0  0  0  0  0  0  0  0  0  0  0
   60.0381   28.3680   47.5890 H   0  0  0  0  0  0  0  0  0  0  0  0
   58.8088   26.0713   47.2338 H   0  0  0  0  0  0  0  0  0  0  0  0
   57.9386   27.4906   47.9864 H   0  0  0  0  0  0  0  0  0  0  0  0
   56.4502   27.6142   46.3799 H   0  0  0  0  0  0  0  0  0  0  0  0
   58.6957   24.6821   45.8117 H   0  0  0  0  0  0  0  0  0  0  0  0
   57.7568   19.2644   45.6913 H   0  0  0  0  0  0  0  0  0  0  0  0
   57.8711   19.1035   47.4759 H   0  0  0  0  0  0  0  0  0  0  0  0
   56.1272   21.0681   48.5982 H   0  0  0  0  0  0  0  0  0  0  0  0
   53.6589   21.3884   48.7487 H   0  0  0  0  0  0  0  0  0  0  0  0
   51.9400   19.0600   44.9750 H   0  0  0  0  0  0  0  0  0  0  0  0
   55.6088   18.8346   44.9205 H   0  0  0  0  0  0  0  0  0  0  0  0
   55.3966   21.8924   45.6046 H   0  0  0  0  0  0  0  0  0  0  0  0
   53.7858   23.7880   45.6983 H   0  0  0  0  0  0  0  0  0  0  0  0
   58.5327   26.9653   44.2463 H   0  0  0  0  0  0  0  0  0  0  0  0
   56.8405   27.4980   43.9474 H   0  0  0  0  0  0  0  0  0  0  0  0
   58.6302   29.3383   43.8835 H   0  0  0  0  0  0  0  0  0  0  0  0
   57.2204   29.6174   44.9893 H   0  0  0  0  0  0  0  0  0  0  0  0
  1  2  1  0
  2  3  2  0
  3  4  1  0
  4  5  2  0
  5  6  1  0
  6  7  2  0
  7  8  1  0
  8  9  2  0
  8 10  1  0
 10 11  1  0
 11 12  1  0
 12 13  1  0
 13 14  1  0
 14 15  2  0
 15 16  1  0
 16 17  1  0
 17 18  2  0
 17 19  1  0
 19 20  1  0
 20 21  1  0
 21 22  2  0
 22 23  1  0
 23 24  2  0
 24 25  1  0
 24 26  1  0
 26 27  1  0
 26 28  2  0
 16 29  2  0
 29 30  1  0
 30 31  2  0
 31 32  1  0
 13 33  1  0
 33 34  1  0
  7  2  1  0
 34 10  1  0
 31 14  1  0
 28 21  1  0
  1 35  1  0
  1 36  1  0
  1 37  1  0
  3 38  1  0
  4 39  1  0
  5 40  1  0
  6 41  1  0
 11 42  1  0
 11 43  1  0
 12 44  1  0
 12 45  1  0
 13 46  1  0
 15 47  1  0
 20 48  1  0
 20 49  1  0
 22 50  1  0
 23 51  1  0
 27 52  1  0
 28 53  1  0
 29 54  1  0
 30 55  1  0
 33 56  1  0
 33 57  1  0
 34 58  1  0
 34 59  1  0
M  CHG  3  19  -1  25  -1  32  -1
M  END
>  <UniqueID>  (76) 
73

>  <SMILES>  (76) 
Cc1ccccc1C(=O)N1CCC(c2cc(C(=O)[N-]Cc3ccc([O-])c(O)c3)ccc2[O-])CC1

>  <Energy>  (76) 
77.44872599505116

>  <Genealogy>  (76) 
Cc1ccccc1C(=O)N1CCC(c2cc(C(=O)[N-]Cc3ccc([O-])c(O)c3)ccc2[O-])CC1 (protonated)
Cc1ccccc1C(=O)N1CCC(c2cc(C(=O)[N-]Cc3ccc([O-])c(O)c3)ccc2[O-])CC1 (3D coordinates assigned)
Cc1ccccc1C(=O)N1CCC(c2cc(C(=O)[N-]Cc3ccc([O-])c(O)c3)ccc2[O-])CC1 (nonaromatic ring conformer: 77.44872599505116 kcal/mol)

>  <smiles>  (76) 
Cc1ccccc1C(=O)N1CCC(c2cc(C(=O)NCc3ccc(O)c(O)c3)ccc2O)CC1

>  <score_type>  (76) 
oracle

>  <origin>  (76) 
adg

>  <m_score__min__energy>  (76) 
-15.390000000000001

>  <m_primary>  (76) 
energy

$$$$
76:0
     RDKit          3D

 51 54  0  0  0  0  0  0  0  0999 V2000
   57.3338   23.8493   45.3687 H   0  0  0  0  0  0  0  0  0  0  0  0
   57.0080   24.8920   45.4980 C   0  0  0  0  0  0  0  0  0  0  0  0
   57.9800   26.2580   45.3590 S   0  0  0  0  0  0  0  0  0  0  0  0
   56.7150   27.3180   45.6980 C   0  0  0  0  0  0  0  0  0  0  0  0
   56.7890   28.6150   45.7220 N   0  0  0  0  0  0  0  0  0  0  0  0
   56.1670   29.5060   44.7860 C   0  0  0  0  0  0  0  0  0  0  0  0
   54.9580   29.3150   44.4840 O   0  0  0  0  0  0  0  0  0  0  0  0
   56.8820   30.6740   44.2230 C   0  0  0  0  0  0  0  0  0  0  0  0
   57.0880   30.7930   42.8370 C   0  0  0  0  0  0  0  0  0  0  0  0
   56.7207   30.0075   42.1602 H   0  0  0  0  0  0  0  0  0  0  0  0
   57.7570   31.9040   42.3140 C   0  0  0  0  0  0  0  0  0  0  0  0
   57.9084   31.9924   41.2281 H   0  0  0  0  0  0  0  0  0  0  0  0
   58.2330   32.9010   43.1670 C   0  0  0  0  0  0  0  0  0  0  0  0
   58.7558   33.7757   42.7526 H   0  0  0  0  0  0  0  0  0  0  0  0
   58.0450   32.7880   44.5520 C   0  0  0  0  0  0  0  0  0  0  0  0
   58.6250   34.0440   45.6440 S   0  0  0  0  0  0  0  0  0  0  0  0
   58.8780   35.3240   44.8900 O   0  0  0  0  0  0  0  0  0  0  0  0
   57.5700   34.2950   46.6880 O   0  0  0  0  0  0  0  0  0  0  0  0
   60.1090   33.5060   46.3990 N   0  0  0  0  0  0  0  0  0  0  0  0
   60.5490   34.4750   47.4390 C   0  0  0  0  0  0  0  0  0  0  0  0
   61.3927   35.0547   47.0363 H   0  0  0  0  0  0  0  0  0  0  0  0
   59.6776   35.1028   47.6769 H   0  0  0  0  0  0  0  0  0  0  0  0
   60.9980   33.8200   48.7580 C   0  0  0  0  0  0  0  0  0  0  0  0
   61.6285   34.5263   49.3181 H   0  0  0  0  0  0  0  0  0  0  0  0
   60.1083   33.5593   49.3500 H   0  0  0  0  0  0  0  0  0  0  0  0
   61.7620   32.6030   48.4840 N   0  0  0  0  0  0  0  0  0  0  0  0
   62.9530   32.3160   49.2270 C   0  0  0  0  0  0  0  0  0  0  0  0
   64.1230   33.0590   49.0020 C   0  0  0  0  0  0  0  0  0  0  0  0
   64.1192   33.8769   48.2665 H   0  0  0  0  0  0  0  0  0  0  0  0
   65.2970   32.7630   49.7110 C   0  0  0  0  0  0  0  0  0  0  0  0
   66.2092   33.3518   49.5343 H   0  0  0  0  0  0  0  0  0  0  0  0
   65.3080   31.7200   50.6420 C   0  0  0  0  0  0  0  0  0  0  0  0
   66.2316   31.4820   51.1900 H   0  0  0  0  0  0  0  0  0  0  0  0
   64.1450   30.9790   50.8770 C   0  0  0  0  0  0  0  0  0  0  0  0
   64.1540   30.1622   51.6138 H   0  0  0  0  0  0  0  0  0  0  0  0
   62.9690   31.2750   50.1760 C   0  0  0  0  0  0  0  0  0  0  0  0
   61.8460   30.5640   50.4360 F   0  0  0  0  0  0  0  0  0  0  0  0
   61.2530   31.6330   47.5070 C   0  0  0  0  0  0  0  0  0  0  0  0
   61.9999   31.4962   46.7111 H   0  0  0  0  0  0  0  0  0  0  0  0
   61.0642   30.6790   48.0209 H   0  0  0  0  0  0  0  0  0  0  0  0
   59.9440   32.1260   46.8880 C   0  0  0  0  0  0  0  0  0  0  0  0
   59.6688   31.4717   46.0477 H   0  0  0  0  0  0  0  0  0  0  0  0
   59.1519   32.1044   47.6510 H   0  0  0  0  0  0  0  0  0  0  0  0
   57.3790   31.6720   45.0770 C   0  0  0  0  0  0  0  0  0  0  0  0
   57.2448   31.5773   46.1647 H   0  0  0  0  0  0  0  0  0  0  0  0
   55.5540   26.6610   45.9010 N   0  0  0  0  0  0  0  0  0  0  0  0
   55.7170   25.3160   45.8060 C   0  0  0  0  0  0  0  0  0  0  0  0
   54.5780   24.3650   45.9780 C   0  0  0  0  0  0  0  0  0  0  0  0
   54.3901   24.2081   47.0504 H   0  0  0  0  0  0  0  0  0  0  0  0
   53.6769   24.7827   45.5051 H   0  0  0  0  0  0  0  0  0  0  0  0
   54.8282   23.4039   45.5051 H   0  0  0  0  0  0  0  0  0  0  0  0
  1  2  1  0
  2  3  1  0
  3  4  1  0
  4  5  2  0
  5  6  1  0
  6  7  2  0
  6  8  1  0
  8  9  2  0
  9 10  1  0
  9 11  1  0
 11 12  1  0
 11 13  2  0
 13 14  1  0
 13 15  1  0
 15 16  1  0
 16 17  2  0
 16 18  2  0
 16 19  1  0
 19 20  1  0
 20 21  1  0
 20 22  1  0
 20 23  1  0
 23 24  1  0
 23 25  1  0
 23 26  1  0
 26 27  1  0
 27 28  2  0
 28 29  1  0
 28 30  1  0
 30 31  1  0
 30 32  2  0
 32 33  1  0
 32 34  1  0
 34 35  1  0
 34 36  2  0
 36 37  1  0
 26 38  1  0
 38 39  1  0
 38 40  1  0
 38 41  1  0
 41 42  1  0
 41 43  1  0
 15 44  2  0
 44 45  1  0
  4 46  1  0
 46 47  1  0
 47 48  1  0
 48 49  1  0
 48 50  1  0
 48 51  1  0
 47  2  2  0
 44  8  1  0
 41 19  1  0
 36 27  1  0
M  CHG  1  46  -1
M  END
>  <UniqueID>  (77) 
74

>  <SMILES>  (77) 
Cc1cs/c(=N\C(=O)c2cccc(S(=O)(=O)N3CCN(c4ccccc4F)CC3)c2)[n-]1

>  <Energy>  (77) 
101.44916099923238

>  <Genealogy>  (77) 
Cc1csc(=NC(=O)c2cccc(S(=O)(=O)N3CCN(c4ccccc4F)CC3)c2)[n-]1 (protonated)
Cc1cs/c(=N\C(=O)c2cccc(S(=O)(=O)N3CCN(c4ccccc4F)CC3)c2)[n-]1 (cis-trans isomerization)
Cc1cs/c(=N\C(=O)c2cccc(S(=O)(=O)N3CCN(c4ccccc4F)CC3)c2)[n-]1 (3D coordinates assigned)
Cc1cs/c(=N\C(=O)c2cccc(S(=O)(=O)N3CCN(c4ccccc4F)CC3)c2)[n-]1 (nonaromatic ring conformer: 101.44916099923238 kcal/mol)

>  <smiles>  (77) 
Cc1csc(=NC(=O)c2cccc(S(=O)(=O)N3CCN(c4ccccc4F)CC3)c2)[nH]1

>  <score_type>  (77) 
oracle

>  <origin>  (77) 
adg

>  <m_score__min__energy>  (77) 
-11.93

>  <m_primary>  (77) 
energy

$$$$
77:0
     RDKit          3D

 47 49  0  0  0  0  0  0  0  0999 V2000
   57.7480   26.3730   43.2800 C   0  0  0  0  0  0  0  0  0  0  0  0
   57.9850   26.0600   44.5650 C   0  0  0  0  0  0  0  0  0  0  0  0
   57.3700   25.0430   45.3140 C   0  0  0  0  0  0  0  0  0  0  0  0
   56.5480   24.0410   44.9440 C   0  0  0  0  0  0  0  0  0  0  0  0
   55.0930   24.0010   45.1460 C   0  0  0  0  0  0  0  0  0  0  0  0
   54.3230   22.9630   44.7760 N   0  0  0  0  0  0  0  0  0  0  0  0
   53.0720   23.3890   45.0520 C   0  0  0  0  0  0  0  0  0  0  0  0
   52.0540   22.6750   44.8520 O   0  0  0  0  0  0  0  0  0  0  0  0
   52.9950   24.6420   45.5480 N   0  0  0  0  0  0  0  0  0  0  0  0
   54.2810   25.0250   45.5890 C   0  0  0  0  0  0  0  0  0  0  0  0
   54.6880   26.2920   45.9990 O   0  0  0  0  0  0  0  0  0  0  0  0
   57.7820   25.2240   46.6240 C   0  0  0  0  0  0  0  0  0  0  0  0
   58.6570   26.2890   46.6260 C   0  0  0  0  0  0  0  0  0  0  0  0
   59.3660   26.8010   47.8430 C   0  0  0  0  0  0  0  0  0  0  0  0
   58.8020   26.7860   45.3760 N   0  0  0  0  0  0  0  0  0  0  0  0
   59.6110   27.9600   45.0130 C   0  0  0  0  0  0  0  0  0  0  0  0
   58.7220   29.0590   44.4200 C   0  0  0  0  0  0  0  0  0  0  0  0
   58.2350   29.9690   45.4590 N   0  0  0  0  0  0  0  0  0  0  0  0
   57.2960   31.2800   44.8000 S   0  0  0  0  0  0  0  0  0  0  0  0
   57.8570   31.7540   43.4870 O   0  0  0  0  0  0  0  0  0  0  0  0
   55.8870   30.8040   44.5840 O   0  0  0  0  0  0  0  0  0  0  0  0
   57.2780   32.6280   45.9710 C   0  0  0  0  0  0  0  0  0  0  0  0
   58.6800   32.9950   46.3700 C   0  0  0  0  0  0  0  0  0  0  0  0
   59.5290   32.0300   46.9390 C   0  0  0  0  0  0  0  0  0  0  0  0
   60.8430   32.3630   47.2800 C   0  0  0  0  0  0  0  0  0  0  0  0
   61.3220   33.6560   47.0480 C   0  0  0  0  0  0  0  0  0  0  0  0
   60.4870   34.6180   46.4720 C   0  0  0  0  0  0  0  0  0  0  0  0
   59.1710   34.2880   46.1300 C   0  0  0  0  0  0  0  0  0  0  0  0
   58.2994   27.1972   42.8040 H   0  0  0  0  0  0  0  0  0  0  0  0
   57.0026   25.8050   42.7040 H   0  0  0  0  0  0  0  0  0  0  0  0
   57.0079   23.1748   44.4458 H   0  0  0  0  0  0  0  0  0  0  0  0
   54.3160   26.7230   46.8370 H   0  0  0  0  0  0  0  0  0  0  0  0
   57.4703   24.6309   47.4964 H   0  0  0  0  0  0  0  0  0  0  0  0
   58.8567   26.4332   48.7460 H   0  0  0  0  0  0  0  0  0  0  0  0
   60.4067   26.4447   47.8382 H   0  0  0  0  0  0  0  0  0  0  0  0
   59.3550   27.9009   47.8382 H   0  0  0  0  0  0  0  0  0  0  0  0
   60.1134   28.3460   45.9122 H   0  0  0  0  0  0  0  0  0  0  0  0
   60.3571   27.6608   44.2622 H   0  0  0  0  0  0  0  0  0  0  0  0
   59.3049   29.6336   43.6851 H   0  0  0  0  0  0  0  0  0  0  0  0
   57.8537   28.5823   43.9417 H   0  0  0  0  0  0  0  0  0  0  0  0
   56.7919   33.5010   45.5111 H   0  0  0  0  0  0  0  0  0  0  0  0
   56.7227   32.3143   46.8673 H   0  0  0  0  0  0  0  0  0  0  0  0
   59.1582   31.0097   47.1165 H   0  0  0  0  0  0  0  0  0  0  0  0
   61.5015   31.6064   47.7317 H   0  0  0  0  0  0  0  0  0  0  0  0
   62.3559   33.9163   47.3187 H   0  0  0  0  0  0  0  0  0  0  0  0
   60.8647   35.6345   46.2876 H   0  0  0  0  0  0  0  0  0  0  0  0
   58.5183   35.0451   45.6710 H   0  0  0  0  0  0  0  0  0  0  0  0
  1  2  2  0
  2  3  1  0
  3  4  2  3
  4  5  1  0
  5  6  1  0
  6  7  1  0
  7  8  2  0
  7  9  1  0
  9 10  1  0
 10 11  1  0
  3 12  1  0
 12 13  2  0
 13 14  1  0
 13 15  1  0
 15 16  1  0
 16 17  1  0
 17 18  1  0
 18 19  1  0
 19 20  2  0
 19 21  2  0
 19 22  1  0
 22 23  1  0
 23 24  2  0
 24 25  1  0
 25 26  2  0
 26 27  1  0
 27 28  2  0
 15  2  1  0
 28 23  1  0
 10  5  2  0
  1 29  1  0
  1 30  1  0
  4 31  1  0
 11 32  1  0
 12 33  1  0
 14 34  1  0
 14 35  1  0
 14 36  1  0
 16 37  1  0
 16 38  1  0
 17 39  1  0
 17 40  1  0
 22 41  1  0
 22 42  1  0
 24 43  1  0
 25 44  1  0
 26 45  1  0
 27 46  1  0
 28 47  1  0
M  CHG  3   6  -1   9  -1  18  -1
M  END
>  <UniqueID>  (78) 
75

>  <SMILES>  (78) 
C=c1c(=Cc2[n-]c(=O)[n-]c2O)cc(C)n1CC[N-]S(=O)(=O)Cc1ccccc1

>  <Energy>  (78) 
110.23865431360109

>  <Genealogy>  (78) 
C=c1c(=Cc2[n-]c(=O)[n-]c2O)cc(C)n1CC[N-]S(=O)(=O)Cc1ccccc1 (protonated)
C=c1c(=Cc2[n-]c(=O)[n-]c2O)cc(C)n1CC[N-]S(=O)(=O)Cc1ccccc1 (3D coordinates assigned)
C=c1c(=Cc2[n-]c(=O)[n-]c2O)cc(C)n1CC[N-]S(=O)(=O)Cc1ccccc1 (optimized conformer: 110.23865431360109 kcal/mol)

>  <smiles>  (78) 
C=c1c(=Cc2[nH]c(=O)[nH]c2O)cc(C)n1CCNS(=O)(=O)Cc1ccccc1

>  <score_type>  (78) 
oracle

>  <origin>  (78) 
adg

>  <m_score__min__energy>  (78) 
-14.27

>  <m_primary>  (78) 
energy

$$$$
78:0
     RDKit          3D

 48 50  0  0  0  0  0  0  0  0999 V2000
   58.1570   26.6770   47.3580 C   0  0  0  0  0  0  0  0  0  0  0  0
   57.0880   25.7210   46.9070 C   0  0  0  0  0  0  0  0  0  0  0  0
   57.1180   24.3830   47.3380 C   0  0  0  0  0  0  0  0  0  0  0  0
   56.1290   23.4860   46.9260 C   0  0  0  0  0  0  0  0  0  0  0  0
   56.1730   21.8200   47.4730 Cl  0  0  0  0  0  0  0  0  0  0  0  0
   55.1000   23.9180   46.0880 C   0  0  0  0  0  0  0  0  0  0  0  0
   55.0600   25.2450   45.6510 C   0  0  0  0  0  0  0  0  0  0  0  0
   56.0640   26.1530   46.0380 C   0  0  0  0  0  0  0  0  0  0  0  0
   56.0300   27.5260   45.6160 N   0  0  0  0  0  0  0  0  0  0  0  0
   57.0310   28.2100   44.8510 C   0  0  0  0  0  0  0  0  0  0  0  0
   57.8190   27.5620   44.1120 O   0  0  0  0  0  0  0  0  0  0  0  0
   57.1400   29.6780   44.9580 C   0  0  0  0  0  0  0  0  0  0  0  0
   56.0830   30.3610   44.8740 O   0  0  0  0  0  0  0  0  0  0  0  0
   58.4050   30.3470   45.1550 N   0  0  0  0  0  0  0  0  0  0  0  0
   59.4490   29.7330   45.9970 C   0  0  0  0  0  0  0  0  0  0  0  0
   60.5060   30.7550   46.4400 C   0  0  0  0  0  0  0  0  0  0  0  0
   59.8630   32.0230   46.8090 N   0  0  0  0  0  0  0  0  0  0  0  0
   60.2270   32.6850   48.0310 C   0  0  0  0  0  0  0  0  0  0  0  0
   59.2750   32.7860   49.0570 C   0  0  0  0  0  0  0  0  0  0  0  0
   59.6110   33.3640   50.2810 C   0  0  0  0  0  0  0  0  0  0  0  0
   60.9010   33.8460   50.4940 C   0  0  0  0  0  0  0  0  0  0  0  0
   61.8590   33.7590   49.4810 C   0  0  0  0  0  0  0  0  0  0  0  0
   61.5380   33.1820   48.2390 C   0  0  0  0  0  0  0  0  0  0  0  0
   62.5580   33.1550   47.1660 C   0  0  0  0  0  0  0  0  0  0  0  0
   63.7670   32.4080   47.3210 N   0  0  0  0  0  0  0  0  0  0  0  0
   62.3740   33.8080   46.1030 O   0  0  0  0  0  0  0  0  0  0  0  0
   58.8400   32.6240   45.9430 C   0  0  0  0  0  0  0  0  0  0  0  0
   58.5710   31.7420   44.7220 C   0  0  0  0  0  0  0  0  0  0  0  0
   58.1858   26.7028   48.4573 H   0  0  0  0  0  0  0  0  0  0  0  0
   59.1324   26.3444   46.9733 H   0  0  0  0  0  0  0  0  0  0  0  0
   57.9350   27.6833   46.9733 H   0  0  0  0  0  0  0  0  0  0  0  0
   57.9244   24.0405   48.0031 H   0  0  0  0  0  0  0  0  0  0  0  0
   54.3183   23.2122   45.7706 H   0  0  0  0  0  0  0  0  0  0  0  0
   54.2392   25.5820   45.0008 H   0  0  0  0  0  0  0  0  0  0  0  0
   58.9757   29.3014   46.8913 H   0  0  0  0  0  0  0  0  0  0  0  0
   59.9541   28.9586   45.4010 H   0  0  0  0  0  0  0  0  0  0  0  0
   61.0528   30.3588   47.3083 H   0  0  0  0  0  0  0  0  0  0  0  0
   61.2022   30.9348   45.6075 H   0  0  0  0  0  0  0  0  0  0  0  0
   58.2555   32.4062   48.8946 H   0  0  0  0  0  0  0  0  0  0  0  0
   58.8573   33.4394   51.0787 H   0  0  0  0  0  0  0  0  0  0  0  0
   61.1656   34.2961   51.4622 H   0  0  0  0  0  0  0  0  0  0  0  0
   62.8739   34.1453   49.6563 H   0  0  0  0  0  0  0  0  0  0  0  0
   64.4960   32.4300   46.5740 H   0  0  0  0  0  0  0  0  0  0  0  0
   63.9160   31.7850   48.1450 H   0  0  0  0  0  0  0  0  0  0  0  0
   57.9077   32.7413   46.5149 H   0  0  0  0  0  0  0  0  0  0  0  0
   59.2039   33.6024   45.5963 H   0  0  0  0  0  0  0  0  0  0  0  0
   57.6538   32.0817   44.2186 H   0  0  0  0  0  0  0  0  0  0  0  0
   59.4184   31.8120   44.0241 H   0  0  0  0  0  0  0  0  0  0  0  0
  1  2  1  0
  2  3  2  0
  3  4  1  0
  4  5  1  0
  4  6  2  0
  6  7  1  0
  7  8  2  0
  8  9  1  0
  9 10  1  0
 10 11  2  0
 10 12  1  0
 12 13  2  0
 12 14  1  0
 14 15  1  0
 15 16  1  0
 16 17  1  0
 17 18  1  0
 18 19  2  0
 19 20  1  0
 20 21  2  0
 21 22  1  0
 22 23  2  0
 23 24  1  0
 24 25  1  0
 24 26  2  0
 17 27  1  0
 27 28  1  0
  8  2  1  0
 28 14  1  0
 23 18  1  0
  1 29  1  0
  1 30  1  0
  1 31  1  0
  3 32  1  0
  6 33  1  0
  7 34  1  0
 15 35  1  0
 15 36  1  0
 16 37  1  0
 16 38  1  0
 19 39  1  0
 20 40  1  0
 21 41  1  0
 22 42  1  0
 25 43  1  0
 25 44  1  0
 27 45  1  0
 27 46  1  0
 28 47  1  0
 28 48  1  0
M  CHG  1   9  -1
M  END
>  <UniqueID>  (79) 
76

>  <SMILES>  (79) 
Cc1cc(Cl)ccc1[N-]C(=O)C(=O)N1CCN(c2ccccc2C(N)=O)CC1

>  <Energy>  (79) 
64.08818926604566

>  <Genealogy>  (79) 
Cc1cc(Cl)ccc1[N-]C(=O)C(=O)N1CCN(c2ccccc2C(N)=O)CC1 (protonated)
Cc1cc(Cl)ccc1[N-]C(=O)C(=O)N1CCN(c2ccccc2C(N)=O)CC1 (3D coordinates assigned)
Cc1cc(Cl)ccc1[N-]C(=O)C(=O)N1CCN(c2ccccc2C(N)=O)CC1 (nonaromatic ring conformer: 64.08818926604566 kcal/mol)

>  <smiles>  (79) 
Cc1cc(Cl)ccc1NC(=O)C(=O)N1CCN(c2ccccc2C(N)=O)CC1

>  <score_type>  (79) 
oracle

>  <origin>  (79) 
adg

>  <m_score__min__energy>  (79) 
-9.6999999999999993

>  <m_primary>  (79) 
energy

$$$$
79:0
     RDKit          3D

 63 66  0  0  0  0  0  0  0  0999 V2000
   56.9060   30.6930   43.0880 C   0  0  0  0  0  0  0  0  0  0  0  0
   57.4050   30.5460   44.5320 C   0  0  0  0  0  0  0  0  0  0  0  0
   57.8500   31.8170   45.1520 N   0  0  0  0  0  0  0  0  0  0  0  0
   58.0650   31.7040   46.6120 C   0  0  0  0  0  0  0  0  0  0  0  0
   58.1910   33.0760   47.3080 C   0  0  0  0  0  0  0  0  0  0  0  0
   58.5610   34.1320   46.3510 N   0  0  0  0  0  0  0  0  0  0  0  0
   59.5980   35.0930   46.6460 C   0  0  0  0  0  0  0  0  0  0  0  0
   59.7490   36.0930   45.8880 O   0  0  0  0  0  0  0  0  0  0  0  0
   60.4530   34.9210   47.7920 N   0  0  0  0  0  0  0  0  0  0  0  0
   61.2530   33.9140   48.0080 C   0  0  0  0  0  0  0  0  0  0  0  0
   61.1010   32.7330   47.2620 C   0  0  0  0  0  0  0  0  0  0  0  0
   61.9880   31.6630   47.4700 C   0  0  0  0  0  0  0  0  0  0  0  0
   61.8760   30.4490   46.7790 O   0  0  0  0  0  0  0  0  0  0  0  0
   60.8160   29.5270   46.8660 C   0  0  0  0  0  0  0  0  0  0  0  0
   60.0170   29.3670   48.0160 C   0  0  0  0  0  0  0  0  0  0  0  0
   58.9520   28.4550   48.0140 C   0  0  0  0  0  0  0  0  0  0  0  0
   58.6270   27.7330   46.8450 C   0  0  0  0  0  0  0  0  0  0  0  0
   57.5080   26.8240   46.7860 N   0  0  0  0  0  0  0  0  0  0  0  0
   56.3280   27.0150   45.9830 C   0  0  0  0  0  0  0  0  0  0  0  0
   56.1590   28.0820   45.3310 O   0  0  0  0  0  0  0  0  0  0  0  0
   55.3350   25.9810   45.9510 N   0  0  0  0  0  0  0  0  0  0  0  0
   55.5560   24.5570   45.9230 C   0  0  0  0  0  0  0  0  0  0  0  0
   55.2070   23.7160   47.0000 C   0  0  0  0  0  0  0  0  0  0  0  0
   55.4320   22.3370   46.9240 C   0  0  0  0  0  0  0  0  0  0  0  0
   55.9710   21.7780   45.7650 C   0  0  0  0  0  0  0  0  0  0  0  0
   56.2910   22.5950   44.6620 C   0  0  0  0  0  0  0  0  0  0  0  0
   56.8370   22.0140   43.3820 C   0  0  0  0  0  0  0  0  0  0  0  0
   58.2070   21.8770   43.4830 F   0  0  0  0  0  0  0  0  0  0  0  0
   56.2910   20.7680   43.1100 F   0  0  0  0  0  0  0  0  0  0  0  0
   56.5480   22.8660   42.3330 F   0  0  0  0  0  0  0  0  0  0  0  0
   56.0780   23.9820   44.7520 C   0  0  0  0  0  0  0  0  0  0  0  0
   59.4320   27.8920   45.7070 C   0  0  0  0  0  0  0  0  0  0  0  0
   60.5190   28.7700   45.7220 C   0  0  0  0  0  0  0  0  0  0  0  0
   62.9820   31.7770   48.4440 C   0  0  0  0  0  0  0  0  0  0  0  0
   63.1050   32.9650   49.1720 C   0  0  0  0  0  0  0  0  0  0  0  0
   62.2490   33.9940   48.9370 N   0  0  0  0  0  0  0  0  0  0  0  0
   57.8010   34.2600   45.0980 C   0  0  0  0  0  0  0  0  0  0  0  0
   57.0200   32.9780   44.7880 C   0  0  0  0  0  0  0  0  0  0  0  0
   55.8509   31.0038   43.0945 H   0  0  0  0  0  0  0  0  0  0  0  0
   57.5086   31.4518   42.5673 H   0  0  0  0  0  0  0  0  0  0  0  0
   57.0010   29.7287   42.5673 H   0  0  0  0  0  0  0  0  0  0  0  0
   56.5863   30.1334   45.1399 H   0  0  0  0  0  0  0  0  0  0  0  0
   58.2840   29.8855   44.4977 H   0  0  0  0  0  0  0  0  0  0  0  0
   57.2133   31.1642   47.0516 H   0  0  0  0  0  0  0  0  0  0  0  0
   59.0128   31.1673   46.7658 H   0  0  0  0  0  0  0  0  0  0  0  0
   57.2261   33.3332   47.7694 H   0  0  0  0  0  0  0  0  0  0  0  0
   58.9817   33.0065   48.0696 H   0  0  0  0  0  0  0  0  0  0  0  0
   60.2933   32.6466   46.5203 H   0  0  0  0  0  0  0  0  0  0  0  0
   60.2296   29.9595   48.9180 H   0  0  0  0  0  0  0  0  0  0  0  0
   58.3646   28.3007   48.9311 H   0  0  0  0  0  0  0  0  0  0  0  0
   57.6210   25.8860   47.2410 H   0  0  0  0  0  0  0  0  0  0  0  0
   54.7550   24.1469   47.9056 H   0  0  0  0  0  0  0  0  0  0  0  0
   55.1834   21.6923   47.7799 H   0  0  0  0  0  0  0  0  0  0  0  0
   56.1472   20.6935   45.7117 H   0  0  0  0  0  0  0  0  0  0  0  0
   56.3233   24.6255   43.8942 H   0  0  0  0  0  0  0  0  0  0  0  0
   59.2055   27.3204   44.7949 H   0  0  0  0  0  0  0  0  0  0  0  0
   61.1497   28.8691   44.8262 H   0  0  0  0  0  0  0  0  0  0  0  0
   63.6649   30.9367   48.6378 H   0  0  0  0  0  0  0  0  0  0  0  0
   63.8928   33.0661   49.9330 H   0  0  0  0  0  0  0  0  0  0  0  0
   57.0934   35.0970   45.1918 H   0  0  0  0  0  0  0  0  0  0  0  0
   58.5111   34.4414   44.2777 H   0  0  0  0  0  0  0  0  0  0  0  0
   56.0874   32.9631   45.3711 H   0  0  0  0  0  0  0  0  0  0  0  0
   56.7737   32.9402   43.7166 H   0  0  0  0  0  0  0  0  0  0  0  0
  1  2  1  0
  2  3  1  0
  3  4  1  0
  4  5  1  0
  5  6  1  0
  6  7  1  0
  7  8  2  0
  7  9  1  0
  9 10  2  3
 10 11  1  0
 11 12  2  0
 12 13  1  0
 13 14  1  0
 14 15  2  0
 15 16  1  0
 16 17  2  0
 17 18  1  0
 18 19  1  0
 19 20  2  0
 19 21  1  0
 21 22  1  0
 22 23  2  0
 23 24  1  0
 24 25  2  0
 25 26  1  0
 26 27  1  0
 27 28  1  0
 27 29  1  0
 27 30  1  0
 26 31  2  0
 17 32  1  0
 32 33  2  0
 12 34  1  0
 34 35  2  0
 35 36  1  0
  6 37  1  0
 37 38  1  0
 38  3  1  0
 36 10  1  0
 33 14  1  0
 31 22  1  0
  1 39  1  0
  1 40  1  0
  1 41  1  0
  2 42  1  0
  2 43  1  0
  4 44  1  0
  4 45  1  0
  5 46  1  0
  5 47  1  0
 11 48  1  0
 15 49  1  0
 16 50  1  0
 18 51  1  0
 23 52  1  0
 24 53  1  0
 25 54  1  0
 31 55  1  0
 32 56  1  0
 33 57  1  0
 34 58  1  0
 35 59  1  0
 37 60  1  0
 37 61  1  0
 38 62  1  0
 38 63  1  0
M  CHG  2  21  -1  36  -1
M  END
>  <UniqueID>  (80) 
77

>  <SMILES>  (80) 
CCN1CCN(C(=O)N=c2cc(Oc3ccc(NC(=O)[N-]c4cccc(C(F)(F)F)c4)cc3)cc[n-]2)CC1

>  <Energy>  (80) 
94.38483120025597

>  <Genealogy>  (80) 
CCN1CCN(C(=O)N=c2cc(Oc3ccc(NC(=O)[N-]c4cccc(C(F)(F)F)c4)cc3)cc[n-]2)CC1 (protonated)
CCN1CCN(C(=O)N=c2cc(Oc3ccc(NC(=O)[N-]c4cccc(C(F)(F)F)c4)cc3)cc[n-]2)CC1 (3D coordinates assigned)
CCN1CCN(C(=O)N=c2cc(Oc3ccc(NC(=O)[N-]c4cccc(C(F)(F)F)c4)cc3)cc[n-]2)CC1 (nonaromatic ring conformer: 94.38483120025597 kcal/mol)

>  <smiles>  (80) 
CCN1CCN(C(=O)N=c2cc(Oc3ccc(NC(=O)Nc4cccc(C(F)(F)F)c4)cc3)cc[nH]2)CC1

>  <score_type>  (80) 
oracle

>  <origin>  (80) 
adg

>  <m_score__min__energy>  (80) 
-11.380000000000001

>  <m_primary>  (80) 
energy

$$$$
80:0
     RDKit          3D

 34 36  0  0  0  0  0  0  0  0999 V2000
   59.4460   31.7810   44.9430 H   0  0  0  0  0  0  0  0  0  0  0  0
   59.5320   30.8610   45.3560 O   0  0  0  0  0  0  0  0  0  0  0  0
   58.4780   29.9510   45.3390 C   0  0  0  0  0  0  0  0  0  0  0  0
   58.5690   28.6310   45.7360 C   0  0  0  0  0  0  0  0  0  0  0  0
   57.3160   28.0910   45.5980 C   0  0  0  0  0  0  0  0  0  0  0  0
   56.5030   29.0980   45.1210 C   0  0  0  0  0  0  0  0  0  0  0  0
   55.1430   28.9760   44.8600 O   0  0  0  0  0  0  0  0  0  0  0  0
   57.2120   30.2360   44.9480 N   0  0  0  0  0  0  0  0  0  0  0  0
   56.6900   31.5290   44.5000 C   0  0  0  0  0  0  0  0  0  0  0  0
   56.1541   32.0072   45.3331 H   0  0  0  0  0  0  0  0  0  0  0  0
   56.0129   31.3548   43.6508 H   0  0  0  0  0  0  0  0  0  0  0  0
   57.8030   32.4410   44.0430 C   0  0  0  0  0  0  0  0  0  0  0  0
   58.4450   32.1520   42.9980 O   0  0  0  0  0  0  0  0  0  0  0  0
   58.1700   33.6330   44.7570 N   0  0  0  0  0  0  0  0  0  0  0  0
   59.0090   33.7500   45.7450 C   0  0  0  0  0  0  0  0  0  0  0  0
   60.3480   33.6040   45.6390 N   0  0  0  0  0  0  0  0  0  0  0  0
   60.9660   33.7960   46.8360 C   0  0  0  0  0  0  0  0  0  0  0  0
   62.4500   33.7250   46.9760 C   0  0  0  0  0  0  0  0  0  0  0  0
   62.7174   33.7122   48.0429 H   0  0  0  0  0  0  0  0  0  0  0  0
   62.8203   32.8081   46.4941 H   0  0  0  0  0  0  0  0  0  0  0  0
   62.9062   34.6023   46.4941 H   0  0  0  0  0  0  0  0  0  0  0  0
   60.1210   34.1170   47.8960 C   0  0  0  0  0  0  0  0  0  0  0  0
   60.4298   34.3189   48.9323 H   0  0  0  0  0  0  0  0  0  0  0  0
   58.5430   34.1410   47.3090 S   0  0  0  0  0  0  0  0  0  0  0  0
   56.9660   26.6820   45.9530 C   0  0  0  0  0  0  0  0  0  0  0  0
   56.5540   26.1824   45.0638 H   0  0  0  0  0  0  0  0  0  0  0  0
   56.2285   26.7075   46.7688 H   0  0  0  0  0  0  0  0  0  0  0  0
   58.1760   25.9070   46.4350 C   0  0  0  0  0  0  0  0  0  0  0  0
   58.0414   24.8451   46.6883 H   0  0  0  0  0  0  0  0  0  0  0  0
   59.4120   26.4410   46.5730 C   0  0  0  0  0  0  0  0  0  0  0  0
   60.2192   25.7867   46.9341 H   0  0  0  0  0  0  0  0  0  0  0  0
   59.7530   27.8840   46.2610 C   0  0  0  0  0  0  0  0  0  0  0  0
   60.5521   27.9061   45.5054 H   0  0  0  0  0  0  0  0  0  0  0  0
   60.0784   28.3687   47.1933 H   0  0  0  0  0  0  0  0  0  0  0  0
  1  2  1  0
  2  3  1  0
  3  4  2  0
  4  5  1  0
  5  6  2  0
  6  7  1  0
  6  8  1  0
  8  9  1  0
  9 10  1  0
  9 11  1  0
  9 12  1  0
 12 13  2  0
 12 14  1  0
 14 15  2  0
 15 16  1  0
 16 17  1  0
 17 18  1  0
 18 19  1  0
 18 20  1  0
 18 21  1  0
 17 22  2  0
 22 23  1  0
 22 24  1  0
  5 25  1  0
 25 26  1  0
 25 27  1  0
 25 28  1  0
 28 29  1  0
 28 30  2  0
 30 31  1  0
 30 32  1  0
 32 33  1  0
 32 34  1  0
  8  3  1  0
 24 15  1  0
 32  4  1  0
M  CHG  2   7  -1  16  -1
M  END
>  <UniqueID>  (81) 
78

>  <SMILES>  (81) 
Cc1cs/c(=N/C(=O)Cn2c([O-])c3c(c2O)CC=CC3)[n-]1

>  <Energy>  (81) 
99.07073708176614

>  <Genealogy>  (81) 
Cc1csc(=NC(=O)Cn2c([O-])c3c(c2O)CC=CC3)[n-]1 (protonated)
Cc1cs/c(=N/C(=O)Cn2c([O-])c3c(c2O)CC=CC3)[n-]1 (cis-trans isomerization)
Cc1cs/c(=N/C(=O)Cn2c([O-])c3c(c2O)CC=CC3)[n-]1 (3D coordinates assigned)
Cc1cs/c(=N/C(=O)Cn2c([O-])c3c(c2O)CC=CC3)[n-]1 (nonaromatic ring conformer: 99.07073708176614 kcal/mol)

>  <smiles>  (81) 
Cc1csc(=NC(=O)Cn2c(O)c3c(c2O)CC=CC3)[nH]1

>  <score_type>  (81) 
oracle

>  <origin>  (81) 
adg

>  <m_score__min__energy>  (81) 
-10.56

>  <m_primary>  (81) 
energy

$$$$
81:0
     RDKit          3D

 58 61  0  0  0  0  0  0  0  0999 V2000
   51.2060   30.6110   53.9220 C   0  0  0  0  0  0  0  0  0  0  0  0
   51.1110   31.7350   52.9830 N   0  0  0  0  0  0  0  0  0  0  0  0
   50.3980   32.9570   53.3690 C   0  0  0  0  0  0  0  0  0  0  0  0
   51.7070   31.6530   51.6700 C   0  0  0  0  0  0  0  0  0  0  0  0
   51.5680   32.6170   50.8650 O   0  0  0  0  0  0  0  0  0  0  0  0
   52.4760   30.4270   51.2380 C   0  0  0  0  0  0  0  0  0  0  0  0
   53.8070   30.3020   51.9360 C   0  0  0  0  0  0  0  0  0  0  0  0
   53.9970   29.3290   52.9280 C   0  0  0  0  0  0  0  0  0  0  0  0
   55.2190   29.2350   53.5940 C   0  0  0  0  0  0  0  0  0  0  0  0
   56.2560   30.1220   53.2920 C   0  0  0  0  0  0  0  0  0  0  0  0
   56.0740   31.1230   52.3230 C   0  0  0  0  0  0  0  0  0  0  0  0
   57.1550   32.0740   51.9840 C   0  0  0  0  0  0  0  0  0  0  0  0
   57.4920   33.1180   52.7740 N   0  0  0  0  0  0  0  0  0  0  0  0
   58.5510   33.6870   52.1570 C   0  0  0  0  0  0  0  0  0  0  0  0
   58.8890   33.0460   51.0240 N   0  0  0  0  0  0  0  0  0  0  0  0
   58.0340   32.0190   50.9120 C   0  0  0  0  0  0  0  0  0  0  0  0
   58.1510   30.9880   49.8280 C   0  0  0  0  0  0  0  0  0  0  0  0
   59.4280   31.1460   49.1160 N   0  0  0  0  0  0  0  0  0  0  0  0
   60.0730   29.9910   48.5480 C   0  0  0  0  0  0  0  0  0  0  0  0
   60.9300   29.3660   49.2320 O   0  0  0  0  0  0  0  0  0  0  0  0
   59.7560   29.5170   47.1810 C   0  0  0  0  0  0  0  0  0  0  0  0
   60.6630   28.6940   46.4910 C   0  0  0  0  0  0  0  0  0  0  0  0
   60.3680   28.2470   45.2000 C   0  0  0  0  0  0  0  0  0  0  0  0
   59.1640   28.6050   44.5900 C   0  0  0  0  0  0  0  0  0  0  0  0
   58.2390   29.4050   45.2760 C   0  0  0  0  0  0  0  0  0  0  0  0
   56.7210   29.8700   44.5160 S   0  0  0  0  0  0  0  0  0  0  0  0
   56.7190   29.3550   42.8670 N   0  0  0  0  0  0  0  0  0  0  0  0
   55.5650   29.2350   45.2380 O   0  0  0  0  0  0  0  0  0  0  0  0
   56.5660   31.3640   44.5770 O   0  0  0  0  0  0  0  0  0  0  0  0
   58.5370   29.8550   46.5690 C   0  0  0  0  0  0  0  0  0  0  0  0
   59.9520   32.5020   48.8790 C   0  0  0  0  0  0  0  0  0  0  0  0
   60.0810   33.2570   50.2070 C   0  0  0  0  0  0  0  0  0  0  0  0
   54.8470   31.1990   51.6410 C   0  0  0  0  0  0  0  0  0  0  0  0
   51.1739   30.9914   54.9536 H   0  0  0  0  0  0  0  0  0  0  0  0
   50.3627   29.9240   53.7581 H   0  0  0  0  0  0  0  0  0  0  0  0
   52.1526   30.0753   53.7581 H   0  0  0  0  0  0  0  0  0  0  0  0
   50.3573   33.0268   54.4660 H   0  0  0  0  0  0  0  0  0  0  0  0
   50.9267   33.8331   52.9652 H   0  0  0  0  0  0  0  0  0  0  0  0
   49.3752   32.9278   52.9652 H   0  0  0  0  0  0  0  0  0  0  0  0
   51.8737   29.5350   51.4653 H   0  0  0  0  0  0  0  0  0  0  0  0
   52.6725   30.5196   50.1597 H   0  0  0  0  0  0  0  0  0  0  0  0
   53.1798   28.6378   53.1817 H   0  0  0  0  0  0  0  0  0  0  0  0
   55.3671   28.4596   54.3600 H   0  0  0  0  0  0  0  0  0  0  0  0
   57.2196   30.0360   53.8156 H   0  0  0  0  0  0  0  0  0  0  0  0
   59.0773   34.5744   52.5384 H   0  0  0  0  0  0  0  0  0  0  0  0
   58.1053   29.9838   50.2746 H   0  0  0  0  0  0  0  0  0  0  0  0
   57.3231   31.1189   49.1157 H   0  0  0  0  0  0  0  0  0  0  0  0
   61.6091   28.4005   46.9692 H   0  0  0  0  0  0  0  0  0  0  0  0
   61.0868   27.6110   44.6626 H   0  0  0  0  0  0  0  0  0  0  0  0
   58.9409   28.2590   43.5700 H   0  0  0  0  0  0  0  0  0  0  0  0
   56.5440   28.3250   42.8690 H   0  0  0  0  0  0  0  0  0  0  0  0
   57.6880   29.4950   42.5020 H   0  0  0  0  0  0  0  0  0  0  0  0
   57.8101   30.4786   47.1100 H   0  0  0  0  0  0  0  0  0  0  0  0
   60.9412   32.4317   48.4030 H   0  0  0  0  0  0  0  0  0  0  0  0
   59.2579   33.0462   48.2217 H   0  0  0  0  0  0  0  0  0  0  0  0
   60.9638   32.8888   50.7502 H   0  0  0  0  0  0  0  0  0  0  0  0
   60.1892   34.3319   50.0001 H   0  0  0  0  0  0  0  0  0  0  0  0
   54.6999   31.9684   50.8688 H   0  0  0  0  0  0  0  0  0  0  0  0
  1  2  1  0
  2  3  1  0
  2  4  1  0
  4  5  2  0
  4  6  1  0
  6  7  1  0
  7  8  2  0
  8  9  1  0
  9 10  2  0
 10 11  1  0
 11 12  1  0
 12 13  1  0
 13 14  2  0
 14 15  1  0
 15 16  1  0
 16 17  1  0
 17 18  1  0
 18 19  1  0
 19 20  2  0
 19 21  1  0
 21 22  2  0
 22 23  1  0
 23 24  2  0
 24 25  1  0
 25 26  1  0
 26 27  1  0
 26 28  2  0
 26 29  2  0
 25 30  2  0
 18 31  1  0
 31 32  1  0
 11 33  2  0
 33  7  1  0
 16 12  2  0
 30 21  1  0
 32 15  1  0
  1 34  1  0
  1 35  1  0
  1 36  1  0
  3 37  1  0
  3 38  1  0
  3 39  1  0
  6 40  1  0
  6 41  1  0
  8 42  1  0
  9 43  1  0
 10 44  1  0
 14 45  1  0
 17 46  1  0
 17 47  1  0
 22 48  1  0
 23 49  1  0
 24 50  1  0
 27 51  1  0
 27 52  1  0
 30 53  1  0
 31 54  1  0
 31 55  1  0
 32 56  1  0
 32 57  1  0
 33 58  1  0
M  END
>  <UniqueID>  (82) 
79

>  <SMILES>  (82) 
CN(C)C(=O)Cc1cccc(-c2ncn3c2CN(C(=O)c2cccc(S(N)(=O)=O)c2)CC3)c1

>  <Energy>  (82) 
97.98452774412327

>  <Genealogy>  (82) 
CN(C)C(=O)Cc1cccc(-c2ncn3c2CN(C(=O)c2cccc(S(N)(=O)=O)c2)CC3)c1 (3D coordinates assigned)
CN(C)C(=O)Cc1cccc(-c2ncn3c2CN(C(=O)c2cccc(S(N)(=O)=O)c2)CC3)c1 (nonaromatic ring conformer: 97.98452774412327 kcal/mol)

>  <smiles>  (82) 
CN(C)C(=O)Cc1cccc(-c2ncn3c2CN(C(=O)c2cccc(S(N)(=O)=O)c2)CC3)c1

>  <score_type>  (82) 
oracle

>  <origin>  (82) 
adg

>  <m_score__min__energy>  (82) 
-10.369999999999999

>  <m_primary>  (82) 
energy

$$$$
82:0
     RDKit          3D

 63 66  0  0  0  0  0  0  0  0999 V2000
   67.6030   27.3870   50.3080 C   0  0  0  0  0  0  0  0  0  0  0  0
   66.9460   28.4610   51.1860 C   0  0  0  0  0  0  0  0  0  0  0  0
   67.9300   28.9870   52.2400 C   0  0  0  0  0  0  0  0  0  0  0  0
   65.5930   28.0030   51.7870 C   0  0  0  0  0  0  0  0  0  0  0  0
   64.7440   29.0920   52.4750 C   0  0  0  0  0  0  0  0  0  0  0  0
   64.6630   30.3210   51.6740 N   0  0  0  0  0  0  0  0  0  0  0  0
   65.6520   31.2100   51.7920 N   0  0  0  0  0  0  0  0  0  0  0  0
   65.6790   32.3740   51.0930 C   0  0  0  0  0  0  0  0  0  0  0  0
   66.7660   33.2920   51.2850 N   0  0  0  0  0  0  0  0  0  0  0  0
   67.9680   33.1520   50.4590 C   0  0  0  0  0  0  0  0  0  0  0  0
   69.1560   33.8250   51.1570 C   0  0  0  0  0  0  0  0  0  0  0  0
   68.8420   35.1580   51.5140 O   0  0  0  0  0  0  0  0  0  0  0  0
   67.8040   35.1630   52.4780 C   0  0  0  0  0  0  0  0  0  0  0  0
   66.5070   34.6040   51.8830 C   0  0  0  0  0  0  0  0  0  0  0  0
   64.6190   32.6740   50.2300 C   0  0  0  0  0  0  0  0  0  0  0  0
   64.5830   33.7840   49.6320 O   0  0  0  0  0  0  0  0  0  0  0  0
   63.5820   31.7420   50.0700 C   0  0  0  0  0  0  0  0  0  0  0  0
   62.4310   32.0270   49.1780 C   0  0  0  0  0  0  0  0  0  0  0  0
   62.3040   33.2150   48.6540 N   0  0  0  0  0  0  0  0  0  0  0  0
   60.9850   33.6480   47.6290 S   0  0  0  0  0  0  0  0  0  0  0  0
   60.1270   34.6720   48.3160 O   0  0  0  0  0  0  0  0  0  0  0  0
   61.5170   34.1960   46.3340 O   0  0  0  0  0  0  0  0  0  0  0  0
   60.0560   32.2090   47.3170 C   0  0  0  0  0  0  0  0  0  0  0  0
   58.9830   32.2410   46.4170 C   0  0  0  0  0  0  0  0  0  0  0  0
   58.2230   31.0830   46.1810 C   0  0  0  0  0  0  0  0  0  0  0  0
   57.1110   31.0660   45.2740 N   0  0  0  0  0  0  0  0  0  0  0  0
   56.5420   29.6840   44.3940 S   0  0  0  0  0  0  0  0  0  0  0  0
   56.4880   30.0460   42.6530 C   0  0  0  0  0  0  0  0  0  0  0  0
   55.1520   29.3540   44.8610 O   0  0  0  0  0  0  0  0  0  0  0  0
   57.4340   28.5020   44.6570 O   0  0  0  0  0  0  0  0  0  0  0  0
   58.5550   29.9010   46.8520 C   0  0  0  0  0  0  0  0  0  0  0  0
   59.6240   29.8720   47.7500 C   0  0  0  0  0  0  0  0  0  0  0  0
   60.3860   31.0270   47.9900 C   0  0  0  0  0  0  0  0  0  0  0  0
   61.4810   30.9700   48.9220 N   0  0  0  0  0  0  0  0  0  0  0  0
   63.6300   30.5440   50.8000 C   0  0  0  0  0  0  0  0  0  0  0  0
   62.6290   29.5910   50.6290 O   0  0  0  0  0  0  0  0  0  0  0  0
   68.0695   26.6244   50.9489 H   0  0  0  0  0  0  0  0  0  0  0  0
   66.8390   26.9148   49.6729 H   0  0  0  0  0  0  0  0  0  0  0  0
   68.3713   27.8521   49.6729 H   0  0  0  0  0  0  0  0  0  0  0  0
   66.6913   29.3088   50.5331 H   0  0  0  0  0  0  0  0  0  0  0  0
   67.5370   28.7769   53.2457 H   0  0  0  0  0  0  0  0  0  0  0  0
   68.9025   28.4884   52.1148 H   0  0  0  0  0  0  0  0  0  0  0  0
   68.0557   30.0726   52.1148 H   0  0  0  0  0  0  0  0  0  0  0  0
   64.9918   27.5759   50.9708 H   0  0  0  0  0  0  0  0  0  0  0  0
   65.8534   27.2895   52.5827 H   0  0  0  0  0  0  0  0  0  0  0  0
   63.7270   28.7028   52.6304 H   0  0  0  0  0  0  0  0  0  0  0  0
   65.2270   29.3431   53.4309 H   0  0  0  0  0  0  0  0  0  0  0  0
   68.1877   32.0844   50.3111 H   0  0  0  0  0  0  0  0  0  0  0  0
   67.7982   33.6326   49.4842 H   0  0  0  0  0  0  0  0  0  0  0  0
   69.4081   33.2585   52.0656 H   0  0  0  0  0  0  0  0  0  0  0  0
   70.0099   33.8383   50.4637 H   0  0  0  0  0  0  0  0  0  0  0  0
   68.1046   34.5424   53.3350 H   0  0  0  0  0  0  0  0  0  0  0  0
   67.6264   36.1997   52.8000 H   0  0  0  0  0  0  0  0  0  0  0  0
   65.7538   34.5016   52.6781 H   0  0  0  0  0  0  0  0  0  0  0  0
   66.1344   35.2911   51.1090 H   0  0  0  0  0  0  0  0  0  0  0  0
   63.0220   33.9520   48.8390 H   0  0  0  0  0  0  0  0  0  0  0  0
   58.7346   33.1759   45.8933 H   0  0  0  0  0  0  0  0  0  0  0  0
   56.3271   31.1244   42.5075 H   0  0  0  0  0  0  0  0  0  0  0  0
   57.4401   29.7512   42.1875 H   0  0  0  0  0  0  0  0  0  0  0  0
   55.6634   29.4862   42.1875 H   0  0  0  0  0  0  0  0  0  0  0  0
   57.9695   28.9876   46.6708 H   0  0  0  0  0  0  0  0  0  0  0  0
   59.8713   28.9368   48.2737 H   0  0  0  0  0  0  0  0  0  0  0  0
   61.6140   30.0760   49.4500 H   0  0  0  0  0  0  0  0  0  0  0  0
  1  2  1  0
  2  3  1  0
  2  4  1  0
  4  5  1  0
  5  6  1  0
  6  7  1  0
  7  8  2  0
  8  9  1  0
  9 10  1  0
 10 11  1  0
 11 12  1  0
 12 13  1  0
 13 14  1  0
  8 15  1  0
 15 16  2  0
 15 17  1  0
 17 18  1  0
 18 19  2  0
 19 20  1  0
 20 21  2  0
 20 22  2  0
 20 23  1  0
 23 24  2  0
 24 25  1  0
 25 26  1  0
 26 27  1  0
 27 28  1  0
 27 29  2  0
 27 30  2  0
 25 31  2  0
 31 32  1  0
 32 33  2  0
 33 34  1  0
 17 35  2  0
 35 36  1  0
 35  6  1  0
 14  9  1  0
 34 18  1  0
 33 23  1  0
  1 37  1  0
  1 38  1  0
  1 39  1  0
  2 40  1  0
  3 41  1  0
  3 42  1  0
  3 43  1  0
  4 44  1  0
  4 45  1  0
  5 46  1  0
  5 47  1  0
 10 48  1  0
 10 49  1  0
 11 50  1  0
 11 51  1  0
 13 52  1  0
 13 53  1  0
 14 54  1  0
 14 55  1  0
 19 56  1  0
 24 57  1  0
 28 58  1  0
 28 59  1  0
 28 60  1  0
 31 61  1  0
 32 62  1  0
 34 63  1  0
M  CHG  3  19   1  26  -1  36  -1
M  END
>  <UniqueID>  (83) 
80

>  <SMILES>  (83) 
CC(C)CCn1nc(N2CCOCC2)c(=O)c(C2=[NH+]S(=O)(=O)c3cc([N-]S(C)(=O)=O)ccc3N2)c1[O-]

>  <Energy>  (83) 
77.89451990124928

>  <Genealogy>  (83) 
CC(C)CCn1nc(N2CCOCC2)c(=O)c(C2=[NH+]S(=O)(=O)c3cc([N-]S(C)(=O)=O)ccc3N2)c1[O-] (protonated)
CC(C)CCn1nc(N2CCOCC2)c(=O)c(C2=[NH+]S(=O)(=O)c3cc([N-]S(C)(=O)=O)ccc3N2)c1[O-] (3D coordinates assigned)
CC(C)CCn1nc(N2CCOCC2)c(=O)c(C2=[NH+]S(=O)(=O)c3cc([N-]S(C)(=O)=O)ccc3N2)c1[O-] (nonaromatic ring conformer: 77.89451990124928 kcal/mol)

>  <smiles>  (83) 
CC(C)CCn1nc(N2CCOCC2)c(=O)c(C2=NS(=O)(=O)c3cc(NS(C)(=O)=O)ccc3N2)c1O

>  <score_type>  (83) 
oracle

>  <origin>  (83) 
adg

>  <m_score__min__energy>  (83) 
-9.7599999999999998

>  <m_primary>  (83) 
energy

$$$$
83:0
     RDKit          3D

 58 62  0  0  0  0  0  0  0  0999 V2000
   58.1500   32.2700   43.3970 C   0  0  0  0  0  0  0  0  0  0  0  0
   57.1420   31.2400   42.9930 C   0  0  0  0  0  0  0  0  0  0  0  0
   56.6440   31.2940   41.8360 O   0  0  0  0  0  0  0  0  0  0  0  0
   56.6660   30.2690   43.9430 N   0  0  0  0  0  0  0  0  0  0  0  0
   55.6620   30.6130   44.7900 O   0  0  0  0  0  0  0  0  0  0  0  0
   57.2030   28.9360   44.0130 C   0  0  0  0  0  0  0  0  0  0  0  0
   57.3950   28.1710   42.8490 C   0  0  0  0  0  0  0  0  0  0  0  0
   57.9880   26.9080   42.9240 C   0  0  0  0  0  0  0  0  0  0  0  0
   58.4090   26.4020   44.1530 C   0  0  0  0  0  0  0  0  0  0  0  0
   58.2440   27.1610   45.3220 C   0  0  0  0  0  0  0  0  0  0  0  0
   58.8940   26.5760   46.8540 S   0  0  0  0  0  0  0  0  0  0  0  0
   57.8080   26.6180   47.8940 O   0  0  0  0  0  0  0  0  0  0  0  0
   59.3290   25.1460   46.6960 O   0  0  0  0  0  0  0  0  0  0  0  0
   60.2680   27.5230   47.3860 N   0  0  0  0  0  0  0  0  0  0  0  0
   60.1590   27.9470   48.7970 C   0  0  0  0  0  0  0  0  0  0  0  0
   60.5300   29.4170   49.0160 C   0  0  0  0  0  0  0  0  0  0  0  0
   59.7060   30.2710   48.1400 N   0  0  0  0  0  0  0  0  0  0  0  0
   59.8470   31.7420   48.3620 C   0  0  0  0  0  0  0  0  0  0  0  0
   61.2790   32.1560   48.0850 C   0  0  0  0  0  0  0  0  0  0  0  0
   62.4380   31.7780   48.7730 C   0  0  0  0  0  0  0  0  0  0  0  0
   63.6810   32.2490   48.3180 C   0  0  0  0  0  0  0  0  0  0  0  0
   63.7520   33.1110   47.2070 C   0  0  0  0  0  0  0  0  0  0  0  0
   62.5830   33.5120   46.5450 C   0  0  0  0  0  0  0  0  0  0  0  0
   61.3610   33.0150   47.0030 C   0  0  0  0  0  0  0  0  0  0  0  0
   60.0240   33.3020   46.5420 C   0  0  0  0  0  0  0  0  0  0  0  0
   59.5950   34.2350   45.5960 C   0  0  0  0  0  0  0  0  0  0  0  0
   58.2190   34.4670   45.4670 C   0  0  0  0  0  0  0  0  0  0  0  0
   57.3070   33.8020   46.3050 C   0  0  0  0  0  0  0  0  0  0  0  0
   57.7620   32.8860   47.2650 C   0  0  0  0  0  0  0  0  0  0  0  0
   59.1320   32.6120   47.3420 C   0  0  0  0  0  0  0  0  0  0  0  0
   59.8680   29.9220   46.7020 C   0  0  0  0  0  0  0  0  0  0  0  0
   60.6150   28.5960   46.4360 C   0  0  0  0  0  0  0  0  0  0  0  0
   57.6350   28.4200   45.2460 C   0  0  0  0  0  0  0  0  0  0  0  0
   58.2011   32.3223   44.4946 H   0  0  0  0  0  0  0  0  0  0  0  0
   59.1367   31.9942   42.9967 H   0  0  0  0  0  0  0  0  0  0  0  0
   57.8529   33.2506   42.9967 H   0  0  0  0  0  0  0  0  0  0  0  0
   55.8270   30.0870   45.6120 H   0  0  0  0  0  0  0  0  0  0  0  0
   57.0767   28.5689   41.8741 H   0  0  0  0  0  0  0  0  0  0  0  0
   58.1231   26.3108   42.0101 H   0  0  0  0  0  0  0  0  0  0  0  0
   58.8716   25.4055   44.2066 H   0  0  0  0  0  0  0  0  0  0  0  0
   59.1211   27.7953   49.1284 H   0  0  0  0  0  0  0  0  0  0  0  0
   60.8707   27.3405   49.3764 H   0  0  0  0  0  0  0  0  0  0  0  0
   60.3489   29.6877   50.0667 H   0  0  0  0  0  0  0  0  0  0  0  0
   61.5931   29.5652   48.7756 H   0  0  0  0  0  0  0  0  0  0  0  0
   59.4608   31.8832   49.3822 H   0  0  0  0  0  0  0  0  0  0  0  0
   62.3766   31.1234   49.6549 H   0  0  0  0  0  0  0  0  0  0  0  0
   64.6037   31.9427   48.8325 H   0  0  0  0  0  0  0  0  0  0  0  0
   64.7302   33.4719   46.8564 H   0  0  0  0  0  0  0  0  0  0  0  0
   62.6272   34.1998   45.6877 H   0  0  0  0  0  0  0  0  0  0  0  0
   60.3190   34.7745   44.9677 H   0  0  0  0  0  0  0  0  0  0  0  0
   57.8511   35.1722   44.7071 H   0  0  0  0  0  0  0  0  0  0  0  0
   56.2296   34.0012   46.2073 H   0  0  0  0  0  0  0  0  0  0  0  0
   57.0537   32.3914   47.9459 H   0  0  0  0  0  0  0  0  0  0  0  0
   58.8664   29.8462   46.2536 H   0  0  0  0  0  0  0  0  0  0  0  0
   60.4838   30.7181   46.2582 H   0  0  0  0  0  0  0  0  0  0  0  0
   60.3671   28.2548   45.4201 H   0  0  0  0  0  0  0  0  0  0  0  0
   61.6890   28.8003   46.5579 H   0  0  0  0  0  0  0  0  0  0  0  0
   57.4934   29.0116   46.1625 H   0  0  0  0  0  0  0  0  0  0  0  0
  1  2  1  0
  2  3  2  0
  2  4  1  0
  4  5  1  0
  4  6  1  0
  6  7  2  0
  7  8  1  0
  8  9  2  0
  9 10  1  0
 10 11  1  0
 11 12  2  0
 11 13  2  0
 11 14  1  0
 14 15  1  0
 15 16  1  0
 16 17  1  0
 17 18  1  0
 18 19  1  0
 19 20  2  0
 20 21  1  0
 21 22  2  0
 22 23  1  0
 23 24  2  0
 24 25  1  0
 25 26  2  0
 26 27  1  0
 27 28  2  0
 28 29  1  0
 29 30  2  0
 17 31  1  0
 31 32  1  0
 10 33  2  0
 33  6  1  0
 32 14  1  0
 30 18  1  0
 24 19  1  0
 30 25  1  0
  1 34  1  0
  1 35  1  0
  1 36  1  0
  5 37  1  0
  7 38  1  0
  8 39  1  0
  9 40  1  0
 15 41  1  0
 15 42  1  0
 16 43  1  0
 16 44  1  0
 18 45  1  0
 20 46  1  0
 21 47  1  0
 22 48  1  0
 23 49  1  0
 26 50  1  0
 27 51  1  0
 28 52  1  0
 29 53  1  0
 31 54  1  0
 31 55  1  0
 32 56  1  0
 32 57  1  0
 33 58  1  0
M  END
>  <UniqueID>  (84) 
81

>  <SMILES>  (84) 
CC(=O)N(O)c1cccc(S(=O)(=O)N2CCN(C3c4ccccc4-c4ccccc43)CC2)c1

>  <Energy>  (84) 
103.83266132613414

>  <Genealogy>  (84) 
CC(=O)N(O)c1cccc(S(=O)(=O)N2CCN(C3c4ccccc4-c4ccccc43)CC2)c1 (3D coordinates assigned)
CC(=O)N(O)c1cccc(S(=O)(=O)N2CCN(C3c4ccccc4-c4ccccc43)CC2)c1 (nonaromatic ring conformer: 103.83266132613414 kcal/mol)

>  <smiles>  (84) 
CC(=O)N(O)c1cccc(S(=O)(=O)N2CCN(C3c4ccccc4-c4ccccc43)CC2)c1

>  <score_type>  (84) 
oracle

>  <origin>  (84) 
adg

>  <m_score__min__energy>  (84) 
-10.66

>  <m_primary>  (84) 
energy

$$$$
84:0
     RDKit          3D

 43 46  0  0  0  0  0  0  0  0999 V2000
   57.4060   29.7160   50.4590 H   0  0  0  0  0  0  0  0  0  0  0  0
   57.1470   30.1800   51.3210 O   0  0  0  0  0  0  0  0  0  0  0  0
   57.7010   31.4080   51.6820 C   0  0  0  0  0  0  0  0  0  0  0  0
   57.6370   31.8550   53.0070 C   0  0  0  0  0  0  0  0  0  0  0  0
   57.1427   31.2381   53.7720 H   0  0  0  0  0  0  0  0  0  0  0  0
   58.2000   33.0830   53.3580 C   0  0  0  0  0  0  0  0  0  0  0  0
   58.1494   33.4415   54.3967 H   0  0  0  0  0  0  0  0  0  0  0  0
   58.8280   33.8510   52.3760 C   0  0  0  0  0  0  0  0  0  0  0  0
   59.2799   34.8186   52.6397 H   0  0  0  0  0  0  0  0  0  0  0  0
   58.8810   33.4030   51.0940 N   0  0  0  0  0  0  0  0  0  0  0  0
   58.3300   32.2130   50.7170 C   0  0  0  0  0  0  0  0  0  0  0  0
   58.4090   31.7960   49.4860 N   0  0  0  0  0  0  0  0  0  0  0  0
   58.9260   30.5270   49.0580 C   0  0  0  0  0  0  0  0  0  0  0  0
   59.6290   29.8590   49.8590 O   0  0  0  0  0  0  0  0  0  0  0  0
   58.5780   29.9490   47.7390 C   0  0  0  0  0  0  0  0  0  0  0  0
   58.2510   28.6230   47.5280 C   0  0  0  0  0  0  0  0  0  0  0  0
   58.1530   27.8418   48.2962 H   0  0  0  0  0  0  0  0  0  0  0  0
   58.0700   28.4660   46.1610 C   0  0  0  0  0  0  0  0  0  0  0  0
   57.7770   27.3170   45.5210 C   0  0  0  0  0  0  0  0  0  0  0  0
   58.0060   27.2508   44.4471 H   0  0  0  0  0  0  0  0  0  0  0  0
   57.1680   26.1430   46.1730 C   0  0  0  0  0  0  0  0  0  0  0  0
   57.8760   25.0710   46.5700 N   0  0  0  0  0  0  0  0  0  0  0  0
   56.9300   24.2210   47.0260 C   0  0  0  0  0  0  0  0  0  0  0  0
   57.2080   23.0900   47.5030 O   0  0  0  0  0  0  0  0  0  0  0  0
   55.6630   24.6740   46.9210 N   0  0  0  0  0  0  0  0  0  0  0  0
   55.8280   25.8860   46.3670 C   0  0  0  0  0  0  0  0  0  0  0  0
   54.7730   26.7140   46.0060 O   0  0  0  0  0  0  0  0  0  0  0  0
   58.3100   29.7180   45.5870 C   0  0  0  0  0  0  0  0  0  0  0  0
   58.2120   30.0280   44.2850 C   0  0  0  0  0  0  0  0  0  0  0  0
   58.4261   31.0523   43.9459 H   0  0  0  0  0  0  0  0  0  0  0  0
   57.9176   29.2578   43.5569 H   0  0  0  0  0  0  0  0  0  0  0  0
   58.6220   30.6130   46.5590 N   0  0  0  0  0  0  0  0  0  0  0  0
   58.9060   32.0130   46.3860 C   0  0  0  0  0  0  0  0  0  0  0  0
   57.9090   32.8800   45.9150 C   0  0  0  0  0  0  0  0  0  0  0  0
   56.9068   32.4893   45.6848 H   0  0  0  0  0  0  0  0  0  0  0  0
   58.1850   34.2400   45.7370 C   0  0  0  0  0  0  0  0  0  0  0  0
   57.4004   34.9170   45.3682 H   0  0  0  0  0  0  0  0  0  0  0  0
   59.4580   34.7380   46.0280 C   0  0  0  0  0  0  0  0  0  0  0  0
   59.6745   35.8073   45.8879 H   0  0  0  0  0  0  0  0  0  0  0  0
   60.4570   33.8790   46.4970 C   0  0  0  0  0  0  0  0  0  0  0  0
   61.4584   34.2732   46.7246 H   0  0  0  0  0  0  0  0  0  0  0  0
   60.1840   32.5190   46.6770 C   0  0  0  0  0  0  0  0  0  0  0  0
   61.1580   31.6970   47.1430 F   0  0  0  0  0  0  0  0  0  0  0  0
  1  2  1  0
  2  3  1  0
  3  4  2  0
  4  5  1  0
  4  6  1  0
  6  7  1  0
  6  8  2  0
  8  9  1  0
  8 10  1  0
 10 11  1  0
 11 12  2  0
 12 13  1  0
 13 14  2  0
 13 15  1  0
 15 16  2  0
 16 17  1  0
 16 18  1  0
 18 19  2  0
 19 20  1  0
 19 21  1  0
 21 22  1  0
 22 23  1  0
 23 24  2  0
 23 25  1  0
 25 26  1  0
 26 27  1  0
 18 28  1  0
 28 29  2  0
 29 30  1  0
 29 31  1  0
 28 32  1  0
 32 33  1  0
 33 34  2  0
 34 35  1  0
 34 36  1  0
 36 37  1  0
 36 38  2  0
 38 39  1  0
 38 40  1  0
 40 41  1  0
 40 42  2  0
 42 43  1  0
 11  3  1  0
 32 15  1  0
 42 33  1  0
 26 21  2  0
M  CHG  4  10  -1  22  -1  25  -1  27  -1
M  END
>  <UniqueID>  (85) 
82

>  <SMILES>  (85) 
C=c1/c(=C/c2[n-]c(=O)[n-]c2[O-])cc(C(=O)/N=c2\[n-]cccc2O)n1-c1ccccc1F

>  <Energy>  (85) 
127.15104975960692

>  <Genealogy>  (85) 
C=c1c(=Cc2[n-]c(=O)[n-]c2[O-])cc(C(=O)N=c2[n-]cccc2O)n1-c1ccccc1F (protonated)
C=c1/c(=C/c2[n-]c(=O)[n-]c2[O-])cc(C(=O)/N=c2\[n-]cccc2O)n1-c1ccccc1F (cis-trans isomerization)
C=c1/c(=C/c2[n-]c(=O)[n-]c2[O-])cc(C(=O)/N=c2\[n-]cccc2O)n1-c1ccccc1F (3D coordinates assigned)
C=c1/c(=C/c2[n-]c(=O)[n-]c2[O-])cc(C(=O)/N=c2\[n-]cccc2O)n1-c1ccccc1F (optimized conformer: 127.15104975960692 kcal/mol)

>  <smiles>  (85) 
C=c1c(=Cc2[nH]c(=O)[nH]c2O)cc(C(=O)N=c2[nH]cccc2O)n1-c1ccccc1F

>  <score_type>  (85) 
oracle

>  <origin>  (85) 
adg

>  <m_score__min__energy>  (85) 
-16.620000000000001

>  <m_primary>  (85) 
energy

$$$$
85:0
     RDKit          3D

 44 45  0  0  0  0  0  0  0  0999 V2000
   55.1470   29.3340   44.8010 N   0  0  0  0  0  0  0  0  0  0  0  0
   56.4140   29.9840   44.8830 C   0  0  0  0  0  0  0  0  0  0  0  0
   56.4950   31.2100   44.5980 O   0  0  0  0  0  0  0  0  0  0  0  0
   57.6210   29.2310   45.2980 C   0  0  0  0  0  0  0  0  0  0  0  0
   57.7530   27.8640   44.9920 C   0  0  0  0  0  0  0  0  0  0  0  0
   58.8950   27.1580   45.3790 C   0  0  0  0  0  0  0  0  0  0  0  0
   59.9180   27.8040   46.0760 C   0  0  0  0  0  0  0  0  0  0  0  0
   59.8030   29.1640   46.3980 C   0  0  0  0  0  0  0  0  0  0  0  0
   60.9120   29.8760   47.1240 C   0  0  0  0  0  0  0  0  0  0  0  0
   60.9570   31.2800   46.7240 N   0  0  0  0  0  0  0  0  0  0  0  0
   61.9320   32.1960   47.2380 C   0  0  0  0  0  0  0  0  0  0  0  0
   62.7670   31.8200   48.1030 O   0  0  0  0  0  0  0  0  0  0  0  0
   61.9670   33.6110   46.7430 C   0  0  0  0  0  0  0  0  0  0  0  0
   60.8770   33.8510   45.8050 N   0  0  0  0  0  0  0  0  0  0  0  0
   59.7020   34.5990   46.1310 C   0  0  0  0  0  0  0  0  0  0  0  0
   59.6260   35.8250   45.8490 O   0  0  0  0  0  0  0  0  0  0  0  0
   58.5390   33.9080   46.7670 C   0  0  0  0  0  0  0  0  0  0  0  0
   58.9070   33.4440   48.1490 C   0  0  0  0  0  0  0  0  0  0  0  0
   59.6450   34.2800   49.0020 C   0  0  0  0  0  0  0  0  0  0  0  0
   60.0320   33.8300   50.2650 C   0  0  0  0  0  0  0  0  0  0  0  0
   59.6840   32.5450   50.6910 C   0  0  0  0  0  0  0  0  0  0  0  0
   58.9320   31.6990   49.8590 C   0  0  0  0  0  0  0  0  0  0  0  0
   58.6030   30.2930   50.2940 C   0  0  0  0  0  0  0  0  0  0  0  0
   59.6340   29.8050   51.0770 F   0  0  0  0  0  0  0  0  0  0  0  0
   57.4300   30.2700   51.0280 F   0  0  0  0  0  0  0  0  0  0  0  0
   58.4410   29.4660   49.1950 F   0  0  0  0  0  0  0  0  0  0  0  0
   58.5720   32.1470   48.5740 C   0  0  0  0  0  0  0  0  0  0  0  0
   58.6560   29.8730   46.0040 C   0  0  0  0  0  0  0  0  0  0  0  0
   54.4620   29.3930   45.5870 H   0  0  0  0  0  0  0  0  0  0  0  0
   56.9513   27.3473   44.4441 H   0  0  0  0  0  0  0  0  0  0  0  0
   58.9884   26.0898   45.1338 H   0  0  0  0  0  0  0  0  0  0  0  0
   60.8170   27.2443   46.3735 H   0  0  0  0  0  0  0  0  0  0  0  0
   60.7361   29.8125   48.2080 H   0  0  0  0  0  0  0  0  0  0  0  0
   61.8706   29.3997   46.8705 H   0  0  0  0  0  0  0  0  0  0  0  0
   60.2400   31.6270   46.0480 H   0  0  0  0  0  0  0  0  0  0  0  0
   61.8665   34.2961   47.5977 H   0  0  0  0  0  0  0  0  0  0  0  0
   62.9237   33.7843   46.2285 H   0  0  0  0  0  0  0  0  0  0  0  0
   57.6915   34.6063   46.8312 H   0  0  0  0  0  0  0  0  0  0  0  0
   58.2601   33.0364   46.1567 H   0  0  0  0  0  0  0  0  0  0  0  0
   59.9192   35.2934   48.6736 H   0  0  0  0  0  0  0  0  0  0  0  0
   60.6128   34.4887   50.9274 H   0  0  0  0  0  0  0  0  0  0  0  0
   60.0010   32.1939   51.6841 H   0  0  0  0  0  0  0  0  0  0  0  0
   58.0236   31.4760   47.8965 H   0  0  0  0  0  0  0  0  0  0  0  0
   58.5656   30.9414   46.2498 H   0  0  0  0  0  0  0  0  0  0  0  0
  1  2  1  0
  2  3  2  0
  2  4  1  0
  4  5  2  0
  5  6  1  0
  6  7  2  0
  7  8  1  0
  8  9  1  0
  9 10  1  0
 10 11  1  0
 11 12  2  0
 11 13  1  0
 13 14  1  0
 14 15  1  0
 15 16  2  0
 15 17  1  0
 17 18  1  0
 18 19  2  0
 19 20  1  0
 20 21  2  0
 21 22  1  0
 22 23  1  0
 23 24  1  0
 23 25  1  0
 23 26  1  0
 22 27  2  0
  8 28  2  0
 28  4  1  0
 27 18  1  0
  1 29  1  0
  5 30  1  0
  6 31  1  0
  7 32  1  0
  9 33  1  0
  9 34  1  0
 10 35  1  0
 13 36  1  0
 13 37  1  0
 17 38  1  0
 17 39  1  0
 19 40  1  0
 20 41  1  0
 21 42  1  0
 27 43  1  0
 28 44  1  0
M  CHG  2   1  -1  14  -1
M  END
>  <UniqueID>  (86) 
83

>  <SMILES>  (86) 
[NH-]C(=O)c1cccc(CNC(=O)C[N-]C(=O)Cc2cccc(C(F)(F)F)c2)c1

>  <Energy>  (86) 
37.13439918948792

>  <Genealogy>  (86) 
[NH-]C(=O)c1cccc(CNC(=O)C[N-]C(=O)Cc2cccc(C(F)(F)F)c2)c1 (protonated)
[NH-]C(=O)c1cccc(CNC(=O)C[N-]C(=O)Cc2cccc(C(F)(F)F)c2)c1 (3D coordinates assigned)
[NH-]C(=O)c1cccc(CNC(=O)C[N-]C(=O)Cc2cccc(C(F)(F)F)c2)c1 (optimized conformer: 37.13439918948792 kcal/mol)

>  <smiles>  (86) 
NC(=O)c1cccc(CNC(=O)CNC(=O)Cc2cccc(C(F)(F)F)c2)c1

>  <score_type>  (86) 
oracle

>  <origin>  (86) 
adg

>  <m_score__min__energy>  (86) 
-12.449999999999999

>  <m_primary>  (86) 
energy

$$$$
86:0
     RDKit          3D

 54 57  0  0  0  0  0  0  0  0999 V2000
   57.0660   33.1270   47.4940 O   0  0  0  0  0  0  0  0  0  0  0  0
   57.6330   33.3550   46.3930 C   0  0  0  0  0  0  0  0  0  0  0  0
   56.9990   32.9000   45.1920 N   0  0  0  0  0  0  0  0  0  0  0  0
   57.1670   31.3190   44.4990 S   0  0  0  0  0  0  0  0  0  0  0  0
   55.8010   30.7890   44.1700 O   0  0  0  0  0  0  0  0  0  0  0  0
   57.9690   31.4150   43.2310 O   0  0  0  0  0  0  0  0  0  0  0  0
   57.9500   30.2260   45.6370 C   0  0  0  0  0  0  0  0  0  0  0  0
   57.8050   28.8420   45.4890 C   0  0  0  0  0  0  0  0  0  0  0  0
   58.4340   27.9720   46.3830 C   0  0  0  0  0  0  0  0  0  0  0  0
   59.2200   28.4800   47.4210 C   0  0  0  0  0  0  0  0  0  0  0  0
   59.3870   29.8670   47.5710 C   0  0  0  0  0  0  0  0  0  0  0  0
   60.2420   30.3960   48.6510 C   0  0  0  0  0  0  0  0  0  0  0  0
   61.4800   30.1680   48.6340 O   0  0  0  0  0  0  0  0  0  0  0  0
   59.6960   31.2030   49.6990 N   0  0  0  0  0  0  0  0  0  0  0  0
   60.2120   31.8650   50.9110 C   0  0  0  0  0  0  0  0  0  0  0  0
   58.9600   32.6130   51.2310 C   0  0  0  0  0  0  0  0  0  0  0  0
   58.4510   31.9360   50.0020 C   0  0  0  0  0  0  0  0  0  0  0  0
   58.7220   30.7350   46.6900 C   0  0  0  0  0  0  0  0  0  0  0  0
   58.8970   34.0470   46.3770 N   0  0  0  0  0  0  0  0  0  0  0  0
   59.1590   35.0870   47.3800 C   0  0  0  0  0  0  0  0  0  0  0  0
   60.0920   34.5500   48.4820 C   0  0  0  0  0  0  0  0  0  0  0  0
   61.0850   33.4780   47.9590 C   0  0  0  0  0  0  0  0  0  0  0  0
   62.3780   33.4770   48.7540 C   0  0  0  0  0  0  0  0  0  0  0  0
   62.4880   34.2000   49.9590 C   0  0  0  0  0  0  0  0  0  0  0  0
   63.6850   34.1910   50.6820 C   0  0  0  0  0  0  0  0  0  0  0  0
   64.7800   33.4620   50.2150 C   0  0  0  0  0  0  0  0  0  0  0  0
   64.6830   32.7410   49.0230 C   0  0  0  0  0  0  0  0  0  0  0  0
   63.4880   32.7460   48.2950 C   0  0  0  0  0  0  0  0  0  0  0  0
   61.3510   33.6370   46.4500 C   0  0  0  0  0  0  0  0  0  0  0  0
   60.0430   33.4630   45.6610 C   0  0  0  0  0  0  0  0  0  0  0  0
   57.1948   28.4385   44.6675 H   0  0  0  0  0  0  0  0  0  0  0  0
   58.3104   26.8849   46.2697 H   0  0  0  0  0  0  0  0  0  0  0  0
   59.7103   27.7905   48.1240 H   0  0  0  0  0  0  0  0  0  0  0  0
   60.4919   31.1498   51.6985 H   0  0  0  0  0  0  0  0  0  0  0  0
   61.1339   32.4555   50.8043 H   0  0  0  0  0  0  0  0  0  0  0  0
   58.4635   32.3279   52.1703 H   0  0  0  0  0  0  0  0  0  0  0  0
   58.9187   33.6998   51.3956 H   0  0  0  0  0  0  0  0  0  0  0  0
   57.6030   31.2659   50.2068 H   0  0  0  0  0  0  0  0  0  0  0  0
   58.0430   32.5794   49.2085 H   0  0  0  0  0  0  0  0  0  0  0  0
   58.8077   31.8230   46.8275 H   0  0  0  0  0  0  0  0  0  0  0  0
   59.6351   35.9498   46.8912 H   0  0  0  0  0  0  0  0  0  0  0  0
   58.2052   35.3892   47.8371 H   0  0  0  0  0  0  0  0  0  0  0  0
   60.6681   35.3909   48.8954 H   0  0  0  0  0  0  0  0  0  0  0  0
   59.4614   34.0727   49.2465 H   0  0  0  0  0  0  0  0  0  0  0  0
   60.6093   32.4971   48.1059 H   0  0  0  0  0  0  0  0  0  0  0  0
   61.6276   34.7745   50.3327 H   0  0  0  0  0  0  0  0  0  0  0  0
   63.7638   34.7594   51.6204 H   0  0  0  0  0  0  0  0  0  0  0  0
   65.7200   33.4555   50.7863 H   0  0  0  0  0  0  0  0  0  0  0  0
   65.5473   32.1682   48.6558 H   0  0  0  0  0  0  0  0  0  0  0  0
   63.4165   32.1745   47.3578 H   0  0  0  0  0  0  0  0  0  0  0  0
   61.7618   34.6389   46.2567 H   0  0  0  0  0  0  0  0  0  0  0  0
   62.0699   32.8690   46.1286 H   0  0  0  0  0  0  0  0  0  0  0  0
   60.1456   33.9606   44.6853 H   0  0  0  0  0  0  0  0  0  0  0  0
   59.8577   32.3861   45.5349 H   0  0  0  0  0  0  0  0  0  0  0  0
  1  2  2  0
  2  3  1  0
  3  4  1  0
  4  5  2  0
  4  6  2  0
  4  7  1  0
  7  8  2  0
  8  9  1  0
  9 10  2  0
 10 11  1  0
 11 12  1  0
 12 13  2  0
 12 14  1  0
 14 15  1  0
 15 16  1  0
 16 17  1  0
 11 18  2  0
  2 19  1  0
 19 20  1  0
 20 21  1  0
 21 22  1  0
 22 23  1  0
 23 24  2  0
 24 25  1  0
 25 26  2  0
 26 27  1  0
 27 28  2  0
 22 29  1  0
 29 30  1  0
 18  7  1  0
 30 19  1  0
 17 14  1  0
 28 23  1  0
  8 31  1  0
  9 32  1  0
 10 33  1  0
 15 34  1  0
 15 35  1  0
 16 36  1  0
 16 37  1  0
 17 38  1  0
 17 39  1  0
 18 40  1  0
 20 41  1  0
 20 42  1  0
 21 43  1  0
 21 44  1  0
 22 45  1  0
 24 46  1  0
 25 47  1  0
 26 48  1  0
 27 49  1  0
 28 50  1  0
 29 51  1  0
 29 52  1  0
 30 53  1  0
 30 54  1  0
M  CHG  1   3  -1
M  END
>  <UniqueID>  (87) 
84

>  <SMILES>  (87) 
O=C([N-]S(=O)(=O)c1cccc(C(=O)N2CCC2)c1)N1CCC(c2ccccc2)CC1

>  <Energy>  (87) 
110.30629781110554

>  <Genealogy>  (87) 
O=C([N-]S(=O)(=O)c1cccc(C(=O)N2CCC2)c1)N1CCC(c2ccccc2)CC1 (protonated)
O=C([N-]S(=O)(=O)c1cccc(C(=O)N2CCC2)c1)N1CCC(c2ccccc2)CC1 (3D coordinates assigned)
O=C([N-]S(=O)(=O)c1cccc(C(=O)N2CCC2)c1)N1CCC(c2ccccc2)CC1 (nonaromatic ring conformer: 110.30629781110554 kcal/mol)

>  <smiles>  (87) 
O=C(NS(=O)(=O)c1cccc(C(=O)N2CCC2)c1)N1CCC(c2ccccc2)CC1

>  <score_type>  (87) 
oracle

>  <origin>  (87) 
adg

>  <m_score__min__energy>  (87) 
-11.76

>  <m_primary>  (87) 
energy

$$$$
87:0
     RDKit          3D

 34 36  0  0  0  0  0  0  0  0999 V2000
   53.8900   24.1300   44.9110 C   0  0  0  0  0  0  0  0  0  0  0  0
   55.3470   24.2430   45.0990 N   0  0  0  0  0  0  0  0  0  0  0  0
   55.8820   25.4000   45.6180 C   0  0  0  0  0  0  0  0  0  0  0  0
   55.1390   26.3430   45.9970 O   0  0  0  0  0  0  0  0  0  0  0  0
   57.2680   25.4980   45.7280 C   0  0  0  0  0  0  0  0  0  0  0  0
   58.0500   24.4500   45.3700 C   0  0  0  0  0  0  0  0  0  0  0  0
   59.3470   24.7100   45.6190 N   0  0  0  0  0  0  0  0  0  0  0  0
   59.3070   25.9630   46.1340 C   0  0  0  0  0  0  0  0  0  0  0  0
   60.6610   26.7170   46.6660 S   0  0  0  0  0  0  0  0  0  0  0  0
   58.0520   26.4940   46.1960 N   0  0  0  0  0  0  0  0  0  0  0  0
   57.6550   27.8090   46.7280 C   0  0  0  0  0  0  0  0  0  0  0  0
   57.4880   28.8490   45.6370 C   0  0  0  0  0  0  0  0  0  0  0  0
   56.3080   28.8430   44.8670 C   0  0  0  0  0  0  0  0  0  0  0  0
   56.1050   29.7910   43.8620 C   0  0  0  0  0  0  0  0  0  0  0  0
   57.0640   30.7730   43.6250 C   0  0  0  0  0  0  0  0  0  0  0  0
   58.2240   30.8190   44.4000 C   0  0  0  0  0  0  0  0  0  0  0  0
   58.4390   29.8750   45.4120 C   0  0  0  0  0  0  0  0  0  0  0  0
   59.8920   30.0470   46.3870 Cl  0  0  0  0  0  0  0  0  0  0  0  0
   57.5390   23.2950   44.8600 N   0  0  0  0  0  0  0  0  0  0  0  0
   58.4270   22.2070   44.4320 C   0  0  0  0  0  0  0  0  0  0  0  0
   56.1750   23.2120   44.6880 C   0  0  0  0  0  0  0  0  0  0  0  0
   55.6790   22.1840   44.1480 O   0  0  0  0  0  0  0  0  0  0  0  0
   53.3955   24.0916   45.8928 H   0  0  0  0  0  0  0  0  0  0  0  0
   53.5239   25.0025   44.3499 H   0  0  0  0  0  0  0  0  0  0  0  0
   53.6628   23.2115   44.3499 H   0  0  0  0  0  0  0  0  0  0  0  0
   56.6991   27.7001   47.2612 H   0  0  0  0  0  0  0  0  0  0  0  0
   58.4550   28.1538   47.3997 H   0  0  0  0  0  0  0  0  0  0  0  0
   55.5373   28.0822   45.0599 H   0  0  0  0  0  0  0  0  0  0  0  0
   55.1868   29.7622   43.2569 H   0  0  0  0  0  0  0  0  0  0  0  0
   56.9070   31.5129   42.8263 H   0  0  0  0  0  0  0  0  0  0  0  0
   58.9742   31.6018   44.2147 H   0  0  0  0  0  0  0  0  0  0  0  0
   58.8399   21.7011   45.3172 H   0  0  0  0  0  0  0  0  0  0  0  0
   57.8574   21.4845   43.8291 H   0  0  0  0  0  0  0  0  0  0  0  0
   59.2490   22.6203   43.8291 H   0  0  0  0  0  0  0  0  0  0  0  0
  1  2  1  0
  2  3  1  0
  3  4  2  0
  3  5  1  0
  5  6  2  0
  6  7  1  0
  7  8  1  0
  8  9  2  0
  8 10  1  0
 10 11  1  0
 11 12  1  0
 12 13  2  0
 13 14  1  0
 14 15  2  0
 15 16  1  0
 16 17  2  0
 17 18  1  0
  6 19  1  0
 19 20  1  0
 19 21  1  0
 21 22  2  0
 21  2  1  0
 10  5  1  0
 17 12  1  0
  1 23  1  0
  1 24  1  0
  1 25  1  0
 11 26  1  0
 11 27  1  0
 13 28  1  0
 14 29  1  0
 15 30  1  0
 16 31  1  0
 20 32  1  0
 20 33  1  0
 20 34  1  0
M  CHG  1   7  -1
M  END
>  <UniqueID>  (88) 
85

>  <SMILES>  (88) 
Cn1c(=O)c2c([n-]c(=S)n2Cc2ccccc2Cl)n(C)c1=O

>  <Energy>  (88) 
86.1664049964496

>  <Genealogy>  (88) 
Cn1c(=O)c2c([n-]c(=S)n2Cc2ccccc2Cl)n(C)c1=O (protonated)
Cn1c(=O)c2c([n-]c(=S)n2Cc2ccccc2Cl)n(C)c1=O (3D coordinates assigned)
Cn1c(=O)c2c([n-]c(=S)n2Cc2ccccc2Cl)n(C)c1=O (optimized conformer: 86.1664049964496 kcal/mol)

>  <smiles>  (88) 
Cn1c(=O)c2c([nH]c(=S)n2Cc2ccccc2Cl)n(C)c1=O

>  <score_type>  (88) 
oracle

>  <origin>  (88) 
adg

>  <m_score__min__energy>  (88) 
-8.6300000000000008

>  <m_primary>  (88) 
energy

$$$$
88:0
     RDKit          3D

 54 56  0  0  0  0  0  0  0  0999 V2000
   60.7190   27.6630   48.3340 O   0  0  0  0  0  0  0  0  0  0  0  0
   60.2290   28.7790   48.6530 C   0  0  0  0  0  0  0  0  0  0  0  0
   58.8240   29.1210   48.2470 C   0  0  0  0  0  0  0  0  0  0  0  0
   58.8120   30.2110   47.2760 N   0  0  0  0  0  0  0  0  0  0  0  0
   59.2350   30.1180   45.9050 C   0  0  0  0  0  0  0  0  0  0  0  0
   60.3980   29.6990   45.6670 O   0  0  0  0  0  0  0  0  0  0  0  0
   58.3850   30.5840   44.7400 C   0  0  2  0  0  0  0  0  0  0  0  0
   57.4570   31.7420   45.1640 C   0  0  0  0  0  0  0  0  0  0  0  0
   58.2380   32.9180   45.6950 C   0  0  0  0  0  0  0  0  0  0  0  0
   58.8990   33.7900   44.8120 C   0  0  0  0  0  0  0  0  0  0  0  0
   59.5950   34.8970   45.3060 C   0  0  0  0  0  0  0  0  0  0  0  0
   59.6320   35.1460   46.6830 C   0  0  0  0  0  0  0  0  0  0  0  0
   58.9700   34.2870   47.5660 C   0  0  0  0  0  0  0  0  0  0  0  0
   58.2720   33.1800   47.0760 C   0  0  0  0  0  0  0  0  0  0  0  0
   57.6070   29.4700   44.2050 N   0  0  0  0  0  0  0  0  0  0  0  0
   56.6730   28.6870   44.9590 C   0  0  0  0  0  0  0  0  0  0  0  0
   55.4910   29.0970   45.1080 O   0  0  0  0  0  0  0  0  0  0  0  0
   57.1090   27.4020   45.5630 C   0  0  0  0  0  0  0  0  0  0  0  0
   58.4840   27.1140   45.6730 C   0  0  0  0  0  0  0  0  0  0  0  0
   58.9220   25.9290   46.2680 C   0  0  0  0  0  0  0  0  0  0  0  0
   60.2880   25.6730   46.3640 O   0  0  0  0  0  0  0  0  0  0  0  0
   57.9870   25.0090   46.7590 C   0  0  0  0  0  0  0  0  0  0  0  0
   56.6220   25.2760   46.6510 C   0  0  0  0  0  0  0  0  0  0  0  0
   56.1750   26.4640   46.0600 C   0  0  0  0  0  0  0  0  0  0  0  0
   54.8080   26.7050   45.9910 O   0  0  0  0  0  0  0  0  0  0  0  0
   61.0600   29.7320   49.3270 N   0  0  0  0  0  0  0  0  0  0  0  0
   60.6610   31.1060   49.6110 C   0  0  0  0  0  0  0  0  0  0  0  0
   61.5930   32.0550   48.9150 C   0  0  0  0  0  0  0  0  0  0  0  0
   62.3130   31.6430   47.7820 C   0  0  0  0  0  0  0  0  0  0  0  0
   63.1930   32.5260   47.1490 C   0  0  0  0  0  0  0  0  0  0  0  0
   63.3670   33.8210   47.6490 C   0  0  0  0  0  0  0  0  0  0  0  0
   62.6640   34.2320   48.7840 C   0  0  0  0  0  0  0  0  0  0  0  0
   61.7810   33.3530   49.4180 C   0  0  0  0  0  0  0  0  0  0  0  0
   58.3530   28.2340   47.7983 H   0  0  0  0  0  0  0  0  0  0  0  0
   58.2684   29.4410   49.1408 H   0  0  0  0  0  0  0  0  0  0  0  0
   59.0536   30.9573   43.9503 H   0  0  0  0  0  0  0  0  0  0  0  0
   56.8719   32.0676   44.2913 H   0  0  0  0  0  0  0  0  0  0  0  0
   56.7989   31.3774   45.9665 H   0  0  0  0  0  0  0  0  0  0  0  0
   58.8683   33.6004   43.7289 H   0  0  0  0  0  0  0  0  0  0  0  0
   60.1145   35.5736   44.6115 H   0  0  0  0  0  0  0  0  0  0  0  0
   60.1814   36.0167   47.0703 H   0  0  0  0  0  0  0  0  0  0  0  0
   58.9988   34.4831   48.6480 H   0  0  0  0  0  0  0  0  0  0  0  0
   57.7470   32.5108   47.7736 H   0  0  0  0  0  0  0  0  0  0  0  0
   59.2218   27.8318   45.2852 H   0  0  0  0  0  0  0  0  0  0  0  0
   60.9220   26.3340   46.7970 H   0  0  0  0  0  0  0  0  0  0  0  0
   58.3291   24.0756   47.2299 H   0  0  0  0  0  0  0  0  0  0  0  0
   55.8914   24.5478   47.0330 H   0  0  0  0  0  0  0  0  0  0  0  0
   59.6347   31.2710   49.2513 H   0  0  0  0  0  0  0  0  0  0  0  0
   60.7036   31.2820   50.6960 H   0  0  0  0  0  0  0  0  0  0  0  0
   62.1843   30.6228   47.3914 H   0  0  0  0  0  0  0  0  0  0  0  0
   63.7491   32.2022   46.2569 H   0  0  0  0  0  0  0  0  0  0  0  0
   64.0575   34.5157   47.1483 H   0  0  0  0  0  0  0  0  0  0  0  0
   62.8054   35.2487   49.1794 H   0  0  0  0  0  0  0  0  0  0  0  0
   61.2317   33.6788   50.3136 H   0  0  0  0  0  0  0  0  0  0  0  0
  1  2  2  0
  2  3  1  0
  3  4  1  0
  4  5  1  0
  5  6  2  0
  5  7  1  0
  7  8  1  0
  8  9  1  0
  9 10  2  0
 10 11  1  0
 11 12  2  0
 12 13  1  0
 13 14  2  0
  7 15  1  0
 15 16  1  0
 16 17  2  0
 16 18  1  0
 18 19  2  0
 19 20  1  0
 20 21  1  0
 20 22  2  0
 22 23  1  0
 23 24  2  0
 24 25  1  0
  2 26  1  0
 26 27  1  0
 27 28  1  0
 28 29  2  0
 29 30  1  0
 30 31  2  0
 31 32  1  0
 32 33  2  0
 14  9  1  0
 24 18  1  0
 33 28  1  0
  3 34  1  0
  3 35  1  0
  7 36  1  6
  8 37  1  0
  8 38  1  0
 10 39  1  0
 11 40  1  0
 12 41  1  0
 13 42  1  0
 14 43  1  0
 19 44  1  0
 21 45  1  0
 22 46  1  0
 23 47  1  0
 27 48  1  0
 27 49  1  0
 29 50  1  0
 30 51  1  0
 31 52  1  0
 32 53  1  0
 33 54  1  0
M  CHG  4   4  -1  15  -1  25  -1  26  -1
M  END
>  <UniqueID>  (89) 
86

>  <SMILES>  (89) 
O=C(C[N-]C(=O)[C@H](Cc1ccccc1)[N-]C(=O)c1cc(O)ccc1[O-])[N-]Cc1ccccc1

>  <Energy>  (89) 
50.32999886142291

>  <Genealogy>  (89) 
O=C(C[N-]C(=O)C(Cc1ccccc1)[N-]C(=O)c1cc(O)ccc1[O-])[N-]Cc1ccccc1 (protonated)
O=C(C[N-]C(=O)[C@H](Cc1ccccc1)[N-]C(=O)c1cc(O)ccc1[O-])[N-]Cc1ccccc1 (chirality)
O=C(C[N-]C(=O)[C@H](Cc1ccccc1)[N-]C(=O)c1cc(O)ccc1[O-])[N-]Cc1ccccc1 (3D coordinates assigned)
O=C(C[N-]C(=O)[C@H](Cc1ccccc1)[N-]C(=O)c1cc(O)ccc1[O-])[N-]Cc1ccccc1 (optimized conformer: 50.32999886142291 kcal/mol)

>  <smiles>  (89) 
O=C(CNC(=O)C(Cc1ccccc1)NC(=O)c1cc(O)ccc1O)NCc1ccccc1

>  <score_type>  (89) 
oracle

>  <origin>  (89) 
adg

>  <m_score__min__energy>  (89) 
-16.949999999999999

>  <m_primary>  (89) 
energy

$$$$
89:0
     RDKit          3D

 66 69  0  0  0  0  0  0  0  0999 V2000
   54.3770   24.0580   46.5280 O   0  0  0  0  0  0  0  0  0  0  0  0
   54.0620   23.5900   45.4010 C   0  0  0  0  0  0  0  0  0  0  0  0
   54.8960   23.9090   44.2010 C   0  0  0  0  0  0  0  0  0  0  0  0
   56.2270   23.2030   44.2800 C   0  0  0  0  0  0  0  0  0  0  0  0
   56.5050   22.1790   43.3570 C   0  0  0  0  0  0  0  0  0  0  0  0
   57.7220   21.4950   43.4010 C   0  0  0  0  0  0  0  0  0  0  0  0
   58.6780   21.8300   44.3590 C   0  0  0  0  0  0  0  0  0  0  0  0
   58.4220   22.8510   45.2750 C   0  0  0  0  0  0  0  0  0  0  0  0
   57.2000   23.5460   45.2490 C   0  0  0  0  0  0  0  0  0  0  0  0
   56.9710   24.6230   46.1720 N   0  0  0  0  0  0  0  0  0  0  0  0
   57.4220   25.9730   45.9600 C   0  0  0  0  0  0  0  0  0  0  0  0
   58.7900   26.2100   45.7670 C   0  0  0  0  0  0  0  0  0  0  0  0
   59.2600   27.5000   45.5180 C   0  0  0  0  0  0  0  0  0  0  0  0
   58.3650   28.5770   45.4330 C   0  0  0  0  0  0  0  0  0  0  0  0
   58.8700   29.9660   45.1270 C   0  0  0  0  0  0  0  0  0  0  0  0
   59.7340   30.5560   46.2610 C   0  0  0  0  0  0  0  0  0  0  0  0
   59.1710   30.3370   47.6040 N   0  0  0  0  0  0  0  0  0  0  0  0
   60.1780   30.3920   48.6750 C   0  0  0  0  0  0  0  0  0  0  0  0
   59.7770   31.4350   49.7330 C   0  0  2  0  0  0  0  0  0  0  0  0
   58.3850   31.4140   49.9270 O   0  0  0  0  0  0  0  0  0  0  0  0
   60.2310   32.8590   49.3540 C   0  0  0  0  0  0  0  0  0  0  0  0
   59.1420   33.6460   48.8700 O   0  0  0  0  0  0  0  0  0  0  0  0
   58.8110   33.8470   47.5200 C   0  0  0  0  0  0  0  0  0  0  0  0
   57.6200   33.2830   47.0440 C   0  0  0  0  0  0  0  0  0  0  0  0
   57.2380   33.4530   45.7100 C   0  0  0  0  0  0  0  0  0  0  0  0
   58.0420   34.1930   44.8400 C   0  0  0  0  0  0  0  0  0  0  0  0
   59.2320   34.7620   45.3040 C   0  0  0  0  0  0  0  0  0  0  0  0
   59.6180   34.5930   46.6380 C   0  0  0  0  0  0  0  0  0  0  0  0
   56.9950   28.3460   45.6330 C   0  0  0  0  0  0  0  0  0  0  0  0
   56.5180   27.0530   45.8740 C   0  0  0  0  0  0  0  0  0  0  0  0
   55.1470   26.8530   45.9920 O   0  0  0  0  0  0  0  0  0  0  0  0
   52.9030   22.7660   45.2590 N   0  0  0  0  0  0  0  0  0  0  0  0
   51.5560   23.2770   45.4710 C   0  0  0  0  0  0  0  0  0  0  0  0
   51.2040   24.4470   44.5710 C   0  0  0  0  0  0  0  0  0  0  0  0
   50.6480   23.0600   44.2760 C   0  0  0  0  0  0  0  0  0  0  0  0
   54.3659   23.5819   43.2944 H   0  0  0  0  0  0  0  0  0  0  0  0
   55.0704   24.9946   44.1673 H   0  0  0  0  0  0  0  0  0  0  0  0
   55.7579   21.9146   42.5942 H   0  0  0  0  0  0  0  0  0  0  0  0
   57.9265   20.6909   42.6788 H   0  0  0  0  0  0  0  0  0  0  0  0
   59.6351   21.2888   44.3928 H   0  0  0  0  0  0  0  0  0  0  0  0
   59.1831   23.1145   46.0242 H   0  0  0  0  0  0  0  0  0  0  0  0
   56.3520   24.4380   46.9940 H   0  0  0  0  0  0  0  0  0  0  0  0
   59.4999   25.3709   45.8123 H   0  0  0  0  0  0  0  0  0  0  0  0
   60.3384   27.6735   45.3876 H   0  0  0  0  0  0  0  0  0  0  0  0
   59.4758   29.9247   44.2098 H   0  0  0  0  0  0  0  0  0  0  0  0
   57.9914   30.6174   45.0094 H   0  0  0  0  0  0  0  0  0  0  0  0
   60.7287   30.0882   46.2201 H   0  0  0  0  0  0  0  0  0  0  0  0
   59.7772   31.6436   46.1020 H   0  0  0  0  0  0  0  0  0  0  0  0
   58.4170   31.0360   47.7970 H   0  0  0  0  0  0  0  0  0  0  0  0
   60.2554   29.4035   49.1512 H   0  0  0  0  0  0  0  0  0  0  0  0
   61.1471   30.6781   48.2402 H   0  0  0  0  0  0  0  0  0  0  0  0
   60.2888   31.1636   50.6681 H   0  0  0  0  0  0  0  0  0  0  0  0
   57.9620   31.8010   49.1170 H   0  0  0  0  0  0  0  0  0  0  0  0
   60.6565   33.3467   50.2434 H   0  0  0  0  0  0  0  0  0  0  0  0
   60.9810   32.7796   48.5533 H   0  0  0  0  0  0  0  0  0  0  0  0
   56.9807   32.7021   47.7251 H   0  0  0  0  0  0  0  0  0  0  0  0
   56.3028   33.0033   45.3450 H   0  0  0  0  0  0  0  0  0  0  0  0
   57.7394   34.3280   43.7911 H   0  0  0  0  0  0  0  0  0  0  0  0
   59.8660   35.3437   44.6187 H   0  0  0  0  0  0  0  0  0  0  0  0
   60.5541   35.0437   46.9994 H   0  0  0  0  0  0  0  0  0  0  0  0
   56.2897   29.1895   45.5999 H   0  0  0  0  0  0  0  0  0  0  0  0
   51.4893   23.0810   46.5513 H   0  0  0  0  0  0  0  0  0  0  0  0
   50.5366   25.2413   44.9365 H   0  0  0  0  0  0  0  0  0  0  0  0
   51.7790   25.1927   44.0024 H   0  0  0  0  0  0  0  0  0  0  0  0
   49.5786   22.8521   44.4280 H   0  0  0  0  0  0  0  0  0  0  0  0
   50.6545   22.3878   43.4053 H   0  0  0  0  0  0  0  0  0  0  0  0
  1  2  2  0
  2  3  1  0
  3  4  1  0
  4  5  2  0
  5  6  1  0
  6  7  2  0
  7  8  1  0
  8  9  2  0
  9 10  1  0
 10 11  1  0
 11 12  2  0
 12 13  1  0
 13 14  2  0
 14 15  1  0
 15 16  1  0
 16 17  1  0
 17 18  1  0
 18 19  1  0
 19 20  1  0
 19 21  1  0
 21 22  1  0
 22 23  1  0
 23 24  2  0
 24 25  1  0
 25 26  2  0
 26 27  1  0
 27 28  2  0
 14 29  1  0
 29 30  2  0
 30 31  1  0
  2 32  1  0
 32 33  1  0
 33 34  1  0
 34 35  1  0
  9  4  1  0
 30 11  1  0
 35 33  1  0
 28 23  1  0
  3 36  1  0
  3 37  1  0
  5 38  1  0
  6 39  1  0
  7 40  1  0
  8 41  1  0
 10 42  1  0
 12 43  1  0
 13 44  1  0
 15 45  1  0
 15 46  1  0
 16 47  1  0
 16 48  1  0
 17 49  1  0
 18 50  1  0
 18 51  1  0
 19 52  1  1
 20 53  1  0
 21 54  1  0
 21 55  1  0
 24 56  1  0
 25 57  1  0
 26 58  1  0
 27 59  1  0
 28 60  1  0
 29 61  1  0
 33 62  1  0
 34 63  1  0
 34 64  1  0
 35 65  1  0
 35 66  1  0
M  CHG  2  31  -1  32  -1
M  END
>  <UniqueID>  (90) 
87

>  <SMILES>  (90) 
O=C(Cc1ccccc1Nc1ccc(CCNC[C@H](O)COc2ccccc2)cc1[O-])[N-]C1CC1

>  <Energy>  (90) 
335.802241275204

>  <Genealogy>  (90) 
O=C(Cc1ccccc1Nc1ccc(CCNCC(O)COc2ccccc2)cc1[O-])[N-]C1CC1 (protonated)
O=C(Cc1ccccc1Nc1ccc(CCNC[C@H](O)COc2ccccc2)cc1[O-])[N-]C1CC1 (chirality)
O=C(Cc1ccccc1Nc1ccc(CCNC[C@H](O)COc2ccccc2)cc1[O-])[N-]C1CC1 (3D coordinates assigned)
O=C(Cc1ccccc1Nc1ccc(CCNC[C@H](O)COc2ccccc2)cc1[O-])[N-]C1CC1 (nonaromatic ring conformer: 335.802241275204 kcal/mol)

>  <smiles>  (90) 
O=C(Cc1ccccc1Nc1ccc(CCNCC(O)COc2ccccc2)cc1O)NC1CC1

>  <score_type>  (90) 
oracle

>  <origin>  (90) 
adg

>  <m_score__min__energy>  (90) 
-14.06

>  <m_primary>  (90) 
energy

$$$$
90:0
     RDKit          3D

 58 61  0  0  0  0  0  0  0  0999 V2000
   60.3410   29.5340   47.2350 C   0  0  0  0  0  0  0  0  0  0  0  0
   60.9660   29.3910   46.0630 C   0  0  0  0  0  0  0  0  0  0  0  0
   60.5330   28.3650   45.0500 C   0  0  0  0  0  0  0  0  0  0  0  0
   59.1170   27.9750   45.2560 N   0  0  0  0  0  0  0  0  0  0  0  0
   58.8430   26.7310   45.7840 C   0  0  0  0  0  0  0  0  0  0  0  0
   59.7910   25.9670   46.1220 O   0  0  0  0  0  0  0  0  0  0  0  0
   57.5160   26.2970   45.9840 C   0  0  0  0  0  0  0  0  0  0  0  0
   57.2300   24.9510   46.5510 C   0  0  0  0  0  0  0  0  0  0  0  0
   57.8880   24.5360   47.5440 O   0  0  0  0  0  0  0  0  0  0  0  0
   56.1950   24.1240   45.9990 N   0  0  0  0  0  0  0  0  0  0  0  0
   56.1720   22.6950   46.1510 C   0  0  0  0  0  0  0  0  0  0  0  0
   57.3740   22.0240   46.4100 C   0  0  0  0  0  0  0  0  0  0  0  0
   57.3900   20.6390   46.5830 C   0  0  0  0  0  0  0  0  0  0  0  0
   56.2010   19.9100   46.5170 C   0  0  0  0  0  0  0  0  0  0  0  0
   54.9920   20.5670   46.2890 C   0  0  0  0  0  0  0  0  0  0  0  0
   54.9620   21.9600   46.0980 C   0  0  0  0  0  0  0  0  0  0  0  0
   53.6550   22.6410   45.9820 C   0  0  0  0  0  0  0  0  0  0  0  0
   53.4500   23.3600   44.9650 O   0  0  0  0  0  0  0  0  0  0  0  0
   52.6080   22.4650   46.9630 N   0  0  0  0  0  0  0  0  0  0  0  0
   52.8530   21.7410   48.2210 C   0  0  0  0  0  0  0  0  0  0  0  0
   51.6880   21.9300   49.2050 C   0  0  0  0  0  0  0  0  0  0  0  0
   50.3660   21.6030   48.6170 N   0  0  0  0  0  0  0  0  0  0  0  0
   49.9710   20.2180   48.9220 C   0  0  0  0  0  0  0  0  0  0  0  0
   50.2420   21.8790   47.1630 C   0  0  0  0  0  0  0  0  0  0  0  0
   51.2440   22.9310   46.6780 C   0  0  0  0  0  0  0  0  0  0  0  0
   56.4640   27.1690   45.6680 C   0  0  0  0  0  0  0  0  0  0  0  0
   55.1420   26.7630   45.8480 O   0  0  0  0  0  0  0  0  0  0  0  0
   56.7370   28.4470   45.1620 C   0  0  0  0  0  0  0  0  0  0  0  0
   55.6830   29.3310   44.8600 C   0  0  0  0  0  0  0  0  0  0  0  0
   55.9470   30.6040   44.3610 C   0  0  0  0  0  0  0  0  0  0  0  0
   57.2600   31.0140   44.1590 C   0  0  0  0  0  0  0  0  0  0  0  0
   58.3200   30.1540   44.4530 C   0  0  0  0  0  0  0  0  0  0  0  0
   58.0840   28.8480   44.9570 C   0  0  0  0  0  0  0  0  0  0  0  0
   60.6841   30.2943   47.9521 H   0  0  0  0  0  0  0  0  0  0  0  0
   59.4833   28.8915   47.4829 H   0  0  0  0  0  0  0  0  0  0  0  0
   61.8220   30.0419   45.8314 H   0  0  0  0  0  0  0  0  0  0  0  0
   60.6461   28.7870   44.0405 H   0  0  0  0  0  0  0  0  0  0  0  0
   61.1622   27.4705   45.1681 H   0  0  0  0  0  0  0  0  0  0  0  0
   55.3460   24.5950   45.6130 H   0  0  0  0  0  0  0  0  0  0  0  0
   58.3129   22.5931   46.4776 H   0  0  0  0  0  0  0  0  0  0  0  0
   58.3416   20.1206   46.7718 H   0  0  0  0  0  0  0  0  0  0  0  0
   56.2178   18.8176   46.6448 H   0  0  0  0  0  0  0  0  0  0  0  0
   54.0551   19.9914   46.2584 H   0  0  0  0  0  0  0  0  0  0  0  0
   52.9677   20.6692   48.0020 H   0  0  0  0  0  0  0  0  0  0  0  0
   53.7677   22.1420   48.6820 H   0  0  0  0  0  0  0  0  0  0  0  0
   51.8551   21.2766   50.0740 H   0  0  0  0  0  0  0  0  0  0  0  0
   51.6666   22.9936   49.4850 H   0  0  0  0  0  0  0  0  0  0  0  0
   49.9315   20.0797   50.0126 H   0  0  0  0  0  0  0  0  0  0  0  0
   48.9794   20.0161   48.4907 H   0  0  0  0  0  0  0  0  0  0  0  0
   50.7069   19.5234   48.4907 H   0  0  0  0  0  0  0  0  0  0  0  0
   50.4168   20.9441   46.6103 H   0  0  0  0  0  0  0  0  0  0  0  0
   49.2307   22.2725   46.9826 H   0  0  0  0  0  0  0  0  0  0  0  0
   51.1250   23.0809   45.5948 H   0  0  0  0  0  0  0  0  0  0  0  0
   51.0619   23.8830   47.1982 H   0  0  0  0  0  0  0  0  0  0  0  0
   54.6421   29.0131   45.0197 H   0  0  0  0  0  0  0  0  0  0  0  0
   55.1161   31.2856   44.1265 H   0  0  0  0  0  0  0  0  0  0  0  0
   57.4648   32.0207   43.7657 H   0  0  0  0  0  0  0  0  0  0  0  0
   59.3537   30.4936   44.2916 H   0  0  0  0  0  0  0  0  0  0  0  0
  1  2  2  0
  2  3  1  0
  3  4  1  0
  4  5  1  0
  5  6  2  0
  5  7  1  0
  7  8  1  0
  8  9  2  0
  8 10  1  0
 10 11  1  0
 11 12  2  0
 12 13  1  0
 13 14  2  0
 14 15  1  0
 15 16  2  0
 16 17  1  0
 17 18  2  0
 17 19  1  0
 19 20  1  0
 20 21  1  0
 21 22  1  0
 22 23  1  0
 22 24  1  0
 24 25  1  0
  7 26  2  0
 26 27  1  0
 26 28  1  0
 28 29  2  0
 29 30  1  0
 30 31  2  0
 31 32  1  0
 32 33  2  0
 33  4  1  0
 16 11  1  0
 25 19  1  0
 33 28  1  0
  1 34  1  0
  1 35  1  0
  2 36  1  0
  3 37  1  0
  3 38  1  0
 10 39  1  0
 12 40  1  0
 13 41  1  0
 14 42  1  0
 15 43  1  0
 20 44  1  0
 20 45  1  0
 21 46  1  0
 21 47  1  0
 23 48  1  0
 23 49  1  0
 23 50  1  0
 24 51  1  0
 24 52  1  0
 25 53  1  0
 25 54  1  0
 29 55  1  0
 30 56  1  0
 31 57  1  0
 32 58  1  0
M  CHG  1  27  -1
M  END
>  <UniqueID>  (91) 
88

>  <SMILES>  (91) 
C=CCn1c(=O)c(C(=O)Nc2ccccc2C(=O)N2CCN(C)CC2)c([O-])c2ccccc21

>  <Energy>  (91) 
93.8838955906833

>  <Genealogy>  (91) 
C=CCn1c(=O)c(C(=O)Nc2ccccc2C(=O)N2CCN(C)CC2)c([O-])c2ccccc21 (protonated)
C=CCn1c(=O)c(C(=O)Nc2ccccc2C(=O)N2CCN(C)CC2)c([O-])c2ccccc21 (3D coordinates assigned)
C=CCn1c(=O)c(C(=O)Nc2ccccc2C(=O)N2CCN(C)CC2)c([O-])c2ccccc21 (nonaromatic ring conformer: 93.8838955906833 kcal/mol)

>  <smiles>  (91) 
C=CCn1c(=O)c(C(=O)Nc2ccccc2C(=O)N2CCN(C)CC2)c(O)c2ccccc21

>  <score_type>  (91) 
oracle

>  <origin>  (91) 
adg

>  <m_score__min__energy>  (91) 
-12.23

>  <m_primary>  (91) 
energy

$$$$
91:0
     RDKit          3D

 51 54  0  0  0  0  0  0  0  0999 V2000
   59.5420   23.7990   45.6190 C   0  0  0  0  0  0  0  0  0  0  0  0
   59.0310   24.9960   45.9320 C   0  0  0  0  0  0  0  0  0  0  0  0
   59.6590   25.8550   46.7590 N   0  0  0  0  0  0  0  0  0  0  0  0
   58.8800   26.9510   46.8610 C   0  0  0  0  0  0  0  0  0  0  0  0
   59.1700   28.1560   47.6870 C   0  0  0  0  0  0  0  0  0  0  0  0
   59.5030   27.9800   48.8920 O   0  0  0  0  0  0  0  0  0  0  0  0
   59.0740   29.5130   47.1830 N   0  0  0  0  0  0  0  0  0  0  0  0
   59.1050   29.5440   45.7070 C   0  0  0  0  0  0  0  0  0  0  0  0
   58.8690   30.9780   45.1840 C   0  0  0  0  0  0  0  0  0  0  0  0
   59.5260   32.0440   45.9980 N   0  0  0  0  0  0  0  0  0  0  0  0
   58.5300   32.9170   46.6960 C   0  0  0  0  0  0  0  0  0  0  0  0
   59.1190   34.2250   47.2800 C   0  0  0  0  0  0  0  0  0  0  0  0
   59.6270   35.1660   46.1630 C   0  0  0  0  0  0  0  0  0  0  0  0
   59.1870   34.7790   44.8730 O   0  0  0  0  0  0  0  0  0  0  0  0
   57.7870   34.5800   44.8790 C   0  0  0  0  0  0  0  0  0  0  0  0
   57.4040   33.3360   45.7100 C   0  0  0  0  0  0  0  0  0  0  0  0
   60.6030   31.4820   46.8470 C   0  0  0  0  0  0  0  0  0  0  0  0
   60.0670   30.4160   47.8200 C   0  0  0  0  0  0  0  0  0  0  0  0
   57.7370   26.7930   46.0960 C   0  0  0  0  0  0  0  0  0  0  0  0
   57.8240   25.5450   45.4900 C   0  0  0  0  0  0  0  0  0  0  0  0
   56.9310   24.9660   44.6580 C   0  0  0  0  0  0  0  0  0  0  0  0
   55.5460   24.5770   45.0080 C   0  0  0  0  0  0  0  0  0  0  0  0
   54.9860   23.3690   44.8100 N   0  0  0  0  0  0  0  0  0  0  0  0
   53.7390   23.5120   45.3050 C   0  0  0  0  0  0  0  0  0  0  0  0
   52.8960   22.5780   45.2980 O   0  0  0  0  0  0  0  0  0  0  0  0
   53.4670   24.7330   45.8110 N   0  0  0  0  0  0  0  0  0  0  0  0
   54.6210   25.3920   45.6180 C   0  0  0  0  0  0  0  0  0  0  0  0
   54.8240   26.7150   45.9910 O   0  0  0  0  0  0  0  0  0  0  0  0
   58.9957   23.1284   44.9394 H   0  0  0  0  0  0  0  0  0  0  0  0
   60.5082   23.4860   46.0414 H   0  0  0  0  0  0  0  0  0  0  0  0
   60.5670   25.6730   47.2380 H   0  0  0  0  0  0  0  0  0  0  0  0
   58.1250   29.8700   47.4540 H   0  0  0  0  0  0  0  0  0  0  0  0
   60.0868   29.1902   45.3593 H   0  0  0  0  0  0  0  0  0  0  0  0
   58.3058   28.8926   45.3236 H   0  0  0  0  0  0  0  0  0  0  0  0
   59.2588   31.0389   44.1572 H   0  0  0  0  0  0  0  0  0  0  0  0
   57.7857   31.1602   45.2410 H   0  0  0  0  0  0  0  0  0  0  0  0
   58.1594   32.3042   47.5310 H   0  0  0  0  0  0  0  0  0  0  0  0
   58.3379   34.7429   47.8559 H   0  0  0  0  0  0  0  0  0  0  0  0
   59.9711   33.9624   47.9241 H   0  0  0  0  0  0  0  0  0  0  0  0
   59.2616   36.1831   46.3679 H   0  0  0  0  0  0  0  0  0  0  0  0
   60.7259   35.1174   46.1651 H   0  0  0  0  0  0  0  0  0  0  0  0
   57.3004   35.4657   45.3136 H   0  0  0  0  0  0  0  0  0  0  0  0
   57.4527   34.4235   43.8428 H   0  0  0  0  0  0  0  0  0  0  0  0
   56.4947   33.5616   46.2864 H   0  0  0  0  0  0  0  0  0  0  0  0
   57.2399   32.5019   45.0119 H   0  0  0  0  0  0  0  0  0  0  0  0
   61.3637   31.0222   46.1990 H   0  0  0  0  0  0  0  0  0  0  0  0
   61.0327   32.3019   47.4412 H   0  0  0  0  0  0  0  0  0  0  0  0
   60.9120   29.8119   48.1821 H   0  0  0  0  0  0  0  0  0  0  0  0
   59.5619   30.9398   48.6449 H   0  0  0  0  0  0  0  0  0  0  0  0
   56.9161   27.5173   45.9882 H   0  0  0  0  0  0  0  0  0  0  0  0
   57.2625   24.7656   43.6285 H   0  0  0  0  0  0  0  0  0  0  0  0
  1  2  2  0
  2  3  1  0
  3  4  1  0
  4  5  1  0
  5  6  2  0
  5  7  1  0
  7  8  1  0
  8  9  1  0
  9 10  1  0
 10 11  1  0
 11 12  1  0
 12 13  1  0
 13 14  1  0
 14 15  1  0
 15 16  1  0
 10 17  1  0
 17 18  1  0
  4 19  2  0
 19 20  1  0
 20 21  2  3
 21 22  1  0
 22 23  1  0
 23 24  1  0
 24 25  2  0
 24 26  1  0
 26 27  1  0
 27 28  1  0
 20  2  1  0
 27 22  2  0
 18  7  1  0
 16 11  1  0
  1 29  1  0
  1 30  1  0
  3 31  1  0
  7 32  1  0
  8 33  1  0
  8 34  1  0
  9 35  1  0
  9 36  1  0
 11 37  1  0
 12 38  1  0
 12 39  1  0
 13 40  1  0
 13 41  1  0
 15 42  1  0
 15 43  1  0
 16 44  1  0
 16 45  1  0
 17 46  1  0
 17 47  1  0
 18 48  1  0
 18 49  1  0
 19 50  1  0
 21 51  1  0
M  CHG  4   7   1  23  -1  26  -1  28  -1
M  END
>  <UniqueID>  (92) 
89

>  <SMILES>  (92) 
C=c1[nH]c(C(=O)[NH+]2CCN(C3CCOCC3)CC2)cc1=Cc1[n-]c(=O)[n-]c1[O-]

>  <Energy>  (92) 
145.33086002882052

>  <Genealogy>  (92) 
C=c1[nH]c(C(=O)[NH+]2CCN(C3CCOCC3)CC2)cc1=Cc1[n-]c(=O)[n-]c1[O-] (protonated)
C=c1[nH]c(C(=O)[NH+]2CCN(C3CCOCC3)CC2)cc1=Cc1[n-]c(=O)[n-]c1[O-] (3D coordinates assigned)
C=c1[nH]c(C(=O)[NH+]2CCN(C3CCOCC3)CC2)cc1=Cc1[n-]c(=O)[n-]c1[O-] (nonaromatic ring conformer: 145.33086002882052 kcal/mol)

>  <smiles>  (92) 
C=c1[nH]c(C(=O)N2CCN(C3CCOCC3)CC2)cc1=Cc1[nH]c(=O)[nH]c1O

>  <score_type>  (92) 
oracle

>  <origin>  (92) 
adg

>  <m_score__min__energy>  (92) 
-16.73

>  <m_primary>  (92) 
energy

$$$$
92:0
     RDKit          3D

 42 44  0  0  0  0  0  0  0  0999 V2000
   55.5350   29.2620   45.1790 O   0  0  0  0  0  0  0  0  0  0  0  0
   56.6690   28.9400   44.7330 C   0  0  0  0  0  0  0  0  0  0  0  0
   56.9400   29.1390   43.2580 C   0  0  0  0  0  0  0  0  0  0  0  0
   56.6540   30.5520   42.7230 C   0  0  0  0  0  0  0  0  0  0  0  0
   57.1550   31.6300   43.6400 C   0  0  0  0  0  0  0  0  0  0  0  0
   58.1480   32.5420   43.3650 C   0  0  0  0  0  0  0  0  0  0  0  0
   58.2940   33.3560   44.4250 N   0  0  0  0  0  0  0  0  0  0  0  0
   57.3760   32.9140   45.3100 C   0  0  0  0  0  0  0  0  0  0  0  0
   56.6550   31.8650   44.8650 N   0  0  0  0  0  0  0  0  0  0  0  0
   57.6560   28.3500   45.6680 C   0  0  0  0  0  0  0  0  0  0  0  0
   58.1920   29.1660   46.6960 C   0  0  0  0  0  0  0  0  0  0  0  0
   57.8460   30.5130   46.8330 O   0  0  0  0  0  0  0  0  0  0  0  0
   59.0740   28.6230   47.6330 C   0  0  0  0  0  0  0  0  0  0  0  0
   59.4180   27.2760   47.5810 C   0  0  0  0  0  0  0  0  0  0  0  0
   58.9090   26.4630   46.5700 C   0  0  0  0  0  0  0  0  0  0  0  0
   58.0570   26.9860   45.5820 C   0  0  0  0  0  0  0  0  0  0  0  0
   57.6060   26.0580   44.4640 C   0  0  0  0  0  0  0  0  0  0  0  0
   56.7070   24.8880   44.9510 C   0  0  0  0  0  0  0  0  0  0  0  0
   55.6640   25.3150   45.9600 C   0  0  0  0  0  0  0  0  0  0  0  0
   55.5490   24.6940   47.0500 O   0  0  0  0  0  0  0  0  0  0  0  0
   54.7700   26.3380   45.6650 O   0  0  0  0  0  0  0  0  0  0  0  0
   57.4810   23.6240   45.3590 C   0  0  0  0  0  0  0  0  0  0  0  0
   56.8750   22.8640   44.1880 C   0  0  0  0  0  0  0  0  0  0  0  0
   56.0900   24.1020   43.7800 C   0  0  0  0  0  0  0  0  0  0  0  0
   58.0009   28.9140   43.0738 H   0  0  0  0  0  0  0  0  0  0  0  0
   56.2490   28.4670   42.7280 H   0  0  0  0  0  0  0  0  0  0  0  0
   57.1457   30.6646   41.7455 H   0  0  0  0  0  0  0  0  0  0  0  0
   55.5625   30.6632   42.6439 H   0  0  0  0  0  0  0  0  0  0  0  0
   58.7271   32.5962   42.4314 H   0  0  0  0  0  0  0  0  0  0  0  0
   57.2296   33.3671   46.3016 H   0  0  0  0  0  0  0  0  0  0  0  0
   57.0490   30.9310   46.3680 H   0  0  0  0  0  0  0  0  0  0  0  0
   59.4999   29.2652   48.4180 H   0  0  0  0  0  0  0  0  0  0  0  0
   60.0929   26.8520   48.3391 H   0  0  0  0  0  0  0  0  0  0  0  0
   59.1779   25.3967   46.5449 H   0  0  0  0  0  0  0  0  0  0  0  0
   57.0398   26.6488   43.7289 H   0  0  0  0  0  0  0  0  0  0  0  0
   58.5127   25.6096   44.0316 H   0  0  0  0  0  0  0  0  0  0  0  0
   58.5744   23.7316   45.3052 H   0  0  0  0  0  0  0  0  0  0  0  0
   57.3939   23.2272   46.3812 H   0  0  0  0  0  0  0  0  0  0  0  0
   57.6105   22.5334   43.4399 H   0  0  0  0  0  0  0  0  0  0  0  0
   56.3554   21.9092   44.3566 H   0  0  0  0  0  0  0  0  0  0  0  0
   56.3562   24.4943   42.7874 H   0  0  0  0  0  0  0  0  0  0  0  0
   54.9977   24.0514   43.6608 H   0  0  0  0  0  0  0  0  0  0  0  0
  1  2  2  0
  2  3  1  0
  3  4  1  0
  4  5  1  0
  5  6  2  0
  6  7  1  0
  7  8  1  0
  8  9  2  0
  2 10  1  0
 10 11  2  0
 11 12  1  0
 11 13  1  0
 13 14  2  0
 14 15  1  0
 15 16  2  0
 16 17  1  0
 17 18  1  0
 18 19  1  0
 19 20  2  0
 19 21  1  0
 18 22  1  0
 22 23  1  0
 23 24  1  0
  9  5  1  0
 16 10  1  0
 24 18  1  0
  3 25  1  0
  3 26  1  0
  4 27  1  0
  4 28  1  0
  6 29  1  0
  8 30  1  0
 12 31  1  0
 13 32  1  0
 14 33  1  0
 15 34  1  0
 17 35  1  0
 17 36  1  0
 22 37  1  0
 22 38  1  0
 23 39  1  0
 23 40  1  0
 24 41  1  0
 24 42  1  0
M  CHG  2   7  -1  21  -1
M  END
>  <UniqueID>  (93) 
90

>  <SMILES>  (93) 
O=C(CCc1c[n-]cn1)c1c(O)cccc1CC1(C(=O)[O-])CCC1

>  <Energy>  (93) 
138.64404230959454

>  <Genealogy>  (93) 
O=C(CCc1c[n-]cn1)c1c(O)cccc1CC1(C(=O)[O-])CCC1 (protonated)
O=C(CCc1c[n-]cn1)c1c(O)cccc1CC1(C(=O)[O-])CCC1 (3D coordinates assigned)
O=C(CCc1c[n-]cn1)c1c(O)cccc1CC1(C(=O)[O-])CCC1 (nonaromatic ring conformer: 138.64404230959454 kcal/mol)

>  <smiles>  (93) 
O=C(CCc1c[nH]cn1)c1c(O)cccc1CC1(C(=O)O)CCC1

>  <score_type>  (93) 
oracle

>  <origin>  (93) 
adg

>  <m_score__min__energy>  (93) 
-12

>  <m_primary>  (93) 
energy

$$$$
93:0
     RDKit          3D

 52 56  0  0  0  0  0  0  0  0999 V2000
   57.2910   34.1020   44.8850 C   0  0  0  0  0  0  0  0  0  0  0  0
   57.9660   32.8680   45.2890 N   0  0  0  0  0  0  0  0  0  0  0  0
   57.4270   31.6260   45.2580 C   0  0  0  0  0  0  0  0  0  0  0  0
   56.2770   31.3510   44.8220 O   0  0  0  0  0  0  0  0  0  0  0  0
   58.3240   30.7330   45.7910 C   0  0  0  0  0  0  0  0  0  0  0  0
   58.2640   29.3600   46.0050 C   0  0  0  0  0  0  0  0  0  0  0  0
   59.3740   28.7350   46.6220 C   0  0  0  0  0  0  0  0  0  0  0  0
   59.3490   27.2720   46.8620 C   0  0  0  0  0  0  0  0  0  0  0  0
   59.2460   26.8430   48.0440 O   0  0  0  0  0  0  0  0  0  0  0  0
   59.4620   26.3380   45.7760 N   0  0  0  0  0  0  0  0  0  0  0  0
   59.3700   24.8930   45.9760 C   0  0  0  0  0  0  0  0  0  0  0  0
   57.9840   24.4090   45.6460 C   0  0  0  0  0  0  0  0  0  0  0  0
   57.7900   23.1530   45.0150 C   0  0  0  0  0  0  0  0  0  0  0  0
   56.4950   22.7120   44.6870 C   0  0  0  0  0  0  0  0  0  0  0  0
   55.4260   23.5460   44.9990 C   0  0  0  0  0  0  0  0  0  0  0  0
   55.6050   24.7500   45.5980 C   0  0  0  0  0  0  0  0  0  0  0  0
   56.8680   25.2240   45.9400 C   0  0  0  0  0  0  0  0  0  0  0  0
   54.3780   25.3590   45.7830 O   0  0  0  0  0  0  0  0  0  0  0  0
   53.3660   24.4820   45.2680 C   0  0  0  0  0  0  0  0  0  0  0  0
   54.0780   23.3370   44.7770 O   0  0  0  0  0  0  0  0  0  0  0  0
   60.5030   29.5190   46.9850 C   0  0  0  0  0  0  0  0  0  0  0  0
   60.5260   30.9080   46.7560 C   0  0  0  0  0  0  0  0  0  0  0  0
   59.4090   31.4900   46.1510 C   0  0  0  0  0  0  0  0  0  0  0  0
   59.1810   32.7900   45.8400 N   0  0  0  0  0  0  0  0  0  0  0  0
   60.0580   33.9320   46.1280 C   0  0  0  0  0  0  0  0  0  0  0  0
   60.5330   33.8840   47.5560 C   0  0  0  0  0  0  0  0  0  0  0  0
   59.6100   33.8830   48.6160 C   0  0  0  0  0  0  0  0  0  0  0  0
   60.0590   33.8260   49.9400 C   0  0  0  0  0  0  0  0  0  0  0  0
   61.4280   33.7730   50.2150 C   0  0  0  0  0  0  0  0  0  0  0  0
   61.8600   33.7180   51.4980 F   0  0  0  0  0  0  0  0  0  0  0  0
   62.3520   33.7780   49.1660 C   0  0  0  0  0  0  0  0  0  0  0  0
   61.9080   33.8340   47.8410 C   0  0  0  0  0  0  0  0  0  0  0  0
   56.9845   34.6624   45.7806 H   0  0  0  0  0  0  0  0  0  0  0  0
   57.9785   34.7166   44.2854 H   0  0  0  0  0  0  0  0  0  0  0  0
   56.4026   33.8546   44.2854 H   0  0  0  0  0  0  0  0  0  0  0  0
   57.3808   28.7776   45.7039 H   0  0  0  0  0  0  0  0  0  0  0  0
   59.6860   26.6780   44.8140 H   0  0  0  0  0  0  0  0  0  0  0  0
   60.0962   24.3888   45.3215 H   0  0  0  0  0  0  0  0  0  0  0  0
   59.5892   24.6621   47.0289 H   0  0  0  0  0  0  0  0  0  0  0  0
   58.6583   22.5197   44.7806 H   0  0  0  0  0  0  0  0  0  0  0  0
   56.3329   21.7393   44.1996 H   0  0  0  0  0  0  0  0  0  0  0  0
   56.9936   26.2035   46.4245 H   0  0  0  0  0  0  0  0  0  0  0  0
   52.6666   24.1893   46.0650 H   0  0  0  0  0  0  0  0  0  0  0  0
   52.7657   24.9625   44.4814 H   0  0  0  0  0  0  0  0  0  0  0  0
   61.3722   29.0328   47.4521 H   0  0  0  0  0  0  0  0  0  0  0  0
   61.3961   31.5160   47.0444 H   0  0  0  0  0  0  0  0  0  0  0  0
   60.9280   33.8991   45.4556 H   0  0  0  0  0  0  0  0  0  0  0  0
   59.4934   34.8630   45.9716 H   0  0  0  0  0  0  0  0  0  0  0  0
   58.5315   33.9272   48.4041 H   0  0  0  0  0  0  0  0  0  0  0  0
   59.3327   33.8229   50.7662 H   0  0  0  0  0  0  0  0  0  0  0  0
   63.4296   33.7378   49.3830 H   0  0  0  0  0  0  0  0  0  0  0  0
   62.6383   33.8389   47.0184 H   0  0  0  0  0  0  0  0  0  0  0  0
  1  2  1  0
  2  3  1  0
  3  4  2  0
  3  5  1  0
  5  6  2  0
  6  7  1  0
  7  8  1  0
  8  9  2  0
  8 10  1  0
 10 11  1  0
 11 12  1  0
 12 13  2  0
 13 14  1  0
 14 15  2  0
 15 16  1  0
 16 17  2  0
 16 18  1  0
 18 19  1  0
 19 20  1  0
  7 21  2  0
 21 22  1  0
 22 23  2  0
 23 24  1  0
 24 25  1  0
 25 26  1  0
 26 27  2  0
 27 28  1  0
 28 29  2  0
 29 30  1  0
 29 31  1  0
 31 32  2  0
 24  2  1  0
 32 26  1  0
 23  5  1  0
 17 12  1  0
 20 15  1  0
  1 33  1  0
  1 34  1  0
  1 35  1  0
  6 36  1  0
 10 37  1  0
 11 38  1  0
 11 39  1  0
 13 40  1  0
 14 41  1  0
 17 42  1  0
 19 43  1  0
 19 44  1  0
 21 45  1  0
 22 46  1  0
 25 47  1  0
 25 48  1  0
 27 49  1  0
 28 50  1  0
 31 51  1  0
 32 52  1  0
M  END
>  <UniqueID>  (94) 
91

>  <SMILES>  (94) 
Cn1c(=O)c2cc(C(=O)NCc3ccc4c(c3)OCO4)ccc2n1Cc1ccc(F)cc1

>  <Energy>  (94) 
127.30783767700979

>  <Genealogy>  (94) 
Cn1c(=O)c2cc(C(=O)NCc3ccc4c(c3)OCO4)ccc2n1Cc1ccc(F)cc1 (3D coordinates assigned)
Cn1c(=O)c2cc(C(=O)NCc3ccc4c(c3)OCO4)ccc2n1Cc1ccc(F)cc1 (nonaromatic ring conformer: 127.30783767700979 kcal/mol)

>  <smiles>  (94) 
Cn1c(=O)c2cc(C(=O)NCc3ccc4c(c3)OCO4)ccc2n1Cc1ccc(F)cc1

>  <score_type>  (94) 
oracle

>  <origin>  (94) 
adg

>  <m_score__min__energy>  (94) 
-9.2100000000000009

>  <m_primary>  (94) 
energy

$$$$
