0:0
     RDKit          3D

 38 41  0  0  0  0  0  0  0  0999 V2000
   59.2440   28.9880   49.2540 C   0  0  0  0  0  0  0  0  0  0  0  0
   58.6120   28.8410   47.9100 C   0  0  0  0  0  0  0  0  0  0  0  0
   58.1120   27.6230   47.5190 N   0  0  0  0  0  0  0  0  0  0  0  0
   57.5620   27.4410   46.2830 C   0  0  0  0  0  0  0  0  0  0  0  0
   57.1120   26.3150   45.9420 O   0  0  0  0  0  0  0  0  0  0  0  0
   57.5190   28.5280   45.4210 C   0  0  0  0  0  0  0  0  0  0  0  0
   57.0610   28.5900   44.1510 N   0  0  0  0  0  0  0  0  0  0  0  0
   57.3000   29.8690   43.7770 C   0  0  0  0  0  0  0  0  0  0  0  0
   57.0460   30.4030   42.5580 N   0  0  0  0  0  0  0  0  0  0  0  0
   57.3900   31.7080   42.3290 C   0  0  0  0  0  0  0  0  0  0  0  0
   57.1140   32.3350   41.0000 C   0  0  0  0  0  0  0  0  0  0  0  0
   57.9680   32.4560   43.3230 N   0  0  0  0  0  0  0  0  0  0  0  0
   58.2330   31.9380   44.5600 C   0  0  0  0  0  0  0  0  0  0  0  0
   58.8490   32.7830   45.6040 C   0  0  0  0  0  0  0  0  0  0  0  0
   59.9900   32.3140   46.2780 C   0  0  0  0  0  0  0  0  0  0  0  0
   60.5820   33.0740   47.2870 C   0  0  0  0  0  0  0  0  0  0  0  0
   60.0370   34.3070   47.6440 C   0  0  0  0  0  0  0  0  0  0  0  0
   58.8990   34.7850   46.9910 C   0  0  0  0  0  0  0  0  0  0  0  0
   58.2990   34.0400   45.9620 C   0  0  0  0  0  0  0  0  0  0  0  0
   57.0760   34.5880   45.2750 C   0  0  0  0  0  0  0  0  0  0  0  0
   57.8860   30.6060   44.7790 C   0  0  0  0  0  0  0  0  0  0  0  0
   58.0290   29.7320   45.8320 C   0  0  0  0  0  0  0  0  0  0  0  0
   58.5870   29.9060   47.0530 N   0  0  0  0  0  0  0  0  0  0  0  0
   58.4896   28.8125   50.0351 H   0  0  0  0  0  0  0  0  0  0  0  0
   60.0576   28.2551   49.3588 H   0  0  0  0  0  0  0  0  0  0  0  0
   59.6506   30.0047   49.3588 H   0  0  0  0  0  0  0  0  0  0  0  0
   56.6410   27.8220   43.5790 H   0  0  0  0  0  0  0  0  0  0  0  0
   56.6030   29.8240   41.8090 H   0  0  0  0  0  0  0  0  0  0  0  0
   56.6749   33.3325   41.1493 H   0  0  0  0  0  0  0  0  0  0  0  0
   58.0540   32.4288   40.4365 H   0  0  0  0  0  0  0  0  0  0  0  0
   56.4100   31.7051   40.4365 H   0  0  0  0  0  0  0  0  0  0  0  0
   60.4201   31.3385   46.0072 H   0  0  0  0  0  0  0  0  0  0  0  0
   61.4796   32.7003   47.8015 H   0  0  0  0  0  0  0  0  0  0  0  0
   60.5042   34.9039   48.4411 H   0  0  0  0  0  0  0  0  0  0  0  0
   58.4684   35.7536   47.2849 H   0  0  0  0  0  0  0  0  0  0  0  0
   56.3465   34.9149   46.0306 H   0  0  0  0  0  0  0  0  0  0  0  0
   57.3614   35.4443   44.6463 H   0  0  0  0  0  0  0  0  0  0  0  0
   56.6268   33.8051   44.6463 H   0  0  0  0  0  0  0  0  0  0  0  0
  1  2  1  0
  2  3  2  0
  3  4  1  0
  4  5  2  0
  4  6  1  0
  6  7  1  0
  7  8  1  0
  8  9  2  0
  9 10  1  0
 10 11  1  0
 10 12  2  0
 12 13  1  0
 13 14  1  0
 14 15  2  0
 15 16  1  0
 16 17  2  0
 17 18  1  0
 18 19  2  0
 19 20  1  0
 13 21  2  0
 21 22  1  0
 22 23  1  0
 23  2  1  0
 22  6  2  0
 21  8  1  0
 19 14  1  0
  1 24  1  0
  1 25  1  0
  1 26  1  0
  7 27  1  0
  9 28  1  0
 11 29  1  0
 11 30  1  0
 11 31  1  0
 15 32  1  0
 16 33  1  0
 17 34  1  0
 18 35  1  0
 20 36  1  0
 20 37  1  0
 20 38  1  0
M  CHG  2   9   1  23  -1
M  END
>  <UniqueID>  (1) 
1

>  <SMILES>  (1) 
Cc1nc(=O)c2[nH]c3[nH+]c(C)nc(-c4ccccc4C)c3c2[n-]1

>  <Energy>  (1) 
92.47737316605735

>  <Genealogy>  (1) 
Cc1nc(=O)c2[nH]c3[nH+]c(C)nc(-c4ccccc4C)c3c2[n-]1 (protonated)
Cc1nc(=O)c2[nH]c3[nH+]c(C)nc(-c4ccccc4C)c3c2[n-]1 (3D coordinates assigned)
Cc1nc(=O)c2[nH]c3[nH+]c(C)nc(-c4ccccc4C)c3c2[n-]1 (optimized conformer: 92.47737316605735 kcal/mol)

>  <smiles>  (1) 
Cc1nc(-c2ccccc2C)c2c(n1)[nH]c1c(=O)nc(C)[nH]c12

>  <score_type>  (1) 
oracle

>  <origin>  (1) 
adg

>  <m_score__min__energy>  (1) 
-7.8300000000000001

>  <m_primary>  (1) 
energy

$$$$
1:0
     RDKit          3D

 30 32  0  0  0  0  0  0  0  0999 V2000
   59.6180   25.5340   46.3630 C   0  0  0  0  0  0  0  0  0  0  0  0
   58.3080   26.2060   46.1040 C   0  0  0  0  0  0  0  0  0  0  0  0
   57.1160   25.4780   46.1540 C   0  0  0  0  0  0  0  0  0  0  0  0
   55.9170   26.1470   45.9040 C   0  0  0  0  0  0  0  0  0  0  0  0
   54.8240   25.5240   45.9410 O   0  0  0  0  0  0  0  0  0  0  0  0
   55.9290   27.4760   45.6210 N   0  0  0  0  0  0  0  0  0  0  0  0
   57.0960   28.1750   45.5740 C   0  0  0  0  0  0  0  0  0  0  0  0
   57.0950   29.5780   45.2730 N   0  0  0  0  0  0  0  0  0  0  0  0
   57.8670   30.4570   45.8920 N   0  0  0  0  0  0  0  0  0  0  0  0
   57.6150   31.6780   45.3660 C   0  0  0  0  0  0  0  0  0  0  0  0
   58.2960   32.9190   45.8120 C   0  0  0  0  0  0  0  0  0  0  0  0
   58.6390   33.9070   44.8700 C   0  0  0  0  0  0  0  0  0  0  0  0
   59.2810   35.0810   45.2760 C   0  0  0  0  0  0  0  0  0  0  0  0
   59.5880   35.2830   46.6230 C   0  0  0  0  0  0  0  0  0  0  0  0
   59.2530   34.3100   47.5670 C   0  0  0  0  0  0  0  0  0  0  0  0
   58.6110   33.1340   47.1680 C   0  0  0  0  0  0  0  0  0  0  0  0
   56.6430   31.5680   44.3770 C   0  0  0  0  0  0  0  0  0  0  0  0
   56.3500   30.2260   44.3570 C   0  0  0  0  0  0  0  0  0  0  0  0
   55.5090   29.6780   43.5970 O   0  0  0  0  0  0  0  0  0  0  0  0
   58.2720   27.5350   45.8160 N   0  0  0  0  0  0  0  0  0  0  0  0
   59.7794   25.4512   47.4479 H   0  0  0  0  0  0  0  0  0  0  0  0
   59.6093   24.5290   45.9158 H   0  0  0  0  0  0  0  0  0  0  0  0
   60.4292   26.1273   45.9158 H   0  0  0  0  0  0  0  0  0  0  0  0
   57.1227   24.4026   46.3851 H   0  0  0  0  0  0  0  0  0  0  0  0
   58.4004   33.7545   43.8071 H   0  0  0  0  0  0  0  0  0  0  0  0
   59.5448   35.8473   44.5323 H   0  0  0  0  0  0  0  0  0  0  0  0
   60.0931   36.2073   46.9402 H   0  0  0  0  0  0  0  0  0  0  0  0
   59.4951   34.4694   48.6281 H   0  0  0  0  0  0  0  0  0  0  0  0
   58.3503   32.3721   47.9174 H   0  0  0  0  0  0  0  0  0  0  0  0
   56.2108   32.3673   43.7570 H   0  0  0  0  0  0  0  0  0  0  0  0
  1  2  1  0
  2  3  2  0
  3  4  1  0
  4  5  2  0
  4  6  1  0
  6  7  1  0
  7  8  1  0
  8  9  1  0
  9 10  1  0
 10 11  1  0
 11 12  2  0
 12 13  1  0
 13 14  2  0
 14 15  1  0
 15 16  2  0
 10 17  2  0
 17 18  1  0
 18 19  2  0
  7 20  2  0
 20  2  1  0
 18  8  1  0
 16 11  1  0
  1 21  1  0
  1 22  1  0
  1 23  1  0
  3 24  1  0
 12 25  1  0
 13 26  1  0
 14 27  1  0
 15 28  1  0
 16 29  1  0
 17 30  1  0
M  CHG  2   6  -1   9  -1
M  END
>  <UniqueID>  (2) 
2

>  <SMILES>  (2) 
Cc1cc(=O)[n-]c(-n2[n-]c(-c3ccccc3)cc2=O)n1

>  <Energy>  (2) 
66.46811673807981

>  <Genealogy>  (2) 
Cc1cc(=O)[n-]c(-n2[n-]c(-c3ccccc3)cc2=O)n1 (protonated)
Cc1cc(=O)[n-]c(-n2[n-]c(-c3ccccc3)cc2=O)n1 (3D coordinates assigned)
Cc1cc(=O)[n-]c(-n2[n-]c(-c3ccccc3)cc2=O)n1 (optimized conformer: 66.46811673807981 kcal/mol)

>  <smiles>  (2) 
Cc1cc(=O)[nH]c(-n2[nH]c(-c3ccccc3)cc2=O)n1

>  <score_type>  (2) 
oracle

>  <origin>  (2) 
adg

>  <m_score__min__energy>  (2) 
-10.35

>  <m_primary>  (2) 
energy

$$$$
2:0
     RDKit          3D

 45 48  0  0  0  0  0  0  0  0999 V2000
   62.1644   30.1217   47.8633 H   0  0  0  0  0  0  0  0  0  0  0  0
   61.0830   30.0630   48.0560 C   0  0  0  0  0  0  0  0  0  0  0  0
   60.2040   29.5570   47.1490 N   0  0  0  0  0  0  0  0  0  0  0  0
   58.9370   29.5810   47.6170 C   0  0  0  0  0  0  0  0  0  0  0  0
   57.9270   29.2130   46.8860 N   0  0  0  0  0  0  0  0  0  0  0  0
   57.5710   29.7740   45.6130 C   0  0  0  0  0  0  0  0  0  0  0  0
   58.3190   30.8540   45.1260 C   0  0  0  0  0  0  0  0  0  0  0  0
   59.1640   31.2428   45.7132 H   0  0  0  0  0  0  0  0  0  0  0  0
   57.9980   31.4400   43.8990 C   0  0  0  0  0  0  0  0  0  0  0  0
   58.5815   32.2960   43.5291 H   0  0  0  0  0  0  0  0  0  0  0  0
   56.9380   30.9400   43.1430 C   0  0  0  0  0  0  0  0  0  0  0  0
   56.6666   31.4219   42.1922 H   0  0  0  0  0  0  0  0  0  0  0  0
   56.2200   29.8280   43.5910 C   0  0  0  0  0  0  0  0  0  0  0  0
   55.3998   29.4234   42.9798 H   0  0  0  0  0  0  0  0  0  0  0  0
   56.5420   29.2220   44.8230 C   0  0  0  0  0  0  0  0  0  0  0  0
   55.8820   28.0660   45.2720 O   0  0  0  0  0  0  0  0  0  0  0  0
   56.5390   26.8610   45.6500 C   0  0  0  0  0  0  0  0  0  0  0  0
   56.5764   26.7924   46.7472 H   0  0  0  0  0  0  0  0  0  0  0  0
   55.9856   25.9998   45.2474 H   0  0  0  0  0  0  0  0  0  0  0  0
   57.5627   26.8597   45.2474 H   0  0  0  0  0  0  0  0  0  0  0  0
   58.8490   30.2460   49.1700 S   0  0  0  0  0  0  0  0  0  0  0  0
   60.5090   30.5010   49.2470 C   0  0  0  0  0  0  0  0  0  0  0  0
   61.2340   31.1220   50.4060 C   0  0  0  0  0  0  0  0  0  0  0  0
   60.6909   30.8815   51.3318 H   0  0  0  0  0  0  0  0  0  0  0  0
   62.2554   30.7139   50.4192 H   0  0  0  0  0  0  0  0  0  0  0  0
   61.3380   32.5860   50.2860 N   0  0  0  0  0  0  0  0  0  0  0  0
   62.1090   32.9030   50.9250 H   0  0  0  0  0  0  0  0  0  0  0  0
   60.4820   33.0450   50.6600 H   0  0  0  0  0  0  0  0  0  0  0  0
   61.6710   33.0010   48.9360 C   0  0  0  0  0  0  0  0  0  0  0  0
   63.0270   32.9980   48.5560 C   0  0  0  0  0  0  0  0  0  0  0  0
   63.7879   32.6654   49.2774 H   0  0  0  0  0  0  0  0  0  0  0  0
   63.4240   33.4070   47.2870 C   0  0  0  0  0  0  0  0  0  0  0  0
   64.4893   33.3914   47.0132 H   0  0  0  0  0  0  0  0  0  0  0  0
   62.4750   33.8360   46.3630 C   0  0  0  0  0  0  0  0  0  0  0  0
   62.7951   34.1742   45.3664 H   0  0  0  0  0  0  0  0  0  0  0  0
   61.1160   33.8390   46.6960 C   0  0  0  0  0  0  0  0  0  0  0  0
   60.1700   34.2570   45.7390 C   0  0  0  0  0  0  0  0  0  0  0  0
   60.5071   34.6092   44.7529 H   0  0  0  0  0  0  0  0  0  0  0  0
   58.8130   34.2260   46.0360 C   0  0  0  0  0  0  0  0  0  0  0  0
   58.0796   34.5480   45.2820 H   0  0  0  0  0  0  0  0  0  0  0  0
   58.3780   33.7890   47.2840 C   0  0  0  0  0  0  0  0  0  0  0  0
   57.3017   33.7613   47.5095 H   0  0  0  0  0  0  0  0  0  0  0  0
   59.3000   33.3860   48.2500 C   0  0  0  0  0  0  0  0  0  0  0  0
   58.9421   33.0487   49.2339 H   0  0  0  0  0  0  0  0  0  0  0  0
   60.6890   33.4050   47.9820 C   0  0  0  0  0  0  0  0  0  0  0  0
  1  2  1  0
  2  3  1  0
  3  4  1  0
  4  5  2  0
  5  6  1  0
  6  7  2  0
  7  8  1  0
  7  9  1  0
  9 10  1  0
  9 11  2  0
 11 12  1  0
 11 13  1  0
 13 14  1  0
 13 15  2  0
 15 16  1  0
 16 17  1  0
 17 18  1  0
 17 19  1  0
 17 20  1  0
  4 21  1  0
 21 22  1  0
 22 23  1  0
 23 24  1  0
 23 25  1  0
 23 26  1  0
 26 27  1  0
 26 28  1  0
 26 29  1  0
 29 30  2  0
 30 31  1  0
 30 32  1  0
 32 33  1  0
 32 34  2  0
 34 35  1  0
 34 36  1  0
 36 37  2  0
 37 38  1  0
 37 39  1  0
 39 40  1  0
 39 41  2  0
 41 42  1  0
 41 43  1  0
 43 44  1  0
 43 45  2  0
 22  2  2  0
 45 29  1  0
 15  6  1  0
 45 36  1  0
M  CHG  2   3  -1  26   1
M  END
>  <UniqueID>  (3) 
3

>  <SMILES>  (3) 
COc1ccccc1/N=c1/[n-]cc(C[NH2+]c2cccc3ccccc23)s1

>  <Energy>  (3) 
92.52327029028652

>  <Genealogy>  (3) 
COc1ccccc1N=c1[n-]cc(C[NH2+]c2cccc3ccccc23)s1 (protonated)
COc1ccccc1/N=c1/[n-]cc(C[NH2+]c2cccc3ccccc23)s1 (cis-trans isomerization)
COc1ccccc1/N=c1/[n-]cc(C[NH2+]c2cccc3ccccc23)s1 (3D coordinates assigned)
COc1ccccc1/N=c1/[n-]cc(C[NH2+]c2cccc3ccccc23)s1 (optimized conformer: 92.52327029028652 kcal/mol)

>  <smiles>  (3) 
COc1ccccc1N=c1[nH]cc(CNc2cccc3ccccc23)s1

>  <score_type>  (3) 
oracle

>  <origin>  (3) 
adg

>  <m_score__min__energy>  (3) 
-9.1199999999999992

>  <m_primary>  (3) 
energy

$$$$
3:0
     RDKit          3D

 25 25  0  0  0  0  0  0  0  0999 V2000
   56.4022   29.0698   42.2569 H   0  0  0  0  0  0  0  0  0  0  0  0
   56.5890   29.8110   43.0480 C   0  0  0  0  0  0  0  0  0  0  0  0
   56.3540   29.3850   44.4410 C   0  0  0  0  0  0  0  0  0  0  0  0
   55.1710   29.3530   44.8740 O   0  0  0  0  0  0  0  0  0  0  0  0
   57.4780   29.0950   45.3880 C   0  0  0  0  0  0  0  0  0  0  0  0
   57.1183   29.1878   46.4234 H   0  0  0  0  0  0  0  0  0  0  0  0
   57.8461   28.0725   45.2180 H   0  0  0  0  0  0  0  0  0  0  0  0
   58.2949   29.8118   45.2180 H   0  0  0  0  0  0  0  0  0  0  0  0
   57.0110   31.0250   42.6640 C   0  0  0  0  0  0  0  0  0  0  0  0
   56.5485   31.4716   41.7715 H   0  0  0  0  0  0  0  0  0  0  0  0
   58.0600   31.8040   43.3640 C   0  0  0  0  0  0  0  0  0  0  0  0
   59.0479   31.3380   43.4940 H   0  0  0  0  0  0  0  0  0  0  0  0
   57.8800   33.0420   43.8490 C   0  0  0  0  0  0  0  0  0  0  0  0
   57.3542   33.7660   43.2092 H   0  0  0  0  0  0  0  0  0  0  0  0
   58.3330   33.5080   45.1750 C   0  0  0  0  0  0  0  0  0  0  0  0
   57.9580   32.7910   46.3210 C   0  0  0  0  0  0  0  0  0  0  0  0
   57.3006   31.9140   46.2275 H   0  0  0  0  0  0  0  0  0  0  0  0
   58.4160   33.1860   47.5810 C   0  0  0  0  0  0  0  0  0  0  0  0
   58.1052   32.6295   48.4775 H   0  0  0  0  0  0  0  0  0  0  0  0
   59.2690   34.2880   47.7040 C   0  0  0  0  0  0  0  0  0  0  0  0
   59.7140   34.6700   48.9260 F   0  0  0  0  0  0  0  0  0  0  0  0
   59.6710   34.9890   46.5630 C   0  0  0  0  0  0  0  0  0  0  0  0
   60.3464   35.8520   46.6584 H   0  0  0  0  0  0  0  0  0  0  0  0
   59.2160   34.5950   45.3010 C   0  0  0  0  0  0  0  0  0  0  0  0
   59.5498   35.1371   44.4039 H   0  0  0  0  0  0  0  0  0  0  0  0
  1  2  1  0
  2  3  1  0
  3  4  2  0
  3  5  1  0
  5  6  1  0
  5  7  1  0
  5  8  1  0
  2  9  2  0
  9 10  1  0
  9 11  1  0
 11 12  1  0
 11 13  2  0
 13 14  1  0
 13 15  1  0
 15 16  2  0
 16 17  1  0
 16 18  1  0
 18 19  1  0
 18 20  2  0
 20 21  1  0
 20 22  1  0
 22 23  1  0
 22 24  2  0
 24 25  1  0
 24 15  1  0
M  END
>  <UniqueID>  (4) 
4

>  <SMILES>  (4) 
CC(=O)/C=C\C=C/c1ccc(F)cc1

>  <Energy>  (4) 
33.87052704098879

>  <Genealogy>  (4) 
CC(=O)/C=C\C=C/c1ccc(F)cc1 (cis-trans isomerization)
CC(=O)/C=C\C=C/c1ccc(F)cc1 (3D coordinates assigned)
CC(=O)/C=C\C=C/c1ccc(F)cc1 (optimized conformer: 33.87052704098879 kcal/mol)

>  <smiles>  (4) 
CC(=O)C=CC=Cc1ccc(F)cc1

>  <score_type>  (4) 
oracle

>  <origin>  (4) 
adg

>  <m_score__min__energy>  (4) 
-6.2699999999999996

>  <m_primary>  (4) 
energy

$$$$
4:0
     RDKit          3D

 39 39  0  0  0  0  0  0  0  0999 V2000
   57.3870   33.4680   46.6080 C   0  0  0  0  0  0  0  0  0  0  0  0
   58.0500   33.6340   45.3060 N   0  0  0  0  0  0  0  0  0  0  0  0
   59.1370   34.6240   45.3820 C   0  0  0  0  0  0  0  0  0  0  0  0
   58.4670   32.3520   44.6900 C   0  0  0  0  0  0  0  0  0  0  0  0
   57.3550   31.6050   43.9300 C   0  0  0  0  0  0  0  0  0  0  0  0
   56.5420   30.8190   44.8530 N   0  0  0  0  0  0  0  0  0  0  0  0
   56.3160   29.4070   44.7510 C   0  0  0  0  0  0  0  0  0  0  0  0
   55.1440   28.9940   44.5500 O   0  0  0  0  0  0  0  0  0  0  0  0
   57.4200   28.4040   44.9470 C   0  0  0  0  0  0  0  0  0  0  0  0
   57.4250   27.8500   46.3740 C   0  0  0  0  0  0  0  0  0  0  0  0
   57.7920   26.4350   46.3670 N   0  0  0  0  0  0  0  0  0  0  0  0
   56.3680   25.4420   46.3250 S   0  0  0  0  0  0  0  0  0  0  0  0
   55.1730   26.2930   45.9920 O   0  0  0  0  0  0  0  0  0  0  0  0
   56.1700   24.8160   47.6760 O   0  0  0  0  0  0  0  0  0  0  0  0
   56.5610   24.1650   45.1230 C   0  0  0  0  0  0  0  0  0  0  0  0
   55.6460   24.0600   44.0650 C   0  0  0  0  0  0  0  0  0  0  0  0
   55.7930   23.0560   43.1030 C   0  0  0  0  0  0  0  0  0  0  0  0
   56.8590   22.1560   43.1890 C   0  0  0  0  0  0  0  0  0  0  0  0
   57.7810   22.2620   44.2340 C   0  0  0  0  0  0  0  0  0  0  0  0
   57.6380   23.2650   45.1990 C   0  0  0  0  0  0  0  0  0  0  0  0
   58.5520   23.3600   46.1970 F   0  0  0  0  0  0  0  0  0  0  0  0
   58.1125   33.6496   47.4147 H   0  0  0  0  0  0  0  0  0  0  0  0
   56.5582   34.1863   46.6916 H   0  0  0  0  0  0  0  0  0  0  0  0
   56.9944   32.4438   46.6916 H   0  0  0  0  0  0  0  0  0  0  0  0
   59.3681   34.8345   46.4366 H   0  0  0  0  0  0  0  0  0  0  0  0
   60.0323   34.2246   44.8831 H   0  0  0  0  0  0  0  0  0  0  0  0
   58.8228   35.5526   44.8831 H   0  0  0  0  0  0  0  0  0  0  0  0
   59.2824   32.5624   43.9823 H   0  0  0  0  0  0  0  0  0  0  0  0
   58.7683   31.6952   45.5193 H   0  0  0  0  0  0  0  0  0  0  0  0
   56.7139   32.3364   43.4161 H   0  0  0  0  0  0  0  0  0  0  0  0
   57.8187   30.9263   43.1990 H   0  0  0  0  0  0  0  0  0  0  0  0
   57.2776   27.5726   44.2409 H   0  0  0  0  0  0  0  0  0  0  0  0
   58.3812   28.9081   44.7681 H   0  0  0  0  0  0  0  0  0  0  0  0
   58.1530   28.4108   46.9786 H   0  0  0  0  0  0  0  0  0  0  0  0
   56.4177   27.9565   46.8030 H   0  0  0  0  0  0  0  0  0  0  0  0
   54.8094   24.7704   43.9918 H   0  0  0  0  0  0  0  0  0  0  0  0
   55.0696   22.9744   42.2784 H   0  0  0  0  0  0  0  0  0  0  0  0
   56.9723   21.3641   42.4340 H   0  0  0  0  0  0  0  0  0  0  0  0
   58.6213   21.5550   44.2980 H   0  0  0  0  0  0  0  0  0  0  0  0
  1  2  1  0
  2  3  1  0
  2  4  1  0
  4  5  1  0
  5  6  1  0
  6  7  1  0
  7  8  2  0
  7  9  1  0
  9 10  1  0
 10 11  1  0
 11 12  1  0
 12 13  2  0
 12 14  2  0
 12 15  1  0
 15 16  2  0
 16 17  1  0
 17 18  2  0
 18 19  1  0
 19 20  2  0
 20 21  1  0
 20 15  1  0
  1 22  1  0
  1 23  1  0
  1 24  1  0
  3 25  1  0
  3 26  1  0
  3 27  1  0
  4 28  1  0
  4 29  1  0
  5 30  1  0
  5 31  1  0
  9 32  1  0
  9 33  1  0
 10 34  1  0
 10 35  1  0
 16 36  1  0
 17 37  1  0
 18 38  1  0
 19 39  1  0
M  CHG  2   6  -1  11  -1
M  END
>  <UniqueID>  (5) 
5

>  <SMILES>  (5) 
CN(C)CC[N-]C(=O)CC[N-]S(=O)(=O)c1ccccc1F

>  <Energy>  (5) 
32.59731128238719

>  <Genealogy>  (5) 
CN(C)CC[N-]C(=O)CC[N-]S(=O)(=O)c1ccccc1F (protonated)
CN(C)CC[N-]C(=O)CC[N-]S(=O)(=O)c1ccccc1F (3D coordinates assigned)
CN(C)CC[N-]C(=O)CC[N-]S(=O)(=O)c1ccccc1F (optimized conformer: 32.59731128238719 kcal/mol)

>  <smiles>  (5) 
CN(C)CCNC(=O)CCNS(=O)(=O)c1ccccc1F

>  <score_type>  (5) 
oracle

>  <origin>  (5) 
adg

>  <m_score__min__energy>  (5) 
-10.48

>  <m_primary>  (5) 
energy

$$$$
5:0
     RDKit          3D

 41 43  0  0  0  0  0  0  0  0999 V2000
   60.1660   28.4690   45.0230 C   0  0  0  0  0  0  0  0  0  0  0  0
   59.0750   27.6150   45.6140 C   0  0  0  0  0  0  0  0  0  0  0  0
   59.3790   26.7990   46.7170 C   0  0  0  0  0  0  0  0  0  0  0  0
   58.4070   25.9620   47.2700 C   0  0  0  0  0  0  0  0  0  0  0  0
   57.1210   25.9300   46.7290 C   0  0  0  0  0  0  0  0  0  0  0  0
   56.7980   26.7500   45.6460 C   0  0  0  0  0  0  0  0  0  0  0  0
   57.7540   27.6170   45.0980 C   0  0  0  0  0  0  0  0  0  0  0  0
   57.3740   28.4560   43.9970 N   0  0  0  0  0  0  0  0  0  0  0  0
   57.2680   29.8810   44.1040 C   0  0  0  0  0  0  0  0  0  0  0  0
   57.3750   30.4660   45.2550 N   0  0  0  0  0  0  0  0  0  0  0  0
   57.4160   31.9160   45.3510 C   0  0  0  0  0  0  0  0  0  0  0  0
   58.4550   32.4280   44.4310 N   0  0  2  0  0  0  0  0  0  0  0  0
   58.7870   33.8430   44.7230 C   0  0  0  0  0  0  0  0  0  0  0  0
   59.5560   33.9930   46.0160 C   0  0  0  0  0  0  0  0  0  0  0  0
   60.9320   33.7090   46.0560 C   0  0  0  0  0  0  0  0  0  0  0  0
   61.6420   33.8310   47.2530 C   0  0  0  0  0  0  0  0  0  0  0  0
   60.9870   34.2370   48.4180 C   0  0  0  0  0  0  0  0  0  0  0  0
   59.6190   34.5230   48.3880 C   0  0  0  0  0  0  0  0  0  0  0  0
   58.9050   34.4020   47.1930 C   0  0  0  0  0  0  0  0  0  0  0  0
   58.0490   32.2830   43.0070 C   0  0  0  0  0  0  0  0  0  0  0  0
   56.9380   30.8550   42.6310 S   0  0  0  0  0  0  0  0  0  0  0  0
   60.7520   28.9277   45.8331 H   0  0  0  0  0  0  0  0  0  0  0  0
   60.8250   27.8442   44.4022 H   0  0  0  0  0  0  0  0  0  0  0  0
   59.7178   29.2587   44.4022 H   0  0  0  0  0  0  0  0  0  0  0  0
   60.3907   26.8196   47.1484 H   0  0  0  0  0  0  0  0  0  0  0  0
   58.6556   25.3271   48.1332 H   0  0  0  0  0  0  0  0  0  0  0  0
   56.3615   25.2585   47.1559 H   0  0  0  0  0  0  0  0  0  0  0  0
   55.7848   26.7155   45.2191 H   0  0  0  0  0  0  0  0  0  0  0  0
   57.0060   28.0000   43.1320 H   0  0  0  0  0  0  0  0  0  0  0  0
   56.4371   32.3324   45.0709 H   0  0  0  0  0  0  0  0  0  0  0  0
   57.6521   32.2146   46.3830 H   0  0  0  0  0  0  0  0  0  0  0  0
   59.3220   31.8540   44.5650 H   0  0  0  0  0  0  0  0  0  0  0  0
   59.3977   34.2411   43.8992 H   0  0  0  0  0  0  0  0  0  0  0  0
   57.8426   34.3978   44.8249 H   0  0  0  0  0  0  0  0  0  0  0  0
   61.4520   33.3893   45.1409 H   0  0  0  0  0  0  0  0  0  0  0  0
   62.7186   33.6070   47.2781 H   0  0  0  0  0  0  0  0  0  0  0  0
   61.5479   34.3317   49.3595 H   0  0  0  0  0  0  0  0  0  0  0  0
   59.1043   34.8435   49.3058 H   0  0  0  0  0  0  0  0  0  0  0  0
   57.8286   34.6278   47.1731 H   0  0  0  0  0  0  0  0  0  0  0  0
   57.5274   33.2045   42.7089 H   0  0  0  0  0  0  0  0  0  0  0  0
   58.9778   32.0951   42.4484 H   0  0  0  0  0  0  0  0  0  0  0  0
  1  2  1  0
  2  3  2  0
  3  4  1  0
  4  5  2  0
  5  6  1  0
  6  7  2  0
  7  8  1  0
  8  9  1  0
  9 10  2  0
 10 11  1  0
 11 12  1  0
 12 13  1  0
 13 14  1  0
 14 15  2  0
 15 16  1  0
 16 17  2  0
 17 18  1  0
 18 19  2  0
 12 20  1  0
 20 21  1  0
  7  2  1  0
 21  9  1  0
 19 14  1  0
  1 22  1  0
  1 23  1  0
  1 24  1  0
  3 25  1  0
  4 26  1  0
  5 27  1  0
  6 28  1  0
  8 29  1  0
 11 30  1  0
 11 31  1  0
 12 32  1  6
 13 33  1  0
 13 34  1  0
 15 35  1  0
 16 36  1  0
 17 37  1  0
 18 38  1  0
 19 39  1  0
 20 40  1  0
 20 41  1  0
M  CHG  1  12   1
M  END
>  <UniqueID>  (6) 
6

>  <SMILES>  (6) 
Cc1ccccc1NC1=NC[N@H+](Cc2ccccc2)CS1

>  <Energy>  (6) 
60.05377575266274

>  <Genealogy>  (6) 
Cc1ccccc1NC1=NC[NH+](Cc2ccccc2)CS1 (protonated)
Cc1ccccc1NC1=NC[N@H+](Cc2ccccc2)CS1 (chirality)
Cc1ccccc1NC1=NC[N@H+](Cc2ccccc2)CS1 (3D coordinates assigned)
Cc1ccccc1NC1=NC[N@H+](Cc2ccccc2)CS1 (nonaromatic ring conformer: 60.05377575266274 kcal/mol)

>  <smiles>  (6) 
Cc1ccccc1NC1=NCN(Cc2ccccc2)CS1

>  <score_type>  (6) 
oracle

>  <origin>  (6) 
adg

>  <m_score__min__energy>  (6) 
-6.5999999999999996

>  <m_primary>  (6) 
energy

$$$$
6:0
     RDKit          3D

 24 25  0  0  0  0  0  0  0  0999 V2000
   59.9364   35.7297   45.8173 H   0  0  0  0  0  0  0  0  0  0  0  0
   59.3890   34.7880   45.9710 C   0  0  0  0  0  0  0  0  0  0  0  0
   58.8430   34.1120   44.8760 C   0  0  0  0  0  0  0  0  0  0  0  0
   58.9695   34.5204   43.8625 H   0  0  0  0  0  0  0  0  0  0  0  0
   58.1330   32.9130   45.0630 C   0  0  0  0  0  0  0  0  0  0  0  0
   57.5720   32.1900   43.8960 C   0  0  0  0  0  0  0  0  0  0  0  0
   58.1180   32.3280   42.7690 O   0  0  0  0  0  0  0  0  0  0  0  0
   56.4590   31.2910   44.0120 N   0  0  0  0  0  0  0  0  0  0  0  0
   56.5100   30.0830   44.4880 C   0  0  0  0  0  0  0  0  0  0  0  0
   55.4350   29.3550   44.8570 N   0  0  0  0  0  0  0  0  0  0  0  0
   55.8950   28.2010   45.2450 O   0  0  0  0  0  0  0  0  0  0  0  0
   57.2040   28.1510   45.1340 C   0  0  0  0  0  0  0  0  0  0  0  0
   58.0410   26.9740   45.5070 C   0  0  0  0  0  0  0  0  0  0  0  0
   58.0965   26.8960   46.6028 H   0  0  0  0  0  0  0  0  0  0  0  0
   57.5900   26.0585   45.0966 H   0  0  0  0  0  0  0  0  0  0  0  0
   59.0538   27.0995   45.0966 H   0  0  0  0  0  0  0  0  0  0  0  0
   57.6650   29.3530   44.6420 C   0  0  0  0  0  0  0  0  0  0  0  0
   58.7007   29.6539   44.4259 H   0  0  0  0  0  0  0  0  0  0  0  0
   58.0050   32.3900   46.3630 C   0  0  0  0  0  0  0  0  0  0  0  0
   57.4711   31.4413   46.5210 H   0  0  0  0  0  0  0  0  0  0  0  0
   58.5530   33.0700   47.4550 C   0  0  0  0  0  0  0  0  0  0  0  0
   58.4420   32.6589   48.4693 H   0  0  0  0  0  0  0  0  0  0  0  0
   59.2410   34.2700   47.2610 C   0  0  0  0  0  0  0  0  0  0  0  0
   59.7730   34.9270   48.3210 F   0  0  0  0  0  0  0  0  0  0  0  0
  1  2  1  0
  2  3  2  0
  3  4  1  0
  3  5  1  0
  5  6  1  0
  6  7  2  0
  6  8  1  0
  8  9  2  0
  9 10  1  0
 10 11  1  0
 11 12  1  0
 12 13  1  0
 13 14  1  0
 13 15  1  0
 13 16  1  0
 12 17  2  0
 17 18  1  0
  5 19  2  0
 19 20  1  0
 19 21  1  0
 21 22  1  0
 21 23  2  0
 23 24  1  0
 23  2  1  0
 17  9  1  0
M  CHG  1  10  -1
M  END
>  <UniqueID>  (7) 
7

>  <SMILES>  (7) 
Cc1c/c(=N/C(=O)c2ccc(F)cc2)[n-]o1

>  <Energy>  (7) 
61.85751404378243

>  <Genealogy>  (7) 
Cc1cc(=NC(=O)c2ccc(F)cc2)[n-]o1 (protonated)
Cc1c/c(=N/C(=O)c2ccc(F)cc2)[n-]o1 (cis-trans isomerization)
Cc1c/c(=N/C(=O)c2ccc(F)cc2)[n-]o1 (3D coordinates assigned)
Cc1c/c(=N/C(=O)c2ccc(F)cc2)[n-]o1 (optimized conformer: 61.85751404378243 kcal/mol)

>  <smiles>  (7) 
Cc1cc(=NC(=O)c2ccc(F)cc2)[nH]o1

>  <score_type>  (7) 
oracle

>  <origin>  (7) 
adg

>  <m_score__min__energy>  (7) 
-8.5199999999999996

>  <m_primary>  (7) 
energy

$$$$
7:0
     RDKit          3D

 23 23  0  0  0  0  0  0  0  0999 V2000
   58.4560   28.0090   44.7910 C   0  0  0  0  0  0  0  0  0  0  0  0
   57.0050   27.8750   45.2390 C   0  0  0  0  0  0  0  0  0  0  0  0
   56.2210   28.9580   44.7430 O   0  0  0  0  0  0  0  0  0  0  0  0
   56.7420   30.2280   44.4670 C   0  0  0  0  0  0  0  0  0  0  0  0
   56.9600   30.6060   43.1390 C   0  0  0  0  0  0  0  0  0  0  0  0
   57.4720   31.8800   42.8560 C   0  0  0  0  0  0  0  0  0  0  0  0
   57.7480   32.2880   41.4400 C   0  0  0  0  0  0  0  0  0  0  0  0
   57.7850   32.7440   43.9150 C   0  0  0  0  0  0  0  0  0  0  0  0
   57.5520   32.3310   45.2300 C   0  0  0  0  0  0  0  0  0  0  0  0
   57.9340   33.4160   46.6000 S   0  0  0  0  0  0  0  0  0  0  0  0
   58.7470   34.5810   45.5530 C   0  0  0  0  0  0  0  0  0  0  0  0
   59.2800   35.3450   44.8660 N   0  0  0  0  0  0  0  0  0  0  0  0
   57.0440   31.0940   45.4750 N   0  0  0  0  0  0  0  0  0  0  0  0
   59.1085   28.0693   45.6745 H   0  0  0  0  0  0  0  0  0  0  0  0
   58.7358   27.1329   44.1876 H   0  0  0  0  0  0  0  0  0  0  0  0
   58.5707   28.9216   44.1876 H   0  0  0  0  0  0  0  0  0  0  0  0
   56.5953   26.9283   44.8569 H   0  0  0  0  0  0  0  0  0  0  0  0
   56.9721   27.8898   46.3384 H   0  0  0  0  0  0  0  0  0  0  0  0
   56.7311   29.9077   42.3205 H   0  0  0  0  0  0  0  0  0  0  0  0
   58.3643   33.1991   41.4344 H   0  0  0  0  0  0  0  0  0  0  0  0
   58.2850   31.4789   40.9233 H   0  0  0  0  0  0  0  0  0  0  0  0
   56.7972   32.4854   40.9233 H   0  0  0  0  0  0  0  0  0  0  0  0
   58.2102   33.7381   43.7128 H   0  0  0  0  0  0  0  0  0  0  0  0
  1  2  1  0
  2  3  1  0
  3  4  1  0
  4  5  2  0
  5  6  1  0
  6  7  1  0
  6  8  2  0
  8  9  1  0
  9 10  1  0
 10 11  1  0
 11 12  3  0
  9 13  2  0
 13  4  1  0
  1 14  1  0
  1 15  1  0
  1 16  1  0
  2 17  1  0
  2 18  1  0
  5 19  1  0
  7 20  1  0
  7 21  1  0
  7 22  1  0
  8 23  1  0
M  END
>  <UniqueID>  (8) 
8

>  <SMILES>  (8) 
CCOc1cc(C)cc(SC#N)n1

>  <Energy>  (8) 
14.031140969344076

>  <Genealogy>  (8) 
CCOc1cc(C)cc(SC#N)n1 (3D coordinates assigned)
CCOc1cc(C)cc(SC#N)n1 (optimized conformer: 14.031140969344076 kcal/mol)

>  <smiles>  (8) 
CCOc1cc(C)cc(SC#N)n1

>  <score_type>  (8) 
oracle

>  <origin>  (8) 
adg

>  <m_score__min__energy>  (8) 
-5.5099999999999998

>  <m_primary>  (8) 
energy

$$$$
8:0
     RDKit          3D

 53 56  0  0  0  0  0  0  0  0999 V2000
   58.4070   33.8950   52.5570 C   0  0  0  0  0  0  0  0  0  0  0  0
   59.9250   33.8820   52.7040 C   0  0  0  0  0  0  0  0  0  0  0  0
   60.5640   33.6250   51.4020 N   0  0  0  0  0  0  0  0  0  0  0  0
   59.7740   33.2580   50.3470 C   0  0  0  0  0  0  0  0  0  0  0  0
   60.3280   32.9720   49.0960 C   0  0  0  0  0  0  0  0  0  0  0  0
   59.4440   32.5770   47.9760 C   0  0  0  0  0  0  0  0  0  0  0  0
   59.0650   33.5290   47.0000 C   0  0  0  0  0  0  0  0  0  0  0  0
   59.5490   34.9540   47.0740 C   0  0  0  0  0  0  0  0  0  0  0  0
   58.2280   33.1390   45.9430 C   0  0  0  0  0  0  0  0  0  0  0  0
   57.7560   31.8300   45.8440 C   0  0  0  0  0  0  0  0  0  0  0  0
   56.9110   31.5120   44.7670 O   0  0  0  0  0  0  0  0  0  0  0  0
   57.1620   30.5030   43.7870 C   0  0  0  0  0  0  0  0  0  0  0  0
   57.9100   29.3440   44.3910 C   0  0  0  0  0  0  0  0  0  0  0  0
   59.3140   29.3410   44.4290 C   0  0  0  0  0  0  0  0  0  0  0  0
   60.0020   28.2590   44.9850 C   0  0  0  0  0  0  0  0  0  0  0  0
   59.2940   27.1680   45.5000 C   0  0  0  0  0  0  0  0  0  0  0  0
   57.8980   27.1590   45.4550 C   0  0  0  0  0  0  0  0  0  0  0  0
   57.2060   28.2390   44.9000 C   0  0  0  0  0  0  0  0  0  0  0  0
   58.1370   30.8850   46.8110 C   0  0  0  0  0  0  0  0  0  0  0  0
   58.9760   31.2470   47.8760 C   0  0  0  0  0  0  0  0  0  0  0  0
   59.3630   30.2090   48.8990 C   0  0  0  0  0  0  0  0  0  0  0  0
   61.7160   33.0550   48.9280 C   0  0  0  0  0  0  0  0  0  0  0  0
   62.2850   32.7780   47.7210 N   0  0  0  0  0  0  0  0  0  0  0  0
   63.6280   32.8460   47.5260 C   0  0  0  0  0  0  0  0  0  0  0  0
   64.4700   33.2040   48.5790 C   0  0  0  0  0  0  0  0  0  0  0  0
   63.9210   33.4920   49.8300 C   0  0  0  0  0  0  0  0  0  0  0  0
   62.5300   33.4210   50.0210 C   0  0  0  0  0  0  0  0  0  0  0  0
   61.9290   33.6980   51.2630 C   0  0  0  0  0  0  0  0  0  0  0  0
   62.6510   34.0120   52.2520 O   0  0  0  0  0  0  0  0  0  0  0  0
   57.9421   33.8990   53.5539 H   0  0  0  0  0  0  0  0  0  0  0  0
   58.0997   34.7958   52.0055 H   0  0  0  0  0  0  0  0  0  0  0  0
   58.0843   32.9996   52.0055 H   0  0  0  0  0  0  0  0  0  0  0  0
   60.2606   34.8573   53.0864 H   0  0  0  0  0  0  0  0  0  0  0  0
   60.2091   33.0834   53.4051 H   0  0  0  0  0  0  0  0  0  0  0  0
   58.6851   33.1868   50.4855 H   0  0  0  0  0  0  0  0  0  0  0  0
   59.6504   35.2525   48.1278 H   0  0  0  0  0  0  0  0  0  0  0  0
   60.5254   35.0360   46.5741 H   0  0  0  0  0  0  0  0  0  0  0  0
   58.8245   35.6137   46.5741 H   0  0  0  0  0  0  0  0  0  0  0  0
   57.9396   33.8774   45.1804 H   0  0  0  0  0  0  0  0  0  0  0  0
   56.2029   30.1434   43.3860 H   0  0  0  0  0  0  0  0  0  0  0  0
   57.7748   30.9373   42.9833 H   0  0  0  0  0  0  0  0  0  0  0  0
   59.8746   30.1941   44.0193 H   0  0  0  0  0  0  0  0  0  0  0  0
   61.1015   28.2653   45.0177 H   0  0  0  0  0  0  0  0  0  0  0  0
   59.8361   26.3180   45.9400 H   0  0  0  0  0  0  0  0  0  0  0  0
   57.3417   26.2996   45.8575 H   0  0  0  0  0  0  0  0  0  0  0  0
   56.1068   28.2242   44.8614 H   0  0  0  0  0  0  0  0  0  0  0  0
   57.7736   29.8497   46.7325 H   0  0  0  0  0  0  0  0  0  0  0  0
   59.2113   30.6159   49.9097 H   0  0  0  0  0  0  0  0  0  0  0  0
   58.7384   29.3132   48.7668 H   0  0  0  0  0  0  0  0  0  0  0  0
   60.4216   29.9407   48.7668 H   0  0  0  0  0  0  0  0  0  0  0  0
   64.0517   32.6185   46.5367 H   0  0  0  0  0  0  0  0  0  0  0  0
   65.5578   33.2590   48.4250 H   0  0  0  0  0  0  0  0  0  0  0  0
   64.5771   33.7746   50.6665 H   0  0  0  0  0  0  0  0  0  0  0  0
  1  2  1  0
  2  3  1  0
  3  4  1  0
  4  5  2  0
  5  6  1  0
  6  7  2  0
  7  8  1  0
  7  9  1  0
  9 10  2  0
 10 11  1  0
 11 12  1  0
 12 13  1  0
 13 14  2  0
 14 15  1  0
 15 16  2  0
 16 17  1  0
 17 18  2  0
 10 19  1  0
 19 20  2  0
 20 21  1  0
  5 22  1  0
 22 23  2  0
 23 24  1  0
 24 25  2  0
 25 26  1  0
 26 27  2  0
 27 28  1  0
 28 29  2  0
 28  3  1  0
 20  6  1  0
 27 22  1  0
 18 13  1  0
  1 30  1  0
  1 31  1  0
  1 32  1  0
  2 33  1  0
  2 34  1  0
  4 35  1  0
  8 36  1  0
  8 37  1  0
  8 38  1  0
  9 39  1  0
 12 40  1  0
 12 41  1  0
 14 42  1  0
 15 43  1  0
 16 44  1  0
 17 45  1  0
 18 46  1  0
 19 47  1  0
 21 48  1  0
 21 49  1  0
 21 50  1  0
 24 51  1  0
 25 52  1  0
 26 53  1  0
M  END
>  <UniqueID>  (9) 
9

>  <SMILES>  (9) 
CCn1cc(-c2c(C)cc(OCc3ccccc3)cc2C)c2ncccc2c1=O

>  <Energy>  (9) 
68.92220830810639

>  <Genealogy>  (9) 
CCn1cc(-c2c(C)cc(OCc3ccccc3)cc2C)c2ncccc2c1=O (3D coordinates assigned)
CCn1cc(-c2c(C)cc(OCc3ccccc3)cc2C)c2ncccc2c1=O (optimized conformer: 68.92220830810639 kcal/mol)

>  <smiles>  (9) 
CCn1cc(-c2c(C)cc(OCc3ccccc3)cc2C)c2ncccc2c1=O

>  <score_type>  (9) 
oracle

>  <origin>  (9) 
adg

>  <m_score__min__energy>  (9) 
-8.2599999999999998

>  <m_primary>  (9) 
energy

$$$$
9:0
     RDKit          3D

 43 46  0  0  0  0  0  0  0  0999 V2000
   60.3980   27.9900   48.6020 C   0  0  0  0  0  0  0  0  0  0  0  0
   60.5990   29.3990   48.2890 N   0  0  0  0  0  0  0  0  0  0  0  0
   60.7240   30.3640   49.3720 C   0  0  0  0  0  0  0  0  0  0  0  0
   60.6790   29.8700   46.9400 C   0  0  0  0  0  0  0  0  0  0  0  0
   60.8560   31.1020   46.6930 O   0  0  0  0  0  0  0  0  0  0  0  0
   60.5510   28.8770   45.8360 C   0  0  0  0  0  0  0  0  0  0  0  0
   59.1500   28.4820   45.7200 N   0  0  0  0  0  0  0  0  0  0  0  0
   58.6130   27.2960   46.0460 C   0  0  0  0  0  0  0  0  0  0  0  0
   57.2250   27.3260   45.7780 C   0  0  0  0  0  0  0  0  0  0  0  0
   56.4100   26.1650   45.9880 C   0  0  0  0  0  0  0  0  0  0  0  0
   55.1330   26.3970   45.9990 O   0  0  0  0  0  0  0  0  0  0  0  0
   56.7810   24.7990   46.1950 C   0  0  0  0  0  0  0  0  0  0  0  0
   57.1720   24.0390   47.2480 C   0  0  0  0  0  0  0  0  0  0  0  0
   57.4070   22.7540   46.9020 N   0  0  0  0  0  0  0  0  0  0  0  0
   57.1870   22.5780   45.5900 C   0  0  0  0  0  0  0  0  0  0  0  0
   57.2650   21.5270   44.7370 N   0  0  0  0  0  0  0  0  0  0  0  0
   56.9710   21.6720   43.4390 C   0  0  0  0  0  0  0  0  0  0  0  0
   56.5830   22.8990   42.9500 C   0  0  0  0  0  0  0  0  0  0  0  0
   56.4820   24.0180   43.7720 C   0  0  0  0  0  0  0  0  0  0  0  0
   56.7780   23.8910   45.1020 C   0  0  0  0  0  0  0  0  0  0  0  0
   57.0130   28.5810   45.2910 C   0  0  0  0  0  0  0  0  0  0  0  0
   55.8860   29.2160   44.8730 C   0  0  0  0  0  0  0  0  0  0  0  0
   55.9130   30.4710   44.4400 N   0  0  0  0  0  0  0  0  0  0  0  0
   57.0560   31.1780   44.3950 C   0  0  0  0  0  0  0  0  0  0  0  0
   58.2480   30.6140   44.8020 C   0  0  0  0  0  0  0  0  0  0  0  0
   58.2020   29.3090   45.2490 C   0  0  0  0  0  0  0  0  0  0  0  0
   60.3789   27.8560   49.6936 H   0  0  0  0  0  0  0  0  0  0  0  0
   59.4426   27.6521   48.1743 H   0  0  0  0  0  0  0  0  0  0  0  0
   61.2208   27.3984   48.1743 H   0  0  0  0  0  0  0  0  0  0  0  0
   60.6564   29.8420   50.3379 H   0  0  0  0  0  0  0  0  0  0  0  0
   61.6957   30.8742   49.2982 H   0  0  0  0  0  0  0  0  0  0  0  0
   59.9143   31.1049   49.2982 H   0  0  0  0  0  0  0  0  0  0  0  0
   60.8874   29.3289   44.8912 H   0  0  0  0  0  0  0  0  0  0  0  0
   61.1718   27.9950   46.0521 H   0  0  0  0  0  0  0  0  0  0  0  0
   59.1648   26.4374   46.4563 H   0  0  0  0  0  0  0  0  0  0  0  0
   57.2854   24.4261   48.2714 H   0  0  0  0  0  0  0  0  0  0  0  0
   57.5660   20.6190   45.1630 H   0  0  0  0  0  0  0  0  0  0  0  0
   57.0397   20.8083   42.7613 H   0  0  0  0  0  0  0  0  0  0  0  0
   56.3463   22.9980   41.8803 H   0  0  0  0  0  0  0  0  0  0  0  0
   56.1693   24.9885   43.3591 H   0  0  0  0  0  0  0  0  0  0  0  0
   54.9276   28.6766   44.8940 H   0  0  0  0  0  0  0  0  0  0  0  0
   57.0407   32.2157   44.0303 H   0  0  0  0  0  0  0  0  0  0  0  0
   59.1915   31.1787   44.7715 H   0  0  0  0  0  0  0  0  0  0  0  0
  1  2  1  0
  2  3  1  0
  2  4  1  0
  4  5  2  0
  4  6  1  0
  6  7  1  0
  7  8  1  0
  8  9  2  0
  9 10  1  0
 10 11  2  0
 10 12  1  0
 12 13  2  0
 13 14  1  0
 14 15  2  0
 15 16  1  0
 16 17  1  0
 17 18  2  0
 18 19  1  0
 19 20  2  0
  9 21  1  0
 21 22  2  0
 22 23  1  0
 23 24  2  0
 24 25  1  0
 25 26  2  0
 26  7  1  0
 20 12  1  0
 26 21  1  0
 20 15  1  0
  1 27  1  0
  1 28  1  0
  1 29  1  0
  3 30  1  0
  3 31  1  0
  3 32  1  0
  6 33  1  0
  6 34  1  0
  8 35  1  0
 13 36  1  0
 16 37  1  0
 17 38  1  0
 18 39  1  0
 19 40  1  0
 22 41  1  0
 24 42  1  0
 25 43  1  0
M  END
>  <smiles>  (10) 
CN(C)C(=O)Cn1cc(C(=O)c2cnc3[nH]cccc2-3)c2cnccc21

>  <score_type>  (10) 
oracle

>  <origin>  (10) 
adg

>  <m_score__min__energy>  (10) 
-8.4600000000000009

>  <m_primary>  (10) 
energy

$$$$
10:0
     RDKit          3D

 49 52  0  0  0  0  0  0  0  0999 V2000
   62.4450   31.3090   49.4470 O   0  0  0  0  0  0  0  0  0  0  0  0
   61.2430   30.9210   49.4620 C   0  0  0  0  0  0  0  0  0  0  0  0
   60.4160   31.1230   50.7100 C   0  0  0  0  0  0  0  0  0  0  0  0
   59.7140   32.4890   50.7420 C   0  0  0  0  0  0  0  0  0  0  0  0
   60.0970   33.3430   49.5640 C   0  0  0  0  0  0  0  0  0  0  0  0
   61.2710   34.0080   49.4510 N   0  0  0  0  0  0  0  0  0  0  0  0
   61.2940   34.5850   48.2520 N   0  0  0  0  0  0  0  0  0  0  0  0
   60.1380   34.2470   47.6530 C   0  0  0  0  0  0  0  0  0  0  0  0
   59.7250   34.6060   46.3730 C   0  0  0  0  0  0  0  0  0  0  0  0
   58.4830   34.1180   45.9330 C   0  0  0  0  0  0  0  0  0  0  0  0
   57.7030   33.2950   46.7720 C   0  0  0  0  0  0  0  0  0  0  0  0
   58.1750   32.9670   48.0530 C   0  0  0  0  0  0  0  0  0  0  0  0
   59.3780   33.4700   48.4350 N   0  0  0  0  0  0  0  0  0  0  0  0
   60.6950   30.2740   48.2940 N   0  0  0  0  0  0  0  0  0  0  0  0
   61.3530   30.4920   46.9940 C   0  0  0  0  0  0  0  0  0  0  0  0
   60.6230   29.7720   45.8520 C   0  0  0  0  0  0  0  0  0  0  0  0
   59.1730   29.9360   46.0020 N   0  0  0  0  0  0  0  0  0  0  0  0
   58.3550   30.0920   44.8330 C   0  0  0  0  0  0  0  0  0  0  0  0
   58.2050   31.3730   44.2790 C   0  0  0  0  0  0  0  0  0  0  0  0
   57.3900   31.5720   43.1650 C   0  0  0  0  0  0  0  0  0  0  0  0
   56.7100   30.4950   42.5980 C   0  0  0  0  0  0  0  0  0  0  0  0
   56.8500   29.2140   43.1360 C   0  0  0  0  0  0  0  0  0  0  0  0
   57.6900   28.9870   44.2450 C   0  0  0  0  0  0  0  0  0  0  0  0
   57.8050   27.5920   44.8250 C   0  0  0  0  0  0  0  0  0  0  0  0
   57.7300   26.6380   43.8290 F   0  0  0  0  0  0  0  0  0  0  0  0
   59.0150   27.4670   45.4830 F   0  0  0  0  0  0  0  0  0  0  0  0
   56.7860   27.3390   45.7270 F   0  0  0  0  0  0  0  0  0  0  0  0
   58.5270   29.6830   47.2970 C   0  0  0  0  0  0  0  0  0  0  0  0
   59.5570   29.3440   48.3780 C   0  0  0  0  0  0  0  0  0  0  0  0
   59.6516   30.3334   50.7571 H   0  0  0  0  0  0  0  0  0  0  0  0
   61.0989   31.0804   51.5713 H   0  0  0  0  0  0  0  0  0  0  0  0
   58.6256   32.3302   50.7275 H   0  0  0  0  0  0  0  0  0  0  0  0
   60.0257   33.0117   51.6583 H   0  0  0  0  0  0  0  0  0  0  0  0
   60.3469   35.2469   45.7308 H   0  0  0  0  0  0  0  0  0  0  0  0
   58.1171   34.3791   44.9291 H   0  0  0  0  0  0  0  0  0  0  0  0
   56.7316   32.9128   46.4251 H   0  0  0  0  0  0  0  0  0  0  0  0
   57.5895   32.3233   48.7259 H   0  0  0  0  0  0  0  0  0  0  0  0
   61.3691   31.5710   46.7807 H   0  0  0  0  0  0  0  0  0  0  0  0
   62.3724   30.0834   47.0565 H   0  0  0  0  0  0  0  0  0  0  0  0
   60.9405   30.1998   44.8896 H   0  0  0  0  0  0  0  0  0  0  0  0
   60.8706   28.7007   45.8835 H   0  0  0  0  0  0  0  0  0  0  0  0
   58.7345   32.2267   44.7271 H   0  0  0  0  0  0  0  0  0  0  0  0
   57.2837   32.5784   42.7338 H   0  0  0  0  0  0  0  0  0  0  0  0
   56.0612   30.6548   41.7242 H   0  0  0  0  0  0  0  0  0  0  0  0
   56.2989   28.3731   42.6896 H   0  0  0  0  0  0  0  0  0  0  0  0
   57.9712   30.5821   47.6015 H   0  0  0  0  0  0  0  0  0  0  0  0
   57.8485   28.8246   47.1837 H   0  0  0  0  0  0  0  0  0  0  0  0
   59.0876   29.4303   49.3691 H   0  0  0  0  0  0  0  0  0  0  0  0
   59.9171   28.3158   48.2258 H   0  0  0  0  0  0  0  0  0  0  0  0
  1  2  2  0
  2  3  1  0
  3  4  1  0
  4  5  1  0
  5  6  2  0
  6  7  1  0
  7  8  2  0
  8  9  1  0
  9 10  2  0
 10 11  1  0
 11 12  2  0
 12 13  1  0
  2 14  1  0
 14 15  1  0
 15 16  1  0
 16 17  1  0
 17 18  1  0
 18 19  2  0
 19 20  1  0
 20 21  2  0
 21 22  1  0
 22 23  2  0
 23 24  1  0
 24 25  1  0
 24 26  1  0
 24 27  1  0
 17 28  1  0
 28 29  1  0
 13  5  1  0
 29 14  1  0
 13  8  1  0
 23 18  1  0
  3 30  1  0
  3 31  1  0
  4 32  1  0
  4 33  1  0
  9 34  1  0
 10 35  1  0
 11 36  1  0
 12 37  1  0
 15 38  1  0
 15 39  1  0
 16 40  1  0
 16 41  1  0
 19 42  1  0
 20 43  1  0
 21 44  1  0
 22 45  1  0
 28 46  1  0
 28 47  1  0
 29 48  1  0
 29 49  1  0
M  END
>  <UniqueID>  (11) 
10

>  <SMILES>  (11) 
O=C(CCc1nnc2ccccn12)N1CCN(c2ccccc2C(F)(F)F)CC1

>  <Energy>  (11) 
100.68180891264413

>  <Genealogy>  (11) 
O=C(CCc1nnc2ccccn12)N1CCN(c2ccccc2C(F)(F)F)CC1 (3D coordinates assigned)
O=C(CCc1nnc2ccccn12)N1CCN(c2ccccc2C(F)(F)F)CC1 (nonaromatic ring conformer: 100.68180891264413 kcal/mol)

>  <smiles>  (11) 
O=C(CCc1nnc2ccccn12)N1CCN(c2ccccc2C(F)(F)F)CC1

>  <score_type>  (11) 
oracle

>  <origin>  (11) 
adg

>  <m_score__min__energy>  (11) 
-7.8700000000000001

>  <m_primary>  (11) 
energy

$$$$
11:0
     RDKit          3D

 30 30  0  0  0  0  0  0  0  0999 V2000
   62.8000   33.5320   46.7510 C   0  0  0  0  0  0  0  0  0  0  0  0
   61.6590   33.8310   47.0030 C   0  0  0  0  0  0  0  0  0  0  0  0
   60.2710   34.1920   47.3110 C   0  0  0  0  0  0  0  0  0  0  0  0
   59.4250   34.0210   46.1220 N   0  0  0  0  0  0  0  0  0  0  0  0
   59.2860   35.1460   45.1900 C   0  0  0  0  0  0  0  0  0  0  0  0
   58.7940   32.7500   45.8280 C   0  0  0  0  0  0  0  0  0  0  0  0
   59.2310   31.5640   46.4500 C   0  0  0  0  0  0  0  0  0  0  0  0
   58.6230   30.3390   46.1600 C   0  0  0  0  0  0  0  0  0  0  0  0
   57.5630   30.2710   45.2440 C   0  0  0  0  0  0  0  0  0  0  0  0
   56.9210   28.9410   44.9170 C   0  0  1  0  0  0  0  0  0  0  0  0
   55.5250   29.0810   44.8640 O   0  0  0  0  0  0  0  0  0  0  0  0
   57.4180   28.4360   43.5870 C   0  0  0  0  0  0  0  0  0  0  0  0
   58.2410   27.3870   43.5000 C   0  0  0  0  0  0  0  0  0  0  0  0
   57.1300   31.4470   44.6130 C   0  0  0  0  0  0  0  0  0  0  0  0
   57.7370   32.6720   44.9010 C   0  0  0  0  0  0  0  0  0  0  0  0
   63.8406   33.2593   46.5212 H   0  0  0  0  0  0  0  0  0  0  0  0
   59.8980   33.5445   48.1182 H   0  0  0  0  0  0  0  0  0  0  0  0
   60.2363   35.2451   47.6270 H   0  0  0  0  0  0  0  0  0  0  0  0
   59.1705   36.0808   45.7582 H   0  0  0  0  0  0  0  0  0  0  0  0
   60.1830   35.2104   44.5566 H   0  0  0  0  0  0  0  0  0  0  0  0
   58.4003   34.9901   44.5566 H   0  0  0  0  0  0  0  0  0  0  0  0
   60.0600   31.6022   47.1720 H   0  0  0  0  0  0  0  0  0  0  0  0
   58.9783   29.4223   46.6535 H   0  0  0  0  0  0  0  0  0  0  0  0
   57.1894   28.2211   45.7042 H   0  0  0  0  0  0  0  0  0  0  0  0
   55.1440   28.1640   44.8820 H   0  0  0  0  0  0  0  0  0  0  0  0
   57.0955   28.9431   42.6657 H   0  0  0  0  0  0  0  0  0  0  0  0
   58.5879   27.0402   42.5154 H   0  0  0  0  0  0  0  0  0  0  0  0
   58.5717   26.8702   44.4130 H   0  0  0  0  0  0  0  0  0  0  0  0
   56.3059   31.4042   43.8856 H   0  0  0  0  0  0  0  0  0  0  0  0
   57.3855   33.5851   44.3983 H   0  0  0  0  0  0  0  0  0  0  0  0
  1  2  3  0
  2  3  1  0
  3  4  1  0
  4  5  1  0
  4  6  1  0
  6  7  2  0
  7  8  1  0
  8  9  2  0
  9 10  1  0
 10 11  1  0
 10 12  1  0
 12 13  2  0
  9 14  1  0
 14 15  2  0
 15  6  1  0
  1 16  1  0
  3 17  1  0
  3 18  1  0
  5 19  1  0
  5 20  1  0
  5 21  1  0
  7 22  1  0
  8 23  1  0
 10 24  1  1
 11 25  1  0
 12 26  1  0
 13 27  1  0
 13 28  1  0
 14 29  1  0
 15 30  1  0
M  END
>  <UniqueID>  (12) 
11

>  <SMILES>  (12) 
C#CCN(C)c1ccc([C@@H](O)C=C)cc1

>  <Energy>  (12) 
25.187383541221394

>  <Genealogy>  (12) 
C#CCN(C)c1ccc([C@@H](O)C=C)cc1 (chirality)
C#CCN(C)c1ccc([C@@H](O)C=C)cc1 (3D coordinates assigned)
C#CCN(C)c1ccc([C@@H](O)C=C)cc1 (optimized conformer: 25.187383541221394 kcal/mol)

>  <smiles>  (12) 
C#CCN(C)c1ccc(C(O)C=C)cc1

>  <score_type>  (12) 
oracle

>  <origin>  (12) 
adg

>  <m_score__min__energy>  (12) 
-6.21

>  <m_primary>  (12) 
energy

$$$$
12:0
     RDKit          3D

 67 71  0  0  0  0  0  0  0  0999 V2000
   54.8620   23.9840   44.9140 C   0  0  0  0  0  0  0  0  0  0  0  0
   55.8170   24.9670   45.4060 N   0  0  0  0  0  0  0  0  0  0  0  0
   57.0980   25.0880   45.0090 C   0  0  0  0  0  0  0  0  0  0  0  0
   57.6250   26.2070   45.6170 C   0  0  0  0  0  0  0  0  0  0  0  0
   59.0080   26.7680   45.4430 C   0  0  0  0  0  0  0  0  0  0  0  0
   59.1600   27.5400   44.1240 C   0  0  0  0  0  0  0  0  0  0  0  0
   58.9310   29.0460   44.3090 C   0  0  0  0  0  0  0  0  0  0  0  0
   57.4610   29.4210   44.0520 C   0  0  0  0  0  0  0  0  0  0  0  0
   57.0880   30.8700   44.4600 C   0  0  2  0  0  0  0  0  0  0  0  0
   57.3740   31.8850   43.3380 C   0  0  0  0  0  0  0  0  0  0  0  0
   58.5290   32.7630   43.8370 C   0  0  0  0  0  0  0  0  0  0  0  0
   58.4310   32.7800   45.3770 C   0  0  1  0  0  0  0  0  0  0  0  0
   57.3450   33.8140   45.7850 C   0  0  0  0  0  0  0  0  0  0  0  0
   57.8540   31.4110   45.6410 C   0  0  0  0  0  0  0  0  0  0  0  0
   58.1330   30.7020   46.7500 C   0  0  0  0  0  0  0  0  0  0  0  0
   59.2740   31.1210   47.6390 C   0  0  0  0  0  0  0  0  0  0  0  0
   60.3980   31.7300   46.7640 C   0  0  2  0  0  0  0  0  0  0  0  0
   61.8130   31.9130   47.4280 C   0  0  2  0  0  0  0  0  0  0  0  0
   62.0380   31.1430   48.7480 C   0  0  0  0  0  0  0  0  0  0  0  0
   63.1990   31.8330   49.4470 C   0  0  0  0  0  0  0  0  0  0  0  0
   63.1420   33.2130   48.9120 C   0  0  0  0  0  0  0  0  0  0  0  0
   63.7650   34.1380   49.4150 O   0  0  0  0  0  0  0  0  0  0  0  0
   62.2540   33.3710   47.7140 C   0  0  1  0  0  0  0  0  0  0  0  0
   63.0840   33.9940   46.5670 C   0  0  0  0  0  0  0  0  0  0  0  0
   61.0410   34.2370   48.0850 C   0  0  0  0  0  0  0  0  0  0  0  0
   59.9280   34.2570   47.0210 C   0  0  0  0  0  0  0  0  0  0  0  0
   59.8570   33.0150   46.0720 C   0  0  2  0  0  0  0  0  0  0  0  0
   56.5910   26.7330   46.3720 C   0  0  0  0  0  0  0  0  0  0  0  0
   55.4960   25.9620   46.2180 N   0  0  0  0  0  0  0  0  0  0  0  0
   54.3774   23.4851   45.7662 H   0  0  0  0  0  0  0  0  0  0  0  0
   54.0994   24.4880   44.3021 H   0  0  0  0  0  0  0  0  0  0  0  0
   55.3878   23.2363   44.3021 H   0  0  0  0  0  0  0  0  0  0  0  0
   57.6295   24.4135   44.3215 H   0  0  0  0  0  0  0  0  0  0  0  0
   59.2212   27.4502   46.2792 H   0  0  0  0  0  0  0  0  0  0  0  0
   59.7141   25.9248   45.4237 H   0  0  0  0  0  0  0  0  0  0  0  0
   60.1763   27.3806   43.7345 H   0  0  0  0  0  0  0  0  0  0  0  0
   58.4010   27.1649   43.4217 H   0  0  0  0  0  0  0  0  0  0  0  0
   59.1979   29.3257   45.3388 H   0  0  0  0  0  0  0  0  0  0  0  0
   59.5597   29.5854   43.5853 H   0  0  0  0  0  0  0  0  0  0  0  0
   57.2590   29.3036   42.9771 H   0  0  0  0  0  0  0  0  0  0  0  0
   56.8526   28.7523   44.6786 H   0  0  0  0  0  0  0  0  0  0  0  0
   56.0185   30.7743   44.6988 H   0  0  0  0  0  0  0  0  0  0  0  0
   57.6646   31.3613   42.4154 H   0  0  0  0  0  0  0  0  0  0  0  0
   56.4835   32.4882   43.1075 H   0  0  0  0  0  0  0  0  0  0  0  0
   59.4934   32.3378   43.5220 H   0  0  0  0  0  0  0  0  0  0  0  0
   58.4642   33.7799   43.4225 H   0  0  0  0  0  0  0  0  0  0  0  0
   57.2860   33.8702   46.8820 H   0  0  0  0  0  0  0  0  0  0  0  0
   57.6095   34.8023   45.3809 H   0  0  0  0  0  0  0  0  0  0  0  0
   56.3708   33.5014   45.3809 H   0  0  0  0  0  0  0  0  0  0  0  0
   57.5294   29.8189   47.0065 H   0  0  0  0  0  0  0  0  0  0  0  0
   58.9218   31.8716   48.3619 H   0  0  0  0  0  0  0  0  0  0  0  0
   59.6600   30.2474   48.1847 H   0  0  0  0  0  0  0  0  0  0  0  0
   60.6400   30.9667   46.0098 H   0  0  0  0  0  0  0  0  0  0  0  0
   62.4265   31.4866   46.6206 H   0  0  0  0  0  0  0  0  0  0  0  0
   61.1348   31.1872   49.3743 H   0  0  0  0  0  0  0  0  0  0  0  0
   62.2556   30.0810   48.5613 H   0  0  0  0  0  0  0  0  0  0  0  0
   63.0626   31.8268   50.5385 H   0  0  0  0  0  0  0  0  0  0  0  0
   64.1658   31.3398   49.2680 H   0  0  0  0  0  0  0  0  0  0  0  0
   63.8958   34.6033   46.9909 H   0  0  0  0  0  0  0  0  0  0  0  0
   63.5124   33.1925   45.9472 H   0  0  0  0  0  0  0  0  0  0  0  0
   62.4341   34.6292   45.9472 H   0  0  0  0  0  0  0  0  0  0  0  0
   60.6148   33.8497   49.0222 H   0  0  0  0  0  0  0  0  0  0  0  0
   61.4076   35.2700   48.1771 H   0  0  0  0  0  0  0  0  0  0  0  0
   58.9640   34.3344   47.5452 H   0  0  0  0  0  0  0  0  0  0  0  0
   60.1591   35.1125   46.3693 H   0  0  0  0  0  0  0  0  0  0  0  0
   60.5291   33.2565   45.2354 H   0  0  0  0  0  0  0  0  0  0  0  0
   56.6529   27.6357   46.9976 H   0  0  0  0  0  0  0  0  0  0  0  0
  1  2  1  0
  2  3  1  0
  3  4  2  0
  4  5  1  0
  5  6  1  0
  6  7  1  0
  7  8  1  0
  8  9  1  0
  9 10  1  0
 10 11  1  0
 11 12  1  0
 12 13  1  6
 12 14  1  0
 14 15  2  0
 15 16  1  0
 16 17  1  0
 17 18  1  0
 18 19  1  0
 19 20  1  0
 20 21  1  0
 21 22  2  0
 21 23  1  0
 23 24  1  6
 23 25  1  0
 25 26  1  0
 26 27  1  0
  4 28  1  0
 28 29  2  0
 29  2  1  0
 14  9  1  0
 27 17  1  0
 27 12  1  0
 23 18  1  0
  1 30  1  0
  1 31  1  0
  1 32  1  0
  3 33  1  0
  5 34  1  0
  5 35  1  0
  6 36  1  0
  6 37  1  0
  7 38  1  0
  7 39  1  0
  8 40  1  0
  8 41  1  0
  9 42  1  1
 10 43  1  0
 10 44  1  0
 11 45  1  0
 11 46  1  0
 13 47  1  0
 13 48  1  0
 13 49  1  0
 15 50  1  0
 16 51  1  0
 16 52  1  0
 17 53  1  6
 18 54  1  6
 19 55  1  0
 19 56  1  0
 20 57  1  0
 20 58  1  0
 24 59  1  0
 24 60  1  0
 24 61  1  0
 25 62  1  0
 25 63  1  0
 26 64  1  0
 26 65  1  0
 27 66  1  6
 28 67  1  0
M  END
>  <UniqueID>  (13) 
12

>  <SMILES>  (13) 
Cn1cc(CCCC[C@@H]2CC[C@@]3(C)C2=CCC2C4CCC(=O)C4(C)CCC23)cn1

>  <Energy>  (13) 
119.98537643519842

>  <Genealogy>  (13) 
Cn1cc(CCCC[C@@H]2CC[C@@]3(C)C2=CCC2C4CCC(=O)C4(C)CCC23)cn1 (chirality)
Cn1cc(CCCC[C@@H]2CC[C@@]3(C)C2=CCC2C4CCC(=O)C4(C)CCC23)cn1 (3D coordinates assigned)
Cn1cc(CCCC[C@@H]2CC[C@@]3(C)C2=CCC2C4CCC(=O)C4(C)CCC23)cn1 (nonaromatic ring conformer: 119.98537643519842 kcal/mol)

>  <smiles>  (13) 
Cn1cc(CCCCC2CCC3(C)C2=CCC2C4CCC(=O)C4(C)CCC23)cn1

>  <score_type>  (13) 
oracle

>  <origin>  (13) 
adg

>  <m_score__min__energy>  (13) 
-10.609999999999999

>  <m_primary>  (13) 
energy

$$$$
13:0
     RDKit          3D

 19 20  0  0  0  0  0  0  0  0999 V2000
   60.0150   36.3440   45.6100 O   0  0  0  0  0  0  0  0  0  0  0  0
   59.4960   35.1990   45.6720 C   0  0  0  0  0  0  0  0  0  0  0  0
   59.3460   34.5670   46.9110 C   0  0  0  0  0  0  0  0  0  0  0  0
   58.7690   33.2980   46.9560 C   0  0  0  0  0  0  0  0  0  0  0  0
   58.3530   32.6890   45.7680 C   0  0  0  0  0  0  0  0  0  0  0  0
   57.7680   31.4150   45.7610 C   0  0  0  0  0  0  0  0  0  0  0  0
   57.3590   30.8270   44.5490 C   0  0  0  0  0  0  0  0  0  0  0  0
   56.7570   29.5200   44.5330 N   0  0  0  0  0  0  0  0  0  0  0  0
   57.4240   28.5140   44.2120 O   0  0  0  0  0  0  0  0  0  0  0  0
   55.4330   29.3550   44.8710 O   0  0  0  0  0  0  0  0  0  0  0  0
   57.5480   31.5350   43.3470 C   0  0  0  0  0  0  0  0  0  0  0  0
   58.1320   32.8060   43.3520 C   0  0  0  0  0  0  0  0  0  0  0  0
   58.5370   33.3880   44.5560 C   0  0  0  0  0  0  0  0  0  0  0  0
   59.0930   34.5980   44.5560 O   0  0  0  0  0  0  0  0  0  0  0  0
   59.6778   35.0630   47.8350 H   0  0  0  0  0  0  0  0  0  0  0  0
   58.6422   32.7804   47.9183 H   0  0  0  0  0  0  0  0  0  0  0  0
   57.6278   30.8720   46.7073 H   0  0  0  0  0  0  0  0  0  0  0  0
   57.2333   31.0842   42.3943 H   0  0  0  0  0  0  0  0  0  0  0  0
   58.2728   33.3488   42.4056 H   0  0  0  0  0  0  0  0  0  0  0  0
  1  2  2  0
  2  3  1  0
  3  4  2  0
  4  5  1  0
  5  6  2  0
  6  7  1  0
  7  8  1  0
  8  9  2  0
  8 10  1  0
  7 11  2  0
 11 12  1  0
 12 13  2  0
 13 14  1  0
 14  2  1  0
 13  5  1  0
  3 15  1  0
  4 16  1  0
  6 17  1  0
 11 18  1  0
 12 19  1  0
M  CHG  2   8   1  10  -1
M  END
>  <UniqueID>  (14) 
13

>  <SMILES>  (14) 
O=c1ccc2cc([N+](=O)[O-])ccc2o1

>  <Energy>  (14) 
25.13752699300136

>  <Genealogy>  (14) 
O=c1ccc2cc([N+](=O)[O-])ccc2o1 (3D coordinates assigned)
O=c1ccc2cc([N+](=O)[O-])ccc2o1 (optimized conformer: 25.13752699300136 kcal/mol)

>  <smiles>  (14) 
O=c1ccc2cc([N+](=O)[O-])ccc2o1

>  <score_type>  (14) 
oracle

>  <origin>  (14) 
adg

>  <m_score__min__energy>  (14) 
-5.9199999999999999

>  <m_primary>  (14) 
energy

$$$$
14:0
     RDKit          3D

 50 52  0  0  0  0  0  0  0  0999 V2000
   65.7370   32.1570   50.1190 N   0  0  0  0  0  0  0  0  0  0  0  0
   64.6730   31.9520   49.7120 C   0  0  0  0  0  0  0  0  0  0  0  0
   63.3500   31.6970   49.2040 C   0  0  0  0  0  0  0  0  0  0  0  0
   62.3980   31.0590   50.0100 C   0  0  0  0  0  0  0  0  0  0  0  0
   61.1100   30.8220   49.5180 C   0  0  0  0  0  0  0  0  0  0  0  0
   60.7700   31.2040   48.2130 C   0  0  0  0  0  0  0  0  0  0  0  0
   59.4290   30.9990   47.7330 N   0  0  0  0  0  0  0  0  0  0  0  0
   58.4340   32.0510   47.9700 C   0  0  0  0  0  0  0  0  0  0  0  0
   58.6950   33.2230   47.0630 C   0  0  0  0  0  0  0  0  0  0  0  0
   59.3920   34.3450   47.5400 C   0  0  0  0  0  0  0  0  0  0  0  0
   59.6760   35.4140   46.6850 C   0  0  0  0  0  0  0  0  0  0  0  0
   59.2690   35.3710   45.3490 C   0  0  0  0  0  0  0  0  0  0  0  0
   59.5460   36.4070   44.5210 F   0  0  0  0  0  0  0  0  0  0  0  0
   58.5780   34.2550   44.8650 C   0  0  0  0  0  0  0  0  0  0  0  0
   58.2950   33.1840   45.7180 C   0  0  0  0  0  0  0  0  0  0  0  0
   59.0480   29.7840   46.9830 C   0  0  0  0  0  0  0  0  0  0  0  0
   58.6170   28.6410   47.9300 C   0  0  0  0  0  0  0  0  0  0  0  0
   59.0070   27.2490   47.3950 C   0  0  0  0  0  0  0  0  0  0  0  0
   58.8660   27.1490   45.9270 N   0  0  0  0  0  0  0  0  0  0  0  0
   57.4480   27.1510   45.4990 C   0  0  0  0  0  0  0  0  0  0  0  0
   56.5820   26.3610   46.4850 C   0  0  0  0  0  0  0  0  0  0  0  0
   55.2210   26.5760   46.2310 O   0  0  0  0  0  0  0  0  0  0  0  0
   59.7030   28.1310   45.1850 C   0  0  0  0  0  0  0  0  0  0  0  0
   60.1660   29.3320   46.0340 C   0  0  0  0  0  0  0  0  0  0  0  0
   61.7180   31.8640   47.4180 C   0  0  0  0  0  0  0  0  0  0  0  0
   63.0060   32.1050   47.9090 C   0  0  0  0  0  0  0  0  0  0  0  0
   62.6634   30.7443   51.0301 H   0  0  0  0  0  0  0  0  0  0  0  0
   60.3607   30.3336   50.1583 H   0  0  0  0  0  0  0  0  0  0  0  0
   57.4285   31.6526   47.7696 H   0  0  0  0  0  0  0  0  0  0  0  0
   58.5032   32.3830   49.0164 H   0  0  0  0  0  0  0  0  0  0  0  0
   59.7158   34.3829   48.5906 H   0  0  0  0  0  0  0  0  0  0  0  0
   60.2210   36.2908   47.0648 H   0  0  0  0  0  0  0  0  0  0  0  0
   58.2573   34.2202   43.8134 H   0  0  0  0  0  0  0  0  0  0  0  0
   57.7559   32.3059   45.3330 H   0  0  0  0  0  0  0  0  0  0  0  0
   58.1764   30.0450   46.3648 H   0  0  0  0  0  0  0  0  0  0  0  0
   59.1006   28.7913   48.9065 H   0  0  0  0  0  0  0  0  0  0  0  0
   57.5204   28.6714   48.0113 H   0  0  0  0  0  0  0  0  0  0  0  0
   60.0546   27.0482   47.6636 H   0  0  0  0  0  0  0  0  0  0  0  0
   58.3263   26.5131   47.8479 H   0  0  0  0  0  0  0  0  0  0  0  0
   57.0866   28.1889   45.4527 H   0  0  0  0  0  0  0  0  0  0  0  0
   57.3775   26.6769   44.5089 H   0  0  0  0  0  0  0  0  0  0  0  0
   56.8037   25.2886   46.3814 H   0  0  0  0  0  0  0  0  0  0  0  0
   56.8092   26.7007   47.5063 H   0  0  0  0  0  0  0  0  0  0  0  0
   54.7870   26.7250   47.1100 H   0  0  0  0  0  0  0  0  0  0  0  0
   60.5954   27.6095   44.8086 H   0  0  0  0  0  0  0  0  0  0  0  0
   59.0756   28.5364   44.3775 H   0  0  0  0  0  0  0  0  0  0  0  0
   61.0461   29.0391   46.6254 H   0  0  0  0  0  0  0  0  0  0  0  0
   60.4199   30.1651   45.3621 H   0  0  0  0  0  0  0  0  0  0  0  0
   61.4480   32.1937   46.4039 H   0  0  0  0  0  0  0  0  0  0  0  0
   63.7486   32.6150   47.2778 H   0  0  0  0  0  0  0  0  0  0  0  0
  1  2  3  0
  2  3  1  0
  3  4  2  0
  4  5  1  0
  5  6  2  0
  6  7  1  0
  7  8  1  0
  8  9  1  0
  9 10  2  0
 10 11  1  0
 11 12  2  0
 12 13  1  0
 12 14  1  0
 14 15  2  0
  7 16  1  0
 16 17  1  0
 17 18  1  0
 18 19  1  0
 19 20  1  0
 20 21  1  0
 21 22  1  0
 19 23  1  0
 23 24  1  0
  6 25  1  0
 25 26  2  0
 26  3  1  0
 15  9  1  0
 24 16  1  0
  4 27  1  0
  5 28  1  0
  8 29  1  0
  8 30  1  0
 10 31  1  0
 11 32  1  0
 14 33  1  0
 15 34  1  0
 16 35  1  0
 17 36  1  0
 17 37  1  0
 18 38  1  0
 18 39  1  0
 20 40  1  0
 20 41  1  0
 21 42  1  0
 21 43  1  0
 22 44  1  0
 23 45  1  0
 23 46  1  0
 24 47  1  0
 24 48  1  0
 25 49  1  0
 26 50  1  0
M  END
>  <UniqueID>  (15) 
14

>  <SMILES>  (15) 
N#Cc1ccc(N(Cc2ccc(F)cc2)C2CCN(CCO)CC2)cc1

>  <Energy>  (15) 
61.33308442759838

>  <Genealogy>  (15) 
N#Cc1ccc(N(Cc2ccc(F)cc2)C2CCN(CCO)CC2)cc1 (3D coordinates assigned)
N#Cc1ccc(N(Cc2ccc(F)cc2)C2CCN(CCO)CC2)cc1 (nonaromatic ring conformer: 61.33308442759838 kcal/mol)

>  <smiles>  (15) 
N#Cc1ccc(N(Cc2ccc(F)cc2)C2CCN(CCO)CC2)cc1

>  <score_type>  (15) 
oracle

>  <origin>  (15) 
adg

>  <m_score__min__energy>  (15) 
-7.8099999999999996

>  <m_primary>  (15) 
energy

$$$$
15:0
     RDKit          3D

 44 45  0  0  0  0  0  0  0  0999 V2000
   63.0200   31.4080   47.7690 C   0  0  0  0  0  0  0  0  0  0  0  0
   63.9760   32.4600   48.1600 N   0  0  0  0  0  0  0  0  0  0  0  0
   64.5240   32.1930   49.5020 C   0  0  0  0  0  0  0  0  0  0  0  0
   63.3960   33.8210   48.0470 C   0  0  0  0  0  0  0  0  0  0  0  0
   61.9200   33.8360   47.7060 C   0  0  0  0  0  0  0  0  0  0  0  0
   61.5000   33.8370   46.3650 C   0  0  0  0  0  0  0  0  0  0  0  0
   60.1390   33.8400   46.0500 C   0  0  0  0  0  0  0  0  0  0  0  0
   59.1760   33.8460   47.0690 C   0  0  0  0  0  0  0  0  0  0  0  0
   57.7110   33.8370   46.7250 C   0  0  0  0  0  0  0  0  0  0  0  0
   57.4610   33.7020   44.9160 S   0  0  0  0  0  0  0  0  0  0  0  0
   57.0200   31.9230   44.8660 C   0  0  0  0  0  0  0  0  0  0  0  0
   58.1340   31.0860   44.2280 C   0  0  0  0  0  0  0  0  0  0  0  0
   58.8530   30.2420   45.2470 C   0  0  0  0  0  0  0  0  0  0  0  0
   58.7900   30.5640   46.6130 C   0  0  0  0  0  0  0  0  0  0  0  0
   59.4950   29.8030   47.5500 C   0  0  0  0  0  0  0  0  0  0  0  0
   60.2700   28.7170   47.1300 C   0  0  0  0  0  0  0  0  0  0  0  0
   60.3410   28.3920   45.7730 C   0  0  0  0  0  0  0  0  0  0  0  0
   59.6370   29.1520   44.8330 C   0  0  0  0  0  0  0  0  0  0  0  0
   59.5930   33.8620   48.4090 C   0  0  0  0  0  0  0  0  0  0  0  0
   60.9540   33.8570   48.7240 C   0  0  0  0  0  0  0  0  0  0  0  0
   62.5973   30.9428   48.6717 H   0  0  0  0  0  0  0  0  0  0  0  0
   62.2100   31.8522   47.1718 H   0  0  0  0  0  0  0  0  0  0  0  0
   63.5394   30.6441   47.1718 H   0  0  0  0  0  0  0  0  0  0  0  0
   64.7770   32.4140   47.4860 H   0  0  0  0  0  0  0  0  0  0  0  0
   63.8115   32.5402   50.2647 H   0  0  0  0  0  0  0  0  0  0  0  0
   64.6914   31.1124   49.6214 H   0  0  0  0  0  0  0  0  0  0  0  0
   65.4781   32.7272   49.6214 H   0  0  0  0  0  0  0  0  0  0  0  0
   63.5340   34.3366   49.0088 H   0  0  0  0  0  0  0  0  0  0  0  0
   63.9188   34.3217   47.2188 H   0  0  0  0  0  0  0  0  0  0  0  0
   62.2477   33.8354   45.5582 H   0  0  0  0  0  0  0  0  0  0  0  0
   59.8212   33.8376   44.9969 H   0  0  0  0  0  0  0  0  0  0  0  0
   57.2309   32.9795   47.2192 H   0  0  0  0  0  0  0  0  0  0  0  0
   57.2646   34.7812   47.0704 H   0  0  0  0  0  0  0  0  0  0  0  0
   56.8497   31.5679   45.8931 H   0  0  0  0  0  0  0  0  0  0  0  0
   56.1111   31.8097   44.2568 H   0  0  0  0  0  0  0  0  0  0  0  0
   57.6921   30.4260   43.4670 H   0  0  0  0  0  0  0  0  0  0  0  0
   58.8642   31.7748   43.7781 H   0  0  0  0  0  0  0  0  0  0  0  0
   58.1833   31.4187   46.9467 H   0  0  0  0  0  0  0  0  0  0  0  0
   59.4402   30.0585   48.6185 H   0  0  0  0  0  0  0  0  0  0  0  0
   60.8238   28.1186   47.8684 H   0  0  0  0  0  0  0  0  0  0  0  0
   60.9509   27.5379   45.4436 H   0  0  0  0  0  0  0  0  0  0  0  0
   59.6975   28.8952   43.7651 H   0  0  0  0  0  0  0  0  0  0  0  0
   58.8446   33.8786   49.2150 H   0  0  0  0  0  0  0  0  0  0  0  0
   61.2708   33.8696   49.7773 H   0  0  0  0  0  0  0  0  0  0  0  0
  1  2  1  0
  2  3  1  0
  2  4  1  0
  4  5  1  0
  5  6  2  0
  6  7  1  0
  7  8  2  0
  8  9  1  0
  9 10  1  0
 10 11  1  0
 11 12  1  0
 12 13  1  0
 13 14  2  0
 14 15  1  0
 15 16  2  0
 16 17  1  0
 17 18  2  0
  8 19  1  0
 19 20  2  0
 20  5  1  0
 18 13  1  0
  1 21  1  0
  1 22  1  0
  1 23  1  0
  2 24  1  0
  3 25  1  0
  3 26  1  0
  3 27  1  0
  4 28  1  0
  4 29  1  0
  6 30  1  0
  7 31  1  0
  9 32  1  0
  9 33  1  0
 11 34  1  0
 11 35  1  0
 12 36  1  0
 12 37  1  0
 14 38  1  0
 15 39  1  0
 16 40  1  0
 17 41  1  0
 18 42  1  0
 19 43  1  0
 20 44  1  0
M  CHG  1   2   1
M  END
>  <UniqueID>  (16) 
15

>  <SMILES>  (16) 
C[NH+](C)Cc1ccc(CSCCc2ccccc2)cc1

>  <Energy>  (16) 
39.42544465113875

>  <Genealogy>  (16) 
C[NH+](C)Cc1ccc(CSCCc2ccccc2)cc1 (protonated)
C[NH+](C)Cc1ccc(CSCCc2ccccc2)cc1 (3D coordinates assigned)
C[NH+](C)Cc1ccc(CSCCc2ccccc2)cc1 (optimized conformer: 39.42544465113875 kcal/mol)

>  <smiles>  (16) 
CN(C)Cc1ccc(CSCCc2ccccc2)cc1

>  <score_type>  (16) 
oracle

>  <origin>  (16) 
adg

>  <m_score__min__energy>  (16) 
-5.9299999999999997

>  <m_primary>  (16) 
energy

$$$$
16:0
     RDKit          3D

 22 23  0  0  0  0  0  0  0  0999 V2000
   59.6010   34.9170   46.1080 C   0  0  0  0  0  0  0  0  0  0  0  0
   58.2720   34.1730   45.9950 C   0  0  0  0  0  0  0  0  0  0  0  0
   58.2560   33.1870   44.8200 C   0  0  0  0  0  0  0  0  0  0  0  0
   58.3560   31.8060   45.2900 N   0  0  0  0  0  0  0  0  0  0  0  0
   59.3550   31.2470   46.0220 C   0  0  0  0  0  0  0  0  0  0  0  0
   59.1260   29.9420   46.3390 N   0  0  0  0  0  0  0  0  0  0  0  0
   57.9270   29.7060   45.7730 C   0  0  0  0  0  0  0  0  0  0  0  0
   57.1640   28.5470   45.7660 C   0  0  0  0  0  0  0  0  0  0  0  0
   57.5630   27.4970   46.3370 O   0  0  0  0  0  0  0  0  0  0  0  0
   55.9620   28.5760   45.1210 N   0  0  0  0  0  0  0  0  0  0  0  0
   55.5160   29.7160   44.4980 C   0  0  0  0  0  0  0  0  0  0  0  0
   56.2730   30.8550   44.5100 N   0  0  0  0  0  0  0  0  0  0  0  0
   57.4670   30.8160   45.1510 C   0  0  0  0  0  0  0  0  0  0  0  0
   59.8531   35.0581   47.1694 H   0  0  0  0  0  0  0  0  0  0  0  0
   60.3923   34.3307   45.6180 H   0  0  0  0  0  0  0  0  0  0  0  0
   59.5148   35.8981   45.6180 H   0  0  0  0  0  0  0  0  0  0  0  0
   58.0981   33.6155   46.9272 H   0  0  0  0  0  0  0  0  0  0  0  0
   57.4823   34.9185   45.8200 H   0  0  0  0  0  0  0  0  0  0  0  0
   57.3163   33.3092   44.2613 H   0  0  0  0  0  0  0  0  0  0  0  0
   59.1205   33.3995   44.1739 H   0  0  0  0  0  0  0  0  0  0  0  0
   60.2589   31.7939   46.3282 H   0  0  0  0  0  0  0  0  0  0  0  0
   54.5427   29.7129   43.9856 H   0  0  0  0  0  0  0  0  0  0  0  0
  1  2  1  0
  2  3  1  0
  3  4  1  0
  4  5  1  0
  5  6  2  0
  6  7  1  0
  7  8  1  0
  8  9  2  0
  8 10  1  0
 10 11  1  0
 11 12  2  0
 12 13  1  0
 13  4  1  0
 13  7  2  0
  1 14  1  0
  1 15  1  0
  1 16  1  0
  2 17  1  0
  2 18  1  0
  3 19  1  0
  3 20  1  0
  5 21  1  0
 11 22  1  0
M  CHG  1  10  -1
M  END
>  <UniqueID>  (17) 
16

>  <SMILES>  (17) 
CCCn1cnc2c(=O)[n-]cnc21

>  <Energy>  (17) 
58.21409110620357

>  <Genealogy>  (17) 
CCCn1cnc2c(=O)[n-]cnc21 (protonated)
CCCn1cnc2c(=O)[n-]cnc21 (3D coordinates assigned)
CCCn1cnc2c(=O)[n-]cnc21 (optimized conformer: 58.21409110620357 kcal/mol)

>  <smiles>  (17) 
CCCn1cnc2c(=O)[nH]cnc21

>  <score_type>  (17) 
oracle

>  <origin>  (17) 
adg

>  <m_score__min__energy>  (17) 
-6.9400000000000004

>  <m_primary>  (17) 
energy

$$$$
17:0
     RDKit          3D

 31 32  0  0  0  0  0  0  0  0999 V2000
   64.0720   33.6260   48.8970 C   0  0  0  0  0  0  0  0  0  0  0  0
   63.6420   32.7120   47.8250 N   0  0  0  0  0  0  0  0  0  0  0  0
   62.9320   33.4560   46.7440 C   0  0  0  0  0  0  0  0  0  0  0  0
   61.4080   33.2810   46.7860 C   0  0  0  0  0  0  0  0  0  0  0  0
   61.0660   31.8530   46.7460 N   0  0  0  0  0  0  0  0  0  0  0  0
   59.8250   31.4060   46.1580 C   0  0  0  0  0  0  0  0  0  0  0  0
   58.8490   32.3370   45.7530 C   0  0  0  0  0  0  0  0  0  0  0  0
   57.6480   31.9040   45.1840 C   0  0  0  0  0  0  0  0  0  0  0  0
   57.4040   30.5370   45.0090 C   0  0  0  0  0  0  0  0  0  0  0  0
   56.1670   30.0930   44.4210 C   0  0  0  0  0  0  0  0  0  0  0  0
   55.1730   29.7370   43.9490 N   0  0  0  0  0  0  0  0  0  0  0  0
   58.3670   29.6030   45.4060 C   0  0  0  0  0  0  0  0  0  0  0  0
   59.5690   30.0330   45.9770 C   0  0  0  0  0  0  0  0  0  0  0  0
   61.9910   30.8880   47.3560 C   0  0  0  0  0  0  0  0  0  0  0  0
   62.8660   31.5850   48.4030 C   0  0  0  0  0  0  0  0  0  0  0  0
   63.8577   33.1705   49.8751 H   0  0  0  0  0  0  0  0  0  0  0  0
   65.1524   33.8127   48.8083 H   0  0  0  0  0  0  0  0  0  0  0  0
   63.5270   34.5774   48.8083 H   0  0  0  0  0  0  0  0  0  0  0  0
   64.5150   32.3080   47.4070 H   0  0  0  0  0  0  0  0  0  0  0  0
   63.1634   34.5264   46.8470 H   0  0  0  0  0  0  0  0  0  0  0  0
   63.2804   33.0468   45.7842 H   0  0  0  0  0  0  0  0  0  0  0  0
   61.0157   33.7239   47.7133 H   0  0  0  0  0  0  0  0  0  0  0  0
   60.9622   33.7840   45.9152 H   0  0  0  0  0  0  0  0  0  0  0  0
   59.0333   33.4133   45.8855 H   0  0  0  0  0  0  0  0  0  0  0  0
   56.8921   32.6400   44.8727 H   0  0  0  0  0  0  0  0  0  0  0  0
   58.1783   28.5280   45.2687 H   0  0  0  0  0  0  0  0  0  0  0  0
   60.3209   29.2925   46.2874 H   0  0  0  0  0  0  0  0  0  0  0  0
   61.4134   30.0867   47.8400 H   0  0  0  0  0  0  0  0  0  0  0  0
   62.6365   30.4641   46.5726 H   0  0  0  0  0  0  0  0  0  0  0  0
   62.2191   31.9739   49.2032 H   0  0  0  0  0  0  0  0  0  0  0  0
   63.5821   30.8457   48.7910 H   0  0  0  0  0  0  0  0  0  0  0  0
  1  2  1  0
  2  3  1  0
  3  4  1  0
  4  5  1  0
  5  6  1  0
  6  7  2  0
  7  8  1  0
  8  9  2  0
  9 10  1  0
 10 11  3  0
  9 12  1  0
 12 13  2  0
  5 14  1  0
 14 15  1  0
 15  2  1  0
 13  6  1  0
  1 16  1  0
  1 17  1  0
  1 18  1  0
  2 19  1  0
  3 20  1  0
  3 21  1  0
  4 22  1  0
  4 23  1  0
  7 24  1  0
  8 25  1  0
 12 26  1  0
 13 27  1  0
 14 28  1  0
 14 29  1  0
 15 30  1  0
 15 31  1  0
M  CHG  1   2   1
M  END
>  <UniqueID>  (18) 
17

>  <SMILES>  (18) 
C[NH+]1CCN(c2ccc(C#N)cc2)CC1

>  <Energy>  (18) 
39.210024882993935

>  <Genealogy>  (18) 
C[NH+]1CCN(c2ccc(C#N)cc2)CC1 (protonated)
C[NH+]1CCN(c2ccc(C#N)cc2)CC1 (3D coordinates assigned)
C[NH+]1CCN(c2ccc(C#N)cc2)CC1 (nonaromatic ring conformer: 39.210024882993935 kcal/mol)

>  <smiles>  (18) 
CN1CCN(c2ccc(C#N)cc2)CC1

>  <score_type>  (18) 
oracle

>  <origin>  (18) 
adg

>  <m_score__min__energy>  (18) 
-4.0499999999999998

>  <m_primary>  (18) 
energy

$$$$
18:0
     RDKit          3D

 40 43  0  0  0  0  0  0  0  0999 V2000
   66.1392   33.5149   49.5035 H   0  0  0  0  0  0  0  0  0  0  0  0
   65.1480   33.0450   49.5860 C   0  0  0  0  0  0  0  0  0  0  0  0
   64.0870   33.5100   48.8040 C   0  0  0  0  0  0  0  0  0  0  0  0
   64.2427   34.3485   48.1093 H   0  0  0  0  0  0  0  0  0  0  0  0
   62.8270   32.9100   48.9040 C   0  0  0  0  0  0  0  0  0  0  0  0
   61.9918   33.2840   48.2936 H   0  0  0  0  0  0  0  0  0  0  0  0
   62.6250   31.8320   49.7810 C   0  0  0  0  0  0  0  0  0  0  0  0
   61.2600   31.2200   49.9250 C   0  0  0  0  0  0  0  0  0  0  0  0
   60.5263   32.0120   50.1357 H   0  0  0  0  0  0  0  0  0  0  0  0
   61.2753   30.4952   50.7523 H   0  0  0  0  0  0  0  0  0  0  0  0
   60.8980   30.5510   48.7270 O   0  0  0  0  0  0  0  0  0  0  0  0
   60.8210   31.2400   47.5360 N   0  0  0  0  0  0  0  0  0  0  0  0
   59.7260   31.3520   46.8450 C   0  0  0  0  0  0  0  0  0  0  0  0
   58.9220   30.1360   46.5870 C   0  0  0  0  0  0  0  0  0  0  0  0
   57.7380   30.2540   45.8450 C   0  0  0  0  0  0  0  0  0  0  0  0
   56.9590   29.1210   45.6080 C   0  0  0  0  0  0  0  0  0  0  0  0
   56.0357   29.2047   45.0159 H   0  0  0  0  0  0  0  0  0  0  0  0
   57.3490   27.8760   46.1220 C   0  0  0  0  0  0  0  0  0  0  0  0
   56.5320   26.6650   45.8860 C   0  0  0  0  0  0  0  0  0  0  0  0
   57.0800   25.5720   45.5830 O   0  0  0  0  0  0  0  0  0  0  0  0
   55.1470   26.7180   45.9950 O   0  0  0  0  0  0  0  0  0  0  0  0
   58.5390   27.8010   46.8630 C   0  0  0  0  0  0  0  0  0  0  0  0
   58.8657   26.8344   47.2740 H   0  0  0  0  0  0  0  0  0  0  0  0
   59.2920   28.9150   47.0770 N   0  0  0  0  0  0  0  0  0  0  0  0
   60.1680   28.8120   47.6370 H   0  0  0  0  0  0  0  0  0  0  0  0
   57.3700   31.5080   45.2630 N   0  0  0  0  0  0  0  0  0  0  0  0
   58.0020   32.6150   45.5170 C   0  0  0  0  0  0  0  0  0  0  0  0
   57.7280   33.8420   44.7300 C   0  0  0  0  0  0  0  0  0  0  0  0
   57.6578   33.5964   43.6601 H   0  0  0  0  0  0  0  0  0  0  0  0
   56.7751   34.2988   45.0355 H   0  0  0  0  0  0  0  0  0  0  0  0
   59.1160   34.9830   45.0190 S   0  0  0  0  0  0  0  0  0  0  0  0
   60.1050   33.6910   45.8470 C   0  0  0  0  0  0  0  0  0  0  0  0
   60.7298   33.1663   45.1092 H   0  0  0  0  0  0  0  0  0  0  0  0
   60.7671   34.1367   46.6039 H   0  0  0  0  0  0  0  0  0  0  0  0
   59.1320   32.7110   46.4960 C   0  0  2  0  0  0  0  0  0  0  0  0
   58.8143   33.0758   47.4839 H   0  0  0  0  0  0  0  0  0  0  0  0
   63.6930   31.3810   50.5750 C   0  0  0  0  0  0  0  0  0  0  0  0
   63.5395   30.5507   51.2800 H   0  0  0  0  0  0  0  0  0  0  0  0
   64.9500   31.9840   50.4720 C   0  0  0  0  0  0  0  0  0  0  0  0
   65.7848   31.6220   51.0901 H   0  0  0  0  0  0  0  0  0  0  0  0
  1  2  1  0
  2  3  2  0
  3  4  1  0
  3  5  1  0
  5  6  1  0
  5  7  2  0
  7  8  1  0
  8  9  1  0
  8 10  1  0
  8 11  1  0
 11 12  1  0
 12 13  2  0
 13 14  1  0
 14 15  1  0
 15 16  2  0
 16 17  1  0
 16 18  1  0
 18 19  1  0
 19 20  2  0
 19 21  1  0
 18 22  2  0
 22 23  1  0
 22 24  1  0
 24 25  1  0
 15 26  1  0
 26 27  2  0
 27 28  1  0
 28 29  1  0
 28 30  1  0
 28 31  1  0
 31 32  1  0
 32 33  1  0
 32 34  1  0
 32 35  1  0
 35 36  1  1
  7 37  1  0
 37 38  1  0
 37 39  2  0
 39 40  1  0
 39  2  1  0
 35 13  1  0
 24 14  2  0
 35 27  1  0
M  CHG  2  21  -1  24   1
M  END
>  <UniqueID>  (19) 
18

>  <SMILES>  (19) 
O=C([O-])c1c[nH+]c2c(c1)N=C1CSC[C@@H]1/C2=N\OCc1ccccc1

>  <Energy>  (19) 
43.65822703378321

>  <Genealogy>  (19) 
O=C([O-])c1c[nH+]c2c(c1)N=C1CSCC1C2=NOCc1ccccc1 (protonated)
O=C([O-])c1c[nH+]c2c(c1)N=C1CSC[C@@H]1C2=NOCc1ccccc1 (chirality)
O=C([O-])c1c[nH+]c2c(c1)N=C1CSC[C@@H]1/C2=N\OCc1ccccc1 (cis-trans isomerization)
O=C([O-])c1c[nH+]c2c(c1)N=C1CSC[C@@H]1/C2=N\OCc1ccccc1 (3D coordinates assigned)
O=C([O-])c1c[nH+]c2c(c1)N=C1CSC[C@@H]1/C2=N\OCc1ccccc1 (nonaromatic ring conformer: 43.65822703378321 kcal/mol)

>  <smiles>  (19) 
O=C(O)c1cnc2c(c1)N=C1CSCC1C2=NOCc1ccccc1

>  <score_type>  (19) 
oracle

>  <origin>  (19) 
adg

>  <m_score__min__energy>  (19) 
-8.7799999999999994

>  <m_primary>  (19) 
energy

$$$$
19:0
     RDKit          3D

 23 23  0  0  0  0  0  0  0  0999 V2000
   58.1870   34.5720   44.9410 C   0  0  0  0  0  0  0  0  0  0  0  0
   57.9020   33.1950   45.4440 C   0  0  0  0  0  0  0  0  0  0  0  0
   57.3610   33.0490   46.5730 O   0  0  0  0  0  0  0  0  0  0  0  0
   58.3310   32.0540   44.6850 N   0  0  0  0  0  0  0  0  0  0  0  0
   57.9520   30.6980   44.9790 C   0  0  0  0  0  0  0  0  0  0  0  0
   56.7580   30.1870   44.4480 C   0  0  0  0  0  0  0  0  0  0  0  0
   56.3560   28.8790   44.7350 C   0  0  0  0  0  0  0  0  0  0  0  0
   57.1340   28.0720   45.5750 C   0  0  0  0  0  0  0  0  0  0  0  0
   56.6360   26.4200   45.9290 S   0  0  0  0  0  0  0  0  0  0  0  0
   54.9120   26.3410   46.0050 N   0  0  0  0  0  0  0  0  0  0  0  0
   57.2150   25.9820   47.2450 O   0  0  0  0  0  0  0  0  0  0  0  0
   57.1340   25.4970   44.8520 O   0  0  0  0  0  0  0  0  0  0  0  0
   58.3190   28.5820   46.1210 C   0  0  0  0  0  0  0  0  0  0  0  0
   58.7230   29.8880   45.8330 C   0  0  0  0  0  0  0  0  0  0  0  0
   58.3278   35.2521   45.7940 H   0  0  0  0  0  0  0  0  0  0  0  0
   59.1011   34.5570   44.3293 H   0  0  0  0  0  0  0  0  0  0  0  0
   57.3421   34.9211   44.3293 H   0  0  0  0  0  0  0  0  0  0  0  0
   59.0250   32.2140   43.9200 H   0  0  0  0  0  0  0  0  0  0  0  0
   56.1334   30.8204   43.8009 H   0  0  0  0  0  0  0  0  0  0  0  0
   55.4266   28.4827   44.3001 H   0  0  0  0  0  0  0  0  0  0  0  0
   54.6060   27.0440   46.7150 H   0  0  0  0  0  0  0  0  0  0  0  0
   58.9342   27.9513   46.7795 H   0  0  0  0  0  0  0  0  0  0  0  0
   59.6483   30.2850   46.2760 H   0  0  0  0  0  0  0  0  0  0  0  0
  1  2  1  0
  2  3  2  0
  2  4  1  0
  4  5  1  0
  5  6  2  0
  6  7  1  0
  7  8  2  0
  8  9  1  0
  9 10  1  0
  9 11  2  0
  9 12  2  0
  8 13  1  0
 13 14  2  0
 14  5  1  0
  1 15  1  0
  1 16  1  0
  1 17  1  0
  4 18  1  0
  6 19  1  0
  7 20  1  0
 10 21  1  0
 13 22  1  0
 14 23  1  0
M  CHG  1  10  -1
M  END
>  <UniqueID>  (20) 
19

>  <SMILES>  (20) 
CC(=O)Nc1ccc(S([NH-])(=O)=O)cc1

>  <Energy>  (20) 
22.567905145743943

>  <Genealogy>  (20) 
CC(=O)Nc1ccc(S([NH-])(=O)=O)cc1 (protonated)
CC(=O)Nc1ccc(S([NH-])(=O)=O)cc1 (3D coordinates assigned)
CC(=O)Nc1ccc(S([NH-])(=O)=O)cc1 (optimized conformer: 22.567905145743943 kcal/mol)

>  <smiles>  (20) 
CC(=O)Nc1ccc(S(N)(=O)=O)cc1

>  <score_type>  (20) 
oracle

>  <origin>  (20) 
adg

>  <m_score__min__energy>  (20) 
-8.4499999999999993

>  <m_primary>  (20) 
energy

$$$$
20:0
     RDKit          3D

 33 34  0  0  0  0  0  0  0  0999 V2000
   58.4540   32.6480   47.3580 C   0  0  0  0  0  0  0  0  0  0  0  0
   58.0500   32.3060   45.9600 C   0  0  0  0  0  0  0  0  0  0  0  0
   57.3920   31.1710   45.6420 N   0  0  0  0  0  0  0  0  0  0  0  0
   57.2160   31.2690   44.3080 C   0  0  0  0  0  0  0  0  0  0  0  0
   56.3660   30.0750   43.3470 S   0  0  0  0  0  0  0  0  0  0  0  0
   56.4380   30.4740   41.9010 O   0  0  0  0  0  0  0  0  0  0  0  0
   54.9240   29.9960   43.7660 O   0  0  0  0  0  0  0  0  0  0  0  0
   57.1090   28.5200   43.5510 N   0  0  0  0  0  0  0  0  0  0  0  0
   57.9200   28.1570   44.6830 C   0  0  0  0  0  0  0  0  0  0  0  0
   57.3890   27.4710   45.7900 C   0  0  0  0  0  0  0  0  0  0  0  0
   58.2050   27.1390   46.8760 C   0  0  0  0  0  0  0  0  0  0  0  0
   59.5620   27.4970   46.8850 C   0  0  0  0  0  0  0  0  0  0  0  0
   60.4510   27.0960   48.0350 C   0  0  0  0  0  0  0  0  0  0  0  0
   60.9300   28.2330   48.6580 F   0  0  0  0  0  0  0  0  0  0  0  0
   61.5210   26.3430   47.5860 F   0  0  0  0  0  0  0  0  0  0  0  0
   59.7470   26.3410   48.9570 F   0  0  0  0  0  0  0  0  0  0  0  0
   60.1000   28.1520   45.7650 C   0  0  0  0  0  0  0  0  0  0  0  0
   59.2840   28.4830   44.6790 C   0  0  0  0  0  0  0  0  0  0  0  0
   57.7580   32.4430   43.8380 C   0  0  0  0  0  0  0  0  0  0  0  0
   58.2950   33.0880   44.8860 N   0  0  0  0  0  0  0  0  0  0  0  0
   58.9190   34.4070   44.8660 C   0  0  0  0  0  0  0  0  0  0  0  0
   57.8128   32.1052   48.0681 H   0  0  0  0  0  0  0  0  0  0  0  0
   59.5035   32.3597   47.5173 H   0  0  0  0  0  0  0  0  0  0  0  0
   58.3429   33.7307   47.5173 H   0  0  0  0  0  0  0  0  0  0  0  0
   57.0100   27.8430   42.7610 H   0  0  0  0  0  0  0  0  0  0  0  0
   56.3246   27.1937   45.8016 H   0  0  0  0  0  0  0  0  0  0  0  0
   57.7796   26.5925   47.7306 H   0  0  0  0  0  0  0  0  0  0  0  0
   61.1700   28.4061   45.7421 H   0  0  0  0  0  0  0  0  0  0  0  0
   59.7164   29.0046   43.8124 H   0  0  0  0  0  0  0  0  0  0  0  0
   57.7524   32.7899   42.7941 H   0  0  0  0  0  0  0  0  0  0  0  0
   59.0819   34.7513   45.8980 H   0  0  0  0  0  0  0  0  0  0  0  0
   59.8846   34.3479   44.3425 H   0  0  0  0  0  0  0  0  0  0  0  0
   58.2609   35.1161   44.3425 H   0  0  0  0  0  0  0  0  0  0  0  0
  1  2  1  0
  2  3  2  0
  3  4  1  0
  4  5  1  0
  5  6  2  0
  5  7  2  0
  5  8  1  0
  8  9  1  0
  9 10  2  0
 10 11  1  0
 11 12  2  0
 12 13  1  0
 13 14  1  0
 13 15  1  0
 13 16  1  0
 12 17  1  0
 17 18  2  0
  4 19  2  0
 19 20  1  0
 20 21  1  0
 20  2  1  0
 18  9  1  0
  1 22  1  0
  1 23  1  0
  1 24  1  0
  8 25  1  0
 10 26  1  0
 11 27  1  0
 17 28  1  0
 18 29  1  0
 19 30  1  0
 21 31  1  0
 21 32  1  0
 21 33  1  0
M  END
>  <UniqueID>  (21) 
20

>  <SMILES>  (21) 
Cc1nc(S(=O)(=O)Nc2ccc(C(F)(F)F)cc2)cn1C

>  <Energy>  (21) 
63.67458056302264

>  <Genealogy>  (21) 
Cc1nc(S(=O)(=O)Nc2ccc(C(F)(F)F)cc2)cn1C (3D coordinates assigned)
Cc1nc(S(=O)(=O)Nc2ccc(C(F)(F)F)cc2)cn1C (optimized conformer: 63.67458056302264 kcal/mol)

>  <smiles>  (21) 
Cc1nc(S(=O)(=O)Nc2ccc(C(F)(F)F)cc2)cn1C

>  <score_type>  (21) 
oracle

>  <origin>  (21) 
adg

>  <m_score__min__energy>  (21) 
-6.6900000000000004

>  <m_primary>  (21) 
energy

$$$$
21:0
     RDKit          3D

 29 30  0  0  0  0  0  0  0  0999 V2000
   55.1470   29.4470   45.2110 O   0  0  0  0  0  0  0  0  0  0  0  0
   55.5990   30.1190   44.0660 C   0  0  0  0  0  0  0  0  0  0  0  0
   57.1060   30.3970   44.1620 C   0  0  1  0  0  0  0  0  0  0  0  0
   57.3720   31.2650   45.2360 O   0  0  0  0  0  0  0  0  0  0  0  0
   58.7210   31.0540   45.6000 C   0  0  1  0  0  0  0  0  0  0  0  0
   58.8610   31.1100   47.0560 N   0  0  0  0  0  0  0  0  0  0  0  0
   59.1670   30.0950   47.8910 C   0  0  0  0  0  0  0  0  0  0  0  0
   59.3210   30.5210   49.1590 N   0  0  0  0  0  0  0  0  0  0  0  0
   59.1040   31.8510   49.1190 C   0  0  0  0  0  0  0  0  0  0  0  0
   59.2780   32.7740   50.2850 C   0  0  0  0  0  0  0  0  0  0  0  0
   60.3800   32.3810   51.0200 F   0  0  0  0  0  0  0  0  0  0  0  0
   59.4640   34.0700   49.8410 F   0  0  0  0  0  0  0  0  0  0  0  0
   58.1550   32.7320   51.0910 F   0  0  0  0  0  0  0  0  0  0  0  0
   58.8400   32.2230   47.8160 C   0  0  0  0  0  0  0  0  0  0  0  0
   59.1870   29.6990   45.0610 C   0  0  0  0  0  0  0  0  0  0  0  0
   57.9710   29.1500   44.3530 C   0  0  1  0  0  0  0  0  0  0  0  0
   57.3360   28.1580   45.1290 O   0  0  0  0  0  0  0  0  0  0  0  0
   55.7520   29.7050   45.9540 H   0  0  0  0  0  0  0  0  0  0  0  0
   55.4018   29.4971   43.1804 H   0  0  0  0  0  0  0  0  0  0  0  0
   55.0661   31.0778   43.9840 H   0  0  0  0  0  0  0  0  0  0  0  0
   57.3724   30.8421   43.1920 H   0  0  0  0  0  0  0  0  0  0  0  0
   59.3495   31.8444   45.1637 H   0  0  0  0  0  0  0  0  0  0  0  0
   59.2772   29.0473   47.5743 H   0  0  0  0  0  0  0  0  0  0  0  0
   59.5850   29.9440   49.9870 H   0  0  0  0  0  0  0  0  0  0  0  0
   58.6468   33.2461   47.4610 H   0  0  0  0  0  0  0  0  0  0  0  0
   60.0247   29.8244   44.3592 H   0  0  0  0  0  0  0  0  0  0  0  0
   59.5528   29.0307   45.8544 H   0  0  0  0  0  0  0  0  0  0  0  0
   58.1950   28.6444   43.4021 H   0  0  0  0  0  0  0  0  0  0  0  0
   56.5280   27.8520   44.6400 H   0  0  0  0  0  0  0  0  0  0  0  0
  1  2  1  0
  2  3  1  0
  3  4  1  0
  4  5  1  0
  5  6  1  0
  6  7  1  0
  7  8  2  0
  8  9  1  0
  9 10  1  0
 10 11  1  0
 10 12  1  0
 10 13  1  0
  9 14  2  0
  5 15  1  0
 15 16  1  0
 16 17  1  0
 16  3  1  0
 14  6  1  0
  1 18  1  0
  2 19  1  0
  2 20  1  0
  3 21  1  6
  5 22  1  6
  7 23  1  0
  8 24  1  0
 14 25  1  0
 15 26  1  0
 15 27  1  0
 16 28  1  6
 17 29  1  0
M  CHG  1   8   1
M  END
>  <UniqueID>  (22) 
21

>  <SMILES>  (22) 
OC[C@H]1O[C@@H](n2c[nH+]c(C(F)(F)F)c2)CC1O

>  <Energy>  (22) 
58.959564305451195

>  <Genealogy>  (22) 
OCC1OC(n2c[nH+]c(C(F)(F)F)c2)CC1O (protonated)
OC[C@H]1O[C@@H](n2c[nH+]c(C(F)(F)F)c2)CC1O (chirality)
OC[C@H]1O[C@@H](n2c[nH+]c(C(F)(F)F)c2)CC1O (3D coordinates assigned)
OC[C@H]1O[C@@H](n2c[nH+]c(C(F)(F)F)c2)CC1O (nonaromatic ring conformer: 58.959564305451195 kcal/mol)

>  <smiles>  (22) 
OCC1OC(n2cnc(C(F)(F)F)c2)CC1O

>  <score_type>  (22) 
oracle

>  <origin>  (22) 
adg

>  <m_score__min__energy>  (22) 
-3.6899999999999999

>  <m_primary>  (22) 
energy

$$$$
22:0
     RDKit          3D

 47 49  0  0  0  0  0  0  0  0999 V2000
   57.4640   34.2500   45.1550 C   0  0  0  0  0  0  0  0  0  0  0  0
   58.8640   34.7990   44.8820 C   0  0  0  0  0  0  0  0  0  0  0  0
   59.6840   34.9760   46.1660 C   0  0  0  0  0  0  0  0  0  0  0  0
   60.3690   33.6980   46.5740 C   0  0  0  0  0  0  0  0  0  0  0  0
   59.6980   32.4720   46.4620 C   0  0  0  0  0  0  0  0  0  0  0  0
   60.3560   31.2800   46.8020 C   0  0  0  0  0  0  0  0  0  0  0  0
   59.6630   29.9720   46.6750 C   0  0  0  0  0  0  0  0  0  0  0  0
   59.3390   29.2200   47.8180 C   0  0  0  0  0  0  0  0  0  0  0  0
   58.6890   27.9890   47.6980 C   0  0  0  0  0  0  0  0  0  0  0  0
   58.3440   27.4860   46.4330 C   0  0  0  0  0  0  0  0  0  0  0  0
   57.6830   26.2140   46.3040 N   0  0  0  0  0  0  0  0  0  0  0  0
   57.1360   25.8010   45.0070 C   0  0  0  0  0  0  0  0  0  0  0  0
   56.2430   24.5700   45.1720 C   0  0  0  0  0  0  0  0  0  0  0  0
   55.5060   24.6830   46.3700 O   0  0  0  0  0  0  0  0  0  0  0  0
   56.3540   24.4660   47.4850 C   0  0  0  0  0  0  0  0  0  0  0  0
   57.6790   25.2640   47.4260 C   0  0  0  0  0  0  0  0  0  0  0  0
   58.6720   28.2330   45.2910 C   0  0  0  0  0  0  0  0  0  0  0  0
   59.3230   29.4630   45.4100 C   0  0  0  0  0  0  0  0  0  0  0  0
   61.6810   31.3450   47.2550 C   0  0  0  0  0  0  0  0  0  0  0  0
   62.3210   32.5870   47.3690 C   0  0  0  0  0  0  0  0  0  0  0  0
   63.7510   32.6550   47.8180 C   0  0  0  0  0  0  0  0  0  0  0  0
   61.6600   33.7250   47.0120 N   0  0  0  0  0  0  0  0  0  0  0  0
   57.3006   34.1859   46.2409 H   0  0  0  0  0  0  0  0  0  0  0  0
   56.7140   34.9206   44.7103 H   0  0  0  0  0  0  0  0  0  0  0  0
   57.3698   33.2483   44.7103 H   0  0  0  0  0  0  0  0  0  0  0  0
   59.3940   34.1003   44.2180 H   0  0  0  0  0  0  0  0  0  0  0  0
   58.7508   35.7897   44.4175 H   0  0  0  0  0  0  0  0  0  0  0  0
   60.4468   35.7504   45.9972 H   0  0  0  0  0  0  0  0  0  0  0  0
   58.9959   35.2674   46.9732 H   0  0  0  0  0  0  0  0  0  0  0  0
   58.6569   32.4445   46.1080 H   0  0  0  0  0  0  0  0  0  0  0  0
   59.5995   29.6041   48.8153 H   0  0  0  0  0  0  0  0  0  0  0  0
   58.4457   27.4097   48.6009 H   0  0  0  0  0  0  0  0  0  0  0  0
   56.5424   26.6254   44.5850 H   0  0  0  0  0  0  0  0  0  0  0  0
   57.9680   25.5502   44.3326 H   0  0  0  0  0  0  0  0  0  0  0  0
   55.5505   24.5021   44.3201 H   0  0  0  0  0  0  0  0  0  0  0  0
   56.8675   23.6652   45.2087 H   0  0  0  0  0  0  0  0  0  0  0  0
   55.8119   24.7605   48.3957 H   0  0  0  0  0  0  0  0  0  0  0  0
   56.6218   23.3991   47.4813 H   0  0  0  0  0  0  0  0  0  0  0  0
   57.8040   25.8204   48.3666 H   0  0  0  0  0  0  0  0  0  0  0  0
   58.5055   24.5528   47.2807 H   0  0  0  0  0  0  0  0  0  0  0  0
   58.4142   27.8466   44.2939 H   0  0  0  0  0  0  0  0  0  0  0  0
   59.5717   30.0381   44.5059 H   0  0  0  0  0  0  0  0  0  0  0  0
   62.2179   30.4225   47.5207 H   0  0  0  0  0  0  0  0  0  0  0  0
   63.7905   32.6569   48.9173 H   0  0  0  0  0  0  0  0  0  0  0  0
   64.2981   31.7819   47.4329 H   0  0  0  0  0  0  0  0  0  0  0  0
   64.2128   33.5761   47.4329 H   0  0  0  0  0  0  0  0  0  0  0  0
   62.1570   34.6440   47.0720 H   0  0  0  0  0  0  0  0  0  0  0  0
  1  2  1  0
  2  3  1  0
  3  4  1  0
  4  5  2  0
  5  6  1  0
  6  7  1  0
  7  8  2  0
  8  9  1  0
  9 10  2  0
 10 11  1  0
 11 12  1  0
 12 13  1  0
 13 14  1  0
 14 15  1  0
 15 16  1  0
 10 17  1  0
 17 18  2  0
  6 19  2  0
 19 20  1  0
 20 21  1  0
 20 22  2  0
 22  4  1  0
 18  7  1  0
 16 11  1  0
  1 23  1  0
  1 24  1  0
  1 25  1  0
  2 26  1  0
  2 27  1  0
  3 28  1  0
  3 29  1  0
  5 30  1  0
  8 31  1  0
  9 32  1  0
 12 33  1  0
 12 34  1  0
 13 35  1  0
 13 36  1  0
 15 37  1  0
 15 38  1  0
 16 39  1  0
 16 40  1  0
 17 41  1  0
 18 42  1  0
 19 43  1  0
 21 44  1  0
 21 45  1  0
 21 46  1  0
 22 47  1  0
M  CHG  1  22   1
M  END
>  <UniqueID>  (23) 
22

>  <SMILES>  (23) 
CCCc1cc(-c2ccc(N3CCOCC3)cc2)cc(C)[nH+]1

>  <Energy>  (23) 
57.718762418691796

>  <Genealogy>  (23) 
CCCc1cc(-c2ccc(N3CCOCC3)cc2)cc(C)[nH+]1 (protonated)
CCCc1cc(-c2ccc(N3CCOCC3)cc2)cc(C)[nH+]1 (3D coordinates assigned)
CCCc1cc(-c2ccc(N3CCOCC3)cc2)cc(C)[nH+]1 (nonaromatic ring conformer: 57.718762418691796 kcal/mol)

>  <smiles>  (23) 
CCCc1cc(-c2ccc(N3CCOCC3)cc2)cc(C)n1

>  <score_type>  (23) 
oracle

>  <origin>  (23) 
adg

>  <m_score__min__energy>  (23) 
-5.7000000000000002

>  <m_primary>  (23) 
energy

$$$$
23:0
     RDKit          3D

 31 33  0  0  0  0  0  0  0  0999 V2000
   55.1480   30.3010   44.5580 O   0  0  0  0  0  0  0  0  0  0  0  0
   55.9960   29.3760   44.4290 C   0  0  0  0  0  0  0  0  0  0  0  0
   57.0710   29.4920   43.3990 C   0  0  0  0  0  0  0  0  0  0  0  0
   57.0490   31.1460   42.6290 S   0  0  0  0  0  0  0  0  0  0  0  0
   57.6310   32.0010   44.0910 C   0  0  0  0  0  0  0  0  0  0  0  0
   57.4130   31.5620   45.3480 N   0  0  0  0  0  0  0  0  0  0  0  0
   57.9730   32.3890   46.2720 C   0  0  0  0  0  0  0  0  0  0  0  0
   58.6450   33.4890   45.7480 C   0  0  0  0  0  0  0  0  0  0  0  0
   58.5320   33.4190   44.0720 S   0  0  0  0  0  0  0  0  0  0  0  0
   55.9190   28.2030   45.2450 N   0  0  0  0  0  0  0  0  0  0  0  0
   57.0580   27.3340   45.5190 C   0  0  0  0  0  0  0  0  0  0  0  0
   58.2850   28.1510   45.8160 C   0  0  0  0  0  0  0  0  0  0  0  0
   59.3960   28.1300   44.9330 C   0  0  0  0  0  0  0  0  0  0  0  0
   60.5470   28.8850   45.2160 C   0  0  0  0  0  0  0  0  0  0  0  0
   60.5580   29.6430   46.3830 C   0  0  0  0  0  0  0  0  0  0  0  0
   59.5000   29.6660   47.2330 C   0  0  0  0  0  0  0  0  0  0  0  0
   58.3410   28.9350   46.9900 C   0  0  0  0  0  0  0  0  0  0  0  0
   59.7860   30.4950   48.3010 O   0  0  0  0  0  0  0  0  0  0  0  0
   61.1060   31.0250   48.1090 C   0  0  0  0  0  0  0  0  0  0  0  0
   61.5610   30.4550   46.8740 O   0  0  0  0  0  0  0  0  0  0  0  0
   58.0483   29.3289   43.8768 H   0  0  0  0  0  0  0  0  0  0  0  0
   56.8972   28.7360   42.6191 H   0  0  0  0  0  0  0  0  0  0  0  0
   57.8999   32.2018   47.3535 H   0  0  0  0  0  0  0  0  0  0  0  0
   59.1602   34.2682   46.3288 H   0  0  0  0  0  0  0  0  0  0  0  0
   56.8277   26.6983   46.3867 H   0  0  0  0  0  0  0  0  0  0  0  0
   57.2513   26.7113   44.6331 H   0  0  0  0  0  0  0  0  0  0  0  0
   59.3558   27.5179   44.0199 H   0  0  0  0  0  0  0  0  0  0  0  0
   61.4120   28.8771   44.5365 H   0  0  0  0  0  0  0  0  0  0  0  0
   57.4939   28.9667   47.6910 H   0  0  0  0  0  0  0  0  0  0  0  0
   61.0753   32.1224   48.0398 H   0  0  0  0  0  0  0  0  0  0  0  0
   61.7747   30.7800   48.9473 H   0  0  0  0  0  0  0  0  0  0  0  0
  1  2  2  0
  2  3  1  0
  3  4  1  0
  4  5  1  0
  5  6  2  0
  6  7  1  0
  7  8  2  0
  8  9  1  0
  2 10  1  0
 10 11  1  0
 11 12  1  0
 12 13  2  0
 13 14  1  0
 14 15  2  0
 15 16  1  0
 16 17  2  0
 16 18  1  0
 18 19  1  0
 19 20  1  0
  9  5  1  0
 17 12  1  0
 20 15  1  0
  3 21  1  0
  3 22  1  0
  7 23  1  0
  8 24  1  0
 11 25  1  0
 11 26  1  0
 13 27  1  0
 14 28  1  0
 17 29  1  0
 19 30  1  0
 19 31  1  0
M  CHG  1  10  -1
M  END
>  <UniqueID>  (24) 
23

>  <SMILES>  (24) 
O=C(CSc1nccs1)[N-]Cc1ccc2c(c1)OCO2

>  <Energy>  (24) 
83.05331410496122

>  <Genealogy>  (24) 
O=C(CSc1nccs1)[N-]Cc1ccc2c(c1)OCO2 (protonated)
O=C(CSc1nccs1)[N-]Cc1ccc2c(c1)OCO2 (3D coordinates assigned)
O=C(CSc1nccs1)[N-]Cc1ccc2c(c1)OCO2 (nonaromatic ring conformer: 83.05331410496122 kcal/mol)

>  <smiles>  (24) 
O=C(CSc1nccs1)NCc1ccc2c(c1)OCO2

>  <score_type>  (24) 
oracle

>  <origin>  (24) 
adg

>  <m_score__min__energy>  (24) 
-8.8499999999999996

>  <m_primary>  (24) 
energy

$$$$
24:0
     RDKit          3D

 41 44  0  0  0  0  0  0  0  0999 V2000
   59.0400   34.8540   46.1900 C   0  0  0  0  0  0  0  0  0  0  0  0
   58.0410   33.9170   46.4510 C   0  0  0  0  0  0  0  0  0  0  0  0
   58.3700   32.6540   46.9490 C   0  0  0  0  0  0  0  0  0  0  0  0
   59.7170   32.3060   47.2100 C   0  0  0  0  0  0  0  0  0  0  0  0
   60.7230   33.2640   46.9100 C   0  0  0  0  0  0  0  0  0  0  0  0
   60.3770   34.5300   46.4130 C   0  0  0  0  0  0  0  0  0  0  0  0
   62.0660   32.9370   47.1140 C   0  0  0  0  0  0  0  0  0  0  0  0
   62.4040   31.6830   47.5990 C   0  0  0  0  0  0  0  0  0  0  0  0
   61.4010   30.7700   47.9110 C   0  0  0  0  0  0  0  0  0  0  0  0
   60.0760   31.0800   47.7430 N   0  0  0  0  0  0  0  0  0  0  0  0
   59.0830   30.0740   48.1770 C   0  0  0  0  0  0  0  0  0  0  0  0
   59.6170   28.6290   48.0900 C   0  0  0  0  0  0  0  0  0  0  0  0
   59.5690   28.0220   46.6770 C   0  0  0  0  0  0  0  0  0  0  0  0
   58.2840   28.3270   45.9520 C   0  0  0  0  0  0  0  0  0  0  0  0
   57.0850   27.6200   46.0410 C   0  0  0  0  0  0  0  0  0  0  0  0
   56.1440   28.1790   45.2500 N   0  0  0  0  0  0  0  0  0  0  0  0
   56.7270   29.2450   44.6760 C   0  0  0  0  0  0  0  0  0  0  0  0
   56.1510   30.1320   43.7680 C   0  0  0  0  0  0  0  0  0  0  0  0
   56.9460   31.1870   43.2850 C   0  0  0  0  0  0  0  0  0  0  0  0
   58.2820   31.3320   43.7180 C   0  0  0  0  0  0  0  0  0  0  0  0
   58.8370   30.4220   44.6350 C   0  0  0  0  0  0  0  0  0  0  0  0
   58.0280   29.3780   45.0910 C   0  0  0  0  0  0  0  0  0  0  0  0
   58.7725   35.8501   45.8076 H   0  0  0  0  0  0  0  0  0  0  0  0
   56.9879   34.1738   46.2637 H   0  0  0  0  0  0  0  0  0  0  0  0
   57.5726   31.9209   47.1407 H   0  0  0  0  0  0  0  0  0  0  0  0
   61.1634   35.2687   46.1988 H   0  0  0  0  0  0  0  0  0  0  0  0
   62.8529   33.6724   46.8904 H   0  0  0  0  0  0  0  0  0  0  0  0
   63.4608   31.4107   47.7367 H   0  0  0  0  0  0  0  0  0  0  0  0
   61.6770   29.7790   48.3005 H   0  0  0  0  0  0  0  0  0  0  0  0
   58.8040   30.2832   49.2203 H   0  0  0  0  0  0  0  0  0  0  0  0
   58.2191   30.1486   47.5002 H   0  0  0  0  0  0  0  0  0  0  0  0
   60.6628   28.6268   48.4309 H   0  0  0  0  0  0  0  0  0  0  0  0
   58.9612   28.0115   48.7213 H   0  0  0  0  0  0  0  0  0  0  0  0
   60.4072   28.4280   46.0918 H   0  0  0  0  0  0  0  0  0  0  0  0
   59.6365   26.9293   46.7843 H   0  0  0  0  0  0  0  0  0  0  0  0
   56.9277   26.7304   46.6685 H   0  0  0  0  0  0  0  0  0  0  0  0
   55.1640   27.8470   45.1130 H   0  0  0  0  0  0  0  0  0  0  0  0
   55.1081   30.0108   43.4397 H   0  0  0  0  0  0  0  0  0  0  0  0
   56.5241   31.9038   42.5652 H   0  0  0  0  0  0  0  0  0  0  0  0
   58.8930   32.1628   43.3352 H   0  0  0  0  0  0  0  0  0  0  0  0
   59.8752   30.5286   44.9824 H   0  0  0  0  0  0  0  0  0  0  0  0
  1  2  2  0
  2  3  1  0
  3  4  2  0
  4  5  1  0
  5  6  2  0
  5  7  1  0
  7  8  2  0
  8  9  1  0
  9 10  2  0
 10 11  1  0
 11 12  1  0
 12 13  1  0
 13 14  1  0
 14 15  2  0
 15 16  1  0
 16 17  1  0
 17 18  2  0
 18 19  1  0
 19 20  2  0
 20 21  1  0
 21 22  2  0
  6  1  1  0
 22 14  1  0
 10  4  1  0
 22 17  1  0
  1 23  1  0
  2 24  1  0
  3 25  1  0
  6 26  1  0
  7 27  1  0
  8 28  1  0
  9 29  1  0
 11 30  1  0
 11 31  1  0
 12 32  1  0
 12 33  1  0
 13 34  1  0
 13 35  1  0
 15 36  1  0
 16 37  1  0
 18 38  1  0
 19 39  1  0
 20 40  1  0
 21 41  1  0
M  CHG  1  10   1
M  END
>  <UniqueID>  (25) 
24

>  <SMILES>  (25) 
c1ccc2c(c1)ccc[n+]2CCCc1c[nH]c2ccccc12

>  <Energy>  (25) 
78.98293099870247

>  <Genealogy>  (25) 
c1ccc2c(c1)ccc[n+]2CCCc1c[nH]c2ccccc12 (3D coordinates assigned)
c1ccc2c(c1)ccc[n+]2CCCc1c[nH]c2ccccc12 (optimized conformer: 78.98293099870247 kcal/mol)

>  <smiles>  (25) 
c1ccc2c(c1)ccc[n+]2CCCc1c[nH]c2ccccc12

>  <score_type>  (25) 
oracle

>  <origin>  (25) 
adg

>  <m_score__min__energy>  (25) 
-7.2000000000000002

>  <m_primary>  (25) 
energy

$$$$
25:0
     RDKit          3D

 27 29  0  0  0  0  0  0  0  0999 V2000
   59.8580   34.8220   48.4500 F   0  0  0  0  0  0  0  0  0  0  0  0
   59.4460   34.4830   47.2030 C   0  0  0  0  0  0  0  0  0  0  0  0
   59.6360   35.3710   46.1420 C   0  0  0  0  0  0  0  0  0  0  0  0
   59.2150   35.0220   44.8570 C   0  0  0  0  0  0  0  0  0  0  0  0
   58.6050   33.7850   44.6300 C   0  0  0  0  0  0  0  0  0  0  0  0
   58.4070   32.8790   45.6900 C   0  0  0  0  0  0  0  0  0  0  0  0
   57.7590   31.5630   45.4500 C   0  0  0  0  0  0  0  0  0  0  0  0
   56.7040   31.2930   44.5910 C   0  0  0  0  0  0  0  0  0  0  0  0
   56.4040   30.0170   44.6480 O   0  0  0  0  0  0  0  0  0  0  0  0
   57.2100   29.4290   45.5020 C   0  0  0  0  0  0  0  0  0  0  0  0
   57.1570   27.9940   45.8190 C   0  0  0  0  0  0  0  0  0  0  0  0
   58.1880   27.2350   46.3430 C   0  0  0  0  0  0  0  0  0  0  0  0
   57.6930   25.9530   46.4750 C   0  0  0  0  0  0  0  0  0  0  0  0
   56.3870   25.9850   46.0270 C   0  0  0  0  0  0  0  0  0  0  0  0
   56.0660   27.2290   45.6290 N   0  0  0  0  0  0  0  0  0  0  0  0
   58.0870   30.3530   46.0380 C   0  0  0  0  0  0  0  0  0  0  0  0
   58.8360   33.2440   46.9810 C   0  0  0  0  0  0  0  0  0  0  0  0
   60.1169   36.3445   46.3183 H   0  0  0  0  0  0  0  0  0  0  0  0
   59.3638   35.7221   44.0217 H   0  0  0  0  0  0  0  0  0  0  0  0
   58.2768   33.5169   43.6149 H   0  0  0  0  0  0  0  0  0  0  0  0
   56.1961   32.0357   43.9582 H   0  0  0  0  0  0  0  0  0  0  0  0
   59.1988   27.5829   46.6023 H   0  0  0  0  0  0  0  0  0  0  0  0
   58.2336   25.0766   46.8618 H   0  0  0  0  0  0  0  0  0  0  0  0
   55.7085   25.1196   45.9997 H   0  0  0  0  0  0  0  0  0  0  0  0
   55.1440   27.5350   45.2460 H   0  0  0  0  0  0  0  0  0  0  0  0
   58.8799   30.1662   46.7772 H   0  0  0  0  0  0  0  0  0  0  0  0
   58.6902   32.5492   47.8212 H   0  0  0  0  0  0  0  0  0  0  0  0
  1  2  1  0
  2  3  2  0
  3  4  1  0
  4  5  2  0
  5  6  1  0
  6  7  1  0
  7  8  2  0
  8  9  1  0
  9 10  1  0
 10 11  1  0
 11 12  2  0
 12 13  1  0
 13 14  2  0
 14 15  1  0
 10 16  2  0
  6 17  2  0
 17  2  1  0
 16  7  1  0
 15 11  1  0
  3 18  1  0
  4 19  1  0
  5 20  1  0
  8 21  1  0
 12 22  1  0
 13 23  1  0
 14 24  1  0
 15 25  1  0
 16 26  1  0
 17 27  1  0
M  END
>  <UniqueID>  (26) 
25

>  <SMILES>  (26) 
Fc1cccc(-c2coc(-c3ccc[nH]3)c2)c1

>  <Energy>  (26) 
82.88331261065517

>  <Genealogy>  (26) 
Fc1cccc(-c2coc(-c3ccc[nH]3)c2)c1 (3D coordinates assigned)
Fc1cccc(-c2coc(-c3ccc[nH]3)c2)c1 (optimized conformer: 82.88331261065517 kcal/mol)

>  <smiles>  (26) 
Fc1cccc(-c2coc(-c3ccc[nH]3)c2)c1

>  <score_type>  (26) 
oracle

>  <origin>  (26) 
adg

>  <m_score__min__energy>  (26) 
-6.9500000000000002

>  <m_primary>  (26) 
energy

$$$$
26:0
     RDKit          3D

 45 48  0  0  0  0  0  0  0  0999 V2000
   55.5190   29.3400   44.8780 O   0  0  0  0  0  0  0  0  0  0  0  0
   56.8540   29.3520   44.1840 S   0  0  0  0  0  0  0  0  0  0  0  0
   56.6430   29.0450   42.7280 O   0  0  0  0  0  0  0  0  0  0  0  0
   57.5970   30.9440   44.3240 C   0  0  0  0  0  0  0  0  0  0  0  0
   57.5590   31.8210   43.2340 C   0  0  0  0  0  0  0  0  0  0  0  0
   58.1550   33.0790   43.3260 C   0  0  0  0  0  0  0  0  0  0  0  0
   58.7950   33.4690   44.5060 C   0  0  0  0  0  0  0  0  0  0  0  0
   58.8480   32.5990   45.6090 C   0  0  0  0  0  0  0  0  0  0  0  0
   59.5370   33.0090   46.8580 C   0  0  0  0  0  0  0  0  0  0  0  0
   58.9990   33.9260   47.7620 C   0  0  0  0  0  0  0  0  0  0  0  0
   60.0910   34.1060   49.0260 S   0  0  0  0  0  0  0  0  0  0  0  0
   61.2110   33.0190   48.3900 C   0  0  0  0  0  0  0  0  0  0  0  0
   62.5090   32.6660   49.0170 C   0  0  0  0  0  0  0  0  0  0  0  0
   63.6750   33.4000   48.7270 C   0  0  0  0  0  0  0  0  0  0  0  0
   64.8940   33.0590   49.3220 C   0  0  0  0  0  0  0  0  0  0  0  0
   64.9660   31.9820   50.2080 C   0  0  0  0  0  0  0  0  0  0  0  0
   63.8180   31.2420   50.4990 C   0  0  0  0  0  0  0  0  0  0  0  0
   62.5970   31.5780   49.9070 C   0  0  0  0  0  0  0  0  0  0  0  0
   60.7590   32.5170   47.2150 N   0  0  0  0  0  0  0  0  0  0  0  0
   58.2430   31.3320   45.5060 C   0  0  0  0  0  0  0  0  0  0  0  0
   57.9060   28.1540   44.8990 N   0  0  0  0  0  0  0  0  0  0  0  0
   59.2530   28.1900   44.2850 C   0  0  0  0  0  0  0  0  0  0  0  0
   60.2990   28.8300   45.2130 C   0  0  0  0  0  0  0  0  0  0  0  0
   60.4160   28.1660   46.4640 O   0  0  0  0  0  0  0  0  0  0  0  0
   59.1840   27.6560   46.9610 C   0  0  0  0  0  0  0  0  0  0  0  0
   57.9350   28.3260   46.3630 C   0  0  0  0  0  0  0  0  0  0  0  0
   57.0581   31.5177   42.3028 H   0  0  0  0  0  0  0  0  0  0  0  0
   58.1212   33.7660   42.4676 H   0  0  0  0  0  0  0  0  0  0  0  0
   59.2604   34.4635   44.5719 H   0  0  0  0  0  0  0  0  0  0  0  0
   58.0314   34.4399   47.6643 H   0  0  0  0  0  0  0  0  0  0  0  0
   63.6269   34.2476   48.0276 H   0  0  0  0  0  0  0  0  0  0  0  0
   65.7986   33.6408   49.0914 H   0  0  0  0  0  0  0  0  0  0  0  0
   65.9255   31.7169   50.6760 H   0  0  0  0  0  0  0  0  0  0  0  0
   63.8746   30.3927   51.1957 H   0  0  0  0  0  0  0  0  0  0  0  0
   61.6979   30.9880   50.1381 H   0  0  0  0  0  0  0  0  0  0  0  0
   61.3080   31.8620   46.6180 H   0  0  0  0  0  0  0  0  0  0  0  0
   58.2775   30.6403   46.3606 H   0  0  0  0  0  0  0  0  0  0  0  0
   59.5654   27.1604   44.0563 H   0  0  0  0  0  0  0  0  0  0  0  0
   59.1916   28.8023   43.3733 H   0  0  0  0  0  0  0  0  0  0  0  0
   61.2767   28.8029   44.7096 H   0  0  0  0  0  0  0  0  0  0  0  0
   59.9692   29.8592   45.4179 H   0  0  0  0  0  0  0  0  0  0  0  0
   59.1399   26.5804   46.7347 H   0  0  0  0  0  0  0  0  0  0  0  0
   59.1683   27.8663   48.0406 H   0  0  0  0  0  0  0  0  0  0  0  0
   57.0350   27.8678   46.7989 H   0  0  0  0  0  0  0  0  0  0  0  0
   57.9638   29.4011   46.5938 H   0  0  0  0  0  0  0  0  0  0  0  0
  1  2  2  0
  2  3  2  0
  2  4  1  0
  4  5  2  0
  5  6  1  0
  6  7  2  0
  7  8  1  0
  8  9  1  0
  9 10  2  0
 10 11  1  0
 11 12  1  0
 12 13  1  0
 13 14  2  0
 14 15  1  0
 15 16  2  0
 16 17  1  0
 17 18  2  0
 12 19  2  0
  8 20  2  0
  2 21  1  0
 21 22  1  0
 22 23  1  0
 23 24  1  0
 24 25  1  0
 25 26  1  0
 20  4  1  0
 26 21  1  0
 19  9  1  0
 18 13  1  0
  5 27  1  0
  6 28  1  0
  7 29  1  0
 10 30  1  0
 14 31  1  0
 15 32  1  0
 16 33  1  0
 17 34  1  0
 18 35  1  0
 19 36  1  0
 20 37  1  0
 22 38  1  0
 22 39  1  0
 23 40  1  0
 23 41  1  0
 25 42  1  0
 25 43  1  0
 26 44  1  0
 26 45  1  0
M  CHG  1  19   1
M  END
>  <UniqueID>  (27) 
26

>  <SMILES>  (27) 
O=S(=O)(c1cccc(-c2csc(-c3ccccc3)[nH+]2)c1)N1CCOCC1

>  <Energy>  (27) 
95.67345015654136

>  <Genealogy>  (27) 
O=S(=O)(c1cccc(-c2csc(-c3ccccc3)[nH+]2)c1)N1CCOCC1 (protonated)
O=S(=O)(c1cccc(-c2csc(-c3ccccc3)[nH+]2)c1)N1CCOCC1 (3D coordinates assigned)
O=S(=O)(c1cccc(-c2csc(-c3ccccc3)[nH+]2)c1)N1CCOCC1 (nonaromatic ring conformer: 95.67345015654136 kcal/mol)

>  <smiles>  (27) 
O=S(=O)(c1cccc(-c2csc(-c3ccccc3)n2)c1)N1CCOCC1

>  <score_type>  (27) 
oracle

>  <origin>  (27) 
adg

>  <m_score__min__energy>  (27) 
-7.8600000000000003

>  <m_primary>  (27) 
energy

$$$$
27:0
     RDKit          3D

 41 43  0  0  0  0  0  0  0  0999 V2000
   65.2620   32.7160   49.7290 C   0  0  0  0  0  0  0  0  0  0  0  0
   63.9650   33.0850   49.0740 C   0  0  0  0  0  0  0  0  0  0  0  0
   63.9260   33.3920   47.7060 C   0  0  0  0  0  0  0  0  0  0  0  0
   62.7240   33.7740   47.1050 C   0  0  0  0  0  0  0  0  0  0  0  0
   61.5550   33.8600   47.8650 C   0  0  0  0  0  0  0  0  0  0  0  0
   61.5790   33.5640   49.2370 C   0  0  0  0  0  0  0  0  0  0  0  0
   60.3200   33.6730   50.0540 C   0  0  0  0  0  0  0  0  0  0  0  0
   59.4120   32.6180   49.7310 O   0  0  0  0  0  0  0  0  0  0  0  0
   58.9790   32.2900   48.4360 C   0  0  0  0  0  0  0  0  0  0  0  0
   59.3780   31.1140   47.7740 C   0  0  0  0  0  0  0  0  0  0  0  0
   58.9240   30.8430   46.4810 C   0  0  0  0  0  0  0  0  0  0  0  0
   58.0710   31.7430   45.8230 C   0  0  0  0  0  0  0  0  0  0  0  0
   57.5750   31.4520   44.4600 C   0  0  0  0  0  0  0  0  0  0  0  0
   57.9680   32.1980   43.3350 C   0  0  0  0  0  0  0  0  0  0  0  0
   57.3590   31.7810   42.1560 C   0  0  0  0  0  0  0  0  0  0  0  0
   57.6310   32.3320   40.7980 C   0  0  0  0  0  0  0  0  0  0  0  0
   56.3680   30.4610   42.4810 S   0  0  0  0  0  0  0  0  0  0  0  0
   56.6740   30.4350   44.1340 C   0  0  0  0  0  0  0  0  0  0  0  0
   56.1680   29.4350   45.0210 N   0  0  0  0  0  0  0  0  0  0  0  0
   57.6560   32.9050   46.4920 C   0  0  0  0  0  0  0  0  0  0  0  0
   58.1110   33.1760   47.7860 C   0  0  0  0  0  0  0  0  0  0  0  0
   62.7930   33.1940   49.8410 C   0  0  0  0  0  0  0  0  0  0  0  0
   65.1434   32.7497   50.8221 H   0  0  0  0  0  0  0  0  0  0  0  0
   65.5514   31.6999   49.4228 H   0  0  0  0  0  0  0  0  0  0  0  0
   66.0429   33.4276   49.4228 H   0  0  0  0  0  0  0  0  0  0  0  0
   64.8449   33.3318   47.1043 H   0  0  0  0  0  0  0  0  0  0  0  0
   62.6980   34.0077   46.0304 H   0  0  0  0  0  0  0  0  0  0  0  0
   60.6115   34.1610   47.3862 H   0  0  0  0  0  0  0  0  0  0  0  0
   60.5769   33.6133   51.1219 H   0  0  0  0  0  0  0  0  0  0  0  0
   59.8364   34.6352   49.8295 H   0  0  0  0  0  0  0  0  0  0  0  0
   60.0510   30.4043   48.2774 H   0  0  0  0  0  0  0  0  0  0  0  0
   59.2371   29.9179   45.9749 H   0  0  0  0  0  0  0  0  0  0  0  0
   58.6864   33.0296   43.3825 H   0  0  0  0  0  0  0  0  0  0  0  0
   58.1162   33.3148   40.8915 H   0  0  0  0  0  0  0  0  0  0  0  0
   58.2942   31.6464   40.2502 H   0  0  0  0  0  0  0  0  0  0  0  0
   56.6834   32.4415   40.2502 H   0  0  0  0  0  0  0  0  0  0  0  0
   55.8340   29.6760   45.9800 H   0  0  0  0  0  0  0  0  0  0  0  0
   56.1930   28.4300   44.7410 H   0  0  0  0  0  0  0  0  0  0  0  0
   56.9691   33.6062   45.9956 H   0  0  0  0  0  0  0  0  0  0  0  0
   57.7843   34.0932   48.2979 H   0  0  0  0  0  0  0  0  0  0  0  0
   62.8257   32.9885   50.9211 H   0  0  0  0  0  0  0  0  0  0  0  0
  1  2  1  0
  2  3  2  0
  3  4  1  0
  4  5  2  0
  5  6  1  0
  6  7  1  0
  7  8  1  0
  8  9  1  0
  9 10  2  0
 10 11  1  0
 11 12  2  0
 12 13  1  0
 13 14  1  0
 14 15  2  0
 15 16  1  0
 15 17  1  0
 17 18  1  0
 18 19  1  0
 12 20  1  0
 20 21  2  0
  6 22  2  0
 22  2  1  0
 21  9  1  0
 18 13  2  0
  1 23  1  0
  1 24  1  0
  1 25  1  0
  3 26  1  0
  4 27  1  0
  5 28  1  0
  7 29  1  0
  7 30  1  0
 10 31  1  0
 11 32  1  0
 14 33  1  0
 16 34  1  0
 16 35  1  0
 16 36  1  0
 19 37  1  0
 19 38  1  0
 20 39  1  0
 21 40  1  0
 22 41  1  0
M  END
>  <UniqueID>  (28) 
27

>  <SMILES>  (28) 
Cc1cccc(COc2ccc(-c3cc(C)sc3N)cc2)c1

>  <Energy>  (28) 
71.796698405472

>  <Genealogy>  (28) 
Cc1cccc(COc2ccc(-c3cc(C)sc3N)cc2)c1 (3D coordinates assigned)
Cc1cccc(COc2ccc(-c3cc(C)sc3N)cc2)c1 (optimized conformer: 71.796698405472 kcal/mol)

>  <smiles>  (28) 
Cc1cccc(COc2ccc(-c3cc(C)sc3N)cc2)c1

>  <score_type>  (28) 
oracle

>  <origin>  (28) 
adg

>  <m_score__min__energy>  (28) 
-8.0700000000000003

>  <m_primary>  (28) 
energy

$$$$
28:0
     RDKit          3D

 26 27  0  0  0  0  0  0  0  0999 V2000
   57.3940   34.2130   44.8710 C   0  0  0  0  0  0  0  0  0  0  0  0
   57.5960   32.8200   45.3730 C   0  0  0  0  0  0  0  0  0  0  0  0
   56.9700   31.7420   44.8610 N   0  0  0  0  0  0  0  0  0  0  0  0
   57.4010   30.7040   45.5160 O   0  0  0  0  0  0  0  0  0  0  0  0
   58.2850   31.0440   46.4270 C   0  0  0  0  0  0  0  0  0  0  0  0
   58.9810   30.0640   47.3140 C   0  0  0  0  0  0  0  0  0  0  0  0
   58.4430   32.4210   46.3920 C   0  0  0  0  0  0  0  0  0  0  0  0
   59.3530   33.2690   47.1890 C   0  0  0  0  0  0  0  0  0  0  0  0
   58.8570   34.1610   47.9310 O   0  0  0  0  0  0  0  0  0  0  0  0
   60.8220   33.0960   47.1540 C   0  0  0  0  0  0  0  0  0  0  0  0
   61.6200   33.9790   46.4050 C   0  0  0  0  0  0  0  0  0  0  0  0
   63.0090   33.8270   46.3790 C   0  0  0  0  0  0  0  0  0  0  0  0
   63.6170   32.8020   47.1080 C   0  0  0  0  0  0  0  0  0  0  0  0
   62.8350   31.9290   47.8690 C   0  0  0  0  0  0  0  0  0  0  0  0
   61.4460   32.0770   47.8990 C   0  0  0  0  0  0  0  0  0  0  0  0
   57.2944   34.8996   45.7247 H   0  0  0  0  0  0  0  0  0  0  0  0
   58.2583   34.5113   44.2594 H   0  0  0  0  0  0  0  0  0  0  0  0
   56.4806   34.2535   44.2594 H   0  0  0  0  0  0  0  0  0  0  0  0
   58.7953   30.3255   48.3662 H   0  0  0  0  0  0  0  0  0  0  0  0
   58.5979   29.0524   47.1145 H   0  0  0  0  0  0  0  0  0  0  0  0
   60.0624   30.0925   47.1145 H   0  0  0  0  0  0  0  0  0  0  0  0
   61.1483   34.7939   45.8364 H   0  0  0  0  0  0  0  0  0  0  0  0
   63.6252   34.5162   45.7830 H   0  0  0  0  0  0  0  0  0  0  0  0
   64.7102   32.6823   47.0830 H   0  0  0  0  0  0  0  0  0  0  0  0
   63.3139   31.1238   48.4455 H   0  0  0  0  0  0  0  0  0  0  0  0
   60.8363   31.3935   48.5082 H   0  0  0  0  0  0  0  0  0  0  0  0
  1  2  1  0
  2  3  2  0
  3  4  1  0
  4  5  1  0
  5  6  1  0
  5  7  2  0
  7  8  1  0
  8  9  2  0
  8 10  1  0
 10 11  2  0
 11 12  1  0
 12 13  2  0
 13 14  1  0
 14 15  2  0
  7  2  1  0
 15 10  1  0
  1 16  1  0
  1 17  1  0
  1 18  1  0
  6 19  1  0
  6 20  1  0
  6 21  1  0
 11 22  1  0
 12 23  1  0
 13 24  1  0
 14 25  1  0
 15 26  1  0
M  END
>  <UniqueID>  (29) 
28

>  <SMILES>  (29) 
Cc1noc(C)c1C(=O)c1ccccc1

>  <Energy>  (29) 
60.93660666728907

>  <Genealogy>  (29) 
Cc1noc(C)c1C(=O)c1ccccc1 (3D coordinates assigned)
Cc1noc(C)c1C(=O)c1ccccc1 (optimized conformer: 60.93660666728907 kcal/mol)

>  <smiles>  (29) 
Cc1noc(C)c1C(=O)c1ccccc1

>  <score_type>  (29) 
oracle

>  <origin>  (29) 
adg

>  <m_score__min__energy>  (29) 
-6.29

>  <m_primary>  (29) 
energy

$$$$
29:0
     RDKit          3D

 28 30  0  0  0  0  0  0  0  0999 V2000
   55.4970   29.3880   43.5310 O   0  0  0  0  0  0  0  0  0  0  0  0
   56.5410   29.4700   44.2350 C   0  0  0  0  0  0  0  0  0  0  0  0
   57.2700   28.3540   44.4930 N   0  0  0  0  0  0  0  0  0  0  0  0
   58.3970   28.4100   45.2520 C   0  0  0  0  0  0  0  0  0  0  0  0
   59.1340   27.2440   45.5120 C   0  0  0  0  0  0  0  0  0  0  0  0
   60.2850   27.2990   46.2980 C   0  0  0  0  0  0  0  0  0  0  0  0
   60.7100   28.5140   46.8320 C   0  0  0  0  0  0  0  0  0  0  0  0
   59.9890   29.6850   46.5820 C   0  0  0  0  0  0  0  0  0  0  0  0
   58.8230   29.6530   45.7820 C   0  0  0  0  0  0  0  0  0  0  0  0
   58.0880   30.7860   45.5140 N   0  0  0  0  0  0  0  0  0  0  0  0
   58.4920   32.0750   46.0160 C   0  0  0  0  0  0  0  0  0  0  0  0
   58.5170   32.3180   47.3980 C   0  0  0  0  0  0  0  0  0  0  0  0
   58.9100   33.5700   47.8820 C   0  0  0  0  0  0  0  0  0  0  0  0
   59.2810   34.5810   46.9910 C   0  0  0  0  0  0  0  0  0  0  0  0
   59.2610   34.3420   45.6130 C   0  0  0  0  0  0  0  0  0  0  0  0
   58.8680   33.0920   45.1250 C   0  0  0  0  0  0  0  0  0  0  0  0
   56.9510   30.7040   44.7490 C   0  0  0  0  0  0  0  0  0  0  0  0
   56.2710   31.7390   44.4980 O   0  0  0  0  0  0  0  0  0  0  0  0
   56.9490   27.4380   44.1000 H   0  0  0  0  0  0  0  0  0  0  0  0
   58.8022   26.2822   45.0939 H   0  0  0  0  0  0  0  0  0  0  0  0
   60.8583   26.3815   46.4967 H   0  0  0  0  0  0  0  0  0  0  0  0
   61.6171   28.5516   47.4531 H   0  0  0  0  0  0  0  0  0  0  0  0
   60.3309   30.6386   47.0106 H   0  0  0  0  0  0  0  0  0  0  0  0
   58.2273   31.5232   48.1011 H   0  0  0  0  0  0  0  0  0  0  0  0
   58.9271   33.7593   48.9655 H   0  0  0  0  0  0  0  0  0  0  0  0
   59.5889   35.5652   47.3737 H   0  0  0  0  0  0  0  0  0  0  0  0
   59.5546   35.1379   44.9128 H   0  0  0  0  0  0  0  0  0  0  0  0
   58.8535   32.9055   44.0410 H   0  0  0  0  0  0  0  0  0  0  0  0
  1  2  2  0
  2  3  1  0
  3  4  1  0
  4  5  2  0
  5  6  1  0
  6  7  2  0
  7  8  1  0
  8  9  2  0
  9 10  1  0
 10 11  1  0
 11 12  2  0
 12 13  1  0
 13 14  2  0
 14 15  1  0
 15 16  2  0
 10 17  1  0
 17 18  2  0
 17  2  1  0
  9  4  1  0
 16 11  1  0
  3 19  1  0
  5 20  1  0
  6 21  1  0
  7 22  1  0
  8 23  1  0
 12 24  1  0
 13 25  1  0
 14 26  1  0
 15 27  1  0
 16 28  1  0
M  END
>  <UniqueID>  (30) 
29

>  <SMILES>  (30) 
O=c1[nH]c2ccccc2n(-c2ccccc2)c1=O

>  <Energy>  (30) 
47.4985942271909

>  <Genealogy>  (30) 
O=c1[nH]c2ccccc2n(-c2ccccc2)c1=O (3D coordinates assigned)
O=c1[nH]c2ccccc2n(-c2ccccc2)c1=O (optimized conformer: 47.4985942271909 kcal/mol)

>  <smiles>  (30) 
O=c1[nH]c2ccccc2n(-c2ccccc2)c1=O

>  <score_type>  (30) 
oracle

>  <origin>  (30) 
adg

>  <m_score__min__energy>  (30) 
-6.6500000000000004

>  <m_primary>  (30) 
energy

$$$$
30:0
     RDKit          3D

 55 57  0  0  1  0  0  0  0  0999 V2000
   58.5690   32.1010   49.5100 C   0  0  0  0  0  0  0  0  0  0  0  0
   59.2500   33.3350   49.0840 N   0  0  0  0  0  0  0  0  0  0  0  0
   60.0050   34.0150   50.1140 C   0  0  0  0  0  0  0  0  0  0  0  0
   61.2720   33.2440   50.3610 C   0  0  0  0  0  0  0  0  0  0  0  0
   62.1300   33.0930   49.1570 C   0  0  0  0  0  0  0  0  0  0  0  0
   62.9850   34.0530   48.6960 C   0  0  0  0  0  0  0  0  0  0  0  0
   63.7510   33.8440   47.5670 C   0  0  0  0  0  0  0  0  0  0  0  0
   63.6980   32.6790   46.8520 C   0  0  0  0  0  0  0  0  0  0  0  0
   62.8360   31.6910   47.3020 C   0  0  0  0  0  0  0  0  0  0  0  0
   62.0740   31.9030   48.4290 C   0  0  0  0  0  0  0  0  0  0  0  0
   59.1340   33.7700   47.7450 C   0  0  0  0  0  0  0  0  0  0  0  0
   59.7870   34.8760   47.2310 C   0  0  0  0  0  0  0  0  0  0  0  0
   59.6290   35.2540   45.9200 C   0  0  0  0  0  0  0  0  0  0  0  0
   58.8270   34.5450   45.1100 N   0  0  0  0  0  0  0  0  0  0  0  0
   58.1930   33.4600   45.6360 C   0  0  0  0  0  0  0  0  0  0  0  0
   57.4350   32.8140   44.8350 N   0  0  0  0  0  0  0  0  0  0  0  0
   57.5660   31.4210   44.5960 C   0  0  0  0  0  0  0  0  0  0  0  0
   56.6510   30.8780   43.6840 C   0  0  0  0  0  0  0  0  0  0  0  0
   56.6580   29.5480   43.3460 C   0  0  0  0  0  0  0  0  0  0  0  0
   57.6250   28.7470   43.9560 C   0  0  0  0  0  0  0  0  0  0  0  0
   58.5260   29.2860   44.8540 C   0  0  0  0  0  0  0  0  0  0  0  0
   59.5440   28.4060   45.4830 C   0  0  0  0  0  0  0  0  0  0  0  0
   59.6470   28.7160   46.9590 C   0  0  0  0  0  0  0  0  0  0  0  0
   60.9190   28.5920   44.8750 C   0  0  0  0  0  0  0  0  0  0  0  0
   59.0930   26.9870   45.2350 C   0  0  0  0  0  0  0  0  0  0  0  0
   58.5170   30.6250   45.1910 C   0  0  0  0  0  0  0  0  0  0  0  0
   58.3350   33.0790   46.9090 N   0  0  0  0  0  0  0  0  0  0  0  0
   58.5444   32.0564   50.6088 H   0  0  0  0  0  0  0  0  0  0  0  0
   57.5406   32.0963   49.1197 H   0  0  0  0  0  0  0  0  0  0  0  0
   59.1133   31.2284   49.1197 H   0  0  0  0  0  0  0  0  0  0  0  0
   60.2495   35.0352   49.7831 H   0  0  0  0  0  0  0  0  0  0  0  0
   59.4129   34.0753   51.0391 H   0  0  0  0  0  0  0  0  0  0  0  0
   61.8511   33.7685   51.1353 H   0  0  0  0  0  0  0  0  0  0  0  0
   60.9741   32.2311   50.6696 H   0  0  0  0  0  0  0  0  0  0  0  0
   63.0646   35.0093   49.2337 H   0  0  0  0  0  0  0  0  0  0  0  0
   64.4282   34.6427   47.2302 H   0  0  0  0  0  0  0  0  0  0  0  0
   64.3160   32.5318   45.9540 H   0  0  0  0  0  0  0  0  0  0  0  0
   62.7608   30.7375   46.7586 H   0  0  0  0  0  0  0  0  0  0  0  0
   61.3964   31.1057   48.7682 H   0  0  0  0  0  0  0  0  0  0  0  0
   60.4463   35.4648   47.8857 H   0  0  0  0  0  0  0  0  0  0  0  0
   60.1593   36.1371   45.5341 H   0  0  0  0  0  0  0  0  0  0  0  0
   58.6850   34.8050   44.1080 H   0  0  0  0  0  0  0  0  0  0  0  0
   55.9024   31.5397   43.2238 H   0  0  0  0  0  0  0  0  0  0  0  0
   55.9355   29.1325   42.6281 H   0  0  0  0  0  0  0  0  0  0  0  0
   57.6701   27.6738   43.7188 H   0  0  0  0  0  0  0  0  0  0  0  0
   59.3527   27.8303   47.5411 H   0  0  0  0  0  0  0  0  0  0  0  0
   60.6840   28.9885   47.2050 H   0  0  0  0  0  0  0  0  0  0  0  0
   58.9793   29.5549   47.2050 H   0  0  0  0  0  0  0  0  0  0  0  0
   61.6643   28.6928   45.6777 H   0  0  0  0  0  0  0  0  0  0  0  0
   61.1660   27.7191   44.2529 H   0  0  0  0  0  0  0  0  0  0  0  0
   60.9252   29.4992   44.2529 H   0  0  0  0  0  0  0  0  0  0  0  0
   58.9318   26.4799   46.1978 H   0  0  0  0  0  0  0  0  0  0  0  0
   58.1533   26.9955   44.6633 H   0  0  0  0  0  0  0  0  0  0  0  0
   59.8652   26.4515   44.6633 H   0  0  0  0  0  0  0  0  0  0  0  0
   59.2420   31.0390   45.9073 H   0  0  0  0  0  0  0  0  0  0  0  0
  1  2  1  0
  2  3  1  0
  3  4  1  0
  4  5  1  0
  5  6  2  0
  6  7  1  0
  7  8  2  0
  8  9  1  0
  9 10  2  0
  2 11  1  0
 11 12  1  0
 12 13  2  0
 13 14  1  0
 14 15  1  0
 15 16  2  0
 16 17  1  0
 17 18  2  0
 18 19  1  0
 19 20  2  0
 20 21  1  0
 21 22  1  0
 22 23  1  0
 22 24  1  0
 22 25  1  0
 21 26  2  0
 15 27  1  0
 10  5  1  0
 27 11  2  0
 26 17  1  0
  1 28  1  0
  1 29  1  0
  1 30  1  0
  3 31  1  0
  3 32  1  0
  4 33  1  0
  4 34  1  0
  6 35  1  0
  7 36  1  0
  8 37  1  0
  9 38  1  0
 10 39  1  0
 12 40  1  0
 13 41  1  0
 14 42  1  0
 18 43  1  0
 19 44  1  0
 20 45  1  0
 23 46  1  0
 23 47  1  0
 23 48  1  0
 24 49  1  0
 24 50  1  0
 24 51  1  0
 25 52  1  0
 25 53  1  0
 25 54  1  0
 26 55  1  0
M  END
>  <smiles>  (31) 
CN(CCc1ccccc1)c1cc[nH]c(=Nc2cccc(C(C)(C)C)c2)n1

>  <score_type>  (31) 
oracle

>  <origin>  (31) 
adg

>  <m_score__min__energy>  (31) 
-8.9399999999999995

>  <m_primary>  (31) 
energy

$$$$
31:0
     RDKit          3D

 38 39  0  0  0  0  0  0  0  0999 V2000
   58.9210   32.4640   50.1310 C   0  0  0  0  0  0  0  0  0  0  0  0
   59.0180   33.0720   48.7640 C   0  0  0  0  0  0  0  0  0  0  0  0
   59.9450   34.0880   48.5070 C   0  0  0  0  0  0  0  0  0  0  0  0
   60.0090   34.6820   47.2460 C   0  0  0  0  0  0  0  0  0  0  0  0
   59.1380   34.2820   46.2180 C   0  0  0  0  0  0  0  0  0  0  0  0
   59.2480   34.9490   44.8710 C   0  0  0  0  0  0  0  0  0  0  0  0
   58.1830   33.2640   46.4760 C   0  0  0  0  0  0  0  0  0  0  0  0
   57.1890   32.7890   45.4370 C   0  0  0  0  0  0  0  0  0  0  0  0
   57.3340   31.3370   45.2150 N   0  0  0  0  0  0  0  0  0  0  0  0
   56.6480   30.9080   43.9840 C   0  0  0  0  0  0  0  0  0  0  0  0
   56.6170   29.3690   43.9070 C   0  0  0  0  0  0  0  0  0  0  0  0
   57.7560   28.7220   44.6010 N   0  0  0  0  0  0  0  0  0  0  0  0
   57.4120   28.3070   45.9730 C   0  0  0  0  0  0  0  0  0  0  0  0
   58.9770   29.5510   44.5640 C   0  0  0  0  0  0  0  0  0  0  0  0
   58.7610   30.9560   45.1700 C   0  0  0  0  0  0  0  0  0  0  0  0
   58.1340   32.6760   47.7520 C   0  0  0  0  0  0  0  0  0  0  0  0
   59.0463   33.2491   50.8912 H   0  0  0  0  0  0  0  0  0  0  0  0
   57.9359   31.9899   50.2524 H   0  0  0  0  0  0  0  0  0  0  0  0
   59.7097   31.7069   50.2524 H   0  0  0  0  0  0  0  0  0  0  0  0
   60.6271   34.4203   49.3034 H   0  0  0  0  0  0  0  0  0  0  0  0
   60.7496   35.4724   47.0543 H   0  0  0  0  0  0  0  0  0  0  0  0
   59.4256   36.0258   45.0085 H   0  0  0  0  0  0  0  0  0  0  0  0
   60.0855   34.5079   44.3107 H   0  0  0  0  0  0  0  0  0  0  0  0
   58.3132   34.8001   44.3107 H   0  0  0  0  0  0  0  0  0  0  0  0
   56.1683   33.0023   45.7872 H   0  0  0  0  0  0  0  0  0  0  0  0
   57.3810   33.3164   44.4910 H   0  0  0  0  0  0  0  0  0  0  0  0
   55.6177   31.2934   43.9879 H   0  0  0  0  0  0  0  0  0  0  0  0
   57.1905   31.3024   43.1121 H   0  0  0  0  0  0  0  0  0  0  0  0
   55.6823   29.0156   44.3667 H   0  0  0  0  0  0  0  0  0  0  0  0
   56.6866   29.0955   42.8438 H   0  0  0  0  0  0  0  0  0  0  0  0
   57.9424   28.9469   46.6935 H   0  0  0  0  0  0  0  0  0  0  0  0
   56.3270   28.4054   46.1247 H   0  0  0  0  0  0  0  0  0  0  0  0
   57.7099   27.2590   46.1247 H   0  0  0  0  0  0  0  0  0  0  0  0
   59.7672   29.0396   45.1333 H   0  0  0  0  0  0  0  0  0  0  0  0
   59.2575   29.6833   43.5086 H   0  0  0  0  0  0  0  0  0  0  0  0
   59.1612   30.9641   46.1946 H   0  0  0  0  0  0  0  0  0  0  0  0
   59.2817   31.6817   44.5280 H   0  0  0  0  0  0  0  0  0  0  0  0
   57.3899   31.8927   47.9590 H   0  0  0  0  0  0  0  0  0  0  0  0
  1  2  1  0
  2  3  2  0
  3  4  1  0
  4  5  2  0
  5  6  1  0
  5  7  1  0
  7  8  1  0
  8  9  1  0
  9 10  1  0
 10 11  1  0
 11 12  1  0
 12 13  1  0
 12 14  1  0
 14 15  1  0
  7 16  2  0
 16  2  1  0
 15  9  1  0
  1 17  1  0
  1 18  1  0
  1 19  1  0
  3 20  1  0
  4 21  1  0
  6 22  1  0
  6 23  1  0
  6 24  1  0
  8 25  1  0
  8 26  1  0
 10 27  1  0
 10 28  1  0
 11 29  1  0
 11 30  1  0
 13 31  1  0
 13 32  1  0
 13 33  1  0
 14 34  1  0
 14 35  1  0
 15 36  1  0
 15 37  1  0
 16 38  1  0
M  END
>  <UniqueID>  (32) 
30

>  <SMILES>  (32) 
Cc1ccc(C)c(CN2CCN(C)CC2)c1

>  <Energy>  (32) 
47.41928968063422

>  <Genealogy>  (32) 
Cc1ccc(C)c(CN2CCN(C)CC2)c1 (3D coordinates assigned)
Cc1ccc(C)c(CN2CCN(C)CC2)c1 (nonaromatic ring conformer: 47.41928968063422 kcal/mol)

>  <smiles>  (32) 
Cc1ccc(C)c(CN2CCN(C)CC2)c1

>  <score_type>  (32) 
oracle

>  <origin>  (32) 
adg

>  <m_score__min__energy>  (32) 
-6.3799999999999999

>  <m_primary>  (32) 
energy

$$$$
32:0
     RDKit          3D

 30 32  0  0  0  0  0  0  0  0999 V2000
   55.9100   29.6960   42.7150 O   0  0  0  0  0  0  0  0  0  0  0  0
   56.3050   29.9560   43.8840 C   0  0  0  0  0  0  0  0  0  0  0  0
   55.9710   29.0620   44.9520 N   0  0  0  0  0  0  0  0  0  0  0  0
   56.9610   28.2530   45.6460 C   0  0  0  0  0  0  0  0  0  0  0  0
   56.4920   26.8370   45.6980 C   0  0  0  0  0  0  0  0  0  0  0  0
   57.2760   25.7190   45.4920 C   0  0  0  0  0  0  0  0  0  0  0  0
   56.4340   24.6420   45.6690 C   0  0  0  0  0  0  0  0  0  0  0  0
   55.1950   25.1680   45.9740 C   0  0  0  0  0  0  0  0  0  0  0  0
   55.2620   26.4800   45.9880 O   0  0  0  0  0  0  0  0  0  0  0  0
   57.1080   31.1840   44.1400 C   0  0  0  0  0  0  0  0  0  0  0  0
   57.3970   31.5630   45.4620 C   0  0  0  0  0  0  0  0  0  0  0  0
   58.1490   32.7130   45.7110 C   0  0  0  0  0  0  0  0  0  0  0  0
   58.4560   33.1200   47.0190 C   0  0  0  0  0  0  0  0  0  0  0  0
   59.2120   34.2780   47.2290 C   0  0  0  0  0  0  0  0  0  0  0  0
   59.6640   35.0300   46.1380 C   0  0  0  0  0  0  0  0  0  0  0  0
   59.3610   34.6280   44.8330 C   0  0  0  0  0  0  0  0  0  0  0  0
   58.6040   33.4710   44.6140 C   0  0  0  0  0  0  0  0  0  0  0  0
   58.3180   33.0900   43.3750 O   0  0  0  0  0  0  0  0  0  0  0  0
   57.6040   32.0020   43.0980 C   0  0  0  0  0  0  0  0  0  0  0  0
   57.3810   31.7210   41.8900 O   0  0  0  0  0  0  0  0  0  0  0  0
   57.9192   28.3032   45.1080 H   0  0  0  0  0  0  0  0  0  0  0  0
   57.0969   28.6340   46.6689 H   0  0  0  0  0  0  0  0  0  0  0  0
   58.3464   25.6933   45.2399 H   0  0  0  0  0  0  0  0  0  0  0  0
   56.6968   23.5772   45.5842 H   0  0  0  0  0  0  0  0  0  0  0  0
   54.2886   24.5780   46.1749 H   0  0  0  0  0  0  0  0  0  0  0  0
   57.0306   30.9534   46.3012 H   0  0  0  0  0  0  0  0  0  0  0  0
   58.1027   32.5294   47.8771 H   0  0  0  0  0  0  0  0  0  0  0  0
   59.4519   34.5985   48.2536 H   0  0  0  0  0  0  0  0  0  0  0  0
   60.2591   35.9395   46.3076 H   0  0  0  0  0  0  0  0  0  0  0  0
   59.7178   35.2214   43.9782 H   0  0  0  0  0  0  0  0  0  0  0  0
  1  2  2  0
  2  3  1  0
  3  4  1  0
  4  5  1  0
  5  6  2  0
  6  7  1  0
  7  8  2  0
  8  9  1  0
  2 10  1  0
 10 11  2  0
 11 12  1  0
 12 13  2  0
 13 14  1  0
 14 15  2  0
 15 16  1  0
 16 17  2  0
 17 18  1  0
 18 19  1  0
 19 20  2  0
  9  5  1  0
 19 10  1  0
 17 12  1  0
  4 21  1  0
  4 22  1  0
  6 23  1  0
  7 24  1  0
  8 25  1  0
 11 26  1  0
 13 27  1  0
 14 28  1  0
 15 29  1  0
 16 30  1  0
M  CHG  1   3  -1
M  END
>  <UniqueID>  (33) 
31

>  <SMILES>  (33) 
O=C([N-]Cc1ccco1)c1cc2ccccc2oc1=O

>  <Energy>  (33) 
61.839118044406725

>  <Genealogy>  (33) 
O=C([N-]Cc1ccco1)c1cc2ccccc2oc1=O (protonated)
O=C([N-]Cc1ccco1)c1cc2ccccc2oc1=O (3D coordinates assigned)
O=C([N-]Cc1ccco1)c1cc2ccccc2oc1=O (optimized conformer: 61.839118044406725 kcal/mol)

>  <smiles>  (33) 
O=C(NCc1ccco1)c1cc2ccccc2oc1=O

>  <score_type>  (33) 
oracle

>  <origin>  (33) 
adg

>  <m_score__min__energy>  (33) 
-9.5999999999999996

>  <m_primary>  (33) 
energy

$$$$
33:0
     RDKit          3D

 51 53  0  0  0  0  0  0  0  0999 V2000
   55.1460   29.4400   44.8420 O   0  0  0  0  0  0  0  0  0  0  0  0
   56.3500   29.0680   44.8720 C   0  0  0  0  0  0  0  0  0  0  0  0
   57.3560   29.6640   43.9720 C   0  0  0  0  0  0  0  0  0  0  0  0
   57.4660   30.9690   43.6740 C   0  0  0  0  0  0  0  0  0  0  0  0
   57.9350   32.0200   44.5990 C   0  0  0  0  0  0  0  0  0  0  0  0
   57.8360   31.8120   45.9840 C   0  0  0  0  0  0  0  0  0  0  0  0
   58.2300   32.8130   46.8780 C   0  0  0  0  0  0  0  0  0  0  0  0
   58.7070   34.0350   46.3950 C   0  0  0  0  0  0  0  0  0  0  0  0
   58.7810   34.2620   45.0190 C   0  0  0  0  0  0  0  0  0  0  0  0
   58.3880   33.2640   44.1210 C   0  0  0  0  0  0  0  0  0  0  0  0
   56.7480   28.0020   45.7360 N   0  0  0  0  0  0  0  0  0  0  0  0
   57.2210   26.7140   45.2410 C   0  0  0  0  0  0  0  0  0  0  0  0
   58.7510   26.6900   45.2060 C   0  0  0  0  0  0  0  0  0  0  0  0
   59.3310   27.7650   46.0880 C   0  0  0  0  0  0  0  0  0  0  0  0
   59.1150   27.7380   47.4750 C   0  0  0  0  0  0  0  0  0  0  0  0
   59.5790   28.7800   48.2810 C   0  0  0  0  0  0  0  0  0  0  0  0
   60.2510   29.8710   47.7110 C   0  0  0  0  0  0  0  0  0  0  0  0
   60.7610   31.2270   48.7190 S   0  0  0  0  0  0  0  0  0  0  0  0
   61.8290   30.7630   49.6690 O   0  0  0  0  0  0  0  0  0  0  0  0
   59.5900   31.7080   49.5320 O   0  0  0  0  0  0  0  0  0  0  0  0
   61.3840   32.5460   47.7520 N   0  0  0  0  0  0  0  0  0  0  0  0
   61.4400   33.8080   48.5220 C   0  0  0  0  0  0  0  0  0  0  0  0
   62.8770   34.1570   48.9560 C   0  0  0  0  0  0  0  0  0  0  0  0
   63.7780   34.2880   47.8650 O   0  0  0  0  0  0  0  0  0  0  0  0
   63.4780   33.4350   46.7650 C   0  0  0  0  0  0  0  0  0  0  0  0
   62.6810   32.1780   47.1500 C   0  0  0  0  0  0  0  0  0  0  0  0
   60.4840   29.8900   46.3290 C   0  0  0  0  0  0  0  0  0  0  0  0
   60.0230   28.8470   45.5210 C   0  0  0  0  0  0  0  0  0  0  0  0
   58.0791   28.9797   43.5042 H   0  0  0  0  0  0  0  0  0  0  0  0
   57.1835   31.2803   42.6575 H   0  0  0  0  0  0  0  0  0  0  0  0
   57.4468   30.8574   46.3678 H   0  0  0  0  0  0  0  0  0  0  0  0
   58.1644   32.6385   47.9621 H   0  0  0  0  0  0  0  0  0  0  0  0
   59.0243   34.8183   47.0992 H   0  0  0  0  0  0  0  0  0  0  0  0
   59.1489   35.2272   44.6407 H   0  0  0  0  0  0  0  0  0  0  0  0
   58.4331   33.4520   43.0381 H   0  0  0  0  0  0  0  0  0  0  0  0
   56.8603   25.9149   45.9053 H   0  0  0  0  0  0  0  0  0  0  0  0
   56.8365   26.5581   44.2223 H   0  0  0  0  0  0  0  0  0  0  0  0
   59.1030   25.7087   45.5570 H   0  0  0  0  0  0  0  0  0  0  0  0
   59.0796   26.8716   44.1720 H   0  0  0  0  0  0  0  0  0  0  0  0
   58.5778   26.8922   47.9290 H   0  0  0  0  0  0  0  0  0  0  0  0
   59.4165   28.7447   49.3684 H   0  0  0  0  0  0  0  0  0  0  0  0
   61.0504   34.6238   47.8954 H   0  0  0  0  0  0  0  0  0  0  0  0
   60.8330   33.6788   49.4302 H   0  0  0  0  0  0  0  0  0  0  0  0
   62.8539   35.1094   49.5059 H   0  0  0  0  0  0  0  0  0  0  0  0
   63.2395   33.3266   49.5797 H   0  0  0  0  0  0  0  0  0  0  0  0
   62.8892   34.0077   46.0333 H   0  0  0  0  0  0  0  0  0  0  0  0
   64.4396   33.0905   46.3569 H   0  0  0  0  0  0  0  0  0  0  0  0
   62.5021   31.5738   46.2484 H   0  0  0  0  0  0  0  0  0  0  0  0
   63.2619   31.6028   47.8861 H   0  0  0  0  0  0  0  0  0  0  0  0
   61.0325   30.7301   45.8781 H   0  0  0  0  0  0  0  0  0  0  0  0
   60.2031   28.8739   44.4362 H   0  0  0  0  0  0  0  0  0  0  0  0
  1  2  2  0
  2  3  1  0
  3  4  2  3
  4  5  1  0
  5  6  2  0
  6  7  1  0
  7  8  2  0
  8  9  1  0
  9 10  2  0
  2 11  1  0
 11 12  1  0
 12 13  1  0
 13 14  1  0
 14 15  2  0
 15 16  1  0
 16 17  2  0
 17 18  1  0
 18 19  2  0
 18 20  2  0
 18 21  1  0
 21 22  1  0
 22 23  1  0
 23 24  1  0
 24 25  1  0
 25 26  1  0
 17 27  1  0
 27 28  2  0
 10  5  1  0
 28 14  1  0
 26 21  1  0
  3 29  1  0
  4 30  1  0
  6 31  1  0
  7 32  1  0
  8 33  1  0
  9 34  1  0
 10 35  1  0
 12 36  1  0
 12 37  1  0
 13 38  1  0
 13 39  1  0
 15 40  1  0
 16 41  1  0
 22 42  1  0
 22 43  1  0
 23 44  1  0
 23 45  1  0
 25 46  1  0
 25 47  1  0
 26 48  1  0
 26 49  1  0
 27 50  1  0
 28 51  1  0
M  CHG  1  11  -1
M  END
>  <UniqueID>  (34) 
32

>  <SMILES>  (34) 
O=C(C=Cc1ccccc1)[N-]CCc1ccc(S(=O)(=O)N2CCOCC2)cc1

>  <Energy>  (34) 
65.9025785144267

>  <Genealogy>  (34) 
O=C(C=Cc1ccccc1)[N-]CCc1ccc(S(=O)(=O)N2CCOCC2)cc1 (protonated)
O=C(C=Cc1ccccc1)[N-]CCc1ccc(S(=O)(=O)N2CCOCC2)cc1 (3D coordinates assigned)
O=C(C=Cc1ccccc1)[N-]CCc1ccc(S(=O)(=O)N2CCOCC2)cc1 (nonaromatic ring conformer: 65.9025785144267 kcal/mol)

>  <smiles>  (34) 
O=C(C=Cc1ccccc1)NCCc1ccc(S(=O)(=O)N2CCOCC2)cc1

>  <score_type>  (34) 
oracle

>  <origin>  (34) 
adg

>  <m_score__min__energy>  (34) 
-11.07

>  <m_primary>  (34) 
energy

$$$$
34:0
     RDKit          3D

 34 37  0  0  0  0  0  0  0  0999 V2000
   59.8451   23.7187   46.0765 H   0  0  0  0  0  0  0  0  0  0  0  0
   59.1700   24.5820   45.9820 C   0  0  0  0  0  0  0  0  0  0  0  0
   57.8790   24.4080   45.4770 C   0  0  0  0  0  0  0  0  0  0  0  0
   57.5414   23.4088   45.1647 H   0  0  0  0  0  0  0  0  0  0  0  0
   57.0150   25.5030   45.3680 C   0  0  0  0  0  0  0  0  0  0  0  0
   56.0060   25.3652   44.9520 H   0  0  0  0  0  0  0  0  0  0  0  0
   57.4290   26.7730   45.7860 C   0  0  0  0  0  0  0  0  0  0  0  0
   56.5460   27.8910   45.6090 N   0  0  0  0  0  0  0  0  0  0  0  0
   56.8480   29.0680   45.1360 C   0  0  0  0  0  0  0  0  0  0  0  0
   57.4180   29.9750   45.9720 N   0  0  0  0  0  0  0  0  0  0  0  0
   57.7630   31.2220   45.5540 C   0  0  0  0  0  0  0  0  0  0  0  0
   57.5370   31.5840   44.2140 C   0  0  0  0  0  0  0  0  0  0  0  0
   56.9810   30.6290   43.3570 C   0  0  0  0  0  0  0  0  0  0  0  0
   56.8124   30.8763   42.2985 H   0  0  0  0  0  0  0  0  0  0  0  0
   56.6480   29.3980   43.8240 N   0  0  0  0  0  0  0  0  0  0  0  0
   56.2770   28.7070   43.1350 H   0  0  0  0  0  0  0  0  0  0  0  0
   57.9600   32.9340   43.6970 C   0  0  0  0  0  0  0  0  0  0  0  0
   59.0550   32.9620   43.5957 H   0  0  0  0  0  0  0  0  0  0  0  0
   57.4980   33.1135   42.7150 H   0  0  0  0  0  0  0  0  0  0  0  0
   57.4250   34.2210   44.8660 S   0  0  0  0  0  0  0  0  0  0  0  0
   58.3990   33.5550   46.2250 C   0  0  0  0  0  0  0  0  0  0  0  0
   59.1270   34.4330   47.0370 C   0  0  0  0  0  0  0  0  0  0  0  0
   59.1547   35.5062   46.7975 H   0  0  0  0  0  0  0  0  0  0  0  0
   59.8180   33.9500   48.1500 C   0  0  0  0  0  0  0  0  0  0  0  0
   60.3856   34.6434   48.7880 H   0  0  0  0  0  0  0  0  0  0  0  0
   59.7890   32.5860   48.4540 C   0  0  0  0  0  0  0  0  0  0  0  0
   60.3188   32.2099   49.3417 H   0  0  0  0  0  0  0  0  0  0  0  0
   59.0880   31.6990   47.6320 C   0  0  0  0  0  0  0  0  0  0  0  0
   59.0755   30.6254   47.8711 H   0  0  0  0  0  0  0  0  0  0  0  0
   58.3980   32.1720   46.5000 C   0  0  0  0  0  0  0  0  0  0  0  0
   58.7420   26.9510   46.2590 C   0  0  0  0  0  0  0  0  0  0  0  0
   59.0919   27.9541   46.5442 H   0  0  0  0  0  0  0  0  0  0  0  0
   59.6030   25.8540   46.3670 C   0  0  0  0  0  0  0  0  0  0  0  0
   60.6227   25.9926   46.7556 H   0  0  0  0  0  0  0  0  0  0  0  0
  1  2  1  0
  2  3  2  0
  3  4  1  0
  3  5  1  0
  5  6  1  0
  5  7  2  0
  7  8  1  0
  8  9  2  0
  9 10  1  0
 10 11  2  0
 11 12  1  0
 12 13  2  0
 13 14  1  0
 13 15  1  0
 15 16  1  0
 12 17  1  0
 17 18  1  0
 17 19  1  0
 17 20  1  0
 20 21  1  0
 21 22  2  0
 22 23  1  0
 22 24  1  0
 24 25  1  0
 24 26  2  0
 26 27  1  0
 26 28  1  0
 28 29  1  0
 28 30  2  0
  7 31  1  0
 31 32  1  0
 31 33  2  0
 33 34  1  0
 33  2  1  0
 15  9  1  0
 30 21  1  0
 30 11  1  0
M  END
>  <UniqueID>  (35) 
33

>  <SMILES>  (35) 
c1ccc(/N=c2/nc3c(c[nH]2)CSc2ccccc2-3)cc1

>  <Energy>  (35) 
55.12183546398571

>  <Genealogy>  (35) 
c1ccc(/N=c2/nc3c(c[nH]2)CSc2ccccc2-3)cc1 (cis-trans isomerization)
c1ccc(/N=c2/nc3c(c[nH]2)CSc2ccccc2-3)cc1 (3D coordinates assigned)
c1ccc(/N=c2/nc3c(c[nH]2)CSc2ccccc2-3)cc1 (nonaromatic ring conformer: 55.12183546398571 kcal/mol)

>  <smiles>  (35) 
c1ccc(N=c2nc3c(c[nH]2)CSc2ccccc2-3)cc1

>  <score_type>  (35) 
oracle

>  <origin>  (35) 
adg

>  <m_score__min__energy>  (35) 
-7.9400000000000004

>  <m_primary>  (35) 
energy

$$$$
35:0
     RDKit          3D

 25 26  0  0  0  0  0  0  0  0999 V2000
   57.4610   32.3390   40.8340 C   0  0  0  0  0  0  0  0  0  0  0  0
   57.4190   31.9090   42.2700 C   0  0  0  0  0  0  0  0  0  0  0  0
   56.8670   30.6680   42.6180 C   0  0  0  0  0  0  0  0  0  0  0  0
   56.8590   30.2530   43.9520 C   0  0  0  0  0  0  0  0  0  0  0  0
   57.4120   31.0650   44.9440 C   0  0  0  0  0  0  0  0  0  0  0  0
   57.9850   32.3060   44.6120 C   0  0  0  0  0  0  0  0  0  0  0  0
   58.5880   33.1700   45.6570 C   0  0  0  0  0  0  0  0  0  0  0  0
   58.6480   32.8490   46.9050 N   0  0  0  0  0  0  0  0  0  0  0  0
   59.2810   33.9080   47.6780 C   0  0  0  0  0  0  0  0  0  0  0  0
   59.6370   34.9860   46.6420 C   0  0  0  0  0  0  0  0  0  0  0  0
   59.1480   34.4430   45.3880 N   0  0  0  0  0  0  0  0  0  0  0  0
   57.9920   32.7150   43.2660 C   0  0  0  0  0  0  0  0  0  0  0  0
   57.5678   33.4326   40.7817 H   0  0  0  0  0  0  0  0  0  0  0  0
   58.3169   31.8626   40.3335 H   0  0  0  0  0  0  0  0  0  0  0  0
   56.5291   32.0372   40.3335 H   0  0  0  0  0  0  0  0  0  0  0  0
   56.4393   30.0197   41.8390 H   0  0  0  0  0  0  0  0  0  0  0  0
   56.4155   29.2832   44.2217 H   0  0  0  0  0  0  0  0  0  0  0  0
   57.3995   30.7320   45.9923 H   0  0  0  0  0  0  0  0  0  0  0  0
   58.2660   31.9730   47.3250 H   0  0  0  0  0  0  0  0  0  0  0  0
   58.5857   34.3077   48.4308 H   0  0  0  0  0  0  0  0  0  0  0  0
   60.1640   33.5513   48.2284 H   0  0  0  0  0  0  0  0  0  0  0  0
   59.1359   35.9362   46.8785 H   0  0  0  0  0  0  0  0  0  0  0  0
   60.7139   35.2086   46.6156 H   0  0  0  0  0  0  0  0  0  0  0  0
   59.2720   34.8850   44.4510 H   0  0  0  0  0  0  0  0  0  0  0  0
   58.4512   33.6761   42.9914 H   0  0  0  0  0  0  0  0  0  0  0  0
  1  2  1  0
  2  3  2  0
  3  4  1  0
  4  5  2  0
  5  6  1  0
  6  7  1  0
  7  8  2  0
  8  9  1  0
  9 10  1  0
 10 11  1  0
  6 12  2  0
 12  2  1  0
 11  7  1  0
  1 13  1  0
  1 14  1  0
  1 15  1  0
  3 16  1  0
  4 17  1  0
  5 18  1  0
  8 19  1  0
  9 20  1  0
  9 21  1  0
 10 22  1  0
 10 23  1  0
 11 24  1  0
 12 25  1  0
M  CHG  1   8   1
M  END
>  <UniqueID>  (36) 
34

>  <SMILES>  (36) 
Cc1cccc(C2=[NH+]CCN2)c1

>  <Energy>  (36) 
37.062375729968096

>  <Genealogy>  (36) 
Cc1cccc(C2=[NH+]CCN2)c1 (protonated)
Cc1cccc(C2=[NH+]CCN2)c1 (3D coordinates assigned)
Cc1cccc(C2=[NH+]CCN2)c1 (nonaromatic ring conformer: 37.062375729968096 kcal/mol)

>  <smiles>  (36) 
Cc1cccc(C2=NCCN2)c1

>  <score_type>  (36) 
oracle

>  <origin>  (36) 
adg

>  <m_score__min__energy>  (36) 
-3.75

>  <m_primary>  (36) 
energy

$$$$
36:0
     RDKit          3D

 23 25  0  0  0  0  0  0  0  0999 V2000
   58.9790   28.7540   47.3040 C   0  0  0  0  0  0  0  0  0  0  0  0
   58.8130   30.1410   46.7580 C   0  0  0  0  0  0  0  0  0  0  0  0
   59.6760   31.1450   47.1120 N   0  0  0  0  0  0  0  0  0  0  0  0
   59.5550   32.4120   46.5970 C   0  0  0  0  0  0  0  0  0  0  0  0
   60.4400   33.4320   46.9750 C   0  0  0  0  0  0  0  0  0  0  0  0
   60.3010   34.7160   46.4380 C   0  0  0  0  0  0  0  0  0  0  0  0
   59.2820   34.9910   45.5210 C   0  0  0  0  0  0  0  0  0  0  0  0
   58.3910   33.9870   45.1330 C   0  0  0  0  0  0  0  0  0  0  0  0
   58.5220   32.6950   45.6670 C   0  0  0  0  0  0  0  0  0  0  0  0
   57.6920   31.6720   45.3280 N   0  0  0  0  0  0  0  0  0  0  0  0
   56.6440   31.5810   44.4910 C   0  0  0  0  0  0  0  0  0  0  0  0
   56.1480   30.3240   44.4940 N   0  0  0  0  0  0  0  0  0  0  0  0
   56.8810   29.6020   45.3360 N   0  0  0  0  0  0  0  0  0  0  0  0
   57.8110   30.4390   45.8320 C   0  0  0  0  0  0  0  0  0  0  0  0
   58.9747   28.7898   48.4034 H   0  0  0  0  0  0  0  0  0  0  0  0
   58.1502   28.1207   46.9545 H   0  0  0  0  0  0  0  0  0  0  0  0
   59.9338   28.3342   46.9545 H   0  0  0  0  0  0  0  0  0  0  0  0
   60.4450   30.9390   47.7910 H   0  0  0  0  0  0  0  0  0  0  0  0
   61.2447   33.2220   47.6949 H   0  0  0  0  0  0  0  0  0  0  0  0
   60.9967   35.5133   46.7386 H   0  0  0  0  0  0  0  0  0  0  0  0
   59.1812   36.0033   45.1027 H   0  0  0  0  0  0  0  0  0  0  0  0
   57.5901   34.2079   44.4121 H   0  0  0  0  0  0  0  0  0  0  0  0
   56.2467   32.4117   43.8892 H   0  0  0  0  0  0  0  0  0  0  0  0
  1  2  1  0
  2  3  2  0
  3  4  1  0
  4  5  2  0
  5  6  1  0
  6  7  2  0
  7  8  1  0
  8  9  2  0
  9 10  1  0
 10 11  1  0
 11 12  2  0
 12 13  1  0
 13 14  2  0
 14  2  1  0
  9  4  1  0
 14 10  1  0
  1 15  1  0
  1 16  1  0
  1 17  1  0
  3 18  1  0
  5 19  1  0
  6 20  1  0
  7 21  1  0
  8 22  1  0
 11 23  1  0
M  CHG  1   3   1
M  END
>  <UniqueID>  (37) 
35

>  <SMILES>  (37) 
Cc1[nH+]c2ccccc2n2cnnc12

>  <Energy>  (37) 
70.4464740423265

>  <Genealogy>  (37) 
Cc1[nH+]c2ccccc2n2cnnc12 (protonated)
Cc1[nH+]c2ccccc2n2cnnc12 (3D coordinates assigned)
Cc1[nH+]c2ccccc2n2cnnc12 (optimized conformer: 70.4464740423265 kcal/mol)

>  <smiles>  (37) 
Cc1nc2ccccc2n2cnnc12

>  <score_type>  (37) 
oracle

>  <origin>  (37) 
adg

>  <m_score__min__energy>  (37) 
-4.3700000000000001

>  <m_primary>  (37) 
energy

$$$$
37:0
     RDKit          3D

 40 44  0  0  0  0  0  0  0  0999 V2000
   58.8167   26.0261   46.7016 H   0  0  0  0  0  0  0  0  0  0  0  0
   57.8810   26.5790   46.5320 C   0  0  0  0  0  0  0  0  0  0  0  0
   56.7190   25.9080   46.5650 C   0  0  0  0  0  0  0  0  0  0  0  0
   55.9560   26.2265   47.2905 H   0  0  0  0  0  0  0  0  0  0  0  0
   56.4060   24.7610   45.6780 C   0  0  0  0  0  0  0  0  0  0  0  0
   55.0760   24.4470   45.2740 C   0  0  0  0  0  0  0  0  0  0  0  0
   54.2376   25.0626   45.6319 H   0  0  0  0  0  0  0  0  0  0  0  0
   54.8260   23.3560   44.4210 C   0  0  0  0  0  0  0  0  0  0  0  0
   53.8019   23.1027   44.1096 H   0  0  0  0  0  0  0  0  0  0  0  0
   55.9140   22.6080   43.9840 C   0  0  0  0  0  0  0  0  0  0  0  0
   57.1840   22.9070   44.3520 C   0  0  0  0  0  0  0  0  0  0  0  0
   57.4770   23.9760   45.1930 C   0  0  0  0  0  0  0  0  0  0  0  0
   58.5158   24.2046   45.4734 H   0  0  0  0  0  0  0  0  0  0  0  0
   58.0550   22.0070   43.7690 O   0  0  0  0  0  0  0  0  0  0  0  0
   57.2820   21.0860   42.9860 C   0  0  0  0  0  0  0  0  0  0  0  0
   57.5763   21.1373   41.9274 H   0  0  0  0  0  0  0  0  0  0  0  0
   57.4336   20.0446   43.3061 H   0  0  0  0  0  0  0  0  0  0  0  0
   55.9210   21.5060   43.1510 O   0  0  0  0  0  0  0  0  0  0  0  0
   57.9500   28.0290   46.2770 C   0  0  0  0  0  0  0  0  0  0  0  0
   56.9930   28.6140   45.4970 N   0  0  0  0  0  0  0  0  0  0  0  0
   57.0040   29.9500   45.2230 C   0  0  0  0  0  0  0  0  0  0  0  0
   56.1070   30.4440   44.4920 O   0  0  0  0  0  0  0  0  0  0  0  0
   58.0250   30.7390   45.7650 C   0  0  0  0  0  0  0  0  0  0  0  0
   58.2500   32.1240   45.6340 C   0  0  0  0  0  0  0  0  0  0  0  0
   59.4220   32.5280   46.2810 C   0  0  0  0  0  0  0  0  0  0  0  0
   60.1400   31.2130   47.0670 S   0  0  0  0  0  0  0  0  0  0  0  0
   58.9850   30.1160   46.5420 C   0  0  0  0  0  0  0  0  0  0  0  0
   58.9580   28.7880   46.8000 N   0  0  0  0  0  0  0  0  0  0  0  0
   59.8970   33.9460   46.3510 C   0  0  0  0  0  0  0  0  0  0  0  0
   60.9916   33.9658   46.2442 H   0  0  0  0  0  0  0  0  0  0  0  0
   59.6004   34.3707   47.3214 H   0  0  0  0  0  0  0  0  0  0  0  0
   59.2660   34.7860   45.2310 C   0  0  0  0  0  0  0  0  0  0  0  0
   59.7243   34.5070   44.2707 H   0  0  0  0  0  0  0  0  0  0  0  0
   59.4435   35.8495   45.4491 H   0  0  0  0  0  0  0  0  0  0  0  0
   57.7490   34.5500   45.1510 C   0  0  0  0  0  0  0  0  0  0  0  0
   57.3276   35.1978   44.3682 H   0  0  0  0  0  0  0  0  0  0  0  0
   57.3117   34.7851   46.1326 H   0  0  0  0  0  0  0  0  0  0  0  0
   57.4210   33.0830   44.8160 C   0  0  0  0  0  0  0  0  0  0  0  0
   57.6225   32.9076   43.7489 H   0  0  0  0  0  0  0  0  0  0  0  0
   56.3611   32.9066   45.0517 H   0  0  0  0  0  0  0  0  0  0  0  0
  1  2  1  0
  2  3  2  0
  3  4  1  0
  3  5  1  0
  5  6  2  0
  6  7  1  0
  6  8  1  0
  8  9  1  0
  8 10  2  0
 10 11  1  0
 11 12  2  0
 12 13  1  0
 11 14  1  0
 14 15  1  0
 15 16  1  0
 15 17  1  0
 15 18  1  0
  2 19  1  0
 19 20  2  0
 20 21  1  0
 21 22  2  0
 21 23  1  0
 23 24  1  0
 24 25  2  0
 25 26  1  0
 26 27  1  0
 27 28  1  0
 25 29  1  0
 29 30  1  0
 29 31  1  0
 29 32  1  0
 32 33  1  0
 32 34  1  0
 32 35  1  0
 35 36  1  0
 35 37  1  0
 35 38  1  0
 38 39  1  0
 38 40  1  0
 12  5  1  0
 28 19  1  0
 18 10  1  0
 27 23  2  0
 38 24  1  0
M  CHG  1  28  -1
M  END
>  <UniqueID>  (38) 
36

>  <SMILES>  (38) 
O=c1nc(/C=C/c2ccc3c(c2)OCO3)[n-]c2sc3c(c12)CCCC3

>  <Energy>  (38) 
108.30486390579696

>  <Genealogy>  (38) 
O=c1nc(C=Cc2ccc3c(c2)OCO3)[n-]c2sc3c(c12)CCCC3 (protonated)
O=c1nc(/C=C/c2ccc3c(c2)OCO3)[n-]c2sc3c(c12)CCCC3 (cis-trans isomerization)
O=c1nc(/C=C/c2ccc3c(c2)OCO3)[n-]c2sc3c(c12)CCCC3 (3D coordinates assigned)
O=c1nc(/C=C/c2ccc3c(c2)OCO3)[n-]c2sc3c(c12)CCCC3 (nonaromatic ring conformer: 108.30486390579696 kcal/mol)

>  <smiles>  (38) 
O=c1nc(C=Cc2ccc3c(c2)OCO3)[nH]c2sc3c(c12)CCCC3

>  <score_type>  (38) 
oracle

>  <origin>  (38) 
adg

>  <m_score__min__energy>  (38) 
-10.42

>  <m_primary>  (38) 
energy

$$$$
38:0
     RDKit          3D

 35 37  0  0  1  0  0  0  0  0999 V2000
   60.4640   29.8980   48.0750 C   0  0  0  0  0  0  0  0  0  0  0  0
   60.2170   28.1390   48.3830 S   0  0  0  0  0  0  0  0  0  0  0  0
   59.0090   27.4120   47.2720 C   0  0  0  0  0  0  0  0  0  0  0  0
   58.9960   26.0620   46.9870 C   0  0  0  0  0  0  0  0  0  0  0  0
   58.0540   25.5000   46.1200 C   0  0  0  0  0  0  0  0  0  0  0  0
   57.1030   26.3130   45.5270 C   0  0  0  0  0  0  0  0  0  0  0  0
   57.1050   27.6640   45.8040 C   0  0  0  0  0  0  0  0  0  0  0  0
   56.1660   28.5770   45.2420 N   0  0  0  0  0  0  0  0  0  0  0  0
   56.5780   29.6270   44.6180 C   0  0  0  0  0  0  0  0  0  0  0  0
   57.1200   30.6530   45.2930 N   0  0  0  0  0  0  0  0  0  0  0  0
   57.5640   31.7760   44.6520 C   0  0  0  0  0  0  0  0  0  0  0  0
   58.1520   32.8860   45.3910 C   0  0  0  0  0  0  0  0  0  0  0  0
   58.7810   33.9530   44.8040 C   0  0  0  0  0  0  0  0  0  0  0  0
   59.3150   34.9690   45.5780 C   0  0  0  0  0  0  0  0  0  0  0  0
   59.2220   34.9250   46.9720 C   0  0  0  0  0  0  0  0  0  0  0  0
   58.5970   33.8600   47.5080 N   0  0  0  0  0  0  0  0  0  0  0  0
   58.0740   32.8660   46.7670 C   0  0  0  0  0  0  0  0  0  0  0  0
   57.4130   31.7730   43.2840 C   0  0  0  0  0  0  0  0  0  0  0  0
   56.8510   30.7090   42.5890 C   0  0  0  0  0  0  0  0  0  0  0  0
   56.4350   29.6330   43.2820 N   0  0  0  0  0  0  0  0  0  0  0  0
   58.0490   28.2080   46.6680 C   0  0  0  0  0  0  0  0  0  0  0  0
   60.5389   30.4312   49.0342 H   0  0  0  0  0  0  0  0  0  0  0  0
   61.3913   30.0431   47.5014 H   0  0  0  0  0  0  0  0  0  0  0  0
   59.6125   30.2929   47.5014 H   0  0  0  0  0  0  0  0  0  0  0  0
   59.7479   25.4096   47.4550 H   0  0  0  0  0  0  0  0  0  0  0  0
   58.0683   24.4202   45.9106 H   0  0  0  0  0  0  0  0  0  0  0  0
   56.3546   25.8863   44.8430 H   0  0  0  0  0  0  0  0  0  0  0  0
   58.8622   34.0024   43.7081 H   0  0  0  0  0  0  0  0  0  0  0  0
   59.8169   35.8184   45.0917 H   0  0  0  0  0  0  0  0  0  0  0  0
   59.6403   35.7238   47.6020 H   0  0  0  0  0  0  0  0  0  0  0  0
   57.5757   32.0230   47.2680 H   0  0  0  0  0  0  0  0  0  0  0  0
   57.7522   32.6517   42.7157 H   0  0  0  0  0  0  0  0  0  0  0  0
   56.7482   30.7455   41.4944 H   0  0  0  0  0  0  0  0  0  0  0  0
   56.0050   28.8150   42.7720 H   0  0  0  0  0  0  0  0  0  0  0  0
   58.0334   29.2882   46.8754 H   0  0  0  0  0  0  0  0  0  0  0  0
  1  2  1  0
  2  3  1  0
  3  4  2  0
  4  5  1  0
  5  6  2  0
  6  7  1  0
  7  8  1  0
  8  9  2  0
  9 10  1  0
 10 11  2  0
 11 12  1  0
 12 13  2  0
 13 14  1  0
 14 15  2  0
 15 16  1  0
 16 17  2  0
 11 18  1  0
 18 19  2  0
 19 20  1  0
  7 21  2  0
 21  3  1  0
 20  9  1  0
 17 12  1  0
  1 22  1  0
  1 23  1  0
  1 24  1  0
  4 25  1  0
  5 26  1  0
  6 27  1  0
 13 28  1  0
 14 29  1  0
 15 30  1  0
 17 31  1  0
 18 32  1  0
 19 33  1  0
 20 34  1  0
 21 35  1  0
M  END
>  <smiles>  (39) 
CSc1cccc(N=c2nc(-c3cccnc3)cc[nH]2)c1

>  <score_type>  (39) 
oracle

>  <origin>  (39) 
adg

>  <m_score__min__energy>  (39) 
-7.7300000000000004

>  <m_primary>  (39) 
energy

$$$$
39:0
     RDKit          3D

 45 47  0  0  0  0  0  0  0  0999 V2000
   60.0330   27.8520   49.3180 O   0  0  0  0  0  0  0  0  0  0  0  0
   59.3400   28.7590   48.7820 C   0  0  0  0  0  0  0  0  0  0  0  0
   58.5640   29.6410   49.6050 N   0  0  0  0  0  0  0  0  0  0  0  0
   59.0610   30.9150   50.1130 C   0  0  0  0  0  0  0  0  0  0  0  0
   58.8850   32.0100   49.0580 C   0  0  0  0  0  0  0  0  0  0  0  0
   60.2220   32.4980   48.5690 C   0  0  0  0  0  0  0  0  0  0  0  0
   60.9190   31.7850   47.5820 C   0  0  0  0  0  0  0  0  0  0  0  0
   62.1740   32.2250   47.1470 C   0  0  0  0  0  0  0  0  0  0  0  0
   62.7460   33.3720   47.7020 C   0  0  0  0  0  0  0  0  0  0  0  0
   62.0680   34.0760   48.7000 C   0  0  0  0  0  0  0  0  0  0  0  0
   60.8120   33.6430   49.1360 C   0  0  0  0  0  0  0  0  0  0  0  0
   59.3130   28.8990   47.3070 C   0  0  0  0  0  0  0  0  0  0  0  0
   60.4260   28.5190   46.5360 C   0  0  0  0  0  0  0  0  0  0  0  0
   60.3800   28.5970   45.1420 C   0  0  0  0  0  0  0  0  0  0  0  0
   59.2260   29.0490   44.5020 C   0  0  0  0  0  0  0  0  0  0  0  0
   58.1120   29.4420   45.2530 C   0  0  0  0  0  0  0  0  0  0  0  0
   56.6440   29.9570   44.4260 S   0  0  0  0  0  0  0  0  0  0  0  0
   56.7800   29.8090   42.9380 O   0  0  0  0  0  0  0  0  0  0  0  0
   55.5030   29.0940   44.8810 O   0  0  0  0  0  0  0  0  0  0  0  0
   56.2990   31.6060   44.8370 N   0  0  0  0  0  0  0  0  0  0  0  0
   57.2770   32.6030   45.1620 C   0  0  0  0  0  0  0  0  0  0  0  0
   57.3060   33.2360   46.4190 C   0  0  0  0  0  0  0  0  0  0  0  0
   58.2610   34.2210   46.6900 C   0  0  0  0  0  0  0  0  0  0  0  0
   59.1950   34.5750   45.7160 C   0  0  0  0  0  0  0  0  0  0  0  0
   59.1830   33.9390   44.4730 C   0  0  0  0  0  0  0  0  0  0  0  0
   58.2310   32.9540   44.1970 C   0  0  0  0  0  0  0  0  0  0  0  0
   58.2200   32.3580   42.9780 F   0  0  0  0  0  0  0  0  0  0  0  0
   58.1630   29.3770   46.6540 C   0  0  0  0  0  0  0  0  0  0  0  0
   58.4994   31.1891   51.0183 H   0  0  0  0  0  0  0  0  0  0  0  0
   60.1303   30.8140   50.3504 H   0  0  0  0  0  0  0  0  0  0  0  0
   58.3159   31.6046   48.2084 H   0  0  0  0  0  0  0  0  0  0  0  0
   58.3449   32.8542   49.5115 H   0  0  0  0  0  0  0  0  0  0  0  0
   60.4769   30.8760   47.1482 H   0  0  0  0  0  0  0  0  0  0  0  0
   62.7112   31.6664   46.3664 H   0  0  0  0  0  0  0  0  0  0  0  0
   63.7294   33.7206   47.3536 H   0  0  0  0  0  0  0  0  0  0  0  0
   62.5234   34.9734   49.1441 H   0  0  0  0  0  0  0  0  0  0  0  0
   60.2835   34.1989   49.9245 H   0  0  0  0  0  0  0  0  0  0  0  0
   61.3383   28.1582   47.0336 H   0  0  0  0  0  0  0  0  0  0  0  0
   61.2566   28.3010   44.5471 H   0  0  0  0  0  0  0  0  0  0  0  0
   59.1912   29.0968   43.4036 H   0  0  0  0  0  0  0  0  0  0  0  0
   56.5747   32.9548   47.1911 H   0  0  0  0  0  0  0  0  0  0  0  0
   58.2758   34.7170   47.6717 H   0  0  0  0  0  0  0  0  0  0  0  0
   59.9410   35.3553   45.9273 H   0  0  0  0  0  0  0  0  0  0  0  0
   59.9250   34.2141   43.7089 H   0  0  0  0  0  0  0  0  0  0  0  0
   57.2955   29.7029   47.2467 H   0  0  0  0  0  0  0  0  0  0  0  0
  1  2  2  0
  2  3  1  0
  3  4  1  0
  4  5  1  0
  5  6  1  0
  6  7  2  0
  7  8  1  0
  8  9  2  0
  9 10  1  0
 10 11  2  0
  2 12  1  0
 12 13  2  0
 13 14  1  0
 14 15  2  0
 15 16  1  0
 16 17  1  0
 17 18  2  0
 17 19  2  0
 17 20  1  0
 20 21  1  0
 21 22  2  0
 22 23  1  0
 23 24  2  0
 24 25  1  0
 25 26  2  0
 26 27  1  0
 16 28  2  0
 11  6  1  0
 28 12  1  0
 26 21  1  0
  4 29  1  0
  4 30  1  0
  5 31  1  0
  5 32  1  0
  7 33  1  0
  8 34  1  0
  9 35  1  0
 10 36  1  0
 11 37  1  0
 13 38  1  0
 14 39  1  0
 15 40  1  0
 22 41  1  0
 23 42  1  0
 24 43  1  0
 25 44  1  0
 28 45  1  0
M  CHG  2   3  -1  20  -1
M  END
>  <UniqueID>  (40) 
37

>  <SMILES>  (40) 
O=C([N-]CCc1ccccc1)c1cccc(S(=O)(=O)[N-]c2ccccc2F)c1

>  <Energy>  (40) 
48.17243259601782

>  <Genealogy>  (40) 
O=C([N-]CCc1ccccc1)c1cccc(S(=O)(=O)[N-]c2ccccc2F)c1 (protonated)
O=C([N-]CCc1ccccc1)c1cccc(S(=O)(=O)[N-]c2ccccc2F)c1 (3D coordinates assigned)
O=C([N-]CCc1ccccc1)c1cccc(S(=O)(=O)[N-]c2ccccc2F)c1 (optimized conformer: 48.17243259601782 kcal/mol)

>  <smiles>  (40) 
O=C(NCCc1ccccc1)c1cccc(S(=O)(=O)Nc2ccccc2F)c1

>  <score_type>  (40) 
oracle

>  <origin>  (40) 
adg

>  <m_score__min__energy>  (40) 
-12.720000000000001

>  <m_primary>  (40) 
energy

$$$$
40:0
     RDKit          3D

 75 81  0  0  0  0  0  0  0  0999 V2000
   60.0490   27.1900   48.5400 H   0  0  0  0  0  0  0  0  0  0  0  0
   59.5160   26.9990   47.6970 O   0  0  0  0  0  0  0  0  0  0  0  0
   58.5970   27.9160   47.1870 C   0  0  0  0  0  0  0  0  0  0  0  0
   58.7990   29.2780   46.9800 C   0  0  0  0  0  0  0  0  0  0  0  0
   57.7920   29.6690   46.1150 C   0  0  0  0  0  0  0  0  0  0  0  0
   56.9410   28.5980   45.9690 C   0  0  0  0  0  0  0  0  0  0  0  0
   55.7900   28.5920   45.1910 O   0  0  0  0  0  0  0  0  0  0  0  0
   57.4130   27.5390   46.6600 N   0  0  0  0  0  0  0  0  0  0  0  0
   56.8350   26.2570   46.7450 N   0  0  0  0  0  0  0  0  0  0  0  0
   55.8590   25.8390   45.7470 C   0  0  0  0  0  0  0  0  0  0  0  0
   55.5420   26.7081   45.1518 H   0  0  0  0  0  0  0  0  0  0  0  0
   54.9774   25.4055   46.2419 H   0  0  0  0  0  0  0  0  0  0  0  0
   56.5100   24.7990   44.8340 C   0  0  0  0  0  0  0  0  0  0  0  0
   57.3267   25.2732   44.2700 H   0  0  0  0  0  0  0  0  0  0  0  0
   55.7494   24.4068   44.1429 H   0  0  0  0  0  0  0  0  0  0  0  0
   57.0570   23.6750   45.6330 N   0  0  0  0  0  0  0  0  0  0  0  0
   57.6690   22.6810   44.7430 C   0  0  0  0  0  0  0  0  0  0  0  0
   58.1515   21.8973   45.3454 H   0  0  0  0  0  0  0  0  0  0  0  0
   56.8922   22.2295   44.1083 H   0  0  0  0  0  0  0  0  0  0  0  0
   58.4218   23.1713   44.1083 H   0  0  0  0  0  0  0  0  0  0  0  0
   58.0530   24.1480   46.6140 C   0  0  0  0  0  0  0  0  0  0  0  0
   58.9035   24.5936   46.0772 H   0  0  0  0  0  0  0  0  0  0  0  0
   58.3857   23.2908   47.2177 H   0  0  0  0  0  0  0  0  0  0  0  0
   57.4440   25.1990   47.5500 C   0  0  0  0  0  0  0  0  0  0  0  0
   58.2324   25.6272   48.1865 H   0  0  0  0  0  0  0  0  0  0  0  0
   56.6800   24.7307   48.1879 H   0  0  0  0  0  0  0  0  0  0  0  0
   57.7920   30.9250   45.2830 C   0  0  0  0  0  0  0  0  0  0  0  0
   56.8899   31.5013   45.5359 H   0  0  0  0  0  0  0  0  0  0  0  0
   57.8224   30.5973   44.2334 H   0  0  0  0  0  0  0  0  0  0  0  0
   59.0380   31.8580   45.4860 C   0  0  1  0  0  0  0  0  0  0  0  0
   59.6840   31.6546   44.6193 H   0  0  0  0  0  0  0  0  0  0  0  0
   58.5720   33.2950   45.6370 C   0  0  0  0  0  0  0  0  0  0  0  0
   59.3691   33.9966   45.3499 H   0  0  0  0  0  0  0  0  0  0  0  0
   57.7123   33.5308   44.9926 H   0  0  0  0  0  0  0  0  0  0  0  0
   58.2450   33.4240   47.1230 C   0  0  0  0  0  0  0  0  0  0  0  0
   58.5331   34.4220   47.4848 H   0  0  0  0  0  0  0  0  0  0  0  0
   57.1661   33.2930   47.2930 H   0  0  0  0  0  0  0  0  0  0  0  0
   59.0120   32.3870   47.8430 N   0  0  0  0  0  0  0  0  0  0  0  0
   58.1480   31.6570   48.7890 C   0  0  0  0  0  0  0  0  0  0  0  0
   58.4414   31.9049   49.8198 H   0  0  0  0  0  0  0  0  0  0  0  0
   57.0994   31.9468   48.6265 H   0  0  0  0  0  0  0  0  0  0  0  0
   58.2587   30.5747   48.6265 H   0  0  0  0  0  0  0  0  0  0  0  0
   59.7760   31.6170   46.8160 C   0  0  1  0  0  0  0  0  0  0  0  0
   60.0350   30.1120   47.0800 C   0  0  1  0  0  0  0  0  0  0  0  0
   60.5352   29.4722   46.3380 H   0  0  0  0  0  0  0  0  0  0  0  0
   60.9820   30.1840   48.2340 C   0  0  0  0  0  0  0  0  0  0  0  0
   61.0670   29.4710   49.4410 C   0  0  0  0  0  0  0  0  0  0  0  0
   60.1000   28.5570   49.8220 O   0  0  0  0  0  0  0  0  0  0  0  0
   62.1380   29.7400   50.3020 C   0  0  0  0  0  0  0  0  0  0  0  0
   62.2654   29.1417   51.2162 H   0  0  0  0  0  0  0  0  0  0  0  0
   63.0500   30.7650   50.0100 C   0  0  0  0  0  0  0  0  0  0  0  0
   63.9203   30.9222   50.6640 H   0  0  0  0  0  0  0  0  0  0  0  0
   62.8620   31.5960   48.8860 C   0  0  0  0  0  0  0  0  0  0  0  0
   63.7860   32.7060   48.5540 C   0  0  0  0  0  0  0  0  0  0  0  0
   64.4336   32.5722   47.6749 H   0  0  0  0  0  0  0  0  0  0  0  0
   63.9040   33.8610   49.2300 C   0  0  0  0  0  0  0  0  0  0  0  0
   64.4336   34.6867   48.7322 H   0  0  0  0  0  0  0  0  0  0  0  0
   63.3820   34.1100   50.5820 C   0  0  0  0  0  0  0  0  0  0  0  0
   64.0900   34.7710   51.3890 O   0  0  0  0  0  0  0  0  0  0  0  0
   61.9850   33.7630   50.9330 C   0  0  0  0  0  0  0  0  0  0  0  0
   60.9220   34.1140   50.0800 C   0  0  0  0  0  0  0  0  0  0  0  0
   61.1299   34.6022   49.1164 H   0  0  0  0  0  0  0  0  0  0  0  0
   59.6040   33.8440   50.4540 C   0  0  0  0  0  0  0  0  0  0  0  0
   58.7771   34.1181   49.7824 H   0  0  0  0  0  0  0  0  0  0  0  0
   59.3310   33.2270   51.6780 C   0  0  0  0  0  0  0  0  0  0  0  0
   58.2910   33.0208   51.9712 H   0  0  0  0  0  0  0  0  0  0  0  0
   60.3830   32.8720   52.5300 C   0  0  0  0  0  0  0  0  0  0  0  0
   60.1675   32.4041   53.5019 H   0  0  0  0  0  0  0  0  0  0  0  0
   61.7050   33.1100   52.1500 C   0  0  0  0  0  0  0  0  0  0  0  0
   62.5300   32.7871   52.8020 H   0  0  0  0  0  0  0  0  0  0  0  0
   61.7970   31.2900   48.0170 C   0  0  0  0  0  0  0  0  0  0  0  0
   61.2520   32.1240   46.8800 C   0  0  2  0  0  0  0  0  0  0  0  0
   61.7962   32.0245   45.9293 H   0  0  0  0  0  0  0  0  0  0  0  0
   61.3230   33.4880   47.1900 O   0  0  0  0  0  0  0  0  0  0  0  0
   60.5330   33.7090   47.7450 H   0  0  0  0  0  0  0  0  0  0  0  0
  1  2  1  0
  2  3  1  0
  3  4  2  0
  4  5  1  0
  5  6  2  0
  6  7  1  0
  6  8  1  0
  8  9  1  0
  9 10  1  0
 10 11  1  0
 10 12  1  0
 10 13  1  0
 13 14  1  0
 13 15  1  0
 13 16  1  0
 16 17  1  0
 17 18  1  0
 17 19  1  0
 17 20  1  0
 16 21  1  0
 21 22  1  0
 21 23  1  0
 21 24  1  0
 24 25  1  0
 24 26  1  0
  5 27  1  0
 27 28  1  0
 27 29  1  0
 27 30  1  0
 30 31  1  6
 30 32  1  0
 32 33  1  0
 32 34  1  0
 32 35  1  0
 35 36  1  0
 35 37  1  0
 35 38  1  0
 38 39  1  0
 39 40  1  0
 39 41  1  0
 39 42  1  0
 43 38  1  1
 43 44  1  0
 44 45  1  6
 44 46  1  0
 46 47  2  0
 47 48  1  0
 47 49  1  0
 49 50  1  0
 49 51  2  0
 51 52  1  0
 51 53  1  0
 53 54  1  0
 54 55  1  0
 54 56  2  0
 56 57  1  0
 56 58  1  0
 58 59  2  0
 58 60  1  0
 60 61  2  0
 61 62  1  0
 61 63  1  0
 63 64  1  0
 63 65  2  0
 65 66  1  0
 65 67  1  0
 67 68  1  0
 67 69  2  0
 69 70  1  0
 53 71  2  0
 71 72  1  0
 72 73  1  6
 72 74  1  0
 74 75  1  0
  8  3  1  0
 24  9  1  0
 43 30  1  0
 71 46  1  0
 44  4  1  0
 69 60  1  0
 72 43  1  0
M  CHG  2   7  -1  48  -1
M  END
>  <UniqueID>  (41) 
38

>  <SMILES>  (41) 
CN1CCN(n2c([O-])c3c(c2O)[C@@H]2c4c([O-])ccc(/C=C\C(=O)c5ccccc5)c4[C@H](O)C24C(CCN4C)C3)CC1

>  <Energy>  (41) 
198.5269912010599

>  <Genealogy>  (41) 
CN1CCN(n2c([O-])c3c(c2O)C2c4c([O-])ccc(C=CC(=O)c5ccccc5)c4C(O)C24C(CCN4C)C3)CC1 (protonated)
CN1CCN(n2c([O-])c3c(c2O)[C@@H]2c4c([O-])ccc(C=CC(=O)c5ccccc5)c4[C@H](O)C24C(CCN4C)C3)CC1 (chirality)
CN1CCN(n2c([O-])c3c(c2O)[C@@H]2c4c([O-])ccc(/C=C\C(=O)c5ccccc5)c4[C@H](O)C24C(CCN4C)C3)CC1 (cis-trans isomerization)
CN1CCN(n2c([O-])c3c(c2O)[C@@H]2c4c([O-])ccc(/C=C\C(=O)c5ccccc5)c4[C@H](O)C24C(CCN4C)C3)CC1 (3D coordinates assigned)
CN1CCN(n2c([O-])c3c(c2O)[C@@H]2c4c([O-])ccc(/C=C\C(=O)c5ccccc5)c4[C@H](O)C24C(CCN4C)C3)CC1 (nonaromatic ring conformer: 198.5269912010599 kcal/mol)

>  <smiles>  (41) 
CN1CCN(n2c(O)c3c(c2O)C2c4c(O)ccc(C=CC(=O)c5ccccc5)c4C(O)C24C(CCN4C)C3)CC1

>  <score_type>  (41) 
oracle

>  <origin>  (41) 
adg

>  <m_score__min__energy>  (41) 
-11.17

>  <m_primary>  (41) 
energy

$$$$
41:0
     RDKit          3D

 54 57  0  0  1  0  0  0  0  0999 V2000
   56.7900   26.8050   45.9510 C   0  0  0  0  0  0  0  0  0  0  0  0
   58.1720   27.3210   45.7810 C   0  0  0  0  0  0  0  0  0  0  0  0
   59.0370   27.2410   46.8630 C   0  0  0  0  0  0  0  0  0  0  0  0
   60.3230   27.6950   46.7870 C   0  0  0  0  0  0  0  0  0  0  0  0
   60.7610   28.2380   45.6130 C   0  0  0  0  0  0  0  0  0  0  0  0
   59.8950   28.3160   44.5330 C   0  0  0  0  0  0  0  0  0  0  0  0
   58.5950   27.8710   44.5740 C   0  0  0  0  0  0  0  0  0  0  0  0
   57.7030   27.9270   43.5310 O   0  0  0  0  0  0  0  0  0  0  0  0
   56.9970   29.0680   43.1620 C   0  0  0  0  0  0  0  0  0  0  0  0
   56.9520   30.1380   44.1780 C   0  0  0  0  0  0  0  0  0  0  0  0
   55.9480   30.4510   44.8530 O   0  0  0  0  0  0  0  0  0  0  0  0
   58.1450   30.8750   44.4110 N   0  0  0  0  0  0  0  0  0  0  0  0
   58.1990   31.9270   45.3720 C   0  0  0  0  0  0  0  0  0  0  0  0
   57.5600   33.1060   45.0210 C   0  0  0  0  0  0  0  0  0  0  0  0
   57.5770   34.1700   45.9150 C   0  0  0  0  0  0  0  0  0  0  0  0
   58.2300   34.0140   47.1180 C   0  0  0  0  0  0  0  0  0  0  0  0
   58.8740   32.8590   47.4970 C   0  0  0  0  0  0  0  0  0  0  0  0
   56.7260   30.1090   51.6400 N   0  0  0  0  0  0  0  0  0  0  0  0
   55.5470   30.2320   52.1300 C   0  0  0  0  0  0  0  0  0  0  0  0
   58.1580   31.4070   50.1120 C   0  0  0  0  0  0  0  0  0  0  0  0
   57.5180   31.2500   51.3280 C   0  0  0  0  0  0  0  0  0  0  0  0
   59.5360   32.7410   48.7510 N   0  0  0  0  0  0  0  0  0  0  0  0
   58.9150   32.5380   49.8650 C   0  0  0  0  0  0  0  0  0  0  0  0
   55.2030   29.6840   53.3520 C   0  0  0  0  0  0  0  0  0  0  0  0
   53.9710   29.8020   53.8810 N   0  0  0  0  0  0  0  0  0  0  0  0
   53.0150   30.4800   53.2060 C   0  0  0  0  0  0  0  0  0  0  0  0
   58.3820   33.3270   52.0330 C   0  0  0  0  0  0  0  0  0  0  0  0
   52.3430   31.7610   51.2440 C   0  0  0  0  0  0  0  0  0  0  0  0
   51.5310   32.3380   50.6560 N   0  0  0  0  0  0  0  0  0  0  0  0
   59.0010   33.4700   50.8470 N   0  0  0  0  0  0  0  0  0  0  0  0
   57.6480   32.2230   52.2620 N   0  0  0  0  0  0  0  0  0  0  0  0
   53.3370   31.0350   51.9840 C   0  0  0  0  0  0  0  0  0  0  0  0
   54.5680   30.9090   51.4690 N   0  0  0  0  0  0  0  0  0  0  0  0
   58.8470   31.8000   46.5870 C   0  0  0  0  0  0  0  0  0  0  0  0
   56.5600   26.7191   47.0232 H   0  0  0  0  0  0  0  0  0  0  0  0
   56.0790   27.4982   45.4778 H   0  0  0  0  0  0  0  0  0  0  0  0
   56.7073   25.8154   45.4778 H   0  0  0  0  0  0  0  0  0  0  0  0
   58.6782   26.8011   47.8052 H   0  0  0  0  0  0  0  0  0  0  0  0
   60.9939   27.6245   47.6559 H   0  0  0  0  0  0  0  0  0  0  0  0
   61.7923   28.6104   45.5249 H   0  0  0  0  0  0  0  0  0  0  0  0
   60.2670   28.7562   43.5961 H   0  0  0  0  0  0  0  0  0  0  0  0
   57.4656   29.4793   42.2558 H   0  0  0  0  0  0  0  0  0  0  0  0
   55.9557   28.7464   43.0126 H   0  0  0  0  0  0  0  0  0  0  0  0
   59.0230   30.6590   43.8740 H   0  0  0  0  0  0  0  0  0  0  0  0
   57.0483   33.1979   44.0516 H   0  0  0  0  0  0  0  0  0  0  0  0
   57.0785   35.1186   45.6668 H   0  0  0  0  0  0  0  0  0  0  0  0
   58.2368   34.8634   47.8169 H   0  0  0  0  0  0  0  0  0  0  0  0
   58.0647   30.6300   49.3389 H   0  0  0  0  0  0  0  0  0  0  0  0
   55.9677   29.1288   53.9150 H   0  0  0  0  0  0  0  0  0  0  0  0
   52.0023   30.5868   53.6221 H   0  0  0  0  0  0  0  0  0  0  0  0
   59.5590   34.3430   50.7140 H   0  0  0  0  0  0  0  0  0  0  0  0
   58.4750   34.1037   52.8064 H   0  0  0  0  0  0  0  0  0  0  0  0
   54.7750   31.3420   50.5430 H   0  0  0  0  0  0  0  0  0  0  0  0
   59.3472   30.8535   46.8398 H   0  0  0  0  0  0  0  0  0  0  0  0
  1  2  1  0
  2  3  2  0
  3  4  1  0
  4  5  2  0
  5  6  1  0
  6  7  2  0
  7  8  1  0
  8  9  1  0
  9 10  1  0
 10 11  2  0
 10 12  1  0
 12 13  1  0
 13 14  2  0
 14 15  1  0
 15 16  2  0
 16 17  1  0
 17 18  1  0
 18 19  2  0
 19 20  1  0
 20 21  2  0
 21 22  1  0
 22 23  2  0
 23 24  1  0
 24 25  2  0
 25 26  1  0
 26 27  2  0
 27 28  1  0
 28 29  3  0
 27 30  1  0
 21 31  1  0
 31 32  2  0
 32 33  1  0
 17 34  2  0
  7  2  1  0
 34 13  1  0
 33 19  1  0
 30 23  1  0
  1 35  1  0
  1 36  1  0
  1 37  1  0
  3 38  1  0
  4 39  1  0
  5 40  1  0
  6 41  1  0
  9 42  1  0
  9 43  1  0
 12 44  1  0
 14 45  1  0
 15 46  1  0
 16 47  1  0
 20 48  1  0
 24 49  1  0
 26 50  1  0
 30 51  1  0
 32 52  1  0
 33 53  1  0
 34 54  1  0
M  END
>  <smiles>  (42) 
Cc1ccccc1OCC(=O)Nc1cccc(N=c2cc(N=c3cncc(C#N)[nH]3)nc[nH]2)c1

>  <score_type>  (42) 
oracle

>  <origin>  (42) 
adg

>  <m_score__min__energy>  (42) 
-9.5600000000000005

>  <m_primary>  (42) 
energy

$$$$
42:0
     RDKit          3D

 29 30  0  0  1  0  0  0  0  0999 V2000
   57.7100   33.4500   45.5890 C   0  0  0  0  0  0  0  0  0  0  0  0
   58.1460   32.1740   46.1700 N   0  0  0  0  0  0  0  0  0  0  0  0
   57.7760   31.0700   45.6130 C   0  0  0  0  0  0  0  0  0  0  0  0
   57.2350   31.0030   44.3450 C   0  0  0  0  0  0  0  0  0  0  0  0
   56.8630   29.7750   43.8230 C   0  0  0  0  0  0  0  0  0  0  0  0
   56.2730   29.6980   42.4420 C   0  0  0  0  0  0  0  0  0  0  0  0
   57.0360   28.6590   44.5610 N   0  0  0  0  0  0  0  0  0  0  0  0
   57.5670   28.7320   45.8000 C   0  0  0  0  0  0  0  0  0  0  0  0
   57.7700   27.5150   46.6410 C   0  0  0  0  0  0  0  0  0  0  0  0
   56.9650   26.3790   46.1040 C   0  0  0  0  0  0  0  0  0  0  0  0
   55.8860   25.9020   46.7460 N   0  0  0  0  0  0  0  0  0  0  0  0
   55.3890   24.9070   46.0340 N   0  0  0  0  0  0  0  0  0  0  0  0
   56.1880   24.7960   44.9580 C   0  0  0  0  0  0  0  0  0  0  0  0
   55.9400   23.7580   43.9000 C   0  0  0  0  0  0  0  0  0  0  0  0
   57.1490   25.6930   45.0000 O   0  0  0  0  0  0  0  0  0  0  0  0
   57.9360   29.9380   46.3260 N   0  0  0  0  0  0  0  0  0  0  0  0
   57.4684   34.1570   46.3964 H   0  0  0  0  0  0  0  0  0  0  0  0
   58.5174   33.8649   44.9677 H   0  0  0  0  0  0  0  0  0  0  0  0
   56.8176   33.2841   44.9677 H   0  0  0  0  0  0  0  0  0  0  0  0
   57.1000   31.9197   43.7522 H   0  0  0  0  0  0  0  0  0  0  0  0
   55.1847   29.5560   42.5156 H   0  0  0  0  0  0  0  0  0  0  0  0
   56.4851   30.6314   41.9001 H   0  0  0  0  0  0  0  0  0  0  0  0
   56.7176   28.8503   41.9001 H   0  0  0  0  0  0  0  0  0  0  0  0
   56.7570   27.7100   44.1740 H   0  0  0  0  0  0  0  0  0  0  0  0
   58.8354   27.2413   46.6333 H   0  0  0  0  0  0  0  0  0  0  0  0
   57.4458   27.7307   47.6698 H   0  0  0  0  0  0  0  0  0  0  0  0
   55.7098   22.7946   44.3784 H   0  0  0  0  0  0  0  0  0  0  0  0
   55.0908   24.0685   43.2736 H   0  0  0  0  0  0  0  0  0  0  0  0
   56.8379   23.6511   43.2736 H   0  0  0  0  0  0  0  0  0  0  0  0
  1  2  1  0
  2  3  2  0
  3  4  1  0
  4  5  2  0
  5  6  1  0
  5  7  1  0
  7  8  1  0
  8  9  1  0
  9 10  1  0
 10 11  2  0
 11 12  1  0
 12 13  2  0
 13 14  1  0
 13 15  1  0
  8 16  2  0
 16  3  1  0
 15 10  1  0
  1 17  1  0
  1 18  1  0
  1 19  1  0
  4 20  1  0
  6 21  1  0
  6 22  1  0
  6 23  1  0
  7 24  1  0
  9 25  1  0
  9 26  1  0
 14 27  1  0
 14 28  1  0
 14 29  1  0
M  END
>  <smiles>  (43) 
CN=c1cc(C)[nH]c(Cc2nnc(C)o2)n1

>  <score_type>  (43) 
oracle

>  <origin>  (43) 
adg

>  <m_score__min__energy>  (43) 
-5.6699999999999999

>  <m_primary>  (43) 
energy

$$$$
43:0
     RDKit          3D

 23 24  0  0  0  0  0  0  0  0999 V2000
   55.9440   31.4920   44.8020 O   0  0  0  0  0  0  0  0  0  0  0  0
   57.1960   31.3460   44.8630 C   0  0  0  0  0  0  0  0  0  0  0  0
   58.0250   32.4850   45.3220 C   0  0  0  0  0  0  0  0  0  0  0  0
   58.4760   33.4690   44.4210 C   0  0  0  0  0  0  0  0  0  0  0  0
   59.2450   34.5450   44.8750 C   0  0  0  0  0  0  0  0  0  0  0  0
   59.5630   34.6570   46.2310 C   0  0  0  0  0  0  0  0  0  0  0  0
   59.1070   33.6960   47.1360 C   0  0  0  0  0  0  0  0  0  0  0  0
   58.3380   32.6180   46.6880 C   0  0  0  0  0  0  0  0  0  0  0  0
   57.7880   30.0370   44.5000 C   0  0  0  0  0  0  0  0  0  0  0  0
   57.0400   29.0720   43.8050 C   0  0  0  0  0  0  0  0  0  0  0  0
   57.6040   27.8700   43.5050 N   0  0  0  0  0  0  0  0  0  0  0  0
   58.8800   27.5820   43.8750 C   0  0  0  0  0  0  0  0  0  0  0  0
   59.6230   28.5330   44.5740 C   0  0  0  0  0  0  0  0  0  0  0  0
   59.0610   29.7330   44.8730 N   0  0  0  0  0  0  0  0  0  0  0  0
   58.2218   33.3906   43.3537 H   0  0  0  0  0  0  0  0  0  0  0  0
   59.6003   35.3047   44.1633 H   0  0  0  0  0  0  0  0  0  0  0  0
   60.1721   35.5016   46.5855 H   0  0  0  0  0  0  0  0  0  0  0  0
   59.3536   33.7876   48.2041 H   0  0  0  0  0  0  0  0  0  0  0  0
   57.9752   31.8690   47.4073 H   0  0  0  0  0  0  0  0  0  0  0  0
   56.0038   29.2867   43.5048 H   0  0  0  0  0  0  0  0  0  0  0  0
   57.0470   27.1570   42.9850 H   0  0  0  0  0  0  0  0  0  0  0  0
   59.3230   26.6066   43.6251 H   0  0  0  0  0  0  0  0  0  0  0  0
   60.6562   28.3130   44.8808 H   0  0  0  0  0  0  0  0  0  0  0  0
  1  2  2  0
  2  3  1  0
  3  4  2  0
  4  5  1  0
  5  6  2  0
  6  7  1  0
  7  8  2  0
  2  9  1  0
  9 10  2  0
 10 11  1  0
 11 12  2  0
 12 13  1  0
 13 14  2  0
  8  3  1  0
 14  9  1  0
  4 15  1  0
  5 16  1  0
  6 17  1  0
  7 18  1  0
  8 19  1  0
 10 20  1  0
 11 21  1  0
 12 22  1  0
 13 23  1  0
M  CHG  1  11   1
M  END
>  <UniqueID>  (44) 
39

>  <SMILES>  (44) 
O=C(c1ccccc1)c1c[nH+]ccn1

>  <Energy>  (44) 
29.759941377380777

>  <Genealogy>  (44) 
O=C(c1ccccc1)c1c[nH+]ccn1 (protonated)
O=C(c1ccccc1)c1c[nH+]ccn1 (3D coordinates assigned)
O=C(c1ccccc1)c1c[nH+]ccn1 (optimized conformer: 29.759941377380777 kcal/mol)

>  <smiles>  (44) 
O=C(c1ccccc1)c1cnccn1

>  <score_type>  (44) 
oracle

>  <origin>  (44) 
adg

>  <m_score__min__energy>  (44) 
-4.5899999999999999

>  <m_primary>  (44) 
energy

$$$$
44:0
     RDKit          3D

 37 38  0  0  1  0  0  0  0  0999 V2000
   57.8890   27.7450   44.4680 C   0  0  0  0  0  0  0  0  0  0  0  0
   56.6500   28.0670   45.2780 C   0  0  0  0  0  0  0  0  0  0  0  0
   56.0560   29.3270   44.8530 N   0  0  0  0  0  0  0  0  0  0  0  0
   56.7790   30.3370   44.4910 C   0  0  0  0  0  0  0  0  0  0  0  0
   56.6900   30.8360   43.2070 C   0  0  0  0  0  0  0  0  0  0  0  0
   57.4980   31.9160   42.9080 C   0  0  0  0  0  0  0  0  0  0  0  0
   58.3190   32.4330   43.8400 N   0  0  0  0  0  0  0  0  0  0  0  0
   58.3910   31.9230   45.1050 C   0  0  0  0  0  0  0  0  0  0  0  0
   59.2810   32.5070   46.0650 N   0  0  0  0  0  0  0  0  0  0  0  0
   59.7110   33.8640   45.8150 C   0  0  0  0  0  0  0  0  0  0  0  0
   60.8420   34.3090   46.7140 C   0  0  0  0  0  0  0  0  0  0  0  0
   61.6820   33.0780   46.9920 C   0  0  0  0  0  0  0  0  0  0  0  0
   62.9830   33.4280   47.6110 C   0  0  0  0  0  0  0  0  0  0  0  0
   64.1170   32.6720   47.2090 N   0  0  0  0  0  0  0  0  0  0  0  0
   63.0220   34.3570   48.4450 O   0  0  0  0  0  0  0  0  0  0  0  0
   60.8230   32.2720   47.9740 C   0  0  0  0  0  0  0  0  0  0  0  0
   59.6850   31.7210   47.2000 C   0  0  0  0  0  0  0  0  0  0  0  0
   57.6070   30.8700   45.4060 N   0  0  0  0  0  0  0  0  0  0  0  0
   58.7256   27.5276   45.1483 H   0  0  0  0  0  0  0  0  0  0  0  0
   57.6946   26.8675   43.8337 H   0  0  0  0  0  0  0  0  0  0  0  0
   58.1465   28.6061   43.8337 H   0  0  0  0  0  0  0  0  0  0  0  0
   55.9142   27.2603   45.1444 H   0  0  0  0  0  0  0  0  0  0  0  0
   56.9388   28.1571   46.3356 H   0  0  0  0  0  0  0  0  0  0  0  0
   56.0113   30.3968   42.4610 H   0  0  0  0  0  0  0  0  0  0  0  0
   57.4699   32.3565   41.9004 H   0  0  0  0  0  0  0  0  0  0  0  0
   58.8980   33.2490   43.5380 H   0  0  0  0  0  0  0  0  0  0  0  0
   60.0466   33.9368   44.7700 H   0  0  0  0  0  0  0  0  0  0  0  0
   58.8531   34.5206   46.0221 H   0  0  0  0  0  0  0  0  0  0  0  0
   61.4480   35.0766   46.2104 H   0  0  0  0  0  0  0  0  0  0  0  0
   60.4588   34.7477   47.6471 H   0  0  0  0  0  0  0  0  0  0  0  0
   61.9310   32.5284   46.0722 H   0  0  0  0  0  0  0  0  0  0  0  0
   64.6050   32.7910   46.2970 H   0  0  0  0  0  0  0  0  0  0  0  0
   64.4570   31.9520   47.9060 H   0  0  0  0  0  0  0  0  0  0  0  0
   61.4147   31.4539   48.4107 H   0  0  0  0  0  0  0  0  0  0  0  0
   60.4671   32.9073   48.7985 H   0  0  0  0  0  0  0  0  0  0  0  0
   59.9707   30.7222   46.8384 H   0  0  0  0  0  0  0  0  0  0  0  0
   58.8252   31.7094   47.8860 H   0  0  0  0  0  0  0  0  0  0  0  0
  1  2  1  0
  2  3  1  0
  3  4  2  0
  4  5  1  0
  5  6  2  0
  6  7  1  0
  7  8  1  0
  8  9  1  0
  9 10  1  0
 10 11  1  0
 11 12  1  0
 12 13  1  0
 13 14  1  0
 13 15  2  0
 12 16  1  0
 16 17  1  0
  8 18  2  0
 18  4  1  0
 17  9  1  0
  1 19  1  0
  1 20  1  0
  1 21  1  0
  2 22  1  0
  2 23  1  0
  5 24  1  0
  6 25  1  0
  7 26  1  0
 10 27  1  0
 10 28  1  0
 11 29  1  0
 11 30  1  0
 12 31  1  0
 14 32  1  0
 14 33  1  0
 16 34  1  0
 16 35  1  0
 17 36  1  0
 17 37  1  0
M  END
>  <smiles>  (45) 
CCN=c1cc[nH]c(N2CCC(C(N)=O)CC2)n1

>  <score_type>  (45) 
oracle

>  <origin>  (45) 
adg

>  <m_score__min__energy>  (45) 
-6.3700000000000001

>  <m_primary>  (45) 
energy

$$$$
45:0
     RDKit          3D

 40 42  0  0  0  0  0  0  0  0999 V2000
   56.9980   20.0330   43.5900 H   0  0  0  0  0  0  0  0  0  0  0  0
   56.3080   20.7490   43.4000 O   0  0  0  0  0  0  0  0  0  0  0  0
   56.3370   21.9790   44.0530 C   0  0  0  0  0  0  0  0  0  0  0  0
   55.1400   22.5730   44.5170 C   0  0  0  0  0  0  0  0  0  0  0  0
   54.1796   22.0601   44.3606 H   0  0  0  0  0  0  0  0  0  0  0  0
   55.1690   23.8150   45.1770 C   0  0  0  0  0  0  0  0  0  0  0  0
   54.2441   24.2846   45.5432 H   0  0  0  0  0  0  0  0  0  0  0  0
   56.4050   24.4310   45.3520 C   0  0  0  0  0  0  0  0  0  0  0  0
   57.5740   23.8570   44.9050 C   0  0  0  0  0  0  0  0  0  0  0  0
   57.5700   22.6280   44.2500 C   0  0  0  0  0  0  0  0  0  0  0  0
   58.5078   22.1756   43.8953 H   0  0  0  0  0  0  0  0  0  0  0  0
   58.6840   24.6450   45.1990 O   0  0  0  0  0  0  0  0  0  0  0  0
   58.2230   25.7880   45.8570 C   0  0  0  0  0  0  0  0  0  0  0  0
   59.0400   26.7580   46.2870 C   0  0  0  0  0  0  0  0  0  0  0  0
   59.9922   26.4586   46.7493 H   0  0  0  0  0  0  0  0  0  0  0  0
   58.7500   28.2010   46.1830 C   0  0  0  0  0  0  0  0  0  0  0  0
   59.4730   29.1380   46.9320 C   0  0  0  0  0  0  0  0  0  0  0  0
   60.2887   28.7970   47.5864 H   0  0  0  0  0  0  0  0  0  0  0  0
   59.1690   30.5110   46.8580 C   0  0  0  0  0  0  0  0  0  0  0  0
   59.9110   31.4500   47.5920 O   0  0  0  0  0  0  0  0  0  0  0  0
   61.1180   32.0660   47.1510 C   0  0  0  0  0  0  0  0  0  0  0  0
   61.7144   32.3704   48.0237 H   0  0  0  0  0  0  0  0  0  0  0  0
   61.6939   31.3516   46.5444 H   0  0  0  0  0  0  0  0  0  0  0  0
   60.8774   32.9515   46.5444 H   0  0  0  0  0  0  0  0  0  0  0  0
   58.0980   30.9410   46.0340 C   0  0  0  0  0  0  0  0  0  0  0  0
   57.7170   32.2890   45.8860 O   0  0  0  0  0  0  0  0  0  0  0  0
   57.9410   33.1150   44.7500 C   0  0  0  0  0  0  0  0  0  0  0  0
   58.2156   34.1274   45.0812 H   0  0  0  0  0  0  0  0  0  0  0  0
   58.7572   32.6931   44.1451 H   0  0  0  0  0  0  0  0  0  0  0  0
   57.0235   33.1633   44.1451 H   0  0  0  0  0  0  0  0  0  0  0  0
   57.3520   29.9930   45.3120 C   0  0  0  0  0  0  0  0  0  0  0  0
   56.2890   30.4520   44.5170 O   0  0  0  0  0  0  0  0  0  0  0  0
   55.9470   29.9240   43.2390 C   0  0  0  0  0  0  0  0  0  0  0  0
   55.3531   29.0071   43.3680 H   0  0  0  0  0  0  0  0  0  0  0  0
   55.3581   30.6668   42.6810 H   0  0  0  0  0  0  0  0  0  0  0  0
   56.8657   29.6903   42.6810 H   0  0  0  0  0  0  0  0  0  0  0  0
   57.6760   28.6280   45.4000 C   0  0  0  0  0  0  0  0  0  0  0  0
   57.0776   27.8893   44.8466 H   0  0  0  0  0  0  0  0  0  0  0  0
   56.7610   25.6840   45.9890 C   0  0  0  0  0  0  0  0  0  0  0  0
   55.9810   26.4580   46.6030 O   0  0  0  0  0  0  0  0  0  0  0  0
  1  2  1  0
  2  3  1  0
  3  4  2  0
  4  5  1  0
  4  6  1  0
  6  7  1  0
  6  8  2  0
  8  9  1  0
  9 10  2  0
 10 11  1  0
  9 12  1  0
 12 13  1  0
 13 14  2  0
 14 15  1  0
 14 16  1  0
 16 17  2  0
 17 18  1  0
 17 19  1  0
 19 20  1  0
 20 21  1  0
 21 22  1  0
 21 23  1  0
 21 24  1  0
 19 25  2  0
 25 26  1  0
 26 27  1  0
 27 28  1  0
 27 29  1  0
 27 30  1  0
 25 31  1  0
 31 32  1  0
 32 33  1  0
 33 34  1  0
 33 35  1  0
 33 36  1  0
 31 37  2  0
 37 38  1  0
 13 39  1  0
 39 40  2  0
 10  3  1  0
 37 16  1  0
 39  8  1  0
M  END
>  <UniqueID>  (46) 
40

>  <SMILES>  (46) 
COc1cc(/C=C2/Oc3cc(O)ccc3C2=O)cc(OC)c1OC

>  <Energy>  (46) 
81.42113797750095

>  <Genealogy>  (46) 
COc1cc(/C=C2/Oc3cc(O)ccc3C2=O)cc(OC)c1OC (cis-trans isomerization)
COc1cc(/C=C2/Oc3cc(O)ccc3C2=O)cc(OC)c1OC (3D coordinates assigned)
COc1cc(/C=C2/Oc3cc(O)ccc3C2=O)cc(OC)c1OC (nonaromatic ring conformer: 81.42113797750095 kcal/mol)

>  <smiles>  (46) 
COc1cc(C=C2Oc3cc(O)ccc3C2=O)cc(OC)c1OC

>  <score_type>  (46) 
oracle

>  <origin>  (46) 
adg

>  <m_score__min__energy>  (46) 
-6.5599999999999996

>  <m_primary>  (46) 
energy

$$$$
46:0
     RDKit          3D

 41 43  0  0  1  0  0  0  0  0999 V2000
   59.6610   35.3440   46.2350 C   0  0  0  0  0  0  0  0  0  0  0  0
   59.0000   34.0730   45.8360 C   0  0  0  0  0  0  0  0  0  0  0  0
   58.6050   33.9810   44.5030 C   0  0  0  0  0  0  0  0  0  0  0  0
   57.9890   32.8100   44.1070 C   0  0  0  0  0  0  0  0  0  0  0  0
   57.7750   31.7800   44.9860 C   0  0  0  0  0  0  0  0  0  0  0  0
   57.1020   30.5550   44.4650 C   0  0  1  0  0  0  0  0  0  0  0  0
   57.0750   30.6080   42.9720 C   0  0  0  0  0  0  0  0  0  0  0  0
   57.8770   29.4030   44.9220 N   0  0  0  0  0  0  0  0  0  0  0  0
   57.1990   28.2040   45.3160 C   0  0  0  0  0  0  0  0  0  0  0  0
   55.9590   28.1770   45.2580 O   0  0  0  0  0  0  0  0  0  0  0  0
   58.0120   27.1190   45.7500 N   0  0  0  0  0  0  0  0  0  0  0  0
   57.7770   25.8980   45.3960 C   0  0  0  0  0  0  0  0  0  0  0  0
   58.7340   24.9310   45.7140 C   0  0  0  0  0  0  0  0  0  0  0  0
   58.5240   23.6080   45.3520 C   0  0  0  0  0  0  0  0  0  0  0  0
   59.2290   22.4670   45.5030 N   0  0  0  0  0  0  0  0  0  0  0  0
   58.5390   21.4610   44.9520 N   0  0  0  0  0  0  0  0  0  0  0  0
   57.3890   21.9370   44.4420 C   0  0  0  0  0  0  0  0  0  0  0  0
   56.4570   21.2590   43.8250 N   0  0  0  0  0  0  0  0  0  0  0  0
   57.3560   23.3140   44.6850 C   0  0  0  0  0  0  0  0  0  0  0  0
   56.4240   24.2930   44.3850 C   0  0  0  0  0  0  0  0  0  0  0  0
   56.6470   25.5830   44.7460 N   0  0  0  0  0  0  0  0  0  0  0  0
   58.1570   31.8490   46.3050 C   0  0  0  0  0  0  0  0  0  0  0  0
   58.7780   33.0290   46.7040 C   0  0  0  0  0  0  0  0  0  0  0  0
   59.1960   33.2020   47.9850 F   0  0  0  0  0  0  0  0  0  0  0  0
   59.6956   35.4105   47.3324 H   0  0  0  0  0  0  0  0  0  0  0  0
   60.6850   35.3664   45.8338 H   0  0  0  0  0  0  0  0  0  0  0  0
   59.0913   36.1952   45.8338 H   0  0  0  0  0  0  0  0  0  0  0  0
   58.7765   34.8061   43.7960 H   0  0  0  0  0  0  0  0  0  0  0  0
   57.6626   32.7013   43.0622 H   0  0  0  0  0  0  0  0  0  0  0  0
   56.0661   30.4812   44.8277 H   0  0  0  0  0  0  0  0  0  0  0  0
   56.5980   31.5444   42.6469 H   0  0  0  0  0  0  0  0  0  0  0  0
   58.1039   30.5670   42.5850 H   0  0  0  0  0  0  0  0  0  0  0  0
   56.5033   29.7516   42.5850 H   0  0  0  0  0  0  0  0  0  0  0  0
   58.9230   29.4500   44.9610 H   0  0  0  0  0  0  0  0  0  0  0  0
   59.6510   25.2175   46.2496 H   0  0  0  0  0  0  0  0  0  0  0  0
   60.1660   22.3990   45.9810 H   0  0  0  0  0  0  0  0  0  0  0  0
   58.8780   20.4690   44.9410 H   0  0  0  0  0  0  0  0  0  0  0  0
   56.6890   20.2850   43.5840 H   0  0  0  0  0  0  0  0  0  0  0  0
   55.4997   24.0249   43.8524 H   0  0  0  0  0  0  0  0  0  0  0  0
   55.9480   26.3150   44.5190 H   0  0  0  0  0  0  0  0  0  0  0  0
   57.9818   31.0188   47.0051 H   0  0  0  0  0  0  0  0  0  0  0  0
  1  2  1  0
  2  3  2  0
  3  4  1  0
  4  5  2  0
  5  6  1  0
  6  7  1  0
  6  8  1  0
  8  9  1  0
  9 10  2  0
  9 11  1  0
 11 12  2  0
 12 13  1  0
 13 14  2  0
 14 15  1  0
 15 16  1  0
 16 17  1  0
 17 18  2  3
 17 19  1  0
 19 20  2  0
 20 21  1  0
  5 22  1  0
 22 23  2  0
 23 24  1  0
 23  2  1  0
 21 12  1  0
 19 14  1  0
  1 25  1  0
  1 26  1  0
  1 27  1  0
  3 28  1  0
  4 29  1  0
  6 30  1  1
  7 31  1  0
  7 32  1  0
  7 33  1  0
  8 34  1  0
 13 35  1  0
 15 36  1  0
 16 37  1  0
 18 38  1  0
 20 39  1  0
 21 40  1  0
 22 41  1  0
M  END
>  <smiles>  (47) 
Cc1ccc(C(C)NC(=O)N=c2cc3[nH][nH]c(=N)c3c[nH]2)cc1F

>  <score_type>  (47) 
oracle

>  <origin>  (47) 
adg

>  <m_score__min__energy>  (47) 
-8.5800000000000001

>  <m_primary>  (47) 
energy

$$$$
47:0
     RDKit          3D

 30 32  0  0  0  0  0  0  0  0999 V2000
   61.6616   27.6709   46.9419 H   0  0  0  0  0  0  0  0  0  0  0  0
   60.5950   27.6630   46.6730 C   0  0  0  0  0  0  0  0  0  0  0  0
   60.2060   27.8830   45.3490 C   0  0  0  0  0  0  0  0  0  0  0  0
   60.9681   28.0582   44.5753 H   0  0  0  0  0  0  0  0  0  0  0  0
   58.8510   27.8810   45.0050 C   0  0  0  0  0  0  0  0  0  0  0  0
   58.5511   28.0444   43.9594 H   0  0  0  0  0  0  0  0  0  0  0  0
   57.8700   27.6710   45.9900 C   0  0  0  0  0  0  0  0  0  0  0  0
   56.4350   27.6760   45.6220 C   0  0  0  0  0  0  0  0  0  0  0  0
   55.7030   26.7240   46.0010 O   0  0  0  0  0  0  0  0  0  0  0  0
   55.8340   28.7480   44.8760 N   0  0  0  0  0  0  0  0  0  0  0  0
   56.4310   29.8440   44.5110 C   0  0  0  0  0  0  0  0  0  0  0  0
   57.0160   30.7250   45.3470 N   0  0  0  0  0  0  0  0  0  0  0  0
   57.5820   31.7670   44.6610 C   0  0  0  0  0  0  0  0  0  0  0  0
   58.2620   32.8760   45.3680 C   0  0  0  0  0  0  0  0  0  0  0  0
   58.3540   32.8820   46.7720 C   0  0  0  0  0  0  0  0  0  0  0  0
   57.9138   32.0578   47.3524 H   0  0  0  0  0  0  0  0  0  0  0  0
   59.0020   33.9300   47.4340 C   0  0  0  0  0  0  0  0  0  0  0  0
   59.0682   33.9276   48.5320 H   0  0  0  0  0  0  0  0  0  0  0  0
   59.5650   34.9790   46.7050 C   0  0  0  0  0  0  0  0  0  0  0  0
   60.0728   35.8026   47.2283 H   0  0  0  0  0  0  0  0  0  0  0  0
   59.4830   34.9820   45.3100 C   0  0  0  0  0  0  0  0  0  0  0  0
   59.9291   35.8073   44.7356 H   0  0  0  0  0  0  0  0  0  0  0  0
   58.8350   33.9380   44.6430 C   0  0  0  0  0  0  0  0  0  0  0  0
   58.7725   33.9465   43.5448 H   0  0  0  0  0  0  0  0  0  0  0  0
   57.4790   31.7370   43.2990 N   0  0  0  0  0  0  0  0  0  0  0  0
   56.6370   30.3470   42.9480 S   0  0  0  0  0  0  0  0  0  0  0  0
   58.2720   27.4280   47.3160 C   0  0  0  0  0  0  0  0  0  0  0  0
   57.5152   27.2330   48.0901 H   0  0  0  0  0  0  0  0  0  0  0  0
   59.6280   27.4330   47.6550 C   0  0  0  0  0  0  0  0  0  0  0  0
   59.9343   27.2556   48.6965 H   0  0  0  0  0  0  0  0  0  0  0  0
  1  2  1  0
  2  3  2  0
  3  4  1  0
  3  5  1  0
  5  6  1  0
  5  7  2  0
  7  8  1  0
  8  9  2  0
  8 10  1  0
 10 11  2  0
 11 12  1  0
 12 13  1  0
 13 14  1  0
 14 15  2  0
 15 16  1  0
 15 17  1  0
 17 18  1  0
 17 19  2  0
 19 20  1  0
 19 21  1  0
 21 22  1  0
 21 23  2  0
 23 24  1  0
 13 25  2  0
 25 26  1  0
  7 27  1  0
 27 28  1  0
 27 29  2  0
 29 30  1  0
 29  2  1  0
 26 11  1  0
 23 14  1  0
M  CHG  1  12  -1
M  END
>  <UniqueID>  (48) 
41

>  <SMILES>  (48) 
O=C(/N=c1\[n-]c(-c2ccccc2)ns1)c1ccccc1

>  <Energy>  (48) 
77.87106384937715

>  <Genealogy>  (48) 
O=C(N=c1[n-]c(-c2ccccc2)ns1)c1ccccc1 (protonated)
O=C(/N=c1\[n-]c(-c2ccccc2)ns1)c1ccccc1 (cis-trans isomerization)
O=C(/N=c1\[n-]c(-c2ccccc2)ns1)c1ccccc1 (3D coordinates assigned)
O=C(/N=c1\[n-]c(-c2ccccc2)ns1)c1ccccc1 (optimized conformer: 77.87106384937715 kcal/mol)

>  <smiles>  (48) 
O=C(N=c1[nH]c(-c2ccccc2)ns1)c1ccccc1

>  <score_type>  (48) 
oracle

>  <origin>  (48) 
adg

>  <m_score__min__energy>  (48) 
-9.4499999999999993

>  <m_primary>  (48) 
energy

$$$$
48:0
     RDKit          3D

 27 28  0  0  0  0  0  0  0  0999 V2000
   57.8220   34.1880   45.4690 C   0  0  0  0  0  0  0  0  0  0  0  0
   58.6360   33.4860   44.3790 C   0  0  0  0  0  0  0  0  0  0  0  0
   57.8000   32.3770   43.7860 C   0  0  0  0  0  0  0  0  0  0  0  0
   57.0190   31.6590   44.8510 C   0  0  0  0  0  0  0  0  0  0  0  0
   57.4940   30.2720   45.0600 C   0  0  0  0  0  0  0  0  0  0  0  0
   56.6690   29.1770   44.8990 C   0  0  0  0  0  0  0  0  0  0  0  0
   55.3420   29.3720   44.5380 O   0  0  0  0  0  0  0  0  0  0  0  0
   57.1360   27.9270   45.0860 N   0  0  0  0  0  0  0  0  0  0  0  0
   58.4350   27.7160   45.4390 C   0  0  0  0  0  0  0  0  0  0  0  0
   59.1530   26.5820   45.6840 N   0  0  0  0  0  0  0  0  0  0  0  0
   60.4190   26.9800   45.9960 C   0  0  0  0  0  0  0  0  0  0  0  0
   60.4820   28.3240   45.9450 N   0  0  0  0  0  0  0  0  0  0  0  0
   59.2810   28.7770   45.6080 N   0  0  0  0  0  0  0  0  0  0  0  0
   58.8120   30.0490   45.4200 C   0  0  0  0  0  0  0  0  0  0  0  0
   59.6420   30.9770   45.5900 O   0  0  0  0  0  0  0  0  0  0  0  0
   58.1862   33.8739   46.4583 H   0  0  0  0  0  0  0  0  0  0  0  0
   57.9340   35.2774   45.3660 H   0  0  0  0  0  0  0  0  0  0  0  0
   56.7609   33.9171   45.3660 H   0  0  0  0  0  0  0  0  0  0  0  0
   58.9027   34.2085   43.5936 H   0  0  0  0  0  0  0  0  0  0  0  0
   59.5579   33.0693   44.8107 H   0  0  0  0  0  0  0  0  0  0  0  0
   57.0994   32.8069   43.0550 H   0  0  0  0  0  0  0  0  0  0  0  0
   58.4721   31.6550   43.2992 H   0  0  0  0  0  0  0  0  0  0  0  0
   57.1185   32.2128   45.7962 H   0  0  0  0  0  0  0  0  0  0  0  0
   55.9705   31.6088   44.5222 H   0  0  0  0  0  0  0  0  0  0  0  0
   54.7640   28.5440   44.4990 H   0  0  0  0  0  0  0  0  0  0  0  0
   56.4920   27.0910   44.9590 H   0  0  0  0  0  0  0  0  0  0  0  0
   61.2546   26.3108   46.2488 H   0  0  0  0  0  0  0  0  0  0  0  0
  1  2  1  0
  2  3  1  0
  3  4  1  0
  4  5  1  0
  5  6  2  0
  6  7  1  0
  6  8  1  0
  8  9  1  0
  9 10  2  0
 10 11  1  0
 11 12  2  0
 12 13  1  0
 13 14  1  0
 14 15  2  0
 14  5  1  0
 13  9  1  0
  1 16  1  0
  1 17  1  0
  1 18  1  0
  2 19  1  0
  2 20  1  0
  3 21  1  0
  3 22  1  0
  4 23  1  0
  4 24  1  0
  7 25  1  0
  8 26  1  0
 11 27  1  0
M  END
>  <smiles>  (49) 
CCCCc1c(O)[nH]c2ncnn2c1=O

>  <score_type>  (49) 
oracle

>  <origin>  (49) 
adg

>  <m_score__min__energy>  (49) 
-6.0899999999999999

>  <m_primary>  (49) 
energy

$$$$
49:0
     RDKit          3D

 34 36  0  0  0  0  0  0  0  0999 V2000
   57.0000   30.6050   42.9510 C   0  0  0  0  0  0  0  0  0  0  0  0
   56.8550   30.4540   44.4330 C   0  0  0  0  0  0  0  0  0  0  0  0
   55.9160   29.7460   44.8870 O   0  0  0  0  0  0  0  0  0  0  0  0
   57.7960   31.1240   45.3560 C   0  0  0  0  0  0  0  0  0  0  0  0
   58.4790   30.5210   46.4110 C   0  0  0  0  0  0  0  0  0  0  0  0
   59.2520   31.4280   47.0550 N   0  0  0  0  0  0  0  0  0  0  0  0
   60.0480   31.1680   48.2550 C   0  0  0  0  0  0  0  0  0  0  0  0
   61.3490   31.9230   48.1880 C   0  0  0  0  0  0  0  0  0  0  0  0
   62.2940   31.6360   47.1900 C   0  0  0  0  0  0  0  0  0  0  0  0
   63.4880   32.3630   47.1210 C   0  0  0  0  0  0  0  0  0  0  0  0
   63.7420   33.3810   48.0420 C   0  0  0  0  0  0  0  0  0  0  0  0
   62.8050   33.6750   49.0360 C   0  0  0  0  0  0  0  0  0  0  0  0
   61.6110   32.9510   49.1100 C   0  0  0  0  0  0  0  0  0  0  0  0
   59.0560   32.6060   46.4280 C   0  0  0  0  0  0  0  0  0  0  0  0
   59.6220   33.8480   46.7380 C   0  0  0  0  0  0  0  0  0  0  0  0
   59.2670   34.9520   45.9440 C   0  0  0  0  0  0  0  0  0  0  0  0
   58.3650   34.8010   44.8720 C   0  0  0  0  0  0  0  0  0  0  0  0
   57.8080   33.5440   44.5800 C   0  0  0  0  0  0  0  0  0  0  0  0
   58.1750   32.4580   45.3810 C   0  0  0  0  0  0  0  0  0  0  0  0
   57.7468   31.3827   42.7330 H   0  0  0  0  0  0  0  0  0  0  0  0
   57.3277   29.6496   42.5154 H   0  0  0  0  0  0  0  0  0  0  0  0
   56.0321   30.8937   42.5154 H   0  0  0  0  0  0  0  0  0  0  0  0
   58.4012   29.4579   46.6825 H   0  0  0  0  0  0  0  0  0  0  0  0
   59.4846   31.4924   49.1424 H   0  0  0  0  0  0  0  0  0  0  0  0
   60.2605   30.0906   48.3190 H   0  0  0  0  0  0  0  0  0  0  0  0
   62.0953   30.8374   46.4601 H   0  0  0  0  0  0  0  0  0  0  0  0
   64.2273   32.1319   46.3400 H   0  0  0  0  0  0  0  0  0  0  0  0
   64.6804   33.9521   47.9851 H   0  0  0  0  0  0  0  0  0  0  0  0
   63.0069   34.4770   49.7612 H   0  0  0  0  0  0  0  0  0  0  0  0
   60.8745   33.1867   49.8923 H   0  0  0  0  0  0  0  0  0  0  0  0
   60.3238   33.9568   47.5780 H   0  0  0  0  0  0  0  0  0  0  0  0
   59.6964   35.9412   46.1610 H   0  0  0  0  0  0  0  0  0  0  0  0
   58.0947   35.6735   44.2590 H   0  0  0  0  0  0  0  0  0  0  0  0
   57.1032   33.4180   43.7449 H   0  0  0  0  0  0  0  0  0  0  0  0
  1  2  1  0
  2  3  2  0
  2  4  1  0
  4  5  2  0
  5  6  1  0
  6  7  1  0
  7  8  1  0
  8  9  2  0
  9 10  1  0
 10 11  2  0
 11 12  1  0
 12 13  2  0
  6 14  1  0
 14 15  2  0
 15 16  1  0
 16 17  2  0
 17 18  1  0
 18 19  2  0
 19  4  1  0
 13  8  1  0
 19 14  1  0
  1 20  1  0
  1 21  1  0
  1 22  1  0
  5 23  1  0
  7 24  1  0
  7 25  1  0
  9 26  1  0
 10 27  1  0
 11 28  1  0
 12 29  1  0
 13 30  1  0
 15 31  1  0
 16 32  1  0
 17 33  1  0
 18 34  1  0
M  END
>  <UniqueID>  (50) 
42

>  <SMILES>  (50) 
CC(=O)c1cn(Cc2ccccc2)c2ccccc12

>  <Energy>  (50) 
67.9429826869763

>  <Genealogy>  (50) 
CC(=O)c1cn(Cc2ccccc2)c2ccccc12 (3D coordinates assigned)
CC(=O)c1cn(Cc2ccccc2)c2ccccc12 (optimized conformer: 67.9429826869763 kcal/mol)

>  <smiles>  (50) 
CC(=O)c1cn(Cc2ccccc2)c2ccccc12

>  <score_type>  (50) 
oracle

>  <origin>  (50) 
adg

>  <m_score__min__energy>  (50) 
-7.5300000000000002

>  <m_primary>  (50) 
energy

$$$$
50:0
     RDKit          3D

 44 46  0  0  1  0  0  0  0  0999 V2000
   57.1420   34.4140   44.6290 N   0  0  0  0  0  0  0  0  0  0  0  0
   57.9700   33.8350   45.4280 C   0  0  0  0  0  0  0  0  0  0  0  0
   58.7200   34.5310   46.2980 N   0  0  0  0  0  0  0  0  0  0  0  0
   59.5730   33.8420   47.0960 C   0  0  0  0  0  0  0  0  0  0  0  0
   60.3210   34.3950   47.9780 N   0  0  0  0  0  0  0  0  0  0  0  0
   61.6170   33.9090   48.2400 C   0  0  0  0  0  0  0  0  0  0  0  0
   62.4780   33.7320   47.1490 C   0  0  0  0  0  0  0  0  0  0  0  0
   63.7450   33.2430   47.3120 C   0  0  0  0  0  0  0  0  0  0  0  0
   64.1930   32.9140   48.5670 C   0  0  0  0  0  0  0  0  0  0  0  0
   63.3680   33.0740   49.6910 C   0  0  0  0  0  0  0  0  0  0  0  0
   62.0720   33.5760   49.5110 C   0  0  0  0  0  0  0  0  0  0  0  0
   59.6500   32.4970   47.0000 N   0  0  0  0  0  0  0  0  0  0  0  0
   58.9150   31.7710   46.1410 C   0  0  0  0  0  0  0  0  0  0  0  0
   59.0580   30.3400   46.1020 N   0  0  0  0  0  0  0  0  0  0  0  0
   58.7640   29.6340   47.3360 C   0  0  0  0  0  0  0  0  0  0  0  0
   58.1240   28.2930   47.0760 C   0  0  0  0  0  0  0  0  0  0  0  0
   59.1140   27.2160   46.7610 C   0  0  0  0  0  0  0  0  0  0  0  0
   59.7060   27.2880   45.3900 C   0  0  0  0  0  0  0  0  0  0  0  0
   60.3950   28.5650   45.0520 C   0  0  0  0  0  0  0  0  0  0  0  0
   59.4670   29.7280   44.8580 C   0  0  0  0  0  0  0  0  0  0  0  0
   58.0420   32.4460   45.3200 C   0  0  0  0  0  0  0  0  0  0  0  0
   57.2470   31.7280   44.4070 N   0  0  0  0  0  0  0  0  0  0  0  0
   57.2140   31.9900   43.1810 O   0  0  0  0  0  0  0  0  0  0  0  0
   56.4770   30.6970   44.8900 O   0  0  0  0  0  0  0  0  0  0  0  0
   56.6940   34.0180   43.7990 H   0  0  0  0  0  0  0  0  0  0  0  0
   58.6780   35.5520   46.3810 H   0  0  0  0  0  0  0  0  0  0  0  0
   62.1274   33.9920   46.1393 H   0  0  0  0  0  0  0  0  0  0  0  0
   64.4029   33.1138   46.4399 H   0  0  0  0  0  0  0  0  0  0  0  0
   65.2121   32.5197   48.6935 H   0  0  0  0  0  0  0  0  0  0  0  0
   63.7320   32.8102   50.6950 H   0  0  0  0  0  0  0  0  0  0  0  0
   61.4109   33.7073   50.3803 H   0  0  0  0  0  0  0  0  0  0  0  0
   60.3050   31.9650   47.6130 H   0  0  0  0  0  0  0  0  0  0  0  0
   59.7018   29.4795   47.8898 H   0  0  0  0  0  0  0  0  0  0  0  0
   58.0566   30.2431   47.9179 H   0  0  0  0  0  0  0  0  0  0  0  0
   57.5586   27.9964   47.9717 H   0  0  0  0  0  0  0  0  0  0  0  0
   57.4751   28.4069   46.1952 H   0  0  0  0  0  0  0  0  0  0  0  0
   59.9340   27.2811   47.4913 H   0  0  0  0  0  0  0  0  0  0  0  0
   58.5625   26.2655   46.8099 H   0  0  0  0  0  0  0  0  0  0  0  0
   60.4384   26.4728   45.2945 H   0  0  0  0  0  0  0  0  0  0  0  0
   58.8592   27.2095   44.6923 H   0  0  0  0  0  0  0  0  0  0  0  0
   61.0897   28.8097   45.8690 H   0  0  0  0  0  0  0  0  0  0  0  0
   60.9082   28.4047   44.0924 H   0  0  0  0  0  0  0  0  0  0  0  0
   59.9784   30.4859   44.2464 H   0  0  0  0  0  0  0  0  0  0  0  0
   58.5602   29.3459   44.3664 H   0  0  0  0  0  0  0  0  0  0  0  0
  1  2  2  3
  2  3  1  0
  3  4  1  0
  4  5  2  0
  5  6  1  0
  6  7  2  0
  7  8  1  0
  8  9  2  0
  9 10  1  0
 10 11  2  0
  4 12  1  0
 12 13  1  0
 13 14  1  0
 14 15  1  0
 15 16  1  0
 16 17  1  0
 17 18  1  0
 18 19  1  0
 19 20  1  0
 13 21  2  0
 21 22  1  0
 22 23  2  0
 22 24  1  0
 21  2  1  0
 11  6  1  0
 20 14  1  0
  1 25  1  0
  3 26  1  0
  7 27  1  0
  8 28  1  0
  9 29  1  0
 10 30  1  0
 11 31  1  0
 12 32  1  0
 15 33  1  0
 15 34  1  0
 16 35  1  0
 16 36  1  0
 17 37  1  0
 17 38  1  0
 18 39  1  0
 18 40  1  0
 19 41  1  0
 19 42  1  0
 20 43  1  0
 20 44  1  0
M  CHG  2  22   1  24  -1
M  END
>  <smiles>  (51) 
N=c1[nH]c(=Nc2ccccc2)[nH]c(N2CCCCCC2)c1[N+](=O)[O-]

>  <score_type>  (51) 
oracle

>  <origin>  (51) 
adg

>  <m_score__min__energy>  (51) 
-5.3799999999999999

>  <m_primary>  (51) 
energy

$$$$
51:0
     RDKit          3D

 51 53  0  0  1  0  0  0  0  0999 V2000
   56.3200   30.0230   43.0890 C   0  0  0  0  0  0  0  0  0  0  0  0
   56.3020   30.4560   44.4540 O   0  0  0  0  0  0  0  0  0  0  0  0
   57.1190   31.5600   44.7470 C   0  0  0  0  0  0  0  0  0  0  0  0
   57.7040   32.1650   43.6340 C   0  0  0  0  0  0  0  0  0  0  0  0
   58.5330   33.2720   43.8570 C   0  0  0  0  0  0  0  0  0  0  0  0
   58.7460   33.7300   45.1500 C   0  0  0  0  0  0  0  0  0  0  0  0
   59.5620   34.8490   45.5010 C   0  0  0  0  0  0  0  0  0  0  0  0
   59.3470   35.9410   44.8600 O   0  0  0  0  0  0  0  0  0  0  0  0
   60.5830   34.9070   46.4690 N   0  0  0  0  0  0  0  0  0  0  0  0
   61.4620   34.0370   46.7320 C   0  0  0  0  0  0  0  0  0  0  0  0
   62.7780   34.1350   46.4960 N   0  0  0  0  0  0  0  0  0  0  0  0
   63.3490   33.0170   46.9050 N   0  0  0  0  0  0  0  0  0  0  0  0
   62.4100   32.1740   47.4110 C   0  0  0  0  0  0  0  0  0  0  0  0
   61.1730   32.8020   47.3160 C   0  0  0  0  0  0  0  0  0  0  0  0
   60.1210   31.9030   47.8610 C   0  0  0  0  0  0  0  0  0  0  0  0
   60.7790   30.5870   47.7310 N   0  0  0  0  0  0  0  0  0  0  0  0
   60.1690   29.3460   47.3880 C   0  0  0  0  0  0  0  0  0  0  0  0
   60.7640   28.3060   47.7960 O   0  0  0  0  0  0  0  0  0  0  0  0
   58.9700   29.2470   46.6420 N   0  0  0  0  0  0  0  0  0  0  0  0
   58.4270   27.9420   46.3420 C   0  0  0  0  0  0  0  0  0  0  0  0
   58.2610   27.0770   47.5750 C   0  0  0  0  0  0  0  0  0  0  0  0
   59.3450   27.2240   45.3880 C   0  0  0  0  0  0  0  0  0  0  0  0
   57.0790   28.0960   45.6460 C   0  0  0  0  0  0  0  0  0  0  0  0
   62.1630   30.8460   48.0310 C   0  0  2  0  0  0  0  0  0  0  0  0
   62.4000   31.0340   49.5140 C   0  0  0  0  0  0  0  0  0  0  0  0
   58.1100   33.0520   46.2060 C   0  0  0  0  0  0  0  0  0  0  0  0
   57.3270   32.0040   45.9880 N   0  0  0  0  0  0  0  0  0  0  0  0
   56.3657   28.9245   43.0534 H   0  0  0  0  0  0  0  0  0  0  0  0
   55.4067   30.3686   42.5826 H   0  0  0  0  0  0  0  0  0  0  0  0
   57.2014   30.4433   42.5826 H   0  0  0  0  0  0  0  0  0  0  0  0
   57.5207   31.7862   42.6177 H   0  0  0  0  0  0  0  0  0  0  0  0
   59.0151   33.7782   43.0077 H   0  0  0  0  0  0  0  0  0  0  0  0
   63.2110   34.9700   46.0670 H   0  0  0  0  0  0  0  0  0  0  0  0
   64.3800   32.8480   46.8270 H   0  0  0  0  0  0  0  0  0  0  0  0
   59.8928   32.1385   48.9110 H   0  0  0  0  0  0  0  0  0  0  0  0
   59.1509   31.9773   47.3478 H   0  0  0  0  0  0  0  0  0  0  0  0
   58.4860   30.1090   46.3120 H   0  0  0  0  0  0  0  0  0  0  0  0
   58.3799   27.6965   48.4762 H   0  0  0  0  0  0  0  0  0  0  0  0
   57.2593   26.6226   47.5719 H   0  0  0  0  0  0  0  0  0  0  0  0
   59.0234   26.2840   47.5719 H   0  0  0  0  0  0  0  0  0  0  0  0
   60.0859   26.6445   45.9583 H   0  0  0  0  0  0  0  0  0  0  0  0
   58.7564   26.5441   44.7545 H   0  0  0  0  0  0  0  0  0  0  0  0
   59.8631   27.9590   44.7545 H   0  0  0  0  0  0  0  0  0  0  0  0
   56.2846   28.1868   46.4014 H   0  0  0  0  0  0  0  0  0  0  0  0
   57.0920   28.9985   45.0173 H   0  0  0  0  0  0  0  0  0  0  0  0
   56.8881   27.2138   45.0173 H   0  0  0  0  0  0  0  0  0  0  0  0
   62.7950   30.0168   47.6804 H   0  0  0  0  0  0  0  0  0  0  0  0
   61.6613   30.4480   50.0805 H   0  0  0  0  0  0  0  0  0  0  0  0
   63.4136   30.6916   49.7696 H   0  0  0  0  0  0  0  0  0  0  0  0
   62.2973   32.0989   49.7696 H   0  0  0  0  0  0  0  0  0  0  0  0
   58.2660   33.3997   47.2379 H   0  0  0  0  0  0  0  0  0  0  0  0
  1  2  1  0
  2  3  1  0
  3  4  2  0
  4  5  1  0
  5  6  2  0
  6  7  1  0
  7  8  2  0
  7  9  1  0
  9 10  2  0
 10 11  1  0
 11 12  1  0
 12 13  1  0
 13 14  2  0
 14 15  1  0
 15 16  1  0
 16 17  1  0
 17 18  2  0
 17 19  1  0
 19 20  1  0
 20 21  1  0
 20 22  1  0
 20 23  1  0
 16 24  1  0
 24 25  1  0
  6 26  1  0
 26 27  2  0
 27  3  1  0
 14 10  1  0
 24 13  1  0
  1 28  1  0
  1 29  1  0
  1 30  1  0
  4 31  1  0
  5 32  1  0
 11 33  1  0
 12 34  1  0
 15 35  1  0
 15 36  1  0
 19 37  1  0
 21 38  1  0
 21 39  1  0
 21 40  1  0
 22 41  1  0
 22 42  1  0
 22 43  1  0
 23 44  1  0
 23 45  1  0
 23 46  1  0
 24 47  1  6
 25 48  1  0
 25 49  1  0
 25 50  1  0
 26 51  1  0
M  END
>  <smiles>  (52) 
COc1ccc(C(=O)N=c2[nH][nH]c3c2CN(C(=O)NC(C)(C)C)C3C)cn1

>  <score_type>  (52) 
oracle

>  <origin>  (52) 
adg

>  <m_score__min__energy>  (52) 
-8.2300000000000004

>  <m_primary>  (52) 
energy

$$$$
52:0
     RDKit          3D

 36 38  0  0  0  0  0  0  0  0999 V2000
   55.8670   29.7260   43.7820 C   0  0  0  0  0  0  0  0  0  0  0  0
   56.5300   30.3530   44.8750 O   0  0  0  0  0  0  0  0  0  0  0  0
   57.7890   29.9730   45.3660 C   0  0  0  0  0  0  0  0  0  0  0  0
   58.1200   28.6240   45.6060 C   0  0  0  0  0  0  0  0  0  0  0  0
   59.3890   28.2820   46.0780 C   0  0  0  0  0  0  0  0  0  0  0  0
   60.3400   29.2750   46.3160 C   0  0  0  0  0  0  0  0  0  0  0  0
   60.0230   30.6150   46.0880 C   0  0  0  0  0  0  0  0  0  0  0  0
   58.7500   30.9740   45.6190 C   0  0  0  0  0  0  0  0  0  0  0  0
   58.4320   32.3630   45.4180 N   0  0  0  0  0  0  0  0  0  0  0  0
   58.3840   33.3680   46.3300 C   0  0  0  0  0  0  0  0  0  0  0  0
   58.7860   33.2670   47.7490 C   0  0  0  0  0  0  0  0  0  0  0  0
   59.8080   34.0940   48.2420 C   0  0  0  0  0  0  0  0  0  0  0  0
   60.1880   34.0250   49.5860 C   0  0  0  0  0  0  0  0  0  0  0  0
   59.5710   33.1100   50.4500 C   0  0  0  0  0  0  0  0  0  0  0  0
   59.9490   33.0660   51.9010 C   0  0  0  0  0  0  0  0  0  0  0  0
   58.5540   32.2780   49.9590 C   0  0  0  0  0  0  0  0  0  0  0  0
   58.1720   32.3470   48.6160 C   0  0  0  0  0  0  0  0  0  0  0  0
   57.9090   34.5070   45.7810 N   0  0  0  0  0  0  0  0  0  0  0  0
   57.6600   34.2360   44.5100 N   0  0  0  0  0  0  0  0  0  0  0  0
   57.9750   32.9490   44.2920 C   0  0  0  0  0  0  0  0  0  0  0  0
   57.7150   32.1820   42.8650 S   0  0  0  0  0  0  0  0  0  0  0  0
   55.1179   29.0175   44.1652 H   0  0  0  0  0  0  0  0  0  0  0  0
   55.3684   30.4906   43.1682 H   0  0  0  0  0  0  0  0  0  0  0  0
   56.6026   29.1855   43.1682 H   0  0  0  0  0  0  0  0  0  0  0  0
   57.3747   27.8365   45.4205 H   0  0  0  0  0  0  0  0  0  0  0  0
   59.6396   27.2270   46.2627 H   0  0  0  0  0  0  0  0  0  0  0  0
   61.3401   29.0016   46.6835 H   0  0  0  0  0  0  0  0  0  0  0  0
   60.7757   31.3945   46.2771 H   0  0  0  0  0  0  0  0  0  0  0  0
   60.3129   34.8006   47.5668 H   0  0  0  0  0  0  0  0  0  0  0  0
   60.9751   34.6922   49.9671 H   0  0  0  0  0  0  0  0  0  0  0  0
   59.0450   33.1712   52.5188 H   0  0  0  0  0  0  0  0  0  0  0  0
   60.4358   32.1051   52.1241 H   0  0  0  0  0  0  0  0  0  0  0  0
   60.6435   33.8894   52.1241 H   0  0  0  0  0  0  0  0  0  0  0  0
   58.0545   31.5676   50.6342 H   0  0  0  0  0  0  0  0  0  0  0  0
   57.3864   31.6775   48.2357 H   0  0  0  0  0  0  0  0  0  0  0  0
   57.2650   34.9160   43.8240 H   0  0  0  0  0  0  0  0  0  0  0  0
  1  2  1  0
  2  3  1  0
  3  4  2  0
  4  5  1  0
  5  6  2  0
  6  7  1  0
  7  8  2  0
  8  9  1  0
  9 10  1  0
 10 11  1  0
 11 12  2  0
 12 13  1  0
 13 14  2  0
 14 15  1  0
 14 16  1  0
 16 17  2  0
 10 18  2  0
 18 19  1  0
 19 20  1  0
 20 21  2  0
  8  3  1  0
 20  9  1  0
 17 11  1  0
  1 22  1  0
  1 23  1  0
  1 24  1  0
  4 25  1  0
  5 26  1  0
  6 27  1  0
  7 28  1  0
 12 29  1  0
 13 30  1  0
 15 31  1  0
 15 32  1  0
 15 33  1  0
 16 34  1  0
 17 35  1  0
 19 36  1  0
M  END
>  <UniqueID>  (53) 
43

>  <SMILES>  (53) 
COc1ccccc1-n1c(-c2ccc(C)cc2)n[nH]c1=S

>  <Energy>  (53) 
82.88506660116639

>  <Genealogy>  (53) 
COc1ccccc1-n1c(-c2ccc(C)cc2)n[nH]c1=S (3D coordinates assigned)
COc1ccccc1-n1c(-c2ccc(C)cc2)n[nH]c1=S (optimized conformer: 82.88506660116639 kcal/mol)

>  <smiles>  (53) 
COc1ccccc1-n1c(-c2ccc(C)cc2)n[nH]c1=S

>  <score_type>  (53) 
oracle

>  <origin>  (53) 
adg

>  <m_score__min__energy>  (53) 
-6.7400000000000002

>  <m_primary>  (53) 
energy

$$$$
53:0
     RDKit          3D

 66 69  0  0  0  0  0  0  0  0999 V2000
   53.4170   28.9630   52.7180 C   0  0  0  0  0  0  0  0  0  0  0  0
   54.3950   30.0110   52.1360 C   0  0  1  0  0  0  0  0  0  0  0  0
   53.6000   31.2120   51.5760 C   0  0  0  0  0  0  0  0  0  0  0  0
   52.0720   31.1390   51.7980 C   0  0  0  0  0  0  0  0  0  0  0  0
   51.3450   32.3260   51.2370 C   0  0  0  0  0  0  0  0  0  0  0  0
   50.7090   33.1000   52.0010 O   0  0  0  0  0  0  0  0  0  0  0  0
   51.3950   32.5970   49.8760 O   0  0  0  0  0  0  0  0  0  0  0  0
   55.5010   30.3370   53.2270 C   0  0  1  0  0  0  0  0  0  0  0  0
   56.0390   28.9610   53.7540 C   0  0  0  0  0  0  0  0  0  0  0  0
   57.3950   28.7130   53.0630 C   0  0  0  0  0  0  0  0  0  0  0  0
   57.5850   29.9250   52.1520 C   0  0  2  0  0  0  0  0  0  0  0  0
   58.9990   30.3470   51.7330 C   0  0  1  0  0  0  0  0  0  0  0  0
   59.9020   29.1690   51.3300 C   0  0  0  0  0  0  0  0  0  0  0  0
   61.2910   29.6800   50.9190 C   0  0  0  0  0  0  0  0  0  0  0  0
   61.1970   30.7270   49.7850 C   0  0  2  0  0  0  0  0  0  0  0  0
   62.5980   31.2050   49.3450 C   0  0  0  0  0  0  0  0  0  0  0  0
   62.5580   32.3380   48.2870 C   0  0  2  0  0  0  0  0  0  0  0  0
   63.0570   33.5280   48.8400 O   0  0  0  0  0  0  0  0  0  0  0  0
   61.1450   32.5700   47.7180 C   0  0  0  0  0  0  0  0  0  0  0  0
   60.0770   32.8070   48.8080 C   0  0  0  0  0  0  0  0  0  0  0  0
   60.2400   31.9300   50.1060 C   0  0  2  0  0  0  0  0  0  0  0  0
   60.8130   32.8250   51.2470 C   0  0  0  0  0  0  0  0  0  0  0  0
   58.8520   31.3290   50.5350 C   0  0  2  0  0  0  0  0  0  0  0  0
   57.6750   32.3650   50.6760 C   0  0  0  0  0  0  0  0  0  0  0  0
   56.8650   32.3890   52.0050 C   0  0  0  0  0  0  0  0  0  0  0  0
   56.8500   31.0680   52.8620 C   0  0  1  0  0  0  0  0  0  0  0  0
   57.5360   31.4670   54.2270 C   0  0  0  0  0  0  0  0  0  0  0  0
   53.4514   28.9999   53.8168 H   0  0  0  0  0  0  0  0  0  0  0  0
   52.3955   29.1848   52.3755 H   0  0  0  0  0  0  0  0  0  0  0  0
   53.7088   27.9592   52.3755 H   0  0  0  0  0  0  0  0  0  0  0  0
   54.9528   29.6326   51.2667 H   0  0  0  0  0  0  0  0  0  0  0  0
   53.9730   32.1256   52.0620 H   0  0  0  0  0  0  0  0  0  0  0  0
   53.7551   31.2049   50.4870 H   0  0  0  0  0  0  0  0  0  0  0  0
   51.6892   30.2301   51.3109 H   0  0  0  0  0  0  0  0  0  0  0  0
   51.8955   31.1256   52.8837 H   0  0  0  0  0  0  0  0  0  0  0  0
   54.9421   31.0269   53.8764 H   0  0  0  0  0  0  0  0  0  0  0  0
   56.1726   29.0004   54.8451 H   0  0  0  0  0  0  0  0  0  0  0  0
   55.3300   28.1503   53.5300 H   0  0  0  0  0  0  0  0  0  0  0  0
   58.2048   28.6532   53.8051 H   0  0  0  0  0  0  0  0  0  0  0  0
   57.4149   27.7638   52.5074 H   0  0  0  0  0  0  0  0  0  0  0  0
   57.1865   29.6401   51.1671 H   0  0  0  0  0  0  0  0  0  0  0  0
   59.4890   30.8151   52.5995 H   0  0  0  0  0  0  0  0  0  0  0  0
   60.0055   28.4824   52.1832 H   0  0  0  0  0  0  0  0  0  0  0  0
   59.4467   28.6438   50.4775 H   0  0  0  0  0  0  0  0  0  0  0  0
   61.7749   30.1415   51.7924 H   0  0  0  0  0  0  0  0  0  0  0  0
   61.8784   28.8255   50.5519 H   0  0  0  0  0  0  0  0  0  0  0  0
   60.7301   30.2081   48.9349 H   0  0  0  0  0  0  0  0  0  0  0  0
   63.1347   31.5744   50.2313 H   0  0  0  0  0  0  0  0  0  0  0  0
   63.1036   30.3452   48.8811 H   0  0  0  0  0  0  0  0  0  0  0  0
   63.1941   32.0203   47.4477 H   0  0  0  0  0  0  0  0  0  0  0  0
   62.3750   34.2330   48.6800 H   0  0  0  0  0  0  0  0  0  0  0  0
   61.1741   33.4515   47.0606 H   0  0  0  0  0  0  0  0  0  0  0  0
   60.8589   31.6567   47.1758 H   0  0  0  0  0  0  0  0  0  0  0  0
   60.1217   33.8654   49.1042 H   0  0  0  0  0  0  0  0  0  0  0  0
   59.1145   32.5169   48.3615 H   0  0  0  0  0  0  0  0  0  0  0  0
   60.5385   32.3963   52.2221 H   0  0  0  0  0  0  0  0  0  0  0  0
   61.9087   32.8708   51.1619 H   0  0  0  0  0  0  0  0  0  0  0  0
   60.3959   33.8393   51.1619 H   0  0  0  0  0  0  0  0  0  0  0  0
   58.5157   30.7298   49.6760 H   0  0  0  0  0  0  0  0  0  0  0  0
   58.1063   33.3677   50.5399 H   0  0  0  0  0  0  0  0  0  0  0  0
   56.9430   32.0472   49.9190 H   0  0  0  0  0  0  0  0  0  0  0  0
   57.2853   33.1872   52.6345 H   0  0  0  0  0  0  0  0  0  0  0  0
   55.8197   32.5396   51.6975 H   0  0  0  0  0  0  0  0  0  0  0  0
   56.9203   31.1089   55.0652 H   0  0  0  0  0  0  0  0  0  0  0  0
   58.5344   31.0087   54.2834 H   0  0  0  0  0  0  0  0  0  0  0  0
   57.6313   32.5614   54.2834 H   0  0  0  0  0  0  0  0  0  0  0  0
  1  2  1  0
  2  3  1  0
  3  4  1  0
  4  5  1  0
  5  6  2  0
  5  7  1  0
  2  8  1  0
  8  9  1  0
  9 10  1  0
 10 11  1  0
 11 12  1  0
 12 13  1  0
 13 14  1  0
 14 15  1  0
 15 16  1  0
 16 17  1  0
 17 18  1  0
 17 19  1  0
 19 20  1  0
 20 21  1  0
 21 22  1  1
 21 23  1  0
 23 24  1  0
 24 25  1  0
 25 26  1  0
 26 27  1  1
 26  8  1  0
 26 11  1  0
 23 12  1  0
 21 15  1  0
  1 28  1  0
  1 29  1  0
  1 30  1  0
  2 31  1  6
  3 32  1  0
  3 33  1  0
  4 34  1  0
  4 35  1  0
  8 36  1  1
  9 37  1  0
  9 38  1  0
 10 39  1  0
 10 40  1  0
 11 41  1  6
 12 42  1  1
 13 43  1  0
 13 44  1  0
 14 45  1  0
 14 46  1  0
 15 47  1  6
 16 48  1  0
 16 49  1  0
 17 50  1  6
 18 51  1  0
 19 52  1  0
 19 53  1  0
 20 54  1  0
 20 55  1  0
 22 56  1  0
 22 57  1  0
 22 58  1  0
 23 59  1  6
 24 60  1  0
 24 61  1  0
 25 62  1  0
 25 63  1  0
 27 64  1  0
 27 65  1  0
 27 66  1  0
M  CHG  1   7  -1
M  END
>  <UniqueID>  (54) 
44

>  <SMILES>  (54) 
C[C@@H](CCC(=O)[O-])[C@H]1CCC2C3CCC4CC(O)CCC4(C)C3CCC21C

>  <Energy>  (54) 
124.3901940006302

>  <Genealogy>  (54) 
CC(CCC(=O)[O-])C1CCC2C3CCC4CC(O)CCC4(C)C3CCC12C (protonated)
C[C@@H](CCC(=O)[O-])[C@H]1CCC2C3CCC4CC(O)CCC4(C)C3CCC21C (chirality)
C[C@@H](CCC(=O)[O-])[C@H]1CCC2C3CCC4CC(O)CCC4(C)C3CCC21C (3D coordinates assigned)
C[C@@H](CCC(=O)[O-])[C@H]1CCC2C3CCC4CC(O)CCC4(C)C3CCC21C (nonaromatic ring conformer: 124.3901940006302 kcal/mol)

>  <smiles>  (54) 
CC(CCC(=O)O)C1CCC2C3CCC4CC(O)CCC4(C)C3CCC12C

>  <score_type>  (54) 
oracle

>  <origin>  (54) 
adg

>  <m_score__min__energy>  (54) 
-11.77

>  <m_primary>  (54) 
energy

$$$$
54:0
     RDKit          3D

 41 43  0  0  0  0  0  0  0  0999 V2000
   56.9100   30.1330   43.8730 C   0  0  0  0  0  0  0  0  0  0  0  0
   57.0300   30.6440   45.2340 N   0  0  0  0  0  0  0  0  0  0  0  0
   57.7910   31.8160   45.5790 C   0  0  0  0  0  0  0  0  0  0  0  0
   57.3740   33.0700   45.1090 C   0  0  0  0  0  0  0  0  0  0  0  0
   58.0870   34.2240   45.4400 C   0  0  0  0  0  0  0  0  0  0  0  0
   59.2200   34.1400   46.2520 C   0  0  0  0  0  0  0  0  0  0  0  0
   59.6490   32.8980   46.7440 C   0  0  0  0  0  0  0  0  0  0  0  0
   60.8460   32.8190   47.6110 C   0  0  0  0  0  0  0  0  0  0  0  0
   62.3660   33.4120   47.1810 S   0  0  0  0  0  0  0  0  0  0  0  0
   63.1150   32.8420   48.5720 C   0  0  0  0  0  0  0  0  0  0  0  0
   64.5430   33.0830   48.9300 C   0  0  0  0  0  0  0  0  0  0  0  0
   62.2280   32.2260   49.3830 N   0  0  0  0  0  0  0  0  0  0  0  0
   60.9650   32.2050   48.8700 C   0  0  0  0  0  0  0  0  0  0  0  0
   59.8380   31.6320   49.6390 C   0  0  0  0  0  0  0  0  0  0  0  0
   59.6170   30.2440   49.6670 C   0  0  0  0  0  0  0  0  0  0  0  0
   58.5650   29.7110   50.4170 C   0  0  0  0  0  0  0  0  0  0  0  0
   57.7060   30.5600   51.1400 C   0  0  0  0  0  0  0  0  0  0  0  0
   56.6420   30.0720   51.9130 O   0  0  0  0  0  0  0  0  0  0  0  0
   55.5120   30.8460   52.3040 C   0  0  0  0  0  0  0  0  0  0  0  0
   57.9130   31.9430   51.0890 C   0  0  0  0  0  0  0  0  0  0  0  0
   58.9660   32.4770   50.3420 C   0  0  0  0  0  0  0  0  0  0  0  0
   58.9450   31.7360   46.3810 C   0  0  0  0  0  0  0  0  0  0  0  0
   56.6586   29.0626   43.9041 H   0  0  0  0  0  0  0  0  0  0  0  0
   56.1161   30.6809   43.3443 H   0  0  0  0  0  0  0  0  0  0  0  0
   57.8648   30.2702   43.3443 H   0  0  0  0  0  0  0  0  0  0  0  0
   56.5700   30.0970   45.9980 H   0  0  0  0  0  0  0  0  0  0  0  0
   56.4784   33.1449   44.4748 H   0  0  0  0  0  0  0  0  0  0  0  0
   57.7554   35.2017   45.0602 H   0  0  0  0  0  0  0  0  0  0  0  0
   59.7791   35.0523   46.5072 H   0  0  0  0  0  0  0  0  0  0  0  0
   64.6486   33.1008   50.0248 H   0  0  0  0  0  0  0  0  0  0  0  0
   65.1662   32.2773   48.5146 H   0  0  0  0  0  0  0  0  0  0  0  0
   64.8672   34.0486   48.5146 H   0  0  0  0  0  0  0  0  0  0  0  0
   62.4820   31.8390   50.3200 H   0  0  0  0  0  0  0  0  0  0  0  0
   60.2757   29.5737   49.0954 H   0  0  0  0  0  0  0  0  0  0  0  0
   58.4075   28.6226   50.4424 H   0  0  0  0  0  0  0  0  0  0  0  0
   55.4560   30.8844   53.4019 H   0  0  0  0  0  0  0  0  0  0  0  0
   55.6112   31.8667   51.9060 H   0  0  0  0  0  0  0  0  0  0  0  0
   54.5961   30.3847   51.9060 H   0  0  0  0  0  0  0  0  0  0  0  0
   57.2408   32.6156   51.6419 H   0  0  0  0  0  0  0  0  0  0  0  0
   59.1123   33.5666   50.3048 H   0  0  0  0  0  0  0  0  0  0  0  0
   59.2999   30.7542   46.7275 H   0  0  0  0  0  0  0  0  0  0  0  0
  1  2  1  0
  2  3  1  0
  3  4  2  0
  4  5  1  0
  5  6  2  0
  6  7  1  0
  7  8  1  0
  8  9  1  0
  9 10  1  0
 10 11  1  0
 10 12  2  0
 12 13  1  0
 13 14  1  0
 14 15  2  0
 15 16  1  0
 16 17  2  0
 17 18  1  0
 18 19  1  0
 17 20  1  0
 20 21  2  0
  7 22  2  0
 22  3  1  0
 13  8  2  0
 21 14  1  0
  1 23  1  0
  1 24  1  0
  1 25  1  0
  2 26  1  0
  4 27  1  0
  5 28  1  0
  6 29  1  0
 11 30  1  0
 11 31  1  0
 11 32  1  0
 12 33  1  0
 15 34  1  0
 16 35  1  0
 19 36  1  0
 19 37  1  0
 19 38  1  0
 20 39  1  0
 21 40  1  0
 22 41  1  0
M  CHG  1  12   1
M  END
>  <UniqueID>  (55) 
45

>  <SMILES>  (55) 
CNc1cccc(-c2sc(C)[nH+]c2-c2ccc(OC)cc2)c1

>  <Energy>  (55) 
76.64195603531324

>  <Genealogy>  (55) 
CNc1cccc(-c2sc(C)[nH+]c2-c2ccc(OC)cc2)c1 (protonated)
CNc1cccc(-c2sc(C)[nH+]c2-c2ccc(OC)cc2)c1 (3D coordinates assigned)
CNc1cccc(-c2sc(C)[nH+]c2-c2ccc(OC)cc2)c1 (optimized conformer: 76.64195603531324 kcal/mol)

>  <smiles>  (55) 
CNc1cccc(-c2sc(C)nc2-c2ccc(OC)cc2)c1

>  <score_type>  (55) 
oracle

>  <origin>  (55) 
adg

>  <m_score__min__energy>  (55) 
-5.8499999999999996

>  <m_primary>  (55) 
energy

$$$$
55:0
     RDKit          3D

 38 39  0  0  0  0  0  0  0  0999 V2000
   57.0200   31.6900   44.8670 C   0  0  0  0  0  0  0  0  0  0  0  0
   56.6390   30.2720   44.9660 N   0  0  0  0  0  0  0  0  0  0  0  0
   55.5530   29.9600   44.0190 C   0  0  0  0  0  0  0  0  0  0  0  0
   57.8160   29.3580   44.8830 C   0  0  2  0  0  0  0  0  0  0  0  0
   57.4290   27.8690   44.6640 C   0  0  0  0  0  0  0  0  0  0  0  0
   56.4190   27.4330   45.6240 N   0  0  0  0  0  0  0  0  0  0  0  0
   55.8930   26.1050   45.6840 C   0  0  0  0  0  0  0  0  0  0  0  0
   54.6840   25.9360   45.9920 O   0  0  0  0  0  0  0  0  0  0  0  0
   56.7280   24.9310   45.3730 C   0  0  0  0  0  0  0  0  0  0  0  0
   56.2580   23.9590   44.4710 C   0  0  0  0  0  0  0  0  0  0  0  0
   55.0500   24.1030   43.8700 F   0  0  0  0  0  0  0  0  0  0  0  0
   57.0430   22.8430   44.1690 C   0  0  0  0  0  0  0  0  0  0  0  0
   58.3010   22.6890   44.7570 C   0  0  0  0  0  0  0  0  0  0  0  0
   58.7790   23.6530   45.6490 C   0  0  0  0  0  0  0  0  0  0  0  0
   58.0010   24.7750   45.9590 C   0  0  0  0  0  0  0  0  0  0  0  0
   58.6320   25.9490   47.1090 Cl  0  0  0  0  0  0  0  0  0  0  0  0
   58.7740   29.5520   46.0620 C   0  0  0  0  0  0  0  0  0  0  0  0
   60.0450   30.1190   45.8480 C   0  0  0  0  0  0  0  0  0  0  0  0
   60.9140   30.3340   46.9180 C   0  0  0  0  0  0  0  0  0  0  0  0
   60.5050   30.0050   48.2080 C   0  0  0  0  0  0  0  0  0  0  0  0
   59.2650   29.4930   48.4160 N   0  0  0  0  0  0  0  0  0  0  0  0
   58.3980   29.2710   47.3920 C   0  0  0  0  0  0  0  0  0  0  0  0
   57.1330   32.1107   45.8771 H   0  0  0  0  0  0  0  0  0  0  0  0
   57.9733   31.7766   44.3250 H   0  0  0  0  0  0  0  0  0  0  0  0
   56.2385   32.2427   44.3250 H   0  0  0  0  0  0  0  0  0  0  0  0
   54.6426   29.6985   44.5783 H   0  0  0  0  0  0  0  0  0  0  0  0
   55.3550   30.8376   43.3861 H   0  0  0  0  0  0  0  0  0  0  0  0
   55.8510   29.1111   43.3861 H   0  0  0  0  0  0  0  0  0  0  0  0
   58.3631   29.6489   43.9742 H   0  0  0  0  0  0  0  0  0  0  0  0
   57.0301   27.7492   43.6459 H   0  0  0  0  0  0  0  0  0  0  0  0
   58.3294   27.2534   44.8061 H   0  0  0  0  0  0  0  0  0  0  0  0
   56.6694   22.0836   43.4663 H   0  0  0  0  0  0  0  0  0  0  0  0
   58.9156   21.8086   44.5178 H   0  0  0  0  0  0  0  0  0  0  0  0
   59.7704   23.5297   46.1093 H   0  0  0  0  0  0  0  0  0  0  0  0
   60.3551   30.3946   44.8292 H   0  0  0  0  0  0  0  0  0  0  0  0
   61.9134   30.7596   46.7443 H   0  0  0  0  0  0  0  0  0  0  0  0
   61.1862   30.1599   49.0577 H   0  0  0  0  0  0  0  0  0  0  0  0
   57.3959   28.8692   47.6026 H   0  0  0  0  0  0  0  0  0  0  0  0
  1  2  1  0
  2  3  1  0
  2  4  1  0
  4  5  1  0
  5  6  1  0
  6  7  1  0
  7  8  2  0
  7  9  1  0
  9 10  2  0
 10 11  1  0
 10 12  1  0
 12 13  2  0
 13 14  1  0
 14 15  2  0
 15 16  1  0
  4 17  1  0
 17 18  2  0
 18 19  1  0
 19 20  2  0
 20 21  1  0
 21 22  2  0
 15  9  1  0
 22 17  1  0
  1 23  1  0
  1 24  1  0
  1 25  1  0
  3 26  1  0
  3 27  1  0
  3 28  1  0
  4 29  1  6
  5 30  1  0
  5 31  1  0
 12 32  1  0
 13 33  1  0
 14 34  1  0
 18 35  1  0
 19 36  1  0
 20 37  1  0
 22 38  1  0
M  CHG  1   6  -1
M  END
>  <UniqueID>  (56) 
46

>  <SMILES>  (56) 
CN(C)[C@H](C[N-]C(=O)c1c(F)cccc1Cl)c1cccnc1

>  <Energy>  (56) 
53.35883518335784

>  <Genealogy>  (56) 
CN(C)C(C[N-]C(=O)c1c(F)cccc1Cl)c1cccnc1 (protonated)
CN(C)[C@H](C[N-]C(=O)c1c(F)cccc1Cl)c1cccnc1 (chirality)
CN(C)[C@H](C[N-]C(=O)c1c(F)cccc1Cl)c1cccnc1 (3D coordinates assigned)
CN(C)[C@H](C[N-]C(=O)c1c(F)cccc1Cl)c1cccnc1 (optimized conformer: 53.35883518335784 kcal/mol)

>  <smiles>  (56) 
CN(C)C(CNC(=O)c1c(F)cccc1Cl)c1cccnc1

>  <score_type>  (56) 
oracle

>  <origin>  (56) 
adg

>  <m_score__min__energy>  (56) 
-8.7599999999999998

>  <m_primary>  (56) 
energy

$$$$
56:0
     RDKit          3D

 48 50  0  0  0  0  0  0  0  0999 V2000
   60.3420   33.7960   50.6660 C   0  0  0  0  0  0  0  0  0  0  0  0
   61.1900   32.6530   50.1150 C   0  0  0  0  0  0  0  0  0  0  0  0
   61.8120   33.0370   48.7880 C   0  0  0  0  0  0  0  0  0  0  0  0
   63.2140   33.1440   48.7370 C   0  0  0  0  0  0  0  0  0  0  0  0
   63.8660   33.4410   47.5420 C   0  0  0  0  0  0  0  0  0  0  0  0
   63.1320   33.6220   46.3760 C   0  0  0  0  0  0  0  0  0  0  0  0
   61.7430   33.5100   46.3970 C   0  0  0  0  0  0  0  0  0  0  0  0
   61.0500   33.2180   47.5950 C   0  0  0  0  0  0  0  0  0  0  0  0
   59.5190   33.1380   47.6050 C   0  0  1  0  0  0  0  0  0  0  0  0
   58.8740   34.5480   47.5070 C   0  0  0  0  0  0  0  0  0  0  0  0
   58.4980   34.9480   46.1380 N   0  0  0  0  0  0  0  0  0  0  0  0
   59.6430   35.2770   45.2720 C   0  0  0  0  0  0  0  0  0  0  0  0
   57.5720   33.9900   45.5130 C   0  0  0  0  0  0  0  0  0  0  0  0
   58.0790   32.5690   45.5710 C   0  0  0  0  0  0  0  0  0  0  0  0
   57.5830   31.6280   44.6560 C   0  0  0  0  0  0  0  0  0  0  0  0
   57.9580   30.2720   44.7270 C   0  0  0  0  0  0  0  0  0  0  0  0
   57.4530   29.3060   43.7690 N   0  0  0  0  0  0  0  0  0  0  0  0
   58.0010   27.9450   43.7220 C   0  0  0  0  0  0  0  0  0  0  0  0
   56.3860   29.6740   42.8290 C   0  0  0  0  0  0  0  0  0  0  0  0
   58.8300   29.8750   45.7590 C   0  0  0  0  0  0  0  0  0  0  0  0
   59.3120   30.8020   46.6830 C   0  0  0  0  0  0  0  0  0  0  0  0
   58.9520   32.1560   46.5960 C   0  0  0  0  0  0  0  0  0  0  0  0
   60.3614   33.7699   51.7655 H   0  0  0  0  0  0  0  0  0  0  0  0
   60.7480   34.7561   50.3148 H   0  0  0  0  0  0  0  0  0  0  0  0
   59.3054   33.6858   50.3148 H   0  0  0  0  0  0  0  0  0  0  0  0
   61.9891   32.4178   50.8334 H   0  0  0  0  0  0  0  0  0  0  0  0
   60.5437   31.7763   49.9613 H   0  0  0  0  0  0  0  0  0  0  0  0
   63.8034   32.9911   49.6531 H   0  0  0  0  0  0  0  0  0  0  0  0
   64.9620   33.5322   47.5215 H   0  0  0  0  0  0  0  0  0  0  0  0
   63.6490   33.8545   45.4333 H   0  0  0  0  0  0  0  0  0  0  0  0
   61.1755   33.6512   45.4653 H   0  0  0  0  0  0  0  0  0  0  0  0
   59.2392   32.7211   48.5838 H   0  0  0  0  0  0  0  0  0  0  0  0
   57.9674   34.5565   48.1300 H   0  0  0  0  0  0  0  0  0  0  0  0
   59.6332   35.2669   47.8487 H   0  0  0  0  0  0  0  0  0  0  0  0
   60.5141   35.5273   45.8953 H   0  0  0  0  0  0  0  0  0  0  0  0
   59.8830   34.4115   44.6370 H   0  0  0  0  0  0  0  0  0  0  0  0
   59.3870   36.1379   44.6370 H   0  0  0  0  0  0  0  0  0  0  0  0
   56.6061   34.0409   46.0368 H   0  0  0  0  0  0  0  0  0  0  0  0
   57.4739   34.2654   44.4526 H   0  0  0  0  0  0  0  0  0  0  0  0
   56.8883   31.9553   43.8684 H   0  0  0  0  0  0  0  0  0  0  0  0
   58.1503   27.5742   44.7468 H   0  0  0  0  0  0  0  0  0  0  0  0
   57.2985   27.2850   43.1920 H   0  0  0  0  0  0  0  0  0  0  0  0
   58.9648   27.9559   43.1920 H   0  0  0  0  0  0  0  0  0  0  0  0
   55.4922   29.9823   43.3913 H   0  0  0  0  0  0  0  0  0  0  0  0
   56.7262   30.5067   42.1959 H   0  0  0  0  0  0  0  0  0  0  0  0
   56.1405   28.8086   42.1959 H   0  0  0  0  0  0  0  0  0  0  0  0
   59.1347   28.8210   45.8374 H   0  0  0  0  0  0  0  0  0  0  0  0
   59.9819   30.4682   47.4891 H   0  0  0  0  0  0  0  0  0  0  0  0
  1  2  1  0
  2  3  1  0
  3  4  2  0
  4  5  1  0
  5  6  2  0
  6  7  1  0
  7  8  2  0
  8  9  1  0
  9 10  1  0
 10 11  1  0
 11 12  1  0
 11 13  1  0
 13 14  1  0
 14 15  2  0
 15 16  1  0
 16 17  1  0
 17 18  1  0
 17 19  1  0
 16 20  2  0
 20 21  1  0
 21 22  2  0
  8  3  1  0
 22  9  1  0
 22 14  1  0
  1 23  1  0
  1 24  1  0
  1 25  1  0
  2 26  1  0
  2 27  1  0
  4 28  1  0
  5 29  1  0
  6 30  1  0
  7 31  1  0
  9 32  1  1
 10 33  1  0
 10 34  1  0
 12 35  1  0
 12 36  1  0
 12 37  1  0
 13 38  1  0
 13 39  1  0
 15 40  1  0
 18 41  1  0
 18 42  1  0
 18 43  1  0
 19 44  1  0
 19 45  1  0
 19 46  1  0
 20 47  1  0
 21 48  1  0
M  END
>  <UniqueID>  (57) 
47

>  <SMILES>  (57) 
CCc1ccccc1[C@H]1CN(C)Cc2cc(N(C)C)ccc21

>  <Energy>  (57) 
60.68135458125701

>  <Genealogy>  (57) 
CCc1ccccc1[C@H]1CN(C)Cc2cc(N(C)C)ccc21 (chirality)
CCc1ccccc1[C@H]1CN(C)Cc2cc(N(C)C)ccc21 (3D coordinates assigned)
CCc1ccccc1[C@H]1CN(C)Cc2cc(N(C)C)ccc21 (nonaromatic ring conformer: 60.68135458125701 kcal/mol)

>  <smiles>  (57) 
CCc1ccccc1C1CN(C)Cc2cc(N(C)C)ccc21

>  <score_type>  (57) 
oracle

>  <origin>  (57) 
adg

>  <m_score__min__energy>  (57) 
-7.7199999999999998

>  <m_primary>  (57) 
energy

$$$$
57:0
     RDKit          3D

 24 26  0  0  0  0  0  0  0  0999 V2000
   59.6440   35.3400   46.6200 C   0  0  0  0  0  0  0  0  0  0  0  0
   59.3530   34.3410   47.5530 C   0  0  0  0  0  0  0  0  0  0  0  0
   58.7270   33.1590   47.1420 C   0  0  0  0  0  0  0  0  0  0  0  0
   58.3880   32.9690   45.7910 C   0  0  0  0  0  0  0  0  0  0  0  0
   57.7270   31.7260   45.3490 C   0  0  0  0  0  0  0  0  0  0  0  0
   56.5010   31.6680   44.7930 N   0  0  0  0  0  0  0  0  0  0  0  0
   56.2650   30.3910   44.5380 N   0  0  0  0  0  0  0  0  0  0  0  0
   57.3560   29.7180   44.9490 C   0  0  0  0  0  0  0  0  0  0  0  0
   57.5160   28.2640   44.8500 C   0  0  0  0  0  0  0  0  0  0  0  0
   58.1360   27.5840   43.8100 C   0  0  0  0  0  0  0  0  0  0  0  0
   58.1390   26.1960   43.9870 C   0  0  0  0  0  0  0  0  0  0  0  0
   57.5260   25.7810   45.1610 C   0  0  0  0  0  0  0  0  0  0  0  0
   56.9760   27.1430   45.9810 S   0  0  0  0  0  0  0  0  0  0  0  0
   58.2570   30.5290   45.4470 O   0  0  0  0  0  0  0  0  0  0  0  0
   58.6850   33.9790   44.8600 C   0  0  0  0  0  0  0  0  0  0  0  0
   59.3110   35.1590   45.2760 C   0  0  0  0  0  0  0  0  0  0  0  0
   60.1355   36.2691   46.9444 H   0  0  0  0  0  0  0  0  0  0  0  0
   59.6163   34.4840   48.6114 H   0  0  0  0  0  0  0  0  0  0  0  0
   58.4992   32.3751   47.8792 H   0  0  0  0  0  0  0  0  0  0  0  0
   58.5792   28.0850   42.9368 H   0  0  0  0  0  0  0  0  0  0  0  0
   58.5857   25.4986   43.2630 H   0  0  0  0  0  0  0  0  0  0  0  0
   57.4182   24.7394   45.4978 H   0  0  0  0  0  0  0  0  0  0  0  0
   58.4243   33.8412   43.8003 H   0  0  0  0  0  0  0  0  0  0  0  0
   59.5414   35.9459   44.5428 H   0  0  0  0  0  0  0  0  0  0  0  0
  1  2  2  0
  2  3  1  0
  3  4  2  0
  4  5  1  0
  5  6  2  0
  6  7  1  0
  7  8  2  0
  8  9  1  0
  9 10  2  0
 10 11  1  0
 11 12  2  0
 12 13  1  0
  8 14  1  0
  4 15  1  0
 15 16  2  0
 16  1  1  0
 14  5  1  0
 13  9  1  0
  1 17  1  0
  2 18  1  0
  3 19  1  0
 10 20  1  0
 11 21  1  0
 12 22  1  0
 15 23  1  0
 16 24  1  0
M  END
>  <UniqueID>  (58) 
48

>  <SMILES>  (58) 
c1ccc(-c2nnc(-c3cccs3)o2)cc1

>  <Energy>  (58) 
86.37612207922403

>  <Genealogy>  (58) 
c1ccc(-c2nnc(-c3cccs3)o2)cc1 (3D coordinates assigned)
c1ccc(-c2nnc(-c3cccs3)o2)cc1 (optimized conformer: 86.37612207922403 kcal/mol)

>  <smiles>  (58) 
c1ccc(-c2nnc(-c3cccs3)o2)cc1

>  <score_type>  (58) 
oracle

>  <origin>  (58) 
adg

>  <m_score__min__energy>  (58) 
-6.9199999999999999

>  <m_primary>  (58) 
energy

$$$$
58:0
     RDKit          3D

 27 29  0  0  0  0  0  0  0  0999 V2000
   54.8650   29.0350   42.6310 H   0  0  0  0  0  0  0  0  0  0  0  0
   54.7690   29.4550   43.5830 N   0  0  0  0  0  0  0  0  0  0  0  0
   55.7960   29.6400   44.3460 C   0  0  0  0  0  0  0  0  0  0  0  0
   56.3230   30.8840   44.4940 N   0  0  0  0  0  0  0  0  0  0  0  0
   57.4050   31.0810   45.2920 C   0  0  0  0  0  0  0  0  0  0  0  0
   57.9890   32.4260   45.4530 C   0  0  0  0  0  0  0  0  0  0  0  0
   57.9900   33.4310   44.4870 C   0  0  0  0  0  0  0  0  0  0  0  0
   57.5503   33.3346   43.4833 H   0  0  0  0  0  0  0  0  0  0  0  0
   58.6050   34.5390   44.9530 N   0  0  0  0  0  0  0  0  0  0  0  0
   58.7460   35.4380   44.4380 H   0  0  0  0  0  0  0  0  0  0  0  0
   58.9940   34.2510   46.2050 C   0  0  0  0  0  0  0  0  0  0  0  0
   59.6720   35.0930   47.0870 C   0  0  0  0  0  0  0  0  0  0  0  0
   59.9496   36.1163   46.7940 H   0  0  0  0  0  0  0  0  0  0  0  0
   59.9890   34.5930   48.3610 C   0  0  0  0  0  0  0  0  0  0  0  0
   60.5233   35.2308   49.0805 H   0  0  0  0  0  0  0  0  0  0  0  0
   59.6270   33.2790   48.7240 C   0  0  0  0  0  0  0  0  0  0  0  0
   59.8815   32.8991   49.7245 H   0  0  0  0  0  0  0  0  0  0  0  0
   58.9430   32.4510   47.8160 C   0  0  0  0  0  0  0  0  0  0  0  0
   58.6562   31.4251   48.0904 H   0  0  0  0  0  0  0  0  0  0  0  0
   58.6380   32.9710   46.5530 C   0  0  0  0  0  0  0  0  0  0  0  0
   57.9550   30.0220   45.9430 N   0  0  0  0  0  0  0  0  0  0  0  0
   57.4240   28.7800   45.8090 C   0  0  0  0  0  0  0  0  0  0  0  0
   58.0570   27.6180   46.4970 C   0  0  0  0  0  0  0  0  0  0  0  0
   57.9838   27.7525   47.5863 H   0  0  0  0  0  0  0  0  0  0  0  0
   57.5383   26.6926   46.2061 H   0  0  0  0  0  0  0  0  0  0  0  0
   59.1158   27.5519   46.2061 H   0  0  0  0  0  0  0  0  0  0  0  0
   56.3500   28.5890   44.9990 N   0  0  0  0  0  0  0  0  0  0  0  0
  1  2  1  0
  2  3  2  0
  3  4  1  0
  4  5  2  0
  5  6  1  0
  6  7  2  0
  7  8  1  0
  7  9  1  0
  9 10  1  0
  9 11  1  0
 11 12  2  0
 12 13  1  0
 12 14  1  0
 14 15  1  0
 14 16  2  0
 16 17  1  0
 16 18  1  0
 18 19  1  0
 18 20  2  0
  5 21  1  0
 21 22  1  0
 22 23  1  0
 23 24  1  0
 23 25  1  0
 23 26  1  0
 22 27  2  0
 27  3  1  0
 20  6  1  0
 20 11  1  0
M  CHG  1  21  -1
M  END
>  <UniqueID>  (59) 
49

>  <SMILES>  (59) 
[H]/N=c1/nc(C)[n-]c(-c2c[nH]c3ccccc23)n1

>  <Energy>  (59) 
62.30294011211682

>  <Genealogy>  (59) 
Cc1nc(=N)nc(-c2c[nH]c3ccccc23)[n-]1 (protonated)
[H]/N=c1/nc(C)[n-]c(-c2c[nH]c3ccccc23)n1 (cis-trans isomerization)
[H]/N=c1/nc(C)[n-]c(-c2c[nH]c3ccccc23)n1 (3D coordinates assigned)
[H]/N=c1/nc(C)[n-]c(-c2c[nH]c3ccccc23)n1 (optimized conformer: 62.30294011211682 kcal/mol)

>  <smiles>  (59) 
Cc1nc(=N)nc(-c2c[nH]c3ccccc23)[nH]1

>  <score_type>  (59) 
oracle

>  <origin>  (59) 
adg

>  <m_score__min__energy>  (59) 
-8.5299999999999994

>  <m_primary>  (59) 
energy

$$$$
59:0
     RDKit          3D

 41 42  0  0  1  0  0  0  0  0999 V2000
   59.4950   29.8380   50.4270 C   0  0  0  0  0  0  0  0  0  0  0  0
   60.6970   29.3820   49.7340 N   0  0  0  0  0  0  0  0  0  0  0  0
   60.4520   28.0290   49.3000 C   0  0  0  0  0  0  0  0  0  0  0  0
   61.7660   29.5010   50.6770 C   0  0  0  0  0  0  0  0  0  0  0  0
   62.3510   30.9200   50.7640 C   0  0  0  0  0  0  0  0  0  0  0  0
   63.0160   31.0870   49.4860 N   0  0  0  0  0  0  0  0  0  0  0  0
   62.4450   31.8180   48.6010 C   0  0  0  0  0  0  0  0  0  0  0  0
   61.4160   31.2720   47.8940 N   0  0  0  0  0  0  0  0  0  0  0  0
   60.7520   31.9510   46.9460 C   0  0  0  0  0  0  0  0  0  0  0  0
   59.6500   31.3900   46.1790 C   0  0  0  0  0  0  0  0  0  0  0  0
   59.5360   30.0480   45.8790 C   0  0  0  0  0  0  0  0  0  0  0  0
   58.4810   29.5320   45.1490 C   0  0  0  0  0  0  0  0  0  0  0  0
   57.4870   30.3770   44.6870 C   0  0  0  0  0  0  0  0  0  0  0  0
   56.3800   29.8170   43.9180 C   0  0  0  0  0  0  0  0  0  0  0  0
   56.4870   29.6260   42.6480 N   0  0  0  0  0  0  0  0  0  0  0  0
   55.1780   29.4840   44.5980 N   0  0  0  0  0  0  0  0  0  0  0  0
   57.5770   31.7210   44.9740 C   0  0  0  0  0  0  0  0  0  0  0  0
   58.6420   32.2110   45.7060 C   0  0  0  0  0  0  0  0  0  0  0  0
   61.1350   33.2090   46.7050 N   0  0  0  0  0  0  0  0  0  0  0  0
   62.1370   33.8300   47.3520 C   0  0  0  0  0  0  0  0  0  0  0  0
   62.8000   33.1170   48.3150 C   0  0  0  0  0  0  0  0  0  0  0  0
   63.8170   33.6980   48.9920 F   0  0  0  0  0  0  0  0  0  0  0  0
   59.6533   29.7779   51.5139 H   0  0  0  0  0  0  0  0  0  0  0  0
   59.2817   30.8795   50.1445 H   0  0  0  0  0  0  0  0  0  0  0  0
   58.6446   29.2000   50.1445 H   0  0  0  0  0  0  0  0  0  0  0  0
   60.3341   27.3778   50.1786 H   0  0  0  0  0  0  0  0  0  0  0  0
   59.5337   27.9985   48.6951 H   0  0  0  0  0  0  0  0  0  0  0  0
   61.3013   27.6785   48.6951 H   0  0  0  0  0  0  0  0  0  0  0  0
   61.3871   29.2190   51.6704 H   0  0  0  0  0  0  0  0  0  0  0  0
   62.5744   28.8378   50.3355 H   0  0  0  0  0  0  0  0  0  0  0  0
   61.5542   31.6672   50.8940 H   0  0  0  0  0  0  0  0  0  0  0  0
   63.0270   31.0545   51.6213 H   0  0  0  0  0  0  0  0  0  0  0  0
   61.1510   30.2890   48.1140 H   0  0  0  0  0  0  0  0  0  0  0  0
   60.3168   29.3600   46.2354 H   0  0  0  0  0  0  0  0  0  0  0  0
   58.4320   28.4539   44.9363 H   0  0  0  0  0  0  0  0  0  0  0  0
   57.4250   29.5680   42.2130 H   0  0  0  0  0  0  0  0  0  0  0  0
   54.7680   28.5290   44.5010 H   0  0  0  0  0  0  0  0  0  0  0  0
   54.7480   30.2360   45.1830 H   0  0  0  0  0  0  0  0  0  0  0  0
   56.7960   32.4091   44.6182 H   0  0  0  0  0  0  0  0  0  0  0  0
   58.6897   33.2890   45.9195 H   0  0  0  0  0  0  0  0  0  0  0  0
   62.4129   34.8686   47.1172 H   0  0  0  0  0  0  0  0  0  0  0  0
  1  2  1  0
  2  3  1  0
  2  4  1  0
  4  5  1  0
  5  6  1  0
  6  7  2  0
  7  8  1  0
  8  9  1  0
  9 10  1  0
 10 11  2  0
 11 12  1  0
 12 13  2  0
 13 14  1  0
 14 15  2  3
 14 16  1  0
 13 17  1  0
 17 18  2  0
  9 19  2  0
 19 20  1  0
 20 21  2  0
 21 22  1  0
 21  7  1  0
 18 10  1  0
  1 23  1  0
  1 24  1  0
  1 25  1  0
  3 26  1  0
  3 27  1  0
  3 28  1  0
  4 29  1  0
  4 30  1  0
  5 31  1  0
  5 32  1  0
  8 33  1  0
 11 34  1  0
 12 35  1  0
 15 36  1  0
 16 37  1  0
 16 38  1  0
 17 39  1  0
 18 40  1  0
 20 41  1  0
M  END
>  <smiles>  (60) 
CN(C)CCN=c1[nH]c(-c2ccc(C(=N)N)cc2)ncc1F

>  <score_type>  (60) 
oracle

>  <origin>  (60) 
adg

>  <m_score__min__energy>  (60) 
-6.9199999999999999

>  <m_primary>  (60) 
energy

$$$$
60:0
     RDKit          3D

 40 43  0  0  0  0  0  0  0  0999 V2000
   56.6390   30.4950   42.2540 C   0  0  0  0  0  0  0  0  0  0  0  0
   57.4480   31.6280   42.3630 C   0  0  0  0  0  0  0  0  0  0  0  0
   57.9840   31.9900   43.6030 C   0  0  0  0  0  0  0  0  0  0  0  0
   57.7240   31.2140   44.7460 C   0  0  0  0  0  0  0  0  0  0  0  0
   58.2760   31.6050   46.0170 N   0  0  0  0  0  0  0  0  0  0  0  0
   58.3880   30.7840   47.0580 N   0  0  0  0  0  0  0  0  0  0  0  0
   58.9320   31.4700   48.0960 C   0  0  0  0  0  0  0  0  0  0  0  0
   59.1470   32.7690   47.6860 C   0  0  0  0  0  0  0  0  0  0  0  0
   59.6420   33.9130   48.3040 C   0  0  0  0  0  0  0  0  0  0  0  0
   60.2260   33.8990   50.0050 S   0  0  0  0  0  0  0  0  0  0  0  0
   61.9700   33.3810   49.7090 C   0  0  0  0  0  0  0  0  0  0  0  0
   62.0560   31.9050   49.2610 C   0  0  0  0  0  0  0  0  0  0  0  0
   63.4400   31.5900   48.6860 C   0  0  0  0  0  0  0  0  0  0  0  0
   63.7480   32.4370   47.4320 C   0  0  0  0  0  0  0  0  0  0  0  0
   62.9900   33.7790   47.3880 C   0  0  0  0  0  0  0  0  0  0  0  0
   62.7610   34.3510   48.7930 C   0  0  0  0  0  0  0  0  0  0  0  0
   59.7240   35.0480   47.5490 N   0  0  0  0  0  0  0  0  0  0  0  0
   59.2910   35.0770   46.2490 C   0  0  0  0  0  0  0  0  0  0  0  0
   58.7820   33.9530   45.6610 N   0  0  0  0  0  0  0  0  0  0  0  0
   58.7360   32.8130   46.3940 C   0  0  0  0  0  0  0  0  0  0  0  0
   56.8940   30.0820   44.6270 C   0  0  0  0  0  0  0  0  0  0  0  0
   56.3600   29.7250   43.3860 C   0  0  0  0  0  0  0  0  0  0  0  0
   56.2216   30.2089   41.2773 H   0  0  0  0  0  0  0  0  0  0  0  0
   57.6640   32.2365   41.4725 H   0  0  0  0  0  0  0  0  0  0  0  0
   58.6135   32.8884   43.6845 H   0  0  0  0  0  0  0  0  0  0  0  0
   59.1613   31.0607   49.0909 H   0  0  0  0  0  0  0  0  0  0  0  0
   62.4831   33.4470   50.6798 H   0  0  0  0  0  0  0  0  0  0  0  0
   61.8689   31.2538   50.1276 H   0  0  0  0  0  0  0  0  0  0  0  0
   61.3018   31.7296   48.4797 H   0  0  0  0  0  0  0  0  0  0  0  0
   64.2001   31.8002   49.4528 H   0  0  0  0  0  0  0  0  0  0  0  0
   63.4549   30.5296   48.3937 H   0  0  0  0  0  0  0  0  0  0  0  0
   64.8275   32.6472   47.4117 H   0  0  0  0  0  0  0  0  0  0  0  0
   63.4173   31.8527   46.5607 H   0  0  0  0  0  0  0  0  0  0  0  0
   63.5775   34.5006   46.8013 H   0  0  0  0  0  0  0  0  0  0  0  0
   62.0072   33.6013   46.9271 H   0  0  0  0  0  0  0  0  0  0  0  0
   63.7386   34.5536   49.2548 H   0  0  0  0  0  0  0  0  0  0  0  0
   62.1653   35.2695   48.6863 H   0  0  0  0  0  0  0  0  0  0  0  0
   59.3536   36.0127   45.6740 H   0  0  0  0  0  0  0  0  0  0  0  0
   56.6650   29.4758   45.5158 H   0  0  0  0  0  0  0  0  0  0  0  0
   55.7184   28.8356   43.3001 H   0  0  0  0  0  0  0  0  0  0  0  0
  1  2  2  0
  2  3  1  0
  3  4  2  0
  4  5  1  0
  5  6  1  0
  6  7  2  0
  7  8  1  0
  8  9  2  0
  9 10  1  0
 10 11  1  0
 11 12  1  0
 12 13  1  0
 13 14  1  0
 14 15  1  0
 15 16  1  0
  9 17  1  0
 17 18  2  0
 18 19  1  0
 19 20  2  0
  4 21  1  0
 21 22  2  0
 22  1  1  0
 20  5  1  0
 20  8  1  0
 16 11  1  0
  1 23  1  0
  2 24  1  0
  3 25  1  0
  7 26  1  0
 11 27  1  0
 12 28  1  0
 12 29  1  0
 13 30  1  0
 13 31  1  0
 14 32  1  0
 14 33  1  0
 15 34  1  0
 15 35  1  0
 16 36  1  0
 16 37  1  0
 18 38  1  0
 21 39  1  0
 22 40  1  0
M  END
>  <UniqueID>  (61) 
50

>  <SMILES>  (61) 
c1ccc(-n2ncc3c(SC4CCCCC4)ncnc32)cc1

>  <Energy>  (61) 
90.2209123809483

>  <Genealogy>  (61) 
c1ccc(-n2ncc3c(SC4CCCCC4)ncnc32)cc1 (3D coordinates assigned)
c1ccc(-n2ncc3c(SC4CCCCC4)ncnc32)cc1 (nonaromatic ring conformer: 90.2209123809483 kcal/mol)

>  <smiles>  (61) 
c1ccc(-n2ncc3c(SC4CCCCC4)ncnc32)cc1

>  <score_type>  (61) 
oracle

>  <origin>  (61) 
adg

>  <m_score__min__energy>  (61) 
-7.6900000000000004

>  <m_primary>  (61) 
energy

$$$$
61:0
     RDKit          3D

 46 49  0  0  0  0  0  0  0  0999 V2000
   57.3860   28.3100   45.8930 C   0  0  0  0  0  0  0  0  0  0  0  0
   58.2380   28.8050   44.6930 C   0  0  2  0  0  0  0  0  0  0  0  0
   59.7280   28.4700   44.8840 C   0  0  0  0  0  0  0  0  0  0  0  0
   60.2960   29.2020   46.1270 C   0  0  0  0  0  0  0  0  0  0  0  0
   59.9370   30.7310   46.2340 C   0  0  1  0  0  0  0  0  0  0  0  0
   58.5680   31.0890   45.6500 C   0  0  0  0  0  0  0  0  0  0  0  0
   58.0270   32.2840   45.9260 C   0  0  0  0  0  0  0  0  0  0  0  0
   58.6550   33.1990   46.8910 C   0  0  0  0  0  0  0  0  0  0  0  0
   59.6710   32.8050   47.6790 C   0  0  0  0  0  0  0  0  0  0  0  0
   60.2580   33.7820   48.6660 C   0  0  0  0  0  0  0  0  0  0  0  0
   61.4870   34.3190   48.1900 O   0  0  0  0  0  0  0  0  0  0  0  0
   62.6370   33.5740   47.8950 C   0  0  0  0  0  0  0  0  0  0  0  0
   63.7450   34.1720   47.9020 O   0  0  0  0  0  0  0  0  0  0  0  0
   62.6090   32.1390   47.4250 C   0  0  0  0  0  0  0  0  0  0  0  0
   61.6060   31.2320   48.1650 C   0  0  0  0  0  0  0  0  0  0  0  0
   60.1240   31.3450   47.6830 C   0  0  2  0  0  0  0  0  0  0  0  0
   59.2280   30.6140   48.7170 C   0  0  0  0  0  0  0  0  0  0  0  0
   58.1410   30.3070   44.4390 C   0  0  2  0  0  0  0  0  0  0  0  0
   56.7790   30.5160   43.7710 C   0  0  0  0  0  0  0  0  0  0  0  0
   56.6490   29.2900   42.8490 C   0  0  0  0  0  0  0  0  0  0  0  0
   57.5960   28.2930   43.4470 C   0  0  0  0  0  0  0  0  0  0  0  0
   57.7690   27.1710   42.9980 O   0  0  0  0  0  0  0  0  0  0  0  0
   57.8778   28.5958   46.8345 H   0  0  0  0  0  0  0  0  0  0  0  0
   56.3871   28.7684   45.8473 H   0  0  0  0  0  0  0  0  0  0  0  0
   57.2895   27.2152   45.8473 H   0  0  0  0  0  0  0  0  0  0  0  0
   60.2872   28.7864   43.9911 H   0  0  0  0  0  0  0  0  0  0  0  0
   59.8317   27.3851   45.0328 H   0  0  0  0  0  0  0  0  0  0  0  0
   61.3920   29.1119   46.1023 H   0  0  0  0  0  0  0  0  0  0  0  0
   59.8319   28.7203   47.0002 H   0  0  0  0  0  0  0  0  0  0  0  0
   60.6913   31.2125   45.5944 H   0  0  0  0  0  0  0  0  0  0  0  0
   57.0970   32.5855   45.4218 H   0  0  0  0  0  0  0  0  0  0  0  0
   58.2843   34.2316   46.9702 H   0  0  0  0  0  0  0  0  0  0  0  0
   60.4382   33.2641   49.6196 H   0  0  0  0  0  0  0  0  0  0  0  0
   59.5461   34.6094   48.8024 H   0  0  0  0  0  0  0  0  0  0  0  0
   63.6155   31.7160   47.5593 H   0  0  0  0  0  0  0  0  0  0  0  0
   62.2837   32.1652   46.3745 H   0  0  0  0  0  0  0  0  0  0  0  0
   61.6368   31.4916   49.2335 H   0  0  0  0  0  0  0  0  0  0  0  0
   61.9170   30.1982   47.9542 H   0  0  0  0  0  0  0  0  0  0  0  0
   59.5519   30.8782   49.7345 H   0  0  0  0  0  0  0  0  0  0  0  0
   58.1806   30.9186   48.5749 H   0  0  0  0  0  0  0  0  0  0  0  0
   59.3162   29.5268   48.5749 H   0  0  0  0  0  0  0  0  0  0  0  0
   58.8597   30.7413   43.7285 H   0  0  0  0  0  0  0  0  0  0  0  0
   56.7635   31.4500   43.1902 H   0  0  0  0  0  0  0  0  0  0  0  0
   55.9531   30.6034   44.4923 H   0  0  0  0  0  0  0  0  0  0  0  0
   56.9426   29.5410   41.8190 H   0  0  0  0  0  0  0  0  0  0  0  0
   55.6177   28.9127   42.7846 H   0  0  0  0  0  0  0  0  0  0  0  0
  2  1  1  1
  2  3  1  0
  3  4  1  0
  4  5  1  0
  5  6  1  0
  6  7  2  0
  7  8  1  0
  8  9  2  0
  9 10  1  0
 10 11  1  0
 11 12  1  0
 12 13  2  0
 12 14  1  0
 14 15  1  0
 15 16  1  0
 16 17  1  1
  6 18  1  0
 18 19  1  0
 19 20  1  0
 20 21  1  0
 21 22  2  0
 18  2  1  0
 21  2  1  0
 16  5  1  0
 16  9  1  0
  1 23  1  0
  1 24  1  0
  1 25  1  0
  3 26  1  0
  3 27  1  0
  4 28  1  0
  4 29  1  0
  5 30  1  6
  7 31  1  0
  8 32  1  0
 10 33  1  0
 10 34  1  0
 14 35  1  0
 14 36  1  0
 15 37  1  0
 15 38  1  0
 17 39  1  0
 17 40  1  0
 17 41  1  0
 18 42  1  6
 19 43  1  0
 19 44  1  0
 20 45  1  0
 20 46  1  0
M  END
>  <UniqueID>  (62) 
51

>  <SMILES>  (62) 
CC12CCC(=O)OCC1=CC=C1C3CCC(=O)[C@@]3(C)CC[C@@H]12

>  <Energy>  (62) 
76.09411500295833

>  <Genealogy>  (62) 
CC12CCC(=O)OCC1=CC=C1C3CCC(=O)[C@@]3(C)CC[C@@H]12 (chirality)
CC12CCC(=O)OCC1=CC=C1C3CCC(=O)[C@@]3(C)CC[C@@H]12 (3D coordinates assigned)
CC12CCC(=O)OCC1=CC=C1C3CCC(=O)[C@@]3(C)CC[C@@H]12 (nonaromatic ring conformer: 76.09411500295833 kcal/mol)

>  <smiles>  (62) 
CC12CCC3C(=CC=C4COC(=O)CCC43C)C1CCC2=O

>  <score_type>  (62) 
oracle

>  <origin>  (62) 
adg

>  <m_score__min__energy>  (62) 
-7.1100000000000003

>  <m_primary>  (62) 
energy

$$$$
62:0
     RDKit          3D

 55 58  0  0  1  0  0  0  0  0999 V2000
   63.7730   33.0860   46.9790 C   0  0  0  0  0  0  0  0  0  0  0  0
   62.3500   33.5640   46.8180 C   0  0  0  0  0  0  0  0  0  0  0  0
   61.7330   33.6610   48.1970 C   0  0  0  0  0  0  0  0  0  0  0  0
   61.4240   32.2510   48.7040 C   0  0  0  0  0  0  0  0  0  0  0  0
   59.9760   31.9400   48.3890 C   0  0  0  0  0  0  0  0  0  0  0  0
   58.5280   26.7470   45.8350 N   0  0  0  0  0  0  0  0  0  0  0  0
   57.4250   26.0660   45.7410 C   0  0  0  0  0  0  0  0  0  0  0  0
   57.2180   24.9530   44.9700 C   0  0  0  0  0  0  0  0  0  0  0  0
   58.4310   28.1480   46.1000 C   0  0  0  0  0  0  0  0  0  0  0  0
   56.9070   31.0640   44.9290 N   0  0  0  0  0  0  0  0  0  0  0  0
   57.6250   30.2750   45.6430 C   0  0  0  0  0  0  0  0  0  0  0  0
   59.1550   28.6410   47.1820 C   0  0  0  0  0  0  0  0  0  0  0  0
   55.9000   24.5210   45.1480 C   0  0  0  0  0  0  0  0  0  0  0  0
   55.2860   23.3370   44.4810 C   0  0  0  0  0  0  0  0  0  0  0  0
   56.1440   22.2220   44.0810 C   0  0  0  0  0  0  0  0  0  0  0  0
   55.5530   23.1980   43.0310 C   0  0  0  0  0  0  0  0  0  0  0  0
   55.3620   25.3790   46.0120 N   0  0  0  0  0  0  0  0  0  0  0  0
   56.2490   26.3010   46.3740 N   0  0  0  0  0  0  0  0  0  0  0  0
   57.6790   28.9790   45.3520 N   0  0  0  0  0  0  0  0  0  0  0  0
   59.0670   30.0050   47.4470 C   0  0  0  0  0  0  0  0  0  0  0  0
   59.7220   30.5030   48.4390 N   0  0  0  0  0  0  0  0  0  0  0  0
   57.3880   32.1390   44.1090 C   0  0  0  0  0  0  0  0  0  0  0  0
   58.0340   33.2210   44.9560 C   0  0  0  0  0  0  0  0  0  0  0  0
   59.1320   33.8770   44.5980 C   0  0  0  0  0  0  0  0  0  0  0  0
   59.6470   34.8440   45.4220 C   0  0  0  0  0  0  0  0  0  0  0  0
   58.5190   34.8880   46.8650 S   0  0  0  0  0  0  0  0  0  0  0  0
   57.4400   33.5480   46.1730 C   0  0  0  0  0  0  0  0  0  0  0  0
   58.3090   30.7890   46.6790 N   0  0  0  0  0  0  0  0  0  0  0  0
   64.0138   33.0051   48.0493 H   0  0  0  0  0  0  0  0  0  0  0  0
   63.8850   32.1009   46.5025 H   0  0  0  0  0  0  0  0  0  0  0  0
   64.4570   33.8037   46.5025 H   0  0  0  0  0  0  0  0  0  0  0  0
   62.3400   34.5516   46.3337 H   0  0  0  0  0  0  0  0  0  0  0  0
   61.7790   32.8633   46.1911 H   0  0  0  0  0  0  0  0  0  0  0  0
   62.4381   34.1534   48.8828 H   0  0  0  0  0  0  0  0  0  0  0  0
   60.8055   34.2505   48.1488 H   0  0  0  0  0  0  0  0  0  0  0  0
   62.0786   31.5233   48.2020 H   0  0  0  0  0  0  0  0  0  0  0  0
   61.5975   32.1914   49.7886 H   0  0  0  0  0  0  0  0  0  0  0  0
   59.3324   32.4440   49.1250 H   0  0  0  0  0  0  0  0  0  0  0  0
   59.7560   32.2976   47.3723 H   0  0  0  0  0  0  0  0  0  0  0  0
   57.9655   24.4773   44.3181 H   0  0  0  0  0  0  0  0  0  0  0  0
   59.7735   27.9776   47.8044 H   0  0  0  0  0  0  0  0  0  0  0  0
   54.3786   23.3849   45.1010 H   0  0  0  0  0  0  0  0  0  0  0  0
   57.2196   22.2414   44.3108 H   0  0  0  0  0  0  0  0  0  0  0  0
   56.1362   21.1324   44.2316 H   0  0  0  0  0  0  0  0  0  0  0  0
   56.2031   23.9187   42.5133 H   0  0  0  0  0  0  0  0  0  0  0  0
   54.9442   23.1060   42.1194 H   0  0  0  0  0  0  0  0  0  0  0  0
   54.3820   25.3550   46.3730 H   0  0  0  0  0  0  0  0  0  0  0  0
   56.0690   27.0930   47.0490 H   0  0  0  0  0  0  0  0  0  0  0  0
   57.1400   28.6120   44.5470 H   0  0  0  0  0  0  0  0  0  0  0  0
   58.1309   31.7458   43.3995 H   0  0  0  0  0  0  0  0  0  0  0  0
   56.5354   32.5777   43.5698 H   0  0  0  0  0  0  0  0  0  0  0  0
   59.6266   33.6451   43.6432 H   0  0  0  0  0  0  0  0  0  0  0  0
   60.5428   35.4597   45.2534 H   0  0  0  0  0  0  0  0  0  0  0  0
   56.5360   33.1105   46.6217 H   0  0  0  0  0  0  0  0  0  0  0  0
   58.2730   31.8020   46.9160 H   0  0  0  0  0  0  0  0  0  0  0  0
  1  2  1  0
  2  3  1  0
  3  4  1  0
  4  5  1  0
  5  6  1  0
  6  7  2  0
  7  8  1  0
  8  9  2  0
  9 10  1  0
 10 11  2  0
 11 12  1  0
 12 13  2  0
 13 14  1  0
 14 15  1  0
 15 16  1  0
 13 17  1  0
 17 18  1  0
  9 19  1  0
 19 20  1  0
 20 21  2  0
 21 22  1  0
 22 23  1  0
 23 24  1  0
 24 25  2  0
 25 26  1  0
 26 27  1  0
 20 28  1  0
 28  7  1  0
 18 11  1  0
 27 23  2  0
 16 14  1  0
  1 29  1  0
  1 30  1  0
  1 31  1  0
  2 32  1  0
  2 33  1  0
  3 34  1  0
  3 35  1  0
  4 36  1  0
  4 37  1  0
  5 38  1  0
  5 39  1  0
  8 40  1  0
 12 41  1  0
 14 42  1  0
 15 43  1  0
 15 44  1  0
 16 45  1  0
 16 46  1  0
 17 47  1  0
 18 48  1  0
 19 49  1  0
 22 50  1  0
 22 51  1  0
 24 52  1  0
 25 53  1  0
 27 54  1  0
 28 55  1  0
M  END
>  <smiles>  (63) 
CCCCCN=c1cc(N=c2cc(C3CC3)[nH][nH]2)[nH]c(=NCc2ccsc2)[nH]1

>  <score_type>  (63) 
oracle

>  <origin>  (63) 
adg

>  <m_score__min__energy>  (63) 
-8.4399999999999995

>  <m_primary>  (63) 
energy

$$$$
63:0
     RDKit          3D

 45 48  0  0  0  0  0  0  0  0999 V2000
   64.8860   33.0880   49.4000 C   0  0  0  0  0  0  0  0  0  0  0  0
   63.9460   33.7260   48.5410 O   0  0  0  0  0  0  0  0  0  0  0  0
   62.8390   33.0870   47.9610 C   0  0  0  0  0  0  0  0  0  0  0  0
   62.0130   33.8320   47.1160 C   0  0  0  0  0  0  0  0  0  0  0  0
   60.8870   33.2520   46.5010 C   0  0  0  0  0  0  0  0  0  0  0  0
   60.0530   33.9960   45.6480 O   0  0  0  0  0  0  0  0  0  0  0  0
   58.8150   34.5850   46.0340 C   0  0  0  0  0  0  0  0  0  0  0  0
   60.5920   31.8930   46.7430 C   0  0  0  0  0  0  0  0  0  0  0  0
   59.4800   31.2750   46.1450 C   0  0  0  0  0  0  0  0  0  0  0  0
   59.1840   29.9050   46.3630 C   0  0  0  0  0  0  0  0  0  0  0  0
   59.9960   29.1820   47.2710 C   0  0  0  0  0  0  0  0  0  0  0  0
   61.1160   29.7980   47.8620 C   0  0  0  0  0  0  0  0  0  0  0  0
   61.4220   31.1380   47.5990 C   0  0  0  0  0  0  0  0  0  0  0  0
   62.5380   31.7360   48.2010 C   0  0  0  0  0  0  0  0  0  0  0  0
   59.6660   27.8560   47.5870 C   0  0  0  0  0  0  0  0  0  0  0  0
   60.4000   27.1890   48.3700 O   0  0  0  0  0  0  0  0  0  0  0  0
   58.5010   27.2840   47.0620 C   0  0  0  0  0  0  0  0  0  0  0  0
   58.1060   25.9850   47.4390 C   0  0  0  0  0  0  0  0  0  0  0  0
   56.9190   25.4350   46.9610 C   0  0  0  0  0  0  0  0  0  0  0  0
   56.0900   26.1770   46.1080 C   0  0  0  0  0  0  0  0  0  0  0  0
   54.8680   25.6790   45.6300 O   0  0  0  0  0  0  0  0  0  0  0  0
   54.6510   24.3310   45.2270 C   0  0  0  0  0  0  0  0  0  0  0  0
   56.4820   27.4610   45.7180 C   0  0  0  0  0  0  0  0  0  0  0  0
   57.7070   28.0280   46.1530 C   0  0  0  0  0  0  0  0  0  0  0  0
   58.1260   29.2760   45.7280 N   0  0  0  0  0  0  0  0  0  0  0  0
   57.4680   29.9220   44.5700 C   0  0  0  0  0  0  0  0  0  0  0  0
   64.6105   33.2750   50.4484 H   0  0  0  0  0  0  0  0  0  0  0  0
   64.8824   32.0050   49.2075 H   0  0  0  0  0  0  0  0  0  0  0  0
   65.8912   33.4913   49.2075 H   0  0  0  0  0  0  0  0  0  0  0  0
   62.2463   34.8904   46.9278 H   0  0  0  0  0  0  0  0  0  0  0  0
   58.7501   34.6159   47.1316 H   0  0  0  0  0  0  0  0  0  0  0  0
   58.7552   35.6080   45.6342 H   0  0  0  0  0  0  0  0  0  0  0  0
   57.9835   33.9860   45.6342 H   0  0  0  0  0  0  0  0  0  0  0  0
   58.8232   31.8684   45.4919 H   0  0  0  0  0  0  0  0  0  0  0  0
   61.7593   29.2178   48.5398 H   0  0  0  0  0  0  0  0  0  0  0  0
   63.1827   31.1429   48.8662 H   0  0  0  0  0  0  0  0  0  0  0  0
   58.7422   25.3988   48.1184 H   0  0  0  0  0  0  0  0  0  0  0  0
   56.6309   24.4146   47.2539 H   0  0  0  0  0  0  0  0  0  0  0  0
   54.5484   23.6939   46.1179 H   0  0  0  0  0  0  0  0  0  0  0  0
   53.7317   24.2715   44.6259 H   0  0  0  0  0  0  0  0  0  0  0  0
   55.5052   23.9860   44.6259 H   0  0  0  0  0  0  0  0  0  0  0  0
   55.8244   28.0456   45.0578 H   0  0  0  0  0  0  0  0  0  0  0  0
   56.7261   30.6504   44.9292 H   0  0  0  0  0  0  0  0  0  0  0  0
   58.2237   30.4387   43.9601 H   0  0  0  0  0  0  0  0  0  0  0  0
   56.9653   29.1569   43.9601 H   0  0  0  0  0  0  0  0  0  0  0  0
  1  2  1  0
  2  3  1  0
  3  4  2  0
  4  5  1  0
  5  6  1  0
  6  7  1  0
  5  8  2  0
  8  9  1  0
  9 10  2  0
 10 11  1  0
 11 12  2  0
 12 13  1  0
 13 14  2  0
 11 15  1  0
 15 16  2  0
 15 17  1  0
 17 18  2  0
 18 19  1  0
 19 20  2  0
 20 21  1  0
 21 22  1  0
 20 23  1  0
 23 24  2  0
 24 25  1  0
 25 26  1  0
 14  3  1  0
 24 17  1  0
 13  8  1  0
 25 10  1  0
  1 27  1  0
  1 28  1  0
  1 29  1  0
  4 30  1  0
  7 31  1  0
  7 32  1  0
  7 33  1  0
  9 34  1  0
 12 35  1  0
 14 36  1  0
 18 37  1  0
 19 38  1  0
 22 39  1  0
 22 40  1  0
 22 41  1  0
 23 42  1  0
 26 43  1  0
 26 44  1  0
 26 45  1  0
M  END
>  <UniqueID>  (64) 
52

>  <SMILES>  (64) 
COc1cc(OC)c2cc3c(cc2c1)c(=O)c1ccc(OC)cc1n3C

>  <Energy>  (64) 
73.56946904297197

>  <Genealogy>  (64) 
COc1cc(OC)c2cc3c(cc2c1)c(=O)c1ccc(OC)cc1n3C (3D coordinates assigned)
COc1cc(OC)c2cc3c(cc2c1)c(=O)c1ccc(OC)cc1n3C (optimized conformer: 73.56946904297197 kcal/mol)

>  <smiles>  (64) 
COc1cc(OC)c2cc3c(cc2c1)c(=O)c1ccc(OC)cc1n3C

>  <score_type>  (64) 
oracle

>  <origin>  (64) 
adg

>  <m_score__min__energy>  (64) 
-7

>  <m_primary>  (64) 
energy

$$$$
64:0
     RDKit          3D

 49 51  0  0  0  0  0  0  0  0999 V2000
   59.9370   31.9010   47.6020 C   0  0  0  0  0  0  0  0  0  0  0  0
   60.2530   30.5150   47.9840 N   0  0  0  0  0  0  0  0  0  0  0  0
   61.1300   29.8660   46.9760 C   0  0  0  0  0  0  0  0  0  0  0  0
   60.3600   28.9630   46.0030 C   0  0  0  0  0  0  0  0  0  0  0  0
   59.5730   27.9720   46.7450 N   0  0  0  0  0  0  0  0  0  0  0  0
   58.9870   26.8660   46.0370 C   0  0  0  0  0  0  0  0  0  0  0  0
   59.4970   25.5770   46.2490 C   0  0  0  0  0  0  0  0  0  0  0  0
   58.8950   24.4680   45.6540 C   0  0  0  0  0  0  0  0  0  0  0  0
   57.7660   24.6290   44.8470 C   0  0  0  0  0  0  0  0  0  0  0  0
   57.0170   23.2200   44.1020 S   0  0  0  0  0  0  0  0  0  0  0  0
   58.1650   21.8620   44.1170 C   0  0  0  0  0  0  0  0  0  0  0  0
   56.6330   23.5280   42.6820 O   0  0  0  0  0  0  0  0  0  0  0  0
   55.7790   22.8440   44.8660 O   0  0  0  0  0  0  0  0  0  0  0  0
   57.2510   25.9110   44.6210 C   0  0  0  0  0  0  0  0  0  0  0  0
   57.8570   27.0400   45.2010 C   0  0  0  0  0  0  0  0  0  0  0  0
   57.3010   28.3820   44.9110 C   0  0  0  0  0  0  0  0  0  0  0  0
   56.1230   28.6570   45.2690 O   0  0  0  0  0  0  0  0  0  0  0  0
   58.0650   29.3400   44.1640 N   0  0  0  0  0  0  0  0  0  0  0  0
   57.9180   30.7650   44.2880 C   0  0  0  0  0  0  0  0  0  0  0  0
   57.6260   31.3730   45.5250 C   0  0  0  0  0  0  0  0  0  0  0  0
   57.5370   32.7650   45.6240 C   0  0  0  0  0  0  0  0  0  0  0  0
   57.7470   33.5630   44.4960 C   0  0  0  0  0  0  0  0  0  0  0  0
   57.6600   34.9120   44.5950 F   0  0  0  0  0  0  0  0  0  0  0  0
   58.0550   32.9690   43.2690 C   0  0  0  0  0  0  0  0  0  0  0  0
   58.1430   31.5780   43.1660 C   0  0  0  0  0  0  0  0  0  0  0  0
   59.1790   28.2580   48.1290 C   0  0  0  0  0  0  0  0  0  0  0  0
   59.0110   29.7690   48.3070 C   0  0  0  0  0  0  0  0  0  0  0  0
   59.7985   32.5086   48.5084 H   0  0  0  0  0  0  0  0  0  0  0  0
   60.7639   32.3147   47.0061 H   0  0  0  0  0  0  0  0  0  0  0  0
   59.0125   31.9154   47.0061 H   0  0  0  0  0  0  0  0  0  0  0  0
   61.6392   30.6508   46.3974 H   0  0  0  0  0  0  0  0  0  0  0  0
   61.8426   29.2296   47.5212 H   0  0  0  0  0  0  0  0  0  0  0  0
   59.6844   29.5799   45.3923 H   0  0  0  0  0  0  0  0  0  0  0  0
   61.0784   28.4386   45.3557 H   0  0  0  0  0  0  0  0  0  0  0  0
   60.3799   25.4390   46.8904 H   0  0  0  0  0  0  0  0  0  0  0  0
   59.3107   23.4633   45.8208 H   0  0  0  0  0  0  0  0  0  0  0  0
   58.3961   21.5887   45.1571 H   0  0  0  0  0  0  0  0  0  0  0  0
   57.7186   20.9988   43.6016 H   0  0  0  0  0  0  0  0  0  0  0  0
   59.0904   22.1585   43.6016 H   0  0  0  0  0  0  0  0  0  0  0  0
   56.3635   26.0366   43.9834 H   0  0  0  0  0  0  0  0  0  0  0  0
   58.7380   28.9700   43.4550 H   0  0  0  0  0  0  0  0  0  0  0  0
   57.4673   30.7496   46.4173 H   0  0  0  0  0  0  0  0  0  0  0  0
   57.3013   33.2327   46.5913 H   0  0  0  0  0  0  0  0  0  0  0  0
   58.2284   33.5973   42.3829 H   0  0  0  0  0  0  0  0  0  0  0  0
   58.3904   31.1168   42.1985 H   0  0  0  0  0  0  0  0  0  0  0  0
   58.2268   27.7540   48.3513 H   0  0  0  0  0  0  0  0  0  0  0  0
   59.9558   27.8909   48.8159 H   0  0  0  0  0  0  0  0  0  0  0  0
   58.2065   30.1164   47.6421 H   0  0  0  0  0  0  0  0  0  0  0  0
   58.7689   29.9589   49.3631 H   0  0  0  0  0  0  0  0  0  0  0  0
  1  2  1  0
  2  3  1  0
  3  4  1  0
  4  5  1  0
  5  6  1  0
  6  7  2  0
  7  8  1  0
  8  9  2  0
  9 10  1  0
 10 11  1  0
 10 12  2  0
 10 13  2  0
  9 14  1  0
 14 15  2  0
 15 16  1  0
 16 17  2  0
 16 18  1  0
 18 19  1  0
 19 20  2  0
 20 21  1  0
 21 22  2  0
 22 23  1  0
 22 24  1  0
 24 25  2  0
  5 26  1  0
 26 27  1  0
 27  2  1  0
 15  6  1  0
 25 19  1  0
  1 28  1  0
  1 29  1  0
  1 30  1  0
  3 31  1  0
  3 32  1  0
  4 33  1  0
  4 34  1  0
  7 35  1  0
  8 36  1  0
 11 37  1  0
 11 38  1  0
 11 39  1  0
 14 40  1  0
 18 41  1  0
 20 42  1  0
 21 43  1  0
 24 44  1  0
 25 45  1  0
 26 46  1  0
 26 47  1  0
 27 48  1  0
 27 49  1  0
M  END
>  <UniqueID>  (65) 
53

>  <SMILES>  (65) 
CN1CCN(c2ccc(S(C)(=O)=O)cc2C(=O)Nc2ccc(F)cc2)CC1

>  <Energy>  (65) 
65.03970598935588

>  <Genealogy>  (65) 
CN1CCN(c2ccc(S(C)(=O)=O)cc2C(=O)Nc2ccc(F)cc2)CC1 (3D coordinates assigned)
CN1CCN(c2ccc(S(C)(=O)=O)cc2C(=O)Nc2ccc(F)cc2)CC1 (nonaromatic ring conformer: 65.03970598935588 kcal/mol)

>  <smiles>  (65) 
CN1CCN(c2ccc(S(C)(=O)=O)cc2C(=O)Nc2ccc(F)cc2)CC1

>  <score_type>  (65) 
oracle

>  <origin>  (65) 
adg

>  <m_score__min__energy>  (65) 
-7.79

>  <m_primary>  (65) 
energy

$$$$
65:0
     RDKit          3D

 39 41  0  0  0  0  0  0  0  0999 V2000
   58.9170   35.0450   45.1280 O   0  0  0  0  0  0  0  0  0  0  0  0
   58.9510   34.3680   46.1920 C   0  0  0  0  0  0  0  0  0  0  0  0
   59.7580   34.7900   47.2990 N   0  0  0  0  0  0  0  0  0  0  0  0
   60.9980   34.2070   47.7230 C   0  0  0  0  0  0  0  0  0  0  0  0
   61.2150   34.0090   49.0930 C   0  0  0  0  0  0  0  0  0  0  0  0
   62.4000   33.4190   49.5450 C   0  0  0  0  0  0  0  0  0  0  0  0
   63.3710   33.0090   48.6290 C   0  0  0  0  0  0  0  0  0  0  0  0
   63.1550   33.1790   47.2580 C   0  0  0  0  0  0  0  0  0  0  0  0
   64.0870   32.7600   46.3690 F   0  0  0  0  0  0  0  0  0  0  0  0
   61.9690   33.7680   46.8030 C   0  0  0  0  0  0  0  0  0  0  0  0
   58.1040   33.1300   46.3240 C   0  0  0  0  0  0  0  0  0  0  0  0
   57.1140   32.9920   45.1420 C   0  0  0  0  0  0  0  0  0  0  0  0
   57.6510   32.0470   44.0550 C   0  0  0  0  0  0  0  0  0  0  0  0
   57.9640   30.6880   44.5670 N   0  0  0  0  0  0  0  0  0  0  0  0
   56.6930   29.5560   44.1730 S   0  0  0  0  0  0  0  0  0  0  0  0
   55.3530   30.1430   44.5220 O   0  0  0  0  0  0  0  0  0  0  0  0
   56.7190   29.2450   42.7020 O   0  0  0  0  0  0  0  0  0  0  0  0
   56.9120   28.0770   45.0900 C   0  0  0  0  0  0  0  0  0  0  0  0
   58.1100   27.4800   45.3870 C   0  0  0  0  0  0  0  0  0  0  0  0
   57.8720   26.3770   46.1180 N   0  0  0  0  0  0  0  0  0  0  0  0
   56.5280   26.3460   46.2390 C   0  0  0  0  0  0  0  0  0  0  0  0
   55.9030   27.3720   45.6260 N   0  0  0  0  0  0  0  0  0  0  0  0
   58.2580   30.6280   46.0160 C   0  0  0  0  0  0  0  0  0  0  0  0
   58.9970   31.8820   46.4910 C   0  0  0  0  0  0  0  0  0  0  0  0
   60.4483   34.3196   49.8180 H   0  0  0  0  0  0  0  0  0  0  0  0
   62.5672   33.2779   50.6230 H   0  0  0  0  0  0  0  0  0  0  0  0
   64.3059   32.5523   48.9860 H   0  0  0  0  0  0  0  0  0  0  0  0
   61.7954   33.8881   45.7234 H   0  0  0  0  0  0  0  0  0  0  0  0
   57.4908   33.2223   47.2326 H   0  0  0  0  0  0  0  0  0  0  0  0
   56.1608   32.5942   45.5205 H   0  0  0  0  0  0  0  0  0  0  0  0
   56.9768   33.9868   44.6930 H   0  0  0  0  0  0  0  0  0  0  0  0
   56.8924   31.9568   43.2636 H   0  0  0  0  0  0  0  0  0  0  0  0
   58.5895   32.4799   43.6785 H   0  0  0  0  0  0  0  0  0  0  0  0
   59.1014   27.8432   45.0784 H   0  0  0  0  0  0  0  0  0  0  0  0
   55.9920   25.5570   46.7869 H   0  0  0  0  0  0  0  0  0  0  0  0
   57.3115   30.5398   46.5694 H   0  0  0  0  0  0  0  0  0  0  0  0
   58.9028   29.7563   46.2015 H   0  0  0  0  0  0  0  0  0  0  0  0
   59.2624   31.7659   47.5522 H   0  0  0  0  0  0  0  0  0  0  0  0
   59.9061   32.0107   45.8853 H   0  0  0  0  0  0  0  0  0  0  0  0
  1  2  2  0
  2  3  1  0
  3  4  1  0
  4  5  2  0
  5  6  1  0
  6  7  2  0
  7  8  1  0
  8  9  1  0
  8 10  2  0
  2 11  1  0
 11 12  1  0
 12 13  1  0
 13 14  1  0
 14 15  1  0
 15 16  2  0
 15 17  2  0
 15 18  1  0
 18 19  2  0
 19 20  1  0
 20 21  1  0
 21 22  2  0
 14 23  1  0
 23 24  1  0
 10  4  1  0
 24 11  1  0
 22 18  1  0
  5 25  1  0
  6 26  1  0
  7 27  1  0
 10 28  1  0
 11 29  1  0
 12 30  1  0
 12 31  1  0
 13 32  1  0
 13 33  1  0
 19 34  1  0
 21 35  1  0
 23 36  1  0
 23 37  1  0
 24 38  1  0
 24 39  1  0
M  CHG  2   3  -1  20  -1
M  END
>  <UniqueID>  (66) 
54

>  <SMILES>  (66) 
O=C([N-]c1cccc(F)c1)C1CCN(S(=O)(=O)c2c[n-]cn2)CC1

>  <Energy>  (66) 
77.7350817642867

>  <Genealogy>  (66) 
O=C([N-]c1cccc(F)c1)C1CCN(S(=O)(=O)c2c[n-]cn2)CC1 (protonated)
O=C([N-]c1cccc(F)c1)C1CCN(S(=O)(=O)c2c[n-]cn2)CC1 (3D coordinates assigned)
O=C([N-]c1cccc(F)c1)C1CCN(S(=O)(=O)c2c[n-]cn2)CC1 (nonaromatic ring conformer: 77.7350817642867 kcal/mol)

>  <smiles>  (66) 
O=C(Nc1cccc(F)c1)C1CCN(S(=O)(=O)c2c[nH]cn2)CC1

>  <score_type>  (66) 
oracle

>  <origin>  (66) 
adg

>  <m_score__min__energy>  (66) 
-10.949999999999999

>  <m_primary>  (66) 
energy

$$$$
66:0
     RDKit          3D

 35 36  0  0  0  0  0  0  0  0999 V2000
   55.8900   29.3200   42.6520 O   0  0  0  0  0  0  0  0  0  0  0  0
   56.2920   29.8750   43.7070 C   0  0  0  0  0  0  0  0  0  0  0  0
   56.0840   29.2080   44.9580 N   0  0  0  0  0  0  0  0  0  0  0  0
   57.0000   28.3040   45.5920 C   0  0  0  0  0  0  0  0  0  0  0  0
   58.3620   28.6230   45.7340 C   0  0  0  0  0  0  0  0  0  0  0  0
   59.2440   27.7030   46.3090 C   0  0  0  0  0  0  0  0  0  0  0  0
   58.7760   26.4610   46.7440 C   0  0  0  0  0  0  0  0  0  0  0  0
   57.4270   26.1310   46.5900 C   0  0  0  0  0  0  0  0  0  0  0  0
   56.5430   27.0450   46.0050 C   0  0  0  0  0  0  0  0  0  0  0  0
   55.2370   26.7080   45.8500 F   0  0  0  0  0  0  0  0  0  0  0  0
   56.8790   31.2290   43.6380 C   0  0  0  0  0  0  0  0  0  0  0  0
   57.2350   31.7000   42.5230 O   0  0  0  0  0  0  0  0  0  0  0  0
   57.0820   31.9900   44.8380 N   0  0  0  0  0  0  0  0  0  0  0  0
   57.8430   33.2390   44.8670 C   0  0  0  0  0  0  0  0  0  0  0  0
   57.8310   33.8530   46.2690 C   0  0  0  0  0  0  0  0  0  0  0  0
   59.1990   33.8250   46.9020 C   0  0  0  0  0  0  0  0  0  0  0  0
   60.3480   33.8360   46.0970 C   0  0  0  0  0  0  0  0  0  0  0  0
   61.6180   33.8180   46.6800 C   0  0  0  0  0  0  0  0  0  0  0  0
   61.7500   33.7880   48.0720 C   0  0  0  0  0  0  0  0  0  0  0  0
   63.3450   33.7530   48.8000 Cl  0  0  0  0  0  0  0  0  0  0  0  0
   60.6090   33.7860   48.8810 C   0  0  0  0  0  0  0  0  0  0  0  0
   59.3370   33.8120   48.3000 C   0  0  0  0  0  0  0  0  0  0  0  0
   58.7349   29.5996   45.3916 H   0  0  0  0  0  0  0  0  0  0  0  0
   60.3084   27.9578   46.4190 H   0  0  0  0  0  0  0  0  0  0  0  0
   59.4688   25.7432   47.2074 H   0  0  0  0  0  0  0  0  0  0  0  0
   57.0592   25.1513   46.9291 H   0  0  0  0  0  0  0  0  0  0  0  0
   56.6440   31.6670   45.7300 H   0  0  0  0  0  0  0  0  0  0  0  0
   58.8828   33.0342   44.5723 H   0  0  0  0  0  0  0  0  0  0  0  0
   57.3787   33.9500   44.1678 H   0  0  0  0  0  0  0  0  0  0  0  0
   57.4924   34.8972   46.1979 H   0  0  0  0  0  0  0  0  0  0  0  0
   57.1504   33.2597   46.8973 H   0  0  0  0  0  0  0  0  0  0  0  0
   60.2488   33.8589   45.0017 H   0  0  0  0  0  0  0  0  0  0  0  0
   62.5149   33.8274   46.0432 H   0  0  0  0  0  0  0  0  0  0  0  0
   60.7122   33.7639   49.9759 H   0  0  0  0  0  0  0  0  0  0  0  0
   58.4421   33.8223   48.9395 H   0  0  0  0  0  0  0  0  0  0  0  0
  1  2  2  0
  2  3  1  0
  3  4  1  0
  4  5  2  0
  5  6  1  0
  6  7  2  0
  7  8  1  0
  8  9  2  0
  9 10  1  0
  2 11  1  0
 11 12  2  0
 11 13  1  0
 13 14  1  0
 14 15  1  0
 15 16  1  0
 16 17  2  0
 17 18  1  0
 18 19  2  0
 19 20  1  0
 19 21  1  0
 21 22  2  0
  9  4  1  0
 22 16  1  0
  5 23  1  0
  6 24  1  0
  7 25  1  0
  8 26  1  0
 13 27  1  0
 14 28  1  0
 14 29  1  0
 15 30  1  0
 15 31  1  0
 17 32  1  0
 18 33  1  0
 21 34  1  0
 22 35  1  0
M  CHG  1   3  -1
M  END
>  <UniqueID>  (67) 
55

>  <SMILES>  (67) 
O=C([N-]c1ccccc1F)C(=O)NCCc1ccc(Cl)cc1

>  <Energy>  (67) 
33.82539428154361

>  <Genealogy>  (67) 
O=C([N-]c1ccccc1F)C(=O)NCCc1ccc(Cl)cc1 (protonated)
O=C([N-]c1ccccc1F)C(=O)NCCc1ccc(Cl)cc1 (3D coordinates assigned)
O=C([N-]c1ccccc1F)C(=O)NCCc1ccc(Cl)cc1 (optimized conformer: 33.82539428154361 kcal/mol)

>  <smiles>  (67) 
O=C(NCCc1ccc(Cl)cc1)C(=O)Nc1ccccc1F

>  <score_type>  (67) 
oracle

>  <origin>  (67) 
adg

>  <m_score__min__energy>  (67) 
-9.8399999999999999

>  <m_primary>  (67) 
energy

$$$$
67:0
     RDKit          3D

 26 28  0  0  0  0  0  0  0  0999 V2000
   57.3200   32.2090   41.3260 C   0  0  0  0  0  0  0  0  0  0  0  0
   57.0310   31.2190   42.3900 C   0  0  0  0  0  0  0  0  0  0  0  0
   56.3030   30.0740   42.2470 N   0  0  0  0  0  0  0  0  0  0  0  0
   56.2630   29.4430   43.4220 N   0  0  0  0  0  0  0  0  0  0  0  0
   56.9610   30.1680   44.3380 C   0  0  0  0  0  0  0  0  0  0  0  0
   57.2200   29.9590   45.6620 N   0  0  0  0  0  0  0  0  0  0  0  0
   57.9540   30.8610   46.3270 C   0  0  0  0  0  0  0  0  0  0  0  0
   58.4750   31.9970   45.7670 C   0  0  0  0  0  0  0  0  0  0  0  0
   59.2540   32.9070   46.5740 C   0  0  0  0  0  0  0  0  0  0  0  0
   60.5370   32.4920   46.9460 C   0  0  0  0  0  0  0  0  0  0  0  0
   61.2960   33.3380   47.7160 C   0  0  0  0  0  0  0  0  0  0  0  0
   60.7710   34.5590   48.0910 C   0  0  0  0  0  0  0  0  0  0  0  0
   59.5370   34.9610   47.7350 N   0  0  0  0  0  0  0  0  0  0  0  0
   58.7720   34.1460   46.9780 C   0  0  0  0  0  0  0  0  0  0  0  0
   58.2170   32.2180   44.4200 C   0  0  0  0  0  0  0  0  0  0  0  0
   57.4670   31.3100   43.7150 C   0  0  0  0  0  0  0  0  0  0  0  0
   57.6002   33.1688   41.7845 H   0  0  0  0  0  0  0  0  0  0  0  0
   58.1493   31.8449   40.7018 H   0  0  0  0  0  0  0  0  0  0  0  0
   56.4250   32.3482   40.7018 H   0  0  0  0  0  0  0  0  0  0  0  0
   55.8520   29.7470   41.3620 H   0  0  0  0  0  0  0  0  0  0  0  0
   58.1513   30.6770   47.3934 H   0  0  0  0  0  0  0  0  0  0  0  0
   60.9275   31.5135   46.6299 H   0  0  0  0  0  0  0  0  0  0  0  0
   62.3092   33.0471   48.0302 H   0  0  0  0  0  0  0  0  0  0  0  0
   61.3872   35.2310   48.7064 H   0  0  0  0  0  0  0  0  0  0  0  0
   57.7622   34.4643   46.6796 H   0  0  0  0  0  0  0  0  0  0  0  0
   58.6115   33.1155   43.9212 H   0  0  0  0  0  0  0  0  0  0  0  0
  1  2  1  0
  2  3  1  0
  3  4  1  0
  4  5  2  0
  5  6  1  0
  6  7  2  0
  7  8  1  0
  8  9  1  0
  9 10  2  0
 10 11  1  0
 11 12  2  0
 12 13  1  0
 13 14  2  0
  8 15  2  0
 15 16  1  0
 16  2  2  0
 16  5  1  0
 14  9  1  0
  1 17  1  0
  1 18  1  0
  1 19  1  0
  3 20  1  0
  7 21  1  0
 10 22  1  0
 11 23  1  0
 12 24  1  0
 14 25  1  0
 15 26  1  0
M  END
>  <smiles>  (68) 
Cc1[nH]nc2ncc(-c3cccnc3)cc12

>  <score_type>  (68) 
oracle

>  <origin>  (68) 
adg

>  <m_score__min__energy>  (68) 
-6.4800000000000004

>  <m_primary>  (68) 
energy

$$$$
68:0
     RDKit          3D

 28 29  0  0  0  0  0  0  0  0999 V2000
   57.6160   32.1230   42.8800 O   0  0  0  0  0  0  0  0  0  0  0  0
   57.4200   31.9500   44.1150 C   0  0  0  0  0  0  0  0  0  0  0  0
   56.6350   30.8790   44.5580 O   0  0  0  0  0  0  0  0  0  0  0  0
   56.3780   29.7130   43.7770 C   0  0  0  0  0  0  0  0  0  0  0  0
   57.3560   28.5910   44.1330 C   0  0  0  0  0  0  0  0  0  0  0  0
   58.3410   29.0600   45.1050 N   0  0  0  0  0  0  0  0  0  0  0  0
   59.6180   29.3940   44.8630 C   0  0  0  0  0  0  0  0  0  0  0  0
   60.2080   29.7020   46.0690 C   0  0  0  0  0  0  0  0  0  0  0  0
   59.3100   29.5510   47.0640 N   0  0  0  0  0  0  0  0  0  0  0  0
   58.1830   29.1540   46.4390 C   0  0  0  0  0  0  0  0  0  0  0  0
   58.0210   32.8770   45.0990 C   0  0  0  0  0  0  0  0  0  0  0  0
   57.8630   32.6450   46.4780 C   0  0  0  0  0  0  0  0  0  0  0  0
   58.4350   33.5160   47.4110 C   0  0  0  0  0  0  0  0  0  0  0  0
   59.1700   34.6220   46.9790 C   0  0  0  0  0  0  0  0  0  0  0  0
   59.3340   34.8600   45.6130 C   0  0  0  0  0  0  0  0  0  0  0  0
   58.7650   33.9930   44.6750 C   0  0  0  0  0  0  0  0  0  0  0  0
   55.3507   29.3699   43.9693 H   0  0  0  0  0  0  0  0  0  0  0  0
   56.5057   29.9666   42.7143 H   0  0  0  0  0  0  0  0  0  0  0  0
   56.7972   27.7465   44.5626 H   0  0  0  0  0  0  0  0  0  0  0  0
   57.8806   28.2733   43.2199 H   0  0  0  0  0  0  0  0  0  0  0  0
   60.1063   29.4176   43.8776 H   0  0  0  0  0  0  0  0  0  0  0  0
   61.2521   30.0222   46.2005 H   0  0  0  0  0  0  0  0  0  0  0  0
   57.2403   28.9318   46.9604 H   0  0  0  0  0  0  0  0  0  0  0  0
   57.2867   31.7742   46.8239 H   0  0  0  0  0  0  0  0  0  0  0  0
   58.3056   33.3294   48.4873 H   0  0  0  0  0  0  0  0  0  0  0  0
   59.6195   35.3054   47.7145 H   0  0  0  0  0  0  0  0  0  0  0  0
   59.9124   35.7320   45.2738 H   0  0  0  0  0  0  0  0  0  0  0  0
   58.8998   34.1846   43.6002 H   0  0  0  0  0  0  0  0  0  0  0  0
  1  2  2  0
  2  3  1  0
  3  4  1  0
  4  5  1  0
  5  6  1  0
  6  7  1  0
  7  8  2  0
  8  9  1  0
  9 10  2  0
  2 11  1  0
 11 12  2  0
 12 13  1  0
 13 14  2  0
 14 15  1  0
 15 16  2  0
 10  6  1  0
 16 11  1  0
  4 17  1  0
  4 18  1  0
  5 19  1  0
  5 20  1  0
  7 21  1  0
  8 22  1  0
 10 23  1  0
 12 24  1  0
 13 25  1  0
 14 26  1  0
 15 27  1  0
 16 28  1  0
M  END
>  <UniqueID>  (69) 
56

>  <SMILES>  (69) 
O=C(OCCn1ccnc1)c1ccccc1

>  <Energy>  (69) 
52.932168515703054

>  <Genealogy>  (69) 
O=C(OCCn1ccnc1)c1ccccc1 (3D coordinates assigned)
O=C(OCCn1ccnc1)c1ccccc1 (optimized conformer: 52.932168515703054 kcal/mol)

>  <smiles>  (69) 
O=C(OCCn1ccnc1)c1ccccc1

>  <score_type>  (69) 
oracle

>  <origin>  (69) 
adg

>  <m_score__min__energy>  (69) 
-5.4299999999999997

>  <m_primary>  (69) 
energy

$$$$
69:0
     RDKit          3D

 48 50  0  0  0  0  0  0  0  0999 V2000
   56.1412   32.5578   44.5579 H   0  0  0  0  0  0  0  0  0  0  0  0
   57.0380   32.0020   44.8690 C   0  0  0  0  0  0  0  0  0  0  0  0
   57.1060   30.6220   44.6740 C   0  0  0  0  0  0  0  0  0  0  0  0
   56.0160   29.9170   44.0510 N   0  0  0  0  0  0  0  0  0  0  0  0
   55.1430   29.3530   44.7420 O   0  0  0  0  0  0  0  0  0  0  0  0
   55.9190   29.8520   42.6800 O   0  0  0  0  0  0  0  0  0  0  0  0
   58.2580   29.9440   45.1000 C   0  0  0  0  0  0  0  0  0  0  0  0
   58.3243   28.8562   44.9509 H   0  0  0  0  0  0  0  0  0  0  0  0
   59.3050   30.6010   45.6980 N   0  0  0  0  0  0  0  0  0  0  0  0
   60.4350   29.7660   46.1340 C   0  0  0  0  0  0  0  0  0  0  0  0
   60.4694   29.7405   47.2332 H   0  0  0  0  0  0  0  0  0  0  0  0
   60.3065   28.7442   45.7474 H   0  0  0  0  0  0  0  0  0  0  0  0
   61.3740   30.1889   45.7474 H   0  0  0  0  0  0  0  0  0  0  0  0
   59.2510   31.9800   45.8560 C   0  0  0  0  0  0  0  0  0  0  0  0
   60.2160   32.7210   46.3380 N   0  0  0  0  0  0  0  0  0  0  0  0
   60.2920   34.1140   46.7720 C   0  0  0  0  0  0  0  0  0  0  0  0
   59.2900   34.4651   47.0595 H   0  0  0  0  0  0  0  0  0  0  0  0
   60.6730   34.7374   45.9497 H   0  0  0  0  0  0  0  0  0  0  0  0
   61.2330   34.2150   47.9720 C   0  0  0  0  0  0  0  0  0  0  0  0
   60.7572   33.7438   48.8447 H   0  0  0  0  0  0  0  0  0  0  0  0
   61.4350   35.2771   48.1747 H   0  0  0  0  0  0  0  0  0  0  0  0
   62.5060   33.5370   47.6920 N   0  0  0  0  0  0  0  0  0  0  0  0
   63.1490   32.7640   48.7200 C   0  0  0  0  0  0  0  0  0  0  0  0
   64.4510   33.0950   49.1140 C   0  0  0  0  0  0  0  0  0  0  0  0
   64.9787   33.9286   48.6275 H   0  0  0  0  0  0  0  0  0  0  0  0
   65.0770   32.3670   50.1230 C   0  0  0  0  0  0  0  0  0  0  0  0
   66.1027   32.6238   50.4262 H   0  0  0  0  0  0  0  0  0  0  0  0
   64.4290   31.3420   50.7350 N   0  0  0  0  0  0  0  0  0  0  0  0
   64.9280   30.8230   51.4940 H   0  0  0  0  0  0  0  0  0  0  0  0
   63.1570   30.9890   50.3860 C   0  0  0  0  0  0  0  0  0  0  0  0
   62.5060   29.9430   51.0520 C   0  0  0  0  0  0  0  0  0  0  0  0
   63.0281   29.3956   51.8506 H   0  0  0  0  0  0  0  0  0  0  0  0
   61.2000   29.5900   50.7100 C   0  0  0  0  0  0  0  0  0  0  0  0
   60.6927   28.7808   51.2558 H   0  0  0  0  0  0  0  0  0  0  0  0
   60.5280   30.2600   49.6740 C   0  0  0  0  0  0  0  0  0  0  0  0
   59.0970   29.9140   49.3500 C   0  0  0  0  0  0  0  0  0  0  0  0
   58.3590   29.7510   50.5100 F   0  0  0  0  0  0  0  0  0  0  0  0
   58.5420   30.9370   48.6040 F   0  0  0  0  0  0  0  0  0  0  0  0
   59.0250   28.7370   48.6250 F   0  0  0  0  0  0  0  0  0  0  0  0
   61.1730   31.3180   49.0120 C   0  0  0  0  0  0  0  0  0  0  0  0
   60.6454   31.8617   48.2145 H   0  0  0  0  0  0  0  0  0  0  0  0
   62.4850   31.6910   49.3560 C   0  0  0  0  0  0  0  0  0  0  0  0
   63.2250   33.8270   46.4510 C   0  0  0  0  0  0  0  0  0  0  0  0
   64.2209   34.2287   46.6895 H   0  0  0  0  0  0  0  0  0  0  0  0
   63.3333   32.9022   45.8653 H   0  0  0  0  0  0  0  0  0  0  0  0
   62.6614   34.5681   45.8653 H   0  0  0  0  0  0  0  0  0  0  0  0
   58.1010   32.6730   45.4550 C   0  0  0  0  0  0  0  0  0  0  0  0
   58.0407   33.7608   45.6066 H   0  0  0  0  0  0  0  0  0  0  0  0
  1  2  1  0
  2  3  1  0
  3  4  1  0
  4  5  2  0
  4  6  1  0
  3  7  2  0
  7  8  1  0
  7  9  1  0
  9 10  1  0
 10 11  1  0
 10 12  1  0
 10 13  1  0
  9 14  1  0
 14 15  2  0
 15 16  1  0
 16 17  1  0
 16 18  1  0
 16 19  1  0
 19 20  1  0
 19 21  1  0
 19 22  1  0
 22 23  1  0
 23 24  2  0
 24 25  1  0
 24 26  1  0
 26 27  1  0
 26 28  2  0
 28 29  1  0
 28 30  1  0
 30 31  2  0
 31 32  1  0
 31 33  1  0
 33 34  1  0
 33 35  2  0
 35 36  1  0
 36 37  1  0
 36 38  1  0
 36 39  1  0
 35 40  1  0
 40 41  1  0
 40 42  2  0
 22 43  1  0
 43 44  1  0
 43 45  1  0
 43 46  1  0
 14 47  1  0
 47 48  1  0
 47  2  2  0
 42 23  1  0
 42 30  1  0
M  CHG  3   4   1   6  -1  28   1
M  END
>  <UniqueID>  (70) 
57

>  <SMILES>  (70) 
CN(CC/N=c1/ccc([N+](=O)[O-])cn1C)c1cc[nH+]c2ccc(C(F)(F)F)cc12

>  <Energy>  (70) 
67.51523245439037

>  <Genealogy>  (70) 
CN(CCN=c1ccc([N+](=O)[O-])cn1C)c1cc[nH+]c2ccc(C(F)(F)F)cc12 (protonated)
CN(CC/N=c1/ccc([N+](=O)[O-])cn1C)c1cc[nH+]c2ccc(C(F)(F)F)cc12 (cis-trans isomerization)
CN(CC/N=c1/ccc([N+](=O)[O-])cn1C)c1cc[nH+]c2ccc(C(F)(F)F)cc12 (3D coordinates assigned)
CN(CC/N=c1/ccc([N+](=O)[O-])cn1C)c1cc[nH+]c2ccc(C(F)(F)F)cc12 (optimized conformer: 67.51523245439037 kcal/mol)

>  <smiles>  (70) 
CN(CCN=c1ccc([N+](=O)[O-])cn1C)c1ccnc2ccc(C(F)(F)F)cc12

>  <score_type>  (70) 
oracle

>  <origin>  (70) 
adg

>  <m_score__min__energy>  (70) 
-6.4699999999999998

>  <m_primary>  (70) 
energy

$$$$
70:0
     RDKit          3D

 40 41  0  0  0  0  0  0  0  0999 V2000
   57.7354   33.0526   43.1334 H   0  0  0  0  0  0  0  0  0  0  0  0
   57.7800   32.8040   44.2040 C   0  0  0  0  0  0  0  0  0  0  0  0
   58.0190   33.8090   45.0620 C   0  0  0  0  0  0  0  0  0  0  0  0
   57.4449   34.7375   44.9266 H   0  0  0  0  0  0  0  0  0  0  0  0
   58.9930   33.7670   46.1750 C   0  0  0  0  0  0  0  0  0  0  0  0
   60.3700   33.9360   45.9530 C   0  0  0  0  0  0  0  0  0  0  0  0
   60.7379   34.1130   44.9316 H   0  0  0  0  0  0  0  0  0  0  0  0
   61.2780   33.8820   47.0140 C   0  0  0  0  0  0  0  0  0  0  0  0
   62.6380   34.0820   46.7340 O   0  0  0  0  0  0  0  0  0  0  0  0
   63.6800   33.1910   47.1160 C   0  0  0  0  0  0  0  0  0  0  0  0
   63.7369   33.1424   48.2135 H   0  0  0  0  0  0  0  0  0  0  0  0
   63.4705   32.1884   46.7149 H   0  0  0  0  0  0  0  0  0  0  0  0
   64.6379   33.5536   46.7149 H   0  0  0  0  0  0  0  0  0  0  0  0
   60.8040   33.6290   48.3150 C   0  0  0  0  0  0  0  0  0  0  0  0
   61.5112   33.5928   49.1567 H   0  0  0  0  0  0  0  0  0  0  0  0
   59.4310   33.4220   48.5460 C   0  0  0  0  0  0  0  0  0  0  0  0
   58.9140   33.1530   49.8220 O   0  0  0  0  0  0  0  0  0  0  0  0
   59.5460   33.5250   51.0420 C   0  0  0  0  0  0  0  0  0  0  0  0
   58.9428   33.1699   51.8906 H   0  0  0  0  0  0  0  0  0  0  0  0
   60.5474   33.0723   51.0891 H   0  0  0  0  0  0  0  0  0  0  0  0
   59.6362   34.6203   51.0891 H   0  0  0  0  0  0  0  0  0  0  0  0
   58.5380   33.4840   47.4700 C   0  0  0  0  0  0  0  0  0  0  0  0
   57.4660   33.3085   47.6429 H   0  0  0  0  0  0  0  0  0  0  0  0
   57.5720   31.3900   44.5830 C   0  0  0  0  0  0  0  0  0  0  0  0
   56.4610   30.6620   44.1240 C   0  0  0  0  0  0  0  0  0  0  0  0
   55.7267   31.1442   43.4620 H   0  0  0  0  0  0  0  0  0  0  0  0
   56.2840   29.3290   44.5040 C   0  0  0  0  0  0  0  0  0  0  0  0
   55.4223   28.7606   44.1241 H   0  0  0  0  0  0  0  0  0  0  0  0
   57.2000   28.7140   45.3670 C   0  0  0  0  0  0  0  0  0  0  0  0
   56.9900   27.0270   45.8200 S   0  0  0  0  0  0  0  0  0  0  0  0
   57.6890   26.7560   47.1230 O   0  0  0  0  0  0  0  0  0  0  0  0
   55.5280   26.7220   45.9850 O   0  0  0  0  0  0  0  0  0  0  0  0
   57.6770   25.9870   44.5510 C   0  0  0  0  0  0  0  0  0  0  0  0
   58.2264   25.1553   45.0161 H   0  0  0  0  0  0  0  0  0  0  0  0
   56.8653   25.5863   43.9260 H   0  0  0  0  0  0  0  0  0  0  0  0
   58.3641   26.5763   43.9260 H   0  0  0  0  0  0  0  0  0  0  0  0
   58.2950   29.4450   45.8480 C   0  0  0  0  0  0  0  0  0  0  0  0
   59.0166   28.9681   46.5276 H   0  0  0  0  0  0  0  0  0  0  0  0
   58.4730   30.7780   45.4670 C   0  0  0  0  0  0  0  0  0  0  0  0
   59.3248   31.3506   45.8628 H   0  0  0  0  0  0  0  0  0  0  0  0
  1  2  1  0
  2  3  2  0
  3  4  1  0
  3  5  1  0
  5  6  2  0
  6  7  1  0
  6  8  1  0
  8  9  1  0
  9 10  1  0
 10 11  1  0
 10 12  1  0
 10 13  1  0
  8 14  2  0
 14 15  1  0
 14 16  1  0
 16 17  1  0
 17 18  1  0
 18 19  1  0
 18 20  1  0
 18 21  1  0
 16 22  2  0
 22 23  1  0
  2 24  1  0
 24 25  2  0
 25 26  1  0
 25 27  1  0
 27 28  1  0
 27 29  2  0
 29 30  1  0
 30 31  2  0
 30 32  2  0
 30 33  1  0
 33 34  1  0
 33 35  1  0
 33 36  1  0
 29 37  1  0
 37 38  1  0
 37 39  2  0
 39 40  1  0
 22  5  1  0
 39 24  1  0
M  END
>  <UniqueID>  (71) 
58

>  <SMILES>  (71) 
COc1cc(/C=C\c2ccc(S(C)(=O)=O)cc2)cc(OC)c1

>  <Energy>  (71) 
45.32492822755173

>  <Genealogy>  (71) 
COc1cc(/C=C\c2ccc(S(C)(=O)=O)cc2)cc(OC)c1 (cis-trans isomerization)
COc1cc(/C=C\c2ccc(S(C)(=O)=O)cc2)cc(OC)c1 (3D coordinates assigned)
COc1cc(/C=C\c2ccc(S(C)(=O)=O)cc2)cc(OC)c1 (optimized conformer: 45.32492822755173 kcal/mol)

>  <smiles>  (71) 
COc1cc(C=Cc2ccc(S(C)(=O)=O)cc2)cc(OC)c1

>  <score_type>  (71) 
oracle

>  <origin>  (71) 
adg

>  <m_score__min__energy>  (71) 
-7.6699999999999999

>  <m_primary>  (71) 
energy

$$$$
71:0
     RDKit          3D

 27 29  0  0  0  0  0  0  0  0999 V2000
   54.5820   27.8380   53.2370 O   0  0  0  0  0  0  0  0  0  0  0  0
   54.7830   29.0210   52.8480 C   0  0  0  0  0  0  0  0  0  0  0  0
   56.0780   29.5430   52.8700 C   0  0  0  0  0  0  0  0  0  0  0  0
   56.3030   30.8660   52.4350 C   0  0  0  0  0  0  0  0  0  0  0  0
   57.6570   31.5010   52.4260 C   0  0  0  0  0  0  0  0  0  0  0  0
   58.8560   30.7520   52.4560 C   0  0  0  0  0  0  0  0  0  0  0  0
   60.0980   31.3950   52.4460 C   0  0  0  0  0  0  0  0  0  0  0  0
   60.1700   32.7880   52.4080 C   0  0  0  0  0  0  0  0  0  0  0  0
   61.4060   33.4220   52.3990 O   0  0  0  0  0  0  0  0  0  0  0  0
   58.9980   33.5430   52.3800 C   0  0  0  0  0  0  0  0  0  0  0  0
   57.7520   32.9080   52.3890 C   0  0  0  0  0  0  0  0  0  0  0  0
   55.2660   31.5900   52.0090 O   0  0  0  0  0  0  0  0  0  0  0  0
   54.0180   31.1340   51.9700 C   0  0  0  0  0  0  0  0  0  0  0  0
   52.9910   31.9650   51.5080 C   0  0  0  0  0  0  0  0  0  0  0  0
   51.6740   31.4970   51.4630 C   0  0  0  0  0  0  0  0  0  0  0  0
   50.6580   32.3250   51.0030 O   0  0  0  0  0  0  0  0  0  0  0  0
   51.3790   30.1950   51.8800 C   0  0  0  0  0  0  0  0  0  0  0  0
   52.3980   29.3560   52.3430 C   0  0  0  0  0  0  0  0  0  0  0  0
   53.7250   29.8200   52.3920 C   0  0  0  0  0  0  0  0  0  0  0  0
   56.9173   28.9265   53.2243 H   0  0  0  0  0  0  0  0  0  0  0  0
   58.8115   29.6534   52.4875 H   0  0  0  0  0  0  0  0  0  0  0  0
   61.0227   30.7996   52.4682 H   0  0  0  0  0  0  0  0  0  0  0  0
   59.0537   34.6412   52.3508 H   0  0  0  0  0  0  0  0  0  0  0  0
   56.8340   33.5136   52.3669 H   0  0  0  0  0  0  0  0  0  0  0  0
   53.2205   32.9894   51.1793 H   0  0  0  0  0  0  0  0  0  0  0  0
   50.3421   29.8295   51.8437 H   0  0  0  0  0  0  0  0  0  0  0  0
   52.1614   28.3324   52.6691 H   0  0  0  0  0  0  0  0  0  0  0  0
  1  2  2  0
  2  3  1  0
  3  4  2  0
  4  5  1  0
  5  6  2  0
  6  7  1  0
  7  8  2  0
  8  9  1  0
  8 10  1  0
 10 11  2  0
  4 12  1  0
 12 13  1  0
 13 14  2  0
 14 15  1  0
 15 16  1  0
 15 17  2  0
 17 18  1  0
 18 19  2  0
 19  2  1  0
 11  5  1  0
 19 13  1  0
  3 20  1  0
  6 21  1  0
  7 22  1  0
 10 23  1  0
 11 24  1  0
 14 25  1  0
 17 26  1  0
 18 27  1  0
M  CHG  2   9  -1  16  -1
M  END
>  <UniqueID>  (72) 
59

>  <SMILES>  (72) 
O=c1cc(-c2ccc([O-])cc2)oc2cc([O-])ccc12

>  <Energy>  (72) 
39.6510666085201

>  <Genealogy>  (72) 
O=c1cc(-c2ccc([O-])cc2)oc2cc([O-])ccc12 (protonated)
O=c1cc(-c2ccc([O-])cc2)oc2cc([O-])ccc12 (3D coordinates assigned)
O=c1cc(-c2ccc([O-])cc2)oc2cc([O-])ccc12 (optimized conformer: 39.6510666085201 kcal/mol)

>  <smiles>  (72) 
O=c1cc(-c2ccc(O)cc2)oc2cc(O)ccc12

>  <score_type>  (72) 
oracle

>  <origin>  (72) 
adg

>  <m_score__min__energy>  (72) 
-10.109999999999999

>  <m_primary>  (72) 
energy

$$$$
72:0
     RDKit          3D

 38 40  0  0  0  0  0  0  0  0999 V2000
   65.1280   32.7810   49.7440 C   0  0  0  0  0  0  0  0  0  0  0  0
   64.0540   33.1610   48.8360 N   0  0  0  0  0  0  0  0  0  0  0  0
   62.8140   33.5410   49.1960 C   0  0  0  0  0  0  0  0  0  0  0  0
   62.0880   33.7500   48.0430 C   0  0  0  0  0  0  0  0  0  0  0  0
   60.6810   34.2500   47.9380 C   0  0  0  0  0  0  0  0  0  0  0  0
   60.3620   34.6710   46.4970 C   0  0  0  0  0  0  0  0  0  0  0  0
   59.4880   33.6790   45.8330 N   0  0  0  0  0  0  0  0  0  0  0  0
   59.4720   32.3840   46.5640 C   0  0  0  0  0  0  0  0  0  0  0  0
   58.1780   31.5640   46.3660 C   0  0  0  0  0  0  0  0  0  0  0  0
   57.5150   31.8970   45.0980 N   0  0  0  0  0  0  0  0  0  0  0  0
   56.8680   30.8700   44.3220 C   0  0  0  0  0  0  0  0  0  0  0  0
   55.5960   30.4670   44.5180 N   0  0  0  0  0  0  0  0  0  0  0  0
   55.4010   29.5310   43.6330 O   0  0  0  0  0  0  0  0  0  0  0  0
   56.4870   29.3500   42.9190 C   0  0  0  0  0  0  0  0  0  0  0  0
   57.4580   30.1850   43.3230 N   0  0  0  0  0  0  0  0  0  0  0  0
   57.3460   33.3050   44.7210 C   0  0  0  0  0  0  0  0  0  0  0  0
   58.1310   34.2240   45.6570 C   0  0  0  0  0  0  0  0  0  0  0  0
   62.9610   33.4810   47.0060 C   0  0  0  0  0  0  0  0  0  0  0  0
   64.1520   33.1100   47.5160 N   0  0  0  0  0  0  0  0  0  0  0  0
   64.7889   32.9010   50.7835 H   0  0  0  0  0  0  0  0  0  0  0  0
   65.4034   31.7308   49.5670 H   0  0  0  0  0  0  0  0  0  0  0  0
   66.0026   33.4243   49.5670 H   0  0  0  0  0  0  0  0  0  0  0  0
   62.4460   33.6629   50.2254 H   0  0  0  0  0  0  0  0  0  0  0  0
   59.9897   33.4502   48.2421 H   0  0  0  0  0  0  0  0  0  0  0  0
   60.5658   35.1240   48.5959 H   0  0  0  0  0  0  0  0  0  0  0  0
   59.8523   35.6457   46.5120 H   0  0  0  0  0  0  0  0  0  0  0  0
   61.3055   34.7365   45.9353 H   0  0  0  0  0  0  0  0  0  0  0  0
   60.3213   31.7791   46.2137 H   0  0  0  0  0  0  0  0  0  0  0  0
   59.5347   32.6239   47.6357 H   0  0  0  0  0  0  0  0  0  0  0  0
   58.4304   30.4933   46.3664 H   0  0  0  0  0  0  0  0  0  0  0  0
   57.4886   31.8056   47.1884 H   0  0  0  0  0  0  0  0  0  0  0  0
   56.5878   28.6176   42.1045 H   0  0  0  0  0  0  0  0  0  0  0  0
   58.4280   30.2690   42.9450 H   0  0  0  0  0  0  0  0  0  0  0  0
   57.7074   33.4471   43.6918 H   0  0  0  0  0  0  0  0  0  0  0  0
   56.2787   33.5606   44.7950 H   0  0  0  0  0  0  0  0  0  0  0  0
   58.1916   35.2316   45.2200 H   0  0  0  0  0  0  0  0  0  0  0  0
   57.6243   34.2844   46.6315 H   0  0  0  0  0  0  0  0  0  0  0  0
   62.7219   33.5575   45.9350 H   0  0  0  0  0  0  0  0  0  0  0  0
  1  2  1  0
  2  3  1  0
  3  4  2  0
  4  5  1  0
  5  6  1  0
  6  7  1  0
  7  8  1  0
  8  9  1  0
  9 10  1  0
 10 11  1  0
 11 12  2  0
 12 13  1  0
 13 14  1  0
 14 15  2  0
 10 16  1  0
 16 17  1  0
  4 18  1  0
 18 19  2  0
 19  2  1  0
 17  7  1  0
 15 11  1  0
  1 20  1  0
  1 21  1  0
  1 22  1  0
  3 23  1  0
  5 24  1  0
  5 25  1  0
  6 26  1  0
  6 27  1  0
  8 28  1  0
  8 29  1  0
  9 30  1  0
  9 31  1  0
 14 32  1  0
 15 33  1  0
 16 34  1  0
 16 35  1  0
 17 36  1  0
 17 37  1  0
 18 38  1  0
M  CHG  1  15   1
M  END
>  <UniqueID>  (73) 
60

>  <SMILES>  (73) 
Cn1cc(CCN2CCN(c3noc[nH+]3)CC2)cn1

>  <Energy>  (73) 
105.85893414884654

>  <Genealogy>  (73) 
Cn1cc(CCN2CCN(c3noc[nH+]3)CC2)cn1 (protonated)
Cn1cc(CCN2CCN(c3noc[nH+]3)CC2)cn1 (3D coordinates assigned)
Cn1cc(CCN2CCN(c3noc[nH+]3)CC2)cn1 (nonaromatic ring conformer: 105.85893414884654 kcal/mol)

>  <smiles>  (73) 
Cn1cc(CCN2CCN(c3ncon3)CC2)cn1

>  <score_type>  (73) 
oracle

>  <origin>  (73) 
adg

>  <m_score__min__energy>  (73) 
-5.6200000000000001

>  <m_primary>  (73) 
energy

$$$$
73:0
     RDKit          3D

 45 46  0  0  0  0  0  0  0  0999 V2000
   59.3470   30.5590   47.2970 H   0  0  0  0  0  0  0  0  0  0  0  0
   60.0510   31.1660   47.6470 O   0  0  0  0  0  0  0  0  0  0  0  0
   61.1430   31.0340   46.7810 C   0  0  0  0  0  0  0  0  0  0  0  0
   62.0754   31.0306   47.3646 H   0  0  0  0  0  0  0  0  0  0  0  0
   61.1551   31.8776   46.0752 H   0  0  0  0  0  0  0  0  0  0  0  0
   61.0230   29.7240   46.0060 C   0  0  0  0  0  0  0  0  0  0  0  0
   62.0290   29.3721   45.7337 H   0  0  0  0  0  0  0  0  0  0  0  0
   60.4230   29.9020   45.1014 H   0  0  0  0  0  0  0  0  0  0  0  0
   60.3760   28.7270   46.7970 O   0  0  0  0  0  0  0  0  0  0  0  0
   59.1430   28.1180   46.5040 C   0  0  0  0  0  0  0  0  0  0  0  0
   58.1240   28.9060   45.9100 C   0  0  0  0  0  0  0  0  0  0  0  0
   58.3550   30.2830   45.5910 N   0  0  0  0  0  0  0  0  0  0  0  0
   57.4820   31.0940   44.7950 C   0  0  0  0  0  0  0  0  0  0  0  0
   56.2570   30.8060   44.7490 O   0  0  0  0  0  0  0  0  0  0  0  0
   58.0050   32.2130   43.9340 C   0  0  0  0  0  0  0  0  0  0  0  0
   57.5658   32.1312   42.9288 H   0  0  0  0  0  0  0  0  0  0  0  0
   59.1008   32.1349   43.8780 H   0  0  0  0  0  0  0  0  0  0  0  0
   57.6370   33.5730   44.5350 C   0  0  0  0  0  0  0  0  0  0  0  0
   56.5466   33.6218   44.6712 H   0  0  0  0  0  0  0  0  0  0  0  0
   57.9778   34.3612   43.8476 H   0  0  0  0  0  0  0  0  0  0  0  0
   58.3070   33.7790   45.8650 C   0  0  0  0  0  0  0  0  0  0  0  0
   57.9232   33.2463   46.7475 H   0  0  0  0  0  0  0  0  0  0  0  0
   59.3580   34.5940   46.0010 C   0  0  0  0  0  0  0  0  0  0  0  0
   59.8282   34.7254   46.9867 H   0  0  0  0  0  0  0  0  0  0  0  0
   59.7526   35.1332   45.1272 H   0  0  0  0  0  0  0  0  0  0  0  0
   56.8510   28.3600   45.6660 C   0  0  0  0  0  0  0  0  0  0  0  0
   56.0475   28.9838   45.2473 H   0  0  0  0  0  0  0  0  0  0  0  0
   56.6220   27.0180   45.9620 C   0  0  0  0  0  0  0  0  0  0  0  0
   55.4440   26.3770   45.7490 N   0  0  0  0  0  0  0  0  0  0  0  0
   55.5210   25.0790   46.1300 C   0  0  0  0  0  0  0  0  0  0  0  0
   54.5020   24.2770   46.0130 N   0  0  0  0  0  0  0  0  0  0  0  0
   54.2260   23.3340   44.9640 C   0  0  0  0  0  0  0  0  0  0  0  0
   53.0260   23.1090   44.6550 O   0  0  0  0  0  0  0  0  0  0  0  0
   55.2760   22.6530   44.2720 N   0  0  0  0  0  0  0  0  0  0  0  0
   55.8640   23.1500   43.0360 C   0  0  0  0  0  0  0  0  0  0  0  0
   56.2598   22.3050   42.4535 H   0  0  0  0  0  0  0  0  0  0  0  0
   55.0938   23.6732   42.4503 H   0  0  0  0  0  0  0  0  0  0  0  0
   56.9940   24.1150   43.3590 C   0  0  0  0  0  0  0  0  0  0  0  0
   57.0989   24.2046   44.4503 H   0  0  0  0  0  0  0  0  0  0  0  0
   57.9335   23.7362   42.9302 H   0  0  0  0  0  0  0  0  0  0  0  0
   56.7670   25.1022   42.9302 H   0  0  0  0  0  0  0  0  0  0  0  0
   57.0570   24.6830   46.7420 S   0  0  0  0  0  0  0  0  0  0  0  0
   57.6300   26.2410   46.5040 C   0  0  0  0  0  0  0  0  0  0  0  0
   58.8910   26.7550   46.7880 C   0  0  0  0  0  0  0  0  0  0  0  0
   59.6740   26.1167   47.2232 H   0  0  0  0  0  0  0  0  0  0  0  0
  1  2  1  0
  2  3  1  0
  3  4  1  0
  3  5  1  0
  3  6  1  0
  6  7  1  0
  6  8  1  0
  6  9  1  0
  9 10  1  0
 10 11  2  0
 11 12  1  0
 12 13  1  0
 13 14  2  0
 13 15  1  0
 15 16  1  0
 15 17  1  0
 15 18  1  0
 18 19  1  0
 18 20  1  0
 18 21  1  0
 21 22  1  0
 21 23  2  0
 23 24  1  0
 23 25  1  0
 11 26  1  0
 26 27  1  0
 26 28  2  0
 28 29  1  0
 29 30  1  0
 30 31  2  0
 31 32  1  0
 32 33  2  0
 32 34  1  0
 34 35  1  0
 35 36  1  0
 35 37  1  0
 35 38  1  0
 38 39  1  0
 38 40  1  0
 38 41  1  0
 30 42  1  0
 42 43  1  0
 43 44  2  0
 44 45  1  0
 44 10  1  0
 43 28  1  0
M  CHG  3  12  -1  29  -1  34  -1
M  END
>  <UniqueID>  (74) 
61

>  <SMILES>  (74) 
C=CCCC(=O)[N-]c1cc2[n-]/c(=N/C(=O)[N-]CC)sc2cc1OCCO

>  <Energy>  (74) 
74.6370822781219

>  <Genealogy>  (74) 
C=CCCC(=O)[N-]c1cc2[n-]c(=NC(=O)[N-]CC)sc2cc1OCCO (protonated)
C=CCCC(=O)[N-]c1cc2[n-]/c(=N/C(=O)[N-]CC)sc2cc1OCCO (cis-trans isomerization)
C=CCCC(=O)[N-]c1cc2[n-]/c(=N/C(=O)[N-]CC)sc2cc1OCCO (3D coordinates assigned)
C=CCCC(=O)[N-]c1cc2[n-]/c(=N/C(=O)[N-]CC)sc2cc1OCCO (optimized conformer: 74.6370822781219 kcal/mol)

>  <smiles>  (74) 
C=CCCC(=O)Nc1cc2[nH]c(=NC(=O)NCC)sc2cc1OCCO

>  <score_type>  (74) 
oracle

>  <origin>  (74) 
adg

>  <m_score__min__energy>  (74) 
-10.23

>  <m_primary>  (74) 
energy

$$$$
74:0
     RDKit          3D

 29 31  0  0  1  0  0  0  0  0999 V2000
   59.6610   25.9270   46.5350 C   0  0  0  0  0  0  0  0  0  0  0  0
   58.8140   25.0720   45.6040 C   0  0  0  0  0  0  0  0  0  0  0  0
   58.8080   23.7470   45.6500 C   0  0  0  0  0  0  0  0  0  0  0  0
   57.9790   23.0810   44.7310 C   0  0  0  0  0  0  0  0  0  0  0  0
   57.1790   24.4420   43.7650 S   0  0  0  0  0  0  0  0  0  0  0  0
   58.0120   25.7010   44.6640 C   0  0  0  0  0  0  0  0  0  0  0  0
   57.7830   27.0730   44.3490 C   0  0  0  0  0  0  0  0  0  0  0  0
   58.0680   27.8750   43.5040 N   0  0  0  0  0  0  0  0  0  0  0  0
   57.7370   29.1170   43.4160 N   0  0  0  0  0  0  0  0  0  0  0  0
   56.9650   29.5770   44.4050 C   0  0  0  0  0  0  0  0  0  0  0  0
   56.4330   30.7820   44.6500 N   0  0  0  0  0  0  0  0  0  0  0  0
   57.3440   31.7340   45.1840 C   0  0  0  0  0  0  0  0  0  0  0  0
   57.0270   33.0760   44.9430 C   0  0  0  0  0  0  0  0  0  0  0  0
   57.8660   34.0790   45.4310 C   0  0  0  0  0  0  0  0  0  0  0  0
   58.9740   33.6940   46.1320 C   0  0  0  0  0  0  0  0  0  0  0  0
   60.0260   34.9670   46.7430 Cl  0  0  0  0  0  0  0  0  0  0  0  0
   59.3010   32.3690   46.3780 C   0  0  0  0  0  0  0  0  0  0  0  0
   58.4690   31.3680   45.8940 C   0  0  0  0  0  0  0  0  0  0  0  0
   56.7010   28.1360   45.5310 S   0  0  0  0  0  0  0  0  0  0  0  0
   59.4185   25.6822   47.5796 H   0  0  0  0  0  0  0  0  0  0  0  0
   60.7265   25.7263   46.3492 H   0  0  0  0  0  0  0  0  0  0  0  0
   59.4503   26.9905   46.3492 H   0  0  0  0  0  0  0  0  0  0  0  0
   59.4239   23.1940   46.3745 H   0  0  0  0  0  0  0  0  0  0  0  0
   57.8377   21.9966   44.6127 H   0  0  0  0  0  0  0  0  0  0  0  0
   58.0430   29.7490   42.6220 H   0  0  0  0  0  0  0  0  0  0  0  0
   56.1233   33.3381   44.3732 H   0  0  0  0  0  0  0  0  0  0  0  0
   57.6431   35.1421   45.2574 H   0  0  0  0  0  0  0  0  0  0  0  0
   60.2065   32.1145   46.9484 H   0  0  0  0  0  0  0  0  0  0  0  0
   58.7015   30.3078   46.0725 H   0  0  0  0  0  0  0  0  0  0  0  0
  1  2  1  0
  2  3  1  0
  3  4  2  0
  4  5  1  0
  5  6  1  0
  6  7  1  0
  7  8  2  0
  8  9  1  0
  9 10  1  0
 10 11  2  0
 11 12  1  0
 12 13  2  0
 13 14  1  0
 14 15  2  0
 15 16  1  0
 15 17  1  0
 17 18  2  0
 10 19  1  0
  6  2  2  0
 19  7  1  0
 18 12  1  0
  1 20  1  0
  1 21  1  0
  1 22  1  0
  3 23  1  0
  4 24  1  0
  9 25  1  0
 13 26  1  0
 14 27  1  0
 17 28  1  0
 18 29  1  0
M  END
>  <smiles>  (75) 
Cc1ccsc1-c1n[nH]c(=Nc2ccc(Cl)cc2)s1

>  <score_type>  (75) 
oracle

>  <origin>  (75) 
adg

>  <m_score__min__energy>  (75) 
-7.5800000000000001

>  <m_primary>  (75) 
energy

$$$$
75:0
     RDKit          3D

 28 29  0  0  0  0  0  0  0  0999 V2000
   58.8840   33.8380   44.1440 C   0  0  0  0  0  0  0  0  0  0  0  0
   57.7300   34.2160   45.0690 C   0  0  0  0  0  0  0  0  0  0  0  0
   58.1190   34.0700   46.4870 N   0  0  0  0  0  0  0  0  0  0  0  0
   59.5340   34.3750   46.7210 C   0  0  0  0  0  0  0  0  0  0  0  0
   59.9500   33.6300   47.9860 C   0  0  0  0  0  0  0  0  0  0  0  0
   58.7790   32.7230   48.3390 C   0  0  0  0  0  0  0  0  0  0  0  0
   57.8660   32.7610   47.1180 C   0  0  2  0  0  0  0  0  0  0  0  0
   58.1430   31.5770   46.2090 C   0  0  0  0  0  0  0  0  0  0  0  0
   59.2880   30.8590   46.3660 N   0  0  0  0  0  0  0  0  0  0  0  0
   59.5570   29.7890   45.5730 C   0  0  0  0  0  0  0  0  0  0  0  0
   58.6520   29.4110   44.5830 C   0  0  0  0  0  0  0  0  0  0  0  0
   57.4820   30.1560   44.4330 C   0  0  0  0  0  0  0  0  0  0  0  0
   56.3080   29.7270   43.2060 Cl  0  0  0  0  0  0  0  0  0  0  0  0
   57.2500   31.2200   45.2440 N   0  0  0  0  0  0  0  0  0  0  0  0
   59.7584   33.5516   44.7468 H   0  0  0  0  0  0  0  0  0  0  0  0
   58.5830   32.9915   43.5093 H   0  0  0  0  0  0  0  0  0  0  0  0
   59.1422   34.6985   43.5093 H   0  0  0  0  0  0  0  0  0  0  0  0
   57.4449   35.2615   44.8799 H   0  0  0  0  0  0  0  0  0  0  0  0
   56.8835   33.5433   44.8665 H   0  0  0  0  0  0  0  0  0  0  0  0
   60.1393   34.0362   45.8672 H   0  0  0  0  0  0  0  0  0  0  0  0
   59.6873   35.4582   46.8361 H   0  0  0  0  0  0  0  0  0  0  0  0
   60.8542   33.0323   47.7984 H   0  0  0  0  0  0  0  0  0  0  0  0
   60.1846   34.3249   48.8058 H   0  0  0  0  0  0  0  0  0  0  0  0
   59.1283   31.6973   48.5285 H   0  0  0  0  0  0  0  0  0  0  0  0
   58.2614   33.0539   49.2515 H   0  0  0  0  0  0  0  0  0  0  0  0
   56.7995   32.6685   47.3709 H   0  0  0  0  0  0  0  0  0  0  0  0
   60.4888   29.2213   45.7124 H   0  0  0  0  0  0  0  0  0  0  0  0
   58.8553   28.5456   43.9351 H   0  0  0  0  0  0  0  0  0  0  0  0
  1  2  1  0
  2  3  1  0
  3  4  1  0
  4  5  1  0
  5  6  1  0
  6  7  1  0
  7  8  1  0
  8  9  2  0
  9 10  1  0
 10 11  2  0
 11 12  1  0
 12 13  1  0
 12 14  2  0
  7  3  1  0
 14  8  1  0
  1 15  1  0
  1 16  1  0
  1 17  1  0
  2 18  1  0
  2 19  1  0
  4 20  1  0
  4 21  1  0
  5 22  1  0
  5 23  1  0
  6 24  1  0
  6 25  1  0
  7 26  1  1
 10 27  1  0
 11 28  1  0
M  END
>  <UniqueID>  (76) 
62

>  <SMILES>  (76) 
CCN1CCC[C@@H]1c1nccc(Cl)n1

>  <Energy>  (76) 
32.46952545231509

>  <Genealogy>  (76) 
CCN1CCC[C@@H]1c1nccc(Cl)n1 (chirality)
CCN1CCC[C@@H]1c1nccc(Cl)n1 (3D coordinates assigned)
CCN1CCC[C@@H]1c1nccc(Cl)n1 (nonaromatic ring conformer: 32.46952545231509 kcal/mol)

>  <smiles>  (76) 
CCN1CCCC1c1nccc(Cl)n1

>  <score_type>  (76) 
oracle

>  <origin>  (76) 
adg

>  <m_score__min__energy>  (76) 
-5.7000000000000002

>  <m_primary>  (76) 
energy

$$$$
76:0
     RDKit          3D

 38 41  0  0  0  0  0  0  0  0999 V2000
   63.0840   33.8110   46.3830 C   0  0  0  0  0  0  0  0  0  0  0  0
   62.6220   33.6430   47.8160 C   0  0  0  0  0  0  0  0  0  0  0  0
   63.5060   33.1970   48.7570 N   0  0  0  0  0  0  0  0  0  0  0  0
   64.8010   32.9560   48.6090 N   0  0  0  0  0  0  0  0  0  0  0  0
   65.2900   32.5340   49.7920 C   0  0  0  0  0  0  0  0  0  0  0  0
   64.2670   32.5100   50.7280 C   0  0  0  0  0  0  0  0  0  0  0  0
   63.1540   32.9470   50.0240 C   0  0  0  0  0  0  0  0  0  0  0  0
   61.8470   33.1390   50.4570 C   0  0  0  0  0  0  0  0  0  0  0  0
   61.4490   32.8510   51.7740 C   0  0  0  0  0  0  0  0  0  0  0  0
   60.1270   33.0540   52.1660 C   0  0  0  0  0  0  0  0  0  0  0  0
   59.1960   33.5410   51.2520 C   0  0  0  0  0  0  0  0  0  0  0  0
   59.5780   33.8360   49.9420 C   0  0  0  0  0  0  0  0  0  0  0  0
   60.9170   33.6500   49.5100 C   0  0  0  0  0  0  0  0  0  0  0  0
   61.3270   33.9450   48.2130 N   0  0  0  0  0  0  0  0  0  0  0  0
   60.3920   34.6040   47.2670 C   0  0  0  0  0  0  0  0  0  0  0  0
   59.4700   33.6160   46.5870 C   0  0  0  0  0  0  0  0  0  0  0  0
   59.6930   32.2260   46.6570 C   0  0  0  0  0  0  0  0  0  0  0  0
   58.8400   31.3390   45.9940 C   0  0  0  0  0  0  0  0  0  0  0  0
   57.7670   31.8270   45.2450 C   0  0  0  0  0  0  0  0  0  0  0  0
   57.5470   33.2020   45.1540 C   0  0  0  0  0  0  0  0  0  0  0  0
   58.3970   34.0930   45.8160 C   0  0  0  0  0  0  0  0  0  0  0  0
   64.1177   34.1869   46.3727 H   0  0  0  0  0  0  0  0  0  0  0  0
   63.0418   32.8400   45.8679 H   0  0  0  0  0  0  0  0  0  0  0  0
   62.4279   34.5281   45.8679 H   0  0  0  0  0  0  0  0  0  0  0  0
   65.3660   33.0990   47.7450 H   0  0  0  0  0  0  0  0  0  0  0  0
   66.3359   32.2529   49.9847 H   0  0  0  0  0  0  0  0  0  0  0  0
   64.3246   32.2128   51.7855 H   0  0  0  0  0  0  0  0  0  0  0  0
   62.1826   32.4645   52.4969 H   0  0  0  0  0  0  0  0  0  0  0  0
   59.8189   32.8294   53.1978 H   0  0  0  0  0  0  0  0  0  0  0  0
   58.1525   33.6943   51.5644 H   0  0  0  0  0  0  0  0  0  0  0  0
   58.8290   34.2188   49.2332 H   0  0  0  0  0  0  0  0  0  0  0  0
   59.7823   35.3321   47.8221 H   0  0  0  0  0  0  0  0  0  0  0  0
   60.9932   35.0941   46.4870 H   0  0  0  0  0  0  0  0  0  0  0  0
   60.5431   31.8370   47.2367 H   0  0  0  0  0  0  0  0  0  0  0  0
   59.0141   30.2550   46.0623 H   0  0  0  0  0  0  0  0  0  0  0  0
   57.0950   31.1272   44.7266 H   0  0  0  0  0  0  0  0  0  0  0  0
   56.7038   33.5853   44.5607 H   0  0  0  0  0  0  0  0  0  0  0  0
   58.2242   35.1761   45.7325 H   0  0  0  0  0  0  0  0  0  0  0  0
  1  2  1  0
  2  3  1  0
  3  4  1  0
  4  5  2  0
  5  6  1  0
  6  7  2  0
  7  8  1  0
  8  9  2  0
  9 10  1  0
 10 11  2  0
 11 12  1  0
 12 13  2  0
 13 14  1  0
 14 15  1  0
 15 16  1  0
 16 17  2  0
 17 18  1  0
 18 19  2  0
 19 20  1  0
 20 21  2  0
 14  2  2  0
 21 16  1  0
  7  3  1  0
 13  8  1  0
  1 22  1  0
  1 23  1  0
  1 24  1  0
  4 25  1  0
  5 26  1  0
  6 27  1  0
  9 28  1  0
 10 29  1  0
 11 30  1  0
 12 31  1  0
 15 32  1  0
 15 33  1  0
 17 34  1  0
 18 35  1  0
 19 36  1  0
 20 37  1  0
 21 38  1  0
M  CHG  2   4   1  14   1
M  END
>  <UniqueID>  (77) 
63

>  <SMILES>  (77) 
Cc1n2[nH+]ccc2c2ccccc2[n+]1Cc1ccccc1

>  <Energy>  (77) 
92.48760771611997

>  <Genealogy>  (77) 
Cc1n2[nH+]ccc2c2ccccc2[n+]1Cc1ccccc1 (protonated)
Cc1n2[nH+]ccc2c2ccccc2[n+]1Cc1ccccc1 (3D coordinates assigned)
Cc1n2[nH+]ccc2c2ccccc2[n+]1Cc1ccccc1 (optimized conformer: 92.48760771611997 kcal/mol)

>  <smiles>  (77) 
Cc1n2nccc2c2ccccc2[n+]1Cc1ccccc1

>  <score_type>  (77) 
oracle

>  <origin>  (77) 
adg

>  <m_score__min__energy>  (77) 
-4.9800000000000004

>  <m_primary>  (77) 
energy

$$$$
77:0
     RDKit          3D

 43 45  0  0  0  0  0  0  0  0999 V2000
   59.6770   33.4680   50.6730 C   0  0  0  0  0  0  0  0  0  0  0  0
   59.7500   33.4750   49.2520 O   0  0  0  0  0  0  0  0  0  0  0  0
   60.9450   33.4680   48.5150 C   0  0  0  0  0  0  0  0  0  0  0  0
   62.1730   33.0850   49.0930 C   0  0  0  0  0  0  0  0  0  0  0  0
   63.3430   33.0820   48.3290 C   0  0  0  0  0  0  0  0  0  0  0  0
   64.5190   32.7110   48.8920 F   0  0  0  0  0  0  0  0  0  0  0  0
   63.3020   33.4600   46.9860 C   0  0  0  0  0  0  0  0  0  0  0  0
   62.0930   33.8440   46.4040 C   0  0  0  0  0  0  0  0  0  0  0  0
   60.9130   33.8520   47.1610 C   0  0  0  0  0  0  0  0  0  0  0  0
   59.3870   34.3360   46.4140 S   0  0  0  0  0  0  0  0  0  0  0  0
   58.5480   35.0370   47.4470 O   0  0  0  0  0  0  0  0  0  0  0  0
   59.6430   35.2840   45.2740 O   0  0  0  0  0  0  0  0  0  0  0  0
   58.5480   32.9230   45.8260 N   0  0  0  0  0  0  0  0  0  0  0  0
   59.2010   31.6840   46.3050 C   0  0  0  0  0  0  0  0  0  0  0  0
   59.2760   30.5490   45.2570 C   0  0  0  0  0  0  0  0  0  0  0  0
   58.1480   30.5020   44.2880 N   0  0  0  0  0  0  0  0  0  0  0  0
   57.1300   29.5360   44.6630 C   0  0  0  0  0  0  0  0  0  0  0  0
   55.9410   29.9330   44.8070 O   0  0  0  0  0  0  0  0  0  0  0  0
   57.3910   28.0870   44.8440 C   0  0  0  0  0  0  0  0  0  0  0  0
   57.0150   27.2560   45.8990 C   0  0  0  0  0  0  0  0  0  0  0  0
   57.3810   25.9160   45.7130 C   0  0  0  0  0  0  0  0  0  0  0  0
   58.0350   25.6750   44.5140 C   0  0  0  0  0  0  0  0  0  0  0  0
   58.1520   27.1300   43.6860 S   0  0  0  0  0  0  0  0  0  0  0  0
   57.5730   31.8140   43.8940 C   0  0  0  0  0  0  0  0  0  0  0  0
   58.4290   32.9850   44.3670 C   0  0  0  0  0  0  0  0  0  0  0  0
   60.6892   33.5651   51.0926 H   0  0  0  0  0  0  0  0  0  0  0  0
   59.0570   34.3108   51.0125 H   0  0  0  0  0  0  0  0  0  0  0  0
   59.2284   32.5227   51.0125 H   0  0  0  0  0  0  0  0  0  0  0  0
   62.2100   32.7869   50.1512 H   0  0  0  0  0  0  0  0  0  0  0  0
   64.2237   33.4552   46.3856 H   0  0  0  0  0  0  0  0  0  0  0  0
   62.0658   34.1420   45.3455 H   0  0  0  0  0  0  0  0  0  0  0  0
   60.2267   31.9341   46.6138 H   0  0  0  0  0  0  0  0  0  0  0  0
   58.5819   31.3048   47.1314 H   0  0  0  0  0  0  0  0  0  0  0  0
   60.2085   30.6740   44.6870 H   0  0  0  0  0  0  0  0  0  0  0  0
   59.2286   29.6078   45.8244 H   0  0  0  0  0  0  0  0  0  0  0  0
   58.5810   30.1230   43.4110 H   0  0  0  0  0  0  0  0  0  0  0  0
   56.4825   27.6174   46.7911 H   0  0  0  0  0  0  0  0  0  0  0  0
   57.1690   25.1277   46.4504 H   0  0  0  0  0  0  0  0  0  0  0  0
   58.4109   24.7013   44.1668 H   0  0  0  0  0  0  0  0  0  0  0  0
   57.4961   31.8519   42.7973 H   0  0  0  0  0  0  0  0  0  0  0  0
   56.5848   31.9053   44.3685 H   0  0  0  0  0  0  0  0  0  0  0  0
   59.4281   32.9205   43.9114 H   0  0  0  0  0  0  0  0  0  0  0  0
   57.9604   33.9348   44.0700 H   0  0  0  0  0  0  0  0  0  0  0  0
  1  2  1  0
  2  3  1  0
  3  4  2  0
  4  5  1  0
  5  6  1  0
  5  7  2  0
  7  8  1  0
  8  9  2  0
  9 10  1  0
 10 11  2  0
 10 12  2  0
 10 13  1  0
 13 14  1  0
 14 15  1  0
 15 16  1  0
 16 17  1  0
 17 18  2  0
 17 19  1  0
 19 20  2  0
 20 21  1  0
 21 22  2  0
 22 23  1  0
 16 24  1  0
 24 25  1  0
  9  3  1  0
 25 13  1  0
 23 19  1  0
  1 26  1  0
  1 27  1  0
  1 28  1  0
  4 29  1  0
  7 30  1  0
  8 31  1  0
 14 32  1  0
 14 33  1  0
 15 34  1  0
 15 35  1  0
 16 36  1  0
 20 37  1  0
 21 38  1  0
 22 39  1  0
 24 40  1  0
 24 41  1  0
 25 42  1  0
 25 43  1  0
M  CHG  1  16   1
M  END
>  <UniqueID>  (78) 
64

>  <SMILES>  (78) 
COc1cc(F)ccc1S(=O)(=O)N1CC[NH+](C(=O)c2cccs2)CC1

>  <Energy>  (78) 
87.69697478708409

>  <Genealogy>  (78) 
COc1cc(F)ccc1S(=O)(=O)N1CC[NH+](C(=O)c2cccs2)CC1 (protonated)
COc1cc(F)ccc1S(=O)(=O)N1CC[NH+](C(=O)c2cccs2)CC1 (3D coordinates assigned)
COc1cc(F)ccc1S(=O)(=O)N1CC[NH+](C(=O)c2cccs2)CC1 (nonaromatic ring conformer: 87.69697478708409 kcal/mol)

>  <smiles>  (78) 
COc1cc(F)ccc1S(=O)(=O)N1CCN(C(=O)c2cccs2)CC1

>  <score_type>  (78) 
oracle

>  <origin>  (78) 
adg

>  <m_score__min__energy>  (78) 
-6.8200000000000003

>  <m_primary>  (78) 
energy

$$$$
78:0
     RDKit          3D

 40 41  0  0  0  0  0  0  0  0999 V2000
   60.0500   28.9890   45.9950 C   0  0  0  0  0  0  0  0  0  0  0  0
   59.7410   30.0470   47.0030 C   0  0  0  0  0  0  0  0  0  0  0  0
   58.5740   30.5200   47.0720 O   0  0  0  0  0  0  0  0  0  0  0  0
   60.7800   30.5360   47.8640 N   0  0  0  0  0  0  0  0  0  0  0  0
   60.5680   31.5980   48.8520 C   0  0  0  0  0  0  0  0  0  0  0  0
   61.1450   32.9740   48.3840 C   0  0  2  0  0  0  0  0  0  0  0  0
   59.9980   34.0380   48.4030 C   0  0  0  0  0  0  0  0  0  0  0  0
   59.1260   34.1090   47.1680 C   0  0  0  0  0  0  0  0  0  0  0  0
   57.8990   33.4240   47.1230 C   0  0  0  0  0  0  0  0  0  0  0  0
   57.1030   33.4730   45.9740 C   0  0  0  0  0  0  0  0  0  0  0  0
   57.5320   34.1890   44.8550 C   0  0  0  0  0  0  0  0  0  0  0  0
   58.7600   34.8550   44.8810 C   0  0  0  0  0  0  0  0  0  0  0  0
   59.5590   34.8090   46.0270 C   0  0  0  0  0  0  0  0  0  0  0  0
   61.8220   32.8400   47.0080 C   0  0  0  0  0  0  0  0  0  0  0  0
   63.2130   32.2640   47.2780 C   0  0  1  0  0  0  0  0  0  0  0  0
   64.1450   32.8130   46.3800 O   0  0  0  0  0  0  0  0  0  0  0  0
   63.5440   32.6040   48.7470 C   0  0  1  0  0  0  0  0  0  0  0  0
   64.6910   33.4080   48.8600 O   0  0  0  0  0  0  0  0  0  0  0  0
   62.3260   33.3480   49.3010 C   0  0  0  0  0  0  0  0  0  0  0  0
   60.3221   28.0574   46.5129 H   0  0  0  0  0  0  0  0  0  0  0  0
   59.1656   28.8134   45.3649 H   0  0  0  0  0  0  0  0  0  0  0  0
   60.8899   29.3170   45.3649 H   0  0  0  0  0  0  0  0  0  0  0  0
   61.7300   30.1100   47.7890 H   0  0  0  0  0  0  0  0  0  0  0  0
   59.4873   31.7088   49.0246 H   0  0  0  0  0  0  0  0  0  0  0  0
   61.0966   31.3091   49.7724 H   0  0  0  0  0  0  0  0  0  0  0  0
   59.3466   33.8127   49.2602 H   0  0  0  0  0  0  0  0  0  0  0  0
   60.5044   35.0128   48.4598 H   0  0  0  0  0  0  0  0  0  0  0  0
   57.5631   32.8461   47.9966 H   0  0  0  0  0  0  0  0  0  0  0  0
   56.1374   32.9465   45.9520 H   0  0  0  0  0  0  0  0  0  0  0  0
   56.9035   34.2288   43.9531 H   0  0  0  0  0  0  0  0  0  0  0  0
   59.0987   35.4166   43.9979 H   0  0  0  0  0  0  0  0  0  0  0  0
   60.5315   35.3229   46.0368 H   0  0  0  0  0  0  0  0  0  0  0  0
   61.2455   32.1608   46.3627 H   0  0  0  0  0  0  0  0  0  0  0  0
   61.8802   33.8092   46.4910 H   0  0  0  0  0  0  0  0  0  0  0  0
   63.2484   31.1749   47.1276 H   0  0  0  0  0  0  0  0  0  0  0  0
   65.0320   32.7530   46.8220 H   0  0  0  0  0  0  0  0  0  0  0  0
   63.7572   31.6819   49.3076 H   0  0  0  0  0  0  0  0  0  0  0  0
   65.3320   33.0880   48.1720 H   0  0  0  0  0  0  0  0  0  0  0  0
   62.1224   33.0312   50.3345 H   0  0  0  0  0  0  0  0  0  0  0  0
   62.4926   34.4352   49.3194 H   0  0  0  0  0  0  0  0  0  0  0  0
  1  2  1  0
  2  3  2  0
  2  4  1  0
  4  5  1  0
  6  5  1  1
  6  7  1  0
  7  8  1  0
  8  9  2  0
  9 10  1  0
 10 11  2  0
 11 12  1  0
 12 13  2  0
  6 14  1  0
 14 15  1  0
 15 16  1  0
 15 17  1  0
 17 18  1  0
 17 19  1  0
 19  6  1  0
 13  8  1  0
  1 20  1  0
  1 21  1  0
  1 22  1  0
  4 23  1  0
  5 24  1  0
  5 25  1  0
  7 26  1  0
  7 27  1  0
  9 28  1  0
 10 29  1  0
 11 30  1  0
 12 31  1  0
 13 32  1  0
 14 33  1  0
 14 34  1  0
 15 35  1  1
 16 36  1  0
 17 37  1  1
 18 38  1  0
 19 39  1  0
 19 40  1  0
M  END
>  <UniqueID>  (79) 
65

>  <SMILES>  (79) 
CC(=O)NCC1(Cc2ccccc2)C[C@@H](O)[C@@H](O)C1

>  <Energy>  (79) 
42.766709180721556

>  <Genealogy>  (79) 
CC(=O)NCC1(Cc2ccccc2)C[C@@H](O)[C@@H](O)C1 (chirality)
CC(=O)NCC1(Cc2ccccc2)C[C@@H](O)[C@@H](O)C1 (3D coordinates assigned)
CC(=O)NCC1(Cc2ccccc2)C[C@@H](O)[C@@H](O)C1 (nonaromatic ring conformer: 42.766709180721556 kcal/mol)

>  <smiles>  (79) 
CC(=O)NCC1(Cc2ccccc2)CC(O)C(O)C1

>  <score_type>  (79) 
oracle

>  <origin>  (79) 
adg

>  <m_score__min__energy>  (79) 
-6.4800000000000004

>  <m_primary>  (79) 
energy

$$$$
79:0
     RDKit          3D

 32 33  0  0  0  0  0  0  0  0999 V2000
   56.6430   30.8660   42.7530 O   0  0  0  0  0  0  0  0  0  0  0  0
   57.0290   30.3730   44.1210 S   0  0  0  0  0  0  0  0  0  0  0  0
   55.7690   29.9880   44.8470 O   0  0  0  0  0  0  0  0  0  0  0  0
   57.8280   31.6790   45.0020 C   0  0  0  0  0  0  0  0  0  0  0  0
   57.9740   32.9420   44.4150 C   0  0  0  0  0  0  0  0  0  0  0  0
   58.5940   33.9800   45.1170 C   0  0  0  0  0  0  0  0  0  0  0  0
   59.0670   33.7720   46.4250 C   0  0  0  0  0  0  0  0  0  0  0  0
   59.7780   34.8770   47.1640 C   0  0  0  0  0  0  0  0  0  0  0  0
   61.1230   34.5830   47.3050 F   0  0  0  0  0  0  0  0  0  0  0  0
   59.2150   35.0220   48.4180 F   0  0  0  0  0  0  0  0  0  0  0  0
   59.6670   36.0740   46.4780 F   0  0  0  0  0  0  0  0  0  0  0  0
   58.9520   32.4920   46.9950 C   0  0  0  0  0  0  0  0  0  0  0  0
   58.3320   31.4560   46.2910 C   0  0  0  0  0  0  0  0  0  0  0  0
   58.0620   28.9710   43.9610 N   0  0  0  0  0  0  0  0  0  0  0  0
   59.4140   29.2260   44.5160 C   0  0  0  0  0  0  0  0  0  0  0  0
   59.6100   28.5540   45.8870 C   0  0  0  0  0  0  0  0  0  0  0  0
   59.4360   27.1430   45.8490 O   0  0  0  0  0  0  0  0  0  0  0  0
   58.4560   26.7110   44.9130 C   0  0  0  0  0  0  0  0  0  0  0  0
   57.4110   27.7840   44.5580 C   0  0  0  0  0  0  0  0  0  0  0  0
   57.5989   33.1184   43.3961 H   0  0  0  0  0  0  0  0  0  0  0  0
   58.7126   34.9656   44.6432 H   0  0  0  0  0  0  0  0  0  0  0  0
   59.3528   32.3046   48.0021 H   0  0  0  0  0  0  0  0  0  0  0  0
   58.2391   30.4609   46.7505 H   0  0  0  0  0  0  0  0  0  0  0  0
   58.1650   28.7970   42.9330 H   0  0  0  0  0  0  0  0  0  0  0  0
   60.1655   28.8314   43.8163 H   0  0  0  0  0  0  0  0  0  0  0  0
   59.5272   30.3119   44.6503 H   0  0  0  0  0  0  0  0  0  0  0  0
   60.6287   28.7713   46.2405 H   0  0  0  0  0  0  0  0  0  0  0  0
   58.8429   28.9600   46.5628 H   0  0  0  0  0  0  0  0  0  0  0  0
   58.9702   26.4101   43.9883 H   0  0  0  0  0  0  0  0  0  0  0  0
   57.9106   25.8804   45.3849 H   0  0  0  0  0  0  0  0  0  0  0  0
   56.6936   27.3648   43.8371 H   0  0  0  0  0  0  0  0  0  0  0  0
   56.8924   28.0906   45.4783 H   0  0  0  0  0  0  0  0  0  0  0  0
  1  2  2  0
  2  3  2  0
  2  4  1  0
  4  5  2  0
  5  6  1  0
  6  7  2  0
  7  8  1  0
  8  9  1  0
  8 10  1  0
  8 11  1  0
  7 12  1  0
 12 13  2  0
  2 14  1  0
 14 15  1  0
 15 16  1  0
 16 17  1  0
 17 18  1  0
 18 19  1  0
 13  4  1  0
 19 14  1  0
  5 20  1  0
  6 21  1  0
 12 22  1  0
 13 23  1  0
 14 24  1  0
 15 25  1  0
 15 26  1  0
 16 27  1  0
 16 28  1  0
 18 29  1  0
 18 30  1  0
 19 31  1  0
 19 32  1  0
M  CHG  1  14   1
M  END
>  <UniqueID>  (80) 
66

>  <SMILES>  (80) 
O=S(=O)(c1ccc(C(F)(F)F)cc1)[NH+]1CCOCC1

>  <Energy>  (80) 
43.5259554610776

>  <Genealogy>  (80) 
O=S(=O)(c1ccc(C(F)(F)F)cc1)[NH+]1CCOCC1 (protonated)
O=S(=O)(c1ccc(C(F)(F)F)cc1)[NH+]1CCOCC1 (3D coordinates assigned)
O=S(=O)(c1ccc(C(F)(F)F)cc1)[NH+]1CCOCC1 (nonaromatic ring conformer: 43.5259554610776 kcal/mol)

>  <smiles>  (80) 
O=S(=O)(c1ccc(C(F)(F)F)cc1)N1CCOCC1

>  <score_type>  (80) 
oracle

>  <origin>  (80) 
adg

>  <m_score__min__energy>  (80) 
-5.3399999999999999

>  <m_primary>  (80) 
energy

$$$$
80:0
     RDKit          3D

 29 32  0  0  0  0  0  0  0  0999 V2000
   59.6480   34.0840   49.4370 C   0  0  0  0  0  0  0  0  0  0  0  0
   59.2600   33.3130   48.3880 N   0  0  0  0  0  0  0  0  0  0  0  0
   60.1650   32.6620   47.6100 C   0  0  0  0  0  0  0  0  0  0  0  0
   59.6960   31.8390   46.5320 N   0  0  0  0  0  0  0  0  0  0  0  0
   60.0500   30.4060   46.4800 C   0  0  0  0  0  0  0  0  0  0  0  0
   58.7860   29.5280   46.5470 C   0  0  0  0  0  0  0  0  0  0  0  0
   57.7340   30.0970   45.6500 C   0  0  0  0  0  0  0  0  0  0  0  0
   56.6270   29.4870   45.2000 N   0  0  0  0  0  0  0  0  0  0  0  0
   55.9860   30.4070   44.5280 O   0  0  0  0  0  0  0  0  0  0  0  0
   56.5810   31.5710   44.5160 N   0  0  0  0  0  0  0  0  0  0  0  0
   57.6940   31.3940   45.2450 C   0  0  0  0  0  0  0  0  0  0  0  0
   58.7590   32.3990   45.5410 C   0  0  0  0  0  0  0  0  0  0  0  0
   61.5390   32.8070   47.8890 C   0  0  0  0  0  0  0  0  0  0  0  0
   62.5560   32.2230   47.1200 C   0  0  0  0  0  0  0  0  0  0  0  0
   63.8580   32.4150   47.4610 N   0  0  0  0  0  0  0  0  0  0  0  0
   64.1950   33.1750   48.5370 C   0  0  0  0  0  0  0  0  0  0  0  0
   63.2290   33.7670   49.2860 N   0  0  0  0  0  0  0  0  0  0  0  0
   61.9150   33.6040   48.9830 C   0  0  0  0  0  0  0  0  0  0  0  0
   60.9660   34.2210   49.7320 N   0  0  0  0  0  0  0  0  0  0  0  0
   58.8924   34.5985   50.0488 H   0  0  0  0  0  0  0  0  0  0  0  0
   60.5829   30.2000   45.5400 H   0  0  0  0  0  0  0  0  0  0  0  0
   60.6902   30.1692   47.3426 H   0  0  0  0  0  0  0  0  0  0  0  0
   59.0318   28.5065   46.2214 H   0  0  0  0  0  0  0  0  0  0  0  0
   58.4115   29.5039   47.5810 H   0  0  0  0  0  0  0  0  0  0  0  0
   59.3034   32.6406   44.6162 H   0  0  0  0  0  0  0  0  0  0  0  0
   58.3003   33.3140   45.9438 H   0  0  0  0  0  0  0  0  0  0  0  0
   62.3007   31.6107   46.2425 H   0  0  0  0  0  0  0  0  0  0  0  0
   64.6110   31.9750   46.8870 H   0  0  0  0  0  0  0  0  0  0  0  0
   65.2540   33.3109   48.8018 H   0  0  0  0  0  0  0  0  0  0  0  0
  1  2  2  0
  2  3  1  0
  3  4  1  0
  4  5  1  0
  5  6  1  0
  6  7  1  0
  7  8  2  0
  8  9  1  0
  9 10  1  0
 10 11  2  0
 11 12  1  0
  3 13  2  0
 13 14  1  0
 14 15  2  0
 15 16  1  0
 16 17  2  0
 17 18  1  0
 18 19  2  0
 19  1  1  0
 12  4  1  0
 18 13  1  0
 11  7  1  0
  1 20  1  0
  5 21  1  0
  5 22  1  0
  6 23  1  0
  6 24  1  0
 12 25  1  0
 12 26  1  0
 14 27  1  0
 15 28  1  0
 16 29  1  0
M  CHG  1  15   1
M  END
>  <UniqueID>  (81) 
67

>  <SMILES>  (81) 
c1nc(N2CCc3nonc3C2)c2c[nH+]cnc2n1

>  <Energy>  (81) 
81.6008990108298

>  <Genealogy>  (81) 
c1nc(N2CCc3nonc3C2)c2c[nH+]cnc2n1 (protonated)
c1nc(N2CCc3nonc3C2)c2c[nH+]cnc2n1 (3D coordinates assigned)
c1nc(N2CCc3nonc3C2)c2c[nH+]cnc2n1 (nonaromatic ring conformer: 81.6008990108298 kcal/mol)

>  <smiles>  (81) 
c1ncc2c(N3CCc4nonc4C3)ncnc2n1

>  <score_type>  (81) 
oracle

>  <origin>  (81) 
adg

>  <m_score__min__energy>  (81) 
-6.4900000000000002

>  <m_primary>  (81) 
energy

$$$$
81:0
     RDKit          3D

 41 43  0  0  0  0  0  0  0  0999 V2000
   57.7760   32.0390   42.4240 C   0  0  0  0  0  0  0  0  0  0  0  0
   58.0380   31.6720   43.8510 C   0  0  0  0  0  0  0  0  0  0  0  0
   58.5080   30.4390   44.1860 N   0  0  0  0  0  0  0  0  0  0  0  0
   58.6660   30.2880   45.5220 C   0  0  0  0  0  0  0  0  0  0  0  0
   59.1660   29.0430   46.1490 C   0  0  0  0  0  0  0  0  0  0  0  0
   59.5720   29.0230   47.4960 C   0  0  0  0  0  0  0  0  0  0  0  0
   60.0440   27.8410   48.0760 C   0  0  0  0  0  0  0  0  0  0  0  0
   60.1150   26.6680   47.3200 C   0  0  0  0  0  0  0  0  0  0  0  0
   59.7140   26.6760   45.9830 C   0  0  0  0  0  0  0  0  0  0  0  0
   59.2420   27.8550   45.3980 C   0  0  0  0  0  0  0  0  0  0  0  0
   58.2200   31.6930   46.3400 S   0  0  0  0  0  0  0  0  0  0  0  0
   57.8150   32.5260   44.9340 C   0  0  0  0  0  0  0  0  0  0  0  0
   57.3140   33.9440   44.8950 C   0  0  0  0  0  0  0  0  0  0  0  0
   58.4700   34.9510   44.8770 C   0  0  0  0  0  0  0  0  0  0  0  0
   59.7380   34.3230   45.2520 N   0  0  0  0  0  0  0  0  0  0  0  0
   60.2090   34.3470   46.6070 C   0  0  0  0  0  0  0  0  0  0  0  0
   59.6450   35.1000   47.4490 O   0  0  0  0  0  0  0  0  0  0  0  0
   61.3580   33.5130   47.0330 C   0  0  0  0  0  0  0  0  0  0  0  0
   61.1410   32.3500   47.7970 C   0  0  0  0  0  0  0  0  0  0  0  0
   62.2190   31.5550   48.1970 C   0  0  0  0  0  0  0  0  0  0  0  0
   63.5210   31.9040   47.8340 C   0  0  0  0  0  0  0  0  0  0  0  0
   63.7490   33.0470   47.0650 C   0  0  0  0  0  0  0  0  0  0  0  0
   62.6760   33.8480   46.6620 C   0  0  0  0  0  0  0  0  0  0  0  0
   57.1372   32.9338   42.3869 H   0  0  0  0  0  0  0  0  0  0  0  0
   58.7301   32.2483   41.9181 H   0  0  0  0  0  0  0  0  0  0  0  0
   57.2681   31.2047   41.9181 H   0  0  0  0  0  0  0  0  0  0  0  0
   59.5179   29.9428   48.0968 H   0  0  0  0  0  0  0  0  0  0  0  0
   60.3600   27.8348   49.1296 H   0  0  0  0  0  0  0  0  0  0  0  0
   60.4865   25.7394   47.7779 H   0  0  0  0  0  0  0  0  0  0  0  0
   59.7695   25.7524   45.3881 H   0  0  0  0  0  0  0  0  0  0  0  0
   58.9280   27.8541   44.3438 H   0  0  0  0  0  0  0  0  0  0  0  0
   56.7056   34.0828   43.9891 H   0  0  0  0  0  0  0  0  0  0  0  0
   56.7163   34.1226   45.8010 H   0  0  0  0  0  0  0  0  0  0  0  0
   58.5643   35.3681   43.8635 H   0  0  0  0  0  0  0  0  0  0  0  0
   58.2484   35.7421   45.6085 H   0  0  0  0  0  0  0  0  0  0  0  0
   60.3260   33.8730   44.5170 H   0  0  0  0  0  0  0  0  0  0  0  0
   60.1170   32.0655   48.0807 H   0  0  0  0  0  0  0  0  0  0  0  0
   62.0409   30.6520   48.7994 H   0  0  0  0  0  0  0  0  0  0  0  0
   64.3674   31.2785   48.1538 H   0  0  0  0  0  0  0  0  0  0  0  0
   64.7751   33.3179   46.7756 H   0  0  0  0  0  0  0  0  0  0  0  0
   62.8615   34.7445   46.0521 H   0  0  0  0  0  0  0  0  0  0  0  0
  1  2  1  0
  2  3  1  0
  3  4  2  0
  4  5  1  0
  5  6  2  0
  6  7  1  0
  7  8  2  0
  8  9  1  0
  9 10  2  0
  4 11  1  0
 11 12  1  0
 12 13  1  0
 13 14  1  0
 14 15  1  0
 15 16  1  0
 16 17  2  0
 16 18  1  0
 18 19  2  0
 19 20  1  0
 20 21  2  0
 21 22  1  0
 22 23  2  0
 12  2  2  0
 23 18  1  0
 10  5  1  0
  1 24  1  0
  1 25  1  0
  1 26  1  0
  6 27  1  0
  7 28  1  0
  8 29  1  0
  9 30  1  0
 10 31  1  0
 13 32  1  0
 13 33  1  0
 14 34  1  0
 14 35  1  0
 15 36  1  0
 19 37  1  0
 20 38  1  0
 21 39  1  0
 22 40  1  0
 23 41  1  0
M  END
>  <UniqueID>  (82) 
68

>  <SMILES>  (82) 
Cc1nc(-c2ccccc2)sc1CCNC(=O)c1ccccc1

>  <Energy>  (82) 
70.35417921448695

>  <Genealogy>  (82) 
Cc1nc(-c2ccccc2)sc1CCNC(=O)c1ccccc1 (3D coordinates assigned)
Cc1nc(-c2ccccc2)sc1CCNC(=O)c1ccccc1 (optimized conformer: 70.35417921448695 kcal/mol)

>  <smiles>  (82) 
Cc1nc(-c2ccccc2)sc1CCNC(=O)c1ccccc1

>  <score_type>  (82) 
oracle

>  <origin>  (82) 
adg

>  <m_score__min__energy>  (82) 
-7.75

>  <m_primary>  (82) 
energy

$$$$
82:0
     RDKit          3D

 29 31  0  0  0  0  0  0  0  0999 V2000
   57.7720   32.3270   42.8340 C   0  0  0  0  0  0  0  0  0  0  0  0
   58.2320   32.1170   44.2470 C   0  0  0  0  0  0  0  0  0  0  0  0
   58.1410   30.8480   44.8560 C   0  0  0  0  0  0  0  0  0  0  0  0
   58.6070   30.6450   46.1700 C   0  0  0  0  0  0  0  0  0  0  0  0
   59.1770   31.7010   46.8960 C   0  0  0  0  0  0  0  0  0  0  0  0
   59.2710   32.9520   46.2820 C   0  0  0  0  0  0  0  0  0  0  0  0
   58.8180   33.1580   44.9830 C   0  0  0  0  0  0  0  0  0  0  0  0
   59.0090   34.3660   44.5510 N   0  0  0  0  0  0  0  0  0  0  0  0
   59.6380   35.0120   45.6510 C   0  0  0  0  0  0  0  0  0  0  0  0
   60.0170   36.2130   45.6400 O   0  0  0  0  0  0  0  0  0  0  0  0
   59.7800   34.0820   46.7590 C   0  0  0  0  0  0  0  0  0  0  0  0
   60.4810   34.3120   48.0640 C   0  0  0  0  0  0  0  0  0  0  0  0
   61.8610   33.7330   48.0160 C   0  0  0  0  0  0  0  0  0  0  0  0
   62.5920   33.2610   49.0900 C   0  0  0  0  0  0  0  0  0  0  0  0
   63.7610   32.7530   48.5600 C   0  0  0  0  0  0  0  0  0  0  0  0
   63.7610   32.8890   47.2210 N   0  0  0  0  0  0  0  0  0  0  0  0
   62.6020   33.4800   46.8800 C   0  0  0  0  0  0  0  0  0  0  0  0
   56.7713   32.7838   42.8382 H   0  0  0  0  0  0  0  0  0  0  0  0
   58.4767   32.9926   42.3141 H   0  0  0  0  0  0  0  0  0  0  0  0
   57.7308   31.3585   42.3141 H   0  0  0  0  0  0  0  0  0  0  0  0
   57.7013   30.0076   44.2989 H   0  0  0  0  0  0  0  0  0  0  0  0
   58.5231   29.6496   46.6305 H   0  0  0  0  0  0  0  0  0  0  0  0
   59.5407   31.5479   47.9228 H   0  0  0  0  0  0  0  0  0  0  0  0
   60.5466   35.3931   48.2562 H   0  0  0  0  0  0  0  0  0  0  0  0
   59.9130   33.8225   48.8689 H   0  0  0  0  0  0  0  0  0  0  0  0
   62.3015   33.2852   50.1507 H   0  0  0  0  0  0  0  0  0  0  0  0
   64.5748   32.3023   49.1471 H   0  0  0  0  0  0  0  0  0  0  0  0
   64.5150   32.5820   46.5670 H   0  0  0  0  0  0  0  0  0  0  0  0
   62.2924   33.7242   45.8531 H   0  0  0  0  0  0  0  0  0  0  0  0
  1  2  1  0
  2  3  2  0
  3  4  1  0
  4  5  2  0
  5  6  1  0
  6  7  1  0
  7  8  2  0
  8  9  1  0
  9 10  2  0
  9 11  1  0
 11 12  1  0
 12 13  1  0
 13 14  1  0
 14 15  2  0
 15 16  1  0
 16 17  1  0
  7  2  1  0
 17 13  2  0
 11  6  2  0
  1 18  1  0
  1 19  1  0
  1 20  1  0
  3 21  1  0
  4 22  1  0
  5 23  1  0
 12 24  1  0
 12 25  1  0
 14 26  1  0
 15 27  1  0
 16 28  1  0
 17 29  1  0
M  END
>  <UniqueID>  (83) 
69

>  <SMILES>  (83) 
Cc1cccc2c1=NC(=O)C=2Cc1cc[nH]c1

>  <Energy>  (83) 
85.7535628518232

>  <Genealogy>  (83) 
Cc1cccc2c1=NC(=O)C=2Cc1cc[nH]c1 (3D coordinates assigned)
Cc1cccc2c1=NC(=O)C=2Cc1cc[nH]c1 (nonaromatic ring conformer: 85.7535628518232 kcal/mol)

>  <smiles>  (83) 
Cc1cccc2c1=NC(=O)C=2Cc1cc[nH]c1

>  <score_type>  (83) 
oracle

>  <origin>  (83) 
adg

>  <m_score__min__energy>  (83) 
-7.0700000000000003

>  <m_primary>  (83) 
energy

$$$$
83:0
     RDKit          3D

 68 72  0  0  1  0  0  0  0  0999 V2000
   60.6440   29.4090   49.2250 C   0  0  0  0  0  0  0  0  0  0  0  0
   59.6810   29.9980   47.8310 S   0  0  0  0  0  0  0  0  0  0  0  0
   60.5840   30.9330   47.0660 O   0  0  0  0  0  0  0  0  0  0  0  0
   58.5800   30.8450   48.3860 O   0  0  0  0  0  0  0  0  0  0  0  0
   59.1430   28.7080   46.8170 C   0  0  0  0  0  0  0  0  0  0  0  0
   59.7620   27.4550   46.8980 C   0  0  0  0  0  0  0  0  0  0  0  0
   59.3130   26.4290   46.0740 C   0  0  0  0  0  0  0  0  0  0  0  0
   58.2720   26.6100   45.1770 C   0  0  0  0  0  0  0  0  0  0  0  0
   57.6560   27.8650   45.1010 C   0  0  0  0  0  0  0  0  0  0  0  0
   58.0910   28.9160   45.9210 C   0  0  0  0  0  0  0  0  0  0  0  0
   57.4130   30.1520   45.8140 N   0  0  0  0  0  0  0  0  0  0  0  0
   57.7740   31.1780   45.1540 C   0  0  0  0  0  0  0  0  0  0  0  0
   58.4950   32.1450   45.7500 N   0  0  0  0  0  0  0  0  0  0  0  0
   58.8830   33.2340   45.0640 C   0  0  0  0  0  0  0  0  0  0  0  0
   59.5660   34.1540   45.6200 N   0  0  0  0  0  0  0  0  0  0  0  0
   60.4990   33.8940   46.6620 C   0  0  0  0  0  0  0  0  0  0  0  0
   61.8420   33.8390   46.3600 C   0  0  0  0  0  0  0  0  0  0  0  0
   62.7140   33.5880   47.3760 C   0  0  0  0  0  0  0  0  0  0  0  0
   62.2820   33.3900   48.6930 C   0  0  0  0  0  0  0  0  0  0  0  0
   60.9250   33.4420   49.0120 C   0  0  0  0  0  0  0  0  0  0  0  0
   60.4950   33.2510   50.3520 N   0  0  0  0  0  0  0  0  0  0  0  0
   59.3210   33.8940   50.9160 C   0  0  0  0  0  0  0  0  0  0  0  0
   58.4310   32.7860   51.5030 C   0  0  0  0  0  0  0  0  0  0  0  0
   59.2040   32.1120   52.4950 N   0  0  0  0  0  0  0  0  0  0  0  0
   58.4740   31.2160   53.3430 C   0  0  0  0  0  0  0  0  0  0  0  0
   58.7110   29.7760   53.0350 C   0  0  0  0  0  0  0  0  0  0  0  0
   57.8130   29.4050   51.8760 C   0  0  0  0  0  0  0  0  0  0  0  0
   56.5080   29.2800   52.3270 O   0  0  0  0  0  0  0  0  0  0  0  0
   56.1730   30.2320   53.2800 C   0  0  0  0  0  0  0  0  0  0  0  0
   56.9940   31.4950   53.1370 C   0  0  0  0  0  0  0  0  0  0  0  0
   60.2410   31.3470   51.7990 C   0  0  0  0  0  0  0  0  0  0  0  0
   61.2240   32.3820   51.2890 C   0  0  0  0  0  0  0  0  0  0  0  0
   60.0680   33.6940   47.9810 C   0  0  0  0  0  0  0  0  0  0  0  0
   58.5410   33.3540   43.7500 N   0  0  0  0  0  0  0  0  0  0  0  0
   57.8150   32.3850   43.1400 C   0  0  0  0  0  0  0  0  0  0  0  0
   57.4110   31.2640   43.8330 C   0  0  0  0  0  0  0  0  0  0  0  0
   56.4800   30.0480   42.9960 Cl  0  0  0  0  0  0  0  0  0  0  0  0
   60.1533   29.7091   50.1626 H   0  0  0  0  0  0  0  0  0  0  0  0
   60.7160   28.3121   49.1836 H   0  0  0  0  0  0  0  0  0  0  0  0
   61.6533   29.8445   49.1836 H   0  0  0  0  0  0  0  0  0  0  0  0
   60.5900   27.2849   47.6019 H   0  0  0  0  0  0  0  0  0  0  0  0
   59.7986   25.4439   46.1359 H   0  0  0  0  0  0  0  0  0  0  0  0
   57.9356   25.7819   44.5358 H   0  0  0  0  0  0  0  0  0  0  0  0
   56.8278   28.0271   44.3955 H   0  0  0  0  0  0  0  0  0  0  0  0
   58.7530   32.0500   46.7480 H   0  0  0  0  0  0  0  0  0  0  0  0
   62.1989   33.9929   45.3310 H   0  0  0  0  0  0  0  0  0  0  0  0
   63.7905   33.5394   47.1550 H   0  0  0  0  0  0  0  0  0  0  0  0
   63.0201   33.1914   49.4841 H   0  0  0  0  0  0  0  0  0  0  0  0
   59.6202   34.5959   51.7083 H   0  0  0  0  0  0  0  0  0  0  0  0
   58.7792   34.4614   50.1449 H   0  0  0  0  0  0  0  0  0  0  0  0
   57.5317   33.2257   51.9591 H   0  0  0  0  0  0  0  0  0  0  0  0
   58.1044   32.0877   50.7183 H   0  0  0  0  0  0  0  0  0  0  0  0
   58.8118   31.3895   54.3754 H   0  0  0  0  0  0  0  0  0  0  0  0
   59.7643   29.6194   52.7591 H   0  0  0  0  0  0  0  0  0  0  0  0
   58.4893   29.1507   53.9124 H   0  0  0  0  0  0  0  0  0  0  0  0
   57.8622   30.1904   51.1074 H   0  0  0  0  0  0  0  0  0  0  0  0
   58.1459   28.4497   51.4441 H   0  0  0  0  0  0  0  0  0  0  0  0
   55.1087   30.4864   53.1682 H   0  0  0  0  0  0  0  0  0  0  0  0
   56.3795   29.8047   54.2724 H   0  0  0  0  0  0  0  0  0  0  0  0
   56.8439   31.9081   52.1286 H   0  0  0  0  0  0  0  0  0  0  0  0
   56.6652   32.2123   53.9034 H   0  0  0  0  0  0  0  0  0  0  0  0
   60.7377   30.6517   52.4917 H   0  0  0  0  0  0  0  0  0  0  0  0
   59.8246   30.7383   50.9828 H   0  0  0  0  0  0  0  0  0  0  0  0
   61.6144   32.9765   52.1282 H   0  0  0  0  0  0  0  0  0  0  0  0
   62.0762   31.8979   50.7896 H   0  0  0  0  0  0  0  0  0  0  0  0
   58.9899   33.7425   48.1942 H   0  0  0  0  0  0  0  0  0  0  0  0
   58.8310   34.1940   43.1880 H   0  0  0  0  0  0  0  0  0  0  0  0
   57.5451   32.4947   42.0793 H   0  0  0  0  0  0  0  0  0  0  0  0
  1  2  1  0
  2  3  2  0
  2  4  2  0
  2  5  1  0
  5  6  2  0
  6  7  1  0
  7  8  2  0
  8  9  1  0
  9 10  2  0
 10 11  1  0
 11 12  2  0
 12 13  1  0
 13 14  1  0
 14 15  2  0
 15 16  1  0
 16 17  2  0
 17 18  1  0
 18 19  2  0
 19 20  1  0
 20 21  1  0
 21 22  1  0
 22 23  1  0
 23 24  1  0
 24 25  1  0
 25 26  1  0
 26 27  1  0
 27 28  1  0
 28 29  1  0
 29 30  1  0
 24 31  1  0
 31 32  1  0
 20 33  2  0
 14 34  1  0
 34 35  1  0
 35 36  2  0
 36 37  1  0
 10  5  1  0
 36 12  1  0
 33 16  1  0
 32 21  1  0
 30 25  1  0
  1 38  1  0
  1 39  1  0
  1 40  1  0
  6 41  1  0
  7 42  1  0
  8 43  1  0
  9 44  1  0
 13 45  1  0
 17 46  1  0
 18 47  1  0
 19 48  1  0
 22 49  1  0
 22 50  1  0
 23 51  1  0
 23 52  1  0
 25 53  1  0
 26 54  1  0
 26 55  1  0
 27 56  1  0
 27 57  1  0
 29 58  1  0
 29 59  1  0
 30 60  1  0
 30 61  1  0
 31 62  1  0
 31 63  1  0
 32 64  1  0
 32 65  1  0
 33 66  1  0
 34 67  1  0
 35 68  1  0
M  END
>  <smiles>  (84) 
CS(=O)(=O)c1ccccc1N=c1[nH]c(=Nc2cccc(N3CCN(C4CCOCC4)CC3)c2)[nH]cc1Cl

>  <score_type>  (84) 
oracle

>  <origin>  (84) 
adg

>  <m_score__min__energy>  (84) 
-11.19

>  <m_primary>  (84) 
energy

$$$$
84:0
     RDKit          3D

 30 32  0  0  0  0  0  0  0  0999 V2000
   57.4560   28.1620   44.8170 C   0  0  0  0  0  0  0  0  0  0  0  0
   57.3950   29.5330   45.4960 C   0  0  1  0  0  0  0  0  0  0  0  0
   58.8120   30.1610   45.6350 C   0  0  0  0  0  0  0  0  0  0  0  0
   58.7390   31.6250   45.5770 N   0  0  0  0  0  0  0  0  0  0  0  0
   59.4730   32.4860   46.4740 C   0  0  0  0  0  0  0  0  0  0  0  0
   60.6530   32.0820   47.1210 C   0  0  0  0  0  0  0  0  0  0  0  0
   61.3120   32.9470   47.9400 N   0  0  0  0  0  0  0  0  0  0  0  0
   60.8660   34.2160   48.1480 C   0  0  0  0  0  0  0  0  0  0  0  0
   59.7080   34.6650   47.5090 C   0  0  0  0  0  0  0  0  0  0  0  0
   59.0110   33.7970   46.6690 C   0  0  0  0  0  0  0  0  0  0  0  0
   57.8610   34.2370   46.0010 O   0  0  0  0  0  0  0  0  0  0  0  0
   57.0210   33.3400   45.2700 C   0  0  0  0  0  0  0  0  0  0  0  0
   57.8730   32.2630   44.5750 C   0  0  2  0  0  0  0  0  0  0  0  0
   57.0010   31.2060   43.8850 C   0  0  0  0  0  0  0  0  0  0  0  0
   56.4240   30.3510   44.8500 O   0  0  0  0  0  0  0  0  0  0  0  0
   57.4911   27.3742   45.5839 H   0  0  0  0  0  0  0  0  0  0  0  0
   56.5631   28.0235   44.1896 H   0  0  0  0  0  0  0  0  0  0  0  0
   58.3576   28.1033   44.1896 H   0  0  0  0  0  0  0  0  0  0  0  0
   57.0492   29.4270   46.5349 H   0  0  0  0  0  0  0  0  0  0  0  0
   59.2476   29.8592   46.5989 H   0  0  0  0  0  0  0  0  0  0  0  0
   59.4392   29.8053   44.8043 H   0  0  0  0  0  0  0  0  0  0  0  0
   61.0446   31.0659   46.9656 H   0  0  0  0  0  0  0  0  0  0  0  0
   62.1890   32.6320   48.4140 H   0  0  0  0  0  0  0  0  0  0  0  0
   61.4183   34.8890   48.8203 H   0  0  0  0  0  0  0  0  0  0  0  0
   59.3494   35.6929   47.6667 H   0  0  0  0  0  0  0  0  0  0  0  0
   56.3168   32.8556   45.9624 H   0  0  0  0  0  0  0  0  0  0  0  0
   56.4669   33.9073   44.5076 H   0  0  0  0  0  0  0  0  0  0  0  0
   58.4808   32.7457   43.7955 H   0  0  0  0  0  0  0  0  0  0  0  0
   56.2024   31.7064   43.3177 H   0  0  0  0  0  0  0  0  0  0  0  0
   57.6264   30.6110   43.2032 H   0  0  0  0  0  0  0  0  0  0  0  0
  1  2  1  0
  2  3  1  0
  3  4  1  0
  4  5  1  0
  5  6  2  0
  6  7  1  0
  7  8  2  0
  8  9  1  0
  9 10  2  0
 10 11  1  0
 11 12  1  0
 12 13  1  0
 13 14  1  0
 14 15  1  0
 15  2  1  0
 13  4  1  0
 10  5  1  0
  1 16  1  0
  1 17  1  0
  1 18  1  0
  2 19  1  1
  3 20  1  0
  3 21  1  0
  6 22  1  0
  7 23  1  0
  8 24  1  0
  9 25  1  0
 12 26  1  0
 12 27  1  0
 13 28  1  6
 14 29  1  0
 14 30  1  0
M  CHG  1   7   1
M  END
>  <UniqueID>  (85) 
70

>  <SMILES>  (85) 
C[C@H]1CN2c3c[nH+]ccc3OC[C@@H]2CO1

>  <Energy>  (85) 
40.71623274937921

>  <Genealogy>  (85) 
CC1CN2c3c[nH+]ccc3OCC2CO1 (protonated)
C[C@H]1CN2c3c[nH+]ccc3OC[C@@H]2CO1 (chirality)
C[C@H]1CN2c3c[nH+]ccc3OC[C@@H]2CO1 (3D coordinates assigned)
C[C@H]1CN2c3c[nH+]ccc3OC[C@@H]2CO1 (nonaromatic ring conformer: 40.71623274937921 kcal/mol)

>  <smiles>  (85) 
CC1CN2c3cnccc3OCC2CO1

>  <score_type>  (85) 
oracle

>  <origin>  (85) 
adg

>  <m_score__min__energy>  (85) 
-4.2599999999999998

>  <m_primary>  (85) 
energy

$$$$
85:0
     RDKit          3D

 37 40  0  0  0  0  0  0  0  0999 V2000
   57.7160   34.5200   44.8700 C   0  0  0  0  0  0  0  0  0  0  0  0
   58.9020   34.9490   45.4690 C   0  0  0  0  0  0  0  0  0  0  0  0
   59.7350   34.0340   46.1170 C   0  0  0  0  0  0  0  0  0  0  0  0
   59.3940   32.6660   46.1630 C   0  0  0  0  0  0  0  0  0  0  0  0
   60.2030   31.6930   46.8020 C   0  0  0  0  0  0  0  0  0  0  0  0
   61.5200   32.0120   47.3970 C   0  0  0  0  0  0  0  0  0  0  0  0
   61.8880   31.5140   48.6560 C   0  0  0  0  0  0  0  0  0  0  0  0
   63.0900   31.8620   49.1880 N   0  0  0  0  0  0  0  0  0  0  0  0
   63.9390   32.6910   48.5260 C   0  0  0  0  0  0  0  0  0  0  0  0
   63.5660   33.2050   47.2820 C   0  0  0  0  0  0  0  0  0  0  0  0
   62.3650   32.8590   46.7500 N   0  0  0  0  0  0  0  0  0  0  0  0
   59.7520   30.3670   46.8730 C   0  0  0  0  0  0  0  0  0  0  0  0
   58.5330   30.0010   46.2810 C   0  0  0  0  0  0  0  0  0  0  0  0
   58.0560   28.6420   46.3270 N   0  0  0  0  0  0  0  0  0  0  0  0
   57.0680   28.0790   45.4210 C   0  0  0  0  0  0  0  0  0  0  0  0
   56.7680   26.6830   45.9510 C   0  0  0  0  0  0  0  0  0  0  0  0
   57.9060   26.3460   46.9100 C   0  0  0  0  0  0  0  0  0  0  0  0
   58.5210   27.6790   47.3120 C   0  0  0  0  0  0  0  0  0  0  0  0
   57.7890   30.9480   45.6520 N   0  0  0  0  0  0  0  0  0  0  0  0
   58.1740   32.2480   45.5760 C   0  0  0  0  0  0  0  0  0  0  0  0
   57.3500   33.1750   44.9280 C   0  0  0  0  0  0  0  0  0  0  0  0
   57.0694   35.2434   44.3517 H   0  0  0  0  0  0  0  0  0  0  0  0
   59.1816   36.0122   45.4304 H   0  0  0  0  0  0  0  0  0  0  0  0
   60.6627   34.3824   46.5944 H   0  0  0  0  0  0  0  0  0  0  0  0
   61.2095   30.8473   49.2084 H   0  0  0  0  0  0  0  0  0  0  0  0
   64.9119   32.9551   48.9661 H   0  0  0  0  0  0  0  0  0  0  0  0
   64.2389   33.8840   46.7379 H   0  0  0  0  0  0  0  0  0  0  0  0
   60.3562   29.6104   47.3949 H   0  0  0  0  0  0  0  0  0  0  0  0
   56.1552   28.6928   45.4200 H   0  0  0  0  0  0  0  0  0  0  0  0
   57.4385   28.0484   44.3857 H   0  0  0  0  0  0  0  0  0  0  0  0
   55.8048   26.6743   46.4822 H   0  0  0  0  0  0  0  0  0  0  0  0
   56.6963   25.9483   45.1355 H   0  0  0  0  0  0  0  0  0  0  0  0
   57.5176   25.8213   47.7953 H   0  0  0  0  0  0  0  0  0  0  0  0
   58.6481   25.6842   46.4396 H   0  0  0  0  0  0  0  0  0  0  0  0
   58.1849   27.9680   48.3188 H   0  0  0  0  0  0  0  0  0  0  0  0
   59.6194   27.6264   47.3401 H   0  0  0  0  0  0  0  0  0  0  0  0
   56.4105   32.8421   44.4628 H   0  0  0  0  0  0  0  0  0  0  0  0
  1  2  2  0
  2  3  1  0
  3  4  2  0
  4  5  1  0
  5  6  1  0
  6  7  2  0
  7  8  1  0
  8  9  2  0
  9 10  1  0
 10 11  2  0
  5 12  2  0
 12 13  1  0
 13 14  1  0
 14 15  1  0
 15 16  1  0
 16 17  1  0
 17 18  1  0
 13 19  2  0
 19 20  1  0
 20 21  2  0
 21  1  1  0
 20  4  1  0
 11  6  1  0
 18 14  1  0
  1 22  1  0
  2 23  1  0
  3 24  1  0
  7 25  1  0
  9 26  1  0
 10 27  1  0
 12 28  1  0
 15 29  1  0
 15 30  1  0
 16 31  1  0
 16 32  1  0
 17 33  1  0
 17 34  1  0
 18 35  1  0
 18 36  1  0
 21 37  1  0
M  END
>  <UniqueID>  (86) 
71

>  <SMILES>  (86) 
c1ccc2c(-c3cnccn3)cc(N3CCCC3)nc2c1

>  <Energy>  (86) 
53.86956987873007

>  <Genealogy>  (86) 
c1ccc2c(-c3cnccn3)cc(N3CCCC3)nc2c1 (3D coordinates assigned)
c1ccc2c(-c3cnccn3)cc(N3CCCC3)nc2c1 (nonaromatic ring conformer: 53.86956987873007 kcal/mol)

>  <smiles>  (86) 
c1ccc2c(-c3cnccn3)cc(N3CCCC3)nc2c1

>  <score_type>  (86) 
oracle

>  <origin>  (86) 
adg

>  <m_score__min__energy>  (86) 
-6.9500000000000002

>  <m_primary>  (86) 
energy

$$$$
86:0
     RDKit          3D

 37 39  0  0  0  0  0  0  0  0999 V2000
   63.3680   32.3570   47.1380 C   0  0  0  0  0  0  0  0  0  0  0  0
   62.5380   31.6520   48.1320 N   0  0  0  0  0  0  0  0  0  0  0  0
   63.2210   31.6000   49.4360 C   0  0  0  0  0  0  0  0  0  0  0  0
   61.1670   32.2130   48.2300 C   0  0  0  0  0  0  0  0  0  0  0  0
   60.2000   31.6730   47.1870 C   0  0  0  0  0  0  0  0  0  0  0  0
   59.4950   32.5660   46.3730 C   0  0  0  0  0  0  0  0  0  0  0  0
   58.5750   32.1310   45.4600 N   0  0  0  0  0  0  0  0  0  0  0  0
   57.8480   33.1490   44.6760 C   0  0  0  0  0  0  0  0  0  0  0  0
   58.3230   34.5870   44.8750 C   0  0  0  0  0  0  0  0  0  0  0  0
   57.0370   34.1230   45.5250 C   0  0  0  0  0  0  0  0  0  0  0  0
   58.4090   30.7810   45.2280 C   0  0  0  0  0  0  0  0  0  0  0  0
   57.5620   30.3010   44.2020 C   0  0  0  0  0  0  0  0  0  0  0  0
   57.3920   28.9310   43.9960 C   0  0  0  0  0  0  0  0  0  0  0  0
   58.0660   28.0110   44.7970 C   0  0  0  0  0  0  0  0  0  0  0  0
   57.8450   26.2910   44.5320 Cl  0  0  0  0  0  0  0  0  0  0  0  0
   58.9260   28.4580   45.8010 C   0  0  0  0  0  0  0  0  0  0  0  0
   59.1150   29.8380   46.0200 C   0  0  0  0  0  0  0  0  0  0  0  0
   60.0070   30.2950   47.0060 C   0  0  0  0  0  0  0  0  0  0  0  0
   60.6450   29.4710   47.7180 O   0  0  0  0  0  0  0  0  0  0  0  0
   64.1073   32.9849   47.6568 H   0  0  0  0  0  0  0  0  0  0  0  0
   63.8894   31.6215   46.5078 H   0  0  0  0  0  0  0  0  0  0  0  0
   62.7265   32.9905   46.5078 H   0  0  0  0  0  0  0  0  0  0  0  0
   62.4380   30.6620   47.8000 H   0  0  0  0  0  0  0  0  0  0  0  0
   62.4755   31.6568   50.2429 H   0  0  0  0  0  0  0  0  0  0  0  0
   63.7806   30.6567   49.5195 H   0  0  0  0  0  0  0  0  0  0  0  0
   63.9169   32.4478   49.5195 H   0  0  0  0  0  0  0  0  0  0  0  0
   60.7673   31.9766   49.2272 H   0  0  0  0  0  0  0  0  0  0  0  0
   61.2532   33.2953   48.0531 H   0  0  0  0  0  0  0  0  0  0  0  0
   59.6856   33.6450   46.4699 H   0  0  0  0  0  0  0  0  0  0  0  0
   57.6530   32.5101   43.8021 H   0  0  0  0  0  0  0  0  0  0  0  0
   59.2086   34.7923   45.4942 H   0  0  0  0  0  0  0  0  0  0  0  0
   58.5997   35.4134   44.2038 H   0  0  0  0  0  0  0  0  0  0  0  0
   56.9894   33.9922   46.6162 H   0  0  0  0  0  0  0  0  0  0  0  0
   55.9946   34.4743   45.5203 H   0  0  0  0  0  0  0  0  0  0  0  0
   57.0302   31.0168   43.5579 H   0  0  0  0  0  0  0  0  0  0  0  0
   56.7232   28.5760   43.1981 H   0  0  0  0  0  0  0  0  0  0  0  0
   59.4607   27.7280   46.4265 H   0  0  0  0  0  0  0  0  0  0  0  0
  1  2  1  0
  2  3  1  0
  2  4  1  0
  4  5  1  0
  5  6  2  0
  6  7  1  0
  7  8  1  0
  8  9  1  0
  9 10  1  0
  7 11  1  0
 11 12  2  0
 12 13  1  0
 13 14  2  0
 14 15  1  0
 14 16  1  0
 16 17  2  0
 17 18  1  0
 18 19  2  0
 18  5  1  0
 10  8  1  0
 17 11  1  0
  1 20  1  0
  1 21  1  0
  1 22  1  0
  2 23  1  0
  3 24  1  0
  3 25  1  0
  3 26  1  0
  4 27  1  0
  4 28  1  0
  6 29  1  0
  8 30  1  0
  9 31  1  0
  9 32  1  0
 10 33  1  0
 10 34  1  0
 12 35  1  0
 13 36  1  0
 16 37  1  0
M  CHG  1   2   1
M  END
>  <UniqueID>  (87) 
72

>  <SMILES>  (87) 
C[NH+](C)Cc1cn(C2CC2)c2ccc(Cl)cc2c1=O

>  <Energy>  (87) 
314.7084038156058

>  <Genealogy>  (87) 
C[NH+](C)Cc1cn(C2CC2)c2ccc(Cl)cc2c1=O (protonated)
C[NH+](C)Cc1cn(C2CC2)c2ccc(Cl)cc2c1=O (3D coordinates assigned)
C[NH+](C)Cc1cn(C2CC2)c2ccc(Cl)cc2c1=O (nonaromatic ring conformer: 314.7084038156058 kcal/mol)

>  <smiles>  (87) 
CN(C)Cc1cn(C2CC2)c2ccc(Cl)cc2c1=O

>  <score_type>  (87) 
oracle

>  <origin>  (87) 
adg

>  <m_score__min__energy>  (87) 
-4.6600000000000001

>  <m_primary>  (87) 
energy

$$$$
87:0
     RDKit          3D

 26 28  0  0  0  0  0  0  0  0999 V2000
   55.5150   28.9480   42.0820 H   0  0  0  0  0  0  0  0  0  0  0  0
   56.2750   29.6400   42.2670 N   0  0  0  0  0  0  0  0  0  0  0  0
   56.8050   29.7810   43.4410 C   0  0  0  0  0  0  0  0  0  0  0  0
   57.4300   30.9740   43.8070 C   0  0  0  0  0  0  0  0  0  0  0  0
   57.6220   32.1410   43.1020 C   0  0  0  0  0  0  0  0  0  0  0  0
   57.2850   32.3320   42.0725 H   0  0  0  0  0  0  0  0  0  0  0  0
   58.2950   33.0140   43.8880 N   0  0  0  0  0  0  0  0  0  0  0  0
   58.4900   32.3550   45.0580 C   0  0  0  0  0  0  0  0  0  0  0  0
   59.2320   32.9270   46.2440 C   0  0  0  0  0  0  0  0  0  0  0  0
   59.6761   31.9978   46.6304 H   0  0  0  0  0  0  0  0  0  0  0  0
   58.3550   33.8230   47.1170 C   0  0  0  0  0  0  0  0  0  0  0  0
   57.3272   33.9453   46.7446 H   0  0  0  0  0  0  0  0  0  0  0  0
   58.1300   33.5393   48.1557 H   0  0  0  0  0  0  0  0  0  0  0  0
   59.2680   35.0060   46.8220 C   0  0  0  0  0  0  0  0  0  0  0  0
   58.7754   35.8291   46.2837 H   0  0  0  0  0  0  0  0  0  0  0  0
   59.7160   35.5803   47.6463 H   0  0  0  0  0  0  0  0  0  0  0  0
   60.1380   34.1220   45.9410 C   0  0  0  0  0  0  0  0  0  0  0  0
   60.1513   34.4181   44.8817 H   0  0  0  0  0  0  0  0  0  0  0  0
   61.2221   34.0569   46.1159 H   0  0  0  0  0  0  0  0  0  0  0  0
   57.9740   31.1080   45.0210 N   0  0  0  0  0  0  0  0  0  0  0  0
   57.9600   30.1160   45.9480 C   0  0  0  0  0  0  0  0  0  0  0  0
   58.4217   30.2540   46.9369 H   0  0  0  0  0  0  0  0  0  0  0  0
   57.3360   28.9090   45.6000 C   0  0  0  0  0  0  0  0  0  0  0  0
   57.2989   28.0797   46.3217 H   0  0  0  0  0  0  0  0  0  0  0  0
   56.7730   28.7650   44.3600 N   0  0  0  0  0  0  0  0  0  0  0  0
   56.3130   27.8570   44.1220 H   0  0  0  0  0  0  0  0  0  0  0  0
  1  2  1  0
  2  3  2  0
  3  4  1  0
  4  5  2  0
  5  6  1  0
  5  7  1  0
  7  8  2  0
  8  9  1  0
  9 10  1  0
  9 11  1  0
 11 12  1  0
 11 13  1  0
 11 14  1  0
 14 15  1  0
 14 16  1  0
 14 17  1  0
 17 18  1  0
 17 19  1  0
  8 20  1  0
 20 21  1  0
 21 22  1  0
 21 23  2  0
 23 24  1  0
 23 25  1  0
 25 26  1  0
 25  3  1  0
 20  4  1  0
 17  9  1  0
M  END
>  <UniqueID>  (88) 
73

>  <SMILES>  (88) 
[H]/N=c1\[nH]ccn2c(C3CCC3)ncc12

>  <Energy>  (88) 
125.03126919986323

>  <Genealogy>  (88) 
[H]/N=c1\[nH]ccn2c(C3CCC3)ncc12 (cis-trans isomerization)
[H]/N=c1\[nH]ccn2c(C3CCC3)ncc12 (3D coordinates assigned)
[H]/N=c1\[nH]ccn2c(C3CCC3)ncc12 (nonaromatic ring conformer: 125.03126919986323 kcal/mol)

>  <smiles>  (88) 
N=c1[nH]ccn2c(C3CCC3)ncc12

>  <score_type>  (88) 
oracle

>  <origin>  (88) 
adg

>  <m_score__min__energy>  (88) 
-5.7699999999999996

>  <m_primary>  (88) 
energy

$$$$
88:0
     RDKit          3D

 45 49  0  0  0  0  0  0  0  0999 V2000
   61.3750   26.6330   48.6010 H   0  0  0  0  0  0  0  0  0  0  0  0
   61.1150   26.6010   47.5910 N   0  0  0  0  0  0  0  0  0  0  0  0
   59.9000   26.4800   47.1530 C   0  0  0  0  0  0  0  0  0  0  0  0
   59.5850   25.3850   46.4110 N   0  0  0  0  0  0  0  0  0  0  0  0
   58.3320   25.1560   45.9420 C   0  0  0  0  0  0  0  0  0  0  0  0
   58.0690   24.0110   45.1820 C   0  0  0  0  0  0  0  0  0  0  0  0
   58.8784   23.2993   44.9623 H   0  0  0  0  0  0  0  0  0  0  0  0
   56.7790   23.7710   44.7020 C   0  0  0  0  0  0  0  0  0  0  0  0
   56.5759   22.8706   44.1036 H   0  0  0  0  0  0  0  0  0  0  0  0
   55.7460   24.6700   44.9790 C   0  0  0  0  0  0  0  0  0  0  0  0
   54.7324   24.4737   44.5994 H   0  0  0  0  0  0  0  0  0  0  0  0
   55.9960   25.8200   45.7380 C   0  0  0  0  0  0  0  0  0  0  0  0
   54.9510   26.7010   46.0000 O   0  0  0  0  0  0  0  0  0  0  0  0
   57.2940   26.0690   46.2260 C   0  0  0  0  0  0  0  0  0  0  0  0
   57.5910   27.2100   46.9850 C   0  0  0  0  0  0  0  0  0  0  0  0
   56.7952   27.9321   47.2198 H   0  0  0  0  0  0  0  0  0  0  0  0
   58.8960   27.4370   47.4470 C   0  0  0  0  0  0  0  0  0  0  0  0
   59.1760   28.6840   48.1970 C   0  0  0  0  0  0  0  0  0  0  0  0
   59.6530   28.6120   49.5150 C   0  0  0  0  0  0  0  0  0  0  0  0
   59.8296   27.6306   49.9794 H   0  0  0  0  0  0  0  0  0  0  0  0
   59.9050   29.7790   50.2410 C   0  0  0  0  0  0  0  0  0  0  0  0
   60.2829   29.7119   51.2719 H   0  0  0  0  0  0  0  0  0  0  0  0
   59.6790   31.0310   49.6630 C   0  0  0  0  0  0  0  0  0  0  0  0
   59.8848   31.9470   50.2362 H   0  0  0  0  0  0  0  0  0  0  0  0
   59.1890   31.1190   48.3500 C   0  0  0  0  0  0  0  0  0  0  0  0
   58.9300   32.3430   47.7180 C   0  0  0  0  0  0  0  0  0  0  0  0
   59.1360   33.4370   48.3090 O   0  0  0  0  0  0  0  0  0  0  0  0
   58.4490   32.3500   46.4500 N   0  0  0  0  0  0  0  0  0  0  0  0
   58.2130   31.1880   45.7810 C   0  0  0  0  0  0  0  0  0  0  0  0
   57.7050   31.2100   44.4320 N   0  0  0  0  0  0  0  0  0  0  0  0
   57.9720   32.3800   43.5860 C   0  0  0  0  0  0  0  0  0  0  0  0
   57.2396   33.1679   43.8156 H   0  0  0  0  0  0  0  0  0  0  0  0
   58.9914   32.7407   43.7877 H   0  0  0  0  0  0  0  0  0  0  0  0
   57.8620   32.0050   42.1050 C   0  0  0  0  0  0  0  0  0  0  0  0
   57.9084   32.9204   41.4969 H   0  0  0  0  0  0  0  0  0  0  0  0
   58.6940   31.3325   41.8490 H   0  0  0  0  0  0  0  0  0  0  0  0
   56.6430   31.3370   41.8450 O   0  0  0  0  0  0  0  0  0  0  0  0
   56.6370   30.0910   42.5140 C   0  0  0  0  0  0  0  0  0  0  0  0
   55.7372   29.5295   42.2222 H   0  0  0  0  0  0  0  0  0  0  0  0
   57.5437   29.5356   42.2321 H   0  0  0  0  0  0  0  0  0  0  0  0
   56.6350   30.2880   44.0330 C   0  0  0  0  0  0  0  0  0  0  0  0
   55.6647   30.7032   44.3431 H   0  0  0  0  0  0  0  0  0  0  0  0
   56.8033   29.3154   44.5186 H   0  0  0  0  0  0  0  0  0  0  0  0
   58.4560   30.0260   46.3780 O   0  0  0  0  0  0  0  0  0  0  0  0
   58.9310   29.9430   47.6170 C   0  0  0  0  0  0  0  0  0  0  0  0
  1  2  1  0
  2  3  2  0
  3  4  1  0
  4  5  1  0
  5  6  2  0
  6  7  1  0
  6  8  1  0
  8  9  1  0
  8 10  2  0
 10 11  1  0
 10 12  1  0
 12 13  1  0
 12 14  2  0
 14 15  1  0
 15 16  1  0
 15 17  2  0
 17 18  1  0
 18 19  2  0
 19 20  1  0
 19 21  1  0
 21 22  1  0
 21 23  2  0
 23 24  1  0
 23 25  1  0
 25 26  1  0
 26 27  2  0
 26 28  1  0
 28 29  2  0
 29 30  1  0
 30 31  1  0
 31 32  1  0
 31 33  1  0
 31 34  1  0
 34 35  1  0
 34 36  1  0
 34 37  1  0
 37 38  1  0
 38 39  1  0
 38 40  1  0
 38 41  1  0
 41 42  1  0
 41 43  1  0
 29 44  1  0
 44 45  1  0
 17  3  1  0
 45 18  1  0
 14  5  1  0
 45 25  2  0
 41 30  1  0
M  CHG  2   4  -1  13  -1
M  END
>  <UniqueID>  (89) 
74

>  <SMILES>  (89) 
[H]/N=c1/[n-]c2cccc([O-])c2cc1-c1cccc2c(=O)nc(N3CCOCC3)oc12

>  <Energy>  (89) 
69.50166544494405

>  <Genealogy>  (89) 
N=c1[n-]c2cccc([O-])c2cc1-c1cccc2c(=O)nc(N3CCOCC3)oc12 (protonated)
[H]/N=c1/[n-]c2cccc([O-])c2cc1-c1cccc2c(=O)nc(N3CCOCC3)oc12 (cis-trans isomerization)
[H]/N=c1/[n-]c2cccc([O-])c2cc1-c1cccc2c(=O)nc(N3CCOCC3)oc12 (3D coordinates assigned)
[H]/N=c1/[n-]c2cccc([O-])c2cc1-c1cccc2c(=O)nc(N3CCOCC3)oc12 (nonaromatic ring conformer: 69.50166544494405 kcal/mol)

>  <smiles>  (89) 
N=c1[nH]c2cccc(O)c2cc1-c1cccc2c(=O)nc(N3CCOCC3)oc12

>  <score_type>  (89) 
oracle

>  <origin>  (89) 
adg

>  <m_score__min__energy>  (89) 
-12.68

>  <m_primary>  (89) 
energy

$$$$
89:0
     RDKit          3D

 37 39  0  0  0  0  0  0  0  0999 V2000
   56.9290   29.8820   43.7530 Cl  0  0  0  0  0  0  0  0  0  0  0  0
   57.5800   31.3690   44.4180 C   0  0  0  0  0  0  0  0  0  0  0  0
   57.9210   32.4340   43.5840 C   0  0  0  0  0  0  0  0  0  0  0  0
   58.4260   33.5770   44.1180 N   0  0  0  0  0  0  0  0  0  0  0  0
   58.6000   33.7050   45.4620 C   0  0  0  0  0  0  0  0  0  0  0  0
   59.1870   34.9610   46.0290 C   0  0  0  0  0  0  0  0  0  0  0  0
   60.3460   34.6530   46.8910 N   0  0  0  0  0  0  0  0  0  0  0  0
   59.9160   34.1980   48.2390 C   0  0  0  0  0  0  0  0  0  0  0  0
   60.9650   33.3310   48.9720 C   0  0  0  0  0  0  0  0  0  0  0  0
   62.3220   33.5510   48.4540 N   0  0  0  0  0  0  0  0  0  0  0  0
   63.4550   33.4250   49.3390 C   0  0  0  0  0  0  0  0  0  0  0  0
   63.4160   33.9840   50.6270 C   0  0  0  0  0  0  0  0  0  0  0  0
   64.5180   33.8480   51.4710 C   0  0  0  0  0  0  0  0  0  0  0  0
   65.6490   33.1620   51.0310 C   0  0  0  0  0  0  0  0  0  0  0  0
   65.6600   32.6170   49.7480 C   0  0  0  0  0  0  0  0  0  0  0  0
   64.5760   32.7550   48.9340 N   0  0  0  0  0  0  0  0  0  0  0  0
   62.5470   33.6170   47.0030 C   0  0  0  0  0  0  0  0  0  0  0  0
   61.2230   33.6640   46.2430 C   0  0  0  0  0  0  0  0  0  0  0  0
   58.2770   32.6720   46.2870 N   0  0  0  0  0  0  0  0  0  0  0  0
   57.7710   31.5130   45.7920 C   0  0  0  0  0  0  0  0  0  0  0  0
   57.7814   32.3487   42.4962 H   0  0  0  0  0  0  0  0  0  0  0  0
   59.5133   35.6115   45.2041 H   0  0  0  0  0  0  0  0  0  0  0  0
   58.4208   35.4674   46.6344 H   0  0  0  0  0  0  0  0  0  0  0  0
   59.7095   35.0859   48.8546 H   0  0  0  0  0  0  0  0  0  0  0  0
   59.0261   33.5679   48.0943 H   0  0  0  0  0  0  0  0  0  0  0  0
   60.9486   33.5835   50.0425 H   0  0  0  0  0  0  0  0  0  0  0  0
   60.7064   32.2746   48.8075 H   0  0  0  0  0  0  0  0  0  0  0  0
   62.5215   34.5259   50.9680 H   0  0  0  0  0  0  0  0  0  0  0  0
   64.4947   34.2812   52.4818 H   0  0  0  0  0  0  0  0  0  0  0  0
   66.5234   33.0519   51.6892 H   0  0  0  0  0  0  0  0  0  0  0  0
   66.5473   32.0734   49.3913 H   0  0  0  0  0  0  0  0  0  0  0  0
   64.6290   32.3500   47.9730 H   0  0  0  0  0  0  0  0  0  0  0  0
   63.1272   34.5221   46.7702 H   0  0  0  0  0  0  0  0  0  0  0  0
   63.0960   32.7156   46.6931 H   0  0  0  0  0  0  0  0  0  0  0  0
   61.4051   33.9577   45.1987 H   0  0  0  0  0  0  0  0  0  0  0  0
   60.7463   32.6727   46.2557 H   0  0  0  0  0  0  0  0  0  0  0  0
   57.5123   30.6893   46.4736 H   0  0  0  0  0  0  0  0  0  0  0  0
  1  2  1  0
  2  3  2  0
  3  4  1  0
  4  5  2  0
  5  6  1  0
  6  7  1  0
  7  8  1  0
  8  9  1  0
  9 10  1  0
 10 11  1  0
 11 12  2  0
 12 13  1  0
 13 14  2  0
 14 15  1  0
 15 16  2  0
 10 17  1  0
 17 18  1  0
  5 19  1  0
 19 20  2  0
 20  2  1  0
 18  7  1  0
 16 11  1  0
  3 21  1  0
  6 22  1  0
  6 23  1  0
  8 24  1  0
  8 25  1  0
  9 26  1  0
  9 27  1  0
 12 28  1  0
 13 29  1  0
 14 30  1  0
 15 31  1  0
 16 32  1  0
 17 33  1  0
 17 34  1  0
 18 35  1  0
 18 36  1  0
 20 37  1  0
M  CHG  1  16   1
M  END
>  <UniqueID>  (90) 
75

>  <SMILES>  (90) 
Clc1cnc(CN2CCN(c3cccc[nH+]3)CC2)nc1

>  <Energy>  (90) 
48.32922032441422

>  <Genealogy>  (90) 
Clc1cnc(CN2CCN(c3cccc[nH+]3)CC2)nc1 (protonated)
Clc1cnc(CN2CCN(c3cccc[nH+]3)CC2)nc1 (3D coordinates assigned)
Clc1cnc(CN2CCN(c3cccc[nH+]3)CC2)nc1 (nonaromatic ring conformer: 48.32922032441422 kcal/mol)

>  <smiles>  (90) 
Clc1cnc(CN2CCN(c3ccccn3)CC2)nc1

>  <score_type>  (90) 
oracle

>  <origin>  (90) 
adg

>  <m_score__min__energy>  (90) 
-5.4400000000000004

>  <m_primary>  (90) 
energy

$$$$
90:0
     RDKit          3D

 33 35  0  0  0  0  0  0  0  0999 V2000
   55.0360   25.7900   45.9150 O   0  0  0  0  0  0  0  0  0  0  0  0
   56.2530   25.4630   45.9050 C   0  0  0  0  0  0  0  0  0  0  0  0
   56.5920   24.0790   46.0680 N   0  0  0  0  0  0  0  0  0  0  0  0
   56.8740   23.1400   45.0210 C   0  0  0  0  0  0  0  0  0  0  0  0
   56.3210   23.2740   43.7400 C   0  0  0  0  0  0  0  0  0  0  0  0
   56.5930   22.3180   42.7600 C   0  0  0  0  0  0  0  0  0  0  0  0
   57.4000   21.2250   43.0780 C   0  0  0  0  0  0  0  0  0  0  0  0
   57.9070   21.0910   44.3350 N   0  0  0  0  0  0  0  0  0  0  0  0
   57.6540   22.0140   45.3030 C   0  0  0  0  0  0  0  0  0  0  0  0
   57.3110   26.5430   45.8590 C   0  0  2  0  0  0  0  0  0  0  0  0
   58.1110   26.5670   47.1690 C   0  0  0  0  0  0  0  0  0  0  0  0
   59.1030   27.5930   47.1240 O   0  0  0  0  0  0  0  0  0  0  0  0
   58.8720   28.8250   46.5020 C   0  0  0  0  0  0  0  0  0  0  0  0
   59.8120   29.8530   46.6300 C   0  0  0  0  0  0  0  0  0  0  0  0
   59.5940   31.0850   46.0080 C   0  0  0  0  0  0  0  0  0  0  0  0
   58.4340   31.2970   45.2550 C   0  0  0  0  0  0  0  0  0  0  0  0
   58.1360   32.9860   44.4160 Br  0  0  0  0  0  0  0  0  0  0  0  0
   57.4910   30.2720   45.1200 C   0  0  0  0  0  0  0  0  0  0  0  0
   57.7110   29.0270   45.7270 C   0  0  0  0  0  0  0  0  0  0  0  0
   56.6820   27.9310   45.6130 C   0  0  0  0  0  0  0  0  0  0  0  0
   55.6731   24.1319   43.5072 H   0  0  0  0  0  0  0  0  0  0  0  0
   56.1757   22.4251   41.7479 H   0  0  0  0  0  0  0  0  0  0  0  0
   57.6273   20.4696   42.3114 H   0  0  0  0  0  0  0  0  0  0  0  0
   58.5010   20.2620   44.5600 H   0  0  0  0  0  0  0  0  0  0  0  0
   58.0656   21.8733   46.3133 H   0  0  0  0  0  0  0  0  0  0  0  0
   57.9872   26.3112   45.0229 H   0  0  0  0  0  0  0  0  0  0  0  0
   57.4270   26.7599   48.0086 H   0  0  0  0  0  0  0  0  0  0  0  0
   58.6072   25.5946   47.3036 H   0  0  0  0  0  0  0  0  0  0  0  0
   60.7250   29.6911   47.2218 H   0  0  0  0  0  0  0  0  0  0  0  0
   60.3363   31.8903   46.1106 H   0  0  0  0  0  0  0  0  0  0  0  0
   56.5746   30.4432   44.5361 H   0  0  0  0  0  0  0  0  0  0  0  0
   55.8912   28.1031   46.3580 H   0  0  0  0  0  0  0  0  0  0  0  0
   56.2676   27.9486   44.5942 H   0  0  0  0  0  0  0  0  0  0  0  0
  1  2  2  0
  2  3  1  0
  3  4  1  0
  4  5  2  0
  5  6  1  0
  6  7  2  0
  7  8  1  0
  8  9  2  0
  2 10  1  0
 10 11  1  0
 11 12  1  0
 12 13  1  0
 13 14  2  0
 14 15  1  0
 15 16  2  0
 16 17  1  0
 16 18  1  0
 18 19  2  0
 19 20  1  0
  9  4  1  0
 20 10  1  0
 19 13  1  0
  5 21  1  0
  6 22  1  0
  7 23  1  0
  8 24  1  0
  9 25  1  0
 10 26  1  6
 11 27  1  0
 11 28  1  0
 14 29  1  0
 15 30  1  0
 18 31  1  0
 20 32  1  0
 20 33  1  0
M  CHG  2   3  -1   8   1
M  END
>  <UniqueID>  (91) 
76

>  <SMILES>  (91) 
O=C([N-]c1ccc[nH+]c1)[C@@H]1COc2ccc(Br)cc2C1

>  <Energy>  (91) 
39.80403710604199

>  <Genealogy>  (91) 
O=C([N-]c1ccc[nH+]c1)C1COc2ccc(Br)cc2C1 (protonated)
O=C([N-]c1ccc[nH+]c1)[C@@H]1COc2ccc(Br)cc2C1 (chirality)
O=C([N-]c1ccc[nH+]c1)[C@@H]1COc2ccc(Br)cc2C1 (3D coordinates assigned)
O=C([N-]c1ccc[nH+]c1)[C@@H]1COc2ccc(Br)cc2C1 (nonaromatic ring conformer: 39.80403710604199 kcal/mol)

>  <smiles>  (91) 
O=C(Nc1cccnc1)C1COc2ccc(Br)cc2C1

>  <score_type>  (91) 
oracle

>  <origin>  (91) 
adg

>  <m_score__min__energy>  (91) 
-7.7599999999999998

>  <m_primary>  (91) 
energy

$$$$
91:0
     RDKit          3D

 25 25  0  0  1  0  0  0  0  0999 V2000
   55.5020   30.0880   43.7010 C   0  0  0  0  0  0  0  0  0  0  0  0
   56.2260   29.7160   44.8680 N   0  0  0  0  0  0  0  0  0  0  0  0
   57.4280   29.3600   44.9010 C   0  0  0  0  0  0  0  0  0  0  0  0
   57.7400   28.1030   44.5040 N   0  0  0  0  0  0  0  0  0  0  0  0
   59.0040   27.6320   44.5200 C   0  0  0  0  0  0  0  0  0  0  0  0
   59.9760   28.4550   44.9470 N   0  0  0  0  0  0  0  0  0  0  0  0
   59.7030   29.7220   45.3520 C   0  0  0  0  0  0  0  0  0  0  0  0
   58.3880   30.2070   45.3340 C   0  0  0  0  0  0  0  0  0  0  0  0
   58.2170   31.5810   45.7600 C   0  0  0  0  0  0  0  0  0  0  0  0
   58.1800   31.9550   46.9650 O   0  0  0  0  0  0  0  0  0  0  0  0
   58.0790   32.6670   44.8010 N   0  0  0  0  0  0  0  0  0  0  0  0
   57.9210   34.0030   45.3430 C   0  0  0  0  0  0  0  0  0  0  0  0
   58.1020   32.3860   43.3770 C   0  0  0  0  0  0  0  0  0  0  0  0
   54.5588   30.5726   43.9936 H   0  0  0  0  0  0  0  0  0  0  0  0
   56.1042   30.7884   43.1036 H   0  0  0  0  0  0  0  0  0  0  0  0
   55.2833   29.1906   43.1036 H   0  0  0  0  0  0  0  0  0  0  0  0
   56.9710   27.4700   44.1720 H   0  0  0  0  0  0  0  0  0  0  0  0
   59.2315   26.6064   44.1937 H   0  0  0  0  0  0  0  0  0  0  0  0
   60.5201   30.3728   45.6969 H   0  0  0  0  0  0  0  0  0  0  0  0
   57.9266   33.9559   46.4420 H   0  0  0  0  0  0  0  0  0  0  0  0
   58.7502   34.6387   44.9990 H   0  0  0  0  0  0  0  0  0  0  0  0
   56.9664   34.4277   44.9990 H   0  0  0  0  0  0  0  0  0  0  0  0
   58.1908   31.3011   43.2187 H   0  0  0  0  0  0  0  0  0  0  0  0
   57.1712   32.7487   42.9166 H   0  0  0  0  0  0  0  0  0  0  0  0
   58.9615   32.8953   42.9166 H   0  0  0  0  0  0  0  0  0  0  0  0
  1  2  1  0
  2  3  2  0
  3  4  1  0
  4  5  1  0
  5  6  2  0
  6  7  1  0
  7  8  2  0
  8  9  1  0
  9 10  2  0
  9 11  1  0
 11 12  1  0
 11 13  1  0
  8  3  1  0
  1 14  1  0
  1 15  1  0
  1 16  1  0
  4 17  1  0
  5 18  1  0
  7 19  1  0
 12 20  1  0
 12 21  1  0
 12 22  1  0
 13 23  1  0
 13 24  1  0
 13 25  1  0
M  END
>  <smiles>  (92) 
CN=c1[nH]cncc1C(=O)N(C)C

>  <score_type>  (92) 
oracle

>  <origin>  (92) 
adg

>  <m_score__min__energy>  (92) 
-4.9500000000000002

>  <m_primary>  (92) 
energy

$$$$
92:0
     RDKit          3D

 27 28  0  0  0  0  0  0  0  0999 V2000
   58.5400   23.4000   45.3090 C   0  0  0  0  0  0  0  0  0  0  0  0
   57.4200   24.3720   45.5040 C   0  0  0  0  0  0  0  0  0  0  0  0
   56.0910   23.9400   45.4560 C   0  0  0  0  0  0  0  0  0  0  0  0
   55.0750   24.8810   45.6440 C   0  0  0  0  0  0  0  0  0  0  0  0
   53.6390   24.4650   45.5990 C   0  0  0  0  0  0  0  0  0  0  0  0
   55.3970   26.1820   45.8680 N   0  0  0  0  0  0  0  0  0  0  0  0
   56.6950   26.5910   45.9130 C   0  0  0  0  0  0  0  0  0  0  0  0
   56.9970   27.8350   46.1270 N   0  0  0  0  0  0  0  0  0  0  0  0
   56.8300   29.0840   44.9360 S   0  0  0  0  0  0  0  0  0  0  0  0
   55.3860   29.4820   44.8300 O   0  0  0  0  0  0  0  0  0  0  0  0
   57.3300   28.5920   43.6070 O   0  0  0  0  0  0  0  0  0  0  0  0
   57.7770   30.4750   45.4280 C   0  0  0  0  0  0  0  0  0  0  0  0
   58.8280   30.4570   46.3330 C   0  0  0  0  0  0  0  0  0  0  0  0
   59.3900   31.7210   46.5410 C   0  0  0  0  0  0  0  0  0  0  0  0
   58.7750   32.7210   45.8000 C   0  0  0  0  0  0  0  0  0  0  0  0
   59.2480   34.5670   45.8110 Br  0  0  0  0  0  0  0  0  0  0  0  0
   57.5340   32.0480   44.8870 S   0  0  0  0  0  0  0  0  0  0  0  0
   57.6920   25.6850   45.7320 N   0  0  0  0  0  0  0  0  0  0  0  0
   58.9167   23.0731   46.2894 H   0  0  0  0  0  0  0  0  0  0  0  0
   58.1748   22.5277   44.7471 H   0  0  0  0  0  0  0  0  0  0  0  0
   59.3522   23.8844   44.7471 H   0  0  0  0  0  0  0  0  0  0  0  0
   55.8504   22.8822   45.2742 H   0  0  0  0  0  0  0  0  0  0  0  0
   53.2570   24.3543   46.6246 H   0  0  0  0  0  0  0  0  0  0  0  0
   53.0520   25.2300   45.0697 H   0  0  0  0  0  0  0  0  0  0  0  0
   53.5519   23.5047   45.0697 H   0  0  0  0  0  0  0  0  0  0  0  0
   59.1824   29.5444   46.8346 H   0  0  0  0  0  0  0  0  0  0  0  0
   60.2337   31.9041   47.2226 H   0  0  0  0  0  0  0  0  0  0  0  0
  1  2  1  0
  2  3  1  0
  3  4  2  0
  4  5  1  0
  4  6  1  0
  6  7  1  0
  7  8  2  3
  8  9  1  0
  9 10  2  0
  9 11  2  0
  9 12  1  0
 12 13  2  0
 13 14  1  0
 14 15  2  0
 15 16  1  0
 15 17  1  0
  7 18  1  0
 18  2  2  0
 17 12  1  0
  1 19  1  0
  1 20  1  0
  1 21  1  0
  3 22  1  0
  5 23  1  0
  5 24  1  0
  5 25  1  0
 13 26  1  0
 14 27  1  0
M  CHG  1   6  -1
M  END
>  <UniqueID>  (93) 
77

>  <SMILES>  (93) 
Cc1cc(C)[n-]c(=NS(=O)(=O)c2ccc(Br)s2)n1

>  <Energy>  (93) 
55.3387124157428

>  <Genealogy>  (93) 
Cc1cc(C)[n-]c(=NS(=O)(=O)c2ccc(Br)s2)n1 (protonated)
Cc1cc(C)[n-]c(=NS(=O)(=O)c2ccc(Br)s2)n1 (3D coordinates assigned)
Cc1cc(C)[n-]c(=NS(=O)(=O)c2ccc(Br)s2)n1 (optimized conformer: 55.3387124157428 kcal/mol)

>  <smiles>  (93) 
Cc1cc(C)[nH]c(=NS(=O)(=O)c2ccc(Br)s2)n1

>  <score_type>  (93) 
oracle

>  <origin>  (93) 
adg

>  <m_score__min__energy>  (93) 
-8.7300000000000004

>  <m_primary>  (93) 
energy

$$$$
93:0
     RDKit          3D

 33 34  0  0  0  0  0  0  0  0999 V2000
   58.1380   27.4970   43.4650 C   0  0  0  0  0  0  0  0  0  0  0  0
   58.5170   27.8280   44.8830 C   0  0  0  0  0  0  0  0  0  0  0  0
   59.2660   26.8970   45.6230 C   0  0  0  0  0  0  0  0  0  0  0  0
   59.6620   27.1840   46.9310 C   0  0  0  0  0  0  0  0  0  0  0  0
   59.3130   28.4000   47.5170 C   0  0  0  0  0  0  0  0  0  0  0  0
   58.5550   29.3280   46.8030 C   0  0  0  0  0  0  0  0  0  0  0  0
   58.1330   29.0490   45.4930 C   0  0  0  0  0  0  0  0  0  0  0  0
   57.3070   30.0540   44.7960 C   0  0  0  0  0  0  0  0  0  0  0  0
   56.0510   29.9630   44.8620 O   0  0  0  0  0  0  0  0  0  0  0  0
   57.9430   31.0520   43.8650 C   0  0  0  0  0  0  0  0  0  0  0  0
   57.4120   32.4830   44.0500 C   0  0  0  0  0  0  0  0  0  0  0  0
   58.1230   33.2100   45.1610 C   0  0  0  0  0  0  0  0  0  0  0  0
   58.9840   34.2830   44.8740 C   0  0  0  0  0  0  0  0  0  0  0  0
   59.6170   34.9760   45.9110 C   0  0  0  0  0  0  0  0  0  0  0  0
   59.3950   34.6030   47.2390 C   0  0  0  0  0  0  0  0  0  0  0  0
   58.5400   33.5380   47.5330 C   0  0  0  0  0  0  0  0  0  0  0  0
   57.9060   32.8420   46.4990 C   0  0  0  0  0  0  0  0  0  0  0  0
   57.3095   26.7734   43.4663 H   0  0  0  0  0  0  0  0  0  0  0  0
   57.8229   28.4143   42.9460 H   0  0  0  0  0  0  0  0  0  0  0  0
   59.0045   27.0613   42.9460 H   0  0  0  0  0  0  0  0  0  0  0  0
   59.5425   25.9344   45.1681 H   0  0  0  0  0  0  0  0  0  0  0  0
   60.2504   26.4493   47.5001 H   0  0  0  0  0  0  0  0  0  0  0  0
   59.6358   28.6278   48.5436 H   0  0  0  0  0  0  0  0  0  0  0  0
   58.2854   30.2867   47.2701 H   0  0  0  0  0  0  0  0  0  0  0  0
   59.0279   31.0563   44.0466 H   0  0  0  0  0  0  0  0  0  0  0  0
   57.6948   30.7433   42.8388 H   0  0  0  0  0  0  0  0  0  0  0  0
   57.5566   33.0393   43.1121 H   0  0  0  0  0  0  0  0  0  0  0  0
   56.3462   32.4181   44.3143 H   0  0  0  0  0  0  0  0  0  0  0  0
   59.1608   34.5791   43.8295 H   0  0  0  0  0  0  0  0  0  0  0  0
   60.2900   35.8151   45.6809 H   0  0  0  0  0  0  0  0  0  0  0  0
   59.8938   35.1483   48.0537 H   0  0  0  0  0  0  0  0  0  0  0  0
   58.3653   33.2465   48.5792 H   0  0  0  0  0  0  0  0  0  0  0  0
   57.2347   32.0030   46.7345 H   0  0  0  0  0  0  0  0  0  0  0  0
  1  2  1  0
  2  3  2  0
  3  4  1  0
  4  5  2  0
  5  6  1  0
  6  7  2  0
  7  8  1  0
  8  9  2  0
  8 10  1  0
 10 11  1  0
 11 12  1  0
 12 13  2  0
 13 14  1  0
 14 15  2  0
 15 16  1  0
 16 17  2  0
  7  2  1  0
 17 12  1  0
  1 18  1  0
  1 19  1  0
  1 20  1  0
  3 21  1  0
  4 22  1  0
  5 23  1  0
  6 24  1  0
 10 25  1  0
 10 26  1  0
 11 27  1  0
 11 28  1  0
 13 29  1  0
 14 30  1  0
 15 31  1  0
 16 32  1  0
 17 33  1  0
M  END
>  <UniqueID>  (94) 
78

>  <SMILES>  (94) 
Cc1ccccc1C(=O)CCc1ccccc1

>  <Energy>  (94) 
36.785910161215206

>  <Genealogy>  (94) 
Cc1ccccc1C(=O)CCc1ccccc1 (3D coordinates assigned)
Cc1ccccc1C(=O)CCc1ccccc1 (optimized conformer: 36.785910161215206 kcal/mol)

>  <smiles>  (94) 
Cc1ccccc1C(=O)CCc1ccccc1

>  <score_type>  (94) 
oracle

>  <origin>  (94) 
adg

>  <m_score__min__energy>  (94) 
-7.1100000000000003

>  <m_primary>  (94) 
energy

$$$$
94:0
     RDKit          3D

 38 40  0  0  0  0  0  0  0  0999 V2000
   60.3765   31.4449   47.9537 H   0  0  0  0  0  0  0  0  0  0  0  0
   61.2150   32.0540   47.5850 C   0  0  0  0  0  0  0  0  0  0  0  0
   60.9910   33.3590   47.1260 C   0  0  0  0  0  0  0  0  0  0  0  0
   59.6070   33.9530   47.1640 C   0  0  0  0  0  0  0  0  0  0  0  0
   59.6628   34.9638   47.5942 H   0  0  0  0  0  0  0  0  0  0  0  0
   58.9673   33.3027   47.7787 H   0  0  0  0  0  0  0  0  0  0  0  0
   59.0000   34.0410   45.7620 C   0  0  0  0  0  0  0  0  0  0  0  0
   59.6767   33.5576   45.0420 H   0  0  0  0  0  0  0  0  0  0  0  0
   58.8628   35.0995   45.4960 H   0  0  0  0  0  0  0  0  0  0  0  0
   57.7020   33.3690   45.7310 N   0  0  0  0  0  0  0  0  0  0  0  0
   57.5480   32.0900   45.5730 C   0  0  0  0  0  0  0  0  0  0  0  0
   56.6660   31.5990   44.6600 N   0  0  0  0  0  0  0  0  0  0  0  0
   56.5230   30.2590   44.4990 C   0  0  0  0  0  0  0  0  0  0  0  0
   55.5260   29.7250   43.5240 C   0  0  0  0  0  0  0  0  0  0  0  0
   54.6843   29.2742   44.0701 H   0  0  0  0  0  0  0  0  0  0  0  0
   55.1556   30.5455   42.8918 H   0  0  0  0  0  0  0  0  0  0  0  0
   56.0037   28.9620   42.8918 H   0  0  0  0  0  0  0  0  0  0  0  0
   57.2460   29.4060   45.2690 N   0  0  0  0  0  0  0  0  0  0  0  0
   58.1270   29.8910   46.1790 C   0  0  0  0  0  0  0  0  0  0  0  0
   58.8910   28.9950   46.9800 N   0  0  0  0  0  0  0  0  0  0  0  0
   59.6800   27.7660   46.7890 C   0  0  0  0  0  0  0  0  0  0  0  0
   59.0741   26.9256   46.4194 H   0  0  0  0  0  0  0  0  0  0  0  0
   60.4913   27.8016   46.0470 H   0  0  0  0  0  0  0  0  0  0  0  0
   60.0740   27.6070   48.2210 C   0  0  0  0  0  0  0  0  0  0  0  0
   59.6791   26.7129   48.7256 H   0  0  0  0  0  0  0  0  0  0  0  0
   61.1131   27.4919   48.5632 H   0  0  0  0  0  0  0  0  0  0  0  0
   59.2710   28.8540   48.3970 C   0  0  0  0  0  0  0  0  0  0  0  0
   58.4030   28.7107   49.0573 H   0  0  0  0  0  0  0  0  0  0  0  0
   59.7731   29.7113   48.8692 H   0  0  0  0  0  0  0  0  0  0  0  0
   58.2770   31.2320   46.3300 N   0  0  0  0  0  0  0  0  0  0  0  0
   62.0810   34.1210   46.6790 C   0  0  0  0  0  0  0  0  0  0  0  0
   61.9290   35.1525   46.3286 H   0  0  0  0  0  0  0  0  0  0  0  0
   63.3600   33.5610   46.6820 C   0  0  0  0  0  0  0  0  0  0  0  0
   64.2176   34.1511   46.3266 H   0  0  0  0  0  0  0  0  0  0  0  0
   63.5490   32.2880   47.1230 N   0  0  0  0  0  0  0  0  0  0  0  0
   64.5130   31.8840   47.1200 H   0  0  0  0  0  0  0  0  0  0  0  0
   62.5110   31.5320   47.5710 C   0  0  0  0  0  0  0  0  0  0  0  0
   62.6924   30.5059   47.9236 H   0  0  0  0  0  0  0  0  0  0  0  0
  1  2  1  0
  2  3  2  0
  3  4  1  0
  4  5  1  0
  4  6  1  0
  4  7  1  0
  7  8  1  0
  7  9  1  0
  7 10  1  0
 10 11  2  0
 11 12  1  0
 12 13  2  0
 13 14  1  0
 14 15  1  0
 14 16  1  0
 14 17  1  0
 13 18  1  0
 18 19  2  0
 19 20  1  0
 20 21  1  0
 21 22  1  0
 21 23  1  0
 21 24  1  0
 24 25  1  0
 24 26  1  0
 24 27  1  0
 27 28  1  0
 27 29  1  0
 19 30  1  0
  3 31  1  0
 31 32  1  0
 31 33  2  0
 33 34  1  0
 33 35  1  0
 35 36  1  0
 35 37  2  0
 37 38  1  0
 37  2  1  0
 30 11  1  0
 27 20  1  0
M  CHG  2  30  -1  35   1
M  END
>  <UniqueID>  (95) 
79

>  <SMILES>  (95) 
Cc1nc(N2CCC2)[n-]/c(=N/CCc2cc[nH+]cc2)n1

>  <Energy>  (95) 
77.19124025536517

>  <Genealogy>  (95) 
Cc1nc(N2CCC2)[n-]c(=NCCc2cc[nH+]cc2)n1 (protonated)
Cc1nc(N2CCC2)[n-]/c(=N/CCc2cc[nH+]cc2)n1 (cis-trans isomerization)
Cc1nc(N2CCC2)[n-]/c(=N/CCc2cc[nH+]cc2)n1 (3D coordinates assigned)
Cc1nc(N2CCC2)[n-]/c(=N/CCc2cc[nH+]cc2)n1 (nonaromatic ring conformer: 77.19124025536517 kcal/mol)

>  <smiles>  (95) 
Cc1nc(N2CCC2)[nH]c(=NCCc2ccncc2)n1

>  <score_type>  (95) 
oracle

>  <origin>  (95) 
adg

>  <m_score__min__energy>  (95) 
-6.8600000000000003

>  <m_primary>  (95) 
energy

$$$$
95:0
     RDKit          3D

 25 26  0  0  0  0  0  0  0  0999 V2000
   56.1140   30.2430   44.8660 O   0  0  0  0  0  0  0  0  0  0  0  0
   57.3370   30.5250   44.7380 C   0  0  0  0  0  0  0  0  0  0  0  0
   58.2390   29.5470   44.1920 N   0  0  0  0  0  0  0  0  0  0  0  0
   57.9800   28.1320   44.1920 C   0  0  0  0  0  0  0  0  0  0  0  0
   58.0400   27.3760   43.0060 C   0  0  0  0  0  0  0  0  0  0  0  0
   57.7600   26.0060   43.0280 C   0  0  0  0  0  0  0  0  0  0  0  0
   57.4080   25.3820   44.2280 C   0  0  0  0  0  0  0  0  0  0  0  0
   57.1360   24.0540   44.2480 F   0  0  0  0  0  0  0  0  0  0  0  0
   57.3270   26.1280   45.4060 C   0  0  0  0  0  0  0  0  0  0  0  0
   57.6040   27.5000   45.3870 C   0  0  0  0  0  0  0  0  0  0  0  0
   57.8160   31.8800   45.1050 C   0  0  0  0  0  0  0  0  0  0  0  0
   58.0230   32.8670   44.1260 C   0  0  0  0  0  0  0  0  0  0  0  0
   58.4810   34.1310   44.5030 C   0  0  0  0  0  0  0  0  0  0  0  0
   58.7320   34.4050   45.8100 N   0  0  0  0  0  0  0  0  0  0  0  0
   58.5490   33.4720   46.7800 C   0  0  0  0  0  0  0  0  0  0  0  0
   58.0930   32.1940   46.4480 C   0  0  0  0  0  0  0  0  0  0  0  0
   59.0750   29.8900   43.6650 H   0  0  0  0  0  0  0  0  0  0  0  0
   58.3083   27.8650   42.0579 H   0  0  0  0  0  0  0  0  0  0  0  0
   57.8169   25.4188   42.0996 H   0  0  0  0  0  0  0  0  0  0  0  0
   57.0454   25.6371   46.3492 H   0  0  0  0  0  0  0  0  0  0  0  0
   57.5264   28.0862   46.3145 H   0  0  0  0  0  0  0  0  0  0  0  0
   57.8250   32.6446   43.0671 H   0  0  0  0  0  0  0  0  0  0  0  0
   58.6391   34.9072   43.7398 H   0  0  0  0  0  0  0  0  0  0  0  0
   58.7604   33.7234   47.8298 H   0  0  0  0  0  0  0  0  0  0  0  0
   57.9512   31.4367   47.2331 H   0  0  0  0  0  0  0  0  0  0  0  0
  1  2  2  0
  2  3  1  0
  3  4  1  0
  4  5  2  0
  5  6  1  0
  6  7  2  0
  7  8  1  0
  7  9  1  0
  9 10  2  0
  2 11  1  0
 11 12  2  0
 12 13  1  0
 13 14  2  0
 14 15  1  0
 15 16  2  0
 10  4  1  0
 16 11  1  0
  3 17  1  0
  5 18  1  0
  6 19  1  0
  9 20  1  0
 10 21  1  0
 12 22  1  0
 13 23  1  0
 15 24  1  0
 16 25  1  0
M  END
>  <UniqueID>  (96) 
80

>  <SMILES>  (96) 
O=C(Nc1ccc(F)cc1)c1ccncc1

>  <Energy>  (96) 
32.262150142335535

>  <Genealogy>  (96) 
O=C(Nc1ccc(F)cc1)c1ccncc1 (3D coordinates assigned)
O=C(Nc1ccc(F)cc1)c1ccncc1 (optimized conformer: 32.262150142335535 kcal/mol)

>  <smiles>  (96) 
O=C(Nc1ccc(F)cc1)c1ccncc1

>  <score_type>  (96) 
oracle

>  <origin>  (96) 
adg

>  <m_score__min__energy>  (96) 
-5.8099999999999996

>  <m_primary>  (96) 
energy

$$$$
96:0
     RDKit          3D

 33 36  0  0  0  0  0  0  0  0999 V2000
   56.8357   28.9620   42.1015 H   0  0  0  0  0  0  0  0  0  0  0  0
   57.0220   29.2050   43.1580 C   0  0  0  0  0  0  0  0  0  0  0  0
   57.5580   28.2460   43.9370 N   0  0  0  0  0  0  0  0  0  0  0  0
   58.2300   28.3220   45.1050 C   0  0  0  0  0  0  0  0  0  0  0  0
   58.3400   27.1950   45.7610 N   0  0  0  0  0  0  0  0  0  0  0  0
   58.0810   25.8580   45.3070 C   0  0  0  0  0  0  0  0  0  0  0  0
   58.8830   24.4960   45.9130 S   0  0  0  0  0  0  0  0  0  0  0  0
   58.1100   23.4730   44.8250 C   0  0  0  0  0  0  0  0  0  0  0  0
   58.2420   22.0930   44.6850 C   0  0  0  0  0  0  0  0  0  0  0  0
   58.9128   21.5192   45.3413 H   0  0  0  0  0  0  0  0  0  0  0  0
   57.4940   21.4560   43.6820 C   0  0  0  0  0  0  0  0  0  0  0  0
   57.5748   20.3671   43.5483 H   0  0  0  0  0  0  0  0  0  0  0  0
   56.6400   22.2030   42.8450 C   0  0  0  0  0  0  0  0  0  0  0  0
   56.0593   21.6934   42.0619 H   0  0  0  0  0  0  0  0  0  0  0  0
   56.5260   23.5950   43.0050 C   0  0  0  0  0  0  0  0  0  0  0  0
   55.8619   24.1820   42.3535 H   0  0  0  0  0  0  0  0  0  0  0  0
   57.2730   24.2180   44.0080 C   0  0  0  0  0  0  0  0  0  0  0  0
   57.2650   25.5510   44.2660 N   0  0  0  0  0  0  0  0  0  0  0  0
   56.7220   26.2500   43.7120 H   0  0  0  0  0  0  0  0  0  0  0  0
   58.9010   29.5030   45.5210 C   0  0  0  0  0  0  0  0  0  0  0  0
   60.1900   29.3590   46.0980 C   0  0  0  0  0  0  0  0  0  0  0  0
   60.6871   28.3785   46.0586 H   0  0  0  0  0  0  0  0  0  0  0  0
   60.8410   30.4220   46.7110 C   0  0  0  0  0  0  0  0  0  0  0  0
   61.8313   30.2732   47.1661 H   0  0  0  0  0  0  0  0  0  0  0  0
   60.2410   31.6690   46.7480 C   0  0  0  0  0  0  0  0  0  0  0  0
   60.7288   32.4995   47.2793 H   0  0  0  0  0  0  0  0  0  0  0  0
   59.0200   31.8700   46.1120 C   0  0  0  0  0  0  0  0  0  0  0  0
   58.5588   32.8682   46.1420 H   0  0  0  0  0  0  0  0  0  0  0  0
   58.3530   30.8210   45.4250 C   0  0  0  0  0  0  0  0  0  0  0  0
   57.1990   31.1760   44.6880 C   0  0  0  0  0  0  0  0  0  0  0  0
   56.6340   32.2770   44.9420 O   0  0  0  0  0  0  0  0  0  0  0  0
   56.6890   30.4770   43.5960 C   0  0  0  0  0  0  0  0  0  0  0  0
   55.9237   31.0022   43.0056 H   0  0  0  0  0  0  0  0  0  0  0  0
  1  2  1  0
  2  3  1  0
  3  4  1  0
  4  5  2  0
  5  6  1  0
  6  7  1  0
  7  8  1  0
  8  9  2  0
  9 10  1  0
  9 11  1  0
 11 12  1  0
 11 13  2  0
 13 14  1  0
 13 15  1  0
 15 16  1  0
 15 17  2  0
 17 18  1  0
 18 19  1  0
  4 20  1  0
 20 21  2  0
 21 22  1  0
 21 23  1  0
 23 24  1  0
 23 25  2  0
 25 26  1  0
 25 27  1  0
 27 28  1  0
 27 29  2  0
 29 30  1  0
 30 31  2  0
 30 32  1  0
 32 33  1  0
 32  2  2  0
 18  6  2  0
 29 20  1  0
 17  8  1  0
M  CHG  2   3  -1  18   1
M  END
>  <UniqueID>  (97) 
81

>  <SMILES>  (97) 
O=c1cc[n-]/c(=N/c2[nH+]c3ccccc3s2)c2ccccc12

>  <Energy>  (97) 
124.44764105829069

>  <Genealogy>  (97) 
O=c1cc[n-]c(=Nc2[nH+]c3ccccc3s2)c2ccccc12 (protonated)
O=c1cc[n-]/c(=N/c2[nH+]c3ccccc3s2)c2ccccc12 (cis-trans isomerization)
O=c1cc[n-]/c(=N/c2[nH+]c3ccccc3s2)c2ccccc12 (3D coordinates assigned)
O=c1cc[n-]/c(=N/c2[nH+]c3ccccc3s2)c2ccccc12 (optimized conformer: 124.44764105829069 kcal/mol)

>  <smiles>  (97) 
O=c1cc[nH]c(=Nc2nc3ccccc3s2)c2ccccc12

>  <score_type>  (97) 
oracle

>  <origin>  (97) 
adg

>  <m_score__min__energy>  (97) 
-7.5700000000000003

>  <m_primary>  (97) 
energy

$$$$
