0:0
     RDKit          3D

 50 52  0  0  1  0  0  0  0  0999 V2000
   53.8190   25.2170   45.5780 C   0  0  0  0  0  0  0  0  0  0  0  0
   54.8160   26.1510   45.8570 O   0  0  0  0  0  0  0  0  0  0  0  0
   56.0970   25.8820   46.2950 C   0  0  0  0  0  0  0  0  0  0  0  0
   56.4530   24.7460   46.9880 C   0  0  0  0  0  0  0  0  0  0  0  0
   57.7650   24.5320   47.4040 C   0  0  0  0  0  0  0  0  0  0  0  0
   58.7300   25.4910   47.1070 C   0  0  0  0  0  0  0  0  0  0  0  0
   58.3700   26.6170   46.4180 C   0  0  0  0  0  0  0  0  0  0  0  0
   57.0800   26.8090   46.0200 C   0  0  0  0  0  0  0  0  0  0  0  0
   56.7680   28.0010   45.3060 N   0  0  0  0  0  0  0  0  0  0  0  0
   57.3880   29.2600   45.6430 C   0  0  0  0  0  0  0  0  0  0  0  0
   58.2020   29.2240   46.5910 O   0  0  0  0  0  0  0  0  0  0  0  0
   57.0650   30.4190   44.9260 N   0  0  0  0  0  0  0  0  0  0  0  0
   57.5870   31.7140   45.1380 C   0  0  0  0  0  0  0  0  0  0  0  0
   57.3950   32.7910   44.3080 C   0  0  0  0  0  0  0  0  0  0  0  0
   57.9360   34.0510   44.5680 C   0  0  0  0  0  0  0  0  0  0  0  0
   58.6960   34.2560   45.6920 C   0  0  0  0  0  0  0  0  0  0  0  0
   58.8810   33.1570   46.5210 C   0  0  0  0  0  0  0  0  0  0  0  0
   59.6990   33.3410   47.7480 C   0  0  0  0  0  0  0  0  0  0  0  0
   58.7860   33.2020   48.8670 N   0  0  0  0  0  0  0  0  0  0  0  0
   58.7240   32.0600   49.4650 C   0  0  0  0  0  0  0  0  0  0  0  0
   59.7330   31.1510   49.1290 C   0  0  0  0  0  0  0  0  0  0  0  0
   59.7490   29.9050   49.7160 C   0  0  0  0  0  0  0  0  0  0  0  0
   60.8020   28.9300   49.3790 C   0  0  0  0  0  0  0  0  0  0  0  0
   58.7780   29.6090   50.6020 N   0  0  0  0  0  0  0  0  0  0  0  0
   57.8210   30.5120   50.9010 C   0  0  0  0  0  0  0  0  0  0  0  0
   56.9170   30.1750   51.7560 N   0  0  0  0  0  0  0  0  0  0  0  0
   57.7670   31.7370   50.3530 N   0  0  0  0  0  0  0  0  0  0  0  0
   58.3530   31.9340   46.2650 C   0  0  0  0  0  0  0  0  0  0  0  0
   53.4054   24.8295   46.5208 H   0  0  0  0  0  0  0  0  0  0  0  0
   53.0185   25.6978   44.9966 H   0  0  0  0  0  0  0  0  0  0  0  0
   54.2466   24.3869   44.9966 H   0  0  0  0  0  0  0  0  0  0  0  0
   55.6854   23.9923   47.2176 H   0  0  0  0  0  0  0  0  0  0  0  0
   58.0343   23.6206   47.9579 H   0  0  0  0  0  0  0  0  0  0  0  0
   59.7732   25.3445   47.4237 H   0  0  0  0  0  0  0  0  0  0  0  0
   59.1302   27.3763   46.1824 H   0  0  0  0  0  0  0  0  0  0  0  0
   56.0690   27.9360   44.5190 H   0  0  0  0  0  0  0  0  0  0  0  0
   56.3530   30.2920   44.1420 H   0  0  0  0  0  0  0  0  0  0  0  0
   56.7893   32.6549   43.3999 H   0  0  0  0  0  0  0  0  0  0  0  0
   57.7528   34.8815   43.8704 H   0  0  0  0  0  0  0  0  0  0  0  0
   59.1350   35.2376   45.9239 H   0  0  0  0  0  0  0  0  0  0  0  0
   60.4860   32.5742   47.8003 H   0  0  0  0  0  0  0  0  0  0  0  0
   60.1960   34.3223   47.7553 H   0  0  0  0  0  0  0  0  0  0  0  0
   60.5087   31.4296   48.4006 H   0  0  0  0  0  0  0  0  0  0  0  0
   61.2379   28.5264   50.3048 H   0  0  0  0  0  0  0  0  0  0  0  0
   60.3667   28.1090   48.7904 H   0  0  0  0  0  0  0  0  0  0  0  0
   61.5871   29.4270   48.7904 H   0  0  0  0  0  0  0  0  0  0  0  0
   58.7780   28.6640   51.0570 H   0  0  0  0  0  0  0  0  0  0  0  0
   56.3220   29.3370   51.6780 H   0  0  0  0  0  0  0  0  0  0  0  0
   57.0250   32.4290   50.5890 H   0  0  0  0  0  0  0  0  0  0  0  0
   58.5378   31.1061   46.9653 H   0  0  0  0  0  0  0  0  0  0  0  0
  1  2  1  0
  2  3  1  0
  3  4  2  0
  4  5  1  0
  5  6  2  0
  6  7  1  0
  7  8  2  0
  8  9  1  0
  9 10  1  0
 10 11  2  0
 10 12  1  0
 12 13  1  0
 13 14  2  0
 14 15  1  0
 15 16  2  0
 16 17  1  0
 17 18  1  0
 18 19  1  0
 19 20  2  0
 20 21  1  0
 21 22  2  0
 22 23  1  0
 22 24  1  0
 24 25  1  0
 25 26  2  3
 25 27  1  0
 17 28  2  0
  8  3  1  0
 28 13  1  0
 27 20  1  0
  1 29  1  0
  1 30  1  0
  1 31  1  0
  4 32  1  0
  5 33  1  0
  6 34  1  0
  7 35  1  0
  9 36  1  0
 12 37  1  0
 14 38  1  0
 15 39  1  0
 16 40  1  0
 18 41  1  0
 18 42  1  0
 21 43  1  0
 23 44  1  0
 23 45  1  0
 23 46  1  0
 24 47  1  0
 26 48  1  0
 27 49  1  0
 28 50  1  0
M  END
>  <smiles>  (1) 
COc1ccccc1NC(=O)Nc1cccc(CN=c2cc(C)[nH]c(=N)[nH]2)c1

>  <score_type>  (1) 
oracle

>  <origin>  (1) 
adg

>  <m_score__min__energy>  (1) 
-8.7400000000000002

>  <m_primary>  (1) 
energy

$$$$
1:0
     RDKit          3D

 45 47  0  0  0  0  0  0  0  0999 V2000
   61.0333   28.1849   46.9134 H   0  0  0  0  0  0  0  0  0  0  0  0
   60.0340   27.7530   46.7560 C   0  0  0  0  0  0  0  0  0  0  0  0
   59.2550   28.1980   45.7370 N   0  0  0  0  0  0  0  0  0  0  0  0
   58.0120   27.7040   45.4820 C   0  0  0  0  0  0  0  0  0  0  0  0
   57.3590   28.2380   44.4820 N   0  0  0  0  0  0  0  0  0  0  0  0
   56.4660   29.3920   44.4470 C   0  0  0  0  0  0  0  0  0  0  0  0
   56.0446   29.5020   43.4369 H   0  0  0  0  0  0  0  0  0  0  0  0
   55.6459   29.2499   45.1661 H   0  0  0  0  0  0  0  0  0  0  0  0
   57.2470   30.6240   44.8040 C   0  0  0  0  0  0  0  0  0  0  0  0
   57.3790   31.6700   43.8770 C   0  0  0  0  0  0  0  0  0  0  0  0
   56.9344   31.5734   42.8755 H   0  0  0  0  0  0  0  0  0  0  0  0
   58.0730   32.8340   44.2210 C   0  0  0  0  0  0  0  0  0  0  0  0
   58.1825   33.6447   43.4857 H   0  0  0  0  0  0  0  0  0  0  0  0
   58.6300   32.9710   45.5010 C   0  0  0  0  0  0  0  0  0  0  0  0
   59.5070   34.4310   45.9500 S   0  0  0  0  0  0  0  0  0  0  0  0
   59.2930   35.4840   44.8980 O   0  0  0  0  0  0  0  0  0  0  0  0
   60.9800   34.1410   46.0540 O   0  0  0  0  0  0  0  0  0  0  0  0
   58.9320   35.0020   47.4770 N   0  0  0  0  0  0  0  0  0  0  0  0
   59.6270   34.7000   48.1970 H   0  0  0  0  0  0  0  0  0  0  0  0
   58.9670   36.0450   47.4450 H   0  0  0  0  0  0  0  0  0  0  0  0
   58.4890   31.9330   46.4310 C   0  0  0  0  0  0  0  0  0  0  0  0
   58.9241   32.0358   47.4361 H   0  0  0  0  0  0  0  0  0  0  0  0
   57.7980   30.7670   46.0880 C   0  0  0  0  0  0  0  0  0  0  0  0
   57.6855   29.9591   46.8260 H   0  0  0  0  0  0  0  0  0  0  0  0
   57.5070   26.6650   46.3210 C   0  0  0  0  0  0  0  0  0  0  0  0
   56.2040   26.0110   46.1490 C   0  0  0  0  0  0  0  0  0  0  0  0
   55.1740   26.7180   45.9870 O   0  0  0  0  0  0  0  0  0  0  0  0
   56.1240   24.5780   46.2340 N   0  0  0  0  0  0  0  0  0  0  0  0
   56.8030   23.7120   45.5350 C   0  0  0  0  0  0  0  0  0  0  0  0
   58.0120   23.2540   45.9700 N   0  0  0  0  0  0  0  0  0  0  0  0
   58.7400   22.3480   45.2670 C   0  0  0  0  0  0  0  0  0  0  0  0
   59.7116   22.0052   45.6522 H   0  0  0  0  0  0  0  0  0  0  0  0
   58.2560   21.8530   44.0580 C   0  0  0  0  0  0  0  0  0  0  0  0
   58.8421   21.1206   43.4834 H   0  0  0  0  0  0  0  0  0  0  0  0
   57.0210   22.2950   43.5830 C   0  0  0  0  0  0  0  0  0  0  0  0
   56.6277   21.9062   42.6321 H   0  0  0  0  0  0  0  0  0  0  0  0
   56.2790   23.2350   44.3160 C   0  0  0  0  0  0  0  0  0  0  0  0
   54.9460   23.7080   43.8030 C   0  0  0  0  0  0  0  0  0  0  0  0
   54.2879   23.9415   44.6529 H   0  0  0  0  0  0  0  0  0  0  0  0
   55.0881   24.6106   43.1905 H   0  0  0  0  0  0  0  0  0  0  0  0
   54.4874   22.9177   43.1905 H   0  0  0  0  0  0  0  0  0  0  0  0
   58.3060   26.2090   47.3810 C   0  0  0  0  0  0  0  0  0  0  0  0
   57.9310   25.4157   48.0444 H   0  0  0  0  0  0  0  0  0  0  0  0
   59.5690   26.7520   47.6000 C   0  0  0  0  0  0  0  0  0  0  0  0
   60.1921   26.3925   48.4322 H   0  0  0  0  0  0  0  0  0  0  0  0
  1  2  1  0
  2  3  1  0
  3  4  1  0
  4  5  2  3
  5  6  1  0
  6  7  1  0
  6  8  1  0
  6  9  1  0
  9 10  2  0
 10 11  1  0
 10 12  1  0
 12 13  1  0
 12 14  2  0
 14 15  1  0
 15 16  2  0
 15 17  2  0
 15 18  1  0
 18 19  1  0
 18 20  1  0
 14 21  1  0
 21 22  1  0
 21 23  2  0
 23 24  1  0
  4 25  1  0
 25 26  1  0
 26 27  2  0
 26 28  1  0
 28 29  2  0
 29 30  1  0
 30 31  1  0
 31 32  1  0
 31 33  2  0
 33 34  1  0
 33 35  1  0
 35 36  1  0
 35 37  2  0
 37 38  1  0
 38 39  1  0
 38 40  1  0
 38 41  1  0
 25 42  2  0
 42 43  1  0
 42 44  1  0
 44 45  1  0
 44  2  2  0
 23  9  1  0
 37 29  1  0
M  CHG  2   3  -1  30  -1
M  END
>  <UniqueID>  (2) 
1

>  <SMILES>  (2) 
Cc1ccc[n-]/c1=N\C(=O)c1ccc[n-]c1=NCc1ccc(S(N)(=O)=O)cc1

>  <Energy>  (2) 
64.28542338748669

>  <Genealogy>  (2) 
Cc1ccc[n-]c1=NC(=O)c1ccc[n-]c1=NCc1ccc(S(N)(=O)=O)cc1 (protonated)
Cc1ccc[n-]/c1=N\C(=O)c1ccc[n-]c1=NCc1ccc(S(N)(=O)=O)cc1 (cis-trans isomerization)
Cc1ccc[n-]/c1=N\C(=O)c1ccc[n-]c1=NCc1ccc(S(N)(=O)=O)cc1 (3D coordinates assigned)
Cc1ccc[n-]/c1=N\C(=O)c1ccc[n-]c1=NCc1ccc(S(N)(=O)=O)cc1 (optimized conformer: 64.28542338748669 kcal/mol)

>  <smiles>  (2) 
Cc1ccc[nH]c1=NC(=O)c1ccc[nH]c1=NCc1ccc(S(N)(=O)=O)cc1

>  <score_type>  (2) 
oracle

>  <origin>  (2) 
adg

>  <m_score__min__energy>  (2) 
-11.91

>  <m_primary>  (2) 
energy

$$$$
2:0
     RDKit          3D

 49 52  0  0  0  0  0  0  0  0999 V2000
   57.2440   34.2360   44.9080 C   0  0  0  0  0  0  0  0  0  0  0  0
   57.3940   33.4850   46.2290 C   0  0  0  0  0  0  0  0  0  0  0  0
   58.1560   32.2050   46.0420 C   0  0  0  0  0  0  0  0  0  0  0  0
   57.5700   31.2280   45.2920 N   0  0  0  0  0  0  0  0  0  0  0  0
   58.1620   30.0510   45.0560 N   0  0  0  0  0  0  0  0  0  0  0  0
   57.4410   29.0520   44.2590 C   0  0  0  0  0  0  0  0  0  0  0  0
   56.1430   28.6750   44.9260 C   0  0  0  0  0  0  0  0  0  0  0  0
   55.1450   29.4320   44.8000 O   0  0  0  0  0  0  0  0  0  0  0  0
   55.9750   27.4330   45.6210 N   0  0  0  0  0  0  0  0  0  0  0  0
   57.0460   26.5480   46.0720 C   0  0  0  0  0  0  0  0  0  0  0  0
   57.9310   26.1070   44.9000 C   0  0  0  0  0  0  0  0  0  0  0  0
   57.6390   24.6850   44.4930 C   0  0  0  0  0  0  0  0  0  0  0  0
   56.7760   24.4210   43.4180 C   0  0  0  0  0  0  0  0  0  0  0  0
   56.4820   23.1010   43.0580 C   0  0  0  0  0  0  0  0  0  0  0  0
   57.0420   22.0400   43.7750 C   0  0  0  0  0  0  0  0  0  0  0  0
   57.8930   22.2940   44.8530 C   0  0  0  0  0  0  0  0  0  0  0  0
   58.1890   23.6120   45.2160 C   0  0  0  0  0  0  0  0  0  0  0  0
   59.3950   29.7820   45.5860 C   0  0  0  0  0  0  0  0  0  0  0  0
   59.9670   28.6750   45.3850 O   0  0  0  0  0  0  0  0  0  0  0  0
   60.0030   30.7640   46.3620 C   0  0  0  0  0  0  0  0  0  0  0  0
   61.2400   30.6900   46.9850 C   0  0  0  0  0  0  0  0  0  0  0  0
   61.3710   31.8990   47.6300 C   0  0  0  0  0  0  0  0  0  0  0  0
   62.4210   32.3600   48.4210 C   0  0  0  0  0  0  0  0  0  0  0  0
   62.3080   33.6380   48.9870 C   0  0  0  0  0  0  0  0  0  0  0  0
   61.1570   34.4160   48.7590 C   0  0  0  0  0  0  0  0  0  0  0  0
   60.1080   33.9310   47.9580 C   0  0  0  0  0  0  0  0  0  0  0  0
   60.2380   32.6530   47.3870 C   0  0  0  0  0  0  0  0  0  0  0  0
   59.3860   31.9480   46.5910 N   0  0  0  0  0  0  0  0  0  0  0  0
   57.0322   35.2962   45.1109 H   0  0  0  0  0  0  0  0  0  0  0  0
   58.1766   34.1523   44.3307 H   0  0  0  0  0  0  0  0  0  0  0  0
   56.4151   33.8005   44.3307 H   0  0  0  0  0  0  0  0  0  0  0  0
   57.9335   34.1225   46.9450 H   0  0  0  0  0  0  0  0  0  0  0  0
   56.3902   33.2409   46.6070 H   0  0  0  0  0  0  0  0  0  0  0  0
   57.2278   29.4693   43.2638 H   0  0  0  0  0  0  0  0  0  0  0  0
   58.0671   28.1521   44.1691 H   0  0  0  0  0  0  0  0  0  0  0  0
   57.6653   27.0806   46.8087 H   0  0  0  0  0  0  0  0  0  0  0  0
   56.5920   25.6528   46.5219 H   0  0  0  0  0  0  0  0  0  0  0  0
   57.7449   26.7699   44.0421 H   0  0  0  0  0  0  0  0  0  0  0  0
   58.9820   26.1662   45.2192 H   0  0  0  0  0  0  0  0  0  0  0  0
   56.3292   25.2547   42.8565 H   0  0  0  0  0  0  0  0  0  0  0  0
   55.8102   22.8985   42.2108 H   0  0  0  0  0  0  0  0  0  0  0  0
   56.8121   21.0028   43.4897 H   0  0  0  0  0  0  0  0  0  0  0  0
   58.3307   21.4571   45.4169 H   0  0  0  0  0  0  0  0  0  0  0  0
   58.8540   23.8095   46.0696 H   0  0  0  0  0  0  0  0  0  0  0  0
   61.9548   29.8541   46.9676 H   0  0  0  0  0  0  0  0  0  0  0  0
   63.3124   31.7398   48.5964 H   0  0  0  0  0  0  0  0  0  0  0  0
   63.1220   34.0343   49.6117 H   0  0  0  0  0  0  0  0  0  0  0  0
   61.0774   35.4149   49.2127 H   0  0  0  0  0  0  0  0  0  0  0  0
   59.2071   34.5372   47.7824 H   0  0  0  0  0  0  0  0  0  0  0  0
  1  2  1  0
  2  3  1  0
  3  4  2  0
  4  5  1  0
  5  6  1  0
  6  7  1  0
  7  8  2  0
  7  9  1  0
  9 10  1  0
 10 11  1  0
 11 12  1  0
 12 13  2  0
 13 14  1  0
 14 15  2  0
 15 16  1  0
 16 17  2  0
  5 18  1  0
 18 19  2  0
 18 20  1  0
 20 21  2  0
 21 22  1  0
 22 23  2  0
 23 24  1  0
 24 25  2  0
 25 26  1  0
 26 27  2  0
 27 28  1  0
 28  3  1  0
 17 12  1  0
 28 20  1  0
 27 22  1  0
  1 29  1  0
  1 30  1  0
  1 31  1  0
  2 32  1  0
  2 33  1  0
  6 34  1  0
  6 35  1  0
 10 36  1  0
 10 37  1  0
 11 38  1  0
 11 39  1  0
 13 40  1  0
 14 41  1  0
 15 42  1  0
 16 43  1  0
 17 44  1  0
 21 45  1  0
 23 46  1  0
 24 47  1  0
 25 48  1  0
 26 49  1  0
M  CHG  1   9  -1
M  END
>  <UniqueID>  (3) 
2

>  <SMILES>  (3) 
CCc1nn(CC(=O)[N-]CCc2ccccc2)c(=O)c2cc3ccccc3n12

>  <Energy>  (3) 
93.08898049847224

>  <Genealogy>  (3) 
CCc1nn(CC(=O)[N-]CCc2ccccc2)c(=O)c2cc3ccccc3n12 (protonated)
CCc1nn(CC(=O)[N-]CCc2ccccc2)c(=O)c2cc3ccccc3n12 (3D coordinates assigned)
CCc1nn(CC(=O)[N-]CCc2ccccc2)c(=O)c2cc3ccccc3n12 (optimized conformer: 93.08898049847224 kcal/mol)

>  <smiles>  (3) 
CCc1nn(CC(=O)NCCc2ccccc2)c(=O)c2cc3ccccc3n12

>  <score_type>  (3) 
oracle

>  <origin>  (3) 
adg

>  <m_score__min__energy>  (3) 
-10.970000000000001

>  <m_primary>  (3) 
energy

$$$$
3:0
     RDKit          3D

 41 43  0  0  0  0  0  0  0  0999 V2000
   56.9200   30.8120   43.6960 C   0  0  0  0  0  0  0  0  0  0  0  0
   56.5370   31.8830   44.5540 O   0  0  0  0  0  0  0  0  0  0  0  0
   57.4360   32.6680   45.2920 C   0  0  0  0  0  0  0  0  0  0  0  0
   57.7690   33.9360   44.8000 C   0  0  0  0  0  0  0  0  0  0  0  0
   58.6780   34.7460   45.4870 C   0  0  0  0  0  0  0  0  0  0  0  0
   59.2630   34.2950   46.6720 C   0  0  0  0  0  0  0  0  0  0  0  0
   58.9350   33.0320   47.1800 C   0  0  0  0  0  0  0  0  0  0  0  0
   59.6780   32.4530   48.6690 S   0  0  0  0  0  0  0  0  0  0  0  0
   58.8280   32.8820   49.8320 O   0  0  0  0  0  0  0  0  0  0  0  0
   61.0590   33.0220   48.8300 O   0  0  0  0  0  0  0  0  0  0  0  0
   59.7760   30.7230   48.6470 N   0  0  0  0  0  0  0  0  0  0  0  0
   59.7400   29.9120   47.4650 C   0  0  0  0  0  0  0  0  0  0  0  0
   60.8150   29.8640   46.5600 C   0  0  0  0  0  0  0  0  0  0  0  0
   60.7360   29.0680   45.4160 C   0  0  0  0  0  0  0  0  0  0  0  0
   59.5850   28.3200   45.1600 C   0  0  0  0  0  0  0  0  0  0  0  0
   58.4960   28.3680   46.0450 C   0  0  0  0  0  0  0  0  0  0  0  0
   57.2710   27.5830   45.7580 C   0  0  0  0  0  0  0  0  0  0  0  0
   56.3360   28.1210   45.1040 O   0  0  0  0  0  0  0  0  0  0  0  0
   57.1060   26.1820   46.2220 C   0  0  0  0  0  0  0  0  0  0  0  0
   55.8280   25.6030   46.3150 C   0  0  0  0  0  0  0  0  0  0  0  0
   54.6960   26.3220   45.9370 O   0  0  0  0  0  0  0  0  0  0  0  0
   55.6910   24.3270   46.7660 N   0  0  0  0  0  0  0  0  0  0  0  0
   56.7700   23.5920   47.1340 C   0  0  0  0  0  0  0  0  0  0  0  0
   56.6170   22.4140   47.5480 O   0  0  0  0  0  0  0  0  0  0  0  0
   58.0140   24.1300   47.0610 N   0  0  0  0  0  0  0  0  0  0  0  0
   58.2080   25.4010   46.6240 C   0  0  0  0  0  0  0  0  0  0  0  0
   59.3760   25.8710   46.6050 O   0  0  0  0  0  0  0  0  0  0  0  0
   58.5930   29.1540   47.2080 C   0  0  0  0  0  0  0  0  0  0  0  0
   58.0150   32.2240   46.4960 C   0  0  0  0  0  0  0  0  0  0  0  0
   57.2289   29.9483   44.3031 H   0  0  0  0  0  0  0  0  0  0  0  0
   56.0677   30.5280   43.0612 H   0  0  0  0  0  0  0  0  0  0  0  0
   57.7591   31.1328   43.0612 H   0  0  0  0  0  0  0  0  0  0  0  0
   57.3123   34.2971   43.8667 H   0  0  0  0  0  0  0  0  0  0  0  0
   58.9330   35.7409   45.0932 H   0  0  0  0  0  0  0  0  0  0  0  0
   59.9823   34.9325   47.2070 H   0  0  0  0  0  0  0  0  0  0  0  0
   61.7216   30.4559   46.7542 H   0  0  0  0  0  0  0  0  0  0  0  0
   61.5825   29.0299   44.7145 H   0  0  0  0  0  0  0  0  0  0  0  0
   59.5312   27.6897   44.2601 H   0  0  0  0  0  0  0  0  0  0  0  0
   54.7620   27.0830   45.2710 H   0  0  0  0  0  0  0  0  0  0  0  0
   57.7574   29.1725   47.9231 H   0  0  0  0  0  0  0  0  0  0  0  0
   57.7444   31.2383   46.9024 H   0  0  0  0  0  0  0  0  0  0  0  0
  1  2  1  0
  2  3  1  0
  3  4  2  0
  4  5  1  0
  5  6  2  0
  6  7  1  0
  7  8  1  0
  8  9  2  0
  8 10  2  0
  8 11  1  0
 11 12  1  0
 12 13  2  0
 13 14  1  0
 14 15  2  0
 15 16  1  0
 16 17  1  0
 17 18  2  0
 17 19  1  0
 19 20  2  0
 20 21  1  0
 20 22  1  0
 22 23  1  0
 23 24  2  0
 23 25  1  0
 25 26  1  0
 26 27  2  0
 16 28  2  0
  7 29  2  0
 29  3  1  0
 28 12  1  0
 26 19  1  0
  1 30  1  0
  1 31  1  0
  1 32  1  0
  4 33  1  0
  5 34  1  0
  6 35  1  0
 13 36  1  0
 14 37  1  0
 15 38  1  0
 21 39  1  0
 28 40  1  0
 29 41  1  0
M  CHG  3  11  -1  22  -1  25  -1
M  END
>  <UniqueID>  (4) 
3

>  <SMILES>  (4) 
COc1cccc(S(=O)(=O)[N-]c2cccc(C(=O)c3c(O)[n-]c(=O)[n-]c3=O)c2)c1

>  <Energy>  (4) 
54.92064345510222

>  <Genealogy>  (4) 
COc1cccc(S(=O)(=O)[N-]c2cccc(C(=O)c3c(O)[n-]c(=O)[n-]c3=O)c2)c1 (protonated)
COc1cccc(S(=O)(=O)[N-]c2cccc(C(=O)c3c(O)[n-]c(=O)[n-]c3=O)c2)c1 (3D coordinates assigned)
COc1cccc(S(=O)(=O)[N-]c2cccc(C(=O)c3c(O)[n-]c(=O)[n-]c3=O)c2)c1 (optimized conformer: 54.92064345510222 kcal/mol)

>  <smiles>  (4) 
COc1cccc(S(=O)(=O)Nc2cccc(C(=O)c3c(O)[nH]c(=O)[nH]c3=O)c2)c1

>  <score_type>  (4) 
oracle

>  <origin>  (4) 
adg

>  <m_score__min__energy>  (4) 
-14.699999999999999

>  <m_primary>  (4) 
energy

$$$$
4:0
     RDKit          3D

 54 57  0  0  1  0  0  0  0  0999 V2000
   54.8500   21.8790   47.6150 N   0  0  0  0  0  0  0  0  0  0  0  0
   55.2050   22.5750   46.5990 C   0  0  0  0  0  0  0  0  0  0  0  0
   55.6730   22.0340   45.4190 C   0  0  0  0  0  0  0  0  0  0  0  0
   56.0490   22.8040   44.3370 C   0  0  0  0  0  0  0  0  0  0  0  0
   56.6320   22.0630   42.8720 Cl  0  0  0  0  0  0  0  0  0  0  0  0
   55.9410   24.1390   44.4780 N   0  0  0  0  0  0  0  0  0  0  0  0
   55.4800   24.6770   45.6400 C   0  0  0  0  0  0  0  0  0  0  0  0
   55.4160   25.9660   45.6710 N   0  0  0  0  0  0  0  0  0  0  0  0
   56.5260   26.7440   46.0500 C   0  0  0  0  0  0  0  0  0  0  0  0
   56.7260   28.0330   45.5510 C   0  0  0  0  0  0  0  0  0  0  0  0
   57.8150   28.7980   45.9220 C   0  0  0  0  0  0  0  0  0  0  0  0
   58.7410   28.2830   46.8120 C   0  0  0  0  0  0  0  0  0  0  0  0
   59.8460   29.1080   47.1640 N   0  0  0  0  0  0  0  0  0  0  0  0
   60.0530   29.6190   48.4750 C   0  0  0  0  0  0  0  0  0  0  0  0
   59.1690   29.2860   49.3360 O   0  0  0  0  0  0  0  0  0  0  0  0
   61.1890   30.4640   48.8310 C   0  0  0  0  0  0  0  0  0  0  0  0
   61.8420   31.2740   47.9260 C   0  0  0  0  0  0  0  0  0  0  0  0
   62.9220   32.0730   48.2790 C   0  0  0  0  0  0  0  0  0  0  0  0
   63.3500   32.0490   49.5910 C   0  0  0  0  0  0  0  0  0  0  0  0
   64.4790   32.8890   49.9440 C   0  0  0  0  0  0  0  0  0  0  0  0
   65.1260   33.4360   49.0180 O   0  0  0  0  0  0  0  0  0  0  0  0
   64.8990   33.1340   51.2780 N   0  0  0  0  0  0  0  0  0  0  0  0
   66.0270   33.9850   51.4520 C   0  0  0  0  0  0  0  0  0  0  0  0
   65.9400   35.1660   52.1900 C   0  0  0  0  0  0  0  0  0  0  0  0
   67.0470   35.9820   52.3490 C   0  0  0  0  0  0  0  0  0  0  0  0
   68.2530   35.6420   51.7810 C   0  0  0  0  0  0  0  0  0  0  0  0
   68.3490   34.4720   51.0470 C   0  0  0  0  0  0  0  0  0  0  0  0
   67.2460   33.6340   50.8730 C   0  0  0  0  0  0  0  0  0  0  0  0
   67.3680   32.4350   50.1150 N   0  0  0  0  0  0  0  0  0  0  0  0
   62.7020   31.2420   50.5010 C   0  0  0  0  0  0  0  0  0  0  0  0
   61.6190   30.4420   50.1410 C   0  0  0  0  0  0  0  0  0  0  0  0
   58.5690   27.0130   47.3200 C   0  0  0  0  0  0  0  0  0  0  0  0
   57.4750   26.2450   46.9480 C   0  0  0  0  0  0  0  0  0  0  0  0
   55.1160   23.9200   46.6890 N   0  0  0  0  0  0  0  0  0  0  0  0
   54.1740   21.0820   47.4270 H   0  0  0  0  0  0  0  0  0  0  0  0
   55.7499   20.9398   45.3370 H   0  0  0  0  0  0  0  0  0  0  0  0
   56.2180   24.7500   43.6770 H   0  0  0  0  0  0  0  0  0  0  0  0
   55.9958   28.4510   44.8425 H   0  0  0  0  0  0  0  0  0  0  0  0
   57.9452   29.8105   45.5123 H   0  0  0  0  0  0  0  0  0  0  0  0
   60.5190   29.3310   46.4040 H   0  0  0  0  0  0  0  0  0  0  0  0
   61.4937   31.2880   46.8827 H   0  0  0  0  0  0  0  0  0  0  0  0
   63.4227   32.7078   47.5331 H   0  0  0  0  0  0  0  0  0  0  0  0
   64.3780   32.6920   52.0670 H   0  0  0  0  0  0  0  0  0  0  0  0
   64.9824   35.4515   52.6500 H   0  0  0  0  0  0  0  0  0  0  0  0
   66.9616   36.9095   52.9341 H   0  0  0  0  0  0  0  0  0  0  0  0
   69.1310   36.2923   51.9086 H   0  0  0  0  0  0  0  0  0  0  0  0
   69.3123   34.1976   50.5924 H   0  0  0  0  0  0  0  0  0  0  0  0
   67.8560   31.6020   50.5230 H   0  0  0  0  0  0  0  0  0  0  0  0
   66.9850   32.3480   49.1460 H   0  0  0  0  0  0  0  0  0  0  0  0
   63.0505   31.2289   51.5443 H   0  0  0  0  0  0  0  0  0  0  0  0
   61.1179   29.8065   50.8860 H   0  0  0  0  0  0  0  0  0  0  0  0
   59.3061   26.6046   48.0270 H   0  0  0  0  0  0  0  0  0  0  0  0
   57.3529   25.2338   47.3634 H   0  0  0  0  0  0  0  0  0  0  0  0
   54.7700   24.3900   47.5540 H   0  0  0  0  0  0  0  0  0  0  0  0
  1  2  2  3
  2  3  1  0
  3  4  2  0
  4  5  1  0
  4  6  1  0
  6  7  1  0
  7  8  2  0
  8  9  1  0
  9 10  2  0
 10 11  1  0
 11 12  2  0
 12 13  1  0
 13 14  1  0
 14 15  2  0
 14 16  1  0
 16 17  2  0
 17 18  1  0
 18 19  2  0
 19 20  1  0
 20 21  2  0
 20 22  1  0
 22 23  1  0
 23 24  2  0
 24 25  1  0
 25 26  2  0
 26 27  1  0
 27 28  2  0
 28 29  1  0
 19 30  1  0
 30 31  2  0
 12 32  1  0
 32 33  2  0
  7 34  1  0
 34  2  1  0
 33  9  1  0
 31 16  1  0
 28 23  1  0
  1 35  1  0
  3 36  1  0
  6 37  1  0
 10 38  1  0
 11 39  1  0
 13 40  1  0
 17 41  1  0
 18 42  1  0
 22 43  1  0
 24 44  1  0
 25 45  1  0
 26 46  1  0
 27 47  1  0
 29 48  1  0
 29 49  1  0
 30 50  1  0
 31 51  1  0
 32 52  1  0
 33 53  1  0
 34 54  1  0
M  END
>  <smiles>  (5) 
N=c1cc(Cl)[nH]c(=Nc2ccc(NC(=O)c3ccc(C(=O)Nc4ccccc4N)cc3)cc2)[nH]1

>  <score_type>  (5) 
oracle

>  <origin>  (5) 
adg

>  <m_score__min__energy>  (5) 
-7

>  <m_primary>  (5) 
energy

$$$$
5:0
     RDKit          3D

 43 44  0  0  0  0  0  0  0  0999 V2000
   57.5530   25.4750   43.3490 C   0  0  0  0  0  0  0  0  0  0  0  0
   58.0780   26.6590   42.5460 C   0  0  0  0  0  0  0  0  0  0  0  0
   58.0250   27.8900   43.3500 N   0  0  0  0  0  0  0  0  0  0  0  0
   56.9800   28.8820   43.0580 C   0  0  0  0  0  0  0  0  0  0  0  0
   57.0230   29.9920   44.0640 C   0  0  0  0  0  0  0  0  0  0  0  0
   56.0950   30.0950   44.9110 O   0  0  0  0  0  0  0  0  0  0  0  0
   58.0720   30.9700   44.0040 N   0  0  0  0  0  0  0  0  0  0  0  0
   58.1880   32.0640   44.9280 C   0  0  0  0  0  0  0  0  0  0  0  0
   58.4120   33.3600   44.4390 C   0  0  0  0  0  0  0  0  0  0  0  0
   58.5200   34.4400   45.3210 C   0  0  0  0  0  0  0  0  0  0  0  0
   58.4250   34.2290   46.6990 C   0  0  0  0  0  0  0  0  0  0  0  0
   58.2290   32.9380   47.1980 C   0  0  0  0  0  0  0  0  0  0  0  0
   58.1580   32.7320   48.5360 F   0  0  0  0  0  0  0  0  0  0  0  0
   58.1150   31.8570   46.3170 C   0  0  0  0  0  0  0  0  0  0  0  0
   59.0270   28.1870   44.3530 C   0  0  0  0  0  0  0  0  0  0  0  0
   59.7100   29.2450   44.2600 O   0  0  0  0  0  0  0  0  0  0  0  0
   59.2640   27.2960   45.5420 C   0  0  0  0  0  0  0  0  0  0  0  0
   57.9140   27.4520   46.7630 S   0  0  0  0  0  0  0  0  0  0  0  0
   57.2600   25.7960   46.4980 C   0  0  0  0  0  0  0  0  0  0  0  0
   58.1030   24.6950   46.6760 C   0  0  0  0  0  0  0  0  0  0  0  0
   57.6020   23.4080   46.4830 C   0  0  0  0  0  0  0  0  0  0  0  0
   56.2660   23.2340   46.1210 C   0  0  0  0  0  0  0  0  0  0  0  0
   55.4490   24.3560   45.9590 C   0  0  0  0  0  0  0  0  0  0  0  0
   55.9520   25.6070   46.1520 N   0  0  0  0  0  0  0  0  0  0  0  0
   55.1180   26.6910   45.9960 O   0  0  0  0  0  0  0  0  0  0  0  0
   57.6482   25.6897   44.4236 H   0  0  0  0  0  0  0  0  0  0  0  0
   56.4949   25.3044   43.1015 H   0  0  0  0  0  0  0  0  0  0  0  0
   58.1370   24.5763   43.1015 H   0  0  0  0  0  0  0  0  0  0  0  0
   59.1196   26.4634   42.2514 H   0  0  0  0  0  0  0  0  0  0  0  0
   57.4498   26.7899   41.6525 H   0  0  0  0  0  0  0  0  0  0  0  0
   57.1438   29.2967   42.0524 H   0  0  0  0  0  0  0  0  0  0  0  0
   55.9965   28.3917   43.1070 H   0  0  0  0  0  0  0  0  0  0  0  0
   58.6910   30.9730   43.1630 H   0  0  0  0  0  0  0  0  0  0  0  0
   58.5032   33.5275   43.3557 H   0  0  0  0  0  0  0  0  0  0  0  0
   58.6797   35.4556   44.9299 H   0  0  0  0  0  0  0  0  0  0  0  0
   58.5045   35.0797   47.3919 H   0  0  0  0  0  0  0  0  0  0  0  0
   57.9677   30.8412   46.7125 H   0  0  0  0  0  0  0  0  0  0  0  0
   59.3215   26.2515   45.2020 H   0  0  0  0  0  0  0  0  0  0  0  0
   60.2057   27.5994   46.0228 H   0  0  0  0  0  0  0  0  0  0  0  0
   59.1537   24.8428   46.9661 H   0  0  0  0  0  0  0  0  0  0  0  0
   58.2570   22.5343   46.6155 H   0  0  0  0  0  0  0  0  0  0  0  0
   55.8598   22.2238   45.9647 H   0  0  0  0  0  0  0  0  0  0  0  0
   54.3942   24.2283   45.6741 H   0  0  0  0  0  0  0  0  0  0  0  0
  1  2  1  0
  2  3  1  0
  3  4  1  0
  4  5  1  0
  5  6  2  0
  5  7  1  0
  7  8  1  0
  8  9  2  0
  9 10  1  0
 10 11  2  0
 11 12  1  0
 12 13  1  0
 12 14  2  0
  3 15  1  0
 15 16  2  0
 15 17  1  0
 17 18  1  0
 18 19  1  0
 19 20  2  0
 20 21  1  0
 21 22  2  0
 22 23  1  0
 23 24  2  0
 24 25  1  0
 14  8  1  0
 24 19  1  0
  1 26  1  0
  1 27  1  0
  1 28  1  0
  2 29  1  0
  2 30  1  0
  4 31  1  0
  4 32  1  0
  7 33  1  0
  9 34  1  0
 10 35  1  0
 11 36  1  0
 14 37  1  0
 17 38  1  0
 17 39  1  0
 20 40  1  0
 21 41  1  0
 22 42  1  0
 23 43  1  0
M  CHG  2  24   1  25  -1
M  END
>  <UniqueID>  (6) 
4

>  <SMILES>  (6) 
CCN(CC(=O)Nc1cccc(F)c1)C(=O)CSc1cccc[n+]1[O-]

>  <Energy>  (6) 
35.47322226314946

>  <Genealogy>  (6) 
CCN(CC(=O)Nc1cccc(F)c1)C(=O)CSc1cccc[n+]1[O-] (3D coordinates assigned)
CCN(CC(=O)Nc1cccc(F)c1)C(=O)CSc1cccc[n+]1[O-] (optimized conformer: 35.47322226314946 kcal/mol)

>  <smiles>  (6) 
CCN(CC(=O)Nc1cccc(F)c1)C(=O)CSc1cccc[n+]1[O-]

>  <score_type>  (6) 
oracle

>  <origin>  (6) 
adg

>  <m_score__min__energy>  (6) 
-8.4700000000000006

>  <m_primary>  (6) 
energy

$$$$
6:0
     RDKit          3D

 51 53  0  0  0  0  0  0  0  0999 V2000
   57.6390   32.4400   52.3750 C   0  0  0  0  0  0  0  0  0  0  0  0
   57.9010   31.5490   51.1990 C   0  0  0  0  0  0  0  0  0  0  0  0
   57.4210   30.3830   51.2120 O   0  0  0  0  0  0  0  0  0  0  0  0
   58.7050   32.0020   50.0310 C   0  0  0  0  0  0  0  0  0  0  0  0
   59.3270   33.2620   50.0520 C   0  0  0  0  0  0  0  0  0  0  0  0
   60.0750   33.7090   48.9610 C   0  0  0  0  0  0  0  0  0  0  0  0
   60.2270   32.9010   47.8200 C   0  0  0  0  0  0  0  0  0  0  0  0
   60.9590   33.3290   46.6970 O   0  0  0  0  0  0  0  0  0  0  0  0
   62.2830   33.8600   46.7260 C   0  0  0  0  0  0  0  0  0  0  0  0
   63.2230   32.9240   47.4380 C   0  0  0  0  0  0  0  0  0  0  0  0
   63.7230   31.9600   46.7960 O   0  0  0  0  0  0  0  0  0  0  0  0
   63.6150   33.1460   48.8040 N   0  0  0  0  0  0  0  0  0  0  0  0
   64.6220   32.3420   49.4730 C   0  0  0  0  0  0  0  0  0  0  0  0
   64.9000   33.0450   50.7950 C   0  0  0  0  0  0  0  0  0  0  0  0
   63.7310   34.0010   51.0150 C   0  0  0  0  0  0  0  0  0  0  0  0
   63.0960   34.2120   49.6460 C   0  0  0  0  0  0  0  0  0  0  0  0
   59.6240   31.6280   47.7930 C   0  0  0  0  0  0  0  0  0  0  0  0
   59.7400   30.7470   46.5740 C   0  0  0  0  0  0  0  0  0  0  0  0
   58.4610   30.7690   45.8000 C   0  0  0  0  0  0  0  0  0  0  0  0
   57.8080   31.8420   45.7080 O   0  0  0  0  0  0  0  0  0  0  0  0
   58.0530   29.5950   45.0850 N   0  0  0  0  0  0  0  0  0  0  0  0
   57.6630   28.3360   45.6490 C   0  0  0  0  0  0  0  0  0  0  0  0
   58.5890   27.4690   46.2600 C   0  0  0  0  0  0  0  0  0  0  0  0
   58.1660   26.2400   46.7770 C   0  0  0  0  0  0  0  0  0  0  0  0
   56.8260   25.8620   46.6800 C   0  0  0  0  0  0  0  0  0  0  0  0
   55.9050   26.7090   46.0550 C   0  0  0  0  0  0  0  0  0  0  0  0
   54.5730   26.3280   45.9480 O   0  0  0  0  0  0  0  0  0  0  0  0
   56.3250   27.9370   45.5330 C   0  0  0  0  0  0  0  0  0  0  0  0
   58.8580   31.1950   48.8890 C   0  0  0  0  0  0  0  0  0  0  0  0
   57.8045   31.8772   53.3055 H   0  0  0  0  0  0  0  0  0  0  0  0
   58.3218   33.3018   52.3414 H   0  0  0  0  0  0  0  0  0  0  0  0
   56.5984   32.7951   52.3414 H   0  0  0  0  0  0  0  0  0  0  0  0
   59.2233   33.9042   50.9391 H   0  0  0  0  0  0  0  0  0  0  0  0
   60.5492   34.7010   48.9942 H   0  0  0  0  0  0  0  0  0  0  0  0
   62.6345   34.0070   45.6941 H   0  0  0  0  0  0  0  0  0  0  0  0
   62.2652   34.8178   47.2666 H   0  0  0  0  0  0  0  0  0  0  0  0
   64.2438   31.3247   49.6518 H   0  0  0  0  0  0  0  0  0  0  0  0
   65.5337   32.2454   48.8652 H   0  0  0  0  0  0  0  0  0  0  0  0
   64.9543   32.3124   51.6138 H   0  0  0  0  0  0  0  0  0  0  0  0
   65.8607   33.5804   50.7732 H   0  0  0  0  0  0  0  0  0  0  0  0
   63.0020   33.5593   51.7103 H   0  0  0  0  0  0  0  0  0  0  0  0
   64.0662   34.9523   51.4540 H   0  0  0  0  0  0  0  0  0  0  0  0
   62.0003   34.1459   49.7170 H   0  0  0  0  0  0  0  0  0  0  0  0
   63.3332   35.2051   49.2367 H   0  0  0  0  0  0  0  0  0  0  0  0
   60.5575   31.1143   45.9362 H   0  0  0  0  0  0  0  0  0  0  0  0
   59.9492   29.7156   46.8941 H   0  0  0  0  0  0  0  0  0  0  0  0
   59.6477   27.7589   46.3310 H   0  0  0  0  0  0  0  0  0  0  0  0
   58.8914   25.5697   47.2613 H   0  0  0  0  0  0  0  0  0  0  0  0
   56.4945   24.8987   47.0948 H   0  0  0  0  0  0  0  0  0  0  0  0
   55.6005   28.5932   45.0285 H   0  0  0  0  0  0  0  0  0  0  0  0
   58.3705   30.2096   48.8532 H   0  0  0  0  0  0  0  0  0  0  0  0
  1  2  1  0
  2  3  2  0
  2  4  1  0
  4  5  2  0
  5  6  1  0
  6  7  2  0
  7  8  1  0
  8  9  1  0
  9 10  1  0
 10 11  2  0
 10 12  1  0
 12 13  1  0
 13 14  1  0
 14 15  1  0
 15 16  1  0
  7 17  1  0
 17 18  1  0
 18 19  1  0
 19 20  2  0
 19 21  1  0
 21 22  1  0
 22 23  2  0
 23 24  1  0
 24 25  2  0
 25 26  1  0
 26 27  1  0
 26 28  2  0
 17 29  2  0
 29  4  1  0
 16 12  1  0
 28 22  1  0
  1 30  1  0
  1 31  1  0
  1 32  1  0
  5 33  1  0
  6 34  1  0
  9 35  1  0
  9 36  1  0
 13 37  1  0
 13 38  1  0
 14 39  1  0
 14 40  1  0
 15 41  1  0
 15 42  1  0
 16 43  1  0
 16 44  1  0
 18 45  1  0
 18 46  1  0
 23 47  1  0
 24 48  1  0
 25 49  1  0
 28 50  1  0
 29 51  1  0
M  CHG  2  21  -1  27  -1
M  END
>  <UniqueID>  (7) 
5

>  <SMILES>  (7) 
CC(=O)c1ccc(OCC(=O)N2CCCC2)c(CC(=O)[N-]c2cccc([O-])c2)c1

>  <Energy>  (7) 
52.602631816735034

>  <Genealogy>  (7) 
CC(=O)c1ccc(OCC(=O)N2CCCC2)c(CC(=O)[N-]c2cccc([O-])c2)c1 (protonated)
CC(=O)c1ccc(OCC(=O)N2CCCC2)c(CC(=O)[N-]c2cccc([O-])c2)c1 (3D coordinates assigned)
CC(=O)c1ccc(OCC(=O)N2CCCC2)c(CC(=O)[N-]c2cccc([O-])c2)c1 (nonaromatic ring conformer: 52.602631816735034 kcal/mol)

>  <smiles>  (7) 
CC(=O)c1ccc(OCC(=O)N2CCCC2)c(CC(=O)Nc2cccc(O)c2)c1

>  <score_type>  (7) 
oracle

>  <origin>  (7) 
adg

>  <m_score__min__energy>  (7) 
-13.75

>  <m_primary>  (7) 
energy

$$$$
7:0
     RDKit          3D

 55 58  0  0  0  0  0  0  0  0999 V2000
   54.7790   26.3380   45.9610 N   0  0  0  0  0  0  0  0  0  0  0  0
   54.5350   24.6630   45.6030 S   0  0  0  0  0  0  0  0  0  0  0  0
   53.1100   24.4390   45.1810 O   0  0  0  0  0  0  0  0  0  0  0  0
   54.8060   23.8590   46.8430 O   0  0  0  0  0  0  0  0  0  0  0  0
   55.6200   24.1390   44.3470 N   0  0  0  0  0  0  0  0  0  0  0  0
   56.9290   23.7730   44.8910 C   0  0  0  0  0  0  0  0  0  0  0  0
   57.5800   24.9490   45.5680 C   0  0  0  0  0  0  0  0  0  0  0  0
   58.0140   26.0530   44.8180 C   0  0  0  0  0  0  0  0  0  0  0  0
   58.6320   27.1350   45.4520 C   0  0  0  0  0  0  0  0  0  0  0  0
   58.8400   27.1220   46.8360 C   0  0  0  0  0  0  0  0  0  0  0  0
   59.4740   28.2510   47.4540 N   0  0  0  0  0  0  0  0  0  0  0  0
   59.0500   29.6140   47.3370 C   0  0  0  0  0  0  0  0  0  0  0  0
   59.1840   30.3790   48.3280 O   0  0  0  0  0  0  0  0  0  0  0  0
   58.3860   30.0780   46.1510 N   0  0  0  0  0  0  0  0  0  0  0  0
   58.2710   31.4620   45.7800 C   0  0  0  0  0  0  0  0  0  0  0  0
   57.5400   31.8600   44.6470 C   0  0  0  0  0  0  0  0  0  0  0  0
   57.4160   33.2140   44.3280 C   0  0  0  0  0  0  0  0  0  0  0  0
   58.0110   34.1850   45.1370 C   0  0  0  0  0  0  0  0  0  0  0  0
   58.7360   33.8070   46.2790 C   0  0  0  0  0  0  0  0  0  0  0  0
   59.3690   34.8490   47.1650 C   0  0  0  0  0  0  0  0  0  0  0  0
   60.0460   34.2130   48.3510 C   0  0  0  0  0  0  0  0  0  0  0  0
   59.3320   34.0740   49.4990 N   0  0  0  0  0  0  0  0  0  0  0  0
   59.8340   33.4790   50.5780 N   0  0  0  0  0  0  0  0  0  0  0  0
   61.0920   32.9750   50.5920 C   0  0  0  0  0  0  0  0  0  0  0  0
   61.5200   32.4060   51.6320 O   0  0  0  0  0  0  0  0  0  0  0  0
   61.8980   33.0900   49.4510 C   0  0  0  0  0  0  0  0  0  0  0  0
   61.3620   33.7020   48.3000 C   0  0  0  0  0  0  0  0  0  0  0  0
   62.1750   33.8180   47.1170 N   0  0  0  0  0  0  0  0  0  0  0  0
   63.4440   33.1060   47.0000 C   0  0  0  0  0  0  0  0  0  0  0  0
   64.1710   33.1210   48.3430 C   0  0  0  0  0  0  0  0  0  0  0  0
   63.2910   32.4940   49.4290 C   0  0  0  0  0  0  0  0  0  0  0  0
   58.8480   32.4440   46.6000 C   0  0  0  0  0  0  0  0  0  0  0  0
   58.3780   26.0310   47.5910 C   0  0  0  0  0  0  0  0  0  0  0  0
   57.7560   24.9500   46.9600 C   0  0  0  0  0  0  0  0  0  0  0  0
   53.8920   26.7010   46.3760 H   0  0  0  0  0  0  0  0  0  0  0  0
   56.8003   22.9624   45.6233 H   0  0  0  0  0  0  0  0  0  0  0  0
   57.5736   23.4450   44.0622 H   0  0  0  0  0  0  0  0  0  0  0  0
   57.8675   26.0670   43.7279 H   0  0  0  0  0  0  0  0  0  0  0  0
   58.9570   28.0026   44.8590 H   0  0  0  0  0  0  0  0  0  0  0  0
   57.8910   29.3680   45.5650 H   0  0  0  0  0  0  0  0  0  0  0  0
   57.0635   31.1014   44.0087 H   0  0  0  0  0  0  0  0  0  0  0  0
   56.8476   33.5170   43.4363 H   0  0  0  0  0  0  0  0  0  0  0  0
   57.9114   35.2496   44.8787 H   0  0  0  0  0  0  0  0  0  0  0  0
   60.1153   35.4100   46.5833 H   0  0  0  0  0  0  0  0  0  0  0  0
   58.5800   35.5218   47.5321 H   0  0  0  0  0  0  0  0  0  0  0  0
   61.9130   34.4680   46.3450 H   0  0  0  0  0  0  0  0  0  0  0  0
   63.2525   32.0652   46.7000 H   0  0  0  0  0  0  0  0  0  0  0  0
   64.0697   33.6008   46.2426 H   0  0  0  0  0  0  0  0  0  0  0  0
   65.1055   32.5472   48.2566 H   0  0  0  0  0  0  0  0  0  0  0  0
   64.3934   34.1624   48.6187 H   0  0  0  0  0  0  0  0  0  0  0  0
   63.2111   31.4133   49.2402 H   0  0  0  0  0  0  0  0  0  0  0  0
   63.7605   32.6963   50.4030 H   0  0  0  0  0  0  0  0  0  0  0  0
   59.3949   32.1426   47.5056 H   0  0  0  0  0  0  0  0  0  0  0  0
   58.5063   26.0275   48.6835 H   0  0  0  0  0  0  0  0  0  0  0  0
   57.4030   24.0964   47.5573 H   0  0  0  0  0  0  0  0  0  0  0  0
  1  2  1  0
  2  3  2  0
  2  4  2  0
  2  5  1  0
  5  6  1  0
  6  7  1  0
  7  8  2  0
  8  9  1  0
  9 10  2  0
 10 11  1  0
 11 12  1  0
 12 13  2  0
 12 14  1  0
 14 15  1  0
 15 16  2  0
 16 17  1  0
 17 18  2  0
 18 19  1  0
 19 20  1  0
 20 21  1  0
 21 22  2  0
 22 23  1  0
 23 24  1  0
 24 25  2  0
 24 26  1  0
 26 27  2  0
 27 28  1  0
 28 29  1  0
 29 30  1  0
 30 31  1  0
 19 32  2  0
 10 33  1  0
 33 34  2  0
 34  7  1  0
 32 15  1  0
 27 21  1  0
 31 26  1  0
  1 35  1  0
  6 36  1  0
  6 37  1  0
  8 38  1  0
  9 39  1  0
 14 40  1  0
 16 41  1  0
 17 42  1  0
 18 43  1  0
 20 44  1  0
 20 45  1  0
 28 46  1  0
 29 47  1  0
 29 48  1  0
 30 49  1  0
 30 50  1  0
 31 51  1  0
 31 52  1  0
 32 53  1  0
 33 54  1  0
 34 55  1  0
M  CHG  4   1  -1   5  -1  11  -1  23  -1
M  END
>  <UniqueID>  (8) 
6

>  <SMILES>  (8) 
[NH-]S(=O)(=O)[N-]Cc1ccc([N-]C(=O)Nc2cccc(Cc3n[n-]c(=O)c4c3NCCC4)c2)cc1

>  <Energy>  (8) 
63.17819893685406

>  <Genealogy>  (8) 
[NH-]S(=O)(=O)[N-]Cc1ccc([N-]C(=O)Nc2cccc(Cc3n[n-]c(=O)c4c3NCCC4)c2)cc1 (protonated)
[NH-]S(=O)(=O)[N-]Cc1ccc([N-]C(=O)Nc2cccc(Cc3n[n-]c(=O)c4c3NCCC4)c2)cc1 (3D coordinates assigned)
[NH-]S(=O)(=O)[N-]Cc1ccc([N-]C(=O)Nc2cccc(Cc3n[n-]c(=O)c4c3NCCC4)c2)cc1 (nonaromatic ring conformer: 63.17819893685406 kcal/mol)

>  <smiles>  (8) 
NS(=O)(=O)NCc1ccc(NC(=O)Nc2cccc(Cc3n[nH]c(=O)c4c3NCCC4)c2)cc1

>  <score_type>  (8) 
oracle

>  <origin>  (8) 
adg

>  <m_score__min__energy>  (8) 
-17.489999999999998

>  <m_primary>  (8) 
energy

$$$$
8:0
     RDKit          3D

 33 34  0  0  0  0  0  0  0  0999 V2000
   55.2230   29.6150   44.8780 O   0  0  0  0  0  0  0  0  0  0  0  0
   56.2810   30.2150   44.5470 C   0  0  0  0  0  0  0  0  0  0  0  0
   56.2850   31.6450   44.5040 N   0  0  0  0  0  0  0  0  0  0  0  0
   57.3160   32.4900   45.0350 C   0  0  0  0  0  0  0  0  0  0  0  0
   57.5660   33.7670   44.5020 C   0  0  0  0  0  0  0  0  0  0  0  0
   58.5530   34.5820   45.0630 C   0  0  0  0  0  0  0  0  0  0  0  0
   59.2940   34.1340   46.1580 C   0  0  0  0  0  0  0  0  0  0  0  0
   60.2540   34.9250   46.6990 F   0  0  0  0  0  0  0  0  0  0  0  0
   59.0370   32.8740   46.7060 C   0  0  0  0  0  0  0  0  0  0  0  0
   58.0430   32.0580   46.1540 C   0  0  0  0  0  0  0  0  0  0  0  0
   57.7970   30.8400   46.7000 F   0  0  0  0  0  0  0  0  0  0  0  0
   57.4770   29.4680   44.2800 N   0  0  0  0  0  0  0  0  0  0  0  0
   57.4580   28.0120   44.1560 C   0  0  0  0  0  0  0  0  0  0  0  0
   57.2820   27.3310   45.5170 C   0  0  0  0  0  0  0  0  0  0  0  0
   55.9120   26.8330   45.6740 N   0  0  0  0  0  0  0  0  0  0  0  0
   55.5260   25.4810   45.9900 C   0  0  0  0  0  0  0  0  0  0  0  0
   56.3380   24.6110   46.7410 C   0  0  0  0  0  0  0  0  0  0  0  0
   55.8760   23.3180   46.9980 C   0  0  0  0  0  0  0  0  0  0  0  0
   56.5840   22.5130   47.6570 O   0  0  0  0  0  0  0  0  0  0  0  0
   54.6610   22.9260   46.5380 N   0  0  0  0  0  0  0  0  0  0  0  0
   53.8810   23.7780   45.8230 C   0  0  0  0  0  0  0  0  0  0  0  0
   52.7570   23.3970   45.4050 O   0  0  0  0  0  0  0  0  0  0  0  0
   54.3160   25.0350   45.5560 N   0  0  0  0  0  0  0  0  0  0  0  0
   56.9830   34.1255   43.6409 H   0  0  0  0  0  0  0  0  0  0  0  0
   58.7465   35.5791   44.6406 H   0  0  0  0  0  0  0  0  0  0  0  0
   59.6169   32.5233   47.5724 H   0  0  0  0  0  0  0  0  0  0  0  0
   58.3800   29.9850   44.2210 H   0  0  0  0  0  0  0  0  0  0  0  0
   56.6238   27.7206   43.5008 H   0  0  0  0  0  0  0  0  0  0  0  0
   58.4213   27.6907   43.7332 H   0  0  0  0  0  0  0  0  0  0  0  0
   57.9837   26.4872   45.5920 H   0  0  0  0  0  0  0  0  0  0  0  0
   57.4838   28.0668   46.3094 H   0  0  0  0  0  0  0  0  0  0  0  0
   55.1460   27.4940   45.4120 H   0  0  0  0  0  0  0  0  0  0  0  0
   57.3168   24.9424   47.1181 H   0  0  0  0  0  0  0  0  0  0  0  0
  1  2  2  0
  2  3  1  0
  3  4  1  0
  4  5  2  0
  5  6  1  0
  6  7  2  0
  7  8  1  0
  7  9  1  0
  9 10  2  0
 10 11  1  0
  2 12  1  0
 12 13  1  0
 13 14  1  0
 14 15  1  0
 15 16  1  0
 16 17  2  0
 17 18  1  0
 18 19  2  0
 18 20  1  0
 20 21  1  0
 21 22  2  0
 21 23  1  0
 10  4  1  0
 23 16  1  0
  5 24  1  0
  6 25  1  0
  9 26  1  0
 12 27  1  0
 13 28  1  0
 13 29  1  0
 14 30  1  0
 14 31  1  0
 15 32  1  0
 17 33  1  0
M  CHG  3   3  -1  20  -1  23  -1
M  END
>  <UniqueID>  (9) 
7

>  <SMILES>  (9) 
O=C([N-]c1ccc(F)cc1F)NCCNc1cc(=O)[n-]c(=O)[n-]1

>  <Energy>  (9) 
33.70804235516487

>  <Genealogy>  (9) 
O=C([N-]c1ccc(F)cc1F)NCCNc1cc(=O)[n-]c(=O)[n-]1 (protonated)
O=C([N-]c1ccc(F)cc1F)NCCNc1cc(=O)[n-]c(=O)[n-]1 (3D coordinates assigned)
O=C([N-]c1ccc(F)cc1F)NCCNc1cc(=O)[n-]c(=O)[n-]1 (optimized conformer: 33.70804235516487 kcal/mol)

>  <smiles>  (9) 
O=C(NCCNc1cc(=O)[nH]c(=O)[nH]1)Nc1ccc(F)cc1F

>  <score_type>  (9) 
oracle

>  <origin>  (9) 
adg

>  <m_score__min__energy>  (9) 
-12.720000000000001

>  <m_primary>  (9) 
energy

$$$$
9:0
     RDKit          3D

 45 48  0  0  1  0  0  0  0  0999 V2000
   58.7630   34.5710   46.7560 C   0  0  0  0  0  0  0  0  0  0  0  0
   59.3060   34.6630   45.4880 C   0  0  0  0  0  0  0  0  0  0  0  0
   58.8660   33.7930   44.5120 C   0  0  0  0  0  0  0  0  0  0  0  0
   57.8880   32.8450   44.8270 C   0  0  0  0  0  0  0  0  0  0  0  0
   57.3920   31.8830   43.7690 C   0  0  0  0  0  0  0  0  0  0  0  0
   56.6390   30.9000   44.5250 N   0  0  0  0  0  0  0  0  0  0  0  0
   57.2780   29.9160   45.0500 C   0  0  0  0  0  0  0  0  0  0  0  0
   57.3570   28.7320   44.3220 C   0  0  0  0  0  0  0  0  0  0  0  0
   58.0410   27.6390   44.8570 C   0  0  0  0  0  0  0  0  0  0  0  0
   58.6230   27.7360   46.0750 N   0  0  0  0  0  0  0  0  0  0  0  0
   58.5360   28.9030   46.7750 C   0  0  0  0  0  0  0  0  0  0  0  0
   59.0930   28.9580   47.9140 N   0  0  0  0  0  0  0  0  0  0  0  0
   60.4370   29.4920   48.0790 C   0  0  0  0  0  0  0  0  0  0  0  0
   60.2310   30.8630   48.6390 C   0  0  0  0  0  0  0  0  0  0  0  0
   59.1590   31.1590   49.4660 C   0  0  0  0  0  0  0  0  0  0  0  0
   59.0350   32.4400   49.9410 C   0  0  0  0  0  0  0  0  0  0  0  0
   59.9440   33.4360   49.6210 C   0  0  0  0  0  0  0  0  0  0  0  0
   61.0040   33.1010   48.7880 C   0  0  0  0  0  0  0  0  0  0  0  0
   61.9520   34.0460   48.4250 C   0  0  0  0  0  0  0  0  0  0  0  0
   63.0170   33.7750   47.6120 C   0  0  0  0  0  0  0  0  0  0  0  0
   63.1610   32.5040   47.1250 C   0  0  0  0  0  0  0  0  0  0  0  0
   62.2310   31.5230   47.4650 C   0  0  0  0  0  0  0  0  0  0  0  0
   61.1720   31.8230   48.2830 C   0  0  0  0  0  0  0  0  0  0  0  0
   57.8730   29.9570   46.2550 N   0  0  0  0  0  0  0  0  0  0  0  0
   57.3640   32.7540   46.0500 N   0  0  0  0  0  0  0  0  0  0  0  0
   57.7970   33.6050   46.9970 C   0  0  0  0  0  0  0  0  0  0  0  0
   59.0902   35.2498   47.5573 H   0  0  0  0  0  0  0  0  0  0  0  0
   60.0749   35.4162   45.2614 H   0  0  0  0  0  0  0  0  0  0  0  0
   59.2811   33.8448   43.4947 H   0  0  0  0  0  0  0  0  0  0  0  0
   56.7464   32.3978   43.0423 H   0  0  0  0  0  0  0  0  0  0  0  0
   58.2082   31.4362   43.1823 H   0  0  0  0  0  0  0  0  0  0  0  0
   56.8836   28.6582   43.3318 H   0  0  0  0  0  0  0  0  0  0  0  0
   58.1069   26.6994   44.2889 H   0  0  0  0  0  0  0  0  0  0  0  0
   59.1360   26.9190   46.4790 H   0  0  0  0  0  0  0  0  0  0  0  0
   61.0189   28.8710   48.7760 H   0  0  0  0  0  0  0  0  0  0  0  0
   60.9992   29.5073   47.1336 H   0  0  0  0  0  0  0  0  0  0  0  0
   58.4250   30.3852   49.7351 H   0  0  0  0  0  0  0  0  0  0  0  0
   58.1866   32.6845   50.5971 H   0  0  0  0  0  0  0  0  0  0  0  0
   59.8300   34.4573   50.0134 H   0  0  0  0  0  0  0  0  0  0  0  0
   61.8408   35.0695   48.8125 H   0  0  0  0  0  0  0  0  0  0  0  0
   63.7423   34.5611   47.3549 H   0  0  0  0  0  0  0  0  0  0  0  0
   64.0078   32.2575   46.4675 H   0  0  0  0  0  0  0  0  0  0  0  0
   62.3473   30.5012   47.0745 H   0  0  0  0  0  0  0  0  0  0  0  0
   57.8300   30.8330   46.8210 H   0  0  0  0  0  0  0  0  0  0  0  0
   57.3665   33.5319   48.0066 H   0  0  0  0  0  0  0  0  0  0  0  0
  1  2  2  0
  2  3  1  0
  3  4  2  0
  4  5  1  0
  5  6  1  0
  6  7  2  0
  7  8  1  0
  8  9  2  0
  9 10  1  0
 10 11  1  0
 11 12  2  0
 12 13  1  0
 13 14  1  0
 14 15  2  0
 15 16  1  0
 16 17  2  0
 17 18  1  0
 18 19  2  0
 19 20  1  0
 20 21  2  0
 21 22  1  0
 22 23  2  0
 11 24  1  0
  4 25  1  0
 25 26  2  0
 26  1  1  0
 24  7  1  0
 23 14  1  0
 23 18  1  0
  1 27  1  0
  2 28  1  0
  3 29  1  0
  5 30  1  0
  5 31  1  0
  8 32  1  0
  9 33  1  0
 10 34  1  0
 13 35  1  0
 13 36  1  0
 15 37  1  0
 16 38  1  0
 17 39  1  0
 19 40  1  0
 20 41  1  0
 21 42  1  0
 22 43  1  0
 24 44  1  0
 26 45  1  0
M  END
>  <smiles>  (10) 
c1ccc(CN=c2cc[nH]c(=NCc3cccc4ccccc34)[nH]2)nc1

>  <score_type>  (10) 
oracle

>  <origin>  (10) 
adg

>  <m_score__min__energy>  (10) 
-8.2699999999999996

>  <m_primary>  (10) 
energy

$$$$
10:0
     RDKit          3D

 38 39  0  0  0  0  0  0  0  0999 V2000
   56.7050   30.9320   43.9690 C   0  0  0  0  0  0  0  0  0  0  0  0
   57.0990   29.9210   45.0110 C   0  0  0  0  0  0  0  0  0  0  0  0
   56.4710   28.6650   45.0420 C   0  0  0  0  0  0  0  0  0  0  0  0
   56.8360   27.7010   45.9960 C   0  0  0  0  0  0  0  0  0  0  0  0
   56.1680   26.3800   46.0190 C   0  0  0  0  0  0  0  0  0  0  0  0
   56.8470   25.3200   46.0610 O   0  0  0  0  0  0  0  0  0  0  0  0
   54.7810   26.2900   45.9940 O   0  0  0  0  0  0  0  0  0  0  0  0
   57.8470   28.0070   46.9210 C   0  0  0  0  0  0  0  0  0  0  0  0
   58.4740   29.2530   46.8990 C   0  0  0  0  0  0  0  0  0  0  0  0
   58.1000   30.2270   45.9560 C   0  0  0  0  0  0  0  0  0  0  0  0
   58.7680   31.4970   45.8920 N   0  0  0  0  0  0  0  0  0  0  0  0
   58.2060   32.7620   46.2590 C   0  0  0  0  0  0  0  0  0  0  0  0
   57.7440   32.9440   47.4180 O   0  0  0  0  0  0  0  0  0  0  0  0
   58.1560   33.8500   45.2670 C   0  0  0  0  0  0  0  0  0  0  0  0
   57.0640   34.1240   44.7020 O   0  0  0  0  0  0  0  0  0  0  0  0
   59.4010   34.5770   44.8530 C   0  0  0  0  0  0  0  0  0  0  0  0
   59.9520   35.3290   46.0240 C   0  0  0  0  0  0  0  0  0  0  0  0
   60.0200   36.5870   45.9920 O   0  0  0  0  0  0  0  0  0  0  0  0
   60.4140   34.6110   47.1740 N   0  0  0  0  0  0  0  0  0  0  0  0
   61.4100   33.7720   47.2480 C   0  0  0  0  0  0  0  0  0  0  0  0
   62.6080   34.1680   46.7370 N   0  0  0  0  0  0  0  0  0  0  0  0
   63.7200   33.3890   46.7820 C   0  0  0  0  0  0  0  0  0  0  0  0
   63.6670   32.1310   47.3730 C   0  0  0  0  0  0  0  0  0  0  0  0
   62.4650   31.6860   47.9190 C   0  0  0  0  0  0  0  0  0  0  0  0
   61.3230   32.4990   47.8750 C   0  0  0  0  0  0  0  0  0  0  0  0
   60.1480   32.0490   48.4750 O   0  0  0  0  0  0  0  0  0  0  0  0
   56.3481   31.8477   44.4631 H   0  0  0  0  0  0  0  0  0  0  0  0
   57.5762   31.1699   43.3410 H   0  0  0  0  0  0  0  0  0  0  0  0
   55.9025   30.5176   43.3410 H   0  0  0  0  0  0  0  0  0  0  0  0
   55.6834   28.4334   44.3099 H   0  0  0  0  0  0  0  0  0  0  0  0
   58.1470   27.2583   47.6690 H   0  0  0  0  0  0  0  0  0  0  0  0
   59.2686   29.4758   47.6263 H   0  0  0  0  0  0  0  0  0  0  0  0
   60.1483   33.8519   44.4983 H   0  0  0  0  0  0  0  0  0  0  0  0
   59.1618   35.2825   44.0436 H   0  0  0  0  0  0  0  0  0  0  0  0
   64.6638   33.7537   46.3504 H   0  0  0  0  0  0  0  0  0  0  0  0
   64.5637   31.4949   47.4089 H   0  0  0  0  0  0  0  0  0  0  0  0
   62.4113   30.6920   48.3870 H   0  0  0  0  0  0  0  0  0  0  0  0
   59.2960   31.9140   47.9440 H   0  0  0  0  0  0  0  0  0  0  0  0
  1  2  1  0
  2  3  2  0
  3  4  1  0
  4  5  1  0
  5  6  2  0
  5  7  1  0
  4  8  2  0
  8  9  1  0
  9 10  2  0
 10 11  1  0
 11 12  1  0
 12 13  2  0
 12 14  1  0
 14 15  2  0
 14 16  1  0
 16 17  1  0
 17 18  2  0
 17 19  1  0
 19 20  2  3
 20 21  1  0
 21 22  1  0
 22 23  2  0
 23 24  1  0
 24 25  2  0
 25 26  1  0
 10  2  1  0
 25 20  1  0
  1 27  1  0
  1 28  1  0
  1 29  1  0
  3 30  1  0
  8 31  1  0
  9 32  1  0
 16 33  1  0
 16 34  1  0
 22 35  1  0
 23 36  1  0
 24 37  1  0
 26 38  1  0
M  CHG  3   7  -1  11  -1  21  -1
M  END
>  <UniqueID>  (11) 
8

>  <SMILES>  (11) 
Cc1cc(C(=O)[O-])ccc1[N-]C(=O)C(=O)CC(=O)N=c1[n-]cccc1O

>  <Energy>  (11) 
49.998673185912274

>  <Genealogy>  (11) 
Cc1cc(C(=O)[O-])ccc1[N-]C(=O)C(=O)CC(=O)N=c1[n-]cccc1O (protonated)
Cc1cc(C(=O)[O-])ccc1[N-]C(=O)C(=O)CC(=O)N=c1[n-]cccc1O (3D coordinates assigned)
Cc1cc(C(=O)[O-])ccc1[N-]C(=O)C(=O)CC(=O)N=c1[n-]cccc1O (optimized conformer: 49.998673185912274 kcal/mol)

>  <smiles>  (11) 
Cc1cc(C(=O)O)ccc1NC(=O)C(=O)CC(=O)N=c1[nH]cccc1O

>  <score_type>  (11) 
oracle

>  <origin>  (11) 
adg

>  <m_score__min__energy>  (11) 
-11.93

>  <m_primary>  (11) 
energy

$$$$
11:0
     RDKit          3D

 53 55  0  0  0  0  0  0  0  0999 V2000
   61.2100   34.3970   49.7630 O   0  0  0  0  0  0  0  0  0  0  0  0
   61.4270   34.1060   48.5560 C   0  0  0  0  0  0  0  0  0  0  0  0
   62.7340   34.1220   48.0840 O   0  0  0  0  0  0  0  0  0  0  0  0
   60.3070   33.7500   47.6560 C   0  0  0  0  0  0  0  0  0  0  0  0
   60.3740   34.0560   46.2860 C   0  0  0  0  0  0  0  0  0  0  0  0
   59.3190   33.7210   45.4320 C   0  0  0  0  0  0  0  0  0  0  0  0
   58.1790   33.0750   45.9340 C   0  0  0  0  0  0  0  0  0  0  0  0
   57.0500   32.6860   45.0180 C   0  0  0  0  0  0  0  0  0  0  0  0
   57.0120   31.2180   44.8600 N   0  0  0  0  0  0  0  0  0  0  0  0
   56.4000   30.7960   43.5750 C   0  0  0  0  0  0  0  0  0  0  0  0
   55.2500   29.7840   43.7210 C   0  0  0  0  0  0  0  0  0  0  0  0
   55.2260   29.3060   45.0370 O   0  0  0  0  0  0  0  0  0  0  0  0
   58.3300   30.6000   45.1280 C   0  0  0  0  0  0  0  0  0  0  0  0
   58.1840   29.1270   45.4050 C   0  0  0  0  0  0  0  0  0  0  0  0
   57.8100   28.6910   46.6840 C   0  0  0  0  0  0  0  0  0  0  0  0
   57.6340   27.3290   46.9410 C   0  0  0  0  0  0  0  0  0  0  0  0
   57.8160   26.3820   45.9190 C   0  0  0  0  0  0  0  0  0  0  0  0
   57.6170   24.9380   46.1790 C   0  0  0  0  0  0  0  0  0  0  0  0
   58.4510   24.1070   45.7310 O   0  0  0  0  0  0  0  0  0  0  0  0
   56.5230   24.4510   46.9690 N   0  0  0  0  0  0  0  0  0  0  0  0
   55.2970   23.8950   46.4690 C   0  0  0  0  0  0  0  0  0  0  0  0
   55.0560   22.5080   46.5140 C   0  0  0  0  0  0  0  0  0  0  0  0
   53.8530   21.9850   46.0330 C   0  0  0  0  0  0  0  0  0  0  0  0
   52.8740   22.8380   45.5200 C   0  0  0  0  0  0  0  0  0  0  0  0
   53.0930   24.2170   45.4940 C   0  0  0  0  0  0  0  0  0  0  0  0
   54.2960   24.7520   45.9700 C   0  0  0  0  0  0  0  0  0  0  0  0
   54.4780   26.1350   45.9300 O   0  0  0  0  0  0  0  0  0  0  0  0
   58.2090   26.8220   44.6430 C   0  0  0  0  0  0  0  0  0  0  0  0
   58.3850   28.1840   44.3870 C   0  0  0  0  0  0  0  0  0  0  0  0
   58.1110   32.7660   47.3010 C   0  0  0  0  0  0  0  0  0  0  0  0
   59.1640   33.1000   48.1560 C   0  0  0  0  0  0  0  0  0  0  0  0
   61.2631   34.5628   45.8826 H   0  0  0  0  0  0  0  0  0  0  0  0
   59.3829   33.9650   44.3613 H   0  0  0  0  0  0  0  0  0  0  0  0
   56.0975   33.0312   45.4465 H   0  0  0  0  0  0  0  0  0  0  0  0
   57.2062   33.1516   44.0337 H   0  0  0  0  0  0  0  0  0  0  0  0
   56.0084   31.6913   43.0699 H   0  0  0  0  0  0  0  0  0  0  0  0
   57.1912   30.2916   43.0010 H   0  0  0  0  0  0  0  0  0  0  0  0
   54.2940   30.2767   43.4904 H   0  0  0  0  0  0  0  0  0  0  0  0
   55.4023   28.9462   43.0246 H   0  0  0  0  0  0  0  0  0  0  0  0
   55.3150   30.1030   45.6230 H   0  0  0  0  0  0  0  0  0  0  0  0
   58.9787   30.7393   44.2506 H   0  0  0  0  0  0  0  0  0  0  0  0
   58.7723   31.0827   46.0119 H   0  0  0  0  0  0  0  0  0  0  0  0
   57.6544   29.4246   47.4888 H   0  0  0  0  0  0  0  0  0  0  0  0
   57.3510   26.9957   47.9504 H   0  0  0  0  0  0  0  0  0  0  0  0
   55.8187   21.8332   46.9299 H   0  0  0  0  0  0  0  0  0  0  0  0
   53.6769   20.8995   46.0585 H   0  0  0  0  0  0  0  0  0  0  0  0
   51.9300   22.4238   45.1362 H   0  0  0  0  0  0  0  0  0  0  0  0
   52.3158   24.8867   45.0972 H   0  0  0  0  0  0  0  0  0  0  0  0
   54.3840   26.7180   46.7530 H   0  0  0  0  0  0  0  0  0  0  0  0
   58.3791   26.0889   43.8407 H   0  0  0  0  0  0  0  0  0  0  0  0
   58.6826   28.5182   43.3822 H   0  0  0  0  0  0  0  0  0  0  0  0
   57.2222   32.2571   47.7023 H   0  0  0  0  0  0  0  0  0  0  0  0
   59.0991   32.8534   49.2260 H   0  0  0  0  0  0  0  0  0  0  0  0
  1  2  2  0
  2  3  1  0
  2  4  1  0
  4  5  2  0
  5  6  1  0
  6  7  2  0
  7  8  1  0
  8  9  1  0
  9 10  1  0
 10 11  1  0
 11 12  1  0
  9 13  1  0
 13 14  1  0
 14 15  2  0
 15 16  1  0
 16 17  2  0
 17 18  1  0
 18 19  2  0
 18 20  1  0
 20 21  1  0
 21 22  2  0
 22 23  1  0
 23 24  2  0
 24 25  1  0
 25 26  2  0
 26 27  1  0
 17 28  1  0
 28 29  2  0
  7 30  1  0
 30 31  2  0
 31  4  1  0
 29 14  1  0
 26 21  1  0
  5 32  1  0
  6 33  1  0
  8 34  1  0
  8 35  1  0
 10 36  1  0
 10 37  1  0
 11 38  1  0
 11 39  1  0
 12 40  1  0
 13 41  1  0
 13 42  1  0
 15 43  1  0
 16 44  1  0
 22 45  1  0
 23 46  1  0
 24 47  1  0
 25 48  1  0
 27 49  1  0
 28 50  1  0
 29 51  1  0
 30 52  1  0
 31 53  1  0
M  CHG  2   3  -1  20  -1
M  END
>  <UniqueID>  (12) 
9

>  <SMILES>  (12) 
O=C([O-])c1ccc(CN(CCO)Cc2ccc(C(=O)[N-]c3ccccc3O)cc2)cc1

>  <Energy>  (12) 
64.5897703880671

>  <Genealogy>  (12) 
O=C([O-])c1ccc(CN(CCO)Cc2ccc(C(=O)[N-]c3ccccc3O)cc2)cc1 (protonated)
O=C([O-])c1ccc(CN(CCO)Cc2ccc(C(=O)[N-]c3ccccc3O)cc2)cc1 (3D coordinates assigned)
O=C([O-])c1ccc(CN(CCO)Cc2ccc(C(=O)[N-]c3ccccc3O)cc2)cc1 (optimized conformer: 64.5897703880671 kcal/mol)

>  <smiles>  (12) 
O=C(O)c1ccc(CN(CCO)Cc2ccc(C(=O)Nc3ccccc3O)cc2)cc1

>  <score_type>  (12) 
oracle

>  <origin>  (12) 
adg

>  <m_score__min__energy>  (12) 
-12.199999999999999

>  <m_primary>  (12) 
energy

$$$$
12:0
     RDKit          3D

 42 44  0  0  0  0  0  0  0  0999 V2000
   58.1340   27.3210   43.7050 C   0  0  0  0  0  0  0  0  0  0  0  0
   58.7960   28.3780   44.5140 C   0  0  0  0  0  0  0  0  0  0  0  0
   59.9880   28.1440   45.1850 C   0  0  0  0  0  0  0  0  0  0  0  0
   60.5570   29.1750   45.9260 C   0  0  0  0  0  0  0  0  0  0  0  0
   59.9370   30.4210   45.9930 C   0  0  0  0  0  0  0  0  0  0  0  0
   58.7370   30.6450   45.3130 C   0  0  0  0  0  0  0  0  0  0  0  0
   58.1430   31.9100   45.4030 N   0  0  0  0  0  0  0  0  0  0  0  0
   57.8780   32.7000   46.4580 C   0  0  0  0  0  0  0  0  0  0  0  0
   58.1860   32.3630   47.8520 C   0  0  0  0  0  0  0  0  0  0  0  0
   59.1730   33.2470   48.3820 O   0  0  0  0  0  0  0  0  0  0  0  0
   60.4940   33.1070   47.9790 C   0  0  0  0  0  0  0  0  0  0  0  0
   61.3280   32.1690   48.5500 C   0  0  0  0  0  0  0  0  0  0  0  0
   60.8280   31.2580   49.6370 C   0  0  0  0  0  0  0  0  0  0  0  0
   62.6270   32.0740   48.1130 C   0  0  0  0  0  0  0  0  0  0  0  0
   63.1180   32.8960   47.1160 C   0  0  0  0  0  0  0  0  0  0  0  0
   62.2990   33.8390   46.5340 C   0  0  0  0  0  0  0  0  0  0  0  0
   60.9970   33.9310   46.9760 C   0  0  0  0  0  0  0  0  0  0  0  0
   60.1130   34.9640   46.3330 C   0  0  0  0  0  0  0  0  0  0  0  0
   57.2900   33.8280   46.0130 N   0  0  0  0  0  0  0  0  0  0  0  0
   57.1760   33.7790   44.7080 N   0  0  0  0  0  0  0  0  0  0  0  0
   57.6950   32.6060   44.3180 C   0  0  0  0  0  0  0  0  0  0  0  0
   57.7740   32.0950   42.7520 S   0  0  0  0  0  0  0  0  0  0  0  0
   58.1580   29.6150   44.5650 C   0  0  0  0  0  0  0  0  0  0  0  0
   57.6712   26.5820   44.3755 H   0  0  0  0  0  0  0  0  0  0  0  0
   57.3593   27.7762   43.0704 H   0  0  0  0  0  0  0  0  0  0  0  0
   58.8817   26.8227   43.0704 H   0  0  0  0  0  0  0  0  0  0  0  0
   60.4752   27.1592   45.1319 H   0  0  0  0  0  0  0  0  0  0  0  0
   61.5023   29.0054   46.4623 H   0  0  0  0  0  0  0  0  0  0  0  0
   60.3931   31.2300   46.5824 H   0  0  0  0  0  0  0  0  0  0  0  0
   57.2687   32.4446   48.4536 H   0  0  0  0  0  0  0  0  0  0  0  0
   58.5778   31.3358   47.8876 H   0  0  0  0  0  0  0  0  0  0  0  0
   61.0668   31.6930   50.6187 H   0  0  0  0  0  0  0  0  0  0  0  0
   59.7384   31.1394   49.5437 H   0  0  0  0  0  0  0  0  0  0  0  0
   61.3131   30.2752   49.5437 H   0  0  0  0  0  0  0  0  0  0  0  0
   63.2926   31.3255   48.5676 H   0  0  0  0  0  0  0  0  0  0  0  0
   64.1630   32.7973   46.7871 H   0  0  0  0  0  0  0  0  0  0  0  0
   62.6741   34.5000   45.7387 H   0  0  0  0  0  0  0  0  0  0  0  0
   59.6092   35.5527   47.1138 H   0  0  0  0  0  0  0  0  0  0  0  0
   60.7240   35.6314   45.7075 H   0  0  0  0  0  0  0  0  0  0  0  0
   59.3592   34.4634   45.7075 H   0  0  0  0  0  0  0  0  0  0  0  0
   56.7680   34.4850   44.0450 H   0  0  0  0  0  0  0  0  0  0  0  0
   57.2136   29.7792   44.0254 H   0  0  0  0  0  0  0  0  0  0  0  0
  1  2  1  0
  2  3  2  0
  3  4  1  0
  4  5  2  0
  5  6  1  0
  6  7  1  0
  7  8  1  0
  8  9  1  0
  9 10  1  0
 10 11  1  0
 11 12  2  0
 12 13  1  0
 12 14  1  0
 14 15  2  0
 15 16  1  0
 16 17  2  0
 17 18  1  0
  8 19  2  0
 19 20  1  0
 20 21  1  0
 21 22  2  0
  6 23  2  0
 23  2  1  0
 21  7  1  0
 17 11  1  0
  1 24  1  0
  1 25  1  0
  1 26  1  0
  3 27  1  0
  4 28  1  0
  5 29  1  0
  9 30  1  0
  9 31  1  0
 13 32  1  0
 13 33  1  0
 13 34  1  0
 14 35  1  0
 15 36  1  0
 16 37  1  0
 18 38  1  0
 18 39  1  0
 18 40  1  0
 20 41  1  0
 23 42  1  0
M  END
>  <smiles>  (13) 
Cc1cccc(-n2c(COc3c(C)cccc3C)n[nH]c2=S)c1

>  <score_type>  (13) 
oracle

>  <origin>  (13) 
adg

>  <m_score__min__energy>  (13) 
-7.8200000000000003

>  <m_primary>  (13) 
energy

$$$$
13:0
     RDKit          3D

 47 50  0  0  0  0  0  0  0  0999 V2000
   56.1050   28.2210   45.2170 O   0  0  0  0  0  0  0  0  0  0  0  0
   56.9980   29.1090   45.2680 C   0  0  0  0  0  0  0  0  0  0  0  0
   58.4290   28.7280   45.5170 C   0  0  0  0  0  0  0  0  0  0  0  0
   59.3440   29.9250   45.8200 C   0  0  0  0  0  0  0  0  0  0  0  0
   60.3930   29.6640   46.9160 C   0  0  0  0  0  0  0  0  0  0  0  0
   60.4090   30.7180   47.9590 N   0  0  0  0  0  0  0  0  0  0  0  0
   59.3840   30.7220   48.8830 C   0  0  0  0  0  0  0  0  0  0  0  0
   58.5240   29.7980   48.9090 O   0  0  0  0  0  0  0  0  0  0  0  0
   59.2880   31.7730   49.7910 C   0  0  0  0  0  0  0  0  0  0  0  0
   58.3410   31.9700   50.7770 C   0  0  0  0  0  0  0  0  0  0  0  0
   58.6670   33.1760   51.3750 C   0  0  0  0  0  0  0  0  0  0  0  0
   59.7910   33.6580   50.7260 C   0  0  0  0  0  0  0  0  0  0  0  0
   60.1610   32.7870   49.7630 N   0  0  0  0  0  0  0  0  0  0  0  0
   61.2040   32.8200   48.8900 C   0  0  0  0  0  0  0  0  0  0  0  0
   62.1220   33.8820   48.8660 C   0  0  0  0  0  0  0  0  0  0  0  0
   63.2020   33.8430   47.9930 C   0  0  0  0  0  0  0  0  0  0  0  0
   63.3610   32.7490   47.1480 C   0  0  0  0  0  0  0  0  0  0  0  0
   62.4570   31.7330   47.1510 N   0  0  0  0  0  0  0  0  0  0  0  0
   61.3600   31.7360   47.9790 C   0  0  0  0  0  0  0  0  0  0  0  0
   56.6410   30.4930   45.2260 N   0  0  0  0  0  0  0  0  0  0  0  0
   57.2240   31.4520   44.2920 C   0  0  0  0  0  0  0  0  0  0  0  0
   57.8550   32.6050   45.0230 C   0  0  0  0  0  0  0  0  0  0  0  0
   58.6350   33.5420   44.3230 C   0  0  0  0  0  0  0  0  0  0  0  0
   59.2710   34.5810   45.0080 C   0  0  0  0  0  0  0  0  0  0  0  0
   59.1120   34.7110   46.3910 C   0  0  0  0  0  0  0  0  0  0  0  0
   59.7230   35.7250   47.0520 F   0  0  0  0  0  0  0  0  0  0  0  0
   58.3180   33.7970   47.0900 C   0  0  0  0  0  0  0  0  0  0  0  0
   57.6940   32.7460   46.4110 C   0  0  0  0  0  0  0  0  0  0  0  0
   58.4609   28.0406   46.3752 H   0  0  0  0  0  0  0  0  0  0  0  0
   58.8032   28.2636   44.5927 H   0  0  0  0  0  0  0  0  0  0  0  0
   59.8737   30.1957   44.8947 H   0  0  0  0  0  0  0  0  0  0  0  0
   58.6938   30.7296   46.1939 H   0  0  0  0  0  0  0  0  0  0  0  0
   60.1686   28.6993   47.3946 H   0  0  0  0  0  0  0  0  0  0  0  0
   61.3817   29.6602   46.4339 H   0  0  0  0  0  0  0  0  0  0  0  0
   57.5020   31.3067   51.0340 H   0  0  0  0  0  0  0  0  0  0  0  0
   58.1342   33.6590   52.2073 H   0  0  0  0  0  0  0  0  0  0  0  0
   60.3029   34.6034   50.9587 H   0  0  0  0  0  0  0  0  0  0  0  0
   61.9864   34.7431   49.5370 H   0  0  0  0  0  0  0  0  0  0  0  0
   63.9260   34.6708   47.9699 H   0  0  0  0  0  0  0  0  0  0  0  0
   64.2267   32.7055   46.4707 H   0  0  0  0  0  0  0  0  0  0  0  0
   62.6700   30.9450   46.5100 H   0  0  0  0  0  0  0  0  0  0  0  0
   57.9921   30.9451   43.6894 H   0  0  0  0  0  0  0  0  0  0  0  0
   56.4229   31.8433   43.6477 H   0  0  0  0  0  0  0  0  0  0  0  0
   58.7452   33.4571   43.2318 H   0  0  0  0  0  0  0  0  0  0  0  0
   59.8980   35.2981   44.4579 H   0  0  0  0  0  0  0  0  0  0  0  0
   58.1839   33.9049   48.1764 H   0  0  0  0  0  0  0  0  0  0  0  0
   57.0743   32.0265   46.9663 H   0  0  0  0  0  0  0  0  0  0  0  0
  1  2  2  0
  2  3  1  0
  3  4  1  0
  4  5  1  0
  5  6  1  0
  6  7  1  0
  7  8  2  0
  7  9  1  0
  9 10  2  0
 10 11  1  0
 11 12  2  0
 12 13  1  0
 13 14  1  0
 14 15  2  0
 15 16  1  0
 16 17  2  0
 17 18  1  0
 18 19  2  0
  2 20  1  0
 20 21  1  0
 21 22  1  0
 22 23  2  0
 23 24  1  0
 24 25  2  0
 25 26  1  0
 25 27  1  0
 27 28  2  0
 19  6  1  0
 28 22  1  0
 13  9  1  0
 19 14  1  0
  3 29  1  0
  3 30  1  0
  4 31  1  0
  4 32  1  0
  5 33  1  0
  5 34  1  0
 10 35  1  0
 11 36  1  0
 12 37  1  0
 15 38  1  0
 16 39  1  0
 17 40  1  0
 18 41  1  0
 21 42  1  0
 21 43  1  0
 23 44  1  0
 24 45  1  0
 27 46  1  0
 28 47  1  0
M  CHG  2  18   1  20  -1
M  END
>  <UniqueID>  (14) 
10

>  <SMILES>  (14) 
O=C(CCCn1c(=O)c2cccn2c2ccc[nH+]c21)[N-]Cc1ccc(F)cc1

>  <Energy>  (14) 
85.10141735790229

>  <Genealogy>  (14) 
O=C(CCCn1c(=O)c2cccn2c2ccc[nH+]c21)[N-]Cc1ccc(F)cc1 (protonated)
O=C(CCCn1c(=O)c2cccn2c2ccc[nH+]c21)[N-]Cc1ccc(F)cc1 (3D coordinates assigned)
O=C(CCCn1c(=O)c2cccn2c2ccc[nH+]c21)[N-]Cc1ccc(F)cc1 (optimized conformer: 85.10141735790229 kcal/mol)

>  <smiles>  (14) 
O=C(CCCn1c(=O)c2cccn2c2cccnc21)NCc1ccc(F)cc1

>  <score_type>  (14) 
oracle

>  <origin>  (14) 
adg

>  <m_score__min__energy>  (14) 
-8.8499999999999996

>  <m_primary>  (14) 
energy

$$$$
14:0
     RDKit          3D

 48 50  0  0  0  0  0  0  0  0999 V2000
   60.2680   33.6990   51.1150 C   0  0  0  0  0  0  0  0  0  0  0  0
   61.3600   32.9560   50.4040 C   0  0  0  0  0  0  0  0  0  0  0  0
   61.9230   32.0070   51.0150 O   0  0  0  0  0  0  0  0  0  0  0  0
   61.8000   33.2990   49.0210 C   0  0  0  0  0  0  0  0  0  0  0  0
   63.1560   33.1170   48.6860 C   0  0  0  0  0  0  0  0  0  0  0  0
   63.6200   33.4010   47.4010 C   0  0  0  0  0  0  0  0  0  0  0  0
   62.7400   33.8660   46.4290 C   0  0  0  0  0  0  0  0  0  0  0  0
   61.3960   34.0650   46.7400 C   0  0  0  0  0  0  0  0  0  0  0  0
   60.9110   33.8090   48.0390 C   0  0  0  0  0  0  0  0  0  0  0  0
   59.5730   34.0700   48.3810 O   0  0  0  0  0  0  0  0  0  0  0  0
   58.4470   33.2600   48.0400 C   0  0  0  0  0  0  0  0  0  0  0  0
   58.2680   33.1890   46.5530 C   0  0  0  0  0  0  0  0  0  0  0  0
   58.4660   34.2210   45.8570 O   0  0  0  0  0  0  0  0  0  0  0  0
   57.9550   31.9400   45.9240 N   0  0  0  0  0  0  0  0  0  0  0  0
   57.6800   31.8270   44.5210 C   0  0  0  0  0  0  0  0  0  0  0  0
   58.3000   32.7230   43.6370 C   0  0  0  0  0  0  0  0  0  0  0  0
   58.0810   32.6240   42.2610 C   0  0  0  0  0  0  0  0  0  0  0  0
   57.2550   31.6190   41.7530 C   0  0  0  0  0  0  0  0  0  0  0  0
   56.6540   30.7050   42.6210 C   0  0  0  0  0  0  0  0  0  0  0  0
   56.8670   30.7930   44.0040 C   0  0  0  0  0  0  0  0  0  0  0  0
   56.3020   29.7470   44.8740 C   0  0  0  0  0  0  0  0  0  0  0  0
   55.1440   29.3140   44.6450 O   0  0  0  0  0  0  0  0  0  0  0  0
   57.0580   29.1800   45.9520 N   0  0  0  0  0  0  0  0  0  0  0  0
   58.3750   28.5680   45.8170 C   0  0  0  0  0  0  0  0  0  0  0  0
   59.4100   29.3500   46.5620 C   0  0  0  0  0  0  0  0  0  0  0  0
   60.6540   29.7060   46.0800 C   0  0  0  0  0  0  0  0  0  0  0  0
   61.2620   30.4000   47.1040 C   0  0  0  0  0  0  0  0  0  0  0  0
   60.3560   30.4210   48.1430 C   0  0  0  0  0  0  0  0  0  0  0  0
   59.2610   29.7860   47.7910 O   0  0  0  0  0  0  0  0  0  0  0  0
   60.4075   33.6041   52.2020 H   0  0  0  0  0  0  0  0  0  0  0  0
   60.3031   34.7614   50.8322 H   0  0  0  0  0  0  0  0  0  0  0  0
   59.2926   33.2763   50.8322 H   0  0  0  0  0  0  0  0  0  0  0  0
   63.8582   32.7462   49.4472 H   0  0  0  0  0  0  0  0  0  0  0  0
   64.6827   33.2570   47.1563 H   0  0  0  0  0  0  0  0  0  0  0  0
   63.1055   34.0770   45.4132 H   0  0  0  0  0  0  0  0  0  0  0  0
   60.7058   34.4259   45.9632 H   0  0  0  0  0  0  0  0  0  0  0  0
   58.6022   32.2443   48.4327 H   0  0  0  0  0  0  0  0  0  0  0  0
   57.5450   33.7095   48.4809 H   0  0  0  0  0  0  0  0  0  0  0  0
   58.1260   31.0610   46.4630 H   0  0  0  0  0  0  0  0  0  0  0  0
   58.9626   33.5082   44.0300 H   0  0  0  0  0  0  0  0  0  0  0  0
   58.5601   33.3391   41.5761 H   0  0  0  0  0  0  0  0  0  0  0  0
   57.0779   31.5474   40.6697 H   0  0  0  0  0  0  0  0  0  0  0  0
   56.0092   29.9107   42.2170 H   0  0  0  0  0  0  0  0  0  0  0  0
   58.3389   27.5449   46.2194 H   0  0  0  0  0  0  0  0  0  0  0  0
   58.6468   28.5544   44.7512 H   0  0  0  0  0  0  0  0  0  0  0  0
   61.0720   29.4827   45.0873 H   0  0  0  0  0  0  0  0  0  0  0  0
   62.2671   30.8469   47.0942 H   0  0  0  0  0  0  0  0  0  0  0  0
   60.5246   30.8978   49.1199 H   0  0  0  0  0  0  0  0  0  0  0  0
  1  2  1  0
  2  3  2  0
  2  4  1  0
  4  5  2  0
  5  6  1  0
  6  7  2  0
  7  8  1  0
  8  9  2  0
  9 10  1  0
 10 11  1  0
 11 12  1  0
 12 13  2  0
 12 14  1  0
 14 15  1  0
 15 16  2  0
 16 17  1  0
 17 18  2  0
 18 19  1  0
 19 20  2  0
 20 21  1  0
 21 22  2  0
 21 23  1  0
 23 24  1  0
 24 25  1  0
 25 26  2  0
 26 27  1  0
 27 28  2  0
 28 29  1  0
  9  4  1  0
 20 15  1  0
 29 25  1  0
  1 30  1  0
  1 31  1  0
  1 32  1  0
  5 33  1  0
  6 34  1  0
  7 35  1  0
  8 36  1  0
 11 37  1  0
 11 38  1  0
 14 39  1  0
 16 40  1  0
 17 41  1  0
 18 42  1  0
 19 43  1  0
 24 44  1  0
 24 45  1  0
 26 46  1  0
 27 47  1  0
 28 48  1  0
M  CHG  1  23  -1
M  END
>  <UniqueID>  (15) 
11

>  <SMILES>  (15) 
CC(=O)c1ccccc1OCC(=O)Nc1ccccc1C(=O)[N-]Cc1ccco1

>  <Energy>  (15) 
82.21387227072726

>  <Genealogy>  (15) 
CC(=O)c1ccccc1OCC(=O)Nc1ccccc1C(=O)[N-]Cc1ccco1 (protonated)
CC(=O)c1ccccc1OCC(=O)Nc1ccccc1C(=O)[N-]Cc1ccco1 (3D coordinates assigned)
CC(=O)c1ccccc1OCC(=O)Nc1ccccc1C(=O)[N-]Cc1ccco1 (optimized conformer: 82.21387227072726 kcal/mol)

>  <smiles>  (15) 
CC(=O)c1ccccc1OCC(=O)Nc1ccccc1C(=O)NCc1ccco1

>  <score_type>  (15) 
oracle

>  <origin>  (15) 
adg

>  <m_score__min__energy>  (15) 
-10.69

>  <m_primary>  (15) 
energy

$$$$
15:0
     RDKit          3D

 67 71  0  0  0  0  0  0  0  0999 V2000
   56.2420   30.2420   43.9610 C   0  0  0  0  0  0  0  0  0  0  0  0
   56.8690   30.6950   45.1550 O   0  0  0  0  0  0  0  0  0  0  0  0
   57.6340   31.8670   45.2510 C   0  0  0  0  0  0  0  0  0  0  0  0
   57.7760   32.6560   44.1030 C   0  0  0  0  0  0  0  0  0  0  0  0
   58.5090   33.8410   44.1460 C   0  0  0  0  0  0  0  0  0  0  0  0
   59.1160   34.2490   45.3330 C   0  0  0  0  0  0  0  0  0  0  0  0
   59.0240   33.4520   46.4910 C   0  0  0  0  0  0  0  0  0  0  0  0
   59.6930   33.8770   47.7790 C   0  0  0  0  0  0  0  0  0  0  0  0
   61.1530   33.8540   47.6500 N   0  0  0  0  0  0  0  0  0  0  0  0
   61.7880   33.8280   46.4810 N   0  0  0  0  0  0  0  0  0  0  0  0
   63.1040   33.5960   46.6860 C   0  0  0  0  0  0  0  0  0  0  0  0
   63.2970   33.4610   48.0430 C   0  0  0  0  0  0  0  0  0  0  0  0
   64.4330   33.1590   48.7860 C   0  0  0  0  0  0  0  0  0  0  0  0
   64.2860   33.0370   50.1790 C   0  0  0  0  0  0  0  0  0  0  0  0
   63.0280   33.2400   50.7890 C   0  0  0  0  0  0  0  0  0  0  0  0
   61.8990   33.5740   50.0100 C   0  0  0  0  0  0  0  0  0  0  0  0
   60.6580   33.8410   50.5960 O   0  0  0  0  0  0  0  0  0  0  0  0
   59.6460   32.8880   50.8040 C   0  0  0  0  0  0  0  0  0  0  0  0
   58.5540   33.1220   51.6640 C   0  0  0  0  0  0  0  0  0  0  0  0
   57.5610   32.1540   51.8210 C   0  0  0  0  0  0  0  0  0  0  0  0
   57.6170   30.9690   51.0870 C   0  0  0  0  0  0  0  0  0  0  0  0
   58.6610   30.7470   50.1820 C   0  0  0  0  0  0  0  0  0  0  0  0
   58.6160   29.5770   49.3570 N   0  0  0  0  0  0  0  0  0  0  0  0
   59.4500   29.2650   48.2300 C   0  0  0  0  0  0  0  0  0  0  0  0
   60.6730   29.5580   48.3060 O   0  0  0  0  0  0  0  0  0  0  0  0
   58.9510   28.5670   47.0100 C   0  0  0  0  0  0  0  0  0  0  0  0
   59.4730   28.9160   45.7520 C   0  0  0  0  0  0  0  0  0  0  0  0
   59.0000   28.3030   44.5920 C   0  0  0  0  0  0  0  0  0  0  0  0
   57.9870   27.3500   44.6630 C   0  0  0  0  0  0  0  0  0  0  0  0
   57.4630   26.9610   45.9080 C   0  0  0  0  0  0  0  0  0  0  0  0
   56.3330   26.0010   45.9750 C   0  0  0  0  0  0  0  0  0  0  0  0
   55.1460   26.4300   46.0090 O   0  0  0  0  0  0  0  0  0  0  0  0
   56.5660   24.5870   46.0490 N   0  0  0  0  0  0  0  0  0  0  0  0
   55.9530   23.8230   47.1360 C   0  0  0  0  0  0  0  0  0  0  0  0
   57.1660   23.8770   44.9190 C   0  0  0  0  0  0  0  0  0  0  0  0
   57.9880   27.5410   47.0780 C   0  0  0  0  0  0  0  0  0  0  0  0
   59.7010   31.6900   50.0790 C   0  0  0  0  0  0  0  0  0  0  0  0
   62.0680   33.6380   48.6220 C   0  0  0  0  0  0  0  0  0  0  0  0
   58.2570   32.2720   46.4500 C   0  0  0  0  0  0  0  0  0  0  0  0
   55.3749   29.6155   44.2171 H   0  0  0  0  0  0  0  0  0  0  0  0
   55.9072   31.1081   43.3713 H   0  0  0  0  0  0  0  0  0  0  0  0
   56.9591   29.6521   43.3713 H   0  0  0  0  0  0  0  0  0  0  0  0
   57.3059   32.3385   43.1606 H   0  0  0  0  0  0  0  0  0  0  0  0
   58.6089   34.4566   43.2399 H   0  0  0  0  0  0  0  0  0  0  0  0
   59.6700   35.1988   45.3655 H   0  0  0  0  0  0  0  0  0  0  0  0
   59.3710   34.8982   48.0307 H   0  0  0  0  0  0  0  0  0  0  0  0
   59.4020   33.1723   48.5720 H   0  0  0  0  0  0  0  0  0  0  0  0
   61.3260   33.9220   45.5470 H   0  0  0  0  0  0  0  0  0  0  0  0
   63.8801   33.5275   45.9095 H   0  0  0  0  0  0  0  0  0  0  0  0
   65.4109   33.0206   48.3016 H   0  0  0  0  0  0  0  0  0  0  0  0
   65.1579   32.7813   50.7991 H   0  0  0  0  0  0  0  0  0  0  0  0
   62.9274   33.1370   51.8795 H   0  0  0  0  0  0  0  0  0  0  0  0
   58.4842   34.0721   52.2140 H   0  0  0  0  0  0  0  0  0  0  0  0
   56.7330   32.3257   52.5245 H   0  0  0  0  0  0  0  0  0  0  0  0
   56.8366   30.2053   51.2203 H   0  0  0  0  0  0  0  0  0  0  0  0
   60.2617   29.6796   45.6821 H   0  0  0  0  0  0  0  0  0  0  0  0
   59.4293   28.5736   43.6160 H   0  0  0  0  0  0  0  0  0  0  0  0
   57.5947   26.8991   43.7395 H   0  0  0  0  0  0  0  0  0  0  0  0
   56.2815   24.2325   48.1026 H   0  0  0  0  0  0  0  0  0  0  0  0
   54.8578   23.8932   47.0613 H   0  0  0  0  0  0  0  0  0  0  0  0
   56.2588   22.7690   47.0613 H   0  0  0  0  0  0  0  0  0  0  0  0
   57.8333   23.0873   45.2947 H   0  0  0  0  0  0  0  0  0  0  0  0
   56.3719   23.4252   44.3064 H   0  0  0  0  0  0  0  0  0  0  0  0
   57.7439   24.5847   44.3064 H   0  0  0  0  0  0  0  0  0  0  0  0
   57.6412   27.1879   48.0603 H   0  0  0  0  0  0  0  0  0  0  0  0
   60.5619   31.4853   49.4256 H   0  0  0  0  0  0  0  0  0  0  0  0
   58.1429   31.6623   47.3584 H   0  0  0  0  0  0  0  0  0  0  0  0
  1  2  1  0
  2  3  1  0
  3  4  2  0
  4  5  1  0
  5  6  2  0
  6  7  1  0
  7  8  1  0
  8  9  1  0
  9 10  1  0
 10 11  2  0
 11 12  1  0
 12 13  2  0
 13 14  1  0
 14 15  2  0
 15 16  1  0
 16 17  1  0
 17 18  1  0
 18 19  2  0
 19 20  1  0
 20 21  2  0
 21 22  1  0
 22 23  1  0
 23 24  1  0
 24 25  2  0
 24 26  1  0
 26 27  2  0
 27 28  1  0
 28 29  2  0
 29 30  1  0
 30 31  1  0
 31 32  2  0
 31 33  1  0
 33 34  1  0
 33 35  1  0
 30 36  2  0
 22 37  2  0
 16 38  2  0
  7 39  2  0
 39  3  1  0
 38  9  1  0
 38 12  1  0
 37 18  1  0
 36 26  1  0
  1 40  1  0
  1 41  1  0
  1 42  1  0
  4 43  1  0
  5 44  1  0
  6 45  1  0
  8 46  1  0
  8 47  1  0
 10 48  1  0
 11 49  1  0
 13 50  1  0
 14 51  1  0
 15 52  1  0
 19 53  1  0
 20 54  1  0
 21 55  1  0
 27 56  1  0
 28 57  1  0
 29 58  1  0
 34 59  1  0
 34 60  1  0
 34 61  1  0
 35 62  1  0
 35 63  1  0
 35 64  1  0
 36 65  1  0
 37 66  1  0
 39 67  1  0
M  CHG  2  10   1  23  -1
M  END
>  <UniqueID>  (16) 
12

>  <SMILES>  (16) 
COc1cccc(Cn2[nH+]cc3cccc(Oc4cccc([N-]C(=O)c5cccc(C(=O)N(C)C)c5)c4)c32)c1

>  <Energy>  (16) 
122.9576999322724

>  <Genealogy>  (16) 
COc1cccc(Cn2[nH+]cc3cccc(Oc4cccc([N-]C(=O)c5cccc(C(=O)N(C)C)c5)c4)c32)c1 (protonated)
COc1cccc(Cn2[nH+]cc3cccc(Oc4cccc([N-]C(=O)c5cccc(C(=O)N(C)C)c5)c4)c32)c1 (3D coordinates assigned)
COc1cccc(Cn2[nH+]cc3cccc(Oc4cccc([N-]C(=O)c5cccc(C(=O)N(C)C)c5)c4)c32)c1 (optimized conformer: 122.9576999322724 kcal/mol)

>  <smiles>  (16) 
COc1cccc(Cn2ncc3cccc(Oc4cccc(NC(=O)c5cccc(C(=O)N(C)C)c5)c4)c32)c1

>  <score_type>  (16) 
oracle

>  <origin>  (16) 
adg

>  <m_score__min__energy>  (16) 
-11.119999999999999

>  <m_primary>  (16) 
energy

$$$$
16:0
     RDKit          3D

 47 49  0  0  0  0  0  0  0  0999 V2000
   64.5640   32.6000   46.7320 H   0  0  0  0  0  0  0  0  0  0  0  0
   63.6900   33.0670   46.6660 O   0  0  0  0  0  0  0  0  0  0  0  0
   62.8100   32.3890   47.5210 C   0  0  0  0  0  0  0  0  0  0  0  0
   62.9219   32.7799   48.5431 H   0  0  0  0  0  0  0  0  0  0  0  0
   63.0464   31.3148   47.5039 H   0  0  0  0  0  0  0  0  0  0  0  0
   61.3910   32.5890   47.0640 C   0  0  0  0  0  0  0  0  0  0  0  0
   61.0560   33.6900   46.2630 C   0  0  0  0  0  0  0  0  0  0  0  0
   61.8283   34.4251   45.9923 H   0  0  0  0  0  0  0  0  0  0  0  0
   59.7460   33.8580   45.8070 C   0  0  0  0  0  0  0  0  0  0  0  0
   59.4888   34.7354   45.1954 H   0  0  0  0  0  0  0  0  0  0  0  0
   58.7530   32.9120   46.1250 C   0  0  0  0  0  0  0  0  0  0  0  0
   57.3630   33.0810   45.6390 C   0  0  0  0  0  0  0  0  0  0  0  0
   56.7920   34.1970   45.7640 O   0  0  0  0  0  0  0  0  0  0  0  0
   56.6640   32.0250   44.9620 N   0  0  0  0  0  0  0  0  0  0  0  0
   57.0920   30.8050   44.8230 C   0  0  0  0  0  0  0  0  0  0  0  0
   57.0800   29.9200   45.8400 N   0  0  0  0  0  0  0  0  0  0  0  0
   57.5810   28.7100   45.4660 C   0  0  0  0  0  0  0  0  0  0  0  0
   57.9950   28.6310   44.1320 C   0  0  0  0  0  0  0  0  0  0  0  0
   57.7470   30.1350   43.4210 S   0  0  0  0  0  0  0  0  0  0  0  0
   58.5830   27.4620   43.3960 C   0  0  0  0  0  0  0  0  0  0  0  0
   58.6877   27.7511   42.3399 H   0  0  0  0  0  0  0  0  0  0  0  0
   59.5319   27.2447   43.9082 H   0  0  0  0  0  0  0  0  0  0  0  0
   57.7850   26.1440   43.4430 C   0  0  0  0  0  0  0  0  0  0  0  0
   56.7989   26.3473   42.9999 H   0  0  0  0  0  0  0  0  0  0  0  0
   58.4239   25.4272   42.9063 H   0  0  0  0  0  0  0  0  0  0  0  0
   57.5350   25.4640   44.8270 C   0  0  2  0  0  0  0  0  0  0  0  0
   58.5684   25.3563   45.1883 H   0  0  0  0  0  0  0  0  0  0  0  0
   57.0160   24.0570   44.7940 N   0  0  0  0  0  0  0  0  0  0  0  0
   56.2840   24.0330   44.0450 H   0  0  0  0  0  0  0  0  0  0  0  0
   58.0020   23.0160   44.4380 C   0  0  0  0  0  0  0  0  0  0  0  0
   58.4186   22.5762   45.3562 H   0  0  0  0  0  0  0  0  0  0  0  0
   57.5087   22.2307   43.8464 H   0  0  0  0  0  0  0  0  0  0  0  0
   58.8129   23.4660   43.8464 H   0  0  0  0  0  0  0  0  0  0  0  0
   56.3220   23.6850   46.0420 C   0  0  0  0  0  0  0  0  0  0  0  0
   56.9226   24.0069   46.9055 H   0  0  0  0  0  0  0  0  0  0  0  0
   55.3387   24.1770   46.0754 H   0  0  0  0  0  0  0  0  0  0  0  0
   56.1873   22.5938   46.0754 H   0  0  0  0  0  0  0  0  0  0  0  0
   56.8190   26.3570   45.8980 C   0  0  0  0  0  0  0  0  0  0  0  0
   55.8896   26.7379   45.4496 H   0  0  0  0  0  0  0  0  0  0  0  0
   56.6679   25.7045   46.7706 H   0  0  0  0  0  0  0  0  0  0  0  0
   57.6140   27.5610   46.4200 C   0  0  0  0  0  0  0  0  0  0  0  0
   57.1818   27.8831   47.3789 H   0  0  0  0  0  0  0  0  0  0  0  0
   58.6621   27.2495   46.5404 H   0  0  0  0  0  0  0  0  0  0  0  0
   59.0940   31.8110   46.9290 C   0  0  0  0  0  0  0  0  0  0  0  0
   58.3240   31.0738   47.2005 H   0  0  0  0  0  0  0  0  0  0  0  0
   60.4040   31.6460   47.3860 C   0  0  0  0  0  0  0  0  0  0  0  0
   60.6626   30.7719   48.0016 H   0  0  0  0  0  0  0  0  0  0  0  0
  1  2  1  0
  2  3  1  0
  3  4  1  0
  3  5  1  0
  3  6  1  0
  6  7  2  0
  7  8  1  0
  7  9  1  0
  9 10  1  0
  9 11  2  0
 11 12  1  0
 12 13  2  0
 12 14  1  0
 14 15  2  0
 15 16  1  0
 16 17  1  0
 17 18  2  0
 18 19  1  0
 18 20  1  0
 20 21  1  0
 20 22  1  0
 20 23  1  0
 23 24  1  0
 23 25  1  0
 23 26  1  0
 26 27  1  1
 26 28  1  0
 28 29  1  0
 28 30  1  0
 30 31  1  0
 30 32  1  0
 30 33  1  0
 28 34  1  0
 34 35  1  0
 34 36  1  0
 34 37  1  0
 26 38  1  0
 38 39  1  0
 38 40  1  0
 38 41  1  0
 41 42  1  0
 41 43  1  0
 11 44  1  0
 44 45  1  0
 44 46  2  0
 46 47  1  0
 46  6  1  0
 19 15  1  0
 41 17  1  0
M  CHG  2  16  -1  28   1
M  END
>  <UniqueID>  (17) 
13

>  <SMILES>  (17) 
C[NH+](C)[C@@H]1CCc2[n-]/c(=N/C(=O)c3ccc(CO)cc3)sc2CC1

>  <Energy>  (17) 
103.98817775514016

>  <Genealogy>  (17) 
C[NH+](C)C1CCc2[n-]c(=NC(=O)c3ccc(CO)cc3)sc2CC1 (protonated)
C[NH+](C)[C@@H]1CCc2[n-]c(=NC(=O)c3ccc(CO)cc3)sc2CC1 (chirality)
C[NH+](C)[C@@H]1CCc2[n-]/c(=N/C(=O)c3ccc(CO)cc3)sc2CC1 (cis-trans isomerization)
C[NH+](C)[C@@H]1CCc2[n-]/c(=N/C(=O)c3ccc(CO)cc3)sc2CC1 (3D coordinates assigned)
C[NH+](C)[C@@H]1CCc2[n-]/c(=N/C(=O)c3ccc(CO)cc3)sc2CC1 (nonaromatic ring conformer: 103.98817775514016 kcal/mol)

>  <smiles>  (17) 
CN(C)C1CCc2[nH]c(=NC(=O)c3ccc(CO)cc3)sc2CC1

>  <score_type>  (17) 
oracle

>  <origin>  (17) 
adg

>  <m_score__min__energy>  (17) 
-6.4800000000000004

>  <m_primary>  (17) 
energy

$$$$
17:0
     RDKit          3D

 27 27  0  0  0  0  0  0  0  0999 V2000
   58.7980   30.2500   45.1840 C   0  0  0  0  0  0  0  0  0  0  0  0
   57.6160   29.3130   45.1720 C   0  0  0  0  0  0  0  0  0  0  0  0
   57.7320   28.0390   45.4230 N   0  0  0  0  0  0  0  0  0  0  0  0
   58.0040   26.9870   44.4870 C   0  0  0  0  0  0  0  0  0  0  0  0
   58.0970   27.2760   43.2640 O   0  0  0  0  0  0  0  0  0  0  0  0
   57.9750   25.5390   44.9000 C   0  0  0  0  0  0  0  0  0  0  0  0
   57.1360   24.6870   43.9380 C   0  0  0  0  0  0  0  0  0  0  0  0
   55.8430   24.2500   44.5980 C   0  0  0  0  0  0  0  0  0  0  0  0
   55.1040   25.1040   45.4510 C   0  0  0  0  0  0  0  0  0  0  0  0
   55.5130   26.4050   45.7470 O   0  0  0  0  0  0  0  0  0  0  0  0
   53.9460   24.6590   46.0050 N   0  0  0  0  0  0  0  0  0  0  0  0
   53.4690   23.4170   45.7510 C   0  0  0  0  0  0  0  0  0  0  0  0
   52.3950   23.0350   46.2830 O   0  0  0  0  0  0  0  0  0  0  0  0
   54.1440   22.5880   44.9180 N   0  0  0  0  0  0  0  0  0  0  0  0
   55.3070   22.9720   44.3340 C   0  0  0  0  0  0  0  0  0  0  0  0
   55.8950   22.1740   43.5570 O   0  0  0  0  0  0  0  0  0  0  0  0
   56.2760   29.8410   44.8610 C   0  0  0  0  0  0  0  0  0  0  0  0
   56.1130   31.0590   44.5860 O   0  0  0  0  0  0  0  0  0  0  0  0
   55.1730   28.9950   44.8770 O   0  0  0  0  0  0  0  0  0  0  0  0
   59.0789   30.4726   46.2240 H   0  0  0  0  0  0  0  0  0  0  0  0
   59.6465   29.7765   44.6684 H   0  0  0  0  0  0  0  0  0  0  0  0
   58.5306   31.1842   44.6684 H   0  0  0  0  0  0  0  0  0  0  0  0
   59.0046   25.1519   44.9125 H   0  0  0  0  0  0  0  0  0  0  0  0
   57.5167   25.4780   45.8981 H   0  0  0  0  0  0  0  0  0  0  0  0
   56.9015   25.2797   43.0415 H   0  0  0  0  0  0  0  0  0  0  0  0
   57.7131   23.7917   43.6633 H   0  0  0  0  0  0  0  0  0  0  0  0
   55.8970   27.0410   45.0640 H   0  0  0  0  0  0  0  0  0  0  0  0
  1  2  1  0
  2  3  2  3
  3  4  1  0
  4  5  2  0
  4  6  1  0
  6  7  1  0
  7  8  1  0
  8  9  2  0
  9 10  1  0
  9 11  1  0
 11 12  1  0
 12 13  2  0
 12 14  1  0
 14 15  1  0
 15 16  2  0
  2 17  1  0
 17 18  2  0
 17 19  1  0
 15  8  1  0
  1 20  1  0
  1 21  1  0
  1 22  1  0
  6 23  1  0
  6 24  1  0
  7 25  1  0
  7 26  1  0
 10 27  1  0
M  CHG  3  11  -1  14  -1  19  -1
M  END
>  <UniqueID>  (18) 
14

>  <SMILES>  (18) 
CC(=NC(=O)CCc1c(O)[n-]c(=O)[n-]c1=O)C(=O)[O-]

>  <Energy>  (18) 
32.40080746278519

>  <Genealogy>  (18) 
CC(=NC(=O)CCc1c(O)[n-]c(=O)[n-]c1=O)C(=O)[O-] (protonated)
CC(=NC(=O)CCc1c(O)[n-]c(=O)[n-]c1=O)C(=O)[O-] (3D coordinates assigned)
CC(=NC(=O)CCc1c(O)[n-]c(=O)[n-]c1=O)C(=O)[O-] (optimized conformer: 32.40080746278519 kcal/mol)

>  <smiles>  (18) 
CC(=NC(=O)CCc1c(O)[nH]c(=O)[nH]c1=O)C(=O)O

>  <score_type>  (18) 
oracle

>  <origin>  (18) 
adg

>  <m_score__min__energy>  (18) 
-12.800000000000001

>  <m_primary>  (18) 
energy

$$$$
18:0
     RDKit          3D

 32 33  0  0  0  0  0  0  0  0999 V2000
   60.3910   25.7260   46.5290 C   0  0  0  0  0  0  0  0  0  0  0  0
   58.9120   25.9170   46.3740 C   0  0  0  0  0  0  0  0  0  0  0  0
   58.0190   24.9500   46.8610 C   0  0  0  0  0  0  0  0  0  0  0  0
   56.6410   25.1390   46.7380 C   0  0  0  0  0  0  0  0  0  0  0  0
   56.1380   26.3040   46.1480 C   0  0  0  0  0  0  0  0  0  0  0  0
   54.7640   26.4440   45.9880 O   0  0  0  0  0  0  0  0  0  0  0  0
   57.0230   27.3040   45.7020 C   0  0  0  0  0  0  0  0  0  0  0  0
   56.5420   28.5140   45.0970 N   0  0  0  0  0  0  0  0  0  0  0  0
   56.9970   28.9910   43.8220 C   0  0  0  0  0  0  0  0  0  0  0  0
   57.7660   28.2890   43.1130 O   0  0  0  0  0  0  0  0  0  0  0  0
   56.4890   30.2960   43.2860 C   0  0  0  0  0  0  0  0  0  0  0  0
   57.2310   31.4150   43.8900 N   0  0  0  0  0  0  0  0  0  0  0  0
   57.7200   32.4000   43.0760 C   0  0  0  0  0  0  0  0  0  0  0  0
   58.4520   33.4640   43.6030 C   0  0  0  0  0  0  0  0  0  0  0  0
   58.6950   33.5220   44.9740 C   0  0  0  0  0  0  0  0  0  0  0  0
   59.6210   34.8700   45.6190 Cl  0  0  0  0  0  0  0  0  0  0  0  0
   58.2040   32.5070   45.8060 C   0  0  0  0  0  0  0  0  0  0  0  0
   58.5020   32.5460   47.5430 Cl  0  0  0  0  0  0  0  0  0  0  0  0
   57.4710   31.4510   45.2420 C   0  0  0  0  0  0  0  0  0  0  0  0
   57.0370   30.5310   45.9910 O   0  0  0  0  0  0  0  0  0  0  0  0
   58.4060   27.0950   45.8030 C   0  0  0  0  0  0  0  0  0  0  0  0
   60.6464   25.6930   47.5984 H   0  0  0  0  0  0  0  0  0  0  0  0
   60.6908   24.7817   46.0511 H   0  0  0  0  0  0  0  0  0  0  0  0
   60.9209   26.5632   46.0511 H   0  0  0  0  0  0  0  0  0  0  0  0
   58.4062   24.0395   47.3416 H   0  0  0  0  0  0  0  0  0  0  0  0
   55.9477   24.3686   47.1065 H   0  0  0  0  0  0  0  0  0  0  0  0
   55.7140   28.9820   45.5290 H   0  0  0  0  0  0  0  0  0  0  0  0
   56.6231   30.3178   42.1944 H   0  0  0  0  0  0  0  0  0  0  0  0
   55.4221   30.3961   43.5344 H   0  0  0  0  0  0  0  0  0  0  0  0
   57.5337   32.3523   41.9930 H   0  0  0  0  0  0  0  0  0  0  0  0
   58.8355   34.2533   42.9398 H   0  0  0  0  0  0  0  0  0  0  0  0
   59.1012   27.8620   45.4310 H   0  0  0  0  0  0  0  0  0  0  0  0
  1  2  1  0
  2  3  2  0
  3  4  1  0
  4  5  2  0
  5  6  1  0
  5  7  1  0
  7  8  1  0
  8  9  1  0
  9 10  2  0
  9 11  1  0
 11 12  1  0
 12 13  1  0
 13 14  2  0
 14 15  1  0
 15 16  1  0
 15 17  2  0
 17 18  1  0
 17 19  1  0
 19 20  2  0
  7 21  2  0
 21  2  1  0
 19 12  1  0
  1 22  1  0
  1 23  1  0
  1 24  1  0
  3 25  1  0
  4 26  1  0
  8 27  1  0
 11 28  1  0
 11 29  1  0
 13 30  1  0
 14 31  1  0
 21 32  1  0
M  CHG  1   6  -1
M  END
>  <UniqueID>  (19) 
15

>  <SMILES>  (19) 
Cc1ccc([O-])c(NC(=O)Cn2ccc(Cl)c(Cl)c2=O)c1

>  <Energy>  (19) 
39.045098646323915

>  <Genealogy>  (19) 
Cc1ccc([O-])c(NC(=O)Cn2ccc(Cl)c(Cl)c2=O)c1 (protonated)
Cc1ccc([O-])c(NC(=O)Cn2ccc(Cl)c(Cl)c2=O)c1 (3D coordinates assigned)
Cc1ccc([O-])c(NC(=O)Cn2ccc(Cl)c(Cl)c2=O)c1 (optimized conformer: 39.045098646323915 kcal/mol)

>  <smiles>  (19) 
Cc1ccc(O)c(NC(=O)Cn2ccc(Cl)c(Cl)c2=O)c1

>  <score_type>  (19) 
oracle

>  <origin>  (19) 
adg

>  <m_score__min__energy>  (19) 
-11.710000000000001

>  <m_primary>  (19) 
energy

$$$$
19:0
     RDKit          3D

 29 30  0  0  0  0  0  0  0  0999 V2000
   56.2280   29.7080   44.8600 O   0  0  0  0  0  0  0  0  0  0  0  0
   57.2510   29.5880   44.1600 C   0  0  0  0  0  0  0  0  0  0  0  0
   57.4030   28.2910   43.4180 C   0  0  0  0  0  0  0  0  0  0  0  0
   58.3010   27.4140   44.2530 C   0  0  0  0  0  0  0  0  0  0  0  0
   59.2200   28.2030   45.0930 C   0  0  0  0  0  0  0  0  0  0  0  0
   60.2520   28.9960   44.7710 N   0  0  0  0  0  0  0  0  0  0  0  0
   60.7830   29.4970   45.8740 N   0  0  0  0  0  0  0  0  0  0  0  0
   60.1010   29.0340   46.9290 C   0  0  0  0  0  0  0  0  0  0  0  0
   60.3900   29.3770   48.5090 S   0  0  0  0  0  0  0  0  0  0  0  0
   59.1470   28.2410   46.4370 N   0  0  0  0  0  0  0  0  0  0  0  0
   58.2300   30.6060   44.0530 N   0  0  0  0  0  0  0  0  0  0  0  0
   58.2000   31.8530   44.6940 C   0  0  0  0  0  0  0  0  0  0  0  0
   57.7690   33.0310   44.1770 C   0  0  0  0  0  0  0  0  0  0  0  0
   57.7810   34.2130   44.8980 C   0  0  0  0  0  0  0  0  0  0  0  0
   58.2370   34.2520   46.1920 C   0  0  0  0  0  0  0  0  0  0  0  0
   58.6800   33.0500   46.7280 C   0  0  0  0  0  0  0  0  0  0  0  0
   59.3180   33.0560   48.5070 Br  0  0  0  0  0  0  0  0  0  0  0  0
   58.6660   31.8920   46.0140 C   0  0  0  0  0  0  0  0  0  0  0  0
   56.4213   27.8123   43.2873 H   0  0  0  0  0  0  0  0  0  0  0  0
   57.8312   28.4561   42.4183 H   0  0  0  0  0  0  0  0  0  0  0  0
   57.6766   26.7849   44.9044 H   0  0  0  0  0  0  0  0  0  0  0  0
   58.9076   26.8015   43.5696 H   0  0  0  0  0  0  0  0  0  0  0  0
   61.6040   30.1480   45.8950 H   0  0  0  0  0  0  0  0  0  0  0  0
   58.4570   27.7390   47.0300 H   0  0  0  0  0  0  0  0  0  0  0  0
   59.0510   30.3600   43.4170 H   0  0  0  0  0  0  0  0  0  0  0  0
   57.3947   33.0477   43.1428 H   0  0  0  0  0  0  0  0  0  0  0  0
   57.4185   35.1376   44.4251 H   0  0  0  0  0  0  0  0  0  0  0  0
   58.2508   35.1856   46.7735 H   0  0  0  0  0  0  0  0  0  0  0  0
   59.0287   30.9659   46.4839 H   0  0  0  0  0  0  0  0  0  0  0  0
  1  2  2  0
  2  3  1  0
  3  4  1  0
  4  5  1  0
  5  6  2  0
  6  7  1  0
  7  8  1  0
  8  9  2  0
  8 10  1  0
  2 11  1  0
 11 12  1  0
 12 13  2  0
 13 14  1  0
 14 15  2  0
 15 16  1  0
 16 17  1  0
 16 18  2  0
 10  5  1  0
 18 12  1  0
  3 19  1  0
  3 20  1  0
  4 21  1  0
  4 22  1  0
  7 23  1  0
 10 24  1  0
 11 25  1  0
 13 26  1  0
 14 27  1  0
 15 28  1  0
 18 29  1  0
M  END
>  <smiles>  (20) 
O=C(CCc1n[nH]c(=S)[nH]1)Nc1cccc(Br)c1

>  <score_type>  (20) 
oracle

>  <origin>  (20) 
adg

>  <m_score__min__energy>  (20) 
-7.5899999999999999

>  <m_primary>  (20) 
energy

$$$$
20:0
     RDKit          3D

 48 50  0  0  0  0  0  0  0  0999 V2000
   56.6930   29.4150   43.2500 C   0  0  0  0  0  0  0  0  0  0  0  0
   56.4720   30.6960   42.6730 O   0  0  0  0  0  0  0  0  0  0  0  0
   57.3900   31.7460   42.7910 C   0  0  0  0  0  0  0  0  0  0  0  0
   57.9100   32.2480   41.7560 O   0  0  0  0  0  0  0  0  0  0  0  0
   57.7500   32.2640   44.1290 C   0  0  0  0  0  0  0  0  0  0  0  0
   57.4290   33.5760   44.4940 C   0  0  0  0  0  0  0  0  0  0  0  0
   57.7650   34.0520   45.7580 C   0  0  0  0  0  0  0  0  0  0  0  0
   58.4250   33.2150   46.6610 C   0  0  0  0  0  0  0  0  0  0  0  0
   58.7170   33.6620   47.8040 O   0  0  0  0  0  0  0  0  0  0  0  0
   58.7490   31.9290   46.3030 N   0  0  0  0  0  0  0  0  0  0  0  0
   59.4150   31.0250   47.2570 C   0  0  0  0  0  0  0  0  0  0  0  0
   59.3840   29.6100   46.7420 C   0  0  0  0  0  0  0  0  0  0  0  0
   60.3510   29.1750   45.8220 C   0  0  0  0  0  0  0  0  0  0  0  0
   60.2910   27.8820   45.2990 C   0  0  0  0  0  0  0  0  0  0  0  0
   59.2690   27.0130   45.6890 C   0  0  0  0  0  0  0  0  0  0  0  0
   58.3060   27.4240   46.6180 C   0  0  0  0  0  0  0  0  0  0  0  0
   57.2570   26.5110   46.9710 N   0  0  0  0  0  0  0  0  0  0  0  0
   56.2110   26.0380   46.1090 C   0  0  0  0  0  0  0  0  0  0  0  0
   55.1480   26.7060   45.9950 O   0  0  0  0  0  0  0  0  0  0  0  0
   56.3670   24.7400   45.3960 C   0  0  0  0  0  0  0  0  0  0  0  0
   57.6390   24.3710   44.9120 C   0  0  0  0  0  0  0  0  0  0  0  0
   57.8240   23.1680   44.2320 C   0  0  0  0  0  0  0  0  0  0  0  0
   56.7460   22.3110   44.0220 C   0  0  0  0  0  0  0  0  0  0  0  0
   55.4790   22.6530   44.4930 C   0  0  0  0  0  0  0  0  0  0  0  0
   55.2710   23.8660   45.1830 C   0  0  0  0  0  0  0  0  0  0  0  0
   53.9980   24.2180   45.6620 O   0  0  0  0  0  0  0  0  0  0  0  0
   52.7820   24.0550   44.9400 C   0  0  0  0  0  0  0  0  0  0  0  0
   58.3540   28.7360   47.1260 C   0  0  0  0  0  0  0  0  0  0  0  0
   58.4150   31.4510   45.0640 C   0  0  0  0  0  0  0  0  0  0  0  0
   56.6784   29.4994   44.3467 H   0  0  0  0  0  0  0  0  0  0  0  0
   55.9007   28.7247   42.9248 H   0  0  0  0  0  0  0  0  0  0  0  0
   57.6708   29.0301   42.9248 H   0  0  0  0  0  0  0  0  0  0  0  0
   56.9099   34.2328   43.7804 H   0  0  0  0  0  0  0  0  0  0  0  0
   57.5118   35.0833   46.0449 H   0  0  0  0  0  0  0  0  0  0  0  0
   60.4604   31.3411   47.3877 H   0  0  0  0  0  0  0  0  0  0  0  0
   58.8861   31.0677   48.2206 H   0  0  0  0  0  0  0  0  0  0  0  0
   61.1583   29.8549   45.5123 H   0  0  0  0  0  0  0  0  0  0  0  0
   61.0507   27.5464   44.5777 H   0  0  0  0  0  0  0  0  0  0  0  0
   59.2208   25.9998   45.2635 H   0  0  0  0  0  0  0  0  0  0  0  0
   58.4964   25.0410   45.0730 H   0  0  0  0  0  0  0  0  0  0  0  0
   58.8228   22.8951   43.8607 H   0  0  0  0  0  0  0  0  0  0  0  0
   56.8945   21.3632   43.4839 H   0  0  0  0  0  0  0  0  0  0  0  0
   54.6331   21.9702   44.3249 H   0  0  0  0  0  0  0  0  0  0  0  0
   51.9475   23.9431   45.6478 H   0  0  0  0  0  0  0  0  0  0  0  0
   52.6101   24.9381   44.3071 H   0  0  0  0  0  0  0  0  0  0  0  0
   52.8488   23.1578   44.3071 H   0  0  0  0  0  0  0  0  0  0  0  0
   57.5798   29.0788   47.8282 H   0  0  0  0  0  0  0  0  0  0  0  0
   58.6708   30.4153   44.7960 H   0  0  0  0  0  0  0  0  0  0  0  0
  1  2  1  0
  2  3  1  0
  3  4  2  0
  3  5  1  0
  5  6  1  0
  6  7  2  0
  7  8  1  0
  8  9  2  0
  8 10  1  0
 10 11  1  0
 11 12  1  0
 12 13  2  0
 13 14  1  0
 14 15  2  0
 15 16  1  0
 16 17  1  0
 17 18  1  0
 18 19  2  0
 18 20  1  0
 20 21  2  0
 21 22  1  0
 22 23  2  0
 23 24  1  0
 24 25  2  0
 25 26  1  0
 26 27  1  0
 16 28  2  0
 10 29  1  0
 29  5  2  0
 28 12  1  0
 25 20  1  0
  1 30  1  0
  1 31  1  0
  1 32  1  0
  6 33  1  0
  7 34  1  0
 11 35  1  0
 11 36  1  0
 13 37  1  0
 14 38  1  0
 15 39  1  0
 21 40  1  0
 22 41  1  0
 23 42  1  0
 24 43  1  0
 27 44  1  0
 27 45  1  0
 27 46  1  0
 28 47  1  0
 29 48  1  0
M  CHG  1  17  -1
M  END
>  <UniqueID>  (21) 
16

>  <SMILES>  (21) 
COC(=O)c1ccc(=O)n(Cc2cccc([N-]C(=O)c3ccccc3OC)c2)c1

>  <Energy>  (21) 
55.97877132256993

>  <Genealogy>  (21) 
COC(=O)c1ccc(=O)n(Cc2cccc([N-]C(=O)c3ccccc3OC)c2)c1 (protonated)
COC(=O)c1ccc(=O)n(Cc2cccc([N-]C(=O)c3ccccc3OC)c2)c1 (3D coordinates assigned)
COC(=O)c1ccc(=O)n(Cc2cccc([N-]C(=O)c3ccccc3OC)c2)c1 (optimized conformer: 55.97877132256993 kcal/mol)

>  <smiles>  (21) 
COC(=O)c1ccc(=O)n(Cc2cccc(NC(=O)c3ccccc3OC)c2)c1

>  <score_type>  (21) 
oracle

>  <origin>  (21) 
adg

>  <m_score__min__energy>  (21) 
-10.49

>  <m_primary>  (21) 
energy

$$$$
21:0
     RDKit          3D

 40 41  0  0  0  0  0  0  0  0999 V2000
   59.0360   32.3210   46.6700 C   0  0  0  0  0  0  0  0  0  0  0  0
   58.2630   31.1700   46.3430 O   0  0  0  0  0  0  0  0  0  0  0  0
   57.7340   30.8990   45.0700 C   0  0  0  0  0  0  0  0  0  0  0  0
   57.7870   31.8460   44.0270 C   0  0  0  0  0  0  0  0  0  0  0  0
   57.2390   31.5500   42.7760 C   0  0  0  0  0  0  0  0  0  0  0  0
   56.6340   30.3140   42.5510 C   0  0  0  0  0  0  0  0  0  0  0  0
   56.5740   29.3670   43.5740 C   0  0  0  0  0  0  0  0  0  0  0  0
   57.1290   29.6460   44.8340 C   0  0  0  0  0  0  0  0  0  0  0  0
   57.0200   28.6300   45.9390 C   0  0  0  0  0  0  0  0  0  0  0  0
   55.9600   27.6810   45.6190 N   0  0  0  0  0  0  0  0  0  0  0  0
   56.0600   26.2560   45.7390 C   0  0  0  0  0  0  0  0  0  0  0  0
   55.1560   25.6360   46.3550 O   0  0  0  0  0  0  0  0  0  0  0  0
   57.2000   25.4740   45.1460 C   0  0  0  0  0  0  0  0  0  0  0  0
   58.3210   24.8850   46.4620 S   0  0  0  0  0  0  0  0  0  0  0  0
   59.1280   26.4670   46.6840 C   0  0  0  0  0  0  0  0  0  0  0  0
   59.7660   27.0550   45.6400 N   0  0  0  0  0  0  0  0  0  0  0  0
   60.3750   28.2630   45.7800 C   0  0  0  0  0  0  0  0  0  0  0  0
   61.1010   28.8680   44.6220 C   0  0  0  0  0  0  0  0  0  0  0  0
   60.3530   28.9060   47.0210 C   0  0  0  0  0  0  0  0  0  0  0  0
   59.6930   28.2870   48.0850 C   0  0  0  0  0  0  0  0  0  0  0  0
   59.6630   28.9290   49.4360 C   0  0  0  0  0  0  0  0  0  0  0  0
   59.1030   27.0770   47.8970 N   0  0  0  0  0  0  0  0  0  0  0  0
   59.1022   32.4196   47.7636 H   0  0  0  0  0  0  0  0  0  0  0  0
   60.0469   32.2153   46.2495 H   0  0  0  0  0  0  0  0  0  0  0  0
   58.5557   33.2168   46.2495 H   0  0  0  0  0  0  0  0  0  0  0  0
   58.2622   32.8231   44.1988 H   0  0  0  0  0  0  0  0  0  0  0  0
   57.2850   32.2938   41.9669 H   0  0  0  0  0  0  0  0  0  0  0  0
   56.2032   30.0851   41.5651 H   0  0  0  0  0  0  0  0  0  0  0  0
   56.0893   28.3963   43.3928 H   0  0  0  0  0  0  0  0  0  0  0  0
   57.9750   28.0936   46.0404 H   0  0  0  0  0  0  0  0  0  0  0  0
   56.7852   29.1390   46.8854 H   0  0  0  0  0  0  0  0  0  0  0  0
   56.7993   24.6090   44.5972 H   0  0  0  0  0  0  0  0  0  0  0  0
   57.7635   26.1270   44.4633 H   0  0  0  0  0  0  0  0  0  0  0  0
   61.8964   29.5308   44.9937 H   0  0  0  0  0  0  0  0  0  0  0  0
   61.5455   28.0693   44.0101 H   0  0  0  0  0  0  0  0  0  0  0  0
   60.3955   29.4492   44.0101 H   0  0  0  0  0  0  0  0  0  0  0  0
   60.8457   29.8801   47.1569 H   0  0  0  0  0  0  0  0  0  0  0  0
   59.6994   28.1508   50.2126 H   0  0  0  0  0  0  0  0  0  0  0  0
   60.5310   29.5960   49.5444 H   0  0  0  0  0  0  0  0  0  0  0  0
   58.7366   29.5122   49.5444 H   0  0  0  0  0  0  0  0  0  0  0  0
  1  2  1  0
  2  3  1  0
  3  4  2  0
  4  5  1  0
  5  6  2  0
  6  7  1  0
  7  8  2  0
  8  9  1  0
  9 10  1  0
 10 11  1  0
 11 12  2  0
 11 13  1  0
 13 14  1  0
 14 15  1  0
 15 16  2  0
 16 17  1  0
 17 18  1  0
 17 19  2  0
 19 20  1  0
 20 21  1  0
 20 22  2  0
  8  3  1  0
 22 15  1  0
  1 23  1  0
  1 24  1  0
  1 25  1  0
  4 26  1  0
  5 27  1  0
  6 28  1  0
  7 29  1  0
  9 30  1  0
  9 31  1  0
 13 32  1  0
 13 33  1  0
 18 34  1  0
 18 35  1  0
 18 36  1  0
 19 37  1  0
 21 38  1  0
 21 39  1  0
 21 40  1  0
M  CHG  1  10  -1
M  END
>  <UniqueID>  (22) 
17

>  <SMILES>  (22) 
COc1ccccc1C[N-]C(=O)CSc1nc(C)cc(C)n1

>  <Energy>  (22) 
28.930008116802814

>  <Genealogy>  (22) 
COc1ccccc1C[N-]C(=O)CSc1nc(C)cc(C)n1 (protonated)
COc1ccccc1C[N-]C(=O)CSc1nc(C)cc(C)n1 (3D coordinates assigned)
COc1ccccc1C[N-]C(=O)CSc1nc(C)cc(C)n1 (optimized conformer: 28.930008116802814 kcal/mol)

>  <smiles>  (22) 
COc1ccccc1CNC(=O)CSc1nc(C)cc(C)n1

>  <score_type>  (22) 
oracle

>  <origin>  (22) 
adg

>  <m_score__min__energy>  (22) 
-9.4499999999999993

>  <m_primary>  (22) 
energy

$$$$
22:0
     RDKit          3D

 38 39  0  0  0  0  0  0  0  0999 V2000
   57.9741   33.9699   46.3031 H   0  0  0  0  0  0  0  0  0  0  0  0
   57.8230   33.2560   45.4800 C   0  0  0  0  0  0  0  0  0  0  0  0
   57.0470   32.1970   45.5300 O   0  0  0  0  0  0  0  0  0  0  0  0
   57.1030   31.5780   44.3730 C   0  0  0  0  0  0  0  0  0  0  0  0
   56.3550   30.3500   44.0510 C   0  0  0  0  0  0  0  0  0  0  0  0
   55.7180   29.7320   44.9990 N   0  0  0  0  0  0  0  0  0  0  0  0
   55.9120   28.3940   45.2610 O   0  0  0  0  0  0  0  0  0  0  0  0
   57.1970   27.8070   45.1140 C   0  0  0  0  0  0  0  0  0  0  0  0
   57.1107   26.7135   45.1969 H   0  0  0  0  0  0  0  0  0  0  0  0
   57.6072   28.0725   44.1285 H   0  0  0  0  0  0  0  0  0  0  0  0
   58.1120   28.3160   46.1840 C   0  0  0  0  0  0  0  0  0  0  0  0
   58.9400   27.5280   46.7180 O   0  0  0  0  0  0  0  0  0  0  0  0
   58.0610   29.6970   46.5740 N   0  0  0  0  0  0  0  0  0  0  0  0
   57.1770   30.2240   46.3900 H   0  0  0  0  0  0  0  0  0  0  0  0
   59.1400   30.3890   47.2220 C   0  0  0  0  0  0  0  0  0  0  0  0
   58.8580   31.4720   48.0600 C   0  0  0  0  0  0  0  0  0  0  0  0
   57.8129   31.7646   48.2391 H   0  0  0  0  0  0  0  0  0  0  0  0
   59.8910   32.1860   48.6720 C   0  0  0  0  0  0  0  0  0  0  0  0
   59.6503   33.0236   49.3431 H   0  0  0  0  0  0  0  0  0  0  0  0
   61.2360   31.8450   48.4390 C   0  0  0  0  0  0  0  0  0  0  0  0
   62.3220   32.6230   49.0980 C   0  0  0  0  0  0  0  0  0  0  0  0
   62.1530   33.0550   50.2710 O   0  0  0  0  0  0  0  0  0  0  0  0
   63.6360   32.8990   48.4270 C   0  0  0  0  0  0  0  0  0  0  0  0
   64.2501   33.5384   49.0782 H   0  0  0  0  0  0  0  0  0  0  0  0
   64.1539   31.9462   48.2429 H   0  0  0  0  0  0  0  0  0  0  0  0
   63.3430   33.7980   46.7390 Br  0  0  0  0  0  0  0  0  0  0  0  0
   61.5180   30.7650   47.5800 C   0  0  0  0  0  0  0  0  0  0  0  0
   62.5628   30.4826   47.3836 H   0  0  0  0  0  0  0  0  0  0  0  0
   60.4810   30.0490   46.9750 C   0  0  0  0  0  0  0  0  0  0  0  0
   60.7165   29.2128   46.3002 H   0  0  0  0  0  0  0  0  0  0  0  0
   56.3160   29.8310   42.6410 C   0  0  0  0  0  0  0  0  0  0  0  0
   56.2336   28.7342   42.6562 H   0  0  0  0  0  0  0  0  0  0  0  0
   55.4473   30.2568   42.1175 H   0  0  0  0  0  0  0  0  0  0  0  0
   57.2386   30.1222   42.1175 H   0  0  0  0  0  0  0  0  0  0  0  0
   57.9570   32.2550   43.5210 C   0  0  0  0  0  0  0  0  0  0  0  0
   58.2134   31.9856   42.4858 H   0  0  0  0  0  0  0  0  0  0  0  0
   58.4200   33.3370   44.2380 C   0  0  0  0  0  0  0  0  0  0  0  0
   59.1228   34.1088   43.8909 H   0  0  0  0  0  0  0  0  0  0  0  0
  1  2  1  0
  2  3  1  0
  3  4  1  0
  4  5  1  0
  5  6  2  0
  6  7  1  0
  7  8  1  0
  8  9  1  0
  8 10  1  0
  8 11  1  0
 11 12  2  0
 11 13  1  0
 13 14  1  0
 13 15  1  0
 15 16  2  0
 16 17  1  0
 16 18  1  0
 18 19  1  0
 18 20  2  0
 20 21  1  0
 21 22  2  0
 21 23  1  0
 23 24  1  0
 23 25  1  0
 23 26  1  0
 20 27  1  0
 27 28  1  0
 27 29  2  0
 29 30  1  0
  5 31  1  0
 31 32  1  0
 31 33  1  0
 31 34  1  0
  4 35  2  0
 35 36  1  0
 35 37  1  0
 37 38  1  0
 37  2  2  0
 29 15  1  0
M  END
>  <UniqueID>  (23) 
18

>  <SMILES>  (23) 
C/C(=N\OCC(=O)Nc1ccc(C(=O)CBr)cc1)c1ccco1

>  <Energy>  (23) 
61.54326117765675

>  <Genealogy>  (23) 
C/C(=N\OCC(=O)Nc1ccc(C(=O)CBr)cc1)c1ccco1 (cis-trans isomerization)
C/C(=N\OCC(=O)Nc1ccc(C(=O)CBr)cc1)c1ccco1 (3D coordinates assigned)
C/C(=N\OCC(=O)Nc1ccc(C(=O)CBr)cc1)c1ccco1 (optimized conformer: 61.54326117765675 kcal/mol)

>  <smiles>  (23) 
CC(=NOCC(=O)Nc1ccc(C(=O)CBr)cc1)c1ccco1

>  <score_type>  (23) 
oracle

>  <origin>  (23) 
adg

>  <m_score__min__energy>  (23) 
-7.0800000000000001

>  <m_primary>  (23) 
energy

$$$$
23:0
     RDKit          3D

 43 46  0  0  0  0  0  0  0  0999 V2000
   61.1070   30.3420   48.2420 C   0  0  0  0  0  0  0  0  0  0  0  0
   60.5780   31.0080   49.4270 N   0  0  0  0  0  0  0  0  0  0  0  0
   59.3000   30.9660   49.7720 N   0  0  0  0  0  0  0  0  0  0  0  0
   59.1600   31.6660   50.9150 C   0  0  0  0  0  0  0  0  0  0  0  0
   60.3860   32.1600   51.3120 C   0  0  0  0  0  0  0  0  0  0  0  0
   61.2660   31.7200   50.3460 C   0  0  0  0  0  0  0  0  0  0  0  0
   62.7220   31.9770   50.3300 C   0  0  0  0  0  0  0  0  0  0  0  0
   63.5950   30.9660   50.7640 C   0  0  0  0  0  0  0  0  0  0  0  0
   64.9660   31.2120   50.8690 C   0  0  0  0  0  0  0  0  0  0  0  0
   65.7990   30.2310   51.2960 F   0  0  0  0  0  0  0  0  0  0  0  0
   65.4770   32.4730   50.5570 C   0  0  0  0  0  0  0  0  0  0  0  0
   64.6210   33.4850   50.1190 C   0  0  0  0  0  0  0  0  0  0  0  0
   63.2490   33.2440   49.9730 C   0  0  0  0  0  0  0  0  0  0  0  0
   62.4480   34.2800   49.4660 O   0  0  0  0  0  0  0  0  0  0  0  0
   61.4380   34.1130   48.5050 C   0  0  0  0  0  0  0  0  0  0  0  0
   60.1490   34.5640   48.8170 C   0  0  0  0  0  0  0  0  0  0  0  0
   59.0910   34.3610   47.9300 C   0  0  0  0  0  0  0  0  0  0  0  0
   59.3150   33.7260   46.7020 C   0  0  0  0  0  0  0  0  0  0  0  0
   57.9860   33.4130   45.5920 S   0  0  0  0  0  0  0  0  0  0  0  0
   56.6710   33.3790   46.3220 O   0  0  0  0  0  0  0  0  0  0  0  0
   57.9350   34.5060   44.5620 O   0  0  0  0  0  0  0  0  0  0  0  0
   58.2490   31.8940   44.8010 N   0  0  0  0  0  0  0  0  0  0  0  0
   57.3960   30.9190   44.8490 C   0  0  0  0  0  0  0  0  0  0  0  0
   56.1660   30.9380   44.2940 N   0  0  0  0  0  0  0  0  0  0  0  0
   55.5120   29.7560   44.5140 C   0  0  0  0  0  0  0  0  0  0  0  0
   56.1680   28.7970   45.2260 N   0  0  0  0  0  0  0  0  0  0  0  0
   57.6470   29.4620   45.5960 S   0  0  0  0  0  0  0  0  0  0  0  0
   60.6090   33.3140   46.3600 C   0  0  0  0  0  0  0  0  0  0  0  0
   61.6760   33.5150   47.2450 C   0  0  0  0  0  0  0  0  0  0  0  0
   63.0030   33.1490   46.8190 C   0  0  0  0  0  0  0  0  0  0  0  0
   64.0680   32.8550   46.4750 N   0  0  0  0  0  0  0  0  0  0  0  0
   61.7640   29.5148   48.5488 H   0  0  0  0  0  0  0  0  0  0  0  0
   60.2747   29.9458   47.6418 H   0  0  0  0  0  0  0  0  0  0  0  0
   61.6813   31.0631   47.6418 H   0  0  0  0  0  0  0  0  0  0  0  0
   58.2117   31.8203   51.4507 H   0  0  0  0  0  0  0  0  0  0  0  0
   60.6108   32.7686   52.2003 H   0  0  0  0  0  0  0  0  0  0  0  0
   63.1965   29.9740   51.0229 H   0  0  0  0  0  0  0  0  0  0  0  0
   66.5548   32.6693   50.6563 H   0  0  0  0  0  0  0  0  0  0  0  0
   65.0275   34.4803   49.8865 H   0  0  0  0  0  0  0  0  0  0  0  0
   59.9691   35.0830   49.7700 H   0  0  0  0  0  0  0  0  0  0  0  0
   58.0790   34.7004   48.1959 H   0  0  0  0  0  0  0  0  0  0  0  0
   54.4951   29.5865   44.1305 H   0  0  0  0  0  0  0  0  0  0  0  0
   60.7888   32.8290   45.3892 H   0  0  0  0  0  0  0  0  0  0  0  0
  1  2  1  0
  2  3  1  0
  3  4  2  0
  4  5  1  0
  5  6  2  0
  6  7  1  0
  7  8  2  0
  8  9  1  0
  9 10  1  0
  9 11  2  0
 11 12  1  0
 12 13  2  0
 13 14  1  0
 14 15  1  0
 15 16  2  0
 16 17  1  0
 17 18  2  0
 18 19  1  0
 19 20  2  0
 19 21  2  0
 19 22  1  0
 22 23  2  3
 23 24  1  0
 24 25  2  0
 25 26  1  0
 26 27  1  0
 18 28  1  0
 28 29  2  0
 29 30  1  0
 30 31  3  0
  6  2  1  0
 13  7  1  0
 29 15  1  0
 27 23  1  0
  1 32  1  0
  1 33  1  0
  1 34  1  0
  4 35  1  0
  5 36  1  0
  8 37  1  0
 11 38  1  0
 12 39  1  0
 16 40  1  0
 17 41  1  0
 25 42  1  0
 28 43  1  0
M  CHG  1  26  -1
M  END
>  <UniqueID>  (24) 
19

>  <SMILES>  (24) 
Cn1nccc1-c1cc(F)ccc1Oc1ccc(S(=O)(=O)N=c2nc[n-]s2)cc1C#N

>  <Energy>  (24) 
128.62829643000535

>  <Genealogy>  (24) 
Cn1nccc1-c1cc(F)ccc1Oc1ccc(S(=O)(=O)N=c2nc[n-]s2)cc1C#N (protonated)
Cn1nccc1-c1cc(F)ccc1Oc1ccc(S(=O)(=O)N=c2nc[n-]s2)cc1C#N (3D coordinates assigned)
Cn1nccc1-c1cc(F)ccc1Oc1ccc(S(=O)(=O)N=c2nc[n-]s2)cc1C#N (optimized conformer: 128.62829643000535 kcal/mol)

>  <smiles>  (24) 
Cn1nccc1-c1cc(F)ccc1Oc1ccc(S(=O)(=O)N=c2nc[nH]s2)cc1C#N

>  <score_type>  (24) 
oracle

>  <origin>  (24) 
adg

>  <m_score__min__energy>  (24) 
-10.24

>  <m_primary>  (24) 
energy

$$$$
24:0
     RDKit          3D

 41 43  0  0  0  0  0  0  0  0999 V2000
   54.7420   29.6790   43.4180 O   0  0  0  0  0  0  0  0  0  0  0  0
   55.7220   29.7290   44.2070 C   0  0  0  0  0  0  0  0  0  0  0  0
   55.8730   28.6690   45.1660 N   0  0  0  0  0  0  0  0  0  0  0  0
   56.9670   27.7090   45.2850 C   0  0  0  0  0  0  0  0  0  0  0  0
   56.6350   26.5920   46.2800 C   0  0  0  0  0  0  0  0  0  0  0  0
   55.2380   26.1820   46.1800 N   0  0  0  0  0  0  0  0  0  0  0  0
   54.8080   24.9310   45.6270 C   0  0  0  0  0  0  0  0  0  0  0  0
   53.5850   24.6290   45.6600 O   0  0  0  0  0  0  0  0  0  0  0  0
   55.8040   24.0110   45.0080 C   0  0  0  0  0  0  0  0  0  0  0  0
   55.7500   23.7780   43.6190 C   0  0  0  0  0  0  0  0  0  0  0  0
   56.6460   22.9020   43.0040 C   0  0  0  0  0  0  0  0  0  0  0  0
   57.6170   22.2520   43.7600 C   0  0  0  0  0  0  0  0  0  0  0  0
   57.6950   22.4700   45.1350 C   0  0  0  0  0  0  0  0  0  0  0  0
   56.7850   23.3320   45.7760 C   0  0  0  0  0  0  0  0  0  0  0  0
   56.8800   23.5460   47.1930 N   0  0  0  0  0  0  0  0  0  0  0  0
   56.4040   22.6610   48.2150 C   0  0  0  0  0  0  0  0  0  0  0  0
   57.2390   22.0720   48.9490 O   0  0  0  0  0  0  0  0  0  0  0  0
   54.9660   22.4690   48.4780 C   0  0  0  0  0  0  0  0  0  0  0  0
   53.9890   22.1720   47.5460 C   0  0  0  0  0  0  0  0  0  0  0  0
   52.8070   22.1120   48.2500 C   0  0  0  0  0  0  0  0  0  0  0  0
   53.1300   22.3820   49.5640 C   0  0  0  0  0  0  0  0  0  0  0  0
   54.4220   22.5940   49.6670 O   0  0  0  0  0  0  0  0  0  0  0  0
   56.6520   30.8740   44.1040 C   0  0  0  0  0  0  0  0  0  0  0  0
   57.3420   31.2380   42.9630 C   0  0  0  0  0  0  0  0  0  0  0  0
   58.1020   32.3330   43.3120 C   0  0  0  0  0  0  0  0  0  0  0  0
   57.8260   32.5770   44.6410 C   0  0  0  0  0  0  0  0  0  0  0  0
   56.9620   31.6930   45.0820 O   0  0  0  0  0  0  0  0  0  0  0  0
   57.1581   27.2622   44.2982 H   0  0  0  0  0  0  0  0  0  0  0  0
   57.8544   28.2443   45.6539 H   0  0  0  0  0  0  0  0  0  0  0  0
   57.2777   25.7243   46.0702 H   0  0  0  0  0  0  0  0  0  0  0  0
   56.8100   26.9734   47.2968 H   0  0  0  0  0  0  0  0  0  0  0  0
   54.9916   24.2934   43.0114 H   0  0  0  0  0  0  0  0  0  0  0  0
   56.5845   22.7251   41.9201 H   0  0  0  0  0  0  0  0  0  0  0  0
   58.3241   21.5651   43.2720 H   0  0  0  0  0  0  0  0  0  0  0  0
   58.4742   21.9641   45.7239 H   0  0  0  0  0  0  0  0  0  0  0  0
   54.1272   22.0160   46.4659 H   0  0  0  0  0  0  0  0  0  0  0  0
   51.8074   21.8931   47.8464 H   0  0  0  0  0  0  0  0  0  0  0  0
   52.4141   22.4147   50.3985 H   0  0  0  0  0  0  0  0  0  0  0  0
   57.2941   30.7524   41.9771 H   0  0  0  0  0  0  0  0  0  0  0  0
   58.7884   32.8971   42.6634 H   0  0  0  0  0  0  0  0  0  0  0  0
   58.2635   33.3891   45.2403 H   0  0  0  0  0  0  0  0  0  0  0  0
  1  2  2  0
  2  3  1  0
  3  4  1  0
  4  5  1  0
  5  6  1  0
  6  7  1  0
  7  8  2  0
  7  9  1  0
  9 10  2  0
 10 11  1  0
 11 12  2  0
 12 13  1  0
 13 14  2  0
 14 15  1  0
 15 16  1  0
 16 17  2  0
 16 18  1  0
 18 19  2  0
 19 20  1  0
 20 21  2  0
 21 22  1  0
  2 23  1  0
 23 24  2  0
 24 25  1  0
 25 26  2  0
 26 27  1  0
 14  9  1  0
 22 18  1  0
 27 23  1  0
  4 28  1  0
  4 29  1  0
  5 30  1  0
  5 31  1  0
 10 32  1  0
 11 33  1  0
 12 34  1  0
 13 35  1  0
 19 36  1  0
 20 37  1  0
 21 38  1  0
 24 39  1  0
 25 40  1  0
 26 41  1  0
M  CHG  3   3  -1   6  -1  15  -1
M  END
>  <UniqueID>  (25) 
20

>  <SMILES>  (25) 
O=C([N-]CC[N-]C(=O)c1ccccc1[N-]C(=O)c1ccco1)c1ccco1

>  <Energy>  (25) 
97.60546178289069

>  <Genealogy>  (25) 
O=C([N-]CC[N-]C(=O)c1ccccc1[N-]C(=O)c1ccco1)c1ccco1 (protonated)
O=C([N-]CC[N-]C(=O)c1ccccc1[N-]C(=O)c1ccco1)c1ccco1 (3D coordinates assigned)
O=C([N-]CC[N-]C(=O)c1ccccc1[N-]C(=O)c1ccco1)c1ccco1 (optimized conformer: 97.60546178289069 kcal/mol)

>  <smiles>  (25) 
O=C(NCCNC(=O)c1ccccc1NC(=O)c1ccco1)c1ccco1

>  <score_type>  (25) 
oracle

>  <origin>  (25) 
adg

>  <m_score__min__energy>  (25) 
-13.77

>  <m_primary>  (25) 
energy

$$$$
25:0
     RDKit          3D

 42 43  0  0  0  0  0  0  0  0999 V2000
   59.5020   29.3360   45.5460 C   0  0  0  0  0  0  0  0  0  0  0  0
   58.4460   29.7530   46.5620 C   0  0  0  0  0  0  0  0  0  0  0  0
   57.4700   30.6010   45.9560 O   0  0  0  0  0  0  0  0  0  0  0  0
   57.3960   30.9280   44.5910 C   0  0  0  0  0  0  0  0  0  0  0  0
   56.7220   30.1110   43.6590 C   0  0  0  0  0  0  0  0  0  0  0  0
   56.6800   30.4660   42.3090 C   0  0  0  0  0  0  0  0  0  0  0  0
   57.3160   31.6260   41.8700 C   0  0  0  0  0  0  0  0  0  0  0  0
   57.9880   32.4420   42.7810 C   0  0  0  0  0  0  0  0  0  0  0  0
   58.0200   32.1120   44.1480 C   0  0  0  0  0  0  0  0  0  0  0  0
   58.7220   32.9420   45.0890 N   0  0  0  0  0  0  0  0  0  0  0  0
   58.1350   34.0780   45.7470 C   0  0  0  0  0  0  0  0  0  0  0  0
   56.9060   34.3290   45.6210 O   0  0  0  0  0  0  0  0  0  0  0  0
   58.9720   34.9460   46.6410 C   0  0  0  0  0  0  0  0  0  0  0  0
   59.6210   34.1480   47.7790 C   0  0  0  0  0  0  0  0  0  0  0  0
   61.0470   33.2020   47.2430 S   0  0  0  0  0  0  0  0  0  0  0  0
   60.6540   31.7600   47.0940 O   0  0  0  0  0  0  0  0  0  0  0  0
   61.4980   33.7220   45.9050 O   0  0  0  0  0  0  0  0  0  0  0  0
   62.3670   33.3140   48.4060 C   0  0  0  0  0  0  0  0  0  0  0  0
   62.2470   34.1260   49.5430 C   0  0  0  0  0  0  0  0  0  0  0  0
   63.2950   34.2040   50.4660 C   0  0  0  0  0  0  0  0  0  0  0  0
   64.4700   33.4790   50.2530 C   0  0  0  0  0  0  0  0  0  0  0  0
   64.6010   32.6780   49.1140 C   0  0  0  0  0  0  0  0  0  0  0  0
   63.5540   32.5980   48.1900 C   0  0  0  0  0  0  0  0  0  0  0  0
   60.3994   28.9816   46.0743 H   0  0  0  0  0  0  0  0  0  0  0  0
   59.1046   28.5273   44.9151 H   0  0  0  0  0  0  0  0  0  0  0  0
   59.7644   30.1980   44.9151 H   0  0  0  0  0  0  0  0  0  0  0  0
   57.9489   28.8542   46.9558 H   0  0  0  0  0  0  0  0  0  0  0  0
   58.9374   30.3051   47.3767 H   0  0  0  0  0  0  0  0  0  0  0  0
   56.2267   29.1890   43.9976 H   0  0  0  0  0  0  0  0  0  0  0  0
   56.1438   29.8287   41.5904 H   0  0  0  0  0  0  0  0  0  0  0  0
   57.2882   31.8984   40.8046 H   0  0  0  0  0  0  0  0  0  0  0  0
   58.4969   33.3508   42.4272 H   0  0  0  0  0  0  0  0  0  0  0  0
   59.6820   32.6520   45.3830 H   0  0  0  0  0  0  0  0  0  0  0  0
   59.7649   35.4142   46.0393 H   0  0  0  0  0  0  0  0  0  0  0  0
   58.3128   35.7026   47.0916 H   0  0  0  0  0  0  0  0  0  0  0  0
   59.9404   34.8507   48.5627 H   0  0  0  0  0  0  0  0  0  0  0  0
   58.8715   33.4336   48.1504 H   0  0  0  0  0  0  0  0  0  0  0  0
   61.3257   34.7035   49.7095 H   0  0  0  0  0  0  0  0  0  0  0  0
   63.1939   34.8366   51.3602 H   0  0  0  0  0  0  0  0  0  0  0  0
   65.2923   33.5381   50.9812 H   0  0  0  0  0  0  0  0  0  0  0  0
   65.5280   32.1106   48.9447 H   0  0  0  0  0  0  0  0  0  0  0  0
   63.6615   31.9722   47.2918 H   0  0  0  0  0  0  0  0  0  0  0  0
  1  2  1  0
  2  3  1  0
  3  4  1  0
  4  5  2  0
  5  6  1  0
  6  7  2  0
  7  8  1  0
  8  9  2  0
  9 10  1  0
 10 11  1  0
 11 12  2  0
 11 13  1  0
 13 14  1  0
 14 15  1  0
 15 16  2  0
 15 17  2  0
 15 18  1  0
 18 19  2  0
 19 20  1  0
 20 21  2  0
 21 22  1  0
 22 23  2  0
  9  4  1  0
 23 18  1  0
  1 24  1  0
  1 25  1  0
  1 26  1  0
  2 27  1  0
  2 28  1  0
  5 29  1  0
  6 30  1  0
  7 31  1  0
  8 32  1  0
 10 33  1  0
 13 34  1  0
 13 35  1  0
 14 36  1  0
 14 37  1  0
 19 38  1  0
 20 39  1  0
 21 40  1  0
 22 41  1  0
 23 42  1  0
M  END
>  <UniqueID>  (26) 
21

>  <SMILES>  (26) 
CCOc1ccccc1NC(=O)CCS(=O)(=O)c1ccccc1

>  <Energy>  (26) 
35.964938786600534

>  <Genealogy>  (26) 
CCOc1ccccc1NC(=O)CCS(=O)(=O)c1ccccc1 (3D coordinates assigned)
CCOc1ccccc1NC(=O)CCS(=O)(=O)c1ccccc1 (optimized conformer: 35.964938786600534 kcal/mol)

>  <smiles>  (26) 
CCOc1ccccc1NC(=O)CCS(=O)(=O)c1ccccc1

>  <score_type>  (26) 
oracle

>  <origin>  (26) 
adg

>  <m_score__min__energy>  (26) 
-7.7599999999999998

>  <m_primary>  (26) 
energy

$$$$
26:0
     RDKit          3D

 23 24  0  0  0  0  0  0  0  0999 V2000
   57.7988   32.0886   41.2839 H   0  0  0  0  0  0  0  0  0  0  0  0
   57.6820   31.9880   42.3730 C   0  0  0  0  0  0  0  0  0  0  0  0
   58.2080   32.9630   43.2240 C   0  0  0  0  0  0  0  0  0  0  0  0
   58.7471   33.8253   42.8047 H   0  0  0  0  0  0  0  0  0  0  0  0
   58.0500   32.8440   44.6080 C   0  0  0  0  0  0  0  0  0  0  0  0
   58.7520   34.1890   45.7690 Br  0  0  0  0  0  0  0  0  0  0  0  0
   57.3750   31.7410   45.1410 C   0  0  0  0  0  0  0  0  0  0  0  0
   57.2379   31.6586   46.2293 H   0  0  0  0  0  0  0  0  0  0  0  0
   56.8720   30.7400   44.2990 C   0  0  0  0  0  0  0  0  0  0  0  0
   56.1540   29.6410   44.8860 N   0  0  0  0  0  0  0  0  0  0  0  0
   56.6600   28.5360   45.3500 C   0  0  0  0  0  0  0  0  0  0  0  0
   58.0040   28.4420   45.5180 N   0  0  0  0  0  0  0  0  0  0  0  0
   58.5600   27.2950   45.9850 C   0  0  0  0  0  0  0  0  0  0  0  0
   60.0410   27.1900   46.1350 C   0  0  0  0  0  0  0  0  0  0  0  0
   60.3009   27.1716   47.2037 H   0  0  0  0  0  0  0  0  0  0  0  0
   60.3934   26.2646   45.6559 H   0  0  0  0  0  0  0  0  0  0  0  0
   60.5204   28.0564   45.6559 H   0  0  0  0  0  0  0  0  0  0  0  0
   57.7720   26.2240   46.2550 N   0  0  0  0  0  0  0  0  0  0  0  0
   56.4290   26.3070   46.0800 C   0  0  0  0  0  0  0  0  0  0  0  0
   55.6990   25.3150   46.3350 O   0  0  0  0  0  0  0  0  0  0  0  0
   55.8750   27.4580   45.6260 N   0  0  0  0  0  0  0  0  0  0  0  0
   57.0070   30.8840   42.9040 C   0  0  0  0  0  0  0  0  0  0  0  0
   56.5804   30.1261   42.2306 H   0  0  0  0  0  0  0  0  0  0  0  0
  1  2  1  0
  2  3  2  0
  3  4  1  0
  3  5  1  0
  5  6  1  0
  5  7  2  0
  7  8  1  0
  7  9  1  0
  9 10  1  0
 10 11  2  0
 11 12  1  0
 12 13  1  0
 13 14  1  0
 14 15  1  0
 14 16  1  0
 14 17  1  0
 13 18  2  0
 18 19  1  0
 19 20  2  0
 19 21  1  0
  9 22  2  0
 22 23  1  0
 22  2  1  0
 21 11  1  0
M  CHG  2  12  -1  21  -1
M  END
>  <UniqueID>  (27) 
22

>  <SMILES>  (27) 
Cc1nc(=O)[n-]/c(=N\c2cccc(Br)c2)[n-]1

>  <Energy>  (27) 
29.20992713274696

>  <Genealogy>  (27) 
Cc1nc(=O)[n-]c(=Nc2cccc(Br)c2)[n-]1 (protonated)
Cc1nc(=O)[n-]/c(=N\c2cccc(Br)c2)[n-]1 (cis-trans isomerization)
Cc1nc(=O)[n-]/c(=N\c2cccc(Br)c2)[n-]1 (3D coordinates assigned)
Cc1nc(=O)[n-]/c(=N\c2cccc(Br)c2)[n-]1 (optimized conformer: 29.20992713274696 kcal/mol)

>  <smiles>  (27) 
Cc1nc(=O)[nH]c(=Nc2cccc(Br)c2)[nH]1

>  <score_type>  (27) 
oracle

>  <origin>  (27) 
adg

>  <m_score__min__energy>  (27) 
-10.27

>  <m_primary>  (27) 
energy

$$$$
27:0
     RDKit          3D

 39 41  0  0  0  0  0  0  0  0999 V2000
   58.2990   30.6860   44.1230 H   0  0  0  0  0  0  0  0  0  0  0  0
   58.6450   29.7320   44.1020 O   0  0  0  0  0  0  0  0  0  0  0  0
   58.0080   28.7140   44.8130 C   0  0  0  0  0  0  0  0  0  0  0  0
   58.6260   27.8040   45.6530 C   0  0  0  0  0  0  0  0  0  0  0  0
   57.6190   27.0550   46.2260 C   0  0  0  0  0  0  0  0  0  0  0  0
   56.4350   27.5030   45.6770 C   0  0  0  0  0  0  0  0  0  0  0  0
   55.1670   27.0190   45.9900 O   0  0  0  0  0  0  0  0  0  0  0  0
   56.6710   28.5120   44.8080 N   0  0  0  0  0  0  0  0  0  0  0  0
   55.6670   29.3600   44.1670 C   0  0  0  0  0  0  0  0  0  0  0  0
   54.8124   29.4941   44.8465 H   0  0  0  0  0  0  0  0  0  0  0  0
   55.3244   28.8835   43.2367 H   0  0  0  0  0  0  0  0  0  0  0  0
   56.2670   30.6910   43.8530 C   0  0  0  0  0  0  0  0  0  0  0  0
   56.6660   30.9360   42.6880 O   0  0  0  0  0  0  0  0  0  0  0  0
   56.3170   31.7110   44.8580 N   0  0  0  0  0  0  0  0  0  0  0  0
   57.3950   32.3180   45.2590 C   0  0  0  0  0  0  0  0  0  0  0  0
   58.2610   31.6420   46.0630 N   0  0  0  0  0  0  0  0  0  0  0  0
   59.3820   32.2210   46.5710 C   0  0  0  0  0  0  0  0  0  0  0  0
   60.0529   31.6376   47.2187 H   0  0  0  0  0  0  0  0  0  0  0  0
   59.6880   33.5580   46.2740 C   0  0  0  0  0  0  0  0  0  0  0  0
   60.8830   34.2220   46.8930 C   0  0  0  0  0  0  0  0  0  0  0  0
   60.8010   34.1765   47.9890 H   0  0  0  0  0  0  0  0  0  0  0  0
   61.7982   33.7030   46.5719 H   0  0  0  0  0  0  0  0  0  0  0  0
   60.9257   35.2732   46.5719 H   0  0  0  0  0  0  0  0  0  0  0  0
   58.8140   34.2820   45.4540 C   0  0  0  0  0  0  0  0  0  0  0  0
   59.0275   35.3349   45.2175 H   0  0  0  0  0  0  0  0  0  0  0  0
   57.6710   33.6680   44.9360 C   0  0  0  0  0  0  0  0  0  0  0  0
   56.9895   34.2305   44.2809 H   0  0  0  0  0  0  0  0  0  0  0  0
   57.8500   25.9690   47.2290 C   0  0  0  0  0  0  0  0  0  0  0  0
   57.8169   24.9931   46.7224 H   0  0  0  0  0  0  0  0  0  0  0  0
   57.0662   26.0183   47.9992 H   0  0  0  0  0  0  0  0  0  0  0  0
   59.2270   26.1490   47.8990 C   0  0  0  0  0  0  0  0  0  0  0  0
   59.4822   25.2276   48.4429 H   0  0  0  0  0  0  0  0  0  0  0  0
   59.1657   27.0068   48.5849 H   0  0  0  0  0  0  0  0  0  0  0  0
   60.3320   26.4400   46.8610 C   0  0  0  0  0  0  0  0  0  0  0  0
   60.3810   25.6025   46.1495 H   0  0  0  0  0  0  0  0  0  0  0  0
   61.2834   26.5586   47.4003 H   0  0  0  0  0  0  0  0  0  0  0  0
   60.0600   27.7410   46.0810 C   0  0  0  0  0  0  0  0  0  0  0  0
   60.7055   27.7714   45.1908 H   0  0  0  0  0  0  0  0  0  0  0  0
   60.2752   28.5997   46.7339 H   0  0  0  0  0  0  0  0  0  0  0  0
  1  2  1  0
  2  3  1  0
  3  4  2  0
  4  5  1  0
  5  6  2  0
  6  7  1  0
  6  8  1  0
  8  9  1  0
  9 10  1  0
  9 11  1  0
  9 12  1  0
 12 13  2  0
 12 14  1  0
 14 15  2  0
 15 16  1  0
 16 17  1  0
 17 18  1  0
 17 19  2  0
 19 20  1  0
 20 21  1  0
 20 22  1  0
 20 23  1  0
 19 24  1  0
 24 25  1  0
 24 26  2  0
 26 27  1  0
  5 28  1  0
 28 29  1  0
 28 30  1  0
 28 31  1  0
 31 32  1  0
 31 33  1  0
 31 34  1  0
 34 35  1  0
 34 36  1  0
 34 37  1  0
 37 38  1  0
 37 39  1  0
  8  3  1  0
 26 15  1  0
 37  4  1  0
M  CHG  2   7  -1  16  -1
M  END
>  <UniqueID>  (28) 
23

>  <SMILES>  (28) 
Cc1cc/c(=N\C(=O)Cn2c([O-])c3c(c2O)CCCC3)[n-]c1

>  <Energy>  (28) 
75.33523897542659

>  <Genealogy>  (28) 
Cc1ccc(=NC(=O)Cn2c([O-])c3c(c2O)CCCC3)[n-]c1 (protonated)
Cc1cc/c(=N\C(=O)Cn2c([O-])c3c(c2O)CCCC3)[n-]c1 (cis-trans isomerization)
Cc1cc/c(=N\C(=O)Cn2c([O-])c3c(c2O)CCCC3)[n-]c1 (3D coordinates assigned)
Cc1cc/c(=N\C(=O)Cn2c([O-])c3c(c2O)CCCC3)[n-]c1 (nonaromatic ring conformer: 75.33523897542659 kcal/mol)

>  <smiles>  (28) 
Cc1ccc(=NC(=O)Cn2c(O)c3c(c2O)CCCC3)[nH]c1

>  <score_type>  (28) 
oracle

>  <origin>  (28) 
adg

>  <m_score__min__energy>  (28) 
-11.710000000000001

>  <m_primary>  (28) 
energy

$$$$
28:0
     RDKit          3D

 35 37  0  0  0  0  0  0  0  0999 V2000
   61.9650   33.4530   46.7580 C   0  0  0  0  0  0  0  0  0  0  0  0
   61.2780   32.2150   46.9110 O   0  0  0  0  0  0  0  0  0  0  0  0
   60.0080   31.9470   46.3780 C   0  0  0  0  0  0  0  0  0  0  0  0
   59.1560   33.0430   46.0950 C   0  0  0  0  0  0  0  0  0  0  0  0
   57.8690   32.8400   45.5670 C   0  0  0  0  0  0  0  0  0  0  0  0
   57.4640   31.5300   45.3290 C   0  0  0  0  0  0  0  0  0  0  0  0
   56.2710   31.1160   44.8620 N   0  0  0  0  0  0  0  0  0  0  0  0
   56.4110   29.7660   44.8630 C   0  0  0  0  0  0  0  0  0  0  0  0
   55.4870   28.9890   44.5010 O   0  0  0  0  0  0  0  0  0  0  0  0
   57.6210   29.3320   45.3000 N   0  0  0  0  0  0  0  0  0  0  0  0
   58.0630   27.9490   45.4890 C   0  0  0  0  0  0  0  0  0  0  0  0
   57.3950   27.3090   46.7110 C   0  0  0  0  0  0  0  0  0  0  0  0
   56.1160   26.7730   46.3720 O   0  0  0  0  0  0  0  0  0  0  0  0
   55.9320   25.5270   45.7590 C   0  0  0  0  0  0  0  0  0  0  0  0
   56.9180   25.0320   44.9020 C   0  0  0  0  0  0  0  0  0  0  0  0
   56.7260   23.7990   44.2750 C   0  0  0  0  0  0  0  0  0  0  0  0
   55.5570   23.0720   44.5130 C   0  0  0  0  0  0  0  0  0  0  0  0
   54.5970   23.5920   45.3840 C   0  0  0  0  0  0  0  0  0  0  0  0
   54.8030   24.7940   45.9840 N   0  0  0  0  0  0  0  0  0  0  0  0
   58.2780   30.4660   45.5940 C   0  0  0  0  0  0  0  0  0  0  0  0
   59.5600   30.6280   46.1220 C   0  0  0  0  0  0  0  0  0  0  0  0
   62.1959   33.8692   47.7497 H   0  0  0  0  0  0  0  0  0  0  0  0
   62.9002   33.2872   46.2031 H   0  0  0  0  0  0  0  0  0  0  0  0
   61.3295   34.1588   46.2031 H   0  0  0  0  0  0  0  0  0  0  0  0
   59.5064   34.0671   46.2912 H   0  0  0  0  0  0  0  0  0  0  0  0
   57.2040   33.6887   45.3492 H   0  0  0  0  0  0  0  0  0  0  0  0
   57.8043   27.3653   44.5933 H   0  0  0  0  0  0  0  0  0  0  0  0
   59.1508   27.9531   45.6523 H   0  0  0  0  0  0  0  0  0  0  0  0
   58.0361   26.4988   47.0885 H   0  0  0  0  0  0  0  0  0  0  0  0
   57.2583   28.0824   47.4812 H   0  0  0  0  0  0  0  0  0  0  0  0
   57.8376   25.6084   44.7226 H   0  0  0  0  0  0  0  0  0  0  0  0
   57.4937   23.4010   43.5951 H   0  0  0  0  0  0  0  0  0  0  0  0
   55.3946   22.1019   44.0204 H   0  0  0  0  0  0  0  0  0  0  0  0
   53.6738   23.0285   45.5845 H   0  0  0  0  0  0  0  0  0  0  0  0
   60.2014   29.7595   46.3324 H   0  0  0  0  0  0  0  0  0  0  0  0
  1  2  1  0
  2  3  1  0
  3  4  2  0
  4  5  1  0
  5  6  2  0
  6  7  1  0
  7  8  1  0
  8  9  2  0
  8 10  1  0
 10 11  1  0
 11 12  1  0
 12 13  1  0
 13 14  1  0
 14 15  2  0
 15 16  1  0
 16 17  2  0
 17 18  1  0
 18 19  2  0
 10 20  1  0
 20 21  2  0
 21  3  1  0
 20  6  1  0
 19 14  1  0
  1 22  1  0
  1 23  1  0
  1 24  1  0
  4 25  1  0
  5 26  1  0
 11 27  1  0
 11 28  1  0
 12 29  1  0
 12 30  1  0
 15 31  1  0
 16 32  1  0
 17 33  1  0
 18 34  1  0
 21 35  1  0
M  CHG  1   7  -1
M  END
>  <UniqueID>  (29) 
24

>  <SMILES>  (29) 
COc1ccc2[n-]c(=O)n(CCOc3ccccn3)c2c1

>  <Energy>  (29) 
70.48651534301393

>  <Genealogy>  (29) 
COc1ccc2[n-]c(=O)n(CCOc3ccccn3)c2c1 (protonated)
COc1ccc2[n-]c(=O)n(CCOc3ccccn3)c2c1 (3D coordinates assigned)
COc1ccc2[n-]c(=O)n(CCOc3ccccn3)c2c1 (optimized conformer: 70.48651534301393 kcal/mol)

>  <smiles>  (29) 
COc1ccc2[nH]c(=O)n(CCOc3ccccn3)c2c1

>  <score_type>  (29) 
oracle

>  <origin>  (29) 
adg

>  <m_score__min__energy>  (29) 
-8.1099999999999994

>  <m_primary>  (29) 
energy

$$$$
29:0
     RDKit          3D

 36 38  0  0  0  0  0  0  0  0999 V2000
   56.1880   30.4100   43.8730 O   0  0  0  0  0  0  0  0  0  0  0  0
   56.4690   29.7910   44.9320 C   0  0  0  0  0  0  0  0  0  0  0  0
   57.3810   30.3870   45.8620 N   0  0  0  0  0  0  0  0  0  0  0  0
   57.9130   31.7180   45.7910 C   0  0  0  0  0  0  0  0  0  0  0  0
   57.2320   32.7550   45.1310 C   0  0  0  0  0  0  0  0  0  0  0  0
   57.7690   34.0430   45.1080 C   0  0  0  0  0  0  0  0  0  0  0  0
   58.9790   34.3140   45.7530 C   0  0  0  0  0  0  0  0  0  0  0  0
   59.6610   33.2950   46.4410 C   0  0  0  0  0  0  0  0  0  0  0  0
   60.9400   33.5820   47.1390 C   0  0  0  0  0  0  0  0  0  0  0  0
   62.1630   33.5300   46.4420 C   0  0  0  0  0  0  0  0  0  0  0  0
   63.3660   33.8020   47.1010 C   0  0  0  0  0  0  0  0  0  0  0  0
   63.3630   34.1260   48.4600 C   0  0  0  0  0  0  0  0  0  0  0  0
   62.1570   34.1800   49.1620 C   0  0  0  0  0  0  0  0  0  0  0  0
   60.9520   33.9110   48.5080 C   0  0  0  0  0  0  0  0  0  0  0  0
   59.1120   31.9980   46.4600 C   0  0  0  0  0  0  0  0  0  0  0  0
   55.8840   28.5110   45.2060 N   0  0  0  0  0  0  0  0  0  0  0  0
   56.5710   27.3190   45.6150 C   0  0  0  0  0  0  0  0  0  0  0  0
   57.9770   27.2270   45.6040 C   0  0  0  0  0  0  0  0  0  0  0  0
   58.6070   26.0400   45.9880 C   0  0  0  0  0  0  0  0  0  0  0  0
   57.8450   24.9320   46.3700 C   0  0  0  0  0  0  0  0  0  0  0  0
   58.4590   23.7800   46.7380 F   0  0  0  0  0  0  0  0  0  0  0  0
   56.4500   25.0080   46.3580 C   0  0  0  0  0  0  0  0  0  0  0  0
   55.8140   26.1930   45.9740 C   0  0  0  0  0  0  0  0  0  0  0  0
   54.4590   26.2530   45.9640 F   0  0  0  0  0  0  0  0  0  0  0  0
   56.2735   32.5511   44.6313 H   0  0  0  0  0  0  0  0  0  0  0  0
   57.2376   34.8484   44.5799 H   0  0  0  0  0  0  0  0  0  0  0  0
   59.3999   35.3298   45.7222 H   0  0  0  0  0  0  0  0  0  0  0  0
   62.1718   33.2737   45.3723 H   0  0  0  0  0  0  0  0  0  0  0  0
   64.3163   33.7608   46.5485 H   0  0  0  0  0  0  0  0  0  0  0  0
   64.3104   34.3385   48.9769 H   0  0  0  0  0  0  0  0  0  0  0  0
   62.1557   34.4348   50.2321 H   0  0  0  0  0  0  0  0  0  0  0  0
   60.0056   33.9566   49.0668 H   0  0  0  0  0  0  0  0  0  0  0  0
   59.6302   31.1960   47.0061 H   0  0  0  0  0  0  0  0  0  0  0  0
   58.5807   28.0921   45.2922 H   0  0  0  0  0  0  0  0  0  0  0  0
   59.7052   25.9775   45.9896 H   0  0  0  0  0  0  0  0  0  0  0  0
   55.8504   24.1337   46.6513 H   0  0  0  0  0  0  0  0  0  0  0  0
  1  2  2  0
  2  3  1  0
  3  4  1  0
  4  5  2  0
  5  6  1  0
  6  7  2  0
  7  8  1  0
  8  9  1  0
  9 10  2  0
 10 11  1  0
 11 12  2  0
 12 13  1  0
 13 14  2  0
  8 15  2  0
  2 16  1  0
 16 17  1  0
 17 18  2  0
 18 19  1  0
 19 20  2  0
 20 21  1  0
 20 22  1  0
 22 23  2  0
 23 24  1  0
 15  4  1  0
 23 17  1  0
 14  9  1  0
  5 25  1  0
  6 26  1  0
  7 27  1  0
 10 28  1  0
 11 29  1  0
 12 30  1  0
 13 31  1  0
 14 32  1  0
 15 33  1  0
 18 34  1  0
 19 35  1  0
 22 36  1  0
M  CHG  2   3  -1  16  -1
M  END
>  <UniqueID>  (30) 
25

>  <SMILES>  (30) 
O=C([N-]c1cccc(-c2ccccc2)c1)[N-]c1ccc(F)cc1F

>  <Energy>  (30) 
51.43979900847485

>  <Genealogy>  (30) 
O=C([N-]c1cccc(-c2ccccc2)c1)[N-]c1ccc(F)cc1F (protonated)
O=C([N-]c1cccc(-c2ccccc2)c1)[N-]c1ccc(F)cc1F (3D coordinates assigned)
O=C([N-]c1cccc(-c2ccccc2)c1)[N-]c1ccc(F)cc1F (optimized conformer: 51.43979900847485 kcal/mol)

>  <smiles>  (30) 
O=C(Nc1cccc(-c2ccccc2)c1)Nc1ccc(F)cc1F

>  <score_type>  (30) 
oracle

>  <origin>  (30) 
adg

>  <m_score__min__energy>  (30) 
-11.73

>  <m_primary>  (30) 
energy

$$$$
30:0
     RDKit          3D

 44 46  0  0  0  0  0  0  0  0999 V2000
   62.6700   33.1770   53.5950 H   0  0  0  0  0  0  0  0  0  0  0  0
   62.1820   33.7440   52.9120 O   0  0  0  0  0  0  0  0  0  0  0  0
   60.8960   33.4190   52.4840 C   0  0  0  0  0  0  0  0  0  0  0  0
   59.9160   33.0870   53.4280 C   0  0  0  0  0  0  0  0  0  0  0  0
   60.1657   33.0829   54.4993 H   0  0  0  0  0  0  0  0  0  0  0  0
   58.6220   32.7610   53.0130 C   0  0  0  0  0  0  0  0  0  0  0  0
   57.8553   32.5010   53.7576 H   0  0  0  0  0  0  0  0  0  0  0  0
   58.3010   32.7650   51.6520 C   0  0  0  0  0  0  0  0  0  0  0  0
   57.2822   32.5073   51.3269 H   0  0  0  0  0  0  0  0  0  0  0  0
   59.2760   33.0970   50.7020 C   0  0  0  0  0  0  0  0  0  0  0  0
   58.9480   33.1020   49.3010 C   0  0  0  0  0  0  0  0  0  0  0  0
   58.6700   33.1130   48.1280 C   0  0  0  0  0  0  0  0  0  0  0  0
   58.3390   33.1120   46.7290 C   0  0  0  0  0  0  0  0  0  0  0  0
   57.4830   32.1700   46.2550 N   0  0  0  0  0  0  0  0  0  0  0  0
   57.1480   32.1070   44.9370 C   0  0  0  0  0  0  0  0  0  0  0  0
   56.3360   31.1920   44.4940 N   0  0  0  0  0  0  0  0  0  0  0  0
   56.7500   30.0010   43.7500 C   0  0  0  0  0  0  0  0  0  0  0  0
   57.3129   30.3109   42.8572 H   0  0  0  0  0  0  0  0  0  0  0  0
   55.8517   29.4367   43.4591 H   0  0  0  0  0  0  0  0  0  0  0  0
   57.6220   29.1160   44.6010 C   0  0  0  0  0  0  0  0  0  0  0  0
   58.9860   29.4030   44.7640 C   0  0  0  0  0  0  0  0  0  0  0  0
   59.4187   30.2952   44.2878 H   0  0  0  0  0  0  0  0  0  0  0  0
   59.7960   28.5610   45.5280 C   0  0  0  0  0  0  0  0  0  0  0  0
   60.8648   28.7902   45.6513 H   0  0  0  0  0  0  0  0  0  0  0  0
   59.2510   27.4280   46.1360 C   0  0  0  0  0  0  0  0  0  0  0  0
   59.8939   26.7692   46.7382 H   0  0  0  0  0  0  0  0  0  0  0  0
   57.8920   27.1240   45.9850 C   0  0  0  0  0  0  0  0  0  0  0  0
   57.3800   25.9450   46.6230 N   0  0  0  0  0  0  0  0  0  0  0  0
   55.9200   25.1130   46.1970 S   0  0  0  0  0  0  0  0  0  0  0  0
   55.5130   24.1840   47.3070 O   0  0  0  0  0  0  0  0  0  0  0  0
   54.8290   26.1270   45.9940 O   0  0  0  0  0  0  0  0  0  0  0  0
   56.1470   24.2080   44.6810 C   0  0  0  0  0  0  0  0  0  0  0  0
   56.4086   23.1649   44.9123 H   0  0  0  0  0  0  0  0  0  0  0  0
   55.2152   24.2314   44.0969 H   0  0  0  0  0  0  0  0  0  0  0  0
   56.9575   24.6684   44.0969 H   0  0  0  0  0  0  0  0  0  0  0  0
   57.0790   27.9730   45.2120 C   0  0  0  0  0  0  0  0  0  0  0  0
   56.0114   27.7406   45.0851 H   0  0  0  0  0  0  0  0  0  0  0  0
   57.6980   33.0390   44.0520 C   0  0  0  0  0  0  0  0  0  0  0  0
   57.4417   33.0069   42.9827 H   0  0  0  0  0  0  0  0  0  0  0  0
   58.5520   33.9850   44.5240 N   0  0  0  0  0  0  0  0  0  0  0  0
   58.8900   34.0460   45.8390 C   0  0  0  0  0  0  0  0  0  0  0  0
   60.0060   35.2920   46.3780 Cl  0  0  0  0  0  0  0  0  0  0  0  0
   60.5730   33.4240   51.1190 C   0  0  0  0  0  0  0  0  0  0  0  0
   61.3395   33.6852   50.3745 H   0  0  0  0  0  0  0  0  0  0  0  0
  1  2  1  0
  2  3  1  0
  3  4  2  0
  4  5  1  0
  4  6  1  0
  6  7  1  0
  6  8  2  0
  8  9  1  0
  8 10  1  0
 10 11  1  0
 11 12  3  0
 12 13  1  0
 13 14  1  0
 14 15  1  0
 15 16  2  0
 16 17  1  0
 17 18  1  0
 17 19  1  0
 17 20  1  0
 20 21  2  0
 21 22  1  0
 21 23  1  0
 23 24  1  0
 23 25  2  0
 25 26  1  0
 25 27  1  0
 27 28  1  0
 28 29  1  0
 29 30  2  0
 29 31  2  0
 29 32  1  0
 32 33  1  0
 32 34  1  0
 32 35  1  0
 27 36  2  0
 36 37  1  0
 15 38  1  0
 38 39  1  0
 38 40  2  0
 40 41  1  0
 41 42  1  0
 10 43  2  0
 43 44  1  0
 43  3  1  0
 41 13  2  0
 36 20  1  0
M  CHG  2  14  -1  28  -1
M  END
>  <UniqueID>  (31) 
26

>  <SMILES>  (31) 
CS(=O)(=O)[N-]c1cccc(C/N=c2/cnc(Cl)c(C#Cc3cccc(O)c3)[n-]2)c1

>  <Energy>  (31) 
41.96371886624944

>  <Genealogy>  (31) 
CS(=O)(=O)[N-]c1cccc(CN=c2cnc(Cl)c(C#Cc3cccc(O)c3)[n-]2)c1 (protonated)
CS(=O)(=O)[N-]c1cccc(C/N=c2/cnc(Cl)c(C#Cc3cccc(O)c3)[n-]2)c1 (cis-trans isomerization)
CS(=O)(=O)[N-]c1cccc(C/N=c2/cnc(Cl)c(C#Cc3cccc(O)c3)[n-]2)c1 (3D coordinates assigned)
CS(=O)(=O)[N-]c1cccc(C/N=c2/cnc(Cl)c(C#Cc3cccc(O)c3)[n-]2)c1 (optimized conformer: 41.96371886624944 kcal/mol)

>  <smiles>  (31) 
CS(=O)(=O)Nc1cccc(CN=c2cnc(Cl)c(C#Cc3cccc(O)c3)[nH]2)c1

>  <score_type>  (31) 
oracle

>  <origin>  (31) 
adg

>  <m_score__min__energy>  (31) 
-11.58

>  <m_primary>  (31) 
energy

$$$$
31:0
     RDKit          3D

 54 58  0  0  0  0  0  0  0  0999 V2000
   59.8690   33.3890   47.0090 O   0  0  0  0  0  0  0  0  0  0  0  0
   60.4880   32.3720   47.4330 C   0  0  0  0  0  0  0  0  0  0  0  0
   59.9370   31.0230   47.1250 C   0  0  0  0  0  0  0  0  0  0  0  0
   60.3150   30.3180   45.9690 C   0  0  0  0  0  0  0  0  0  0  0  0
   59.7890   29.0500   45.7040 C   0  0  0  0  0  0  0  0  0  0  0  0
   58.8710   28.4560   46.5890 C   0  0  0  0  0  0  0  0  0  0  0  0
   58.3050   27.1070   46.3290 C   0  0  0  0  0  0  0  0  0  0  0  0
   56.9190   26.8710   46.3460 C   0  0  0  0  0  0  0  0  0  0  0  0
   56.4260   25.5860   46.1010 C   0  0  0  0  0  0  0  0  0  0  0  0
   55.1810   25.3870   46.1180 O   0  0  0  0  0  0  0  0  0  0  0  0
   57.3210   24.5320   45.8420 C   0  0  0  0  0  0  0  0  0  0  0  0
   56.8770   23.2210   45.5870 C   0  0  0  0  0  0  0  0  0  0  0  0
   57.8030   22.2030   45.3390 C   0  0  0  0  0  0  0  0  0  0  0  0
   59.1730   22.4810   45.3430 C   0  0  0  0  0  0  0  0  0  0  0  0
   59.6250   23.7790   45.5950 C   0  0  0  0  0  0  0  0  0  0  0  0
   58.7080   24.8060   45.8420 C   0  0  0  0  0  0  0  0  0  0  0  0
   59.1510   26.0680   46.0850 N   0  0  0  0  0  0  0  0  0  0  0  0
   58.5110   29.1520   47.7550 C   0  0  0  0  0  0  0  0  0  0  0  0
   59.0370   30.4180   48.0200 C   0  0  0  0  0  0  0  0  0  0  0  0
   61.6910   32.5450   48.2240 N   0  0  0  0  0  0  0  0  0  0  0  0
   62.6980   33.3180   47.4530 C   0  0  0  0  0  0  0  0  0  0  0  0
   64.1510   33.0970   47.9330 C   0  0  0  0  0  0  0  0  0  0  0  0
   64.1990   32.5690   49.3030 N   0  0  0  0  0  0  0  0  0  0  0  0
   65.2310   33.0000   50.2090 C   0  0  0  0  0  0  0  0  0  0  0  0
   66.5210   32.4550   50.1130 C   0  0  0  0  0  0  0  0  0  0  0  0
   67.5290   32.8630   50.9910 C   0  0  0  0  0  0  0  0  0  0  0  0
   67.2570   33.8190   51.9720 C   0  0  0  0  0  0  0  0  0  0  0  0
   65.9770   34.3680   52.0770 C   0  0  0  0  0  0  0  0  0  0  0  0
   64.9640   33.9630   51.2000 C   0  0  0  0  0  0  0  0  0  0  0  0
   63.7360   34.5320   51.3020 F   0  0  0  0  0  0  0  0  0  0  0  0
   63.3380   31.4420   49.6840 C   0  0  0  0  0  0  0  0  0  0  0  0
   62.2210   31.2360   48.6540 C   0  0  0  0  0  0  0  0  0  0  0  0
   61.0315   30.7683   45.2662 H   0  0  0  0  0  0  0  0  0  0  0  0
   60.0959   28.5119   44.7950 H   0  0  0  0  0  0  0  0  0  0  0  0
   56.2228   27.6973   46.5520 H   0  0  0  0  0  0  0  0  0  0  0  0
   55.8001   22.9969   45.5828 H   0  0  0  0  0  0  0  0  0  0  0  0
   57.4521   21.1796   45.1400 H   0  0  0  0  0  0  0  0  0  0  0  0
   59.8968   21.6762   45.1473 H   0  0  0  0  0  0  0  0  0  0  0  0
   60.7039   23.9935   45.5991 H   0  0  0  0  0  0  0  0  0  0  0  0
   57.8075   28.6949   48.4665 H   0  0  0  0  0  0  0  0  0  0  0  0
   58.7442   30.9476   48.9386 H   0  0  0  0  0  0  0  0  0  0  0  0
   61.4510   33.0780   49.0930 H   0  0  0  0  0  0  0  0  0  0  0  0
   62.6317   33.0183   46.3967 H   0  0  0  0  0  0  0  0  0  0  0  0
   62.4686   34.3835   47.6018 H   0  0  0  0  0  0  0  0  0  0  0  0
   64.6439   32.3816   47.2583 H   0  0  0  0  0  0  0  0  0  0  0  0
   64.6657   34.0691   47.9232 H   0  0  0  0  0  0  0  0  0  0  0  0
   66.7400   31.7019   49.3417 H   0  0  0  0  0  0  0  0  0  0  0  0
   68.5372   32.4308   50.9093 H   0  0  0  0  0  0  0  0  0  0  0  0
   68.0511   34.1398   52.6623 H   0  0  0  0  0  0  0  0  0  0  0  0
   65.7645   35.1204   52.8507 H   0  0  0  0  0  0  0  0  0  0  0  0
   63.9465   30.5276   49.7435 H   0  0  0  0  0  0  0  0  0  0  0  0
   62.8807   31.6625   50.6598 H   0  0  0  0  0  0  0  0  0  0  0  0
   62.6229   30.7001   47.7815 H   0  0  0  0  0  0  0  0  0  0  0  0
   61.4108   30.6474   49.1091 H   0  0  0  0  0  0  0  0  0  0  0  0
  1  2  2  0
  2  3  1  0
  3  4  2  0
  4  5  1  0
  5  6  2  0
  6  7  1  0
  7  8  2  0
  8  9  1  0
  9 10  2  0
  9 11  1  0
 11 12  2  0
 12 13  1  0
 13 14  2  0
 14 15  1  0
 15 16  2  0
 16 17  1  0
  6 18  1  0
 18 19  2  0
  2 20  1  0
 20 21  1  0
 21 22  1  0
 22 23  1  0
 23 24  1  0
 24 25  2  0
 25 26  1  0
 26 27  2  0
 27 28  1  0
 28 29  2  0
 29 30  1  0
 23 31  1  0
 31 32  1  0
 19  3  1  0
 32 20  1  0
 17  7  1  0
 29 24  1  0
 16 11  1  0
  4 33  1  0
  5 34  1  0
  8 35  1  0
 12 36  1  0
 13 37  1  0
 14 38  1  0
 15 39  1  0
 18 40  1  0
 19 41  1  0
 20 42  1  0
 21 43  1  0
 21 44  1  0
 22 45  1  0
 22 46  1  0
 25 47  1  0
 26 48  1  0
 27 49  1  0
 28 50  1  0
 31 51  1  0
 31 52  1  0
 32 53  1  0
 32 54  1  0
M  CHG  2  17  -1  20   1
M  END
>  <UniqueID>  (32) 
27

>  <SMILES>  (32) 
O=C(c1ccc(-c2cc(=O)c3ccccc3[n-]2)cc1)[NH+]1CCN(c2ccccc2F)CC1

>  <Energy>  (32) 
84.00023147922292

>  <Genealogy>  (32) 
O=C(c1ccc(-c2cc(=O)c3ccccc3[n-]2)cc1)[NH+]1CCN(c2ccccc2F)CC1 (protonated)
O=C(c1ccc(-c2cc(=O)c3ccccc3[n-]2)cc1)[NH+]1CCN(c2ccccc2F)CC1 (3D coordinates assigned)
O=C(c1ccc(-c2cc(=O)c3ccccc3[n-]2)cc1)[NH+]1CCN(c2ccccc2F)CC1 (nonaromatic ring conformer: 84.00023147922292 kcal/mol)

>  <smiles>  (32) 
O=C(c1ccc(-c2cc(=O)c3ccccc3[nH]2)cc1)N1CCN(c2ccccc2F)CC1

>  <score_type>  (32) 
oracle

>  <origin>  (32) 
adg

>  <m_score__min__energy>  (32) 
-8.9100000000000001

>  <m_primary>  (32) 
energy

$$$$
32:0
     RDKit          3D

 44 46  0  0  0  0  0  0  0  0999 V2000
   57.3620   31.4750   45.8790 O   0  0  0  0  0  0  0  0  0  0  0  0
   57.5360   31.4840   44.6300 C   0  0  0  0  0  0  0  0  0  0  0  0
   57.7170   30.1960   43.8950 C   0  0  0  0  0  0  0  0  0  0  0  0
   57.9260   29.0920   44.8960 C   0  0  0  0  0  0  0  0  0  0  0  0
   58.9520   29.1840   45.8500 C   0  0  0  0  0  0  0  0  0  0  0  0
   59.0850   28.2030   46.8370 C   0  0  0  0  0  0  0  0  0  0  0  0
   58.1910   27.1310   46.8870 C   0  0  0  0  0  0  0  0  0  0  0  0
   57.1560   27.0330   45.9470 C   0  0  0  0  0  0  0  0  0  0  0  0
   55.9950   25.7140   46.0260 S   0  0  0  0  0  0  0  0  0  0  0  0
   56.1930   24.9480   47.3030 O   0  0  0  0  0  0  0  0  0  0  0  0
   56.1800   24.7900   44.8550 O   0  0  0  0  0  0  0  0  0  0  0  0
   54.4350   26.3360   45.9790 O   0  0  0  0  0  0  0  0  0  0  0  0
   57.0260   28.0140   44.9540 C   0  0  0  0  0  0  0  0  0  0  0  0
   57.6830   32.6900   43.9400 O   0  0  0  0  0  0  0  0  0  0  0  0
   58.0480   33.9000   44.5980 C   0  0  0  0  0  0  0  0  0  0  0  0
   58.8950   33.5920   45.7490 N   0  0  0  0  0  0  0  0  0  0  0  0
   59.6720   34.5950   46.4170 C   0  0  0  0  0  0  0  0  0  0  0  0
   59.6610   35.7830   45.9960 O   0  0  0  0  0  0  0  0  0  0  0  0
   60.4850   34.2600   47.6010 C   0  0  0  0  0  0  0  0  0  0  0  0
   61.6940   33.5930   47.6160 C   0  0  0  0  0  0  0  0  0  0  0  0
   62.0250   33.5260   48.9570 C   0  0  0  0  0  0  0  0  0  0  0  0
   63.2350   32.9020   49.5460 C   0  0  0  0  0  0  0  0  0  0  0  0
   64.5190   33.4300   49.3060 C   0  0  0  0  0  0  0  0  0  0  0  0
   65.6490   32.8240   49.8620 C   0  0  0  0  0  0  0  0  0  0  0  0
   65.5140   31.6910   50.6660 C   0  0  0  0  0  0  0  0  0  0  0  0
   64.2460   31.1630   50.9180 C   0  0  0  0  0  0  0  0  0  0  0  0
   63.1120   31.7630   50.3640 C   0  0  0  0  0  0  0  0  0  0  0  0
   61.0570   34.1200   49.6860 N   0  0  0  0  0  0  0  0  0  0  0  0
   60.1230   34.5670   48.8620 N   0  0  0  0  0  0  0  0  0  0  0  0
   56.8208   29.9846   43.2931 H   0  0  0  0  0  0  0  0  0  0  0  0
   58.5887   30.2656   43.2277 H   0  0  0  0  0  0  0  0  0  0  0  0
   59.6535   30.0308   45.8207 H   0  0  0  0  0  0  0  0  0  0  0  0
   59.8961   28.2755   47.5765 H   0  0  0  0  0  0  0  0  0  0  0  0
   58.2995   26.3619   47.6659 H   0  0  0  0  0  0  0  0  0  0  0  0
   56.2143   27.9396   44.2154 H   0  0  0  0  0  0  0  0  0  0  0  0
   58.5998   34.5456   43.8989 H   0  0  0  0  0  0  0  0  0  0  0  0
   57.1407   34.4202   44.9389 H   0  0  0  0  0  0  0  0  0  0  0  0
   58.9230   32.6060   46.0900 H   0  0  0  0  0  0  0  0  0  0  0  0
   62.2629   33.2044   46.7585 H   0  0  0  0  0  0  0  0  0  0  0  0
   64.6328   34.3251   48.6769 H   0  0  0  0  0  0  0  0  0  0  0  0
   66.6477   33.2411   49.6654 H   0  0  0  0  0  0  0  0  0  0  0  0
   66.4052   31.2147   51.1005 H   0  0  0  0  0  0  0  0  0  0  0  0
   64.1395   30.2722   51.5545 H   0  0  0  0  0  0  0  0  0  0  0  0
   62.1164   31.3423   50.5685 H   0  0  0  0  0  0  0  0  0  0  0  0
  1  2  2  0
  2  3  1  0
  3  4  1  0
  4  5  2  0
  5  6  1  0
  6  7  2  0
  7  8  1  0
  8  9  1  0
  9 10  2  0
  9 11  2  0
  9 12  1  0
  8 13  2  0
  2 14  1  0
 14 15  1  0
 15 16  1  0
 16 17  1  0
 17 18  2  0
 17 19  1  0
 19 20  1  0
 20 21  2  0
 21 22  1  0
 22 23  2  0
 23 24  1  0
 24 25  2  0
 25 26  1  0
 26 27  2  0
 21 28  1  0
 28 29  1  0
 13  4  1  0
 29 19  2  0
 27 22  1  0
  3 30  1  0
  3 31  1  0
  5 32  1  0
  6 33  1  0
  7 34  1  0
 13 35  1  0
 15 36  1  0
 15 37  1  0
 16 38  1  0
 20 39  1  0
 23 40  1  0
 24 41  1  0
 25 42  1  0
 26 43  1  0
 27 44  1  0
M  CHG  2  12  -1  28  -1
M  END
>  <UniqueID>  (33) 
28

>  <SMILES>  (33) 
O=C(Cc1cccc(S(=O)(=O)[O-])c1)OCNC(=O)c1cc(-c2ccccc2)[n-]n1

>  <Energy>  (33) 
69.71332237638235

>  <Genealogy>  (33) 
O=C(Cc1cccc(S(=O)(=O)[O-])c1)OCNC(=O)c1cc(-c2ccccc2)[n-]n1 (protonated)
O=C(Cc1cccc(S(=O)(=O)[O-])c1)OCNC(=O)c1cc(-c2ccccc2)[n-]n1 (3D coordinates assigned)
O=C(Cc1cccc(S(=O)(=O)[O-])c1)OCNC(=O)c1cc(-c2ccccc2)[n-]n1 (optimized conformer: 69.71332237638235 kcal/mol)

>  <smiles>  (33) 
O=C(Cc1cccc(S(=O)(=O)O)c1)OCNC(=O)c1cc(-c2ccccc2)[nH]n1

>  <score_type>  (33) 
oracle

>  <origin>  (33) 
adg

>  <m_score__min__energy>  (33) 
-13.16

>  <m_primary>  (33) 
energy

$$$$
33:0
     RDKit          3D

 48 51  0  0  0  0  0  0  0  0999 V2000
   64.9231   33.2799   47.0719 H   0  0  0  0  0  0  0  0  0  0  0  0
   64.2220   33.4000   47.9110 C   0  0  0  0  0  0  0  0  0  0  0  0
   62.9610   33.8650   47.8080 N   0  0  0  0  0  0  0  0  0  0  0  0
   62.4960   33.8450   49.0770 C   0  0  0  0  0  0  0  0  0  0  0  0
   61.0950   34.2430   49.4370 C   0  0  0  0  0  0  0  0  0  0  0  0
   61.0935   35.2864   49.7854 H   0  0  0  0  0  0  0  0  0  0  0  0
   60.7296   33.5766   50.2322 H   0  0  0  0  0  0  0  0  0  0  0  0
   60.2130   34.1220   48.2770 N   0  0  0  0  0  0  0  0  0  0  0  0
   59.6980   34.9630   47.9320 H   0  0  0  0  0  0  0  0  0  0  0  0
   60.1040   32.8930   47.5480 C   0  0  0  0  0  0  0  0  0  0  0  0
   60.9340   31.9660   47.7560 O   0  0  0  0  0  0  0  0  0  0  0  0
   59.0680   32.7060   46.5170 C   0  0  0  0  0  0  0  0  0  0  0  0
   58.0930   31.3350   46.4080 S   0  0  0  0  0  0  0  0  0  0  0  0
   57.2610   31.9070   45.0700 C   0  0  0  0  0  0  0  0  0  0  0  0
   56.2980   31.2520   44.4920 N   0  0  0  0  0  0  0  0  0  0  0  0
   56.1680   29.8270   44.3690 C   0  0  0  0  0  0  0  0  0  0  0  0
   55.1530   29.2740   44.8700 O   0  0  0  0  0  0  0  0  0  0  0  0
   57.2210   28.9550   43.7350 C   0  0  0  0  0  0  0  0  0  0  0  0
   56.7352   28.0683   43.3017 H   0  0  0  0  0  0  0  0  0  0  0  0
   57.7316   29.5451   42.9597 H   0  0  0  0  0  0  0  0  0  0  0  0
   58.2510   28.5060   44.7340 C   0  0  0  0  0  0  0  0  0  0  0  0
   59.8620   28.9900   44.7230 S   0  0  0  0  0  0  0  0  0  0  0  0
   60.3730   28.0110   45.9860 C   0  0  0  0  0  0  0  0  0  0  0  0
   61.3937   27.9645   46.3935 H   0  0  0  0  0  0  0  0  0  0  0  0
   59.2860   27.2700   46.4280 C   0  0  0  0  0  0  0  0  0  0  0  0
   59.3537   26.5288   47.2380 H   0  0  0  0  0  0  0  0  0  0  0  0
   58.0900   27.5540   45.7450 C   0  0  0  0  0  0  0  0  0  0  0  0
   56.8040   26.8090   45.9910 C   0  0  0  0  0  0  0  0  0  0  0  0
   56.1658   27.7048   46.0066 H   0  0  0  0  0  0  0  0  0  0  0  0
   56.6910   25.4280   45.3550 C   0  0  0  0  0  0  0  0  0  0  0  0
   55.7155   25.0645   44.9997 H   0  0  0  0  0  0  0  0  0  0  0  0
   57.1874   24.9146   44.5184 H   0  0  0  0  0  0  0  0  0  0  0  0
   56.9560   25.5560   46.8420 C   0  0  0  0  0  0  0  0  0  0  0  0
   56.1726   25.2846   47.5650 H   0  0  0  0  0  0  0  0  0  0  0  0
   57.7245   25.1729   47.5295 H   0  0  0  0  0  0  0  0  0  0  0  0
   57.6720   33.1400   44.7080 N   0  0  0  0  0  0  0  0  0  0  0  0
   58.6740   33.5980   45.5070 C   0  0  0  0  0  0  0  0  0  0  0  0
   59.2540   34.9610   45.2930 C   0  0  0  0  0  0  0  0  0  0  0  0
   59.4542   35.4314   46.2670 H   0  0  0  0  0  0  0  0  0  0  0  0
   60.1935   34.8750   44.7274 H   0  0  0  0  0  0  0  0  0  0  0  0
   58.5406   35.5784   44.7274 H   0  0  0  0  0  0  0  0  0  0  0  0
   63.4040   33.3660   49.9530 N   0  0  0  0  0  0  0  0  0  0  0  0
   63.2590   33.2170   51.3980 C   0  0  0  0  0  0  0  0  0  0  0  0
   63.9385   33.9152   51.9086 H   0  0  0  0  0  0  0  0  0  0  0  0
   62.2210   33.4381   51.6871 H   0  0  0  0  0  0  0  0  0  0  0  0
   63.5083   32.1854   51.6871 H   0  0  0  0  0  0  0  0  0  0  0  0
   64.5000   33.0980   49.2260 C   0  0  0  0  0  0  0  0  0  0  0  0
   65.4525   32.7062   49.6122 H   0  0  0  0  0  0  0  0  0  0  0  0
  1  2  1  0
  2  3  1  0
  3  4  2  0
  4  5  1  0
  5  6  1  0
  5  7  1  0
  5  8  1  0
  8  9  1  0
  8 10  1  0
 10 11  2  0
 10 12  1  0
 12 13  1  0
 13 14  1  0
 14 15  2  0
 15 16  1  0
 16 17  2  0
 16 18  1  0
 18 19  1  0
 18 20  1  0
 18 21  1  0
 21 22  1  0
 22 23  1  0
 23 24  1  0
 23 25  2  0
 25 26  1  0
 25 27  1  0
 27 28  1  0
 28 29  1  0
 28 30  1  0
 30 31  1  0
 30 32  1  0
 30 33  1  0
 33 34  1  0
 33 35  1  0
 14 36  1  0
 36 37  1  0
 37 38  1  0
 38 39  1  0
 38 40  1  0
 38 41  1  0
  4 42  1  0
 42 43  1  0
 43 44  1  0
 43 45  1  0
 43 46  1  0
 42 47  1  0
 47 48  1  0
 47  2  2  0
 37 12  2  0
 27 21  2  0
 33 28  1  0
M  CHG  1  36  -1
M  END
>  <UniqueID>  (34) 
29

>  <SMILES>  (34) 
Cc1[n-]/c(=N\C(=O)Cc2sccc2C2CC2)sc1C(=O)NCc1nccn1C

>  <Energy>  (34) 
399.6126781531001

>  <Genealogy>  (34) 
Cc1[n-]c(=NC(=O)Cc2sccc2C2CC2)sc1C(=O)NCc1nccn1C (protonated)
Cc1[n-]/c(=N\C(=O)Cc2sccc2C2CC2)sc1C(=O)NCc1nccn1C (cis-trans isomerization)
Cc1[n-]/c(=N\C(=O)Cc2sccc2C2CC2)sc1C(=O)NCc1nccn1C (3D coordinates assigned)
Cc1[n-]/c(=N\C(=O)Cc2sccc2C2CC2)sc1C(=O)NCc1nccn1C (nonaromatic ring conformer: 399.6126781531001 kcal/mol)

>  <smiles>  (34) 
Cc1[nH]c(=NC(=O)Cc2sccc2C2CC2)sc1C(=O)NCc1nccn1C

>  <score_type>  (34) 
oracle

>  <origin>  (34) 
adg

>  <m_score__min__energy>  (34) 
-9.5399999999999991

>  <m_primary>  (34) 
energy

$$$$
34:0
     RDKit          3D

 51 53  0  0  0  0  0  0  0  0999 V2000
   58.0610   32.3410   49.1960 O   0  0  0  0  0  0  0  0  0  0  0  0
   58.3600   32.3590   47.9700 C   0  0  0  0  0  0  0  0  0  0  0  0
   57.9360   33.5210   47.1310 C   0  0  0  0  0  0  0  0  0  0  0  0
   58.9000   33.5980   45.6300 S   0  0  0  0  0  0  0  0  0  0  0  0
   60.3040   33.1360   45.8990 O   0  0  0  0  0  0  0  0  0  0  0  0
   58.9510   35.0180   45.1460 O   0  0  0  0  0  0  0  0  0  0  0  0
   58.1600   32.5870   44.3900 C   0  0  0  0  0  0  0  0  0  0  0  0
   58.4810   32.7910   43.0430 C   0  0  0  0  0  0  0  0  0  0  0  0
   57.9030   31.9950   42.0530 C   0  0  0  0  0  0  0  0  0  0  0  0
   56.9910   30.9980   42.4020 C   0  0  0  0  0  0  0  0  0  0  0  0
   56.6480   30.7880   43.7470 C   0  0  0  0  0  0  0  0  0  0  0  0
   55.6620   29.7470   44.1180 C   0  0  0  0  0  0  0  0  0  0  0  0
   54.6440   29.5770   43.3990 O   0  0  0  0  0  0  0  0  0  0  0  0
   55.8630   28.8800   45.2410 N   0  0  0  0  0  0  0  0  0  0  0  0
   57.0490   28.1250   45.5210 C   0  0  0  0  0  0  0  0  0  0  0  0
   56.9900   26.8480   46.1080 C   0  0  0  0  0  0  0  0  0  0  0  0
   58.1640   26.1270   46.3380 C   0  0  0  0  0  0  0  0  0  0  0  0
   59.4020   26.6630   45.9720 C   0  0  0  0  0  0  0  0  0  0  0  0
   59.4680   27.9240   45.3700 C   0  0  0  0  0  0  0  0  0  0  0  0
   61.0170   28.5850   44.8820 Cl  0  0  0  0  0  0  0  0  0  0  0  0
   58.2910   28.6470   45.1390 C   0  0  0  0  0  0  0  0  0  0  0  0
   57.2360   31.5930   44.7380 C   0  0  0  0  0  0  0  0  0  0  0  0
   59.1150   31.2850   47.3940 N   0  0  0  0  0  0  0  0  0  0  0  0
   59.6310   30.1710   48.1850 C   0  0  0  0  0  0  0  0  0  0  0  0
   61.1510   30.0590   48.0310 C   0  0  0  0  0  0  0  0  0  0  0  0
   61.7990   31.4110   48.1310 C   0  0  0  0  0  0  0  0  0  0  0  0
   61.4350   32.2990   49.1580 C   0  0  0  0  0  0  0  0  0  0  0  0
   62.0250   33.5630   49.2370 C   0  0  0  0  0  0  0  0  0  0  0  0
   62.9730   33.9520   48.2900 C   0  0  0  0  0  0  0  0  0  0  0  0
   63.3270   33.0800   47.2560 C   0  0  0  0  0  0  0  0  0  0  0  0
   62.7400   31.8170   47.1710 C   0  0  0  0  0  0  0  0  0  0  0  0
   56.8725   33.4111   46.8723 H   0  0  0  0  0  0  0  0  0  0  0  0
   58.0951   34.4474   47.7023 H   0  0  0  0  0  0  0  0  0  0  0  0
   59.1921   33.5823   42.7634 H   0  0  0  0  0  0  0  0  0  0  0  0
   58.1665   32.1536   40.9969 H   0  0  0  0  0  0  0  0  0  0  0  0
   56.5381   30.3728   41.6184 H   0  0  0  0  0  0  0  0  0  0  0  0
   56.0173   26.4163   46.3865 H   0  0  0  0  0  0  0  0  0  0  0  0
   58.1142   25.1341   46.8087 H   0  0  0  0  0  0  0  0  0  0  0  0
   60.3244   26.0932   46.1574 H   0  0  0  0  0  0  0  0  0  0  0  0
   58.3426   29.6328   44.6536 H   0  0  0  0  0  0  0  0  0  0  0  0
   56.9688   31.4415   45.7942 H   0  0  0  0  0  0  0  0  0  0  0  0
   59.2680   31.2720   46.3600 H   0  0  0  0  0  0  0  0  0  0  0  0
   59.3862   30.3360   49.2446 H   0  0  0  0  0  0  0  0  0  0  0  0
   59.1687   29.2387   47.8284 H   0  0  0  0  0  0  0  0  0  0  0  0
   61.5470   29.4097   48.8257 H   0  0  0  0  0  0  0  0  0  0  0  0
   61.3745   29.6334   47.0416 H   0  0  0  0  0  0  0  0  0  0  0  0
   60.6830   31.9977   49.9021 H   0  0  0  0  0  0  0  0  0  0  0  0
   61.7419   34.2520   50.0464 H   0  0  0  0  0  0  0  0  0  0  0  0
   63.4419   34.9448   48.3569 H   0  0  0  0  0  0  0  0  0  0  0  0
   64.0705   33.3906   46.5072 H   0  0  0  0  0  0  0  0  0  0  0  0
   63.0149   31.1380   46.3504 H   0  0  0  0  0  0  0  0  0  0  0  0
  1  2  2  0
  2  3  1  0
  3  4  1  0
  4  5  2  0
  4  6  2  0
  4  7  1  0
  7  8  2  0
  8  9  1  0
  9 10  2  0
 10 11  1  0
 11 12  1  0
 12 13  2  0
 12 14  1  0
 14 15  1  0
 15 16  2  0
 16 17  1  0
 17 18  2  0
 18 19  1  0
 19 20  1  0
 19 21  2  0
 11 22  2  0
  2 23  1  0
 23 24  1  0
 24 25  1  0
 25 26  1  0
 26 27  2  0
 27 28  1  0
 28 29  2  0
 29 30  1  0
 30 31  2  0
 22  7  1  0
 31 26  1  0
 21 15  1  0
  3 32  1  0
  3 33  1  0
  8 34  1  0
  9 35  1  0
 10 36  1  0
 16 37  1  0
 17 38  1  0
 18 39  1  0
 21 40  1  0
 22 41  1  0
 23 42  1  0
 24 43  1  0
 24 44  1  0
 25 45  1  0
 25 46  1  0
 27 47  1  0
 28 48  1  0
 29 49  1  0
 30 50  1  0
 31 51  1  0
M  CHG  1  14  -1
M  END
>  <UniqueID>  (35) 
30

>  <SMILES>  (35) 
O=C(CS(=O)(=O)c1cccc(C(=O)[N-]c2cccc(Cl)c2)c1)NCCc1ccccc1

>  <Energy>  (35) 
49.2392765841645

>  <Genealogy>  (35) 
O=C(CS(=O)(=O)c1cccc(C(=O)[N-]c2cccc(Cl)c2)c1)NCCc1ccccc1 (protonated)
O=C(CS(=O)(=O)c1cccc(C(=O)[N-]c2cccc(Cl)c2)c1)NCCc1ccccc1 (3D coordinates assigned)
O=C(CS(=O)(=O)c1cccc(C(=O)[N-]c2cccc(Cl)c2)c1)NCCc1ccccc1 (optimized conformer: 49.2392765841645 kcal/mol)

>  <smiles>  (35) 
O=C(CS(=O)(=O)c1cccc(C(=O)Nc2cccc(Cl)c2)c1)NCCc1ccccc1

>  <score_type>  (35) 
oracle

>  <origin>  (35) 
adg

>  <m_score__min__energy>  (35) 
-11.25

>  <m_primary>  (35) 
energy

$$$$
35:0
     RDKit          3D

 32 33  0  0  0  0  0  0  0  0999 V2000
   57.3090   31.0900   43.3620 C   0  0  0  0  0  0  0  0  0  0  0  0
   56.6430   30.4570   44.4500 O   0  0  0  0  0  0  0  0  0  0  0  0
   56.8990   29.1360   44.8270 C   0  0  0  0  0  0  0  0  0  0  0  0
   58.2030   28.6410   44.7520 C   0  0  0  0  0  0  0  0  0  0  0  0
   58.4610   27.3240   45.1340 C   0  0  0  0  0  0  0  0  0  0  0  0
   57.4200   26.5090   45.6040 C   0  0  0  0  0  0  0  0  0  0  0  0
   57.7100   25.1140   46.0120 C   0  0  0  0  0  0  0  0  0  0  0  0
   57.8600   24.8580   47.2380 O   0  0  0  0  0  0  0  0  0  0  0  0
   57.8150   24.0500   45.0470 N   0  0  0  0  0  0  0  0  0  0  0  0
   58.6770   22.8970   45.3470 C   0  0  0  0  0  0  0  0  0  0  0  0
   58.8480   21.9950   44.1200 C   0  0  0  0  0  0  0  0  0  0  0  0
   57.4920   21.5630   43.5350 C   0  0  0  0  0  0  0  0  0  0  0  0
   56.4150   22.6670   43.5740 C   0  0  0  0  0  0  0  0  0  0  0  0
   57.0030   24.0600   43.8200 C   0  0  0  0  0  0  0  0  0  0  0  0
   56.1160   27.0390   45.6400 C   0  0  0  0  0  0  0  0  0  0  0  0
   55.1400   26.3280   45.9980 O   0  0  0  0  0  0  0  0  0  0  0  0
   55.8940   28.3260   45.2620 N   0  0  0  0  0  0  0  0  0  0  0  0
   58.0548   31.7988   43.7510 H   0  0  0  0  0  0  0  0  0  0  0  0
   57.8121   30.3290   42.7473 H   0  0  0  0  0  0  0  0  0  0  0  0
   56.5746   31.6311   42.7473 H   0  0  0  0  0  0  0  0  0  0  0  0
   59.0203   29.2846   44.3945 H   0  0  0  0  0  0  0  0  0  0  0  0
   59.4833   26.9236   45.0665 H   0  0  0  0  0  0  0  0  0  0  0  0
   59.6652   23.2614   45.6643 H   0  0  0  0  0  0  0  0  0  0  0  0
   58.2037   22.3087   46.1469 H   0  0  0  0  0  0  0  0  0  0  0  0
   59.4093   22.5442   43.3498 H   0  0  0  0  0  0  0  0  0  0  0  0
   59.3890   21.0900   44.4336 H   0  0  0  0  0  0  0  0  0  0  0  0
   57.6456   21.2657   42.4871 H   0  0  0  0  0  0  0  0  0  0  0  0
   57.1239   20.7352   44.1588 H   0  0  0  0  0  0  0  0  0  0  0  0
   55.8841   22.6745   42.6106 H   0  0  0  0  0  0  0  0  0  0  0  0
   55.7379   22.4403   44.4107 H   0  0  0  0  0  0  0  0  0  0  0  0
   57.6353   24.3452   42.9663 H   0  0  0  0  0  0  0  0  0  0  0  0
   56.1833   24.7848   43.9334 H   0  0  0  0  0  0  0  0  0  0  0  0
  1  2  1  0
  2  3  1  0
  3  4  2  0
  4  5  1  0
  5  6  2  0
  6  7  1  0
  7  8  2  0
  7  9  1  0
  9 10  1  0
 10 11  1  0
 11 12  1  0
 12 13  1  0
 13 14  1  0
  6 15  1  0
 15 16  2  0
 15 17  1  0
 17  3  1  0
 14  9  1  0
  1 18  1  0
  1 19  1  0
  1 20  1  0
  4 21  1  0
  5 22  1  0
 10 23  1  0
 10 24  1  0
 11 25  1  0
 11 26  1  0
 12 27  1  0
 12 28  1  0
 13 29  1  0
 13 30  1  0
 14 31  1  0
 14 32  1  0
M  CHG  1  17  -1
M  END
>  <UniqueID>  (36) 
31

>  <SMILES>  (36) 
COc1ccc(C(=O)N2CCCCC2)c(=O)[n-]1

>  <Energy>  (36) 
36.82766421592962

>  <Genealogy>  (36) 
COc1ccc(C(=O)N2CCCCC2)c(=O)[n-]1 (protonated)
COc1ccc(C(=O)N2CCCCC2)c(=O)[n-]1 (3D coordinates assigned)
COc1ccc(C(=O)N2CCCCC2)c(=O)[n-]1 (nonaromatic ring conformer: 36.82766421592962 kcal/mol)

>  <smiles>  (36) 
COc1ccc(C(=O)N2CCCCC2)c(=O)[nH]1

>  <score_type>  (36) 
oracle

>  <origin>  (36) 
adg

>  <m_score__min__energy>  (36) 
-8.8100000000000005

>  <m_primary>  (36) 
energy

$$$$
36:0
     RDKit          3D

 22 23  0  0  0  0  0  0  0  0999 V2000
   55.2470   29.3740   44.8930 N   0  0  0  0  0  0  0  0  0  0  0  0
   56.8850   29.3200   44.3470 S   0  0  0  0  0  0  0  0  0  0  0  0
   57.1970   30.5940   43.6130 O   0  0  0  0  0  0  0  0  0  0  0  0
   57.0710   28.1700   43.3960 O   0  0  0  0  0  0  0  0  0  0  0  0
   57.9690   29.1380   45.7360 C   0  0  0  0  0  0  0  0  0  0  0  0
   58.9040   30.1560   45.9900 C   0  0  0  0  0  0  0  0  0  0  0  0
   59.8200   30.0380   47.0370 C   0  0  0  0  0  0  0  0  0  0  0  0
   59.8140   28.9030   47.8440 C   0  0  0  0  0  0  0  0  0  0  0  0
   58.8870   27.8860   47.6150 C   0  0  0  0  0  0  0  0  0  0  0  0
   57.9510   27.9890   46.5690 C   0  0  0  0  0  0  0  0  0  0  0  0
   56.9610   26.9000   46.3970 C   0  0  0  0  0  0  0  0  0  0  0  0
   55.7080   27.0780   45.9400 N   0  0  0  0  0  0  0  0  0  0  0  0
   55.1720   25.8400   45.9950 C   0  0  0  0  0  0  0  0  0  0  0  0
   53.9910   25.5970   45.6380 O   0  0  0  0  0  0  0  0  0  0  0  0
   56.0020   24.8850   46.4670 N   0  0  0  0  0  0  0  0  0  0  0  0
   57.1270   25.5720   46.7200 C   0  0  0  0  0  0  0  0  0  0  0  0
   58.2870   24.9910   47.2210 O   0  0  0  0  0  0  0  0  0  0  0  0
   55.1480   28.6450   45.6340 H   0  0  0  0  0  0  0  0  0  0  0  0
   58.9142   31.0556   45.3570 H   0  0  0  0  0  0  0  0  0  0  0  0
   60.5469   30.8420   47.2246 H   0  0  0  0  0  0  0  0  0  0  0  0
   60.5416   28.8083   48.6635 H   0  0  0  0  0  0  0  0  0  0  0  0
   58.8876   26.9941   48.2588 H   0  0  0  0  0  0  0  0  0  0  0  0
  1  2  1  0
  2  3  2  0
  2  4  2  0
  2  5  1  0
  5  6  2  0
  6  7  1  0
  7  8  2  0
  8  9  1  0
  9 10  2  0
 10 11  1  0
 11 12  1  0
 12 13  1  0
 13 14  2  0
 13 15  1  0
 15 16  1  0
 16 17  1  0
 10  5  1  0
 16 11  2  0
  1 18  1  0
  6 19  1  0
  7 20  1  0
  8 21  1  0
  9 22  1  0
M  CHG  4   1  -1  12  -1  15  -1  17  -1
M  END
>  <UniqueID>  (37) 
32

>  <SMILES>  (37) 
[NH-]S(=O)(=O)c1ccccc1-c1[n-]c(=O)[n-]c1[O-]

>  <Energy>  (37) 
59.18445353269705

>  <Genealogy>  (37) 
[NH-]S(=O)(=O)c1ccccc1-c1[n-]c(=O)[n-]c1[O-] (protonated)
[NH-]S(=O)(=O)c1ccccc1-c1[n-]c(=O)[n-]c1[O-] (3D coordinates assigned)
[NH-]S(=O)(=O)c1ccccc1-c1[n-]c(=O)[n-]c1[O-] (optimized conformer: 59.18445353269705 kcal/mol)

>  <smiles>  (37) 
NS(=O)(=O)c1ccccc1-c1[nH]c(=O)[nH]c1O

>  <score_type>  (37) 
oracle

>  <origin>  (37) 
adg

>  <m_score__min__energy>  (37) 
-15.609999999999999

>  <m_primary>  (37) 
energy

$$$$
37:0
     RDKit          3D

 38 39  0  0  0  0  0  0  0  0999 V2000
   59.5250   35.4650   45.2740 C   0  0  0  0  0  0  0  0  0  0  0  0
   59.2630   34.4440   46.3500 C   0  0  0  0  0  0  0  0  0  0  0  0
   60.2170   34.2500   47.3610 C   0  0  0  0  0  0  0  0  0  0  0  0
   60.0030   33.3140   48.3730 C   0  0  0  0  0  0  0  0  0  0  0  0
   58.8300   32.5440   48.3970 C   0  0  0  0  0  0  0  0  0  0  0  0
   58.6200   31.5290   49.4550 C   0  0  0  0  0  0  0  0  0  0  0  0
   58.1090   31.8570   50.5600 O   0  0  0  0  0  0  0  0  0  0  0  0
   58.9810   30.1650   49.2170 N   0  0  0  0  0  0  0  0  0  0  0  0
   60.1490   29.7670   48.4460 C   0  0  0  0  0  0  0  0  0  0  0  0
   59.7660   29.5770   46.9770 C   0  0  0  0  0  0  0  0  0  0  0  0
   58.1420   28.7510   46.7780 S   0  0  0  0  0  0  0  0  0  0  0  0
   57.6510   29.6240   45.2840 C   0  0  0  0  0  0  0  0  0  0  0  0
   58.5140   30.5790   44.7280 C   0  0  0  0  0  0  0  0  0  0  0  0
   58.1420   31.2790   43.5770 C   0  0  0  0  0  0  0  0  0  0  0  0
   56.9020   31.0350   42.9810 C   0  0  0  0  0  0  0  0  0  0  0  0
   56.0310   30.0950   43.5380 C   0  0  0  0  0  0  0  0  0  0  0  0
   56.3990   29.3920   44.6920 C   0  0  0  0  0  0  0  0  0  0  0  0
   55.5180   28.4670   45.2420 O   0  0  0  0  0  0  0  0  0  0  0  0
   57.8640   32.7430   47.3940 C   0  0  0  0  0  0  0  0  0  0  0  0
   58.0650   33.6910   46.3750 C   0  0  0  0  0  0  0  0  0  0  0  0
   57.0120   33.8660   45.3130 C   0  0  0  0  0  0  0  0  0  0  0  0
   59.7729   36.4311   45.7378 H   0  0  0  0  0  0  0  0  0  0  0  0
   60.3667   35.1315   44.6492 H   0  0  0  0  0  0  0  0  0  0  0  0
   58.6268   35.5780   44.6492 H   0  0  0  0  0  0  0  0  0  0  0  0
   61.1437   34.8426   47.3553 H   0  0  0  0  0  0  0  0  0  0  0  0
   60.7604   33.1783   49.1591 H   0  0  0  0  0  0  0  0  0  0  0  0
   60.9200   30.5477   48.5234 H   0  0  0  0  0  0  0  0  0  0  0  0
   60.5380   28.8180   48.8435 H   0  0  0  0  0  0  0  0  0  0  0  0
   59.7217   30.5639   46.4932 H   0  0  0  0  0  0  0  0  0  0  0  0
   60.5280   28.9337   46.5128 H   0  0  0  0  0  0  0  0  0  0  0  0
   59.4876   30.7780   45.1996 H   0  0  0  0  0  0  0  0  0  0  0  0
   58.8254   32.0221   43.1402 H   0  0  0  0  0  0  0  0  0  0  0  0
   56.6113   31.5832   42.0727 H   0  0  0  0  0  0  0  0  0  0  0  0
   55.0540   29.9067   43.0690 H   0  0  0  0  0  0  0  0  0  0  0  0
   56.9384   32.1487   47.4070 H   0  0  0  0  0  0  0  0  0  0  0  0
   56.0340   34.0285   45.7896 H   0  0  0  0  0  0  0  0  0  0  0  0
   57.2636   34.7346   44.6868 H   0  0  0  0  0  0  0  0  0  0  0  0
   56.9691   32.9627   44.6868 H   0  0  0  0  0  0  0  0  0  0  0  0
  1  2  1  0
  2  3  2  0
  3  4  1  0
  4  5  2  0
  5  6  1  0
  6  7  2  0
  6  8  1  0
  8  9  1  0
  9 10  1  0
 10 11  1  0
 11 12  1  0
 12 13  2  0
 13 14  1  0
 14 15  2  0
 15 16  1  0
 16 17  2  0
 17 18  1  0
  5 19  1  0
 19 20  2  0
 20 21  1  0
 20  2  1  0
 17 12  1  0
  1 22  1  0
  1 23  1  0
  1 24  1  0
  3 25  1  0
  4 26  1  0
  9 27  1  0
  9 28  1  0
 10 29  1  0
 10 30  1  0
 13 31  1  0
 14 32  1  0
 15 33  1  0
 16 34  1  0
 19 35  1  0
 21 36  1  0
 21 37  1  0
 21 38  1  0
M  CHG  2   8  -1  18  -1
M  END
>  <UniqueID>  (38) 
33

>  <SMILES>  (38) 
Cc1ccc(C(=O)[N-]CCSc2ccccc2[O-])cc1C

>  <Energy>  (38) 
30.363563759364716

>  <Genealogy>  (38) 
Cc1ccc(C(=O)[N-]CCSc2ccccc2[O-])cc1C (protonated)
Cc1ccc(C(=O)[N-]CCSc2ccccc2[O-])cc1C (3D coordinates assigned)
Cc1ccc(C(=O)[N-]CCSc2ccccc2[O-])cc1C (optimized conformer: 30.363563759364716 kcal/mol)

>  <smiles>  (38) 
Cc1ccc(C(=O)NCCSc2ccccc2O)cc1C

>  <score_type>  (38) 
oracle

>  <origin>  (38) 
adg

>  <m_score__min__energy>  (38) 
-12.949999999999999

>  <m_primary>  (38) 
energy

$$$$
38:0
     RDKit          3D

 49 51  0  0  0  0  0  0  0  0999 V2000
   58.1230   28.2410   53.3170 C   0  0  0  0  0  0  0  0  0  0  0  0
   57.7390   29.4130   52.4660 C   0  0  0  0  0  0  0  0  0  0  0  0
   56.4620   29.8480   52.3750 N   0  0  0  0  0  0  0  0  0  0  0  0
   56.5310   30.9360   51.5850 C   0  0  0  0  0  0  0  0  0  0  0  0
   57.8410   31.1480   51.2240 C   0  0  0  0  0  0  0  0  0  0  0  0
   58.3090   32.2610   50.4480 N   0  0  0  0  0  0  0  0  0  0  0  0
   58.8160   33.2590   50.9980 O   0  0  0  0  0  0  0  0  0  0  0  0
   58.0490   32.3060   49.0980 O   0  0  0  0  0  0  0  0  0  0  0  0
   58.6100   30.1710   51.7570 N   0  0  0  0  0  0  0  0  0  0  0  0
   60.0610   29.9740   51.6180 C   0  0  0  0  0  0  0  0  0  0  0  0
   60.4890   30.0030   50.1630 C   0  0  0  0  0  0  0  0  0  0  0  0
   59.9740   29.1800   49.3000 N   0  0  0  0  0  0  0  0  0  0  0  0
   60.5310   28.9630   48.0570 O   0  0  0  0  0  0  0  0  0  0  0  0
   60.1860   29.7600   46.9690 C   0  0  0  0  0  0  0  0  0  0  0  0
   60.8340   29.6770   45.8900 O   0  0  0  0  0  0  0  0  0  0  0  0
   59.0980   30.6820   47.0920 N   0  0  0  0  0  0  0  0  0  0  0  0
   58.6410   31.4750   45.9900 C   0  0  0  0  0  0  0  0  0  0  0  0
   59.0010   32.8300   45.9390 C   0  0  0  0  0  0  0  0  0  0  0  0
   58.5960   33.6300   44.8690 C   0  0  0  0  0  0  0  0  0  0  0  0
   57.8220   33.0850   43.8440 C   0  0  0  0  0  0  0  0  0  0  0  0
   57.4360   31.7440   43.8940 C   0  0  0  0  0  0  0  0  0  0  0  0
   57.8250   30.9290   44.9700 C   0  0  0  0  0  0  0  0  0  0  0  0
   57.2380   29.2620   45.0320 S   0  0  0  0  0  0  0  0  0  0  0  0
   55.5160   29.2420   44.8750 N   0  0  0  0  0  0  0  0  0  0  0  0
   57.8460   28.4690   43.9100 O   0  0  0  0  0  0  0  0  0  0  0  0
   57.5990   28.6320   46.3480 O   0  0  0  0  0  0  0  0  0  0  0  0
   61.4800   30.9960   49.6850 C   0  0  0  0  0  0  0  0  0  0  0  0
   61.0740   32.0710   48.8750 C   0  0  0  0  0  0  0  0  0  0  0  0
   62.0050   33.0170   48.4360 C   0  0  0  0  0  0  0  0  0  0  0  0
   63.3490   32.8960   48.7960 C   0  0  0  0  0  0  0  0  0  0  0  0
   64.2510   33.8150   48.3690 F   0  0  0  0  0  0  0  0  0  0  0  0
   63.7660   31.8260   49.5920 C   0  0  0  0  0  0  0  0  0  0  0  0
   62.8390   30.8760   50.0340 C   0  0  0  0  0  0  0  0  0  0  0  0
   63.2640   29.8600   50.8280 F   0  0  0  0  0  0  0  0  0  0  0  0
   58.0336   28.5139   54.3788 H   0  0  0  0  0  0  0  0  0  0  0  0
   57.4552   27.3947   53.0984 H   0  0  0  0  0  0  0  0  0  0  0  0
   59.1622   27.9540   53.0984 H   0  0  0  0  0  0  0  0  0  0  0  0
   55.6762   31.5562   51.2774 H   0  0  0  0  0  0  0  0  0  0  0  0
   60.5841   30.7753   52.1605 H   0  0  0  0  0  0  0  0  0  0  0  0
   60.3169   28.9881   52.0335 H   0  0  0  0  0  0  0  0  0  0  0  0
   58.7430   30.9060   48.0480 H   0  0  0  0  0  0  0  0  0  0  0  0
   59.6066   33.2651   46.7477 H   0  0  0  0  0  0  0  0  0  0  0  0
   58.8871   34.6902   44.8340 H   0  0  0  0  0  0  0  0  0  0  0  0
   57.5152   33.7131   42.9947 H   0  0  0  0  0  0  0  0  0  0  0  0
   56.8223   31.3224   43.0843 H   0  0  0  0  0  0  0  0  0  0  0  0
   55.1490   28.6130   45.6240 H   0  0  0  0  0  0  0  0  0  0  0  0
   60.0174   32.1683   48.5849 H   0  0  0  0  0  0  0  0  0  0  0  0
   61.6786   33.8577   47.8062 H   0  0  0  0  0  0  0  0  0  0  0  0
   64.8255   31.7304   49.8717 H   0  0  0  0  0  0  0  0  0  0  0  0
  1  2  1  0
  2  3  2  0
  3  4  1  0
  4  5  2  0
  5  6  1  0
  6  7  2  0
  6  8  1  0
  5  9  1  0
  9 10  1  0
 10 11  1  0
 11 12  2  3
 12 13  1  0
 13 14  1  0
 14 15  2  0
 14 16  1  0
 16 17  1  0
 17 18  2  0
 18 19  1  0
 19 20  2  0
 20 21  1  0
 21 22  2  0
 22 23  1  0
 23 24  1  0
 23 25  2  0
 23 26  2  0
 11 27  1  0
 27 28  2  0
 28 29  1  0
 29 30  2  0
 30 31  1  0
 30 32  1  0
 32 33  2  0
 33 34  1  0
  9  2  1  0
 22 17  1  0
 33 27  1  0
  1 35  1  0
  1 36  1  0
  1 37  1  0
  4 38  1  0
 10 39  1  0
 10 40  1  0
 16 41  1  0
 18 42  1  0
 19 43  1  0
 20 44  1  0
 21 45  1  0
 24 46  1  0
 28 47  1  0
 29 48  1  0
 32 49  1  0
M  CHG  3   6   1   8  -1  24  -1
M  END
>  <UniqueID>  (39) 
34

>  <SMILES>  (39) 
Cc1ncc([N+](=O)[O-])n1CC(=NOC(=O)Nc1ccccc1S([NH-])(=O)=O)c1ccc(F)cc1F

>  <Energy>  (39) 
91.2183911642274

>  <Genealogy>  (39) 
Cc1ncc([N+](=O)[O-])n1CC(=NOC(=O)Nc1ccccc1S([NH-])(=O)=O)c1ccc(F)cc1F (protonated)
Cc1ncc([N+](=O)[O-])n1CC(=NOC(=O)Nc1ccccc1S([NH-])(=O)=O)c1ccc(F)cc1F (3D coordinates assigned)
Cc1ncc([N+](=O)[O-])n1CC(=NOC(=O)Nc1ccccc1S([NH-])(=O)=O)c1ccc(F)cc1F (optimized conformer: 91.2183911642274 kcal/mol)

>  <smiles>  (39) 
Cc1ncc([N+](=O)[O-])n1CC(=NOC(=O)Nc1ccccc1S(N)(=O)=O)c1ccc(F)cc1F

>  <score_type>  (39) 
oracle

>  <origin>  (39) 
adg

>  <m_score__min__energy>  (39) 
-11.640000000000001

>  <m_primary>  (39) 
energy

$$$$
39:0
     RDKit          3D

 36 38  0  0  0  0  0  0  0  0999 V2000
   55.1370   29.3340   44.3400 N   0  0  0  0  0  0  0  0  0  0  0  0
   56.5960   29.7580   43.5180 S   0  0  0  0  0  0  0  0  0  0  0  0
   56.2690   30.5930   42.3120 O   0  0  0  0  0  0  0  0  0  0  0  0
   57.2960   28.5080   43.0650 O   0  0  0  0  0  0  0  0  0  0  0  0
   57.6410   30.6670   44.6070 C   0  0  0  0  0  0  0  0  0  0  0  0
   58.6750   30.0190   45.2950 C   0  0  0  0  0  0  0  0  0  0  0  0
   59.5130   30.7420   46.1480 C   0  0  0  0  0  0  0  0  0  0  0  0
   59.3380   32.1240   46.3110 C   0  0  0  0  0  0  0  0  0  0  0  0
   60.2050   32.8540   47.1970 N   0  0  0  0  0  0  0  0  0  0  0  0
   61.2760   33.7160   46.7230 C   0  0  0  0  0  0  0  0  0  0  0  0
   62.2350   33.8130   47.9170 C   0  0  0  0  0  0  0  0  0  0  0  0
   61.5860   33.0660   48.9870 N   0  0  0  0  0  0  0  0  0  0  0  0
   60.4840   32.5520   48.5620 C   0  0  0  0  0  0  0  0  0  0  0  0
   59.5710   31.8170   49.4650 C   0  0  0  0  0  0  0  0  0  0  0  0
   59.5910   30.4130   49.5230 C   0  0  0  0  0  0  0  0  0  0  0  0
   58.7220   29.7270   50.3770 C   0  0  0  0  0  0  0  0  0  0  0  0
   57.8150   30.4360   51.1750 C   0  0  0  0  0  0  0  0  0  0  0  0
   56.9450   29.7630   52.0310 O   0  0  0  0  0  0  0  0  0  0  0  0
   57.7790   31.8320   51.1100 C   0  0  0  0  0  0  0  0  0  0  0  0
   58.6470   32.5200   50.2580 C   0  0  0  0  0  0  0  0  0  0  0  0
   58.2920   32.7690   45.6280 C   0  0  0  0  0  0  0  0  0  0  0  0
   57.4550   32.0440   44.7750 C   0  0  0  0  0  0  0  0  0  0  0  0
   55.1490   28.2970   44.4680 H   0  0  0  0  0  0  0  0  0  0  0  0
   58.8277   28.9376   45.1633 H   0  0  0  0  0  0  0  0  0  0  0  0
   60.3147   30.2242   46.6949 H   0  0  0  0  0  0  0  0  0  0  0  0
   61.7799   33.2701   45.8528 H   0  0  0  0  0  0  0  0  0  0  0  0
   60.9112   34.7001   46.3936 H   0  0  0  0  0  0  0  0  0  0  0  0
   63.2081   33.3645   47.6681 H   0  0  0  0  0  0  0  0  0  0  0  0
   62.4320   34.8566   48.2037 H   0  0  0  0  0  0  0  0  0  0  0  0
   60.2949   29.8501   48.8924 H   0  0  0  0  0  0  0  0  0  0  0  0
   58.7507   28.6283   50.4223 H   0  0  0  0  0  0  0  0  0  0  0  0
   56.1840   29.1970   51.6740 H   0  0  0  0  0  0  0  0  0  0  0  0
   57.0645   32.3911   51.7320 H   0  0  0  0  0  0  0  0  0  0  0  0
   58.6071   33.6181   50.2074 H   0  0  0  0  0  0  0  0  0  0  0  0
   58.1316   33.8485   45.7654 H   0  0  0  0  0  0  0  0  0  0  0  0
   56.6469   32.5577   44.2336 H   0  0  0  0  0  0  0  0  0  0  0  0
  1  2  1  0
  2  3  2  0
  2  4  2  0
  2  5  1  0
  5  6  2  0
  6  7  1  0
  7  8  2  0
  8  9  1  0
  9 10  1  0
 10 11  1  0
 11 12  1  0
 12 13  2  0
 13 14  1  0
 14 15  2  0
 15 16  1  0
 16 17  2  0
 17 18  1  0
 17 19  1  0
 19 20  2  0
  8 21  1  0
 21 22  2  0
 22  5  1  0
 13  9  1  0
 20 14  1  0
  1 23  1  0
  6 24  1  0
  7 25  1  0
 10 26  1  0
 10 27  1  0
 11 28  1  0
 11 29  1  0
 15 30  1  0
 16 31  1  0
 18 32  1  0
 19 33  1  0
 20 34  1  0
 21 35  1  0
 22 36  1  0
M  CHG  1   1  -1
M  END
>  <UniqueID>  (40) 
35

>  <SMILES>  (40) 
[NH-]S(=O)(=O)c1ccc(N2CCN=C2c2ccc(O)cc2)cc1

>  <Energy>  (40) 
56.68378032826132

>  <Genealogy>  (40) 
[NH-]S(=O)(=O)c1ccc(N2CCN=C2c2ccc(O)cc2)cc1 (protonated)
[NH-]S(=O)(=O)c1ccc(N2CCN=C2c2ccc(O)cc2)cc1 (3D coordinates assigned)
[NH-]S(=O)(=O)c1ccc(N2CCN=C2c2ccc(O)cc2)cc1 (nonaromatic ring conformer: 56.68378032826132 kcal/mol)

>  <smiles>  (40) 
NS(=O)(=O)c1ccc(N2CCN=C2c2ccc(O)cc2)cc1

>  <score_type>  (40) 
oracle

>  <origin>  (40) 
adg

>  <m_score__min__energy>  (40) 
-9.4100000000000001

>  <m_primary>  (40) 
energy

$$$$
40:0
     RDKit          3D

 49 52  0  0  0  0  0  0  0  0999 V2000
   56.1480   30.1570   42.7680 O   0  0  0  0  0  0  0  0  0  0  0  0
   56.0870   30.0630   44.0220 C   0  0  0  0  0  0  0  0  0  0  0  0
   55.0430   29.3360   44.5830 O   0  0  0  0  0  0  0  0  0  0  0  0
   57.1030   30.7120   44.8940 C   0  0  0  0  0  0  0  0  0  0  0  0
   57.3140   32.0960   44.7700 C   0  0  0  0  0  0  0  0  0  0  0  0
   58.2530   32.7530   45.5620 C   0  0  0  0  0  0  0  0  0  0  0  0
   59.0090   32.0450   46.5060 C   0  0  0  0  0  0  0  0  0  0  0  0
   59.9790   32.7290   47.3350 N   0  0  0  0  0  0  0  0  0  0  0  0
   59.5160   33.5020   48.5040 C   0  0  0  0  0  0  0  0  0  0  0  0
   60.5250   34.5760   48.9140 C   0  0  0  0  0  0  0  0  0  0  0  0
   61.8790   33.9600   49.0880 C   0  0  0  0  0  0  0  0  0  0  0  0
   62.7360   34.3760   50.1180 C   0  0  0  0  0  0  0  0  0  0  0  0
   64.0080   33.8100   50.2430 C   0  0  0  0  0  0  0  0  0  0  0  0
   64.4350   32.8400   49.3340 C   0  0  0  0  0  0  0  0  0  0  0  0
   63.5910   32.4320   48.2960 C   0  0  0  0  0  0  0  0  0  0  0  0
   62.3050   32.9820   48.1740 C   0  0  0  0  0  0  0  0  0  0  0  0
   61.4160   32.5930   47.0180 C   0  0  0  0  0  0  0  0  0  0  0  0
   58.8090   30.6610   46.6330 C   0  0  0  0  0  0  0  0  0  0  0  0
   57.8650   29.9780   45.8370 C   0  0  0  0  0  0  0  0  0  0  0  0
   57.6430   28.5890   45.9520 O   0  0  0  0  0  0  0  0  0  0  0  0
   57.3920   27.6280   44.9180 C   0  0  0  0  0  0  0  0  0  0  0  0
   57.1940   26.1980   45.4730 C   0  0  0  0  0  0  0  0  0  0  0  0
   57.7710   25.1350   44.5260 C   0  0  0  0  0  0  0  0  0  0  0  0
   57.4630   25.4580   43.1270 N   0  0  0  0  0  0  0  0  0  0  0  0
   58.1350   26.6890   42.6630 C   0  0  0  0  0  0  0  0  0  0  0  0
   58.4270   27.7140   43.7810 C   0  0  0  0  0  0  0  0  0  0  0  0
   56.7286   32.6693   44.0361 H   0  0  0  0  0  0  0  0  0  0  0  0
   58.4023   33.8366   45.4454 H   0  0  0  0  0  0  0  0  0  0  0  0
   58.5615   33.9880   48.2535 H   0  0  0  0  0  0  0  0  0  0  0  0
   59.3975   32.8060   49.3475 H   0  0  0  0  0  0  0  0  0  0  0  0
   60.5731   35.3491   48.1329 H   0  0  0  0  0  0  0  0  0  0  0  0
   60.2072   35.0290   49.8647 H   0  0  0  0  0  0  0  0  0  0  0  0
   62.4065   35.1487   50.8282 H   0  0  0  0  0  0  0  0  0  0  0  0
   64.6735   34.1292   51.0586 H   0  0  0  0  0  0  0  0  0  0  0  0
   65.4364   32.3961   49.4343 H   0  0  0  0  0  0  0  0  0  0  0  0
   63.9358   31.6780   47.5731 H   0  0  0  0  0  0  0  0  0  0  0  0
   61.6503   33.2404   46.1601 H   0  0  0  0  0  0  0  0  0  0  0  0
   61.6083   31.5339   46.7917 H   0  0  0  0  0  0  0  0  0  0  0  0
   59.4010   30.0970   47.3689 H   0  0  0  0  0  0  0  0  0  0  0  0
   56.4279   27.8941   44.4600 H   0  0  0  0  0  0  0  0  0  0  0  0
   57.7002   26.1204   46.4465 H   0  0  0  0  0  0  0  0  0  0  0  0
   56.1138   26.0164   45.5742 H   0  0  0  0  0  0  0  0  0  0  0  0
   58.8627   25.0928   44.6541 H   0  0  0  0  0  0  0  0  0  0  0  0
   57.3180   24.1629   44.7705 H   0  0  0  0  0  0  0  0  0  0  0  0
   56.4260   25.5800   43.0340 H   0  0  0  0  0  0  0  0  0  0  0  0
   59.0905   26.4053   42.1976 H   0  0  0  0  0  0  0  0  0  0  0  0
   57.4453   27.1783   41.9595 H   0  0  0  0  0  0  0  0  0  0  0  0
   59.4272   27.5158   44.1938 H   0  0  0  0  0  0  0  0  0  0  0  0
   58.3731   28.7221   43.3442 H   0  0  0  0  0  0  0  0  0  0  0  0
  1  2  2  0
  2  3  1  0
  2  4  1  0
  4  5  2  0
  5  6  1  0
  6  7  2  0
  7  8  1  0
  8  9  1  0
  9 10  1  0
 10 11  1  0
 11 12  2  0
 12 13  1  0
 13 14  2  0
 14 15  1  0
 15 16  2  0
 16 17  1  0
  7 18  1  0
 18 19  2  0
 19 20  1  0
 20 21  1  0
 21 22  1  0
 22 23  1  0
 23 24  1  0
 24 25  1  0
 25 26  1  0
 19  4  1  0
 26 21  1  0
 17  8  1  0
 16 11  1  0
  5 27  1  0
  6 28  1  0
  9 29  1  0
  9 30  1  0
 10 31  1  0
 10 32  1  0
 12 33  1  0
 13 34  1  0
 14 35  1  0
 15 36  1  0
 17 37  1  0
 17 38  1  0
 18 39  1  0
 21 40  1  0
 22 41  1  0
 22 42  1  0
 23 43  1  0
 23 44  1  0
 24 45  1  0
 25 46  1  0
 25 47  1  0
 26 48  1  0
 26 49  1  0
M  CHG  1   3  -1
M  END
>  <UniqueID>  (41) 
36

>  <SMILES>  (41) 
O=C([O-])c1ccc(N2CCc3ccccc3C2)cc1OC1CCNCC1

>  <Energy>  (41) 
68.9384585810143

>  <Genealogy>  (41) 
O=C([O-])c1ccc(N2CCc3ccccc3C2)cc1OC1CCNCC1 (protonated)
O=C([O-])c1ccc(N2CCc3ccccc3C2)cc1OC1CCNCC1 (3D coordinates assigned)
O=C([O-])c1ccc(N2CCc3ccccc3C2)cc1OC1CCNCC1 (nonaromatic ring conformer: 68.9384585810143 kcal/mol)

>  <smiles>  (41) 
O=C(O)c1ccc(N2CCc3ccccc3C2)cc1OC1CCNCC1

>  <score_type>  (41) 
oracle

>  <origin>  (41) 
adg

>  <m_score__min__energy>  (41) 
-10.76

>  <m_primary>  (41) 
energy

$$$$
41:0
     RDKit          3D

 54 54  0  0  0  0  0  0  0  0999 V2000
   63.3750   34.0020   46.0210 O   0  0  0  0  0  0  0  0  0  0  0  0
   63.6570   33.4130   47.0520 C   0  0  0  0  0  0  0  0  0  0  0  0
   62.8510   32.2260   47.4810 C   0  0  0  0  0  0  0  0  0  0  0  0
   61.4360   32.5670   47.5740 N   0  0  0  0  0  0  0  0  0  0  0  0
   60.9550   33.7980   48.1320 C   0  0  0  0  0  0  0  0  0  0  0  0
   61.6270   34.4060   49.0090 O   0  0  0  0  0  0  0  0  0  0  0  0
   59.6350   34.3520   47.6950 C   0  0  0  0  0  0  0  0  0  0  0  0
   59.4500   34.3190   46.1700 C   0  0  0  0  0  0  0  0  0  0  0  0
   58.0020   34.5990   45.7090 C   0  0  0  0  0  0  0  0  0  0  0  0
   57.3650   33.5000   44.8290 C   0  0  0  0  0  0  0  0  0  0  0  0
   57.4630   32.0610   45.3800 C   0  0  0  0  0  0  0  0  0  0  0  0
   58.3660   31.0980   44.5750 C   0  0  0  0  0  0  0  0  0  0  0  0
   59.3470   30.2870   45.4450 C   0  0  0  0  0  0  0  0  0  0  0  0
   59.5260   28.8250   44.9740 C   0  0  0  0  0  0  0  0  0  0  0  0
   59.3610   27.8360   46.1430 C   0  0  0  0  0  0  0  0  0  0  0  0
   60.3040   26.6340   46.0260 C   0  0  0  0  0  0  0  0  0  0  0  0
   59.7470   25.4700   46.7050 N   0  0  0  0  0  0  0  0  0  0  0  0
   59.1400   24.3840   45.9930 C   0  0  0  0  0  0  0  0  0  0  0  0
   59.8580   23.4250   45.5910 O   0  0  0  0  0  0  0  0  0  0  0  0
   57.6870   24.3920   45.7090 C   0  0  0  0  0  0  0  0  0  0  0  0
   56.8970   25.5150   46.0210 C   0  0  0  0  0  0  0  0  0  0  0  0
   55.5340   25.5400   45.7010 C   0  0  0  0  0  0  0  0  0  0  0  0
   54.7790   26.6640   46.0180 O   0  0  0  0  0  0  0  0  0  0  0  0
   54.9390   24.4350   45.0750 C   0  0  0  0  0  0  0  0  0  0  0  0
   53.5870   24.4440   44.7340 O   0  0  0  0  0  0  0  0  0  0  0  0
   55.7140   23.3070   44.7810 C   0  0  0  0  0  0  0  0  0  0  0  0
   55.1290   22.1970   44.1770 O   0  0  0  0  0  0  0  0  0  0  0  0
   57.0760   23.2820   45.0980 C   0  0  0  0  0  0  0  0  0  0  0  0
   64.5034   33.7541   47.6663 H   0  0  0  0  0  0  0  0  0  0  0  0
   62.9797   31.4180   46.7458 H   0  0  0  0  0  0  0  0  0  0  0  0
   63.2013   31.9014   48.4719 H   0  0  0  0  0  0  0  0  0  0  0  0
   58.8338   33.7581   48.1590 H   0  0  0  0  0  0  0  0  0  0  0  0
   59.5976   35.4052   48.0101 H   0  0  0  0  0  0  0  0  0  0  0  0
   60.1084   35.0793   45.7247 H   0  0  0  0  0  0  0  0  0  0  0  0
   59.6987   33.2996   45.8401 H   0  0  0  0  0  0  0  0  0  0  0  0
   57.3772   34.7206   46.6062 H   0  0  0  0  0  0  0  0  0  0  0  0
   58.0517   35.5008   45.0810 H   0  0  0  0  0  0  0  0  0  0  0  0
   56.2993   33.7423   44.7042 H   0  0  0  0  0  0  0  0  0  0  0  0
   57.9355   33.5006   43.8885 H   0  0  0  0  0  0  0  0  0  0  0  0
   57.8574   32.1172   46.4053 H   0  0  0  0  0  0  0  0  0  0  0  0
   56.4469   31.6445   45.3168 H   0  0  0  0  0  0  0  0  0  0  0  0
   57.7212   30.3924   44.0307 H   0  0  0  0  0  0  0  0  0  0  0  0
   58.9750   31.7193   43.9019 H   0  0  0  0  0  0  0  0  0  0  0  0
   60.3281   30.7838   45.4187 H   0  0  0  0  0  0  0  0  0  0  0  0
   58.9248   30.2504   46.4601 H   0  0  0  0  0  0  0  0  0  0  0  0
   58.7710   28.6010   44.2060 H   0  0  0  0  0  0  0  0  0  0  0  0
   60.5414   28.7137   44.5659 H   0  0  0  0  0  0  0  0  0  0  0  0
   59.5747   28.3628   47.0847 H   0  0  0  0  0  0  0  0  0  0  0  0
   58.3286   27.4570   46.1197 H   0  0  0  0  0  0  0  0  0  0  0  0
   60.4524   26.3944   44.9627 H   0  0  0  0  0  0  0  0  0  0  0  0
   61.2634   26.8917   46.4983 H   0  0  0  0  0  0  0  0  0  0  0  0
   57.3550   26.3811   46.5210 H   0  0  0  0  0  0  0  0  0  0  0  0
   53.0270   25.2880   44.7590 H   0  0  0  0  0  0  0  0  0  0  0  0
   57.6738   22.3878   44.8678 H   0  0  0  0  0  0  0  0  0  0  0  0
  1  2  2  0
  2  3  1  0
  3  4  1  0
  4  5  1  0
  5  6  2  0
  5  7  1  0
  7  8  1  0
  8  9  1  0
  9 10  1  0
 10 11  1  0
 11 12  1  0
 12 13  1  0
 13 14  1  0
 14 15  1  0
 15 16  1  0
 16 17  1  0
 17 18  1  0
 18 19  2  0
 18 20  1  0
 20 21  2  0
 21 22  1  0
 22 23  1  0
 22 24  2  0
 24 25  1  0
 24 26  1  0
 26 27  1  0
 26 28  2  0
 28 20  1  0
  2 29  1  0
  3 30  1  0
  3 31  1  0
  7 32  1  0
  7 33  1  0
  8 34  1  0
  8 35  1  0
  9 36  1  0
  9 37  1  0
 10 38  1  0
 10 39  1  0
 11 40  1  0
 11 41  1  0
 12 42  1  0
 12 43  1  0
 13 44  1  0
 13 45  1  0
 14 46  1  0
 14 47  1  0
 15 48  1  0
 15 49  1  0
 16 50  1  0
 16 51  1  0
 21 52  1  0
 25 53  1  0
 28 54  1  0
M  CHG  4   4  -1  17  -1  23  -1  27  -1
M  END
>  <UniqueID>  (42) 
37

>  <SMILES>  (42) 
O=CC[N-]C(=O)CCCCCCCCCC[N-]C(=O)c1cc([O-])c(O)c([O-])c1

>  <Energy>  (42) 
38.996175057096025

>  <Genealogy>  (42) 
O=CC[N-]C(=O)CCCCCCCCCC[N-]C(=O)c1cc([O-])c(O)c([O-])c1 (protonated)
O=CC[N-]C(=O)CCCCCCCCCC[N-]C(=O)c1cc([O-])c(O)c([O-])c1 (3D coordinates assigned)
O=CC[N-]C(=O)CCCCCCCCCC[N-]C(=O)c1cc([O-])c(O)c([O-])c1 (optimized conformer: 38.996175057096025 kcal/mol)

>  <smiles>  (42) 
O=CCNC(=O)CCCCCCCCCCNC(=O)c1cc(O)c(O)c(O)c1

>  <score_type>  (42) 
oracle

>  <origin>  (42) 
adg

>  <m_score__min__energy>  (42) 
-15.640000000000001

>  <m_primary>  (42) 
energy

$$$$
42:0
     RDKit          3D

 31 32  0  0  0  0  0  0  0  0999 V2000
   54.7700   27.4660   46.3690 H   0  0  0  0  0  0  0  0  0  0  0  0
   54.8560   26.4760   46.1730 O   0  0  0  0  0  0  0  0  0  0  0  0
   56.0980   25.8460   46.1000 C   0  0  0  0  0  0  0  0  0  0  0  0
   56.1500   24.4460   46.0650 C   0  0  0  0  0  0  0  0  0  0  0  0
   55.2167   23.8644   46.0366 H   0  0  0  0  0  0  0  0  0  0  0  0
   57.3770   23.7870   46.0660 C   0  0  0  0  0  0  0  0  0  0  0  0
   57.4183   22.6882   46.0348 H   0  0  0  0  0  0  0  0  0  0  0  0
   58.5510   24.5350   46.1070 C   0  0  0  0  0  0  0  0  0  0  0  0
   59.5264   24.0268   46.1232 H   0  0  0  0  0  0  0  0  0  0  0  0
   58.4920   25.8920   46.1270 N   0  0  0  0  0  0  0  0  0  0  0  0
   57.3160   26.5790   46.1030 C   0  0  0  0  0  0  0  0  0  0  0  0
   57.3760   27.8820   46.1210 N   0  0  0  0  0  0  0  0  0  0  0  0
   56.8660   28.8080   45.1550 C   0  0  0  0  0  0  0  0  0  0  0  0
   55.6340   29.0780   45.1200 O   0  0  0  0  0  0  0  0  0  0  0  0
   57.7940   29.4260   44.1610 C   0  0  0  0  0  0  0  0  0  0  0  0
   57.4073   29.2584   43.1450 H   0  0  0  0  0  0  0  0  0  0  0  0
   58.7896   28.9677   44.2550 H   0  0  0  0  0  0  0  0  0  0  0  0
   57.8960   30.8990   44.4200 C   0  0  0  0  0  0  0  0  0  0  0  0
   57.6930   31.9380   43.5250 C   0  0  0  0  0  0  0  0  0  0  0  0
   57.3840   31.8110   42.0690 C   0  0  0  0  0  0  0  0  0  0  0  0
   56.3732   31.3956   41.9436 H   0  0  0  0  0  0  0  0  0  0  0  0
   57.4342   32.8027   41.5957 H   0  0  0  0  0  0  0  0  0  0  0  0
   58.1170   31.1412   41.5957 H   0  0  0  0  0  0  0  0  0  0  0  0
   57.7090   33.1120   44.1880 N   0  0  0  0  0  0  0  0  0  0  0  0
   57.9340   32.8410   45.4640 N   0  0  0  0  0  0  0  0  0  0  0  0
   57.9320   33.8470   46.5180 C   0  0  0  0  0  0  0  0  0  0  0  0
   57.9330   33.3499   47.4993 H   0  0  0  0  0  0  0  0  0  0  0  0
   58.8289   34.4771   46.4252 H   0  0  0  0  0  0  0  0  0  0  0  0
   57.0326   34.4735   46.4252 H   0  0  0  0  0  0  0  0  0  0  0  0
   58.0290   31.5100   45.6490 C   0  0  0  0  0  0  0  0  0  0  0  0
   58.1852   31.0003   46.6112 H   0  0  0  0  0  0  0  0  0  0  0  0
  1  2  1  0
  2  3  1  0
  3  4  2  0
  4  5  1  0
  4  6  1  0
  6  7  1  0
  6  8  2  0
  8  9  1  0
  8 10  1  0
 10 11  1  0
 11 12  2  0
 12 13  1  0
 13 14  2  0
 13 15  1  0
 15 16  1  0
 15 17  1  0
 15 18  1  0
 18 19  1  0
 19 20  1  0
 20 21  1  0
 20 22  1  0
 20 23  1  0
 19 24  2  0
 24 25  1  0
 25 26  1  0
 26 27  1  0
 26 28  1  0
 26 29  1  0
 25 30  1  0
 30 31  1  0
 11  3  1  0
 30 18  2  0
M  CHG  1  10  -1
M  END
>  <UniqueID>  (43) 
38

>  <SMILES>  (43) 
Cc1nn(C)cc1CC(=O)/N=c1/[n-]cccc1O

>  <Energy>  (43) 
67.51921097422367

>  <Genealogy>  (43) 
Cc1nn(C)cc1CC(=O)N=c1[n-]cccc1O (protonated)
Cc1nn(C)cc1CC(=O)/N=c1/[n-]cccc1O (cis-trans isomerization)
Cc1nn(C)cc1CC(=O)/N=c1/[n-]cccc1O (3D coordinates assigned)
Cc1nn(C)cc1CC(=O)/N=c1/[n-]cccc1O (optimized conformer: 67.51921097422367 kcal/mol)

>  <smiles>  (43) 
Cc1nn(C)cc1CC(=O)N=c1[nH]cccc1O

>  <score_type>  (43) 
oracle

>  <origin>  (43) 
adg

>  <m_score__min__energy>  (43) 
-9.6899999999999995

>  <m_primary>  (43) 
energy

$$$$
43:0
     RDKit          3D

 48 49  0  0  0  0  0  0  0  0999 V2000
   54.4500   24.8370   45.5330 C   0  0  0  0  0  0  0  0  0  0  0  0
   54.9210   26.1100   45.9160 O   0  0  0  0  0  0  0  0  0  0  0  0
   56.3260   26.0680   46.0490 C   0  0  0  0  0  0  0  0  0  0  0  0
   56.9240   27.4200   45.6500 C   0  0  0  0  0  0  0  0  0  0  0  0
   55.8940   28.3850   45.2530 N   0  0  0  0  0  0  0  0  0  0  0  0
   56.5590   29.7320   44.3710 S   0  0  0  0  0  0  0  0  0  0  0  0
   56.9560   29.2710   42.9970 O   0  0  0  0  0  0  0  0  0  0  0  0
   55.5380   30.8280   44.2360 O   0  0  0  0  0  0  0  0  0  0  0  0
   57.9930   30.3260   45.2040 C   0  0  0  0  0  0  0  0  0  0  0  0
   58.0020   31.6270   45.7240 C   0  0  0  0  0  0  0  0  0  0  0  0
   59.1430   32.1250   46.3580 C   0  0  0  0  0  0  0  0  0  0  0  0
   60.2880   31.3190   46.4960 C   0  0  0  0  0  0  0  0  0  0  0  0
   61.4860   31.8160   47.1170 N   0  0  0  0  0  0  0  0  0  0  0  0
   62.0950   33.0770   46.7950 C   0  0  0  0  0  0  0  0  0  0  0  0
   61.4920   33.9180   46.0740 O   0  0  0  0  0  0  0  0  0  0  0  0
   63.4310   33.4370   47.3720 C   0  0  0  0  0  0  0  0  0  0  0  0
   63.8200   32.4600   48.4000 N   0  0  0  0  0  0  0  0  0  0  0  0
   63.4210   32.8830   49.7580 C   0  0  0  0  0  0  0  0  0  0  0  0
   62.6120   34.1950   49.7470 C   0  0  0  0  0  0  0  0  0  0  0  0
   61.1740   33.8380   50.1250 C   0  0  0  0  0  0  0  0  0  0  0  0
   61.0880   32.3200   50.1060 C   0  0  0  0  0  0  0  0  0  0  0  0
   62.5000   31.8330   50.3730 C   0  0  0  0  0  0  0  0  0  0  0  0
   60.2790   30.0230   45.9590 C   0  0  0  0  0  0  0  0  0  0  0  0
   59.1370   29.5260   45.3240 C   0  0  0  0  0  0  0  0  0  0  0  0
   54.2298   24.2419   46.4315 H   0  0  0  0  0  0  0  0  0  0  0  0
   53.5341   24.9498   44.9344 H   0  0  0  0  0  0  0  0  0  0  0  0
   55.2187   24.3264   44.9344 H   0  0  0  0  0  0  0  0  0  0  0  0
   56.5877   25.8469   47.0943 H   0  0  0  0  0  0  0  0  0  0  0  0
   56.7303   25.2834   45.3925 H   0  0  0  0  0  0  0  0  0  0  0  0
   57.4805   27.8280   46.5066 H   0  0  0  0  0  0  0  0  0  0  0  0
   57.5843   27.2557   44.7857 H   0  0  0  0  0  0  0  0  0  0  0  0
   57.1065   32.2593   45.6326 H   0  0  0  0  0  0  0  0  0  0  0  0
   59.1462   33.1523   46.7512 H   0  0  0  0  0  0  0  0  0  0  0  0
   61.8910   31.2650   47.9080 H   0  0  0  0  0  0  0  0  0  0  0  0
   64.1841   33.4402   46.5703 H   0  0  0  0  0  0  0  0  0  0  0  0
   63.3668   34.4346   47.8309 H   0  0  0  0  0  0  0  0  0  0  0  0
   63.3800   31.5360   48.1730 H   0  0  0  0  0  0  0  0  0  0  0  0
   64.3532   33.0168   50.3265 H   0  0  0  0  0  0  0  0  0  0  0  0
   63.0301   34.9025   50.4782 H   0  0  0  0  0  0  0  0  0  0  0  0
   62.6503   34.6710   48.7561 H   0  0  0  0  0  0  0  0  0  0  0  0
   60.9390   34.2196   51.1296 H   0  0  0  0  0  0  0  0  0  0  0  0
   60.4549   34.2864   49.4238 H   0  0  0  0  0  0  0  0  0  0  0  0
   60.4033   31.9635   50.8896 H   0  0  0  0  0  0  0  0  0  0  0  0
   60.7000   31.9442   49.1477 H   0  0  0  0  0  0  0  0  0  0  0  0
   62.6796   31.7516   51.4552 H   0  0  0  0  0  0  0  0  0  0  0  0
   62.6746   30.8364   49.9415 H   0  0  0  0  0  0  0  0  0  0  0  0
   61.1773   29.3931   46.0382 H   0  0  0  0  0  0  0  0  0  0  0  0
   59.1366   28.5039   44.9174 H   0  0  0  0  0  0  0  0  0  0  0  0
  1  2  1  0
  2  3  1  0
  3  4  1  0
  4  5  1  0
  5  6  1  0
  6  7  2  0
  6  8  2  0
  6  9  1  0
  9 10  2  0
 10 11  1  0
 11 12  2  0
 12 13  1  0
 13 14  1  0
 14 15  2  0
 14 16  1  0
 16 17  1  0
 17 18  1  0
 18 19  1  0
 19 20  1  0
 20 21  1  0
 21 22  1  0
 12 23  1  0
 23 24  2  0
 24  9  1  0
 22 18  1  0
  1 25  1  0
  1 26  1  0
  1 27  1  0
  3 28  1  0
  3 29  1  0
  4 30  1  0
  4 31  1  0
 10 32  1  0
 11 33  1  0
 13 34  1  0
 16 35  1  0
 16 36  1  0
 17 37  1  0
 18 38  1  0
 19 39  1  0
 19 40  1  0
 20 41  1  0
 20 42  1  0
 21 43  1  0
 21 44  1  0
 22 45  1  0
 22 46  1  0
 23 47  1  0
 24 48  1  0
M  CHG  1   5  -1
M  END
>  <UniqueID>  (44) 
39

>  <SMILES>  (44) 
COCC[N-]S(=O)(=O)c1ccc(NC(=O)CNC2CCCC2)cc1

>  <Energy>  (44) 
46.95010770581182

>  <Genealogy>  (44) 
COCC[N-]S(=O)(=O)c1ccc(NC(=O)CNC2CCCC2)cc1 (protonated)
COCC[N-]S(=O)(=O)c1ccc(NC(=O)CNC2CCCC2)cc1 (3D coordinates assigned)
COCC[N-]S(=O)(=O)c1ccc(NC(=O)CNC2CCCC2)cc1 (nonaromatic ring conformer: 46.95010770581182 kcal/mol)

>  <smiles>  (44) 
COCCNS(=O)(=O)c1ccc(NC(=O)CNC2CCCC2)cc1

>  <score_type>  (44) 
oracle

>  <origin>  (44) 
adg

>  <m_score__min__energy>  (44) 
-9.7200000000000006

>  <m_primary>  (44) 
energy

$$$$
44:0
     RDKit          3D

 47 49  0  0  0  0  0  0  0  0999 V2000
   55.6340   31.7850   52.3720 O   0  0  0  0  0  0  0  0  0  0  0  0
   56.2230   30.7140   52.0660 C   0  0  0  0  0  0  0  0  0  0  0  0
   56.0530   29.4770   52.9190 C   0  0  0  0  0  0  0  0  0  0  0  0
   54.6400   28.8680   52.8720 C   0  0  0  0  0  0  0  0  0  0  0  0
   53.5790   29.8900   52.5400 C   0  0  0  0  0  0  0  0  0  0  0  0
   53.3130   30.2350   51.2040 C   0  0  0  0  0  0  0  0  0  0  0  0
   52.3260   31.1780   50.9030 C   0  0  0  0  0  0  0  0  0  0  0  0
   51.5960   31.7820   51.9310 C   0  0  0  0  0  0  0  0  0  0  0  0
   50.6150   32.7190   51.6290 O   0  0  0  0  0  0  0  0  0  0  0  0
   51.8490   31.4390   53.2630 C   0  0  0  0  0  0  0  0  0  0  0  0
   52.8350   30.4960   53.5680 C   0  0  0  0  0  0  0  0  0  0  0  0
   57.0820   30.7140   50.9190 N   0  0  0  0  0  0  0  0  0  0  0  0
   58.7990   30.4740   50.9680 S   0  0  0  0  0  0  0  0  0  0  0  0
   59.4830   31.7850   50.7000 O   0  0  0  0  0  0  0  0  0  0  0  0
   59.1890   29.9900   52.3360 O   0  0  0  0  0  0  0  0  0  0  0  0
   59.2870   29.3140   49.7370 C   0  0  0  0  0  0  0  0  0  0  0  0
   60.2830   28.3740   50.0180 C   0  0  0  0  0  0  0  0  0  0  0  0
   60.6830   27.4640   49.0410 C   0  0  0  0  0  0  0  0  0  0  0  0
   60.0930   27.4790   47.7720 C   0  0  0  0  0  0  0  0  0  0  0  0
   60.5200   26.5440   46.8350 O   0  0  0  0  0  0  0  0  0  0  0  0
   59.0810   28.4210   47.4700 C   0  0  0  0  0  0  0  0  0  0  0  0
   58.4290   28.4770   46.1330 C   0  0  0  0  0  0  0  0  0  0  0  0
   57.5620   27.6130   45.8260 O   0  0  0  0  0  0  0  0  0  0  0  0
   58.7270   29.5400   45.2180 N   0  0  0  0  0  0  0  0  0  0  0  0
   58.4820   30.9400   45.4110 C   0  0  0  0  0  0  0  0  0  0  0  0
   57.5060   31.6400   44.6750 C   0  0  0  0  0  0  0  0  0  0  0  0
   57.3220   33.0130   44.8760 C   0  0  0  0  0  0  0  0  0  0  0  0
   58.1140   33.6990   45.8010 C   0  0  0  0  0  0  0  0  0  0  0  0
   59.0990   33.0140   46.5200 C   0  0  0  0  0  0  0  0  0  0  0  0
   59.2860   31.6430   46.3190 C   0  0  0  0  0  0  0  0  0  0  0  0
   58.6860   29.3310   48.4720 C   0  0  0  0  0  0  0  0  0  0  0  0
   56.7681   28.7170   52.5711 H   0  0  0  0  0  0  0  0  0  0  0  0
   56.2307   29.7839   53.9603 H   0  0  0  0  0  0  0  0  0  0  0  0
   54.6215   28.0790   52.1057 H   0  0  0  0  0  0  0  0  0  0  0  0
   54.4160   28.4673   53.8716 H   0  0  0  0  0  0  0  0  0  0  0  0
   53.8838   29.7611   50.3918 H   0  0  0  0  0  0  0  0  0  0  0  0
   52.1233   31.4453   49.8554 H   0  0  0  0  0  0  0  0  0  0  0  0
   51.2717   31.9116   54.0713 H   0  0  0  0  0  0  0  0  0  0  0  0
   53.0297   30.2269   54.6167 H   0  0  0  0  0  0  0  0  0  0  0  0
   60.7522   28.3525   51.0127 H   0  0  0  0  0  0  0  0  0  0  0  0
   61.4684   26.7284   49.2691 H   0  0  0  0  0  0  0  0  0  0  0  0
   56.8863   31.1058   43.9397 H   0  0  0  0  0  0  0  0  0  0  0  0
   56.5526   33.5531   44.3048 H   0  0  0  0  0  0  0  0  0  0  0  0
   57.9629   34.7764   45.9634 H   0  0  0  0  0  0  0  0  0  0  0  0
   59.7268   33.5541   47.2439 H   0  0  0  0  0  0  0  0  0  0  0  0
   60.0704   31.1117   46.8779 H   0  0  0  0  0  0  0  0  0  0  0  0
   57.8949   30.0645   48.2572 H   0  0  0  0  0  0  0  0  0  0  0  0
  1  2  2  0
  2  3  1  0
  3  4  1  0
  4  5  1  0
  5  6  2  0
  6  7  1  0
  7  8  2  0
  8  9  1  0
  8 10  1  0
 10 11  2  0
  2 12  1  0
 12 13  1  0
 13 14  2  0
 13 15  2  0
 13 16  1  0
 16 17  2  0
 17 18  1  0
 18 19  2  0
 19 20  1  0
 19 21  1  0
 21 22  1  0
 22 23  2  0
 22 24  1  0
 24 25  1  0
 25 26  2  0
 26 27  1  0
 27 28  2  0
 28 29  1  0
 29 30  2  0
 21 31  2  0
 11  5  1  0
 31 16  1  0
 30 25  1  0
  3 32  1  0
  3 33  1  0
  4 34  1  0
  4 35  1  0
  6 36  1  0
  7 37  1  0
 10 38  1  0
 11 39  1  0
 17 40  1  0
 18 41  1  0
 26 42  1  0
 27 43  1  0
 28 44  1  0
 29 45  1  0
 30 46  1  0
 31 47  1  0
M  CHG  4   9  -1  12  -1  20  -1  24  -1
M  END
>  <UniqueID>  (45) 
40

>  <SMILES>  (45) 
O=C(CCc1ccc([O-])cc1)[N-]S(=O)(=O)c1ccc([O-])c(C(=O)[N-]c2ccccc2)c1

>  <Energy>  (45) 
57.597987753225354

>  <Genealogy>  (45) 
O=C(CCc1ccc([O-])cc1)[N-]S(=O)(=O)c1ccc([O-])c(C(=O)[N-]c2ccccc2)c1 (protonated)
O=C(CCc1ccc([O-])cc1)[N-]S(=O)(=O)c1ccc([O-])c(C(=O)[N-]c2ccccc2)c1 (3D coordinates assigned)
O=C(CCc1ccc([O-])cc1)[N-]S(=O)(=O)c1ccc([O-])c(C(=O)[N-]c2ccccc2)c1 (optimized conformer: 57.597987753225354 kcal/mol)

>  <smiles>  (45) 
O=C(CCc1ccc(O)cc1)NS(=O)(=O)c1ccc(O)c(C(=O)Nc2ccccc2)c1

>  <score_type>  (45) 
oracle

>  <origin>  (45) 
adg

>  <m_score__min__energy>  (45) 
-14.890000000000001

>  <m_primary>  (45) 
energy

$$$$
45:0
     RDKit          3D

 38 40  0  0  1  0  0  0  0  0999 V2000
   63.5130   31.9580   47.1840 N   0  0  0  0  0  0  0  0  0  0  0  0
   63.1210   33.6350   47.1680 S   0  0  0  0  0  0  0  0  0  0  0  0
   63.6280   34.3540   45.9710 O   0  0  0  0  0  0  0  0  0  0  0  0
   63.7330   34.2190   48.4140 O   0  0  0  0  0  0  0  0  0  0  0  0
   61.3680   33.7590   47.3310 C   0  0  0  0  0  0  0  0  0  0  0  0
   60.8440   33.9900   48.5830 C   0  0  0  0  0  0  0  0  0  0  0  0
   59.4750   34.0880   48.7060 C   0  0  0  0  0  0  0  0  0  0  0  0
   58.6630   33.9530   47.6020 C   0  0  0  0  0  0  0  0  0  0  0  0
   59.1570   33.7180   46.3260 C   0  0  0  0  0  0  0  0  0  0  0  0
   58.2650   33.5750   45.1490 C   0  0  0  0  0  0  0  0  0  0  0  0
   58.4560   32.3760   44.4040 N   0  0  0  0  0  0  0  0  0  0  0  0
   57.8410   31.2870   44.6520 C   0  0  0  0  0  0  0  0  0  0  0  0
   56.6330   30.9960   44.1620 N   0  0  0  0  0  0  0  0  0  0  0  0
   56.0940   29.8150   44.5000 C   0  0  0  0  0  0  0  0  0  0  0  0
   54.9460   29.5390   44.0340 O   0  0  0  0  0  0  0  0  0  0  0  0
   56.7000   28.9220   45.2940 N   0  0  0  0  0  0  0  0  0  0  0  0
   56.0700   27.7210   45.5940 O   0  0  0  0  0  0  0  0  0  0  0  0
   57.9150   29.1600   45.8160 C   0  0  0  0  0  0  0  0  0  0  0  0
   58.5810   28.2760   46.6370 C   0  0  0  0  0  0  0  0  0  0  0  0
   59.8340   28.5900   47.1390 C   0  0  0  0  0  0  0  0  0  0  0  0
   60.4350   29.8000   46.8190 C   0  0  0  0  0  0  0  0  0  0  0  0
   59.7620   30.6710   46.0000 C   0  0  0  0  0  0  0  0  0  0  0  0
   58.4990   30.3760   45.4840 C   0  0  0  0  0  0  0  0  0  0  0  0
   60.5420   33.6260   46.2340 C   0  0  0  0  0  0  0  0  0  0  0  0
   64.5060   31.7730   46.9630 H   0  0  0  0  0  0  0  0  0  0  0  0
   63.2100   31.5880   48.0980 H   0  0  0  0  0  0  0  0  0  0  0  0
   61.4995   34.0934   49.4602 H   0  0  0  0  0  0  0  0  0  0  0  0
   59.0275   34.2754   49.6932 H   0  0  0  0  0  0  0  0  0  0  0  0
   57.5744   34.0350   47.7372 H   0  0  0  0  0  0  0  0  0  0  0  0
   57.2236   33.5973   45.5027 H   0  0  0  0  0  0  0  0  0  0  0  0
   58.5074   34.4063   44.4706 H   0  0  0  0  0  0  0  0  0  0  0  0
   56.1770   31.6960   43.5500 H   0  0  0  0  0  0  0  0  0  0  0  0
   55.1310   27.5080   45.2890 H   0  0  0  0  0  0  0  0  0  0  0  0
   58.1146   27.3140   46.8958 H   0  0  0  0  0  0  0  0  0  0  0  0
   60.3552   27.8768   47.7945 H   0  0  0  0  0  0  0  0  0  0  0  0
   61.4296   30.0549   47.2137 H   0  0  0  0  0  0  0  0  0  0  0  0
   60.2322   31.6314   45.7420 H   0  0  0  0  0  0  0  0  0  0  0  0
   60.9958   33.4402   45.2493 H   0  0  0  0  0  0  0  0  0  0  0  0
  1  2  1  0
  2  3  2  0
  2  4  2  0
  2  5  1  0
  5  6  2  0
  6  7  1  0
  7  8  2  0
  8  9  1  0
  9 10  1  0
 10 11  1  0
 11 12  2  0
 12 13  1  0
 13 14  1  0
 14 15  2  0
 14 16  1  0
 16 17  1  0
 16 18  1  0
 18 19  2  0
 19 20  1  0
 20 21  2  0
 21 22  1  0
 22 23  2  0
  9 24  2  0
 24  5  1  0
 23 12  1  0
 23 18  1  0
  1 25  1  0
  1 26  1  0
  6 27  1  0
  7 28  1  0
  8 29  1  0
 10 30  1  0
 10 31  1  0
 13 32  1  0
 17 33  1  0
 19 34  1  0
 20 35  1  0
 21 36  1  0
 22 37  1  0
 24 38  1  0
M  END
>  <smiles>  (46) 
NS(=O)(=O)c1cccc(CN=c2[nH]c(=O)n(O)c3ccccc23)c1

>  <score_type>  (46) 
oracle

>  <origin>  (46) 
adg

>  <m_score__min__energy>  (46) 
-9.0800000000000001

>  <m_primary>  (46) 
energy

$$$$
46:0
     RDKit          3D

 53 56  0  0  0  0  0  0  0  0999 V2000
   60.9970   26.4670   47.0460 O   0  0  0  0  0  0  0  0  0  0  0  0
   60.2600   27.4820   46.9330 C   0  0  0  0  0  0  0  0  0  0  0  0
   60.7630   28.7890   47.2300 N   0  0  0  0  0  0  0  0  0  0  0  0
   59.9940   29.9670   47.5000 C   0  0  0  0  0  0  0  0  0  0  0  0
   59.6720   30.3660   48.8100 C   0  0  0  0  0  0  0  0  0  0  0  0
   58.8320   31.4610   49.0250 C   0  0  0  0  0  0  0  0  0  0  0  0
   58.2810   32.1470   47.9390 C   0  0  0  0  0  0  0  0  0  0  0  0
   58.5750   31.7410   46.6300 C   0  0  0  0  0  0  0  0  0  0  0  0
   57.8230   32.5370   45.2510 S   0  0  0  0  0  0  0  0  0  0  0  0
   56.3880   32.1000   45.1670 O   0  0  0  0  0  0  0  0  0  0  0  0
   58.5230   32.1460   43.9780 O   0  0  0  0  0  0  0  0  0  0  0  0
   57.8780   34.2690   45.4370 N   0  0  0  0  0  0  0  0  0  0  0  0
   59.2370   34.7890   45.2730 C   0  0  0  0  0  0  0  0  0  0  0  0
   60.0840   34.4710   46.4760 C   0  0  0  0  0  0  0  0  0  0  0  0
   59.6560   34.8300   47.7660 C   0  0  0  0  0  0  0  0  0  0  0  0
   60.4660   34.5670   48.8750 C   0  0  0  0  0  0  0  0  0  0  0  0
   61.7020   33.9380   48.7080 C   0  0  0  0  0  0  0  0  0  0  0  0
   62.1310   33.5680   47.4300 C   0  0  0  0  0  0  0  0  0  0  0  0
   61.3240   33.8280   46.3170 C   0  0  0  0  0  0  0  0  0  0  0  0
   59.4490   30.6670   46.4180 C   0  0  0  0  0  0  0  0  0  0  0  0
   58.8820   27.3430   46.4480 C   0  0  0  0  0  0  0  0  0  0  0  0
   58.3300   27.9710   45.3350 C   0  0  0  0  0  0  0  0  0  0  0  0
   56.9880   27.6320   45.1180 C   0  0  0  0  0  0  0  0  0  0  0  0
   56.4920   26.7480   46.0650 C   0  0  0  0  0  0  0  0  0  0  0  0
   55.1740   26.1860   46.0280 N   0  0  0  0  0  0  0  0  0  0  0  0
   54.8280   24.8700   45.5680 C   0  0  0  0  0  0  0  0  0  0  0  0
   53.6340   24.4860   45.6850 O   0  0  0  0  0  0  0  0  0  0  0  0
   55.8240   23.9510   44.9760 C   0  0  0  0  0  0  0  0  0  0  0  0
   57.0890   23.8280   45.5760 C   0  0  0  0  0  0  0  0  0  0  0  0
   58.0400   22.9500   45.0500 C   0  0  0  0  0  0  0  0  0  0  0  0
   57.7420   22.1940   43.9150 C   0  0  0  0  0  0  0  0  0  0  0  0
   56.4970   22.3250   43.2940 C   0  0  0  0  0  0  0  0  0  0  0  0
   55.5380   23.2090   43.8110 C   0  0  0  0  0  0  0  0  0  0  0  0
   54.3090   23.3570   43.1650 O   0  0  0  0  0  0  0  0  0  0  0  0
   57.7150   26.3560   47.1540 S   0  0  0  0  0  0  0  0  0  0  0  0
   60.0831   29.8138   49.6679 H   0  0  0  0  0  0  0  0  0  0  0  0
   58.6036   31.7842   50.0513 H   0  0  0  0  0  0  0  0  0  0  0  0
   57.6161   33.0061   48.1117 H   0  0  0  0  0  0  0  0  0  0  0  0
   59.6919   34.3324   44.3816 H   0  0  0  0  0  0  0  0  0  0  0  0
   59.1833   35.8819   45.1607 H   0  0  0  0  0  0  0  0  0  0  0  0
   58.6805   35.3195   47.9034 H   0  0  0  0  0  0  0  0  0  0  0  0
   60.1291   34.8561   49.8814 H   0  0  0  0  0  0  0  0  0  0  0  0
   62.3378   33.7338   49.5821 H   0  0  0  0  0  0  0  0  0  0  0  0
   63.1040   33.0719   47.2993 H   0  0  0  0  0  0  0  0  0  0  0  0
   61.6611   33.5282   45.3138 H   0  0  0  0  0  0  0  0  0  0  0  0
   59.7094   30.3711   45.3910 H   0  0  0  0  0  0  0  0  0  0  0  0
   58.8911   28.6638   44.6906 H   0  0  0  0  0  0  0  0  0  0  0  0
   56.3897   28.0260   44.2832 H   0  0  0  0  0  0  0  0  0  0  0  0
   57.3320   24.4272   46.4659 H   0  0  0  0  0  0  0  0  0  0  0  0
   59.0247   22.8544   45.5308 H   0  0  0  0  0  0  0  0  0  0  0  0
   58.4877   21.4946   43.5091 H   0  0  0  0  0  0  0  0  0  0  0  0
   56.2679   21.7325   42.3960 H   0  0  0  0  0  0  0  0  0  0  0  0
   53.5620   23.9120   43.5650 H   0  0  0  0  0  0  0  0  0  0  0  0
  1  2  2  0
  2  3  1  0
  3  4  1  0
  4  5  2  0
  5  6  1  0
  6  7  2  0
  7  8  1  0
  8  9  1  0
  9 10  2  0
  9 11  2  0
  9 12  1  0
 12 13  1  0
 13 14  1  0
 14 15  2  0
 15 16  1  0
 16 17  2  0
 17 18  1  0
 18 19  2  0
  8 20  2  0
  2 21  1  0
 21 22  2  0
 22 23  1  0
 23 24  2  0
 24 25  1  0
 25 26  1  0
 26 27  2  0
 26 28  1  0
 28 29  2  0
 29 30  1  0
 30 31  2  0
 31 32  1  0
 32 33  2  0
 33 34  1  0
 24 35  1  0
 20  4  1  0
 35 21  1  0
 19 14  1  0
 33 28  1  0
  5 36  1  0
  6 37  1  0
  7 38  1  0
 13 39  1  0
 13 40  1  0
 15 41  1  0
 16 42  1  0
 17 43  1  0
 18 44  1  0
 19 45  1  0
 20 46  1  0
 22 47  1  0
 23 48  1  0
 29 49  1  0
 30 50  1  0
 31 51  1  0
 32 52  1  0
 34 53  1  0
M  CHG  3   3  -1  12  -1  25  -1
M  END
>  <UniqueID>  (47) 
41

>  <SMILES>  (47) 
O=C([N-]c1cccc(S(=O)(=O)[N-]Cc2ccccc2)c1)c1ccc([N-]C(=O)c2ccccc2O)s1

>  <Energy>  (47) 
87.58312937144616

>  <Genealogy>  (47) 
O=C([N-]c1cccc(S(=O)(=O)[N-]Cc2ccccc2)c1)c1ccc([N-]C(=O)c2ccccc2O)s1 (protonated)
O=C([N-]c1cccc(S(=O)(=O)[N-]Cc2ccccc2)c1)c1ccc([N-]C(=O)c2ccccc2O)s1 (3D coordinates assigned)
O=C([N-]c1cccc(S(=O)(=O)[N-]Cc2ccccc2)c1)c1ccc([N-]C(=O)c2ccccc2O)s1 (optimized conformer: 87.58312937144616 kcal/mol)

>  <smiles>  (47) 
O=C(Nc1cccc(S(=O)(=O)NCc2ccccc2)c1)c1ccc(NC(=O)c2ccccc2O)s1

>  <score_type>  (47) 
oracle

>  <origin>  (47) 
adg

>  <m_score__min__energy>  (47) 
-13.6

>  <m_primary>  (47) 
energy

$$$$
47:0
     RDKit          3D

 46 48  0  0  0  0  0  0  0  0999 V2000
   55.1840   26.7160   45.9960 O   0  0  0  0  0  0  0  0  0  0  0  0
   56.4350   26.7040   46.1520 C   0  0  0  0  0  0  0  0  0  0  0  0
   57.0640   25.5650   46.8900 C   0  0  0  0  0  0  0  0  0  0  0  0
   58.4340   25.8640   47.1280 O   0  0  0  0  0  0  0  0  0  0  0  0
   59.4600   25.4290   46.2830 C   0  0  0  0  0  0  0  0  0  0  0  0
   59.2850   24.4460   45.5130 O   0  0  0  0  0  0  0  0  0  0  0  0
   60.7840   26.1190   46.3230 C   0  0  0  0  0  0  0  0  0  0  0  0
   60.5850   27.6040   46.3070 C   0  0  0  0  0  0  0  0  0  0  0  0
   60.6940   28.4430   45.2030 C   0  0  0  0  0  0  0  0  0  0  0  0
   60.3610   29.7100   45.5380 N   0  0  0  0  0  0  0  0  0  0  0  0
   60.0290   29.6750   46.8410 C   0  0  0  0  0  0  0  0  0  0  0  0
   59.5890   30.7360   47.6290 C   0  0  0  0  0  0  0  0  0  0  0  0
   59.2620   30.4680   48.9710 C   0  0  0  0  0  0  0  0  0  0  0  0
   59.3790   29.1580   49.4870 C   0  0  0  0  0  0  0  0  0  0  0  0
   59.8240   28.1050   48.6680 C   0  0  0  0  0  0  0  0  0  0  0  0
   60.1450   28.4050   47.3430 C   0  0  0  0  0  0  0  0  0  0  0  0
   57.2460   27.7910   45.6780 N   0  0  0  0  0  0  0  0  0  0  0  0
   56.7250   28.9550   45.0180 C   0  0  0  0  0  0  0  0  0  0  0  0
   55.4840   29.0850   44.8340 O   0  0  0  0  0  0  0  0  0  0  0  0
   57.6260   29.9720   44.5570 N   0  0  0  0  0  0  0  0  0  0  0  0
   57.1620   31.2100   43.9370 C   0  0  0  0  0  0  0  0  0  0  0  0
   57.7420   32.3980   44.6530 C   0  0  0  0  0  0  0  0  0  0  0  0
   58.5810   33.2910   43.9660 C   0  0  0  0  0  0  0  0  0  0  0  0
   59.1350   34.3900   44.6300 C   0  0  0  0  0  0  0  0  0  0  0  0
   58.8620   34.6010   45.9850 C   0  0  0  0  0  0  0  0  0  0  0  0
   58.0370   33.7110   46.6790 C   0  0  0  0  0  0  0  0  0  0  0  0
   57.4780   32.6130   46.0170 C   0  0  0  0  0  0  0  0  0  0  0  0
   56.5471   25.4177   47.8497 H   0  0  0  0  0  0  0  0  0  0  0  0
   56.9841   24.6461   46.2906 H   0  0  0  0  0  0  0  0  0  0  0  0
   61.3173   25.8322   47.2413 H   0  0  0  0  0  0  0  0  0  0  0  0
   61.3738   25.8228   45.4430 H   0  0  0  0  0  0  0  0  0  0  0  0
   61.0070   28.1211   44.1988 H   0  0  0  0  0  0  0  0  0  0  0  0
   60.3460   30.5410   44.9060 H   0  0  0  0  0  0  0  0  0  0  0  0
   59.5000   31.7513   47.2152 H   0  0  0  0  0  0  0  0  0  0  0  0
   58.9133   31.2831   49.6221 H   0  0  0  0  0  0  0  0  0  0  0  0
   59.1200   28.9602   50.5376 H   0  0  0  0  0  0  0  0  0  0  0  0
   59.9159   27.0805   49.0579 H   0  0  0  0  0  0  0  0  0  0  0  0
   58.2790   27.7370   45.8260 H   0  0  0  0  0  0  0  0  0  0  0  0
   58.6540   29.8270   44.6730 H   0  0  0  0  0  0  0  0  0  0  0  0
   57.4790   31.2300   42.8839 H   0  0  0  0  0  0  0  0  0  0  0  0
   56.0646   31.2536   43.9996 H   0  0  0  0  0  0  0  0  0  0  0  0
   58.8031   33.1251   42.9015 H   0  0  0  0  0  0  0  0  0  0  0  0
   59.7864   35.0894   44.0856 H   0  0  0  0  0  0  0  0  0  0  0  0
   59.2965   35.4675   46.5050 H   0  0  0  0  0  0  0  0  0  0  0  0
   57.8273   33.8743   47.7464 H   0  0  0  0  0  0  0  0  0  0  0  0
   56.8291   31.9148   46.5659 H   0  0  0  0  0  0  0  0  0  0  0  0
  1  2  2  0
  2  3  1  0
  3  4  1  0
  4  5  1  0
  5  6  2  0
  5  7  1  0
  7  8  1  0
  8  9  2  0
  9 10  1  0
 10 11  1  0
 11 12  2  0
 12 13  1  0
 13 14  2  0
 14 15  1  0
 15 16  2  0
  2 17  1  0
 17 18  1  0
 18 19  2  0
 18 20  1  0
 20 21  1  0
 21 22  1  0
 22 23  2  0
 23 24  1  0
 24 25  2  0
 25 26  1  0
 26 27  2  0
 16  8  1  0
 27 22  1  0
 16 11  1  0
  3 28  1  0
  3 29  1  0
  7 30  1  0
  7 31  1  0
  9 32  1  0
 10 33  1  0
 12 34  1  0
 13 35  1  0
 14 36  1  0
 15 37  1  0
 17 38  1  0
 20 39  1  0
 21 40  1  0
 21 41  1  0
 23 42  1  0
 24 43  1  0
 25 44  1  0
 26 45  1  0
 27 46  1  0
M  END
>  <UniqueID>  (48) 
42

>  <SMILES>  (48) 
O=C(COC(=O)Cc1c[nH]c2ccccc12)NC(=O)NCc1ccccc1

>  <Energy>  (48) 
72.28001029921157

>  <Genealogy>  (48) 
O=C(COC(=O)Cc1c[nH]c2ccccc12)NC(=O)NCc1ccccc1 (3D coordinates assigned)
O=C(COC(=O)Cc1c[nH]c2ccccc12)NC(=O)NCc1ccccc1 (optimized conformer: 72.28001029921157 kcal/mol)

>  <smiles>  (48) 
O=C(COC(=O)Cc1c[nH]c2ccccc12)NC(=O)NCc1ccccc1

>  <score_type>  (48) 
oracle

>  <origin>  (48) 
adg

>  <m_score__min__energy>  (48) 
-8.0800000000000001

>  <m_primary>  (48) 
energy

$$$$
48:0
     RDKit          3D

 66 68  0  0  1  0  0  0  0  0999 V2000
   56.2850   30.2430   42.7650 C   0  0  0  0  0  0  0  0  0  0  0  0
   56.1440   30.1230   44.0590 C   0  0  0  0  0  0  0  0  0  0  0  0
   56.7810   29.1880   44.9520 C   0  0  0  0  0  0  0  0  0  0  0  0
   56.0980   28.0480   45.2640 N   0  0  0  0  0  0  0  0  0  0  0  0
   58.4890   28.3440   46.3420 C   0  0  0  0  0  0  0  0  0  0  0  0
   58.7820   30.4900   45.3430 N   0  0  0  0  0  0  0  0  0  0  0  0
   60.0460   28.6860   48.1800 C   0  0  0  0  0  0  0  0  0  0  0  0
   56.9920   23.9950   45.6970 C   0  0  0  0  0  0  0  0  0  0  0  0
   57.7100   23.6150   44.5150 N   0  0  0  0  0  0  0  0  0  0  0  0
   58.1880   22.2720   44.4860 C   0  0  0  0  0  0  0  0  0  0  0  0
   57.4220   21.4410   43.4820 C   0  0  0  0  0  0  0  0  0  0  0  0
   56.0720   21.7650   43.5500 O   0  0  0  0  0  0  0  0  0  0  0  0
   55.9580   22.9850   42.8810 C   0  0  0  0  0  0  0  0  0  0  0  0
   56.9090   24.0100   43.3830 C   0  0  0  0  0  0  0  0  0  0  0  0
   57.7920   27.2110   46.6420 N   0  0  0  0  0  0  0  0  0  0  0  0
   56.5840   27.1000   46.0760 C   0  0  0  0  0  0  0  0  0  0  0  0
   55.8940   26.0510   46.3300 N   0  0  0  0  0  0  0  0  0  0  0  0
   55.8080   24.8870   45.4730 C   0  0  0  0  0  0  0  0  0  0  0  0
   60.1680   30.2560   48.2070 C   0  0  0  0  0  0  0  0  0  0  0  0
   61.4560   30.6320   48.8700 C   0  0  0  0  0  0  0  0  0  0  0  0
   59.0260   30.7400   49.0630 C   0  0  0  0  0  0  0  0  0  0  0  0
   58.0170   29.3230   45.5240 C   0  0  0  0  0  0  0  0  0  0  0  0
   59.6410   28.4530   46.8420 N   0  0  0  0  0  0  0  0  0  0  0  0
   58.4720   32.8470   44.9020 C   0  0  0  0  0  0  0  0  0  0  0  0
   58.9510   33.9560   45.4380 C   0  0  0  0  0  0  0  0  0  0  0  0
   58.3330   31.6630   45.7200 C   0  0  0  0  0  0  0  0  0  0  0  0
   59.9110   33.9770   46.5320 C   0  0  0  0  0  0  0  0  0  0  0  0
   61.2440   33.7540   46.3780 C   0  0  0  0  0  0  0  0  0  0  0  0
   62.0860   33.7950   47.4710 C   0  0  0  0  0  0  0  0  0  0  0  0
   61.6120   34.0580   48.7400 C   0  0  0  0  0  0  0  0  0  0  0  0
   60.2740   34.2860   48.9140 C   0  0  0  0  0  0  0  0  0  0  0  0
   59.4550   34.2410   47.8180 C   0  0  0  0  0  0  0  0  0  0  0  0
   55.7226   31.0152   42.2197 H   0  0  0  0  0  0  0  0  0  0  0  0
   56.9661   29.5717   42.2214 H   0  0  0  0  0  0  0  0  0  0  0  0
   55.4455   30.8306   44.5295 H   0  0  0  0  0  0  0  0  0  0  0  0
   55.1420   27.8650   44.8700 H   0  0  0  0  0  0  0  0  0  0  0  0
   59.2902   28.3300   48.8956 H   0  0  0  0  0  0  0  0  0  0  0  0
   60.9697   28.1611   48.4651 H   0  0  0  0  0  0  0  0  0  0  0  0
   57.6911   24.5205   46.3641 H   0  0  0  0  0  0  0  0  0  0  0  0
   56.5920   23.0621   46.1209 H   0  0  0  0  0  0  0  0  0  0  0  0
   59.2529   22.2760   44.2105 H   0  0  0  0  0  0  0  0  0  0  0  0
   58.0472   21.8304   45.4836 H   0  0  0  0  0  0  0  0  0  0  0  0
   57.7989   21.6487   42.4697 H   0  0  0  0  0  0  0  0  0  0  0  0
   57.5559   20.3732   43.7097 H   0  0  0  0  0  0  0  0  0  0  0  0
   56.1536   22.8185   41.8114 H   0  0  0  0  0  0  0  0  0  0  0  0
   54.9405   23.3642   43.0566 H   0  0  0  0  0  0  0  0  0  0  0  0
   57.5910   24.2708   42.5603 H   0  0  0  0  0  0  0  0  0  0  0  0
   56.2901   24.8503   43.7307 H   0  0  0  0  0  0  0  0  0  0  0  0
   58.1910   26.4950   47.2720 H   0  0  0  0  0  0  0  0  0  0  0  0
   54.8861   24.3329   45.7031 H   0  0  0  0  0  0  0  0  0  0  0  0
   55.7958   25.2129   44.4225 H   0  0  0  0  0  0  0  0  0  0  0  0
   60.1422   30.6879   47.1957 H   0  0  0  0  0  0  0  0  0  0  0  0
   61.3305   30.5954   49.9622 H   0  0  0  0  0  0  0  0  0  0  0  0
   62.2438   29.9263   48.5675 H   0  0  0  0  0  0  0  0  0  0  0  0
   61.7404   31.6507   48.5675 H   0  0  0  0  0  0  0  0  0  0  0  0
   59.2905   30.6279   50.1248 H   0  0  0  0  0  0  0  0  0  0  0  0
   58.8274   31.7996   48.8445 H   0  0  0  0  0  0  0  0  0  0  0  0
   58.1265   30.1458   48.8445 H   0  0  0  0  0  0  0  0  0  0  0  0
   58.1812   32.8249   43.8414 H   0  0  0  0  0  0  0  0  0  0  0  0
   58.6043   34.9186   45.0341 H   0  0  0  0  0  0  0  0  0  0  0  0
   57.8317   31.7494   46.6953 H   0  0  0  0  0  0  0  0  0  0  0  0
   61.6523   33.5403   45.3792 H   0  0  0  0  0  0  0  0  0  0  0  0
   63.1613   33.6136   47.3269 H   0  0  0  0  0  0  0  0  0  0  0  0
   62.2992   34.0840   49.5985 H   0  0  0  0  0  0  0  0  0  0  0  0
   59.8655   34.5007   49.9125 H   0  0  0  0  0  0  0  0  0  0  0  0
   58.3799   34.4233   47.9627 H   0  0  0  0  0  0  0  0  0  0  0  0
  1  2  2  0
  2  3  1  0
  3  4  1  0
  4  5  1  0
  5  6  2  0
  6  7  1  0
  7  8  1  0
  8  9  1  0
  9 10  1  0
 10 11  1  0
 11 12  1  0
 12 13  1  0
 13 14  1  0
  5 15  1  0
 15 16  1  0
 16 17  2  0
 17 18  1  0
 18 19  1  0
 19 20  1  0
 19 21  1  0
 16 22  1  0
 22 23  1  0
 23 24  2  0
 24 25  1  0
 25 26  2  0
 26 27  1  0
 27 28  2  0
 28 29  1  0
 29 30  2  0
 30 31  1  0
 31 32  2  0
 22  3  2  0
 32 27  1  0
 14  9  1  0
  1 33  1  0
  1 34  1  0
  2 35  1  0
  4 36  1  0
  7 37  1  0
  7 38  1  0
  8 39  1  0
  8 40  1  0
 10 41  1  0
 10 42  1  0
 11 43  1  0
 11 44  1  0
 13 45  1  0
 13 46  1  0
 14 47  1  0
 14 48  1  0
 15 49  1  0
 18 50  1  0
 18 51  1  0
 19 52  1  0
 20 53  1  0
 20 54  1  0
 20 55  1  0
 21 56  1  0
 21 57  1  0
 21 58  1  0
 24 59  1  0
 25 60  1  0
 26 61  1  0
 28 62  1  0
 29 63  1  0
 30 64  1  0
 31 65  1  0
 32 66  1  0
M  END
>  <smiles>  (49) 
C=Cc1[nH]c(=NCCN2CCOCC2)[nH]c(=NCC(C)C)c1N=CC=Cc1ccccc1

>  <score_type>  (49) 
oracle

>  <origin>  (49) 
adg

>  <m_score__min__energy>  (49) 
-10.01

>  <m_primary>  (49) 
energy

$$$$
49:0
     RDKit          3D

 58 60  0  0  0  0  0  0  0  0999 V2000
   59.6620   28.0180   47.5400 C   0  0  0  0  0  0  0  0  0  0  0  0
   58.1620   28.0840   47.2600 C   0  0  0  0  0  0  0  0  0  0  0  0
   57.8400   27.4400   45.9780 N   0  0  0  0  0  0  0  0  0  0  0  0
   57.5530   25.9950   45.9680 C   0  0  0  0  0  0  0  0  0  0  0  0
   56.0750   25.7270   45.9210 C   0  0  0  0  0  0  0  0  0  0  0  0
   55.2770   26.6960   46.0210 O   0  0  0  0  0  0  0  0  0  0  0  0
   55.5890   24.3800   45.8400 N   0  0  0  0  0  0  0  0  0  0  0  0
   56.1170   23.2840   45.0750 C   0  0  0  0  0  0  0  0  0  0  0  0
   55.9690   23.2060   43.6780 C   0  0  0  0  0  0  0  0  0  0  0  0
   56.5150   22.1320   42.9710 C   0  0  0  0  0  0  0  0  0  0  0  0
   57.2250   21.1390   43.6450 C   0  0  0  0  0  0  0  0  0  0  0  0
   57.4030   21.2200   45.0260 C   0  0  0  0  0  0  0  0  0  0  0  0
   56.8570   22.2980   45.7520 C   0  0  0  0  0  0  0  0  0  0  0  0
   57.0270   22.4240   47.1400 O   0  0  0  0  0  0  0  0  0  0  0  0
   55.9630   22.4630   48.0850 C   0  0  0  0  0  0  0  0  0  0  0  0
   57.8050   28.1790   44.7330 C   0  0  0  0  0  0  0  0  0  0  0  0
   58.6220   27.8830   43.8140 O   0  0  0  0  0  0  0  0  0  0  0  0
   56.8410   29.3110   44.4830 C   0  0  0  0  0  0  0  0  0  0  0  0
   57.4750   30.6400   44.8030 C   0  0  0  0  0  0  0  0  0  0  0  0
   58.1250   30.8470   46.0290 C   0  0  0  0  0  0  0  0  0  0  0  0
   58.6830   32.0920   46.3310 C   0  0  0  0  0  0  0  0  0  0  0  0
   58.5990   33.1540   45.4130 C   0  0  0  0  0  0  0  0  0  0  0  0
   59.1740   34.4820   45.7350 C   0  0  0  0  0  0  0  0  0  0  0  0
   59.1910   35.3780   44.8500 O   0  0  0  0  0  0  0  0  0  0  0  0
   59.7560   34.7690   47.0120 N   0  0  0  0  0  0  0  0  0  0  0  0
   60.9790   34.2200   47.5270 C   0  0  0  0  0  0  0  0  0  0  0  0
   61.1400   34.1060   48.9140 C   0  0  0  0  0  0  0  0  0  0  0  0
   62.3120   33.5610   49.4480 C   0  0  0  0  0  0  0  0  0  0  0  0
   63.3270   33.1110   48.5980 C   0  0  0  0  0  0  0  0  0  0  0  0
   64.4630   32.5820   49.1190 F   0  0  0  0  0  0  0  0  0  0  0  0
   63.1670   33.2020   47.2110 C   0  0  0  0  0  0  0  0  0  0  0  0
   64.1450   32.7560   46.3830 F   0  0  0  0  0  0  0  0  0  0  0  0
   61.9940   33.7450   46.6750 C   0  0  0  0  0  0  0  0  0  0  0  0
   57.9730   32.9370   44.1750 C   0  0  0  0  0  0  0  0  0  0  0  0
   57.4110   31.6940   43.8750 C   0  0  0  0  0  0  0  0  0  0  0  0
   59.8322   28.0105   48.6267 H   0  0  0  0  0  0  0  0  0  0  0  0
   60.0776   27.1007   47.0975 H   0  0  0  0  0  0  0  0  0  0  0  0
   60.1566   28.8953   47.0975 H   0  0  0  0  0  0  0  0  0  0  0  0
   57.6216   27.5689   48.0678 H   0  0  0  0  0  0  0  0  0  0  0  0
   57.8596   29.1404   47.2090 H   0  0  0  0  0  0  0  0  0  0  0  0
   58.0265   25.5427   45.0841 H   0  0  0  0  0  0  0  0  0  0  0  0
   57.9537   25.5573   46.8942 H   0  0  0  0  0  0  0  0  0  0  0  0
   55.4211   23.9939   43.1404 H   0  0  0  0  0  0  0  0  0  0  0  0
   56.3846   22.0695   41.8805 H   0  0  0  0  0  0  0  0  0  0  0  0
   57.6456   20.2899   43.0863 H   0  0  0  0  0  0  0  0  0  0  0  0
   57.9722   20.4389   45.5512 H   0  0  0  0  0  0  0  0  0  0  0  0
   56.3769   22.4478   49.1040 H   0  0  0  0  0  0  0  0  0  0  0  0
   55.3779   23.3832   47.9406 H   0  0  0  0  0  0  0  0  0  0  0  0
   55.3121   21.5881   47.9406 H   0  0  0  0  0  0  0  0  0  0  0  0
   56.5409   29.3010   43.4248 H   0  0  0  0  0  0  0  0  0  0  0  0
   55.9642   29.1751   45.1332 H   0  0  0  0  0  0  0  0  0  0  0  0
   58.1957   30.0248   46.7564 H   0  0  0  0  0  0  0  0  0  0  0  0
   59.1920   32.2426   47.2945 H   0  0  0  0  0  0  0  0  0  0  0  0
   60.3397   34.4472   49.5871 H   0  0  0  0  0  0  0  0  0  0  0  0
   62.4356   33.4862   50.5385 H   0  0  0  0  0  0  0  0  0  0  0  0
   61.8646   33.8009   45.5841 H   0  0  0  0  0  0  0  0  0  0  0  0
   57.9249   33.7511   43.4368 H   0  0  0  0  0  0  0  0  0  0  0  0
   56.9148   31.5387   42.9056 H   0  0  0  0  0  0  0  0  0  0  0  0
  1  2  1  0
  2  3  1  0
  3  4  1  0
  4  5  1  0
  5  6  2  0
  5  7  1  0
  7  8  1  0
  8  9  2  0
  9 10  1  0
 10 11  2  0
 11 12  1  0
 12 13  2  0
 13 14  1  0
 14 15  1  0
  3 16  1  0
 16 17  2  0
 16 18  1  0
 18 19  1  0
 19 20  2  0
 20 21  1  0
 21 22  2  0
 22 23  1  0
 23 24  2  0
 23 25  1  0
 25 26  1  0
 26 27  2  0
 27 28  1  0
 28 29  2  0
 29 30  1  0
 29 31  1  0
 31 32  1  0
 31 33  2  0
 22 34  1  0
 34 35  2  0
 13  8  1  0
 35 19  1  0
 33 26  1  0
  1 36  1  0
  1 37  1  0
  1 38  1  0
  2 39  1  0
  2 40  1  0
  4 41  1  0
  4 42  1  0
  9 43  1  0
 10 44  1  0
 11 45  1  0
 12 46  1  0
 15 47  1  0
 15 48  1  0
 15 49  1  0
 18 50  1  0
 18 51  1  0
 20 52  1  0
 21 53  1  0
 27 54  1  0
 28 55  1  0
 33 56  1  0
 34 57  1  0
 35 58  1  0
M  CHG  2   7  -1  25  -1
M  END
>  <UniqueID>  (50) 
43

>  <SMILES>  (50) 
CCN(CC(=O)[N-]c1ccccc1OC)C(=O)Cc1ccc(C(=O)[N-]c2ccc(F)c(F)c2)cc1

>  <Energy>  (50) 
65.69949265617934

>  <Genealogy>  (50) 
CCN(CC(=O)[N-]c1ccccc1OC)C(=O)Cc1ccc(C(=O)[N-]c2ccc(F)c(F)c2)cc1 (protonated)
CCN(CC(=O)[N-]c1ccccc1OC)C(=O)Cc1ccc(C(=O)[N-]c2ccc(F)c(F)c2)cc1 (3D coordinates assigned)
CCN(CC(=O)[N-]c1ccccc1OC)C(=O)Cc1ccc(C(=O)[N-]c2ccc(F)c(F)c2)cc1 (optimized conformer: 65.69949265617934 kcal/mol)

>  <smiles>  (50) 
CCN(CC(=O)Nc1ccccc1OC)C(=O)Cc1ccc(C(=O)Nc2ccc(F)c(F)c2)cc1

>  <score_type>  (50) 
oracle

>  <origin>  (50) 
adg

>  <m_score__min__energy>  (50) 
-13.210000000000001

>  <m_primary>  (50) 
energy

$$$$
50:0
     RDKit          3D

 51 53  0  0  0  0  0  0  0  0999 V2000
   57.7770   26.2230   43.7950 C   0  0  0  0  0  0  0  0  0  0  0  0
   58.2750   26.8040   45.1010 C   0  0  0  0  0  0  0  0  0  0  0  0
   58.7300   25.9410   46.1240 C   0  0  0  0  0  0  0  0  0  0  0  0
   58.7630   24.1880   45.9540 Cl  0  0  0  0  0  0  0  0  0  0  0  0
   59.1750   26.4620   47.2920 N   0  0  0  0  0  0  0  0  0  0  0  0
   59.2050   27.8000   47.5140 C   0  0  0  0  0  0  0  0  0  0  0  0
   59.6190   28.2720   48.6540 N   0  0  0  0  0  0  0  0  0  0  0  0
   58.9210   29.3000   49.4190 C   0  0  0  0  0  0  0  0  0  0  0  0
   59.6520   30.5970   49.2860 C   0  0  0  0  0  0  0  0  0  0  0  0
   59.2540   31.6000   49.9380 O   0  0  0  0  0  0  0  0  0  0  0  0
   60.7330   30.7160   48.3470 N   0  0  0  0  0  0  0  0  0  0  0  0
   61.6410   31.8310   48.2970 C   0  0  0  0  0  0  0  0  0  0  0  0
   62.1150   32.3410   47.0730 C   0  0  0  0  0  0  0  0  0  0  0  0
   62.9730   33.4450   47.0540 C   0  0  0  0  0  0  0  0  0  0  0  0
   63.3520   34.0600   48.2510 C   0  0  0  0  0  0  0  0  0  0  0  0
   62.8710   33.5710   49.4690 C   0  0  0  0  0  0  0  0  0  0  0  0
   62.0150   32.4650   49.4920 C   0  0  0  0  0  0  0  0  0  0  0  0
   58.7850   28.6700   46.5030 C   0  0  0  0  0  0  0  0  0  0  0  0
   58.8110   29.9160   46.7140 O   0  0  0  0  0  0  0  0  0  0  0  0
   58.3470   28.1720   45.2970 N   0  0  0  0  0  0  0  0  0  0  0  0
   57.9270   29.1200   44.2420 C   0  0  0  0  0  0  0  0  0  0  0  0
   56.6010   29.7310   44.5800 C   0  0  0  0  0  0  0  0  0  0  0  0
   55.6260   28.9910   44.8820 O   0  0  0  0  0  0  0  0  0  0  0  0
   56.4490   31.1540   44.5450 N   0  0  0  0  0  0  0  0  0  0  0  0
   57.4460   32.0620   43.9920 C   0  0  0  0  0  0  0  0  0  0  0  0
   58.0580   32.9010   45.0810 C   0  0  0  0  0  0  0  0  0  0  0  0
   58.9470   33.9420   44.7680 C   0  0  0  0  0  0  0  0  0  0  0  0
   59.5190   34.7080   45.7880 C   0  0  0  0  0  0  0  0  0  0  0  0
   59.2110   34.4380   47.1250 C   0  0  0  0  0  0  0  0  0  0  0  0
   58.3280   33.4030   47.4440 C   0  0  0  0  0  0  0  0  0  0  0  0
   57.7520   32.6360   46.4270 C   0  0  0  0  0  0  0  0  0  0  0  0
   57.0740   25.4029   44.0029 H   0  0  0  0  0  0  0  0  0  0  0  0
   57.2656   27.0065   43.2165 H   0  0  0  0  0  0  0  0  0  0  0  0
   58.6295   25.8374   43.2165 H   0  0  0  0  0  0  0  0  0  0  0  0
   57.8974   29.4139   49.0327 H   0  0  0  0  0  0  0  0  0  0  0  0
   58.8805   29.0069   50.4785 H   0  0  0  0  0  0  0  0  0  0  0  0
   60.8160   29.9790   47.6110 H   0  0  0  0  0  0  0  0  0  0  0  0
   61.8090   31.8689   46.1278 H   0  0  0  0  0  0  0  0  0  0  0  0
   63.3505   33.8304   46.0954 H   0  0  0  0  0  0  0  0  0  0  0  0
   64.0279   34.9277   48.2343 H   0  0  0  0  0  0  0  0  0  0  0  0
   63.1661   34.0567   50.4108 H   0  0  0  0  0  0  0  0  0  0  0  0
   61.6325   32.0898   50.4527 H   0  0  0  0  0  0  0  0  0  0  0  0
   58.6798   29.9169   44.1514 H   0  0  0  0  0  0  0  0  0  0  0  0
   57.8343   28.5746   43.2913 H   0  0  0  0  0  0  0  0  0  0  0  0
   58.2359   31.4756   43.4999 H   0  0  0  0  0  0  0  0  0  0  0  0
   56.9568   32.7262   43.2643 H   0  0  0  0  0  0  0  0  0  0  0  0
   59.1939   34.1553   43.7175 H   0  0  0  0  0  0  0  0  0  0  0  0
   60.2126   35.5245   45.5384 H   0  0  0  0  0  0  0  0  0  0  0  0
   59.6640   35.0406   47.9260 H   0  0  0  0  0  0  0  0  0  0  0  0
   58.0860   33.1916   48.4960 H   0  0  0  0  0  0  0  0  0  0  0  0
   57.0568   31.8222   46.6811 H   0  0  0  0  0  0  0  0  0  0  0  0
  1  2  1  0
  2  3  2  0
  3  4  1  0
  3  5  1  0
  5  6  1  0
  6  7  2  3
  7  8  1  0
  8  9  1  0
  9 10  2  0
  9 11  1  0
 11 12  1  0
 12 13  2  0
 13 14  1  0
 14 15  2  0
 15 16  1  0
 16 17  2  0
  6 18  1  0
 18 19  2  0
 18 20  1  0
 20 21  1  0
 21 22  1  0
 22 23  2  0
 22 24  1  0
 24 25  1  0
 25 26  1  0
 26 27  2  0
 27 28  1  0
 28 29  2  0
 29 30  1  0
 30 31  2  0
 20  2  1  0
 31 26  1  0
 17 12  1  0
  1 32  1  0
  1 33  1  0
  1 34  1  0
  8 35  1  0
  8 36  1  0
 11 37  1  0
 13 38  1  0
 14 39  1  0
 15 40  1  0
 16 41  1  0
 17 42  1  0
 21 43  1  0
 21 44  1  0
 25 45  1  0
 25 46  1  0
 27 47  1  0
 28 48  1  0
 29 49  1  0
 30 50  1  0
 31 51  1  0
M  CHG  2   5  -1  24  -1
M  END
>  <UniqueID>  (51) 
44

>  <SMILES>  (51) 
Cc1c(Cl)[n-]c(=NCC(=O)Nc2ccccc2)c(=O)n1CC(=O)[N-]Cc1ccccc1

>  <Energy>  (51) 
59.871654270344266

>  <Genealogy>  (51) 
Cc1c(Cl)[n-]c(=NCC(=O)Nc2ccccc2)c(=O)n1CC(=O)[N-]Cc1ccccc1 (protonated)
Cc1c(Cl)[n-]c(=NCC(=O)Nc2ccccc2)c(=O)n1CC(=O)[N-]Cc1ccccc1 (3D coordinates assigned)
Cc1c(Cl)[n-]c(=NCC(=O)Nc2ccccc2)c(=O)n1CC(=O)[N-]Cc1ccccc1 (optimized conformer: 59.871654270344266 kcal/mol)

>  <smiles>  (51) 
Cc1c(Cl)[nH]c(=NCC(=O)Nc2ccccc2)c(=O)n1CC(=O)NCc1ccccc1

>  <score_type>  (51) 
oracle

>  <origin>  (51) 
adg

>  <m_score__min__energy>  (51) 
-11.66

>  <m_primary>  (51) 
energy

$$$$
51:0
     RDKit          3D

 52 55  0  0  0  0  0  0  0  0999 V2000
   56.1461   32.1063   44.1042 H   0  0  0  0  0  0  0  0  0  0  0  0
   57.0750   31.6420   44.4670 C   0  0  0  0  0  0  0  0  0  0  0  0
   57.4160   30.4440   43.9700 C   0  0  0  0  0  0  0  0  0  0  0  0
   57.5999   30.3531   42.8893 H   0  0  0  0  0  0  0  0  0  0  0  0
   57.5550   29.2360   44.8210 C   0  0  0  0  0  0  0  0  0  0  0  0
   56.4070   28.5540   45.2340 C   0  0  0  0  0  0  0  0  0  0  0  0
   55.1440   28.9810   44.8390 O   0  0  0  0  0  0  0  0  0  0  0  0
   56.5160   27.4560   46.0180 N   0  0  0  0  0  0  0  0  0  0  0  0
   57.7220   26.9930   46.4310 C   0  0  0  0  0  0  0  0  0  0  0  0
   57.7590   25.9610   47.1540 O   0  0  0  0  0  0  0  0  0  0  0  0
   58.8760   27.6410   46.0670 N   0  0  0  0  0  0  0  0  0  0  0  0
   60.1860   27.1630   46.5560 C   0  0  0  0  0  0  0  0  0  0  0  0
   60.1940   26.0630   46.5524 H   0  0  0  0  0  0  0  0  0  0  0  0
   60.9749   27.5509   45.8948 H   0  0  0  0  0  0  0  0  0  0  0  0
   60.4400   27.6560   47.9580 C   0  0  0  0  0  0  0  0  0  0  0  0
   60.6050   29.0280   48.2080 C   0  0  0  0  0  0  0  0  0  0  0  0
   60.5270   29.7486   47.3806 H   0  0  0  0  0  0  0  0  0  0  0  0
   60.8680   29.4820   49.5040 C   0  0  0  0  0  0  0  0  0  0  0  0
   60.9924   30.5582   49.6943 H   0  0  0  0  0  0  0  0  0  0  0  0
   60.9730   28.5710   50.5570 C   0  0  0  0  0  0  0  0  0  0  0  0
   61.1811   28.9302   51.5757 H   0  0  0  0  0  0  0  0  0  0  0  0
   60.8140   27.2040   50.3180 C   0  0  0  0  0  0  0  0  0  0  0  0
   60.8972   26.4874   51.1484 H   0  0  0  0  0  0  0  0  0  0  0  0
   60.5490   26.7460   49.0230 C   0  0  0  0  0  0  0  0  0  0  0  0
   60.4254   25.6688   48.8377 H   0  0  0  0  0  0  0  0  0  0  0  0
   58.8030   28.7660   45.2820 C   0  0  0  0  0  0  0  0  0  0  0  0
   59.8550   29.4010   44.9890 O   0  0  0  0  0  0  0  0  0  0  0  0
   57.8740   32.3790   45.4760 C   0  0  0  0  0  0  0  0  0  0  0  0
   57.3300   33.4010   46.2780 C   0  0  0  0  0  0  0  0  0  0  0  0
   56.2700   33.6746   46.1708 H   0  0  0  0  0  0  0  0  0  0  0  0
   58.1300   34.0700   47.2100 C   0  0  0  0  0  0  0  0  0  0  0  0
   57.6912   34.8618   47.8349 H   0  0  0  0  0  0  0  0  0  0  0  0
   59.4820   33.7430   47.3560 C   0  0  0  0  0  0  0  0  0  0  0  0
   60.2340   34.4420   48.3140 O   0  0  0  0  0  0  0  0  0  0  0  0
   60.7350   33.8910   49.5330 C   0  0  0  0  0  0  0  0  0  0  0  0
   61.5229   33.1593   49.3010 H   0  0  0  0  0  0  0  0  0  0  0  0
   61.1400   34.7076   50.1488 H   0  0  0  0  0  0  0  0  0  0  0  0
   59.6360   33.2060   50.3020 C   0  0  0  0  0  0  0  0  0  0  0  0
   59.1580   33.7680   51.4970 C   0  0  0  0  0  0  0  0  0  0  0  0
   59.5829   34.7130   51.8664 H   0  0  0  0  0  0  0  0  0  0  0  0
   58.1440   33.1310   52.2190 C   0  0  0  0  0  0  0  0  0  0  0  0
   57.7686   33.5792   53.1507 H   0  0  0  0  0  0  0  0  0  0  0  0
   57.6060   31.9240   51.7580 C   0  0  0  0  0  0  0  0  0  0  0  0
   56.3330   31.1260   52.6640 Cl  0  0  0  0  0  0  0  0  0  0  0  0
   58.0870   31.3530   50.5750 C   0  0  0  0  0  0  0  0  0  0  0  0
   57.6669   30.4028   50.2136 H   0  0  0  0  0  0  0  0  0  0  0  0
   59.1010   31.9880   49.8510 C   0  0  0  0  0  0  0  0  0  0  0  0
   59.4811   31.5320   48.9249 H   0  0  0  0  0  0  0  0  0  0  0  0
   60.0340   32.7370   46.5420 C   0  0  0  0  0  0  0  0  0  0  0  0
   61.0982   32.4762   46.6391 H   0  0  0  0  0  0  0  0  0  0  0  0
   59.2360   32.0680   45.6110 C   0  0  0  0  0  0  0  0  0  0  0  0
   59.6805   31.2877   44.9757 H   0  0  0  0  0  0  0  0  0  0  0  0
  1  2  1  0
  2  3  2  0
  3  4  1  0
  3  5  1  0
  5  6  2  0
  6  7  1  0
  6  8  1  0
  8  9  1  0
  9 10  2  0
  9 11  1  0
 11 12  1  0
 12 13  1  0
 12 14  1  0
 12 15  1  0
 15 16  2  0
 16 17  1  0
 16 18  1  0
 18 19  1  0
 18 20  2  0
 20 21  1  0
 20 22  1  0
 22 23  1  0
 22 24  2  0
 24 25  1  0
 11 26  1  0
 26 27  2  0
  2 28  1  0
 28 29  2  0
 29 30  1  0
 29 31  1  0
 31 32  1  0
 31 33  2  0
 33 34  1  0
 34 35  1  0
 35 36  1  0
 35 37  1  0
 35 38  1  0
 38 39  2  0
 39 40  1  0
 39 41  1  0
 41 42  1  0
 41 43  2  0
 43 44  1  0
 43 45  1  0
 45 46  1  0
 45 47  2  0
 47 48  1  0
 33 49  1  0
 49 50  1  0
 49 51  2  0
 51 52  1  0
 26  5  1  0
 51 28  1  0
 24 15  1  0
 47 38  1  0
M  CHG  2   7  -1   8  -1
M  END
>  <UniqueID>  (52) 
45

>  <SMILES>  (52) 
O=c1[n-]c([O-])c(/C=C/c2ccc(OCc3ccc(Cl)cc3)cc2)c(=O)n1Cc1ccccc1

>  <Energy>  (52) 
68.79436475225057

>  <Genealogy>  (52) 
O=c1[n-]c([O-])c(C=Cc2ccc(OCc3ccc(Cl)cc3)cc2)c(=O)n1Cc1ccccc1 (protonated)
O=c1[n-]c([O-])c(/C=C/c2ccc(OCc3ccc(Cl)cc3)cc2)c(=O)n1Cc1ccccc1 (cis-trans isomerization)
O=c1[n-]c([O-])c(/C=C/c2ccc(OCc3ccc(Cl)cc3)cc2)c(=O)n1Cc1ccccc1 (3D coordinates assigned)
O=c1[n-]c([O-])c(/C=C/c2ccc(OCc3ccc(Cl)cc3)cc2)c(=O)n1Cc1ccccc1 (optimized conformer: 68.79436475225057 kcal/mol)

>  <smiles>  (52) 
O=c1[nH]c(O)c(C=Cc2ccc(OCc3ccc(Cl)cc3)cc2)c(=O)n1Cc1ccccc1

>  <score_type>  (52) 
oracle

>  <origin>  (52) 
adg

>  <m_score__min__energy>  (52) 
-14.15

>  <m_primary>  (52) 
energy

$$$$
52:0
     RDKit          3D

 41 43  0  0  0  0  0  0  0  0999 V2000
   59.9420   28.7220   48.0380 O   0  0  0  0  0  0  0  0  0  0  0  0
   59.3250   27.6540   47.7800 C   0  0  0  0  0  0  0  0  0  0  0  0
   58.7720   27.3740   46.4350 C   0  0  0  0  0  0  0  0  0  0  0  0
   58.3410   26.0640   46.1620 C   0  0  0  0  0  0  0  0  0  0  0  0
   57.8470   25.7240   44.9020 C   0  0  0  0  0  0  0  0  0  0  0  0
   57.7710   26.6870   43.8980 C   0  0  0  0  0  0  0  0  0  0  0  0
   58.1820   27.9960   44.1520 C   0  0  0  0  0  0  0  0  0  0  0  0
   58.6890   28.3560   45.4130 C   0  0  0  0  0  0  0  0  0  0  0  0
   59.0300   29.7270   45.6710 N   0  0  0  0  0  0  0  0  0  0  0  0
   58.1480   30.8210   45.3660 C   0  0  0  0  0  0  0  0  0  0  0  0
   57.0070   30.5930   44.8780 O   0  0  0  0  0  0  0  0  0  0  0  0
   58.5580   32.2240   45.6140 C   0  0  0  0  0  0  0  0  0  0  0  0
   58.3740   33.1960   44.6230 C   0  0  0  0  0  0  0  0  0  0  0  0
   58.7490   34.5150   44.8590 C   0  0  0  0  0  0  0  0  0  0  0  0
   59.3210   34.8630   46.0850 C   0  0  0  0  0  0  0  0  0  0  0  0
   59.6440   36.0660   46.2870 O   0  0  0  0  0  0  0  0  0  0  0  0
   59.5290   33.9070   47.0480 N   0  0  0  0  0  0  0  0  0  0  0  0
   60.1120   34.2630   48.3530 C   0  0  0  0  0  0  0  0  0  0  0  0
   61.5490   33.8170   48.4190 C   0  0  0  0  0  0  0  0  0  0  0  0
   62.2320   33.8090   49.6460 C   0  0  0  0  0  0  0  0  0  0  0  0
   63.5770   33.4310   49.7020 C   0  0  0  0  0  0  0  0  0  0  0  0
   64.2510   33.0650   48.5340 C   0  0  0  0  0  0  0  0  0  0  0  0
   63.5800   33.0790   47.3080 C   0  0  0  0  0  0  0  0  0  0  0  0
   62.2350   33.4570   47.2470 C   0  0  0  0  0  0  0  0  0  0  0  0
   59.1540   32.6090   46.8270 C   0  0  0  0  0  0  0  0  0  0  0  0
   59.1933   26.9077   48.5773 H   0  0  0  0  0  0  0  0  0  0  0  0
   58.3938   25.2986   46.9503 H   0  0  0  0  0  0  0  0  0  0  0  0
   57.5171   24.6941   44.7011 H   0  0  0  0  0  0  0  0  0  0  0  0
   57.3865   26.4150   42.9039 H   0  0  0  0  0  0  0  0  0  0  0  0
   58.1086   28.7537   43.3579 H   0  0  0  0  0  0  0  0  0  0  0  0
   59.9500   29.9160   46.1270 H   0  0  0  0  0  0  0  0  0  0  0  0
   57.9319   32.9161   43.6554 H   0  0  0  0  0  0  0  0  0  0  0  0
   58.5957   35.2802   44.0837 H   0  0  0  0  0  0  0  0  0  0  0  0
   60.0634   35.3537   48.4874 H   0  0  0  0  0  0  0  0  0  0  0  0
   59.5431   33.7610   49.1495 H   0  0  0  0  0  0  0  0  0  0  0  0
   61.7066   34.1014   50.5671 H   0  0  0  0  0  0  0  0  0  0  0  0
   64.1052   33.4217   50.6668 H   0  0  0  0  0  0  0  0  0  0  0  0
   65.3087   32.7661   48.5794 H   0  0  0  0  0  0  0  0  0  0  0  0
   64.1113   32.7919   46.3886 H   0  0  0  0  0  0  0  0  0  0  0  0
   61.7128   33.4725   46.2790 H   0  0  0  0  0  0  0  0  0  0  0  0
   59.3218   31.8559   47.6110 H   0  0  0  0  0  0  0  0  0  0  0  0
  1  2  2  0
  2  3  1  0
  3  4  2  0
  4  5  1  0
  5  6  2  0
  6  7  1  0
  7  8  2  0
  8  9  1  0
  9 10  1  0
 10 11  2  0
 10 12  1  0
 12 13  1  0
 13 14  2  0
 14 15  1  0
 15 16  2  0
 15 17  1  0
 17 18  1  0
 18 19  1  0
 19 20  2  0
 20 21  1  0
 21 22  2  0
 22 23  1  0
 23 24  2  0
 17 25  1  0
  8  3  1  0
 25 12  2  0
 24 19  1  0
  2 26  1  0
  4 27  1  0
  5 28  1  0
  6 29  1  0
  7 30  1  0
  9 31  1  0
 13 32  1  0
 14 33  1  0
 18 34  1  0
 18 35  1  0
 20 36  1  0
 21 37  1  0
 22 38  1  0
 23 39  1  0
 24 40  1  0
 25 41  1  0
M  END
>  <UniqueID>  (53) 
46

>  <SMILES>  (53) 
O=Cc1ccccc1NC(=O)c1ccc(=O)n(Cc2ccccc2)c1

>  <Energy>  (53) 
55.03592754666032

>  <Genealogy>  (53) 
O=Cc1ccccc1NC(=O)c1ccc(=O)n(Cc2ccccc2)c1 (3D coordinates assigned)
O=Cc1ccccc1NC(=O)c1ccc(=O)n(Cc2ccccc2)c1 (optimized conformer: 55.03592754666032 kcal/mol)

>  <smiles>  (53) 
O=Cc1ccccc1NC(=O)c1ccc(=O)n(Cc2ccccc2)c1

>  <score_type>  (53) 
oracle

>  <origin>  (53) 
adg

>  <m_score__min__energy>  (53) 
-8.3100000000000005

>  <m_primary>  (53) 
energy

$$$$
53:0
     RDKit          3D

 46 48  0  0  0  0  0  0  0  0999 V2000
   60.8720   32.5670   49.8500 H   0  0  0  0  0  0  0  0  0  0  0  0
   60.0450   31.9890   49.9500 O   0  0  0  0  0  0  0  0  0  0  0  0
   59.9020   30.7940   49.2470 C   0  0  0  0  0  0  0  0  0  0  0  0
   58.7730   29.9900   49.4450 C   0  0  0  0  0  0  0  0  0  0  0  0
   57.9974   30.3011   50.1603 H   0  0  0  0  0  0  0  0  0  0  0  0
   58.6280   28.7950   48.7380 C   0  0  0  0  0  0  0  0  0  0  0  0
   57.7413   28.1663   48.9071 H   0  0  0  0  0  0  0  0  0  0  0  0
   59.6020   28.3880   47.8140 C   0  0  0  0  0  0  0  0  0  0  0  0
   59.4010   27.1050   47.0950 C   0  0  0  0  0  0  0  0  0  0  0  0
   60.1076   26.2850   47.2907 H   0  0  0  0  0  0  0  0  0  0  0  0
   58.4080   26.8880   46.2210 C   0  0  0  0  0  0  0  0  0  0  0  0
   58.1301   25.8503   45.9846 H   0  0  0  0  0  0  0  0  0  0  0  0
   57.6690   27.9910   45.5600 C   0  0  0  0  0  0  0  0  0  0  0  0
   56.2750   27.9210   45.4630 C   0  0  0  0  0  0  0  0  0  0  0  0
   55.5790   26.8440   46.0010 O   0  0  0  0  0  0  0  0  0  0  0  0
   55.5880   28.9150   44.8540 N   0  0  0  0  0  0  0  0  0  0  0  0
   56.2160   29.9880   44.3150 C   0  0  0  0  0  0  0  0  0  0  0  0
   55.5190   30.8820   43.7600 O   0  0  0  0  0  0  0  0  0  0  0  0
   57.5830   30.0910   44.3670 N   0  0  0  0  0  0  0  0  0  0  0  0
   58.2730   31.2360   43.7360 C   0  0  0  0  0  0  0  0  0  0  0  0
   59.3174   31.2583   44.0805 H   0  0  0  0  0  0  0  0  0  0  0  0
   58.2241   31.1102   42.6443 H   0  0  0  0  0  0  0  0  0  0  0  0
   57.5990   32.5670   44.0990 C   0  0  0  0  0  0  0  0  0  0  0  0
   57.6649   33.2464   43.2364 H   0  0  0  0  0  0  0  0  0  0  0  0
   56.5506   32.3596   44.3596 H   0  0  0  0  0  0  0  0  0  0  0  0
   58.2560   33.2210   45.2860 C   0  0  0  0  0  0  0  0  0  0  0  0
   59.0870   34.3410   45.1100 C   0  0  0  0  0  0  0  0  0  0  0  0
   59.2878   34.7212   44.0975 H   0  0  0  0  0  0  0  0  0  0  0  0
   59.6590   34.9730   46.2180 C   0  0  0  0  0  0  0  0  0  0  0  0
   60.3122   35.8464   46.0748 H   0  0  0  0  0  0  0  0  0  0  0  0
   59.4030   34.4980   47.5070 C   0  0  0  0  0  0  0  0  0  0  0  0
   59.8556   34.9961   48.3771 H   0  0  0  0  0  0  0  0  0  0  0  0
   58.5710   33.3890   47.6900 C   0  0  0  0  0  0  0  0  0  0  0  0
   58.3688   33.0159   48.7048 H   0  0  0  0  0  0  0  0  0  0  0  0
   57.9960   32.7540   46.5860 C   0  0  0  0  0  0  0  0  0  0  0  0
   57.3375   31.8855   46.7348 H   0  0  0  0  0  0  0  0  0  0  0  0
   58.3160   29.0960   44.9690 C   0  0  0  0  0  0  0  0  0  0  0  0
   59.5780   29.1550   44.9690 O   0  0  0  0  0  0  0  0  0  0  0  0
   60.7450   29.1920   47.6310 C   0  0  0  0  0  0  0  0  0  0  0  0
   61.5268   28.8739   46.9256 H   0  0  0  0  0  0  0  0  0  0  0  0
   60.8970   30.3990   48.3420 C   0  0  0  0  0  0  0  0  0  0  0  0
   62.0180   31.2280   48.1810 O   0  0  0  0  0  0  0  0  0  0  0  0
   62.1820   32.1670   47.1230 C   0  0  0  0  0  0  0  0  0  0  0  0
   62.3568   33.1678   47.5448 H   0  0  0  0  0  0  0  0  0  0  0  0
   63.0427   31.8747   46.5035 H   0  0  0  0  0  0  0  0  0  0  0  0
   61.2732   32.1838   46.5035 H   0  0  0  0  0  0  0  0  0  0  0  0
  1  2  1  0
  2  3  1  0
  3  4  2  0
  4  5  1  0
  4  6  1  0
  6  7  1  0
  6  8  2  0
  8  9  1  0
  9 10  1  0
  9 11  2  0
 11 12  1  0
 11 13  1  0
 13 14  2  0
 14 15  1  0
 14 16  1  0
 16 17  1  0
 17 18  2  0
 17 19  1  0
 19 20  1  0
 20 21  1  0
 20 22  1  0
 20 23  1  0
 23 24  1  0
 23 25  1  0
 23 26  1  0
 26 27  2  0
 27 28  1  0
 27 29  1  0
 29 30  1  0
 29 31  2  0
 31 32  1  0
 31 33  1  0
 33 34  1  0
 33 35  2  0
 35 36  1  0
 19 37  1  0
 37 38  2  0
  8 39  1  0
 39 40  1  0
 39 41  2  0
 41 42  1  0
 42 43  1  0
 43 44  1  0
 43 45  1  0
 43 46  1  0
 41  3  1  0
 37 13  1  0
 35 26  1  0
M  CHG  2  15  -1  16  -1
M  END
>  <UniqueID>  (54) 
47

>  <SMILES>  (54) 
COc1cc(/C=C/c2c([O-])[n-]c(=O)n(CCc3ccccc3)c2=O)ccc1O

>  <Energy>  (54) 
57.01256596987954

>  <Genealogy>  (54) 
COc1cc(C=Cc2c([O-])[n-]c(=O)n(CCc3ccccc3)c2=O)ccc1O (protonated)
COc1cc(/C=C/c2c([O-])[n-]c(=O)n(CCc3ccccc3)c2=O)ccc1O (cis-trans isomerization)
COc1cc(/C=C/c2c([O-])[n-]c(=O)n(CCc3ccccc3)c2=O)ccc1O (3D coordinates assigned)
COc1cc(/C=C/c2c([O-])[n-]c(=O)n(CCc3ccccc3)c2=O)ccc1O (optimized conformer: 57.01256596987954 kcal/mol)

>  <smiles>  (54) 
COc1cc(C=Cc2c(O)[nH]c(=O)n(CCc3ccccc3)c2=O)ccc1O

>  <score_type>  (54) 
oracle

>  <origin>  (54) 
adg

>  <m_score__min__energy>  (54) 
-14.27

>  <m_primary>  (54) 
energy

$$$$
54:0
     RDKit          3D

 56 59  0  0  0  0  0  0  0  0999 V2000
   53.5540   22.2320   46.8210 C   0  0  0  0  0  0  0  0  0  0  0  0
   52.8390   22.6200   45.5910 N   0  0  0  0  0  0  0  0  0  0  0  0
   51.4210   22.2480   45.7100 C   0  0  0  0  0  0  0  0  0  0  0  0
   52.9610   24.0720   45.3470 C   0  0  0  0  0  0  0  0  0  0  0  0
   54.4020   24.4710   45.2630 C   0  0  0  0  0  0  0  0  0  0  0  0
   55.3850   23.8130   44.5510 C   0  0  0  0  0  0  0  0  0  0  0  0
   56.5330   24.5290   44.8110 C   0  0  0  0  0  0  0  0  0  0  0  0
   56.2290   25.5440   45.6480 N   0  0  0  0  0  0  0  0  0  0  0  0
   57.1260   26.5490   46.1570 C   0  0  0  0  0  0  0  0  0  0  0  0
   57.0760   27.8530   45.6360 C   0  0  0  0  0  0  0  0  0  0  0  0
   57.9330   28.8460   46.1150 C   0  0  0  0  0  0  0  0  0  0  0  0
   58.8540   28.5550   47.1290 C   0  0  0  0  0  0  0  0  0  0  0  0
   59.7230   29.5800   47.6400 N   0  0  0  0  0  0  0  0  0  0  0  0
   59.3520   30.2210   48.9120 C   0  0  0  0  0  0  0  0  0  0  0  0
   60.4800   31.0800   49.4810 C   0  0  0  0  0  0  0  0  0  0  0  0
   61.0320   31.9200   48.4180 N   0  0  0  0  0  0  0  0  0  0  0  0
   61.2510   33.3250   48.6340 C   0  0  0  0  0  0  0  0  0  0  0  0
   62.3090   33.7140   49.1980 O   0  0  0  0  0  0  0  0  0  0  0  0
   60.3050   34.3060   48.1880 N   0  0  0  0  0  0  0  0  0  0  0  0
   59.3560   34.1360   47.1250 C   0  0  0  0  0  0  0  0  0  0  0  0
   59.5170   34.7720   45.8800 C   0  0  0  0  0  0  0  0  0  0  0  0
   58.5670   34.5930   44.8700 C   0  0  0  0  0  0  0  0  0  0  0  0
   57.4650   33.7620   45.0860 C   0  0  0  0  0  0  0  0  0  0  0  0
   57.3150   33.1030   46.3090 C   0  0  0  0  0  0  0  0  0  0  0  0
   58.2610   33.2840   47.3230 C   0  0  0  0  0  0  0  0  0  0  0  0
   61.6420   31.2390   47.2740 C   0  0  0  0  0  0  0  0  0  0  0  0
   60.7610   30.1250   46.7950 C   0  0  0  0  0  0  0  0  0  0  0  0
   60.9870   29.6220   45.6620 O   0  0  0  0  0  0  0  0  0  0  0  0
   58.8980   27.2620   47.6690 C   0  0  0  0  0  0  0  0  0  0  0  0
   58.0420   26.2640   47.1910 C   0  0  0  0  0  0  0  0  0  0  0  0
   58.0810   25.0420   47.7770 F   0  0  0  0  0  0  0  0  0  0  0  0
   54.9340   25.5180   45.9230 N   0  0  0  0  0  0  0  0  0  0  0  0
   52.9715   22.5481   47.6989 H   0  0  0  0  0  0  0  0  0  0  0  0
   53.6835   21.1398   46.8408 H   0  0  0  0  0  0  0  0  0  0  0  0
   54.5403   22.7186   46.8408 H   0  0  0  0  0  0  0  0  0  0  0  0
   51.1487   22.1766   46.7734 H   0  0  0  0  0  0  0  0  0  0  0  0
   50.7990   23.0134   45.2228 H   0  0  0  0  0  0  0  0  0  0  0  0
   51.2548   21.2759   45.2228 H   0  0  0  0  0  0  0  0  0  0  0  0
   52.4601   24.3232   44.4004 H   0  0  0  0  0  0  0  0  0  0  0  0
   52.4902   24.6134   46.1808 H   0  0  0  0  0  0  0  0  0  0  0  0
   55.2762   22.9192   43.9191 H   0  0  0  0  0  0  0  0  0  0  0  0
   57.5313   24.3101   44.4043 H   0  0  0  0  0  0  0  0  0  0  0  0
   56.3538   28.0943   44.8421 H   0  0  0  0  0  0  0  0  0  0  0  0
   57.8844   29.8611   45.6941 H   0  0  0  0  0  0  0  0  0  0  0  0
   58.4725   30.8596   48.7427 H   0  0  0  0  0  0  0  0  0  0  0  0
   59.1370   29.4243   49.6393 H   0  0  0  0  0  0  0  0  0  0  0  0
   60.0858   31.7178   50.2859 H   0  0  0  0  0  0  0  0  0  0  0  0
   61.2703   30.4299   49.8845 H   0  0  0  0  0  0  0  0  0  0  0  0
   60.3934   35.4122   45.7009 H   0  0  0  0  0  0  0  0  0  0  0  0
   58.6873   35.1067   43.9048 H   0  0  0  0  0  0  0  0  0  0  0  0
   56.7150   33.6264   44.2929 H   0  0  0  0  0  0  0  0  0  0  0  0
   56.4520   32.4412   46.4744 H   0  0  0  0  0  0  0  0  0  0  0  0
   58.1451   32.7551   48.2805 H   0  0  0  0  0  0  0  0  0  0  0  0
   61.7873   31.9620   46.4578 H   0  0  0  0  0  0  0  0  0  0  0  0
   62.6097   30.8185   47.5851 H   0  0  0  0  0  0  0  0  0  0  0  0
   59.6107   27.0305   48.4743 H   0  0  0  0  0  0  0  0  0  0  0  0
  1  2  1  0
  2  3  1  0
  2  4  1  0
  4  5  1  0
  5  6  1  0
  6  7  2  0
  7  8  1  0
  8  9  1  0
  9 10  2  0
 10 11  1  0
 11 12  2  0
 12 13  1  0
 13 14  1  0
 14 15  1  0
 15 16  1  0
 16 17  1  0
 17 18  2  0
 17 19  1  0
 19 20  1  0
 20 21  2  0
 21 22  1  0
 22 23  2  0
 23 24  1  0
 24 25  2  0
 16 26  1  0
 26 27  1  0
 27 28  2  0
 12 29  1  0
 29 30  2  0
 30 31  1  0
  8 32  1  0
 32  5  2  0
 30  9  1  0
 27 13  1  0
 25 20  1  0
  1 33  1  0
  1 34  1  0
  1 35  1  0
  3 36  1  0
  3 37  1  0
  3 38  1  0
  4 39  1  0
  4 40  1  0
  6 41  1  0
  7 42  1  0
 10 43  1  0
 11 44  1  0
 14 45  1  0
 14 46  1  0
 15 47  1  0
 15 48  1  0
 21 49  1  0
 22 50  1  0
 23 51  1  0
 24 52  1  0
 25 53  1  0
 26 54  1  0
 26 55  1  0
 29 56  1  0
M  CHG  1  19  -1
M  END
>  <UniqueID>  (55) 
48

>  <SMILES>  (55) 
CN(C)Cc1ccn(-c2ccc(N3CCN(C(=O)[N-]c4ccccc4)CC3=O)cc2F)n1

>  <Energy>  (55) 
103.56055634530311

>  <Genealogy>  (55) 
CN(C)Cc1ccn(-c2ccc(N3CCN(C(=O)[N-]c4ccccc4)CC3=O)cc2F)n1 (protonated)
CN(C)Cc1ccn(-c2ccc(N3CCN(C(=O)[N-]c4ccccc4)CC3=O)cc2F)n1 (3D coordinates assigned)
CN(C)Cc1ccn(-c2ccc(N3CCN(C(=O)[N-]c4ccccc4)CC3=O)cc2F)n1 (nonaromatic ring conformer: 103.56055634530311 kcal/mol)

>  <smiles>  (55) 
CN(C)Cc1ccn(-c2ccc(N3CCN(C(=O)Nc4ccccc4)CC3=O)cc2F)n1

>  <score_type>  (55) 
oracle

>  <origin>  (55) 
adg

>  <m_score__min__energy>  (55) 
-9.2599999999999998

>  <m_primary>  (55) 
energy

$$$$
55:0
     RDKit          3D

 31 32  0  0  0  0  0  0  0  0999 V2000
   55.1680   27.9880   44.9170 H   0  0  0  0  0  0  0  0  0  0  0  0
   55.1240   28.9810   44.7150 O   0  0  0  0  0  0  0  0  0  0  0  0
   56.2780   29.7450   44.5470 C   0  0  0  0  0  0  0  0  0  0  0  0
   56.1870   31.1420   44.4620 C   0  0  0  0  0  0  0  0  0  0  0  0
   55.2105   31.6356   44.5751 H   0  0  0  0  0  0  0  0  0  0  0  0
   57.3330   31.9090   44.2340 C   0  0  0  0  0  0  0  0  0  0  0  0
   57.2587   33.0049   44.1751 H   0  0  0  0  0  0  0  0  0  0  0  0
   58.5720   31.2840   44.0810 C   0  0  0  0  0  0  0  0  0  0  0  0
   59.4712   31.8876   43.8884 H   0  0  0  0  0  0  0  0  0  0  0  0
   58.6720   29.8940   44.1720 C   0  0  0  0  0  0  0  0  0  0  0  0
   59.6483   29.4060   44.0349 H   0  0  0  0  0  0  0  0  0  0  0  0
   57.5360   29.1170   44.4370 C   0  0  0  0  0  0  0  0  0  0  0  0
   57.6750   27.6910   44.5210 N   0  0  0  0  0  0  0  0  0  0  0  0
   57.7310   26.9840   45.6160 C   0  0  0  0  0  0  0  0  0  0  0  0
   57.0740   25.6540   45.7420 C   0  0  0  0  0  0  0  0  0  0  0  0
   55.6960   25.5570   45.9730 C   0  0  0  0  0  0  0  0  0  0  0  0
   54.9130   26.6970   46.1030 O   0  0  0  0  0  0  0  0  0  0  0  0
   55.1190   24.3390   46.0970 N   0  0  0  0  0  0  0  0  0  0  0  0
   55.8410   23.1950   46.0030 C   0  0  0  0  0  0  0  0  0  0  0  0
   55.2510   22.0890   46.1410 O   0  0  0  0  0  0  0  0  0  0  0  0
   57.1920   23.2460   45.7720 N   0  0  0  0  0  0  0  0  0  0  0  0
   57.9800   22.0040   45.7080 C   0  0  0  0  0  0  0  0  0  0  0  0
   58.2004   21.6566   46.7282 H   0  0  0  0  0  0  0  0  0  0  0  0
   57.4058   21.2326   45.1740 H   0  0  0  0  0  0  0  0  0  0  0  0
   58.9226   22.1949   45.1740 H   0  0  0  0  0  0  0  0  0  0  0  0
   57.8180   24.4640   45.6690 C   0  0  0  0  0  0  0  0  0  0  0  0
   59.0680   24.5230   45.4960 O   0  0  0  0  0  0  0  0  0  0  0  0
   58.4820   27.5430   46.7850 C   0  0  0  0  0  0  0  0  0  0  0  0
   58.0165   27.1965   47.7195 H   0  0  0  0  0  0  0  0  0  0  0  0
   59.5268   27.2011   46.7471 H   0  0  0  0  0  0  0  0  0  0  0  0
   58.4543   28.6420   46.7471 H   0  0  0  0  0  0  0  0  0  0  0  0
  1  2  1  0
  2  3  1  0
  3  4  2  0
  4  5  1  0
  4  6  1  0
  6  7  1  0
  6  8  2  0
  8  9  1  0
  8 10  1  0
 10 11  1  0
 10 12  2  0
 12 13  1  0
 13 14  2  0
 14 15  1  0
 15 16  2  0
 16 17  1  0
 16 18  1  0
 18 19  1  0
 19 20  2  0
 19 21  1  0
 21 22  1  0
 22 23  1  0
 22 24  1  0
 22 25  1  0
 21 26  1  0
 26 27  2  0
 14 28  1  0
 28 29  1  0
 28 30  1  0
 28 31  1  0
 12  3  1  0
 26 15  1  0
M  CHG  2  17  -1  18  -1
M  END
>  <UniqueID>  (56) 
49

>  <SMILES>  (56) 
C/C(=N/c1ccccc1O)c1c([O-])[n-]c(=O)n(C)c1=O

>  <Energy>  (56) 
49.19916911225576

>  <Genealogy>  (56) 
CC(=Nc1ccccc1O)c1c([O-])[n-]c(=O)n(C)c1=O (protonated)
C/C(=N/c1ccccc1O)c1c([O-])[n-]c(=O)n(C)c1=O (cis-trans isomerization)
C/C(=N/c1ccccc1O)c1c([O-])[n-]c(=O)n(C)c1=O (3D coordinates assigned)
C/C(=N/c1ccccc1O)c1c([O-])[n-]c(=O)n(C)c1=O (optimized conformer: 49.19916911225576 kcal/mol)

>  <smiles>  (56) 
CC(=Nc1ccccc1O)c1c(O)[nH]c(=O)n(C)c1=O

>  <score_type>  (56) 
oracle

>  <origin>  (56) 
adg

>  <m_score__min__energy>  (56) 
-12.970000000000001

>  <m_primary>  (56) 
energy

$$$$
56:0
     RDKit          3D

 58 61  0  0  0  0  0  0  0  0999 V2000
   55.0760   26.6940   45.9770 N   0  0  0  0  0  0  0  0  0  0  0  0
   55.9900   25.6280   46.2400 C   0  0  0  0  0  0  0  0  0  0  0  0
   55.5370   24.4810   46.5090 O   0  0  0  0  0  0  0  0  0  0  0  0
   57.4520   25.8620   46.2000 C   0  0  0  0  0  0  0  0  0  0  0  0
   58.3420   24.7780   46.0890 C   0  0  0  0  0  0  0  0  0  0  0  0
   59.7200   24.9960   46.0500 C   0  0  0  0  0  0  0  0  0  0  0  0
   60.2290   26.2940   46.1170 C   0  0  0  0  0  0  0  0  0  0  0  0
   59.3600   27.3900   46.2190 C   0  0  0  0  0  0  0  0  0  0  0  0
   59.9200   28.7860   46.2720 C   0  0  0  0  0  0  0  0  0  0  0  0
   58.9950   29.6860   46.9900 N   0  0  0  0  0  0  0  0  0  0  0  0
   59.7440   30.5490   47.9350 C   0  0  0  0  0  0  0  0  0  0  0  0
   58.9370   31.7970   48.3200 C   0  0  0  0  0  0  0  0  0  0  0  0
   58.6060   32.6270   47.1380 N   0  0  0  0  0  0  0  0  0  0  0  0
   59.3210   33.9240   47.0810 C   0  0  0  0  0  0  0  0  0  0  0  0
   60.7980   33.8240   47.4110 C   0  0  0  0  0  0  0  0  0  0  0  0
   61.7560   33.8940   46.3840 C   0  0  0  0  0  0  0  0  0  0  0  0
   63.1140   33.7470   46.6730 C   0  0  0  0  0  0  0  0  0  0  0  0
   63.5330   33.5270   47.9870 C   0  0  0  0  0  0  0  0  0  0  0  0
   62.5890   33.4580   49.0250 C   0  0  0  0  0  0  0  0  0  0  0  0
   62.9800   33.2190   50.3850 N   0  0  0  0  0  0  0  0  0  0  0  0
   62.1880   33.5060   51.5490 C   0  0  0  0  0  0  0  0  0  0  0  0
   62.6850   34.1740   52.4990 O   0  0  0  0  0  0  0  0  0  0  0  0
   60.8140   32.9580   51.6700 C   0  0  0  0  0  0  0  0  0  0  0  0
   59.7260   33.8090   51.9350 C   0  0  0  0  0  0  0  0  0  0  0  0
   58.4300   33.2860   52.0370 C   0  0  0  0  0  0  0  0  0  0  0  0
   58.2060   31.9130   51.8700 C   0  0  0  0  0  0  0  0  0  0  0  0
   56.5790   31.2660   51.9740 Cl  0  0  0  0  0  0  0  0  0  0  0  0
   59.2850   31.0620   51.6070 C   0  0  0  0  0  0  0  0  0  0  0  0
   60.5820   31.5800   51.5090 C   0  0  0  0  0  0  0  0  0  0  0  0
   61.2310   33.6480   48.7370 C   0  0  0  0  0  0  0  0  0  0  0  0
   58.6020   31.8900   45.8530 C   0  0  0  0  0  0  0  0  0  0  0  0
   58.1220   30.4460   46.0550 C   0  0  0  0  0  0  0  0  0  0  0  0
   57.9720   27.1710   46.2650 C   0  0  0  0  0  0  0  0  0  0  0  0
   54.1160   26.6900   46.3880 H   0  0  0  0  0  0  0  0  0  0  0  0
   57.9492   23.7521   46.0326 H   0  0  0  0  0  0  0  0  0  0  0  0
   60.4077   24.1415   45.9661 H   0  0  0  0  0  0  0  0  0  0  0  0
   61.3164   26.4579   46.0897 H   0  0  0  0  0  0  0  0  0  0  0  0
   60.8875   28.7686   46.7951 H   0  0  0  0  0  0  0  0  0  0  0  0
   60.0518   29.1563   45.2446 H   0  0  0  0  0  0  0  0  0  0  0  0
   59.9666   29.9728   48.8452 H   0  0  0  0  0  0  0  0  0  0  0  0
   60.6709   30.8768   47.4416 H   0  0  0  0  0  0  0  0  0  0  0  0
   58.0020   31.4802   48.8053 H   0  0  0  0  0  0  0  0  0  0  0  0
   59.5515   32.4037   49.0014 H   0  0  0  0  0  0  0  0  0  0  0  0
   59.2196   34.3315   46.0643 H   0  0  0  0  0  0  0  0  0  0  0  0
   58.8660   34.5743   47.8426 H   0  0  0  0  0  0  0  0  0  0  0  0
   61.4335   34.0656   45.3465 H   0  0  0  0  0  0  0  0  0  0  0  0
   63.8562   33.8046   45.8632 H   0  0  0  0  0  0  0  0  0  0  0  0
   64.6036   33.4076   48.2094 H   0  0  0  0  0  0  0  0  0  0  0  0
   59.8930   34.8887   52.0626 H   0  0  0  0  0  0  0  0  0  0  0  0
   57.5843   33.9567   52.2492 H   0  0  0  0  0  0  0  0  0  0  0  0
   59.1138   29.9832   51.4769 H   0  0  0  0  0  0  0  0  0  0  0  0
   61.4257   30.9045   51.3046 H   0  0  0  0  0  0  0  0  0  0  0  0
   60.4968   33.6596   49.5560 H   0  0  0  0  0  0  0  0  0  0  0  0
   57.9286   32.3987   45.1475 H   0  0  0  0  0  0  0  0  0  0  0  0
   59.6274   31.8686   45.4553 H   0  0  0  0  0  0  0  0  0  0  0  0
   57.1005   30.4666   46.4626 H   0  0  0  0  0  0  0  0  0  0  0  0
   58.1549   29.9409   45.0784 H   0  0  0  0  0  0  0  0  0  0  0  0
   57.2867   28.0270   46.3523 H   0  0  0  0  0  0  0  0  0  0  0  0
  1  2  1  0
  2  3  2  0
  2  4  1  0
  4  5  2  0
  5  6  1  0
  6  7  2  0
  7  8  1  0
  8  9  1  0
  9 10  1  0
 10 11  1  0
 11 12  1  0
 12 13  1  0
 13 14  1  0
 14 15  1  0
 15 16  2  0
 16 17  1  0
 17 18  2  0
 18 19  1  0
 19 20  1  0
 20 21  1  0
 21 22  2  0
 21 23  1  0
 23 24  2  0
 24 25  1  0
 25 26  2  0
 26 27  1  0
 26 28  1  0
 28 29  2  0
 19 30  2  0
 13 31  1  0
 31 32  1  0
  8 33  2  0
 33  4  1  0
 32 10  1  0
 30 15  1  0
 29 23  1  0
  1 34  1  0
  5 35  1  0
  6 36  1  0
  7 37  1  0
  9 38  1  0
  9 39  1  0
 11 40  1  0
 11 41  1  0
 12 42  1  0
 12 43  1  0
 14 44  1  0
 14 45  1  0
 16 46  1  0
 17 47  1  0
 18 48  1  0
 24 49  1  0
 25 50  1  0
 28 51  1  0
 29 52  1  0
 30 53  1  0
 31 54  1  0
 31 55  1  0
 32 56  1  0
 32 57  1  0
 33 58  1  0
M  CHG  2   1  -1  20  -1
M  END
>  <UniqueID>  (57) 
50

>  <SMILES>  (57) 
[NH-]C(=O)c1cccc(CN2CCN(Cc3cccc([N-]C(=O)c4ccc(Cl)cc4)c3)CC2)c1

>  <Energy>  (57) 
81.56569831367845

>  <Genealogy>  (57) 
[NH-]C(=O)c1cccc(CN2CCN(Cc3cccc([N-]C(=O)c4ccc(Cl)cc4)c3)CC2)c1 (protonated)
[NH-]C(=O)c1cccc(CN2CCN(Cc3cccc([N-]C(=O)c4ccc(Cl)cc4)c3)CC2)c1 (3D coordinates assigned)
[NH-]C(=O)c1cccc(CN2CCN(Cc3cccc([N-]C(=O)c4ccc(Cl)cc4)c3)CC2)c1 (nonaromatic ring conformer: 81.56569831367845 kcal/mol)

>  <smiles>  (57) 
NC(=O)c1cccc(CN2CCN(Cc3cccc(NC(=O)c4ccc(Cl)cc4)c3)CC2)c1

>  <score_type>  (57) 
oracle

>  <origin>  (57) 
adg

>  <m_score__min__energy>  (57) 
-14.19

>  <m_primary>  (57) 
energy

$$$$
57:0
     RDKit          3D

 39 40  0  0  0  0  0  0  0  0999 V2000
   64.4100   33.2260   49.7560 C   0  0  0  0  0  0  0  0  0  0  0  0
   63.0800   33.7950   49.5610 N   0  0  0  0  0  0  0  0  0  0  0  0
   62.2860   33.5600   48.3870 C   0  0  0  0  0  0  0  0  0  0  0  0
   62.9190   32.7490   47.1010 S   0  0  0  0  0  0  0  0  0  0  0  0
   61.0060   34.2030   48.2780 N   0  0  0  0  0  0  0  0  0  0  0  0
   59.9310   33.7490   47.4390 C   0  0  0  0  0  0  0  0  0  0  0  0
   59.3670   32.4850   47.6630 C   0  0  0  0  0  0  0  0  0  0  0  0
   58.3410   32.0120   46.8410 C   0  0  0  0  0  0  0  0  0  0  0  0
   57.8670   32.7930   45.7770 C   0  0  0  0  0  0  0  0  0  0  0  0
   56.7890   32.2680   44.8720 C   0  0  0  0  0  0  0  0  0  0  0  0
   57.1880   30.6170   44.3200 S   0  0  0  0  0  0  0  0  0  0  0  0
   56.4990   30.3680   43.0080 O   0  0  0  0  0  0  0  0  0  0  0  0
   58.6700   30.4620   44.1230 O   0  0  0  0  0  0  0  0  0  0  0  0
   56.6220   29.4520   45.4760 N   0  0  0  0  0  0  0  0  0  0  0  0
   57.2960   28.2160   45.7850 C   0  0  0  0  0  0  0  0  0  0  0  0
   58.7020   28.1360   45.8470 C   0  0  0  0  0  0  0  0  0  0  0  0
   59.3320   26.9230   46.1450 C   0  0  0  0  0  0  0  0  0  0  0  0
   58.5720   25.7770   46.3780 C   0  0  0  0  0  0  0  0  0  0  0  0
   57.1790   25.8400   46.3130 C   0  0  0  0  0  0  0  0  0  0  0  0
   56.5400   27.0490   46.0180 C   0  0  0  0  0  0  0  0  0  0  0  0
   55.1510   27.0830   45.9620 O   0  0  0  0  0  0  0  0  0  0  0  0
   58.4550   34.0430   45.5280 C   0  0  0  0  0  0  0  0  0  0  0  0
   59.4810   34.5170   46.3500 C   0  0  0  0  0  0  0  0  0  0  0  0
   64.6167   33.1376   50.8328 H   0  0  0  0  0  0  0  0  0  0  0  0
   64.4545   32.2301   49.2911 H   0  0  0  0  0  0  0  0  0  0  0  0
   65.1611   33.8816   49.2911 H   0  0  0  0  0  0  0  0  0  0  0  0
   62.6770   34.3770   50.3290 H   0  0  0  0  0  0  0  0  0  0  0  0
   60.8540   35.0760   48.8340 H   0  0  0  0  0  0  0  0  0  0  0  0
   59.7347   31.8616   48.4914 H   0  0  0  0  0  0  0  0  0  0  0  0
   57.9024   31.0210   47.0295 H   0  0  0  0  0  0  0  0  0  0  0  0
   55.8351   32.2464   45.4193 H   0  0  0  0  0  0  0  0  0  0  0  0
   56.7072   32.9271   43.9952 H   0  0  0  0  0  0  0  0  0  0  0  0
   55.7670   29.7170   46.0150 H   0  0  0  0  0  0  0  0  0  0  0  0
   59.3085   29.0343   45.6596 H   0  0  0  0  0  0  0  0  0  0  0  0
   60.4297   26.8729   46.1957 H   0  0  0  0  0  0  0  0  0  0  0  0
   59.0697   24.8245   46.6127 H   0  0  0  0  0  0  0  0  0  0  0  0
   56.5810   24.9348   46.4946 H   0  0  0  0  0  0  0  0  0  0  0  0
   58.1064   34.6527   44.6814 H   0  0  0  0  0  0  0  0  0  0  0  0
   59.9390   35.4957   46.1443 H   0  0  0  0  0  0  0  0  0  0  0  0
  1  2  1  0
  2  3  1  0
  3  4  2  0
  3  5  1  0
  5  6  1  0
  6  7  2  0
  7  8  1  0
  8  9  2  0
  9 10  1  0
 10 11  1  0
 11 12  2  0
 11 13  2  0
 11 14  1  0
 14 15  1  0
 15 16  2  0
 16 17  1  0
 17 18  2  0
 18 19  1  0
 19 20  2  0
 20 21  1  0
  9 22  1  0
 22 23  2  0
 23  6  1  0
 20 15  1  0
  1 24  1  0
  1 25  1  0
  1 26  1  0
  2 27  1  0
  5 28  1  0
  7 29  1  0
  8 30  1  0
 10 31  1  0
 10 32  1  0
 14 33  1  0
 16 34  1  0
 17 35  1  0
 18 36  1  0
 19 37  1  0
 22 38  1  0
 23 39  1  0
M  CHG  1  21  -1
M  END
>  <UniqueID>  (58) 
51

>  <SMILES>  (58) 
CNC(=S)Nc1ccc(CS(=O)(=O)Nc2ccccc2[O-])cc1

>  <Energy>  (58) 
41.17970880789522

>  <Genealogy>  (58) 
CNC(=S)Nc1ccc(CS(=O)(=O)Nc2ccccc2[O-])cc1 (protonated)
CNC(=S)Nc1ccc(CS(=O)(=O)Nc2ccccc2[O-])cc1 (3D coordinates assigned)
CNC(=S)Nc1ccc(CS(=O)(=O)Nc2ccccc2[O-])cc1 (optimized conformer: 41.17970880789522 kcal/mol)

>  <smiles>  (58) 
CNC(=S)Nc1ccc(CS(=O)(=O)Nc2ccccc2O)cc1

>  <score_type>  (58) 
oracle

>  <origin>  (58) 
adg

>  <m_score__min__energy>  (58) 
-11.93

>  <m_primary>  (58) 
energy

$$$$
58:0
     RDKit          3D

 34 36  0  0  0  0  0  0  0  0999 V2000
   59.0297   35.3147   44.8416 H   0  0  0  0  0  0  0  0  0  0  0  0
   58.7050   34.2690   44.9470 C   0  0  0  0  0  0  0  0  0  0  0  0
   58.4850   33.7310   46.2170 C   0  0  0  0  0  0  0  0  0  0  0  0
   58.6369   34.3537   47.1110 H   0  0  0  0  0  0  0  0  0  0  0  0
   58.0720   32.4020   46.3540 C   0  0  0  0  0  0  0  0  0  0  0  0
   57.9007   31.9835   47.3567 H   0  0  0  0  0  0  0  0  0  0  0  0
   57.8740   31.5960   45.2160 C   0  0  0  0  0  0  0  0  0  0  0  0
   57.4370   30.1870   45.3470 C   0  0  0  0  0  0  0  0  0  0  0  0
   56.2160   29.7430   44.9640 N   0  0  0  0  0  0  0  0  0  0  0  0
   56.0360   28.4400   45.1720 N   0  0  0  0  0  0  0  0  0  0  0  0
   55.1420   27.9560   44.9340 H   0  0  0  0  0  0  0  0  0  0  0  0
   57.1060   27.8220   45.7160 C   0  0  0  0  0  0  0  0  0  0  0  0
   57.1010   26.5580   46.0250 N   0  0  0  0  0  0  0  0  0  0  0  0
   56.0960   25.5960   45.6680 C   0  0  0  0  0  0  0  0  0  0  0  0
   54.8860   25.9390   45.7290 O   0  0  0  0  0  0  0  0  0  0  0  0
   56.4470   24.2600   45.1270 C   0  0  0  0  0  0  0  0  0  0  0  0
   56.3630   24.0540   43.7390 C   0  0  0  0  0  0  0  0  0  0  0  0
   56.0665   24.8849   43.0819 H   0  0  0  0  0  0  0  0  0  0  0  0
   56.6520   22.8060   43.1870 C   0  0  0  0  0  0  0  0  0  0  0  0
   56.5924   22.6601   42.0984 H   0  0  0  0  0  0  0  0  0  0  0  0
   57.0160   21.7440   44.0120 C   0  0  0  0  0  0  0  0  0  0  0  0
   57.2333   20.7588   43.5736 H   0  0  0  0  0  0  0  0  0  0  0  0
   57.1060   21.9260   45.3940 C   0  0  0  0  0  0  0  0  0  0  0  0
   57.4570   20.8690   46.1700 F   0  0  0  0  0  0  0  0  0  0  0  0
   56.8400   23.1860   45.9680 C   0  0  0  0  0  0  0  0  0  0  0  0
   56.9670   23.3640   47.4600 C   0  0  0  0  0  0  0  0  0  0  0  0
   56.4019   22.5720   47.9732 H   0  0  0  0  0  0  0  0  0  0  0  0
   58.0270   23.3033   47.7476 H   0  0  0  0  0  0  0  0  0  0  0  0
   56.5647   24.3466   47.7476 H   0  0  0  0  0  0  0  0  0  0  0  0
   58.3590   28.9210   45.9870 S   0  0  0  0  0  0  0  0  0  0  0  0
   58.1000   32.1500   43.9420 C   0  0  0  0  0  0  0  0  0  0  0  0
   57.9509   31.5331   43.0436 H   0  0  0  0  0  0  0  0  0  0  0  0
   58.5130   33.4800   43.8110 C   0  0  0  0  0  0  0  0  0  0  0  0
   58.6868   33.9051   42.8114 H   0  0  0  0  0  0  0  0  0  0  0  0
  1  2  1  0
  2  3  2  0
  3  4  1  0
  3  5  1  0
  5  6  1  0
  5  7  2  0
  7  8  1  0
  8  9  2  0
  9 10  1  0
 10 11  1  0
 10 12  1  0
 12 13  2  0
 13 14  1  0
 14 15  2  0
 14 16  1  0
 16 17  2  0
 17 18  1  0
 17 19  1  0
 19 20  1  0
 19 21  2  0
 21 22  1  0
 21 23  1  0
 23 24  1  0
 23 25  2  0
 25 26  1  0
 26 27  1  0
 26 28  1  0
 26 29  1  0
 12 30  1  0
  7 31  1  0
 31 32  1  0
 31 33  2  0
 33 34  1  0
 33  2  1  0
 30  8  1  0
 25 16  1  0
M  END
>  <UniqueID>  (59) 
52

>  <SMILES>  (59) 
Cc1c(F)cccc1C(=O)/N=c1/[nH]nc(-c2ccccc2)s1

>  <Energy>  (59) 
82.67032307846479

>  <Genealogy>  (59) 
Cc1c(F)cccc1C(=O)/N=c1/[nH]nc(-c2ccccc2)s1 (cis-trans isomerization)
Cc1c(F)cccc1C(=O)/N=c1/[nH]nc(-c2ccccc2)s1 (3D coordinates assigned)
Cc1c(F)cccc1C(=O)/N=c1/[nH]nc(-c2ccccc2)s1 (optimized conformer: 82.67032307846479 kcal/mol)

>  <smiles>  (59) 
Cc1c(F)cccc1C(=O)N=c1[nH]nc(-c2ccccc2)s1

>  <score_type>  (59) 
oracle

>  <origin>  (59) 
adg

>  <m_score__min__energy>  (59) 
-8.5299999999999994

>  <m_primary>  (59) 
energy

$$$$
59:0
     RDKit          3D

 43 45  0  0  0  0  0  0  0  0999 V2000
   56.8600   30.6760   43.5660 C   0  0  0  0  0  0  0  0  0  0  0  0
   56.8910   31.2670   44.8630 O   0  0  0  0  0  0  0  0  0  0  0  0
   57.7590   32.2980   45.2510 C   0  0  0  0  0  0  0  0  0  0  0  0
   57.6210   33.6110   44.7490 C   0  0  0  0  0  0  0  0  0  0  0  0
   58.5010   34.6170   45.1520 C   0  0  0  0  0  0  0  0  0  0  0  0
   59.5260   34.3310   46.0550 C   0  0  0  0  0  0  0  0  0  0  0  0
   59.6740   33.0370   46.5600 C   0  0  0  0  0  0  0  0  0  0  0  0
   58.7930   32.0160   46.1680 C   0  0  0  0  0  0  0  0  0  0  0  0
   59.0090   30.4000   46.8450 S   0  0  0  0  0  0  0  0  0  0  0  0
   60.3370   29.8150   46.4550 O   0  0  0  0  0  0  0  0  0  0  0  0
   58.9380   30.4930   48.3430 O   0  0  0  0  0  0  0  0  0  0  0  0
   57.7500   29.3450   46.2800 N   0  0  0  0  0  0  0  0  0  0  0  0
   57.7820   27.9080   46.4070 C   0  0  0  0  0  0  0  0  0  0  0  0
   58.9200   27.2390   46.9000 C   0  0  0  0  0  0  0  0  0  0  0  0
   58.9310   25.8460   47.0080 C   0  0  0  0  0  0  0  0  0  0  0  0
   57.8110   25.1010   46.6410 C   0  0  0  0  0  0  0  0  0  0  0  0
   56.6650   25.7450   46.1520 C   0  0  0  0  0  0  0  0  0  0  0  0
   55.2520   24.7970   45.6870 S   0  0  0  0  0  0  0  0  0  0  0  0
   54.0310   25.6770   45.6640 O   0  0  0  0  0  0  0  0  0  0  0  0
   55.0520   23.6860   46.6790 O   0  0  0  0  0  0  0  0  0  0  0  0
   55.5100   24.1380   44.1040 N   0  0  0  0  0  0  0  0  0  0  0  0
   56.3240   23.1590   43.8530 C   0  0  0  0  0  0  0  0  0  0  0  0
   57.5740   23.1770   44.3860 N   0  0  0  0  0  0  0  0  0  0  0  0
   58.4550   22.1700   44.1450 C   0  0  0  0  0  0  0  0  0  0  0  0
   58.0800   21.0960   43.3370 C   0  0  0  0  0  0  0  0  0  0  0  0
   56.7960   21.0900   42.7980 C   0  0  0  0  0  0  0  0  0  0  0  0
   55.9440   22.1150   43.0640 N   0  0  0  0  0  0  0  0  0  0  0  0
   56.6550   27.1480   46.0290 C   0  0  0  0  0  0  0  0  0  0  0  0
   55.5250   27.7880   45.5270 O   0  0  0  0  0  0  0  0  0  0  0  0
   56.8026   29.5818   43.6629 H   0  0  0  0  0  0  0  0  0  0  0  0
   55.9798   31.0421   43.0172 H   0  0  0  0  0  0  0  0  0  0  0  0
   57.7736   30.9481   43.0172 H   0  0  0  0  0  0  0  0  0  0  0  0
   56.8155   33.8422   44.0364 H   0  0  0  0  0  0  0  0  0  0  0  0
   58.3863   35.6372   44.7570 H   0  0  0  0  0  0  0  0  0  0  0  0
   60.2184   35.1258   46.3695 H   0  0  0  0  0  0  0  0  0  0  0  0
   60.4856   32.8164   47.2690 H   0  0  0  0  0  0  0  0  0  0  0  0
   56.9510   29.8010   45.7850 H   0  0  0  0  0  0  0  0  0  0  0  0
   59.8057   27.8173   47.2019 H   0  0  0  0  0  0  0  0  0  0  0  0
   59.8287   25.3340   47.3848 H   0  0  0  0  0  0  0  0  0  0  0  0
   57.8262   24.0052   46.7352 H   0  0  0  0  0  0  0  0  0  0  0  0
   59.4621   22.2019   44.5864 H   0  0  0  0  0  0  0  0  0  0  0  0
   58.7815   20.2742   43.1308 H   0  0  0  0  0  0  0  0  0  0  0  0
   56.4716   20.2565   42.1576 H   0  0  0  0  0  0  0  0  0  0  0  0
  1  2  1  0
  2  3  1  0
  3  4  2  0
  4  5  1  0
  5  6  2  0
  6  7  1  0
  7  8  2  0
  8  9  1  0
  9 10  2  0
  9 11  2  0
  9 12  1  0
 12 13  1  0
 13 14  2  0
 14 15  1  0
 15 16  2  0
 16 17  1  0
 17 18  1  0
 18 19  2  0
 18 20  2  0
 18 21  1  0
 21 22  2  3
 22 23  1  0
 23 24  2  0
 24 25  1  0
 25 26  2  0
 26 27  1  0
 17 28  2  0
 28 29  1  0
  8  3  1  0
 28 13  1  0
 27 22  1  0
  1 30  1  0
  1 31  1  0
  1 32  1  0
  4 33  1  0
  5 34  1  0
  6 35  1  0
  7 36  1  0
 12 37  1  0
 14 38  1  0
 15 39  1  0
 16 40  1  0
 24 41  1  0
 25 42  1  0
 26 43  1  0
M  CHG  2  27  -1  29  -1
M  END
>  <UniqueID>  (60) 
53

>  <SMILES>  (60) 
COc1ccccc1S(=O)(=O)Nc1cccc(S(=O)(=O)N=c2nccc[n-]2)c1[O-]

>  <Energy>  (60) 
55.43575055495933

>  <Genealogy>  (60) 
COc1ccccc1S(=O)(=O)Nc1cccc(S(=O)(=O)N=c2nccc[n-]2)c1[O-] (protonated)
COc1ccccc1S(=O)(=O)Nc1cccc(S(=O)(=O)N=c2nccc[n-]2)c1[O-] (3D coordinates assigned)
COc1ccccc1S(=O)(=O)Nc1cccc(S(=O)(=O)N=c2nccc[n-]2)c1[O-] (optimized conformer: 55.43575055495933 kcal/mol)

>  <smiles>  (60) 
COc1ccccc1S(=O)(=O)Nc1cccc(S(=O)(=O)N=c2nccc[nH]2)c1O

>  <score_type>  (60) 
oracle

>  <origin>  (60) 
adg

>  <m_score__min__energy>  (60) 
-14.710000000000001

>  <m_primary>  (60) 
energy

$$$$
60:0
     RDKit          3D

 45 47  0  0  0  0  0  0  0  0999 V2000
   55.7740   28.2230   44.1560 H   0  0  0  0  0  0  0  0  0  0  0  0
   55.6440   28.9720   44.8720 N   0  0  0  0  0  0  0  0  0  0  0  0
   56.6120   29.7610   45.2070 C   0  0  0  0  0  0  0  0  0  0  0  0
   57.5780   29.3370   46.0650 N   0  0  0  0  0  0  0  0  0  0  0  0
   58.6020   30.1510   46.4390 C   0  0  0  0  0  0  0  0  0  0  0  0
   59.6130   29.6580   47.3380 N   0  0  0  0  0  0  0  0  0  0  0  0
   59.9510   28.2330   47.4100 C   0  0  0  0  0  0  0  0  0  0  0  0
   59.1803   27.6517   46.8827 H   0  0  0  0  0  0  0  0  0  0  0  0
   60.9333   28.0777   46.9400 H   0  0  0  0  0  0  0  0  0  0  0  0
   60.0230   27.7650   48.8770 C   0  0  0  0  0  0  0  0  0  0  0  0
   59.0268   27.4060   49.1748 H   0  0  0  0  0  0  0  0  0  0  0  0
   60.7885   26.9763   48.9222 H   0  0  0  0  0  0  0  0  0  0  0  0
   60.4430   28.8290   49.8330 N   0  0  0  0  0  0  0  0  0  0  0  0
   61.0640   28.3830   50.5500 H   0  0  0  0  0  0  0  0  0  0  0  0
   59.2870   29.3790   50.5690 C   0  0  0  0  0  0  0  0  0  0  0  0
   59.4667   29.2935   51.6508 H   0  0  0  0  0  0  0  0  0  0  0  0
   59.1524   30.4376   50.3022 H   0  0  0  0  0  0  0  0  0  0  0  0
   58.3807   28.8156   50.3022 H   0  0  0  0  0  0  0  0  0  0  0  0
   61.2360   29.9010   49.1890 C   0  0  0  0  0  0  0  0  0  0  0  0
   61.5197   30.6407   49.9521 H   0  0  0  0  0  0  0  0  0  0  0  0
   62.1249   29.4404   48.7332 H   0  0  0  0  0  0  0  0  0  0  0  0
   60.4440   30.6120   48.0770 C   0  0  0  0  0  0  0  0  0  0  0  0
   59.7976   31.3789   48.5287 H   0  0  0  0  0  0  0  0  0  0  0  0
   61.1561   31.0745   47.3778 H   0  0  0  0  0  0  0  0  0  0  0  0
   58.6760   31.4450   45.9040 C   0  0  0  0  0  0  0  0  0  0  0  0
   59.5076   32.1143   46.1694 H   0  0  0  0  0  0  0  0  0  0  0  0
   57.6720   31.8690   45.0260 C   0  0  0  0  0  0  0  0  0  0  0  0
   57.7030   33.2510   44.4450 C   0  0  0  0  0  0  0  0  0  0  0  0
   58.5033   33.3095   43.6926 H   0  0  0  0  0  0  0  0  0  0  0  0
   56.7290   33.4633   43.9799 H   0  0  0  0  0  0  0  0  0  0  0  0
   57.9470   34.2170   45.4660 O   0  0  0  0  0  0  0  0  0  0  0  0
   59.1790   34.8630   45.6350 C   0  0  0  0  0  0  0  0  0  0  0  0
   59.4980   35.8250   44.8820 O   0  0  0  0  0  0  0  0  0  0  0  0
   60.1040   34.4140   46.6980 C   0  0  0  0  0  0  0  0  0  0  0  0
   59.7580   34.5440   48.0550 C   0  0  0  0  0  0  0  0  0  0  0  0
   58.7902   34.9873   48.3321 H   0  0  0  0  0  0  0  0  0  0  0  0
   60.6370   34.1130   49.0550 C   0  0  0  0  0  0  0  0  0  0  0  0
   60.3587   34.2198   50.1138 H   0  0  0  0  0  0  0  0  0  0  0  0
   61.8680   33.5470   48.7110 C   0  0  0  0  0  0  0  0  0  0  0  0
   62.9670   33.0070   49.9660 Cl  0  0  0  0  0  0  0  0  0  0  0  0
   62.2210   33.4130   47.3650 C   0  0  0  0  0  0  0  0  0  0  0  0
   63.1897   32.9681   47.0936 H   0  0  0  0  0  0  0  0  0  0  0  0
   61.3460   33.8430   46.3630 C   0  0  0  0  0  0  0  0  0  0  0  0
   61.6301   33.7343   45.3059 H   0  0  0  0  0  0  0  0  0  0  0  0
   56.6630   31.0200   44.6980 N   0  0  0  0  0  0  0  0  0  0  0  0
  1  2  1  0
  2  3  2  0
  3  4  1  0
  4  5  2  0
  5  6  1  0
  6  7  1  0
  7  8  1  0
  7  9  1  0
  7 10  1  0
 10 11  1  0
 10 12  1  0
 10 13  1  0
 13 14  1  0
 13 15  1  0
 15 16  1  0
 15 17  1  0
 15 18  1  0
 13 19  1  0
 19 20  1  0
 19 21  1  0
 19 22  1  0
 22 23  1  0
 22 24  1  0
  5 25  1  0
 25 26  1  0
 25 27  2  0
 27 28  1  0
 28 29  1  0
 28 30  1  0
 28 31  1  0
 31 32  1  0
 32 33  2  0
 32 34  1  0
 34 35  2  0
 35 36  1  0
 35 37  1  0
 37 38  1  0
 37 39  2  0
 39 40  1  0
 39 41  1  0
 41 42  1  0
 41 43  2  0
 43 44  1  0
 27 45  1  0
 45  3  1  0
 22  6  1  0
 43 34  1  0
M  CHG  2  13   1  45  -1
M  END
>  <UniqueID>  (61) 
54

>  <SMILES>  (61) 
[H]/N=c1\nc(N2CC[NH+](C)CC2)cc(COC(=O)c2ccc(Cl)cc2)[n-]1

>  <Energy>  (61) 
55.29520364995632

>  <Genealogy>  (61) 
C[NH+]1CCN(c2cc(COC(=O)c3ccc(Cl)cc3)[n-]c(=N)n2)CC1 (protonated)
[H]/N=c1\nc(N2CC[NH+](C)CC2)cc(COC(=O)c2ccc(Cl)cc2)[n-]1 (cis-trans isomerization)
[H]/N=c1\nc(N2CC[NH+](C)CC2)cc(COC(=O)c2ccc(Cl)cc2)[n-]1 (3D coordinates assigned)
[H]/N=c1\nc(N2CC[NH+](C)CC2)cc(COC(=O)c2ccc(Cl)cc2)[n-]1 (nonaromatic ring conformer: 55.29520364995632 kcal/mol)

>  <smiles>  (61) 
CN1CCN(c2cc(COC(=O)c3ccc(Cl)cc3)[nH]c(=N)n2)CC1

>  <score_type>  (61) 
oracle

>  <origin>  (61) 
adg

>  <m_score__min__energy>  (61) 
-8.4800000000000004

>  <m_primary>  (61) 
energy

$$$$
61:0
     RDKit          3D

 56 58  0  0  0  0  0  0  0  0999 V2000
   62.6570   31.3980   50.3060 C   0  0  0  0  0  0  0  0  0  0  0  0
   62.4480   32.1730   49.0320 C   0  0  0  0  0  0  0  0  0  0  0  0
   63.5060   32.2700   48.1140 C   0  0  0  0  0  0  0  0  0  0  0  0
   63.3550   32.9990   46.9340 C   0  0  0  0  0  0  0  0  0  0  0  0
   62.1450   33.6340   46.6500 C   0  0  0  0  0  0  0  0  0  0  0  0
   61.0610   33.5260   47.5360 C   0  0  0  0  0  0  0  0  0  0  0  0
   59.7680   34.2230   47.2130 C   0  0  0  0  0  0  0  0  0  0  0  0
   61.2060   32.7840   48.7290 C   0  0  0  0  0  0  0  0  0  0  0  0
   60.0990   32.6820   49.6400 N   0  0  0  0  0  0  0  0  0  0  0  0
   60.0710   33.3960   50.8830 C   0  0  0  0  0  0  0  0  0  0  0  0
   61.0120   34.1820   51.1780 O   0  0  0  0  0  0  0  0  0  0  0  0
   58.9150   33.2240   51.7890 C   0  0  0  0  0  0  0  0  0  0  0  0
   58.8410   32.3410   52.7970 C   0  0  0  0  0  0  0  0  0  0  0  0
   57.8360   31.2650   52.9060 C   0  0  0  0  0  0  0  0  0  0  0  0
   56.9840   31.2320   54.0180 C   0  0  0  0  0  0  0  0  0  0  0  0
   56.0120   30.2370   54.1270 C   0  0  0  0  0  0  0  0  0  0  0  0
   55.8860   29.2910   53.1100 C   0  0  0  0  0  0  0  0  0  0  0  0
   56.6950   29.3520   52.0210 N   0  0  0  0  0  0  0  0  0  0  0  0
   57.6520   30.3140   51.8820 C   0  0  0  0  0  0  0  0  0  0  0  0
   58.4460   30.3660   50.7280 O   0  0  0  0  0  0  0  0  0  0  0  0
   59.5840   29.5340   50.5110 C   0  0  0  0  0  0  0  0  0  0  0  0
   60.0360   29.6280   49.0860 C   0  0  0  0  0  0  0  0  0  0  0  0
   61.1540   29.1500   48.7530 O   0  0  0  0  0  0  0  0  0  0  0  0
   59.2190   30.3190   48.1310 N   0  0  0  0  0  0  0  0  0  0  0  0
   58.5340   29.7400   47.0110 C   0  0  0  0  0  0  0  0  0  0  0  0
   58.3190   30.5310   45.8780 C   0  0  0  0  0  0  0  0  0  0  0  0
   57.6260   30.0170   44.7790 C   0  0  0  0  0  0  0  0  0  0  0  0
   57.1310   28.7110   44.8080 C   0  0  0  0  0  0  0  0  0  0  0  0
   57.3260   27.9120   45.9410 C   0  0  0  0  0  0  0  0  0  0  0  0
   56.6650   26.2800   45.9970 S   0  0  0  0  0  0  0  0  0  0  0  0
   54.9380   26.3560   45.9880 N   0  0  0  0  0  0  0  0  0  0  0  0
   57.1380   25.4980   44.8030 O   0  0  0  0  0  0  0  0  0  0  0  0
   57.1310   25.5840   47.2440 O   0  0  0  0  0  0  0  0  0  0  0  0
   58.0170   28.4310   47.0470 C   0  0  0  0  0  0  0  0  0  0  0  0
   62.4794   32.0565   51.1691 H   0  0  0  0  0  0  0  0  0  0  0  0
   61.9550   30.5518   50.3398 H   0  0  0  0  0  0  0  0  0  0  0  0
   63.6893   31.0195   50.3398 H   0  0  0  0  0  0  0  0  0  0  0  0
   64.4611   31.7675   48.3267 H   0  0  0  0  0  0  0  0  0  0  0  0
   64.1926   33.0736   46.2249 H   0  0  0  0  0  0  0  0  0  0  0  0
   62.0399   34.2225   45.7267 H   0  0  0  0  0  0  0  0  0  0  0  0
   59.2567   34.4986   48.1471 H   0  0  0  0  0  0  0  0  0  0  0  0
   59.9770   35.1307   46.6278 H   0  0  0  0  0  0  0  0  0  0  0  0
   59.1246   33.5495   46.6278 H   0  0  0  0  0  0  0  0  0  0  0  0
   59.3870   31.9360   49.4710 H   0  0  0  0  0  0  0  0  0  0  0  0
   58.0432   33.8739   51.6229 H   0  0  0  0  0  0  0  0  0  0  0  0
   59.5852   32.4253   53.6026 H   0  0  0  0  0  0  0  0  0  0  0  0
   57.0817   31.9924   54.8069 H   0  0  0  0  0  0  0  0  0  0  0  0
   55.3518   30.1991   55.0061 H   0  0  0  0  0  0  0  0  0  0  0  0
   55.1310   28.4951   53.1900 H   0  0  0  0  0  0  0  0  0  0  0  0
   60.4011   29.8579   51.1724 H   0  0  0  0  0  0  0  0  0  0  0  0
   59.3105   28.4914   50.7304 H   0  0  0  0  0  0  0  0  0  0  0  0
   58.6975   31.5635   45.8519 H   0  0  0  0  0  0  0  0  0  0  0  0
   57.4697   30.6428   43.8880 H   0  0  0  0  0  0  0  0  0  0  0  0
   56.5875   28.3100   43.9398 H   0  0  0  0  0  0  0  0  0  0  0  0
   54.6640   27.0750   46.6920 H   0  0  0  0  0  0  0  0  0  0  0  0
   58.1552   27.8122   47.9459 H   0  0  0  0  0  0  0  0  0  0  0  0
  1  2  1  0
  2  3  2  0
  3  4  1  0
  4  5  2  0
  5  6  1  0
  6  7  1  0
  6  8  2  0
  8  9  1  0
  9 10  1  0
 10 11  2  0
 10 12  1  0
 12 13  2  3
 13 14  1  0
 14 15  2  0
 15 16  1  0
 16 17  2  0
 17 18  1  0
 18 19  2  0
 19 20  1  0
 20 21  1  0
 21 22  1  0
 22 23  2  0
 22 24  1  0
 24 25  1  0
 25 26  2  0
 26 27  1  0
 27 28  2  0
 28 29  1  0
 29 30  1  0
 30 31  1  0
 30 32  2  0
 30 33  2  0
 29 34  2  0
  8  2  1  0
 19 14  1  0
 34 25  1  0
  1 35  1  0
  1 36  1  0
  1 37  1  0
  3 38  1  0
  4 39  1  0
  5 40  1  0
  7 41  1  0
  7 42  1  0
  7 43  1  0
  9 44  1  0
 12 45  1  0
 13 46  1  0
 15 47  1  0
 16 48  1  0
 17 49  1  0
 21 50  1  0
 21 51  1  0
 26 52  1  0
 27 53  1  0
 28 54  1  0
 31 55  1  0
 34 56  1  0
M  CHG  2  24  -1  31  -1
M  END
>  <UniqueID>  (62) 
55

>  <SMILES>  (62) 
Cc1cccc(C)c1NC(=O)C=Cc1cccnc1OCC(=O)[N-]c1cccc(S([NH-])(=O)=O)c1

>  <Energy>  (62) 
72.895329018375

>  <Genealogy>  (62) 
Cc1cccc(C)c1NC(=O)C=Cc1cccnc1OCC(=O)[N-]c1cccc(S([NH-])(=O)=O)c1 (protonated)
Cc1cccc(C)c1NC(=O)C=Cc1cccnc1OCC(=O)[N-]c1cccc(S([NH-])(=O)=O)c1 (3D coordinates assigned)
Cc1cccc(C)c1NC(=O)C=Cc1cccnc1OCC(=O)[N-]c1cccc(S([NH-])(=O)=O)c1 (optimized conformer: 72.895329018375 kcal/mol)

>  <smiles>  (62) 
Cc1cccc(C)c1NC(=O)C=Cc1cccnc1OCC(=O)Nc1cccc(S(N)(=O)=O)c1

>  <score_type>  (62) 
oracle

>  <origin>  (62) 
adg

>  <m_score__min__energy>  (62) 
-14.210000000000001

>  <m_primary>  (62) 
energy

$$$$
62:0
     RDKit          3D

 50 52  0  0  0  0  0  0  0  0999 V2000
   58.8620   27.4470   43.5810 C   0  0  0  0  0  0  0  0  0  0  0  0
   59.0380   27.4940   45.0770 C   0  0  0  0  0  0  0  0  0  0  0  0
   60.3200   27.2800   45.6150 C   0  0  0  0  0  0  0  0  0  0  0  0
   60.5320   27.3360   46.9920 C   0  0  0  0  0  0  0  0  0  0  0  0
   59.4710   27.6080   47.8510 C   0  0  0  0  0  0  0  0  0  0  0  0
   58.1900   27.8170   47.3400 C   0  0  0  0  0  0  0  0  0  0  0  0
   57.9530   27.7600   45.9540 C   0  0  0  0  0  0  0  0  0  0  0  0
   56.5410   28.0000   45.4610 C   0  0  0  0  0  0  0  0  0  0  0  0
   56.2910   29.4250   45.2600 N   0  0  0  0  0  0  0  0  0  0  0  0
   56.5360   30.1150   44.0270 C   0  0  0  0  0  0  0  0  0  0  0  0
   55.6010   30.2290   43.1850 O   0  0  0  0  0  0  0  0  0  0  0  0
   57.8690   30.6160   43.7390 N   0  0  1  0  0  0  0  0  0  0  0  0
   57.8620   31.9370   43.0630 C   0  0  0  0  0  0  0  0  0  0  0  0
   57.3940   33.0880   43.9860 C   0  0  0  0  0  0  0  0  0  0  0  0
   57.7220   32.8370   45.4660 C   0  0  0  0  0  0  0  0  0  0  0  0
   58.9830   31.9760   45.5940 C   0  0  1  0  0  0  0  0  0  0  0  0
   59.5300   31.8980   47.0400 C   0  0  0  0  0  0  0  0  0  0  0  0
   61.0010   32.2210   47.1870 C   0  0  0  0  0  0  0  0  0  0  0  0
   61.4970   33.4570   46.7330 C   0  0  0  0  0  0  0  0  0  0  0  0
   62.8450   33.7840   46.9000 C   0  0  0  0  0  0  0  0  0  0  0  0
   63.7090   32.8880   47.5320 C   0  0  0  0  0  0  0  0  0  0  0  0
   63.2280   31.6590   47.9920 C   0  0  0  0  0  0  0  0  0  0  0  0
   61.8810   31.3250   47.8260 C   0  0  0  0  0  0  0  0  0  0  0  0
   61.4320   30.1420   48.3160 F   0  0  0  0  0  0  0  0  0  0  0  0
   58.7530   30.5860   44.9440 C   0  0  0  0  0  0  0  0  0  0  0  0
   57.8245   27.1700   43.3424 H   0  0  0  0  0  0  0  0  0  0  0  0
   59.0848   28.4361   43.1543 H   0  0  0  0  0  0  0  0  0  0  0  0
   59.5482   26.7006   43.1543 H   0  0  0  0  0  0  0  0  0  0  0  0
   61.1639   27.0663   44.9425 H   0  0  0  0  0  0  0  0  0  0  0  0
   61.5391   27.1650   47.4001 H   0  0  0  0  0  0  0  0  0  0  0  0
   59.6433   27.6583   48.9363 H   0  0  0  0  0  0  0  0  0  0  0  0
   57.3572   28.0284   48.0269 H   0  0  0  0  0  0  0  0  0  0  0  0
   56.3987   27.4719   44.5066 H   0  0  0  0  0  0  0  0  0  0  0  0
   55.8372   27.6245   46.2184 H   0  0  0  0  0  0  0  0  0  0  0  0
   58.2720   29.9390   43.0470 H   0  0  0  0  0  0  0  0  0  0  0  0
   58.8823   32.1586   42.7166 H   0  0  0  0  0  0  0  0  0  0  0  0
   57.1485   31.8748   42.2281 H   0  0  0  0  0  0  0  0  0  0  0  0
   57.8909   34.0167   43.6688 H   0  0  0  0  0  0  0  0  0  0  0  0
   56.2999   33.1589   43.8973 H   0  0  0  0  0  0  0  0  0  0  0  0
   57.8885   33.8010   45.9691 H   0  0  0  0  0  0  0  0  0  0  0  0
   56.8789   32.3076   45.9340 H   0  0  0  0  0  0  0  0  0  0  0  0
   59.7863   32.4757   45.0327 H   0  0  0  0  0  0  0  0  0  0  0  0
   58.9615   32.6082   47.6584 H   0  0  0  0  0  0  0  0  0  0  0  0
   59.4127   30.8510   47.3564 H   0  0  0  0  0  0  0  0  0  0  0  0
   60.8186   34.1709   46.2431 H   0  0  0  0  0  0  0  0  0  0  0  0
   63.2259   34.7485   46.5331 H   0  0  0  0  0  0  0  0  0  0  0  0
   64.7688   33.1493   47.6680 H   0  0  0  0  0  0  0  0  0  0  0  0
   63.9114   30.9527   48.4860 H   0  0  0  0  0  0  0  0  0  0  0  0
   59.7300   30.1778   44.6459 H   0  0  0  0  0  0  0  0  0  0  0  0
   58.2449   29.9639   45.6955 H   0  0  0  0  0  0  0  0  0  0  0  0
  1  2  1  0
  2  3  2  0
  3  4  1  0
  4  5  2  0
  5  6  1  0
  6  7  2  0
  7  8  1  0
  8  9  1  0
  9 10  1  0
 10 11  2  0
 10 12  1  0
 12 13  1  0
 13 14  1  0
 14 15  1  0
 15 16  1  0
 16 17  1  0
 17 18  1  0
 18 19  2  0
 19 20  1  0
 20 21  2  0
 21 22  1  0
 22 23  2  0
 23 24  1  0
 16 25  1  0
  7  2  1  0
 25 12  1  0
 23 18  1  0
  1 26  1  0
  1 27  1  0
  1 28  1  0
  3 29  1  0
  4 30  1  0
  5 31  1  0
  6 32  1  0
  8 33  1  0
  8 34  1  0
 12 35  1  6
 13 36  1  0
 13 37  1  0
 14 38  1  0
 14 39  1  0
 15 40  1  0
 15 41  1  0
 16 42  1  6
 17 43  1  0
 17 44  1  0
 19 45  1  0
 20 46  1  0
 21 47  1  0
 22 48  1  0
 25 49  1  0
 25 50  1  0
M  CHG  2   9  -1  12   1
M  END
>  <UniqueID>  (63) 
56

>  <SMILES>  (63) 
Cc1ccccc1C[N-]C(=O)[N@H+]1CCC[C@@H](Cc2ccccc2F)C1

>  <Energy>  (63) 
61.11723924083837

>  <Genealogy>  (63) 
Cc1ccccc1C[N-]C(=O)[NH+]1CCCC(Cc2ccccc2F)C1 (protonated)
Cc1ccccc1C[N-]C(=O)[N@H+]1CCC[C@@H](Cc2ccccc2F)C1 (chirality)
Cc1ccccc1C[N-]C(=O)[N@H+]1CCC[C@@H](Cc2ccccc2F)C1 (3D coordinates assigned)
Cc1ccccc1C[N-]C(=O)[N@H+]1CCC[C@@H](Cc2ccccc2F)C1 (nonaromatic ring conformer: 61.11723924083837 kcal/mol)

>  <smiles>  (63) 
Cc1ccccc1CNC(=O)N1CCCC(Cc2ccccc2F)C1

>  <score_type>  (63) 
oracle

>  <origin>  (63) 
adg

>  <m_score__min__energy>  (63) 
-8.5600000000000005

>  <m_primary>  (63) 
energy

$$$$
63:0
     RDKit          3D

 43 45  0  0  0  0  0  0  0  0999 V2000
   58.9530   34.9450   47.6120 O   0  0  0  0  0  0  0  0  0  0  0  0
   59.4480   33.8210   47.3300 C   0  0  0  0  0  0  0  0  0  0  0  0
   59.5040   33.3820   45.8940 C   0  0  0  0  0  0  0  0  0  0  0  0
   58.5390   32.2990   45.6400 N   0  0  0  0  0  0  0  0  0  0  0  0
   57.1700   32.7070   45.4010 C   0  0  0  0  0  0  0  0  0  0  0  0
   56.2820   31.9260   44.8710 N   0  0  0  0  0  0  0  0  0  0  0  0
   56.6320   30.3090   44.4010 S   0  0  0  0  0  0  0  0  0  0  0  0
   56.7510   30.2230   42.9060 O   0  0  0  0  0  0  0  0  0  0  0  0
   55.5410   29.4000   44.8940 O   0  0  0  0  0  0  0  0  0  0  0  0
   58.1430   29.8870   45.1530 C   0  0  0  0  0  0  0  0  0  0  0  0
   58.5430   28.5450   45.2010 C   0  0  0  0  0  0  0  0  0  0  0  0
   59.7440   28.1940   45.8130 C   0  0  0  0  0  0  0  0  0  0  0  0
   60.5490   29.1800   46.3820 C   0  0  0  0  0  0  0  0  0  0  0  0
   60.1570   30.5200   46.3330 C   0  0  0  0  0  0  0  0  0  0  0  0
   58.9460   30.9010   45.7100 C   0  0  0  0  0  0  0  0  0  0  0  0
   59.9940   32.9830   48.3620 N   0  0  0  0  0  0  0  0  0  0  0  0
   59.9350   33.2930   49.7630 C   0  0  0  0  0  0  0  0  0  0  0  0
   59.3310   34.3250   50.1670 O   0  0  0  0  0  0  0  0  0  0  0  0
   60.5910   32.4370   50.7170 N   0  0  0  0  0  0  0  0  0  0  0  0
   62.0330   32.7200   50.7760 C   0  0  0  0  0  0  0  0  0  0  0  0
   62.6540   32.7620   49.4000 C   0  0  0  0  0  0  0  0  0  0  0  0
   63.0160   33.9910   48.8260 C   0  0  0  0  0  0  0  0  0  0  0  0
   63.5640   34.0340   47.5400 C   0  0  0  0  0  0  0  0  0  0  0  0
   63.7460   32.8520   46.8170 C   0  0  0  0  0  0  0  0  0  0  0  0
   63.3790   31.6260   47.3780 C   0  0  0  0  0  0  0  0  0  0  0  0
   62.8320   31.5790   48.6640 C   0  0  0  0  0  0  0  0  0  0  0  0
   59.2645   34.2378   45.2457 H   0  0  0  0  0  0  0  0  0  0  0  0
   60.5164   33.0097   45.6784 H   0  0  0  0  0  0  0  0  0  0  0  0
   56.8701   33.7272   45.6824 H   0  0  0  0  0  0  0  0  0  0  0  0
   57.9069   27.7667   44.7542 H   0  0  0  0  0  0  0  0  0  0  0  0
   60.0570   27.1400   45.8474 H   0  0  0  0  0  0  0  0  0  0  0  0
   61.4946   28.9022   46.8705 H   0  0  0  0  0  0  0  0  0  0  0  0
   60.7995   31.2897   46.7855 H   0  0  0  0  0  0  0  0  0  0  0  0
   60.4690   32.0950   48.0800 H   0  0  0  0  0  0  0  0  0  0  0  0
   60.4510   31.4430   50.4240 H   0  0  0  0  0  0  0  0  0  0  0  0
   60.1610   32.5570   51.6640 H   0  0  0  0  0  0  0  0  0  0  0  0
   62.1849   33.6936   51.2649 H   0  0  0  0  0  0  0  0  0  0  0  0
   62.5166   31.9119   51.3444 H   0  0  0  0  0  0  0  0  0  0  0  0
   62.8680   34.9238   49.3899 H   0  0  0  0  0  0  0  0  0  0  0  0
   63.8520   34.9989   47.0973 H   0  0  0  0  0  0  0  0  0  0  0  0
   64.1782   32.8868   45.8061 H   0  0  0  0  0  0  0  0  0  0  0  0
   63.5206   30.6965   46.8071 H   0  0  0  0  0  0  0  0  0  0  0  0
   62.5402   30.6125   49.1007 H   0  0  0  0  0  0  0  0  0  0  0  0
  1  2  2  0
  2  3  1  0
  3  4  1  0
  4  5  1  0
  5  6  2  0
  6  7  1  0
  7  8  2  0
  7  9  2  0
  7 10  1  0
 10 11  2  0
 11 12  1  0
 12 13  2  0
 13 14  1  0
 14 15  2  0
  2 16  1  0
 16 17  1  0
 17 18  2  0
 17 19  1  0
 19 20  1  0
 20 21  1  0
 21 22  2  0
 22 23  1  0
 23 24  2  0
 24 25  1  0
 25 26  2  0
 15  4  1  0
 26 21  1  0
 15 10  1  0
  3 27  1  0
  3 28  1  0
  5 29  1  0
 11 30  1  0
 12 31  1  0
 13 32  1  0
 14 33  1  0
 16 34  1  0
 19 35  1  0
 19 36  1  0
 20 37  1  0
 20 38  1  0
 22 39  1  0
 23 40  1  0
 24 41  1  0
 25 42  1  0
 26 43  1  0
M  CHG  1  19   1
M  END
>  <UniqueID>  (64) 
57

>  <SMILES>  (64) 
O=C(CN1C=NS(=O)(=O)c2ccccc21)NC(=O)[NH2+]Cc1ccccc1

>  <Energy>  (64) 
52.74458137111953

>  <Genealogy>  (64) 
O=C(CN1C=NS(=O)(=O)c2ccccc21)NC(=O)[NH2+]Cc1ccccc1 (protonated)
O=C(CN1C=NS(=O)(=O)c2ccccc21)NC(=O)[NH2+]Cc1ccccc1 (3D coordinates assigned)
O=C(CN1C=NS(=O)(=O)c2ccccc21)NC(=O)[NH2+]Cc1ccccc1 (nonaromatic ring conformer: 52.74458137111953 kcal/mol)

>  <smiles>  (64) 
O=C(CN1C=NS(=O)(=O)c2ccccc21)NC(=O)NCc1ccccc1

>  <score_type>  (64) 
oracle

>  <origin>  (64) 
adg

>  <m_score__min__energy>  (64) 
-7.5999999999999996

>  <m_primary>  (64) 
energy

$$$$
64:0
     RDKit          3D

 46 47  0  0  0  0  0  0  0  0999 V2000
   57.7840   32.7320   43.3920 C   0  0  0  0  0  0  0  0  0  0  0  0
   58.1840   33.2820   44.7290 C   0  0  0  0  0  0  0  0  0  0  0  0
   59.4300   33.9050   44.8950 C   0  0  0  0  0  0  0  0  0  0  0  0
   59.8140   34.3850   46.1510 C   0  0  0  0  0  0  0  0  0  0  0  0
   58.9730   34.2320   47.2620 C   0  0  0  0  0  0  0  0  0  0  0  0
   59.4100   34.7240   48.5010 O   0  0  0  0  0  0  0  0  0  0  0  0
   59.9290   33.9280   49.5670 C   0  0  0  0  0  0  0  0  0  0  0  0
   59.8640   32.4700   49.2300 C   0  0  0  0  0  0  0  0  0  0  0  0
   58.9240   31.7660   49.6870 O   0  0  0  0  0  0  0  0  0  0  0  0
   60.8960   31.8720   48.4370 N   0  0  0  0  0  0  0  0  0  0  0  0
   60.6710   31.2270   47.1490 C   0  0  0  0  0  0  0  0  0  0  0  0
   60.1100   29.8480   47.3320 C   0  0  0  0  0  0  0  0  0  0  0  0
   59.6260   29.3880   48.5000 N   0  0  0  0  0  0  0  0  0  0  0  0
   59.2990   28.1170   48.3410 N   0  0  0  0  0  0  0  0  0  0  0  0
   59.5750   27.8190   47.0560 C   0  0  0  0  0  0  0  0  0  0  0  0
   59.3790   26.1710   46.3660 S   0  0  0  0  0  0  0  0  0  0  0  0
   57.6220   26.0120   46.8480 C   0  0  0  0  0  0  0  0  0  0  0  0
   56.7580   26.9470   46.0520 C   0  0  0  0  0  0  0  0  0  0  0  0
   55.5290   26.7010   45.9460 O   0  0  0  0  0  0  0  0  0  0  0  0
   57.2870   28.1110   45.4000 N   0  0  0  0  0  0  0  0  0  0  0  0
   56.5720   29.3090   45.0820 C   0  0  0  0  0  0  0  0  0  0  0  0
   55.2330   29.2220   44.6070 N   0  0  0  0  0  0  0  0  0  0  0  0
   57.0950   30.4390   45.2630 O   0  0  0  0  0  0  0  0  0  0  0  0
   60.0700   28.8840   46.3870 N   0  0  0  0  0  0  0  0  0  0  0  0
   60.6220   28.9120   45.0360 C   0  0  0  0  0  0  0  0  0  0  0  0
   57.7290   33.5910   47.0970 C   0  0  0  0  0  0  0  0  0  0  0  0
   57.3380   33.1260   45.8380 C   0  0  0  0  0  0  0  0  0  0  0  0
   57.1425   31.8500   43.5354 H   0  0  0  0  0  0  0  0  0  0  0  0
   57.2317   33.4996   42.8301 H   0  0  0  0  0  0  0  0  0  0  0  0
   58.6844   32.4431   42.8301 H   0  0  0  0  0  0  0  0  0  0  0  0
   60.1067   34.0162   44.0349 H   0  0  0  0  0  0  0  0  0  0  0  0
   60.7854   34.8875   46.2683 H   0  0  0  0  0  0  0  0  0  0  0  0
   60.9770   34.2088   49.7482 H   0  0  0  0  0  0  0  0  0  0  0  0
   59.3208   34.1071   50.4659 H   0  0  0  0  0  0  0  0  0  0  0  0
   59.9613   31.8298   46.5634 H   0  0  0  0  0  0  0  0  0  0  0  0
   61.6336   31.1479   46.6225 H   0  0  0  0  0  0  0  0  0  0  0  0
   59.5430   29.9150   49.3970 H   0  0  0  0  0  0  0  0  0  0  0  0
   57.2923   24.9779   46.6693 H   0  0  0  0  0  0  0  0  0  0  0  0
   57.5267   26.2688   47.9134 H   0  0  0  0  0  0  0  0  0  0  0  0
   54.7680   28.2920   44.4930 H   0  0  0  0  0  0  0  0  0  0  0  0
   54.7030   30.0880   44.3640 H   0  0  0  0  0  0  0  0  0  0  0  0
   61.7193   28.9677   45.0893 H   0  0  0  0  0  0  0  0  0  0  0  0
   60.3268   27.9977   44.5003 H   0  0  0  0  0  0  0  0  0  0  0  0
   60.2358   29.7917   44.5003 H   0  0  0  0  0  0  0  0  0  0  0  0
   57.0631   33.4560   47.9621 H   0  0  0  0  0  0  0  0  0  0  0  0
   56.3614   32.6349   45.7157 H   0  0  0  0  0  0  0  0  0  0  0  0
  1  2  1  0
  2  3  2  0
  3  4  1  0
  4  5  2  0
  5  6  1  0
  6  7  1  0
  7  8  1  0
  8  9  2  0
  8 10  1  0
 10 11  1  0
 11 12  1  0
 12 13  2  0
 13 14  1  0
 14 15  2  0
 15 16  1  0
 16 17  1  0
 17 18  1  0
 18 19  2  0
 18 20  1  0
 20 21  1  0
 21 22  1  0
 21 23  2  0
 15 24  1  0
 24 25  1  0
  5 26  1  0
 26 27  2  0
 27  2  1  0
 24 12  1  0
  1 28  1  0
  1 29  1  0
  1 30  1  0
  3 31  1  0
  4 32  1  0
  7 33  1  0
  7 34  1  0
 11 35  1  0
 11 36  1  0
 13 37  1  0
 17 38  1  0
 17 39  1  0
 22 40  1  0
 22 41  1  0
 25 42  1  0
 25 43  1  0
 25 44  1  0
 26 45  1  0
 27 46  1  0
M  CHG  3  10  -1  13   1  20  -1
M  END
>  <UniqueID>  (65) 
58

>  <SMILES>  (65) 
Cc1ccc(OCC(=O)[N-]Cc2[nH+]nc(SCC(=O)[N-]C(N)=O)n2C)cc1

>  <Energy>  (65) 
69.82351370459816

>  <Genealogy>  (65) 
Cc1ccc(OCC(=O)[N-]Cc2[nH+]nc(SCC(=O)[N-]C(N)=O)n2C)cc1 (protonated)
Cc1ccc(OCC(=O)[N-]Cc2[nH+]nc(SCC(=O)[N-]C(N)=O)n2C)cc1 (3D coordinates assigned)
Cc1ccc(OCC(=O)[N-]Cc2[nH+]nc(SCC(=O)[N-]C(N)=O)n2C)cc1 (optimized conformer: 69.82351370459816 kcal/mol)

>  <smiles>  (65) 
Cc1ccc(OCC(=O)NCc2nnc(SCC(=O)NC(N)=O)n2C)cc1

>  <score_type>  (65) 
oracle

>  <origin>  (65) 
adg

>  <m_score__min__energy>  (65) 
-10.75

>  <m_primary>  (65) 
energy

$$$$
65:0
     RDKit          3D

 60 64  0  0  1  0  0  0  0  0999 V2000
   63.2790   33.5540   46.3660 N   0  0  0  0  0  0  0  0  0  0  0  0
   62.6050   33.5830   47.2870 C   0  0  0  0  0  0  0  0  0  0  0  0
   61.7720   33.5950   48.4340 C   0  0  0  0  0  0  0  0  0  0  0  0
   62.1780   33.1410   49.6690 C   0  0  0  0  0  0  0  0  0  0  0  0
   63.4740   32.5880   49.9750 C   0  0  0  0  0  0  0  0  0  0  0  0
   64.6940   33.1530   49.7330 C   0  0  0  0  0  0  0  0  0  0  0  0
   65.9040   32.5760   50.1320 C   0  0  0  0  0  0  0  0  0  0  0  0
   65.9180   31.3830   50.8020 C   0  0  0  0  0  0  0  0  0  0  0  0
   64.7040   30.7890   51.0590 C   0  0  0  0  0  0  0  0  0  0  0  0
   63.4990   31.3750   50.6560 C   0  0  0  0  0  0  0  0  0  0  0  0
   61.2580   33.2920   50.6690 N   0  0  0  0  0  0  0  0  0  0  0  0
   60.0480   33.8410   50.4590 C   0  0  0  0  0  0  0  0  0  0  0  0
   58.8840   34.0110   51.8230 S   0  0  0  0  0  0  0  0  0  0  0  0
   58.3450   32.3540   52.3280 C   0  0  0  0  0  0  0  0  0  0  0  0
   59.4040   31.3440   52.0760 C   0  0  0  0  0  0  0  0  0  0  0  0
   59.4290   30.2800   51.2110 C   0  0  0  0  0  0  0  0  0  0  0  0
   60.6220   29.6820   51.3720 N   0  0  0  0  0  0  0  0  0  0  0  0
   61.1190   28.5120   50.6790 C   0  0  0  0  0  0  0  0  0  0  0  0
   60.5760   28.3820   49.3170 C   0  0  0  0  0  0  0  0  0  0  0  0
   60.4860   27.2340   48.7690 O   0  0  0  0  0  0  0  0  0  0  0  0
   60.1230   29.4760   48.5280 N   0  0  0  0  0  0  0  0  0  0  0  0
   59.6210   29.1870   47.2230 C   0  0  0  0  0  0  0  0  0  0  0  0
   58.4360   28.4960   47.0200 C   0  0  0  0  0  0  0  0  0  0  0  0
   58.0250   28.2600   45.7040 C   0  0  0  0  0  0  0  0  0  0  0  0
   58.7830   28.7050   44.6370 C   0  0  0  0  0  0  0  0  0  0  0  0
   59.9650   29.3950   44.8500 C   0  0  0  0  0  0  0  0  0  0  0  0
   60.3870   29.6370   46.1520 C   0  0  0  0  0  0  0  0  0  0  0  0
   61.5580   30.3200   46.3580 F   0  0  0  0  0  0  0  0  0  0  0  0
   61.3040   30.3550   52.3030 N   0  0  0  0  0  0  0  0  0  0  0  0
   60.5840   31.3610   52.7380 N   0  0  0  0  0  0  0  0  0  0  0  0
   59.6300   34.2900   49.2640 N   0  0  0  0  0  0  0  0  0  0  0  0
   60.4970   34.1660   48.2440 C   0  0  0  0  0  0  0  0  0  0  0  0
   60.1080   34.5900   47.0960 N   0  0  0  0  0  0  0  0  0  0  0  0
   59.2650   33.8490   46.2230 C   0  0  0  0  0  0  0  0  0  0  0  0
   58.6340   32.7450   46.7530 C   0  0  0  0  0  0  0  0  0  0  0  0
   57.7970   31.9810   45.9560 C   0  0  0  0  0  0  0  0  0  0  0  0
   57.5920   32.3190   44.6330 C   0  0  0  0  0  0  0  0  0  0  0  0
   58.2410   33.4320   44.1360 C   0  0  0  0  0  0  0  0  0  0  0  0
   59.0790   34.2150   44.9010 C   0  0  0  0  0  0  0  0  0  0  0  0
   64.7265   34.1124   49.1960 H   0  0  0  0  0  0  0  0  0  0  0  0
   66.8522   33.0855   49.9053 H   0  0  0  0  0  0  0  0  0  0  0  0
   66.8619   30.9177   51.1222 H   0  0  0  0  0  0  0  0  0  0  0  0
   64.6800   29.8288   51.5950 H   0  0  0  0  0  0  0  0  0  0  0  0
   62.5508   30.8655   50.8825 H   0  0  0  0  0  0  0  0  0  0  0  0
   61.4420   32.9800   51.6480 H   0  0  0  0  0  0  0  0  0  0  0  0
   58.1087   32.3656   53.4023 H   0  0  0  0  0  0  0  0  0  0  0  0
   57.4573   32.0820   51.7381 H   0  0  0  0  0  0  0  0  0  0  0  0
   58.6289   29.9754   50.5203 H   0  0  0  0  0  0  0  0  0  0  0  0
   62.2150   28.5804   50.6153 H   0  0  0  0  0  0  0  0  0  0  0  0
   60.7977   27.6280   51.2493 H   0  0  0  0  0  0  0  0  0  0  0  0
   60.1780   30.4250   48.9310 H   0  0  0  0  0  0  0  0  0  0  0  0
   57.8353   28.1429   47.8711 H   0  0  0  0  0  0  0  0  0  0  0  0
   57.0885   27.7144   45.5161 H   0  0  0  0  0  0  0  0  0  0  0  0
   58.4442   28.5092   43.6089 H   0  0  0  0  0  0  0  0  0  0  0  0
   60.5637   29.7479   43.9973 H   0  0  0  0  0  0  0  0  0  0  0  0
   58.7943   32.4708   47.8062 H   0  0  0  0  0  0  0  0  0  0  0  0
   57.2928   31.0999   46.3797 H   0  0  0  0  0  0  0  0  0  0  0  0
   56.9298   31.7181   43.9924 H   0  0  0  0  0  0  0  0  0  0  0  0
   58.0822   33.7061   43.0826 H   0  0  0  0  0  0  0  0  0  0  0  0
   59.5809   35.0972   44.4769 H   0  0  0  0  0  0  0  0  0  0  0  0
  1  2  3  0
  2  3  1  0
  3  4  2  0
  4  5  1  0
  5  6  2  0
  6  7  1  0
  7  8  2  0
  8  9  1  0
  9 10  2  0
  4 11  1  0
 11 12  1  0
 12 13  1  0
 13 14  1  0
 14 15  1  0
 15 16  2  0
 16 17  1  0
 17 18  1  0
 18 19  1  0
 19 20  2  0
 19 21  1  0
 21 22  1  0
 22 23  2  0
 23 24  1  0
 24 25  2  0
 25 26  1  0
 26 27  2  0
 27 28  1  0
 17 29  1  0
 29 30  2  0
 12 31  2  0
 31 32  1  0
 32 33  2  0
 33 34  1  0
 34 35  2  0
 35 36  1  0
 36 37  2  0
 37 38  1  0
 38 39  2  0
 32  3  1  0
 39 34  1  0
 10  5  1  0
 30 15  1  0
 27 22  1  0
  6 40  1  0
  7 41  1  0
  8 42  1  0
  9 43  1  0
 10 44  1  0
 11 45  1  0
 14 46  1  0
 14 47  1  0
 16 48  1  0
 18 49  1  0
 18 50  1  0
 21 51  1  0
 23 52  1  0
 24 53  1  0
 25 54  1  0
 26 55  1  0
 35 56  1  0
 36 57  1  0
 37 58  1  0
 38 59  1  0
 39 60  1  0
M  END
>  <smiles>  (66) 
N#Cc1c(-c2ccccc2)[nH]c(SCc2cn(CC(=O)Nc3ccccc3F)nn2)nc1=Nc1ccccc1

>  <score_type>  (66) 
oracle

>  <origin>  (66) 
adg

>  <m_score__min__energy>  (66) 
-9.9000000000000004

>  <m_primary>  (66) 
energy

$$$$
66:0
     RDKit          3D

 41 42  0  0  0  0  0  0  0  0999 V2000
   60.7760   33.4200   50.8040 C   0  0  0  0  0  0  0  0  0  0  0  0
   60.6750   32.8860   49.4360 N   0  0  0  0  0  0  0  0  0  0  0  0
   61.5980   31.7390   49.2590 C   0  0  0  0  0  0  0  0  0  0  0  0
   61.3060   31.0500   47.9640 C   0  0  0  0  0  0  0  0  0  0  0  0
   62.1050   31.1780   47.0000 O   0  0  0  0  0  0  0  0  0  0  0  0
   60.1070   30.2790   47.8290 N   0  0  0  0  0  0  0  0  0  0  0  0
   59.6230   29.6260   46.6470 C   0  0  0  0  0  0  0  0  0  0  0  0
   60.2210   28.4620   46.1310 C   0  0  0  0  0  0  0  0  0  0  0  0
   59.6690   27.8200   45.0190 C   0  0  0  0  0  0  0  0  0  0  0  0
   58.5140   28.3250   44.4180 C   0  0  0  0  0  0  0  0  0  0  0  0
   57.9030   29.4760   44.9300 C   0  0  0  0  0  0  0  0  0  0  0  0
   56.4230   30.0900   44.1980 S   0  0  0  0  0  0  0  0  0  0  0  0
   56.4880   29.8910   42.4820 N   0  0  0  0  0  0  0  0  0  0  0  0
   55.2460   29.3360   44.7480 O   0  0  0  0  0  0  0  0  0  0  0  0
   56.2710   31.5530   44.5120 O   0  0  0  0  0  0  0  0  0  0  0  0
   58.4540   30.1160   46.0480 C   0  0  0  0  0  0  0  0  0  0  0  0
   60.9400   33.9680   48.4610 C   0  0  0  0  0  0  0  0  0  0  0  0
   59.8670   34.0320   47.4050 C   0  0  0  0  0  0  0  0  0  0  0  0
   58.6340   33.3910   47.6150 C   0  0  0  0  0  0  0  0  0  0  0  0
   57.6350   33.4460   46.6380 C   0  0  0  0  0  0  0  0  0  0  0  0
   57.8590   34.1380   45.4450 C   0  0  0  0  0  0  0  0  0  0  0  0
   56.8960   34.1750   44.4900 F   0  0  0  0  0  0  0  0  0  0  0  0
   59.0810   34.7820   45.2300 C   0  0  0  0  0  0  0  0  0  0  0  0
   60.0810   34.7330   46.2060 C   0  0  0  0  0  0  0  0  0  0  0  0
   60.6220   32.6060   51.5277 H   0  0  0  0  0  0  0  0  0  0  0  0
   61.7732   33.8596   50.9533 H   0  0  0  0  0  0  0  0  0  0  0  0
   60.0082   34.1934   50.9533 H   0  0  0  0  0  0  0  0  0  0  0  0
   62.6360   32.1029   49.2533 H   0  0  0  0  0  0  0  0  0  0  0  0
   61.4591   31.0293   50.0878 H   0  0  0  0  0  0  0  0  0  0  0  0
   61.1267   28.0554   46.6046 H   0  0  0  0  0  0  0  0  0  0  0  0
   60.1457   26.9143   44.6160 H   0  0  0  0  0  0  0  0  0  0  0  0
   58.0839   27.8181   43.5416 H   0  0  0  0  0  0  0  0  0  0  0  0
   55.7270   29.2250   42.2210 H   0  0  0  0  0  0  0  0  0  0  0  0
   57.3920   29.4160   42.2620 H   0  0  0  0  0  0  0  0  0  0  0  0
   57.9648   31.0112   46.4595 H   0  0  0  0  0  0  0  0  0  0  0  0
   60.9751   34.9295   48.9942 H   0  0  0  0  0  0  0  0  0  0  0  0
   61.9003   33.7605   47.9664 H   0  0  0  0  0  0  0  0  0  0  0  0
   58.4540   32.8436   48.5520 H   0  0  0  0  0  0  0  0  0  0  0  0
   56.6714   32.9437   46.8089 H   0  0  0  0  0  0  0  0  0  0  0  0
   59.2561   35.3282   44.2914 H   0  0  0  0  0  0  0  0  0  0  0  0
   61.0392   35.2453   46.0346 H   0  0  0  0  0  0  0  0  0  0  0  0
  1  2  1  0
  2  3  1  0
  3  4  1  0
  4  5  2  0
  4  6  1  0
  6  7  1  0
  7  8  2  0
  8  9  1  0
  9 10  2  0
 10 11  1  0
 11 12  1  0
 12 13  1  0
 12 14  2  0
 12 15  2  0
 11 16  2  0
  2 17  1  0
 17 18  1  0
 18 19  2  0
 19 20  1  0
 20 21  2  0
 21 22  1  0
 21 23  1  0
 23 24  2  0
 16  7  1  0
 24 18  1  0
  1 25  1  0
  1 26  1  0
  1 27  1  0
  3 28  1  0
  3 29  1  0
  8 30  1  0
  9 31  1  0
 10 32  1  0
 13 33  1  0
 13 34  1  0
 16 35  1  0
 17 36  1  0
 17 37  1  0
 19 38  1  0
 20 39  1  0
 23 40  1  0
 24 41  1  0
M  CHG  1   6  -1
M  END
>  <UniqueID>  (67) 
59

>  <SMILES>  (67) 
CN(CC(=O)[N-]c1cccc(S(N)(=O)=O)c1)Cc1ccc(F)cc1

>  <Energy>  (67) 
40.365128313348464

>  <Genealogy>  (67) 
CN(CC(=O)[N-]c1cccc(S(N)(=O)=O)c1)Cc1ccc(F)cc1 (protonated)
CN(CC(=O)[N-]c1cccc(S(N)(=O)=O)c1)Cc1ccc(F)cc1 (3D coordinates assigned)
CN(CC(=O)[N-]c1cccc(S(N)(=O)=O)c1)Cc1ccc(F)cc1 (optimized conformer: 40.365128313348464 kcal/mol)

>  <smiles>  (67) 
CN(CC(=O)Nc1cccc(S(N)(=O)=O)c1)Cc1ccc(F)cc1

>  <score_type>  (67) 
oracle

>  <origin>  (67) 
adg

>  <m_score__min__energy>  (67) 
-9.6699999999999999

>  <m_primary>  (67) 
energy

$$$$
67:0
     RDKit          3D

 38 40  0  0  0  0  0  0  0  0999 V2000
   56.4367   28.9799   42.6625 H   0  0  0  0  0  0  0  0  0  0  0  0
   56.5840   29.5700   43.5790 C   0  0  0  0  0  0  0  0  0  0  0  0
   57.1410   30.9330   43.4240 C   0  0  0  0  0  0  0  0  0  0  0  0
   57.0290   31.4960   42.3030 O   0  0  0  0  0  0  0  0  0  0  0  0
   57.7890   31.6690   44.5340 C   0  0  0  0  0  0  0  0  0  0  0  0
   57.4060   32.9850   44.8470 C   0  0  0  0  0  0  0  0  0  0  0  0
   56.6562   33.4983   44.2270 H   0  0  0  0  0  0  0  0  0  0  0  0
   57.9720   33.6450   45.9410 C   0  0  0  0  0  0  0  0  0  0  0  0
   57.6613   34.6726   46.1810 H   0  0  0  0  0  0  0  0  0  0  0  0
   58.9350   33.0030   46.7350 C   0  0  0  0  0  0  0  0  0  0  0  0
   59.5260   33.6600   47.8680 N   0  0  0  0  0  0  0  0  0  0  0  0
   58.8970   34.2070   48.4980 H   0  0  0  0  0  0  0  0  0  0  0  0
   60.9420   33.7240   48.1040 C   0  0  0  0  0  0  0  0  0  0  0  0
   61.8260   33.4010   47.1200 N   0  0  0  0  0  0  0  0  0  0  0  0
   63.1660   33.4830   47.3220 C   0  0  0  0  0  0  0  0  0  0  0  0
   63.9620   33.1730   46.3990 O   0  0  0  0  0  0  0  0  0  0  0  0
   63.6490   33.9020   48.5210 N   0  0  0  0  0  0  0  0  0  0  0  0
   62.8070   34.2460   49.5290 C   0  0  0  0  0  0  0  0  0  0  0  0
   63.2730   34.6350   50.6310 O   0  0  0  0  0  0  0  0  0  0  0  0
   61.4250   34.1680   49.3400 C   0  0  0  0  0  0  0  0  0  0  0  0
   60.7312   34.4497   50.1458 H   0  0  0  0  0  0  0  0  0  0  0  0
   59.3650   31.7160   46.3840 C   0  0  0  0  0  0  0  0  0  0  0  0
   60.1561   31.2253   46.9700 H   0  0  0  0  0  0  0  0  0  0  0  0
   58.7950   31.0520   45.2940 C   0  0  0  0  0  0  0  0  0  0  0  0
   59.1367   30.0402   45.0303 H   0  0  0  0  0  0  0  0  0  0  0  0
   56.2430   28.9920   44.7430 C   0  0  0  0  0  0  0  0  0  0  0  0
   55.3421   29.3656   45.2517 H   0  0  0  0  0  0  0  0  0  0  0  0
   56.9880   27.8910   45.3920 C   0  0  0  0  0  0  0  0  0  0  0  0
   58.3880   27.9670   45.4570 C   0  0  0  0  0  0  0  0  0  0  0  0
   58.9070   28.8513   45.0588 H   0  0  0  0  0  0  0  0  0  0  0  0
   59.1260   26.9250   46.0250 C   0  0  0  0  0  0  0  0  0  0  0  0
   60.2239   26.9846   46.0587 H   0  0  0  0  0  0  0  0  0  0  0  0
   58.4720   25.8080   46.5500 C   0  0  0  0  0  0  0  0  0  0  0  0
   59.0555   24.9805   46.9799 H   0  0  0  0  0  0  0  0  0  0  0  0
   57.0780   25.7420   46.5290 C   0  0  0  0  0  0  0  0  0  0  0  0
   56.5644   24.8683   46.9567 H   0  0  0  0  0  0  0  0  0  0  0  0
   56.3310   26.7830   45.9660 C   0  0  0  0  0  0  0  0  0  0  0  0
   54.9410   26.7130   45.9910 O   0  0  0  0  0  0  0  0  0  0  0  0
  1  2  1  0
  2  3  1  0
  3  4  2  0
  3  5  1  0
  5  6  2  0
  6  7  1  0
  6  8  1  0
  8  9  1  0
  8 10  2  0
 10 11  1  0
 11 12  1  0
 11 13  1  0
 13 14  1  0
 14 15  1  0
 15 16  2  0
 15 17  1  0
 17 18  1  0
 18 19  2  0
 18 20  1  0
 20 21  1  0
 10 22  1  0
 22 23  1  0
 22 24  2  0
 24 25  1  0
  2 26  2  0
 26 27  1  0
 26 28  1  0
 28 29  2  0
 29 30  1  0
 29 31  1  0
 31 32  1  0
 31 33  2  0
 33 34  1  0
 33 35  1  0
 35 36  1  0
 35 37  2  0
 37 38  1  0
 24  5  1  0
 37 28  1  0
 20 13  2  0
M  CHG  3  14  -1  17  -1  38  -1
M  END
>  <UniqueID>  (68) 
60

>  <SMILES>  (68) 
O=C(/C=C\c1ccccc1[O-])c1ccc(Nc2cc(=O)[n-]c(=O)[n-]2)cc1

>  <Energy>  (68) 
56.245507198528685

>  <Genealogy>  (68) 
O=C(C=Cc1ccccc1[O-])c1ccc(Nc2cc(=O)[n-]c(=O)[n-]2)cc1 (protonated)
O=C(/C=C\c1ccccc1[O-])c1ccc(Nc2cc(=O)[n-]c(=O)[n-]2)cc1 (cis-trans isomerization)
O=C(/C=C\c1ccccc1[O-])c1ccc(Nc2cc(=O)[n-]c(=O)[n-]2)cc1 (3D coordinates assigned)
O=C(/C=C\c1ccccc1[O-])c1ccc(Nc2cc(=O)[n-]c(=O)[n-]2)cc1 (optimized conformer: 56.245507198528685 kcal/mol)

>  <smiles>  (68) 
O=C(C=Cc1ccccc1O)c1ccc(Nc2cc(=O)[nH]c(=O)[nH]2)cc1

>  <score_type>  (68) 
oracle

>  <origin>  (68) 
adg

>  <m_score__min__energy>  (68) 
-14.1

>  <m_primary>  (68) 
energy

$$$$
68:0
     RDKit          3D

 41 43  0  0  0  0  0  0  0  0999 V2000
   65.3200   32.3820   50.0610 C   0  0  0  0  0  0  0  0  0  0  0  0
   63.8670   32.8550   50.0440 C   0  0  0  0  0  0  0  0  0  0  0  0
   63.5820   33.7120   48.8700 N   0  0  0  0  0  0  0  0  0  0  0  0
   63.6600   33.0140   47.5640 C   0  0  0  0  0  0  0  0  0  0  0  0
   63.1540   33.8500   46.3800 C   0  0  0  0  0  0  0  0  0  0  0  0
   62.3270   34.4840   49.0340 C   0  0  0  0  0  0  0  0  0  0  0  0
   61.2410   33.6070   49.6720 C   0  0  0  0  0  0  0  0  0  0  0  0
   60.4920   32.8430   48.6480 N   0  0  0  0  0  0  0  0  0  0  0  0
   60.5560   31.4560   48.5720 C   0  0  0  0  0  0  0  0  0  0  0  0
   61.4300   30.5620   49.6470 S   0  0  0  0  0  0  0  0  0  0  0  0
   59.8900   30.7840   47.5810 N   0  0  0  0  0  0  0  0  0  0  0  0
   59.1640   31.4690   46.6640 C   0  0  0  0  0  0  0  0  0  0  0  0
   59.0860   32.8430   46.7230 C   0  0  0  0  0  0  0  0  0  0  0  0
   58.1280   33.4390   45.4640 S   0  0  0  0  0  0  0  0  0  0  0  0
   57.8050   31.9050   44.8320 C   0  0  0  0  0  0  0  0  0  0  0  0
   57.0320   31.5900   43.7190 C   0  0  0  0  0  0  0  0  0  0  0  0
   56.8950   30.2390   43.3650 C   0  0  0  0  0  0  0  0  0  0  0  0
   57.5290   29.2360   44.1230 C   0  0  0  0  0  0  0  0  0  0  0  0
   58.3060   29.5730   45.2440 C   0  0  0  0  0  0  0  0  0  0  0  0
   58.4390   30.9240   45.5930 C   0  0  0  0  0  0  0  0  0  0  0  0
   59.7540   33.5400   47.7170 C   0  0  0  0  0  0  0  0  0  0  0  0
   59.6820   34.8010   47.7490 O   0  0  0  0  0  0  0  0  0  0  0  0
   65.6577   32.2721   51.1021 H   0  0  0  0  0  0  0  0  0  0  0  0
   65.3961   31.4127   49.5466 H   0  0  0  0  0  0  0  0  0  0  0  0
   65.9521   33.1208   49.5466 H   0  0  0  0  0  0  0  0  0  0  0  0
   63.2066   31.9759   50.0120 H   0  0  0  0  0  0  0  0  0  0  0  0
   63.6899   33.4492   50.9526 H   0  0  0  0  0  0  0  0  0  0  0  0
   64.7106   32.7477   47.3759 H   0  0  0  0  0  0  0  0  0  0  0  0
   63.0065   32.1320   47.6341 H   0  0  0  0  0  0  0  0  0  0  0  0
   62.6190   34.7339   46.7574 H   0  0  0  0  0  0  0  0  0  0  0  0
   64.0086   34.1726   45.7671 H   0  0  0  0  0  0  0  0  0  0  0  0
   62.4719   33.2425   45.7671 H   0  0  0  0  0  0  0  0  0  0  0  0
   62.5176   35.3532   49.6806 H   0  0  0  0  0  0  0  0  0  0  0  0
   61.9811   34.8185   48.0448 H   0  0  0  0  0  0  0  0  0  0  0  0
   61.7153   32.9008   50.3694 H   0  0  0  0  0  0  0  0  0  0  0  0
   60.5334   34.2625   50.2009 H   0  0  0  0  0  0  0  0  0  0  0  0
   59.9490   29.7420   47.5320 H   0  0  0  0  0  0  0  0  0  0  0  0
   56.5408   32.3797   43.1315 H   0  0  0  0  0  0  0  0  0  0  0  0
   56.2886   29.9619   42.4900 H   0  0  0  0  0  0  0  0  0  0  0  0
   57.4151   28.1804   43.8353 H   0  0  0  0  0  0  0  0  0  0  0  0
   58.8013   28.7903   45.8374 H   0  0  0  0  0  0  0  0  0  0  0  0
  1  2  1  0
  2  3  1  0
  3  4  1  0
  4  5  1  0
  3  6  1  0
  6  7  1  0
  7  8  1  0
  8  9  1  0
  9 10  2  0
  9 11  1  0
 11 12  1  0
 12 13  2  0
 13 14  1  0
 14 15  1  0
 15 16  2  0
 16 17  1  0
 17 18  2  0
 18 19  1  0
 19 20  2  0
 13 21  1  0
 21 22  2  0
 21  8  1  0
 20 12  1  0
 20 15  1  0
  1 23  1  0
  1 24  1  0
  1 25  1  0
  2 26  1  0
  2 27  1  0
  4 28  1  0
  4 29  1  0
  5 30  1  0
  5 31  1  0
  5 32  1  0
  6 33  1  0
  6 34  1  0
  7 35  1  0
  7 36  1  0
 11 37  1  0
 16 38  1  0
 17 39  1  0
 18 40  1  0
 19 41  1  0
M  END
>  <UniqueID>  (69) 
61

>  <SMILES>  (69) 
CCN(CC)CCn1c(=S)[nH]c2c(sc3ccccc32)c1=O

>  <Energy>  (69) 
86.6897515717492

>  <Genealogy>  (69) 
CCN(CC)CCn1c(=S)[nH]c2c(sc3ccccc32)c1=O (3D coordinates assigned)
CCN(CC)CCn1c(=S)[nH]c2c(sc3ccccc32)c1=O (optimized conformer: 86.6897515717492 kcal/mol)

>  <smiles>  (69) 
CCN(CC)CCn1c(=S)[nH]c2c(sc3ccccc32)c1=O

>  <score_type>  (69) 
oracle

>  <origin>  (69) 
adg

>  <m_score__min__energy>  (69) 
-7.0599999999999996

>  <m_primary>  (69) 
energy

$$$$
69:0
     RDKit          3D

 41 43  0  0  0  0  0  0  0  0999 V2000
   64.8776   32.1317   48.2675 H   0  0  0  0  0  0  0  0  0  0  0  0
   63.8940   32.6240   48.2790 C   0  0  0  0  0  0  0  0  0  0  0  0
   63.3830   33.1880   47.1090 C   0  0  0  0  0  0  0  0  0  0  0  0
   63.9651   33.1418   46.1768 H   0  0  0  0  0  0  0  0  0  0  0  0
   62.1330   33.8110   47.1210 C   0  0  0  0  0  0  0  0  0  0  0  0
   61.7388   34.2596   46.1972 H   0  0  0  0  0  0  0  0  0  0  0  0
   61.3740   33.8700   48.3030 C   0  0  0  0  0  0  0  0  0  0  0  0
   60.0450   34.5820   48.2880 C   0  0  0  0  0  0  0  0  0  0  0  0
   60.2150   35.6642   48.1880 H   0  0  0  0  0  0  0  0  0  0  0  0
   59.5151   34.3671   49.2277 H   0  0  0  0  0  0  0  0  0  0  0  0
   59.2090   34.1060   47.1400 C   0  0  0  0  0  0  0  0  0  0  0  0
   59.5400   34.3890   45.5110 S   0  0  0  0  0  0  0  0  0  0  0  0
   58.1610   33.5620   44.9920 C   0  0  0  0  0  0  0  0  0  0  0  0
   57.7680   33.4230   43.7600 N   0  0  0  0  0  0  0  0  0  0  0  0
   57.7220   32.1880   43.0300 C   0  0  0  0  0  0  0  0  0  0  0  0
   57.8290   32.2260   41.7750 O   0  0  0  0  0  0  0  0  0  0  0  0
   57.4870   30.8880   43.7020 C   0  0  0  0  0  0  0  0  0  0  0  0
   58.5650   30.1040   44.1470 C   0  0  0  0  0  0  0  0  0  0  0  0
   59.5960   30.4559   43.9946 H   0  0  0  0  0  0  0  0  0  0  0  0
   58.3360   28.8800   44.7820 C   0  0  0  0  0  0  0  0  0  0  0  0
   59.1870   28.2716   45.1221 H   0  0  0  0  0  0  0  0  0  0  0  0
   57.0270   28.4250   44.9870 C   0  0  0  0  0  0  0  0  0  0  0  0
   56.7400   26.8920   45.8020 S   0  0  0  0  0  0  0  0  0  0  0  0
   55.2620   26.6850   45.9910 O   0  0  0  0  0  0  0  0  0  0  0  0
   57.4010   26.9010   47.1520 O   0  0  0  0  0  0  0  0  0  0  0  0
   57.4060   25.5680   44.8220 C   0  0  0  0  0  0  0  0  0  0  0  0
   57.8005   24.7838   45.4848 H   0  0  0  0  0  0  0  0  0  0  0  0
   56.6126   25.1467   44.1872 H   0  0  0  0  0  0  0  0  0  0  0  0
   58.2173   25.9539   44.1872 H   0  0  0  0  0  0  0  0  0  0  0  0
   55.9480   29.2130   44.5660 C   0  0  0  0  0  0  0  0  0  0  0  0
   54.9176   28.8677   44.7367 H   0  0  0  0  0  0  0  0  0  0  0  0
   56.1760   30.4360   43.9300 C   0  0  0  0  0  0  0  0  0  0  0  0
   55.3228   31.0497   43.6053 H   0  0  0  0  0  0  0  0  0  0  0  0
   57.4470   33.0910   46.0370 N   0  0  0  0  0  0  0  0  0  0  0  0
   56.5520   32.5610   45.9430 H   0  0  0  0  0  0  0  0  0  0  0  0
   58.0230   33.3830   47.2340 C   0  0  0  0  0  0  0  0  0  0  0  0
   57.5881   33.0738   48.1959 H   0  0  0  0  0  0  0  0  0  0  0  0
   61.9030   33.3070   49.4880 C   0  0  0  0  0  0  0  0  0  0  0  0
   60.9630   33.3600   51.1590 Br  0  0  0  0  0  0  0  0  0  0  0  0
   63.1580   32.6840   49.4640 C   0  0  0  0  0  0  0  0  0  0  0  0
   63.5656   32.2397   50.3840 H   0  0  0  0  0  0  0  0  0  0  0  0
  1  2  1  0
  2  3  2  0
  3  4  1  0
  3  5  1  0
  5  6  1  0
  5  7  2  0
  7  8  1  0
  8  9  1  0
  8 10  1  0
  8 11  1  0
 11 12  1  0
 12 13  1  0
 13 14  2  0
 14 15  1  0
 15 16  2  0
 15 17  1  0
 17 18  2  0
 18 19  1  0
 18 20  1  0
 20 21  1  0
 20 22  2  0
 22 23  1  0
 23 24  2  0
 23 25  2  0
 23 26  1  0
 26 27  1  0
 26 28  1  0
 26 29  1  0
 22 30  1  0
 30 31  1  0
 30 32  2  0
 32 33  1  0
 13 34  1  0
 34 35  1  0
 34 36  1  0
 36 37  1  0
  7 38  1  0
 38 39  1  0
 38 40  2  0
 40 41  1  0
 40  2  1  0
 36 11  2  0
 32 17  1  0
M  END
>  <UniqueID>  (70) 
62

>  <SMILES>  (70) 
CS(=O)(=O)c1ccc(C(=O)/N=c2/[nH]cc(Cc3ccccc3Br)s2)cc1

>  <Energy>  (70) 
78.57285695590141

>  <Genealogy>  (70) 
CS(=O)(=O)c1ccc(C(=O)/N=c2/[nH]cc(Cc3ccccc3Br)s2)cc1 (cis-trans isomerization)
CS(=O)(=O)c1ccc(C(=O)/N=c2/[nH]cc(Cc3ccccc3Br)s2)cc1 (3D coordinates assigned)
CS(=O)(=O)c1ccc(C(=O)/N=c2/[nH]cc(Cc3ccccc3Br)s2)cc1 (optimized conformer: 78.57285695590141 kcal/mol)

>  <smiles>  (70) 
CS(=O)(=O)c1ccc(C(=O)N=c2[nH]cc(Cc3ccccc3Br)s2)cc1

>  <score_type>  (70) 
oracle

>  <origin>  (70) 
adg

>  <m_score__min__energy>  (70) 
-9.6999999999999993

>  <m_primary>  (70) 
energy

$$$$
70:0
     RDKit          3D

 46 49  0  0  0  0  0  0  0  0999 V2000
   57.6710   27.9920   46.9370 O   0  0  0  0  0  0  0  0  0  0  0  0
   57.8680   29.0640   46.3050 C   0  0  0  0  0  0  0  0  0  0  0  0
   58.7590   30.0360   46.8660 N   0  0  0  0  0  0  0  0  0  0  0  0
   58.6500   31.4490   46.6620 C   0  0  0  0  0  0  0  0  0  0  0  0
   58.4230   31.9150   45.3620 C   0  0  0  0  0  0  0  0  0  0  0  0
   58.3770   33.2840   45.1000 C   0  0  0  0  0  0  0  0  0  0  0  0
   58.5480   34.1980   46.1380 C   0  0  0  0  0  0  0  0  0  0  0  0
   58.7510   33.7470   47.4450 C   0  0  0  0  0  0  0  0  0  0  0  0
   58.7970   32.3680   47.7330 C   0  0  0  0  0  0  0  0  0  0  0  0
   58.9410   31.8960   49.1400 C   0  0  0  0  0  0  0  0  0  0  0  0
   59.7870   31.0010   49.4110 O   0  0  0  0  0  0  0  0  0  0  0  0
   58.1380   32.4770   50.2710 C   0  0  0  0  0  0  0  0  0  0  0  0
   58.7410   31.8240   51.8640 S   0  0  0  0  0  0  0  0  0  0  0  0
   57.3000   30.7990   52.1500 C   0  0  0  0  0  0  0  0  0  0  0  0
   57.2220   29.5030   51.7970 N   0  0  0  0  0  0  0  0  0  0  0  0
   56.0210   29.0920   52.1700 N   0  0  0  0  0  0  0  0  0  0  0  0
   55.4160   30.1550   52.7340 C   0  0  0  0  0  0  0  0  0  0  0  0
   54.0310   30.1270   53.3000 C   0  0  0  0  0  0  0  0  0  0  0  0
   53.0280   30.6100   52.2880 C   0  0  0  0  0  0  0  0  0  0  0  0
   52.9780   30.0330   51.0070 C   0  0  0  0  0  0  0  0  0  0  0  0
   52.0490   30.4830   50.0660 C   0  0  0  0  0  0  0  0  0  0  0  0
   51.1550   31.5040   50.3950 C   0  0  0  0  0  0  0  0  0  0  0  0
   51.1860   32.0760   51.6710 C   0  0  0  0  0  0  0  0  0  0  0  0
   50.2960   33.0910   52.0000 O   0  0  0  0  0  0  0  0  0  0  0  0
   52.1170   31.6280   52.6170 C   0  0  0  0  0  0  0  0  0  0  0  0
   56.1980   31.2080   52.7280 O   0  0  0  0  0  0  0  0  0  0  0  0
   57.1510   29.2950   45.0350 C   0  0  0  0  0  0  0  0  0  0  0  0
   57.6380   29.0120   43.7730 C   0  0  0  0  0  0  0  0  0  0  0  0
   56.6410   29.3820   42.8970 C   0  0  0  0  0  0  0  0  0  0  0  0
   55.6070   29.8600   43.6730 C   0  0  0  0  0  0  0  0  0  0  0  0
   55.9400   29.7950   44.9410 O   0  0  0  0  0  0  0  0  0  0  0  0
   58.2799   31.1966   44.5414 H   0  0  0  0  0  0  0  0  0  0  0  0
   58.2058   33.6423   44.0742 H   0  0  0  0  0  0  0  0  0  0  0  0
   58.5231   35.2775   45.9279 H   0  0  0  0  0  0  0  0  0  0  0  0
   58.8764   34.4767   48.2585 H   0  0  0  0  0  0  0  0  0  0  0  0
   58.2392   33.5723   50.2645 H   0  0  0  0  0  0  0  0  0  0  0  0
   57.0813   32.1992   50.1436 H   0  0  0  0  0  0  0  0  0  0  0  0
   53.7814   29.0959   53.5907 H   0  0  0  0  0  0  0  0  0  0  0  0
   53.9954   30.7921   54.1754 H   0  0  0  0  0  0  0  0  0  0  0  0
   53.6742   29.2228   50.7443 H   0  0  0  0  0  0  0  0  0  0  0  0
   52.0216   30.0319   49.0631 H   0  0  0  0  0  0  0  0  0  0  0  0
   50.4265   31.8584   49.6508 H   0  0  0  0  0  0  0  0  0  0  0  0
   52.1350   32.0751   53.6219 H   0  0  0  0  0  0  0  0  0  0  0  0
   58.6180   28.5809   43.5204 H   0  0  0  0  0  0  0  0  0  0  0  0
   56.6653   29.3104   41.7996 H   0  0  0  0  0  0  0  0  0  0  0  0
   54.6485   30.2384   43.2882 H   0  0  0  0  0  0  0  0  0  0  0  0
  1  2  2  0
  2  3  1  0
  3  4  1  0
  4  5  2  0
  5  6  1  0
  6  7  2  0
  7  8  1  0
  8  9  2  0
  9 10  1  0
 10 11  2  0
 10 12  1  0
 12 13  1  0
 13 14  1  0
 14 15  2  0
 15 16  1  0
 16 17  2  0
 17 18  1  0
 18 19  1  0
 19 20  2  0
 20 21  1  0
 21 22  2  0
 22 23  1  0
 23 24  1  0
 23 25  2  0
 17 26  1  0
  2 27  1  0
 27 28  2  0
 28 29  1  0
 29 30  2  0
 30 31  1  0
  9  4  1  0
 26 14  1  0
 31 27  1  0
 25 19  1  0
  5 32  1  0
  6 33  1  0
  7 34  1  0
  8 35  1  0
 12 36  1  0
 12 37  1  0
 18 38  1  0
 18 39  1  0
 20 40  1  0
 21 41  1  0
 22 42  1  0
 25 43  1  0
 28 44  1  0
 29 45  1  0
 30 46  1  0
M  CHG  2   3  -1  24  -1
M  END
>  <UniqueID>  (71) 
63

>  <SMILES>  (71) 
O=C([N-]c1ccccc1C(=O)CSc1nnc(Cc2cccc([O-])c2)o1)c1ccco1

>  <Energy>  (71) 
112.55737399117896

>  <Genealogy>  (71) 
O=C([N-]c1ccccc1C(=O)CSc1nnc(Cc2cccc([O-])c2)o1)c1ccco1 (protonated)
O=C([N-]c1ccccc1C(=O)CSc1nnc(Cc2cccc([O-])c2)o1)c1ccco1 (3D coordinates assigned)
O=C([N-]c1ccccc1C(=O)CSc1nnc(Cc2cccc([O-])c2)o1)c1ccco1 (optimized conformer: 112.55737399117896 kcal/mol)

>  <smiles>  (71) 
O=C(Nc1ccccc1C(=O)CSc1nnc(Cc2cccc(O)c2)o1)c1ccco1

>  <score_type>  (71) 
oracle

>  <origin>  (71) 
adg

>  <m_score__min__energy>  (71) 
-15.720000000000001

>  <m_primary>  (71) 
energy

$$$$
71:0
     RDKit          3D

 39 41  0  0  0  0  0  0  0  0999 V2000
   56.1150   21.6362   45.4835 H   0  0  0  0  0  0  0  0  0  0  0  0
   55.8280   22.6930   45.5870 C   0  0  0  0  0  0  0  0  0  0  0  0
   56.6740   23.5710   46.1880 N   0  0  0  0  0  0  0  0  0  0  0  0
   56.3610   24.8910   46.3410 C   0  0  0  0  0  0  0  0  0  0  0  0
   57.1830   25.7190   46.9190 N   0  0  0  0  0  0  0  0  0  0  0  0
   58.5140   26.0650   46.4910 C   0  0  0  0  0  0  0  0  0  0  0  0
   59.4800   25.2810   46.7020 O   0  0  0  0  0  0  0  0  0  0  0  0
   58.7510   27.3520   45.7960 C   0  0  0  0  0  0  0  0  0  0  0  0
   60.0600   27.7810   45.5060 C   0  0  0  0  0  0  0  0  0  0  0  0
   60.9166   27.1552   45.7968 H   0  0  0  0  0  0  0  0  0  0  0  0
   60.2790   28.9950   44.8520 C   0  0  0  0  0  0  0  0  0  0  0  0
   61.3062   29.3227   44.6340 H   0  0  0  0  0  0  0  0  0  0  0  0
   59.1990   29.7940   44.4740 C   0  0  0  0  0  0  0  0  0  0  0  0
   59.3771   30.7498   43.9595 H   0  0  0  0  0  0  0  0  0  0  0  0
   57.8900   29.3820   44.7480 C   0  0  0  0  0  0  0  0  0  0  0  0
   56.5340   30.3890   44.2500 S   0  0  0  0  0  0  0  0  0  0  0  0
   56.4310   30.4430   42.7510 O   0  0  0  0  0  0  0  0  0  0  0  0
   55.2670   29.8020   44.8060 O   0  0  0  0  0  0  0  0  0  0  0  0
   56.7360   32.0000   44.8630 N   0  0  0  0  0  0  0  0  0  0  0  0
   55.9490   32.6680   44.7040 H   0  0  0  0  0  0  0  0  0  0  0  0
   57.8640   32.4240   45.6520 C   0  0  0  0  0  0  0  0  0  0  0  0
   58.6740   33.4690   45.1780 C   0  0  0  0  0  0  0  0  0  0  0  0
   58.4427   33.9447   44.2135 H   0  0  0  0  0  0  0  0  0  0  0  0
   59.7720   33.9090   45.9230 C   0  0  0  0  0  0  0  0  0  0  0  0
   60.3983   34.7301   45.5441 H   0  0  0  0  0  0  0  0  0  0  0  0
   60.0760   33.3090   47.1470 C   0  0  0  0  0  0  0  0  0  0  0  0
   61.5750   33.9120   48.1640 Br  0  0  0  0  0  0  0  0  0  0  0  0
   59.2810   32.2640   47.6250 C   0  0  0  0  0  0  0  0  0  0  0  0
   59.5203   31.7897   48.5882 H   0  0  0  0  0  0  0  0  0  0  0  0
   58.1820   31.8190   46.8830 C   0  0  0  0  0  0  0  0  0  0  0  0
   57.5633   30.9926   47.2629 H   0  0  0  0  0  0  0  0  0  0  0  0
   57.6680   28.1670   45.4110 C   0  0  0  0  0  0  0  0  0  0  0  0
   56.6392   27.8470   45.6327 H   0  0  0  0  0  0  0  0  0  0  0  0
   55.1280   25.3630   45.8640 C   0  0  0  0  0  0  0  0  0  0  0  0
   54.7790   26.7020   46.0030 O   0  0  0  0  0  0  0  0  0  0  0  0
   54.2460   24.4760   45.2430 C   0  0  0  0  0  0  0  0  0  0  0  0
   53.2773   24.8361   44.8662 H   0  0  0  0  0  0  0  0  0  0  0  0
   54.5950   23.1320   45.1010 C   0  0  0  0  0  0  0  0  0  0  0  0
   53.9067   22.4270   44.6119 H   0  0  0  0  0  0  0  0  0  0  0  0
  1  2  1  0
  2  3  1  0
  3  4  1  0
  4  5  2  0
  5  6  1  0
  6  7  2  0
  6  8  1  0
  8  9  2  0
  9 10  1  0
  9 11  1  0
 11 12  1  0
 11 13  2  0
 13 14  1  0
 13 15  1  0
 15 16  1  0
 16 17  2  0
 16 18  2  0
 16 19  1  0
 19 20  1  0
 19 21  1  0
 21 22  2  0
 22 23  1  0
 22 24  1  0
 24 25  1  0
 24 26  2  0
 26 27  1  0
 26 28  1  0
 28 29  1  0
 28 30  2  0
 30 31  1  0
 15 32  2  0
 32 33  1  0
  4 34  1  0
 34 35  1  0
 34 36  2  0
 36 37  1  0
 36 38  1  0
 38 39  1  0
 38  2  2  0
 32  8  1  0
 30 21  1  0
M  CHG  2   3  -1  35  -1
M  END
>  <UniqueID>  (72) 
64

>  <SMILES>  (72) 
O=C(/N=c1\[n-]cccc1[O-])c1cccc(S(=O)(=O)Nc2ccc(Br)cc2)c1

>  <Energy>  (72) 
49.10271155985544

>  <Genealogy>  (72) 
O=C(N=c1[n-]cccc1[O-])c1cccc(S(=O)(=O)Nc2ccc(Br)cc2)c1 (protonated)
O=C(/N=c1\[n-]cccc1[O-])c1cccc(S(=O)(=O)Nc2ccc(Br)cc2)c1 (cis-trans isomerization)
O=C(/N=c1\[n-]cccc1[O-])c1cccc(S(=O)(=O)Nc2ccc(Br)cc2)c1 (3D coordinates assigned)
O=C(/N=c1\[n-]cccc1[O-])c1cccc(S(=O)(=O)Nc2ccc(Br)cc2)c1 (optimized conformer: 49.10271155985544 kcal/mol)

>  <smiles>  (72) 
O=C(N=c1[nH]cccc1O)c1cccc(S(=O)(=O)Nc2ccc(Br)cc2)c1

>  <score_type>  (72) 
oracle

>  <origin>  (72) 
adg

>  <m_score__min__energy>  (72) 
-14.84

>  <m_primary>  (72) 
energy

$$$$
72:0
     RDKit          3D

 27 28  0  0  0  0  0  0  0  0999 V2000
   57.1890   29.2420   43.3870 N   0  0  0  0  0  0  0  0  0  0  0  0
   56.7030   30.2390   44.2880 C   0  0  0  0  0  0  0  0  0  0  0  0
   55.5980   30.0590   44.8660 O   0  0  0  0  0  0  0  0  0  0  0  0
   57.4670   31.4730   44.5590 C   0  0  0  0  0  0  0  0  0  0  0  0
   58.0030   31.8590   45.7770 C   0  0  0  0  0  0  0  0  0  0  0  0
   58.6200   33.0690   45.5450 C   0  0  0  0  0  0  0  0  0  0  0  0
   59.4680   34.0430   46.7250 S   0  0  0  0  0  0  0  0  0  0  0  0
   59.5220   35.6670   46.2960 O   0  0  0  0  0  0  0  0  0  0  0  0
   61.0500   33.4040   47.1280 C   0  0  0  0  0  0  0  0  0  0  0  0
   62.1810   33.8480   46.4310 C   0  0  0  0  0  0  0  0  0  0  0  0
   63.4450   33.3430   46.7540 C   0  0  0  0  0  0  0  0  0  0  0  0
   63.5810   32.3940   47.7720 C   0  0  0  0  0  0  0  0  0  0  0  0
   62.4530   31.9480   48.4680 C   0  0  0  0  0  0  0  0  0  0  0  0
   61.1880   32.4520   48.1470 C   0  0  0  0  0  0  0  0  0  0  0  0
   58.4430   33.3800   44.2150 C   0  0  0  0  0  0  0  0  0  0  0  0
   57.7390   32.4020   43.6180 N   0  0  0  0  0  0  0  0  0  0  0  0
   56.6270   28.3790   43.2140 H   0  0  0  0  0  0  0  0  0  0  0  0
   58.0990   29.3460   42.8890 H   0  0  0  0  0  0  0  0  0  0  0  0
   57.9475   31.3132   46.7304 H   0  0  0  0  0  0  0  0  0  0  0  0
   59.2800   36.1490   47.1260 H   0  0  0  0  0  0  0  0  0  0  0  0
   62.0753   34.5939   45.6295 H   0  0  0  0  0  0  0  0  0  0  0  0
   64.3327   33.6928   46.2067 H   0  0  0  0  0  0  0  0  0  0  0  0
   64.5755   31.9982   48.0254 H   0  0  0  0  0  0  0  0  0  0  0  0
   62.5604   31.2007   49.2680 H   0  0  0  0  0  0  0  0  0  0  0  0
   60.3012   32.1008   48.6948 H   0  0  0  0  0  0  0  0  0  0  0  0
   58.8188   34.2868   43.7186 H   0  0  0  0  0  0  0  0  0  0  0  0
   57.4580   32.3770   42.6110 H   0  0  0  0  0  0  0  0  0  0  0  0
  1  2  1  0
  2  3  2  0
  2  4  1  0
  4  5  2  0
  5  6  1  0
  6  7  1  0
  7  8  1  6
  7  9  1  0
  9 10  2  0
 10 11  1  0
 11 12  2  0
 12 13  1  0
 13 14  2  0
  6 15  2  0
 15 16  1  0
 16  4  1  0
 14  9  1  0
  1 17  1  0
  1 18  1  0
  5 19  1  0
  8 20  1  0
 10 21  1  0
 11 22  1  0
 12 23  1  0
 13 24  1  0
 14 25  1  0
 15 26  1  0
 16 27  1  0
M  CHG  1   7   1
M  END
>  <UniqueID>  (73) 
65

>  <SMILES>  (73) 
NC(=O)c1cc([S@+](O)c2ccccc2)c[nH]1

>  <Energy>  (73) 
49.16087772550211

>  <Genealogy>  (73) 
NC(=O)c1cc([S+](O)c2ccccc2)c[nH]1 (protonated)
NC(=O)c1cc([S@+](O)c2ccccc2)c[nH]1 (chirality)
NC(=O)c1cc([S@+](O)c2ccccc2)c[nH]1 (3D coordinates assigned)
NC(=O)c1cc([S@+](O)c2ccccc2)c[nH]1 (optimized conformer: 49.16087772550211 kcal/mol)

>  <smiles>  (73) 
NC(=O)c1cc([S+]([O-])c2ccccc2)c[nH]1

>  <score_type>  (73) 
oracle

>  <origin>  (73) 
adg

>  <m_score__min__energy>  (73) 
-5.7599999999999998

>  <m_primary>  (73) 
energy

$$$$
73:0
     RDKit          3D

 56 57  0  0  0  0  0  0  0  0999 V2000
   57.8100   32.3070   42.4170 C   0  0  0  0  0  0  0  0  0  0  0  0
   57.9570   32.7860   43.8330 C   0  0  0  0  0  0  0  0  0  0  0  0
   58.9040   33.7890   44.1140 C   0  0  0  0  0  0  0  0  0  0  0  0
   59.1010   34.2280   45.4260 C   0  0  0  0  0  0  0  0  0  0  0  0
   58.3590   33.6750   46.4680 C   0  0  0  0  0  0  0  0  0  0  0  0
   57.4040   32.6920   46.2020 C   0  0  0  0  0  0  0  0  0  0  0  0
   57.1720   32.2610   44.8890 C   0  0  0  0  0  0  0  0  0  0  0  0
   56.1660   31.2650   44.6710 N   0  0  0  0  0  0  0  0  0  0  0  0
   56.4280   29.8570   44.6030 C   0  0  0  0  0  0  0  0  0  0  0  0
   55.5200   29.0200   44.8540 O   0  0  0  0  0  0  0  0  0  0  0  0
   57.8080   29.3810   44.2780 C   0  0  0  0  0  0  0  0  0  0  0  0
   58.5730   29.1520   45.4980 N   0  0  0  0  0  0  0  0  0  0  0  0
   59.9980   29.0380   45.5350 C   0  0  0  0  0  0  0  0  0  0  0  0
   60.6580   28.9920   44.4620 O   0  0  0  0  0  0  0  0  0  0  0  0
   60.6820   28.8780   46.8620 C   0  0  0  0  0  0  0  0  0  0  0  0
   60.5040   27.4850   47.4850 C   0  0  0  0  0  0  0  0  0  0  0  0
   59.3090   26.7490   46.9320 C   0  0  0  0  0  0  0  0  0  0  0  0
   59.4780   25.7600   45.9500 C   0  0  0  0  0  0  0  0  0  0  0  0
   58.3740   25.0580   45.4540 C   0  0  0  0  0  0  0  0  0  0  0  0
   57.0900   25.3340   45.9370 C   0  0  0  0  0  0  0  0  0  0  0  0
   55.6960   24.4750   45.2820 S   0  0  0  0  0  0  0  0  0  0  0  0
   54.4470   25.2310   45.6260 O   0  0  0  0  0  0  0  0  0  0  0  0
   55.8100   24.3760   43.7870 O   0  0  0  0  0  0  0  0  0  0  0  0
   55.6040   22.8750   45.9540 N   0  0  0  0  0  0  0  0  0  0  0  0
   55.8660   21.8820   44.9150 C   0  0  0  0  0  0  0  0  0  0  0  0
   57.2680   22.0910   44.3250 C   0  0  0  0  0  0  0  0  0  0  0  0
   58.3540   21.5820   45.2820 C   0  0  0  0  0  0  0  0  0  0  0  0
   57.3860   21.3860   42.9700 C   0  0  0  0  0  0  0  0  0  0  0  0
   56.9190   26.3080   46.9310 C   0  0  0  0  0  0  0  0  0  0  0  0
   58.0190   27.0210   47.4170 C   0  0  0  0  0  0  0  0  0  0  0  0
   57.4873   31.2554   42.4173 H   0  0  0  0  0  0  0  0  0  0  0  0
   57.0589   32.9209   41.8984 H   0  0  0  0  0  0  0  0  0  0  0  0
   58.7762   32.3939   41.8984 H   0  0  0  0  0  0  0  0  0  0  0  0
   59.4925   34.2299   43.2959 H   0  0  0  0  0  0  0  0  0  0  0  0
   59.8434   35.0118   45.6367 H   0  0  0  0  0  0  0  0  0  0  0  0
   58.5260   34.0134   47.5012 H   0  0  0  0  0  0  0  0  0  0  0  0
   56.8288   32.2521   47.0301 H   0  0  0  0  0  0  0  0  0  0  0  0
   57.7418   28.4407   43.7110 H   0  0  0  0  0  0  0  0  0  0  0  0
   58.3169   30.1512   43.6799 H   0  0  0  0  0  0  0  0  0  0  0  0
   61.7576   29.0611   46.7225 H   0  0  0  0  0  0  0  0  0  0  0  0
   60.2191   29.5997   47.5511 H   0  0  0  0  0  0  0  0  0  0  0  0
   61.4076   26.8910   47.2832 H   0  0  0  0  0  0  0  0  0  0  0  0
   60.3401   27.6218   48.5641 H   0  0  0  0  0  0  0  0  0  0  0  0
   60.4849   25.5356   45.5681 H   0  0  0  0  0  0  0  0  0  0  0  0
   58.5158   24.2871   44.6823 H   0  0  0  0  0  0  0  0  0  0  0  0
   55.8015   20.8741   45.3508 H   0  0  0  0  0  0  0  0  0  0  0  0
   55.1192   21.9931   44.1151 H   0  0  0  0  0  0  0  0  0  0  0  0
   57.4174   23.1713   44.1812 H   0  0  0  0  0  0  0  0  0  0  0  0
   58.0278   21.7349   46.3213 H   0  0  0  0  0  0  0  0  0  0  0  0
   58.5252   20.5099   45.1054 H   0  0  0  0  0  0  0  0  0  0  0  0
   59.2875   22.1364   45.1054 H   0  0  0  0  0  0  0  0  0  0  0  0
   57.5657   20.3126   43.1296 H   0  0  0  0  0  0  0  0  0  0  0  0
   56.4527   21.5213   42.4037 H   0  0  0  0  0  0  0  0  0  0  0  0
   58.2244   21.8179   42.4037 H   0  0  0  0  0  0  0  0  0  0  0  0
   55.9146   26.5121   47.3303 H   0  0  0  0  0  0  0  0  0  0  0  0
   57.8738   27.7979   48.1821 H   0  0  0  0  0  0  0  0  0  0  0  0
  1  2  1  0
  2  3  2  0
  3  4  1  0
  4  5  2  0
  5  6  1  0
  6  7  2  0
  7  8  1  0
  8  9  1  0
  9 10  2  0
  9 11  1  0
 11 12  1  0
 12 13  1  0
 13 14  2  0
 13 15  1  0
 15 16  1  0
 16 17  1  0
 17 18  2  0
 18 19  1  0
 19 20  2  0
 20 21  1  0
 21 22  2  0
 21 23  2  0
 21 24  1  0
 24 25  1  0
 25 26  1  0
 26 27  1  0
 26 28  1  0
 20 29  1  0
 29 30  2  0
  7  2  1  0
 30 17  1  0
  1 31  1  0
  1 32  1  0
  1 33  1  0
  3 34  1  0
  4 35  1  0
  5 36  1  0
  6 37  1  0
 11 38  1  0
 11 39  1  0
 15 40  1  0
 15 41  1  0
 16 42  1  0
 16 43  1  0
 18 44  1  0
 19 45  1  0
 25 46  1  0
 25 47  1  0
 26 48  1  0
 27 49  1  0
 27 50  1  0
 27 51  1  0
 28 52  1  0
 28 53  1  0
 28 54  1  0
 29 55  1  0
 30 56  1  0
M  CHG  3   8  -1  12  -1  24  -1
M  END
>  <UniqueID>  (74) 
66

>  <SMILES>  (74) 
Cc1ccccc1[N-]C(=O)C[N-]C(=O)CCc1ccc(S(=O)(=O)[N-]CC(C)C)cc1

>  <Energy>  (74) 
41.96559679388667

>  <Genealogy>  (74) 
Cc1ccccc1[N-]C(=O)C[N-]C(=O)CCc1ccc(S(=O)(=O)[N-]CC(C)C)cc1 (protonated)
Cc1ccccc1[N-]C(=O)C[N-]C(=O)CCc1ccc(S(=O)(=O)[N-]CC(C)C)cc1 (3D coordinates assigned)
Cc1ccccc1[N-]C(=O)C[N-]C(=O)CCc1ccc(S(=O)(=O)[N-]CC(C)C)cc1 (optimized conformer: 41.96559679388667 kcal/mol)

>  <smiles>  (74) 
Cc1ccccc1NC(=O)CNC(=O)CCc1ccc(S(=O)(=O)NCC(C)C)cc1

>  <score_type>  (74) 
oracle

>  <origin>  (74) 
adg

>  <m_score__min__energy>  (74) 
-13.69

>  <m_primary>  (74) 
energy

$$$$
74:0
     RDKit          3D

 41 43  0  0  0  0  0  0  0  0999 V2000
   54.4850   29.3520   43.7220 O   0  0  0  0  0  0  0  0  0  0  0  0
   55.5940   29.3930   44.3180 C   0  0  0  0  0  0  0  0  0  0  0  0
   55.8980   28.3480   45.2540 N   0  0  0  0  0  0  0  0  0  0  0  0
   57.4000   27.4900   45.4030 S   0  0  0  0  0  0  0  0  0  0  0  0
   57.1950   26.3030   46.3020 O   0  0  0  0  0  0  0  0  0  0  0  0
   57.8200   27.0060   44.0440 O   0  0  0  0  0  0  0  0  0  0  0  0
   58.6540   28.5060   46.1100 C   0  0  0  0  0  0  0  0  0  0  0  0
   59.7890   28.8540   45.3620 C   0  0  0  0  0  0  0  0  0  0  0  0
   60.7580   29.7000   45.9090 C   0  0  0  0  0  0  0  0  0  0  0  0
   60.6040   30.1930   47.2070 C   0  0  0  0  0  0  0  0  0  0  0  0
   59.4840   29.8370   47.9630 C   0  0  0  0  0  0  0  0  0  0  0  0
   58.5120   28.9910   47.4180 C   0  0  0  0  0  0  0  0  0  0  0  0
   56.5150   30.5170   44.0390 C   0  0  0  0  0  0  0  0  0  0  0  0
   56.8360   30.8560   42.7160 C   0  0  0  0  0  0  0  0  0  0  0  0
   57.6890   31.9320   42.4720 C   0  0  0  0  0  0  0  0  0  0  0  0
   58.2200   32.6570   43.5380 C   0  0  0  0  0  0  0  0  0  0  0  0
   57.9000   32.2830   44.8520 C   0  0  0  0  0  0  0  0  0  0  0  0
   58.4150   33.0420   46.0100 C   0  0  0  0  0  0  0  0  0  0  0  0
   57.6200   33.4460   46.9030 O   0  0  0  0  0  0  0  0  0  0  0  0
   59.8160   33.3400   46.1100 N   0  0  0  0  0  0  0  0  0  0  0  0
   60.4990   33.5720   47.3530 C   0  0  0  0  0  0  0  0  0  0  0  0
   61.8890   33.7850   47.4000 C   0  0  0  0  0  0  0  0  0  0  0  0
   62.5230   34.0420   48.6210 C   0  0  0  0  0  0  0  0  0  0  0  0
   61.7770   34.0990   49.8000 C   0  0  0  0  0  0  0  0  0  0  0  0
   60.3940   33.9090   49.7600 C   0  0  0  0  0  0  0  0  0  0  0  0
   59.7550   33.6530   48.5430 C   0  0  0  0  0  0  0  0  0  0  0  0
   57.0650   31.2270   45.0610 N   0  0  0  0  0  0  0  0  0  0  0  0
   59.9165   28.4602   44.3429 H   0  0  0  0  0  0  0  0  0  0  0  0
   61.6425   29.9778   45.3169 H   0  0  0  0  0  0  0  0  0  0  0  0
   61.3652   30.8622   47.6344 H   0  0  0  0  0  0  0  0  0  0  0  0
   59.3665   30.2219   48.9867 H   0  0  0  0  0  0  0  0  0  0  0  0
   57.6345   28.7057   48.0169 H   0  0  0  0  0  0  0  0  0  0  0  0
   56.4185   30.2781   41.8784 H   0  0  0  0  0  0  0  0  0  0  0  0
   57.9430   32.2088   41.4381 H   0  0  0  0  0  0  0  0  0  0  0  0
   58.8835   33.5141   43.3507 H   0  0  0  0  0  0  0  0  0  0  0  0
   60.3600   33.4390   45.2240 H   0  0  0  0  0  0  0  0  0  0  0  0
   62.4801   33.7494   46.4730 H   0  0  0  0  0  0  0  0  0  0  0  0
   63.6112   34.1994   48.6519 H   0  0  0  0  0  0  0  0  0  0  0  0
   62.2783   34.2934   50.7596 H   0  0  0  0  0  0  0  0  0  0  0  0
   59.8060   33.9609   50.6882 H   0  0  0  0  0  0  0  0  0  0  0  0
   58.6641   33.5142   48.5166 H   0  0  0  0  0  0  0  0  0  0  0  0
  1  2  2  0
  2  3  1  0
  3  4  1  0
  4  5  2  0
  4  6  2  0
  4  7  1  0
  7  8  2  0
  8  9  1  0
  9 10  2  0
 10 11  1  0
 11 12  2  0
  2 13  1  0
 13 14  2  0
 14 15  1  0
 15 16  2  0
 16 17  1  0
 17 18  1  0
 18 19  2  0
 18 20  1  0
 20 21  1  0
 21 22  2  0
 22 23  1  0
 23 24  2  0
 24 25  1  0
 25 26  2  0
 17 27  2  0
 12  7  1  0
 27 13  1  0
 26 21  1  0
  8 28  1  0
  9 29  1  0
 10 30  1  0
 11 31  1  0
 12 32  1  0
 14 33  1  0
 15 34  1  0
 16 35  1  0
 20 36  1  0
 22 37  1  0
 23 38  1  0
 24 39  1  0
 25 40  1  0
 26 41  1  0
M  CHG  1   3  -1
M  END
>  <UniqueID>  (75) 
67

>  <SMILES>  (75) 
O=C([N-]S(=O)(=O)c1ccccc1)c1cccc(C(=O)Nc2ccccc2)n1

>  <Energy>  (75) 
50.085184960973116

>  <Genealogy>  (75) 
O=C([N-]S(=O)(=O)c1ccccc1)c1cccc(C(=O)Nc2ccccc2)n1 (protonated)
O=C([N-]S(=O)(=O)c1ccccc1)c1cccc(C(=O)Nc2ccccc2)n1 (3D coordinates assigned)
O=C([N-]S(=O)(=O)c1ccccc1)c1cccc(C(=O)Nc2ccccc2)n1 (optimized conformer: 50.085184960973116 kcal/mol)

>  <smiles>  (75) 
O=C(Nc1ccccc1)c1cccc(C(=O)NS(=O)(=O)c2ccccc2)n1

>  <score_type>  (75) 
oracle

>  <origin>  (75) 
adg

>  <m_score__min__energy>  (75) 
-11.07

>  <m_primary>  (75) 
energy

$$$$
75:0
     RDKit          3D

 49 51  0  0  0  0  0  0  0  0999 V2000
   58.9320   30.1050   49.7150 C   0  0  0  0  0  0  0  0  0  0  0  0
   58.4690   28.9990   48.9490 O   0  0  0  0  0  0  0  0  0  0  0  0
   59.3020   28.0890   48.2770 C   0  0  0  0  0  0  0  0  0  0  0  0
   60.3450   27.4090   48.9390 C   0  0  0  0  0  0  0  0  0  0  0  0
   61.1430   26.4950   48.2480 C   0  0  0  0  0  0  0  0  0  0  0  0
   60.9140   26.2480   46.8930 C   0  0  0  0  0  0  0  0  0  0  0  0
   59.8900   26.9200   46.2240 C   0  0  0  0  0  0  0  0  0  0  0  0
   59.0820   27.8440   46.9060 C   0  0  0  0  0  0  0  0  0  0  0  0
   58.0260   28.5720   46.1650 C   0  0  0  0  0  0  0  0  0  0  0  0
   56.8680   28.0010   45.6350 C   0  0  0  0  0  0  0  0  0  0  0  0
   56.4290   26.5930   45.7590 C   0  0  0  0  0  0  0  0  0  0  0  0
   55.3480   26.3380   46.3600 O   0  0  0  0  0  0  0  0  0  0  0  0
   57.2250   25.4580   45.1620 C   0  0  0  0  0  0  0  0  0  0  0  0
   57.8270   25.8800   43.8180 C   0  0  0  0  0  0  0  0  0  0  0  0
   56.3500   24.2110   44.9970 C   0  0  0  0  0  0  0  0  0  0  0  0
   56.1750   29.0460   45.0440 C   0  0  0  0  0  0  0  0  0  0  0  0
   54.9380   28.9830   44.4140 O   0  0  0  0  0  0  0  0  0  0  0  0
   56.9220   30.1850   45.2220 C   0  0  0  0  0  0  0  0  0  0  0  0
   56.5780   31.4490   44.7560 O   0  0  0  0  0  0  0  0  0  0  0  0
   58.0520   29.9060   45.9020 N   0  0  0  0  0  0  0  0  0  0  0  0
   59.0910   30.8460   46.2310 C   0  0  0  0  0  0  0  0  0  0  0  0
   60.4180   30.4150   46.3960 C   0  0  0  0  0  0  0  0  0  0  0  0
   61.4170   31.3260   46.7490 C   0  0  0  0  0  0  0  0  0  0  0  0
   61.1020   32.6770   46.9330 C   0  0  0  0  0  0  0  0  0  0  0  0
   62.3830   33.8430   47.3960 S   0  0  0  0  0  0  0  0  0  0  0  0
   63.7350   32.6600   47.1030 C   0  0  0  0  0  0  0  0  0  0  0  0
   59.7830   33.1140   46.7640 C   0  0  0  0  0  0  0  0  0  0  0  0
   58.7830   32.2030   46.4110 C   0  0  0  0  0  0  0  0  0  0  0  0
   58.8357   29.8750   50.7864 H   0  0  0  0  0  0  0  0  0  0  0  0
   59.9876   30.3007   49.4754 H   0  0  0  0  0  0  0  0  0  0  0  0
   58.3306   30.9944   49.4754 H   0  0  0  0  0  0  0  0  0  0  0  0
   60.5311   27.5998   50.0062 H   0  0  0  0  0  0  0  0  0  0  0  0
   61.9540   25.9683   48.7724 H   0  0  0  0  0  0  0  0  0  0  0  0
   61.5409   25.5235   46.3526 H   0  0  0  0  0  0  0  0  0  0  0  0
   59.7148   26.7246   45.1558 H   0  0  0  0  0  0  0  0  0  0  0  0
   58.0472   25.2090   45.8490 H   0  0  0  0  0  0  0  0  0  0  0  0
   58.7161   26.5033   43.9940 H   0  0  0  0  0  0  0  0  0  0  0  0
   58.1141   24.9844   43.2475 H   0  0  0  0  0  0  0  0  0  0  0  0
   57.0830   26.4553   43.2475 H   0  0  0  0  0  0  0  0  0  0  0  0
   56.0765   23.8212   45.9886 H   0  0  0  0  0  0  0  0  0  0  0  0
   55.4375   24.4742   44.4420 H   0  0  0  0  0  0  0  0  0  0  0  0
   56.9079   23.4424   44.4420 H   0  0  0  0  0  0  0  0  0  0  0  0
   60.6718   29.3552   46.2466 H   0  0  0  0  0  0  0  0  0  0  0  0
   62.4528   30.9806   46.8825 H   0  0  0  0  0  0  0  0  0  0  0  0
   64.1330   32.3118   48.0675 H   0  0  0  0  0  0  0  0  0  0  0  0
   63.3531   31.8007   46.5322 H   0  0  0  0  0  0  0  0  0  0  0  0
   64.5360   33.1526   46.5322 H   0  0  0  0  0  0  0  0  0  0  0  0
   59.5330   34.1753   46.9091 H   0  0  0  0  0  0  0  0  0  0  0  0
   57.7489   32.5520   46.2736 H   0  0  0  0  0  0  0  0  0  0  0  0
  1  2  1  0
  2  3  1  0
  3  4  2  0
  4  5  1  0
  5  6  2  0
  6  7  1  0
  7  8  2  0
  8  9  1  0
  9 10  2  0
 10 11  1  0
 11 12  2  0
 11 13  1  0
 13 14  1  0
 13 15  1  0
 10 16  1  0
 16 17  1  0
 16 18  2  0
 18 19  1  0
 18 20  1  0
 20 21  1  0
 21 22  2  0
 22 23  1  0
 23 24  2  0
 24 25  1  0
 25 26  1  0
 24 27  1  0
 27 28  2  0
  8  3  1  0
 20  9  1  0
 28 21  1  0
  1 29  1  0
  1 30  1  0
  1 31  1  0
  4 32  1  0
  5 33  1  0
  6 34  1  0
  7 35  1  0
 13 36  1  0
 14 37  1  0
 14 38  1  0
 14 39  1  0
 15 40  1  0
 15 41  1  0
 15 42  1  0
 22 43  1  0
 23 44  1  0
 26 45  1  0
 26 46  1  0
 26 47  1  0
 27 48  1  0
 28 49  1  0
M  CHG  2  17  -1  19  -1
M  END
>  <UniqueID>  (76) 
68

>  <SMILES>  (76) 
COc1ccccc1-c1c(C(=O)C(C)C)c([O-])c([O-])n1-c1ccc(SC)cc1

>  <Energy>  (76) 
83.36627416958659

>  <Genealogy>  (76) 
COc1ccccc1-c1c(C(=O)C(C)C)c([O-])c([O-])n1-c1ccc(SC)cc1 (protonated)
COc1ccccc1-c1c(C(=O)C(C)C)c([O-])c([O-])n1-c1ccc(SC)cc1 (3D coordinates assigned)
COc1ccccc1-c1c(C(=O)C(C)C)c([O-])c([O-])n1-c1ccc(SC)cc1 (optimized conformer: 83.36627416958659 kcal/mol)

>  <smiles>  (76) 
COc1ccccc1-c1c(C(=O)C(C)C)c(O)c(O)n1-c1ccc(SC)cc1

>  <score_type>  (76) 
oracle

>  <origin>  (76) 
adg

>  <m_score__min__energy>  (76) 
-12.24

>  <m_primary>  (76) 
energy

$$$$
76:0
     RDKit          3D

 45 47  0  0  0  0  0  0  0  0999 V2000
   60.0249   34.4530   50.0775 H   0  0  0  0  0  0  0  0  0  0  0  0
   60.2450   34.2210   49.0250 C   0  0  0  0  0  0  0  0  0  0  0  0
   61.5200   33.9470   48.6440 N   0  0  0  0  0  0  0  0  0  0  0  0
   61.8380   33.6580   47.3520 C   0  0  0  0  0  0  0  0  0  0  0  0
   63.2600   33.3590   46.9770 C   0  0  0  0  0  0  0  0  0  0  0  0
   63.5510   33.9430   45.7580 F   0  0  0  0  0  0  0  0  0  0  0  0
   63.4380   31.9910   46.8800 F   0  0  0  0  0  0  0  0  0  0  0  0
   64.1310   33.8570   47.9310 F   0  0  0  0  0  0  0  0  0  0  0  0
   60.8290   33.6400   46.3770 C   0  0  0  0  0  0  0  0  0  0  0  0
   61.0767   33.4141   45.3293 H   0  0  0  0  0  0  0  0  0  0  0  0
   59.4960   33.9130   46.7470 C   0  0  0  0  0  0  0  0  0  0  0  0
   58.5110   33.8960   45.8910 N   0  0  0  0  0  0  0  0  0  0  0  0
   58.3900   33.0540   44.7000 C   0  0  0  0  0  0  0  0  0  0  0  0
   59.3026   33.1521   44.0938 H   0  0  0  0  0  0  0  0  0  0  0  0
   57.5124   33.3807   44.1228 H   0  0  0  0  0  0  0  0  0  0  0  0
   58.2070   31.6180   45.0850 C   0  0  0  0  0  0  0  0  0  0  0  0
   57.0720   30.9230   44.8120 N   0  0  0  0  0  0  0  0  0  0  0  0
   57.3400   29.7160   45.3290 C   0  0  0  0  0  0  0  0  0  0  0  0
   56.5160   28.5950   45.3490 C   0  0  0  0  0  0  0  0  0  0  0  0
   55.5186   28.6143   44.8856 H   0  0  0  0  0  0  0  0  0  0  0  0
   57.0030   27.4320   45.9840 C   0  0  0  0  0  0  0  0  0  0  0  0
   56.1860   26.2120   45.9990 C   0  0  0  0  0  0  0  0  0  0  0  0
   54.9320   26.3300   45.9930 O   0  0  0  0  0  0  0  0  0  0  0  0
   56.7540   24.8940   46.0480 N   0  0  0  0  0  0  0  0  0  0  0  0
   57.2310   24.0360   44.9550 C   0  0  0  0  0  0  0  0  0  0  0  0
   57.3620   24.9220   43.7050 C   0  0  0  0  0  0  0  0  0  0  0  0
   57.5165   25.9672   44.0110 H   0  0  0  0  0  0  0  0  0  0  0  0
   58.2201   24.5849   43.1049 H   0  0  0  0  0  0  0  0  0  0  0  0
   56.4431   24.8477   43.1049 H   0  0  0  0  0  0  0  0  0  0  0  0
   56.2310   22.9020   44.6550 C   0  0  0  0  0  0  0  0  0  0  0  0
   55.8596   22.4809   45.6009 H   0  0  0  0  0  0  0  0  0  0  0  0
   55.3862   23.3020   44.0750 H   0  0  0  0  0  0  0  0  0  0  0  0
   56.7335   22.1139   44.0750 H   0  0  0  0  0  0  0  0  0  0  0  0
   58.6150   23.4560   45.2990 C   0  0  0  0  0  0  0  0  0  0  0  0
   58.7309   23.4074   46.3918 H   0  0  0  0  0  0  0  0  0  0  0  0
   58.7043   22.4447   44.8755 H   0  0  0  0  0  0  0  0  0  0  0  0
   59.3986   24.1014   44.8755 H   0  0  0  0  0  0  0  0  0  0  0  0
   58.3140   27.4150   46.5220 C   0  0  0  0  0  0  0  0  0  0  0  0
   58.7065   26.4929   46.9754 H   0  0  0  0  0  0  0  0  0  0  0  0
   59.1170   28.5700   46.4800 C   0  0  0  0  0  0  0  0  0  0  0  0
   60.1293   28.5753   46.9105 H   0  0  0  0  0  0  0  0  0  0  0  0
   58.5860   29.7050   45.8750 C   0  0  0  0  0  0  0  0  0  0  0  0
   59.1670   30.9040   45.7310 N   0  0  0  0  0  0  0  0  0  0  0  0
   59.2140   34.2090   48.0850 C   0  0  0  0  0  0  0  0  0  0  0  0
   58.1823   34.4316   48.3950 H   0  0  0  0  0  0  0  0  0  0  0  0
  1  2  1  0
  2  3  1  0
  3  4  1  0
  4  5  1  0
  5  6  1  0
  5  7  1  0
  5  8  1  0
  4  9  2  0
  9 10  1  0
  9 11  1  0
 11 12  2  0
 12 13  1  0
 13 14  1  0
 13 15  1  0
 13 16  1  0
 16 17  2  0
 17 18  1  0
 18 19  2  0
 19 20  1  0
 19 21  1  0
 21 22  1  0
 22 23  2  0
 22 24  1  0
 24 25  1  0
 25 26  1  0
 26 27  1  0
 26 28  1  0
 26 29  1  0
 25 30  1  0
 30 31  1  0
 30 32  1  0
 30 33  1  0
 25 34  1  0
 34 35  1  0
 34 36  1  0
 34 37  1  0
 21 38  2  0
 38 39  1  0
 38 40  1  0
 40 41  1  0
 40 42  2  0
 42 43  1  0
 11 44  1  0
 44 45  1  0
 44  2  2  0
 43 16  1  0
 42 18  1  0
M  CHG  3   3  -1  24  -1  43  -1
M  END
>  <UniqueID>  (77) 
69

>  <SMILES>  (77) 
CC(C)(C)[N-]C(=O)c1ccc2[n-]c(C/N=c3/cc[n-]c(C(F)(F)F)c3)nc2c1

>  <Energy>  (77) 
86.20375451961986

>  <Genealogy>  (77) 
CC(C)(C)[N-]C(=O)c1ccc2[n-]c(CN=c3cc[n-]c(C(F)(F)F)c3)nc2c1 (protonated)
CC(C)(C)[N-]C(=O)c1ccc2[n-]c(C/N=c3/cc[n-]c(C(F)(F)F)c3)nc2c1 (cis-trans isomerization)
CC(C)(C)[N-]C(=O)c1ccc2[n-]c(C/N=c3/cc[n-]c(C(F)(F)F)c3)nc2c1 (3D coordinates assigned)
CC(C)(C)[N-]C(=O)c1ccc2[n-]c(C/N=c3/cc[n-]c(C(F)(F)F)c3)nc2c1 (optimized conformer: 86.20375451961986 kcal/mol)

>  <smiles>  (77) 
CC(C)(C)NC(=O)c1ccc2[nH]c(CN=c3cc[nH]c(C(F)(F)F)c3)nc2c1

>  <score_type>  (77) 
oracle

>  <origin>  (77) 
adg

>  <m_score__min__energy>  (77) 
-11.35

>  <m_primary>  (77) 
energy

$$$$
77:0
     RDKit          3D

 61 64  0  0  0  0  0  0  0  0999 V2000
   64.9100   34.0520   51.5490 C   0  0  0  0  0  0  0  0  0  0  0  0
   64.0010   33.5610   50.4790 C   0  0  0  0  0  0  0  0  0  0  0  0
   64.6020   33.1100   49.3110 C   0  0  0  0  0  0  0  0  0  0  0  0
   63.7980   32.6440   48.2870 C   0  0  0  0  0  0  0  0  0  0  0  0
   62.4250   32.6340   48.4380 C   0  0  0  0  0  0  0  0  0  0  0  0
   61.8220   33.0840   49.6060 C   0  0  0  0  0  0  0  0  0  0  0  0
   60.0910   33.0310   49.7010 S   0  0  0  0  0  0  0  0  0  0  0  0
   59.6580   31.7800   50.4370 O   0  0  0  0  0  0  0  0  0  0  0  0
   59.6310   34.2190   50.5150 O   0  0  0  0  0  0  0  0  0  0  0  0
   59.3120   33.0070   48.1370 C   0  0  0  0  0  0  0  0  0  0  0  0
   58.3960   32.0400   47.7830 C   0  0  0  0  0  0  0  0  0  0  0  0
   57.7900   32.0230   46.5650 N   0  0  0  0  0  0  0  0  0  0  0  0
   58.1020   32.9840   45.6850 C   0  0  0  0  0  0  0  0  0  0  0  0
   57.3870   33.0880   44.0510 S   0  0  0  0  0  0  0  0  0  0  0  0
   57.6580   31.5210   43.1850 C   0  0  0  0  0  0  0  0  0  0  0  0
   57.4850   30.3590   44.1000 C   0  0  0  0  0  0  0  0  0  0  0  0
   56.4810   30.2960   44.8750 O   0  0  0  0  0  0  0  0  0  0  0  0
   58.4830   29.3480   44.0590 N   0  0  0  0  0  0  0  0  0  0  0  0
   58.4520   28.1830   44.8740 C   0  0  0  0  0  0  0  0  0  0  0  0
   59.6460   27.8560   45.5200 C   0  0  0  0  0  0  0  0  0  0  0  0
   59.7310   26.7440   46.3370 C   0  0  0  0  0  0  0  0  0  0  0  0
   58.6030   25.9660   46.4990 C   0  0  0  0  0  0  0  0  0  0  0  0
   57.4310   26.3050   45.8520 C   0  0  0  0  0  0  0  0  0  0  0  0
   56.0490   25.2640   46.1110 S   0  0  0  0  0  0  0  0  0  0  0  0
   54.7910   26.0130   45.8220 O   0  0  0  0  0  0  0  0  0  0  0  0
   56.0290   24.7880   47.5340 O   0  0  0  0  0  0  0  0  0  0  0  0
   56.1590   23.9580   44.9960 N   0  0  0  0  0  0  0  0  0  0  0  0
   56.7790   24.3090   43.7490 C   0  0  0  0  0  0  0  0  0  0  0  0
   56.3290   23.2520   42.7340 C   0  0  0  0  0  0  0  0  0  0  0  0
   56.2170   22.0000   43.3700 O   0  0  0  0  0  0  0  0  0  0  0  0
   57.1760   21.8850   44.3930 C   0  0  0  0  0  0  0  0  0  0  0  0
   56.9060   22.8420   45.5390 C   0  0  0  0  0  0  0  0  0  0  0  0
   57.3250   27.4080   45.0330 C   0  0  0  0  0  0  0  0  0  0  0  0
   58.9980   33.9380   46.0170 N   0  0  0  0  0  0  0  0  0  0  0  0
   59.6090   33.9770   47.2110 C   0  0  0  0  0  0  0  0  0  0  0  0
   60.4280   34.9080   47.4240 O   0  0  0  0  0  0  0  0  0  0  0  0
   62.6320   33.5490   50.6280 C   0  0  0  0  0  0  0  0  0  0  0  0
   64.4777   33.8185   52.5331 H   0  0  0  0  0  0  0  0  0  0  0  0
   65.8892   33.5601   51.4526 H   0  0  0  0  0  0  0  0  0  0  0  0
   65.0355   35.1406   51.4526 H   0  0  0  0  0  0  0  0  0  0  0  0
   65.6966   33.1232   49.2026 H   0  0  0  0  0  0  0  0  0  0  0  0
   64.2515   32.2815   47.3527 H   0  0  0  0  0  0  0  0  0  0  0  0
   61.7957   32.2619   47.6161 H   0  0  0  0  0  0  0  0  0  0  0  0
   58.1460   31.2541   48.5110 H   0  0  0  0  0  0  0  0  0  0  0  0
   57.0990   31.3000   46.2870 H   0  0  0  0  0  0  0  0  0  0  0  0
   56.9351   31.4380   42.3601 H   0  0  0  0  0  0  0  0  0  0  0  0
   58.6891   31.5103   42.8021 H   0  0  0  0  0  0  0  0  0  0  0  0
   59.2980   29.4350   43.4050 H   0  0  0  0  0  0  0  0  0  0  0  0
   60.5317   28.4924   45.3768 H   0  0  0  0  0  0  0  0  0  0  0  0
   60.6725   26.4864   46.8442 H   0  0  0  0  0  0  0  0  0  0  0  0
   58.6373   25.0754   47.1437 H   0  0  0  0  0  0  0  0  0  0  0  0
   56.4513   25.3090   43.4286 H   0  0  0  0  0  0  0  0  0  0  0  0
   57.8749   24.3356   43.8402 H   0  0  0  0  0  0  0  0  0  0  0  0
   55.3526   23.5386   42.3163 H   0  0  0  0  0  0  0  0  0  0  0  0
   57.0714   23.1845   41.9252 H   0  0  0  0  0  0  0  0  0  0  0  0
   57.1604   20.8553   44.7797 H   0  0  0  0  0  0  0  0  0  0  0  0
   58.1582   22.1363   43.9662 H   0  0  0  0  0  0  0  0  0  0  0  0
   56.3175   22.3385   46.3201 H   0  0  0  0  0  0  0  0  0  0  0  0
   57.8477   23.1851   45.9922 H   0  0  0  0  0  0  0  0  0  0  0  0
   56.3806   27.6587   44.5279 H   0  0  0  0  0  0  0  0  0  0  0  0
   62.1799   33.9106   51.5634 H   0  0  0  0  0  0  0  0  0  0  0  0
  1  2  1  0
  2  3  2  0
  3  4  1  0
  4  5  2  0
  5  6  1  0
  6  7  1  0
  7  8  2  0
  7  9  2  0
  7 10  1  0
 10 11  2  0
 11 12  1  0
 12 13  1  0
 13 14  1  0
 14 15  1  0
 15 16  1  0
 16 17  2  0
 16 18  1  0
 18 19  1  0
 19 20  2  0
 20 21  1  0
 21 22  2  0
 22 23  1  0
 23 24  1  0
 24 25  2  0
 24 26  2  0
 24 27  1  0
 27 28  1  0
 28 29  1  0
 29 30  1  0
 30 31  1  0
 31 32  1  0
 23 33  2  0
 13 34  2  0
 34 35  1  0
 35 36  2  0
  6 37  2  0
 37  2  1  0
 35 10  1  0
 33 19  1  0
 32 27  1  0
  1 38  1  0
  1 39  1  0
  1 40  1  0
  3 41  1  0
  4 42  1  0
  5 43  1  0
 11 44  1  0
 12 45  1  0
 15 46  1  0
 15 47  1  0
 18 48  1  0
 20 49  1  0
 21 50  1  0
 22 51  1  0
 28 52  1  0
 28 53  1  0
 29 54  1  0
 29 55  1  0
 31 56  1  0
 31 57  1  0
 32 58  1  0
 32 59  1  0
 33 60  1  0
 37 61  1  0
M  END
>  <smiles>  (78) 
Cc1cccc(S(=O)(=O)c2c[nH]c(SCC(=O)Nc3cccc(S(=O)(=O)N4CCOCC4)c3)nc2=O)c1

>  <score_type>  (78) 
oracle

>  <origin>  (78) 
adg

>  <m_score__min__energy>  (78) 
-12.710000000000001

>  <m_primary>  (78) 
energy

$$$$
78:0
     RDKit          3D

 51 54  0  0  0  0  0  0  0  0999 V2000
   56.0400   24.4120   45.5080 O   0  0  0  0  0  0  0  0  0  0  0  0
   55.7310   25.6030   45.7810 C   0  0  0  0  0  0  0  0  0  0  0  0
   54.3980   25.9930   45.6920 O   0  0  0  0  0  0  0  0  0  0  0  0
   56.7710   26.5760   46.1850 C   0  0  0  0  0  0  0  0  0  0  0  0
   56.8490   27.8420   45.5840 C   0  0  0  0  0  0  0  0  0  0  0  0
   57.8320   28.7490   45.9840 C   0  0  0  0  0  0  0  0  0  0  0  0
   58.7440   28.3920   46.9900 C   0  0  0  0  0  0  0  0  0  0  0  0
   59.7640   29.3230   47.4180 N   0  0  0  0  0  0  0  0  0  0  0  0
   59.9830   30.5780   46.6880 C   0  0  0  0  0  0  0  0  0  0  0  0
   61.4650   30.9750   46.7520 C   0  0  0  0  0  0  0  0  0  0  0  0
   62.0270   30.9940   48.1300 N   0  0  0  0  0  0  0  0  0  0  0  0
   62.4530   32.3500   48.5380 C   0  0  0  0  0  0  0  0  0  0  0  0
   61.7180   32.8010   49.7830 C   0  0  0  0  0  0  0  0  0  0  0  0
   62.3210   32.6160   51.0410 C   0  0  0  0  0  0  0  0  0  0  0  0
   61.6850   33.0590   52.2050 C   0  0  0  0  0  0  0  0  0  0  0  0
   60.4430   33.6950   52.1280 C   0  0  0  0  0  0  0  0  0  0  0  0
   59.8290   33.8840   50.8880 C   0  0  0  0  0  0  0  0  0  0  0  0
   60.4490   33.4340   49.7110 C   0  0  0  0  0  0  0  0  0  0  0  0
   59.7610   33.6500   48.4200 C   0  0  0  0  0  0  0  0  0  0  0  0
   60.2890   34.5570   47.4860 C   0  0  0  0  0  0  0  0  0  0  0  0
   59.6340   34.7730   46.2680 C   0  0  0  0  0  0  0  0  0  0  0  0
   58.4540   34.0810   45.9740 C   0  0  0  0  0  0  0  0  0  0  0  0
   57.9260   33.1730   46.8970 C   0  0  0  0  0  0  0  0  0  0  0  0
   58.5760   32.9540   48.1180 C   0  0  0  0  0  0  0  0  0  0  0  0
   58.0420   32.0810   49.0110 F   0  0  0  0  0  0  0  0  0  0  0  0
   61.1630   30.3680   49.1580 C   0  0  0  0  0  0  0  0  0  0  0  0
   60.5370   29.0710   48.6430 C   0  0  0  0  0  0  0  0  0  0  0  0
   58.6570   27.1500   47.5570 N   0  0  0  0  0  0  0  0  0  0  0  0
   57.7030   26.2530   47.1850 C   0  0  0  0  0  0  0  0  0  0  0  0
   56.1338   28.1202   44.7959 H   0  0  0  0  0  0  0  0  0  0  0  0
   57.8919   29.7409   45.5122 H   0  0  0  0  0  0  0  0  0  0  0  0
   59.6876   30.4437   45.6370 H   0  0  0  0  0  0  0  0  0  0  0  0
   59.3776   31.3725   47.1488 H   0  0  0  0  0  0  0  0  0  0  0  0
   62.0422   30.2554   46.1528 H   0  0  0  0  0  0  0  0  0  0  0  0
   61.5367   32.0020   46.3646 H   0  0  0  0  0  0  0  0  0  0  0  0
   63.5338   32.3407   48.7424 H   0  0  0  0  0  0  0  0  0  0  0  0
   62.2198   33.0497   47.7219 H   0  0  0  0  0  0  0  0  0  0  0  0
   63.3000   32.1192   51.1093 H   0  0  0  0  0  0  0  0  0  0  0  0
   62.1635   32.9065   53.1836 H   0  0  0  0  0  0  0  0  0  0  0  0
   59.9484   34.0472   53.0452 H   0  0  0  0  0  0  0  0  0  0  0  0
   58.8532   34.3887   50.8328 H   0  0  0  0  0  0  0  0  0  0  0  0
   61.2193   35.0986   47.7124 H   0  0  0  0  0  0  0  0  0  0  0  0
   60.0474   35.4876   45.5411 H   0  0  0  0  0  0  0  0  0  0  0  0
   57.9412   34.2514   45.0159 H   0  0  0  0  0  0  0  0  0  0  0  0
   56.9984   32.6297   46.6636 H   0  0  0  0  0  0  0  0  0  0  0  0
   61.7695   30.1444   50.0480 H   0  0  0  0  0  0  0  0  0  0  0  0
   60.3531   31.0701   49.4053 H   0  0  0  0  0  0  0  0  0  0  0  0
   61.3348   28.3458   48.4248 H   0  0  0  0  0  0  0  0  0  0  0  0
   59.8616   28.6715   49.4139 H   0  0  0  0  0  0  0  0  0  0  0  0
   59.3470   26.8540   48.2820 H   0  0  0  0  0  0  0  0  0  0  0  0
   57.6617   25.2673   47.6715 H   0  0  0  0  0  0  0  0  0  0  0  0
  1  2  2  0
  2  3  1  0
  2  4  1  0
  4  5  2  0
  5  6  1  0
  6  7  2  0
  7  8  1  0
  8  9  1  0
  9 10  1  0
 10 11  1  0
 11 12  1  0
 12 13  1  0
 13 14  2  0
 14 15  1  0
 15 16  2  0
 16 17  1  0
 17 18  2  0
 18 19  1  0
 19 20  2  0
 20 21  1  0
 21 22  2  0
 22 23  1  0
 23 24  2  0
 24 25  1  0
 11 26  1  0
 26 27  1  0
  7 28  1  0
 28 29  2  0
 29  4  1  0
 27  8  1  0
 18 13  1  0
 24 19  1  0
  5 30  1  0
  6 31  1  0
  9 32  1  0
  9 33  1  0
 10 34  1  0
 10 35  1  0
 12 36  1  0
 12 37  1  0
 14 38  1  0
 15 39  1  0
 16 40  1  0
 17 41  1  0
 20 42  1  0
 21 43  1  0
 22 44  1  0
 23 45  1  0
 26 46  1  0
 26 47  1  0
 27 48  1  0
 27 49  1  0
 28 50  1  0
 29 51  1  0
M  CHG  2   3  -1  28   1
M  END
>  <UniqueID>  (79) 
70

>  <SMILES>  (79) 
O=C([O-])c1ccc(N2CCN(Cc3ccccc3-c3ccccc3F)CC2)[nH+]c1

>  <Energy>  (79) 
72.47781621729757

>  <Genealogy>  (79) 
O=C([O-])c1ccc(N2CCN(Cc3ccccc3-c3ccccc3F)CC2)[nH+]c1 (protonated)
O=C([O-])c1ccc(N2CCN(Cc3ccccc3-c3ccccc3F)CC2)[nH+]c1 (3D coordinates assigned)
O=C([O-])c1ccc(N2CCN(Cc3ccccc3-c3ccccc3F)CC2)[nH+]c1 (nonaromatic ring conformer: 72.47781621729757 kcal/mol)

>  <smiles>  (79) 
O=C(O)c1ccc(N2CCN(Cc3ccccc3-c3ccccc3F)CC2)nc1

>  <score_type>  (79) 
oracle

>  <origin>  (79) 
adg

>  <m_score__min__energy>  (79) 
-8.8900000000000006

>  <m_primary>  (79) 
energy

$$$$
79:0
     RDKit          3D

 50 53  0  0  0  0  0  0  0  0999 V2000
   59.4490   28.1020   53.5010 O   0  0  0  0  0  0  0  0  0  0  0  0
   58.3700   28.6380   53.1330 C   0  0  0  0  0  0  0  0  0  0  0  0
   57.2540   28.8090   54.1160 C   0  0  0  0  0  0  0  0  0  0  0  0
   56.1200   29.4770   53.4830 N   0  0  0  0  0  0  0  0  0  0  0  0
   54.7930   29.4210   54.0330 C   0  0  0  0  0  0  0  0  0  0  0  0
   54.5690   28.7010   55.0440 O   0  0  0  0  0  0  0  0  0  0  0  0
   53.6750   30.1770   53.4210 C   0  0  0  0  0  0  0  0  0  0  0  0
   52.7500   30.8680   54.2520 C   0  0  0  0  0  0  0  0  0  0  0  0
   51.6830   31.5950   53.6940 C   0  0  0  0  0  0  0  0  0  0  0  0
   51.5720   31.6210   52.3080 C   0  0  0  0  0  0  0  0  0  0  0  0
   50.6470   32.2540   51.5720 N   0  0  0  0  0  0  0  0  0  0  0  0
   51.0330   31.9450   50.3070 C   0  0  0  0  0  0  0  0  0  0  0  0
   50.4110   32.3550   49.2930 O   0  0  0  0  0  0  0  0  0  0  0  0
   52.1380   31.1630   50.2130 N   0  0  0  0  0  0  0  0  0  0  0  0
   52.4560   30.9720   51.5030 C   0  0  0  0  0  0  0  0  0  0  0  0
   53.5250   30.2420   52.0140 C   0  0  0  0  0  0  0  0  0  0  0  0
   58.2180   29.1440   51.8010 N   0  0  0  0  0  0  0  0  0  0  0  0
   58.4840   30.4860   51.3660 C   0  0  0  0  0  0  0  0  0  0  0  0
   58.6640   31.5420   52.2780 C   0  0  0  0  0  0  0  0  0  0  0  0
   58.9380   32.8320   51.8120 C   0  0  0  0  0  0  0  0  0  0  0  0
   59.0520   33.0740   50.4420 C   0  0  0  0  0  0  0  0  0  0  0  0
   58.9060   32.0240   49.5280 C   0  0  0  0  0  0  0  0  0  0  0  0
   59.0560   32.3440   47.8020 S   0  0  0  0  0  0  0  0  0  0  0  0
   58.5790   31.1510   47.0210 O   0  0  0  0  0  0  0  0  0  0  0  0
   60.5090   32.5710   47.4860 O   0  0  0  0  0  0  0  0  0  0  0  0
   58.1180   33.7650   47.3970 N   0  0  0  0  0  0  0  0  0  0  0  0
   57.1540   33.4990   46.3060 C   0  0  0  0  0  0  0  0  0  0  0  0
   57.6610   33.9740   44.9320 C   0  0  0  0  0  0  0  0  0  0  0  0
   59.0660   33.8630   44.8640 O   0  0  0  0  0  0  0  0  0  0  0  0
   59.6750   34.8070   45.7280 C   0  0  0  0  0  0  0  0  0  0  0  0
   58.9820   34.9220   47.1070 C   0  0  0  0  0  0  0  0  0  0  0  0
   58.6250   30.7320   49.9940 C   0  0  0  0  0  0  0  0  0  0  0  0
   56.9362   27.8208   54.4800 H   0  0  0  0  0  0  0  0  0  0  0  0
   57.6082   29.4238   54.9566 H   0  0  0  0  0  0  0  0  0  0  0  0
   56.2860   29.9550   52.5700 H   0  0  0  0  0  0  0  0  0  0  0  0
   52.8707   30.8333   55.3448 H   0  0  0  0  0  0  0  0  0  0  0  0
   50.9608   32.1251   54.3323 H   0  0  0  0  0  0  0  0  0  0  0  0
   54.2326   29.7305   51.3449 H   0  0  0  0  0  0  0  0  0  0  0  0
   58.5892   31.3529   53.3590 H   0  0  0  0  0  0  0  0  0  0  0  0
   59.0640   33.6582   52.5272 H   0  0  0  0  0  0  0  0  0  0  0  0
   59.2570   34.0922   50.0798 H   0  0  0  0  0  0  0  0  0  0  0  0
   56.9690   32.4158   46.2570 H   0  0  0  0  0  0  0  0  0  0  0  0
   56.2354   34.0604   46.5319 H   0  0  0  0  0  0  0  0  0  0  0  0
   57.2093   33.3535   44.1440 H   0  0  0  0  0  0  0  0  0  0  0  0
   57.3777   35.0274   44.7904 H   0  0  0  0  0  0  0  0  0  0  0  0
   60.7212   34.5073   45.8884 H   0  0  0  0  0  0  0  0  0  0  0  0
   59.5913   35.7902   45.2419 H   0  0  0  0  0  0  0  0  0  0  0  0
   59.7550   34.9904   47.8866 H   0  0  0  0  0  0  0  0  0  0  0  0
   58.3471   35.8201   47.0905 H   0  0  0  0  0  0  0  0  0  0  0  0
   58.5144   29.9052   49.2770 H   0  0  0  0  0  0  0  0  0  0  0  0
  1  2  2  0
  2  3  1  0
  3  4  1  0
  4  5  1  0
  5  6  2  0
  5  7  1  0
  7  8  2  0
  8  9  1  0
  9 10  2  0
 10 11  1  0
 11 12  1  0
 12 13  2  0
 12 14  1  0
 14 15  1  0
 15 16  2  0
  2 17  1  0
 17 18  1  0
 18 19  2  0
 19 20  1  0
 20 21  2  0
 21 22  1  0
 22 23  1  0
 23 24  2  0
 23 25  2  0
 23 26  1  0
 26 27  1  0
 27 28  1  0
 28 29  1  0
 29 30  1  0
 30 31  1  0
 22 32  2  0
 16  7  1  0
 32 18  1  0
 15 10  1  0
 31 26  1  0
  3 33  1  0
  3 34  1  0
  4 35  1  0
  8 36  1  0
  9 37  1  0
 16 38  1  0
 19 39  1  0
 20 40  1  0
 21 41  1  0
 27 42  1  0
 27 43  1  0
 28 44  1  0
 28 45  1  0
 30 46  1  0
 30 47  1  0
 31 48  1  0
 31 49  1  0
 32 50  1  0
M  CHG  3  11  -1  14  -1  17  -1
M  END
>  <UniqueID>  (80) 
71

>  <SMILES>  (80) 
O=C(CNC(=O)c1ccc2[n-]c(=O)[n-]c2c1)[N-]c1cccc(S(=O)(=O)N2CCOCC2)c1

>  <Energy>  (80) 
102.29581929814209

>  <Genealogy>  (80) 
O=C(CNC(=O)c1ccc2[n-]c(=O)[n-]c2c1)[N-]c1cccc(S(=O)(=O)N2CCOCC2)c1 (protonated)
O=C(CNC(=O)c1ccc2[n-]c(=O)[n-]c2c1)[N-]c1cccc(S(=O)(=O)N2CCOCC2)c1 (3D coordinates assigned)
O=C(CNC(=O)c1ccc2[n-]c(=O)[n-]c2c1)[N-]c1cccc(S(=O)(=O)N2CCOCC2)c1 (nonaromatic ring conformer: 102.29581929814209 kcal/mol)

>  <smiles>  (80) 
O=C(CNC(=O)c1ccc2[nH]c(=O)[nH]c2c1)Nc1cccc(S(=O)(=O)N2CCOCC2)c1

>  <score_type>  (80) 
oracle

>  <origin>  (80) 
adg

>  <m_score__min__energy>  (80) 
-13.92

>  <m_primary>  (80) 
energy

$$$$
80:0
     RDKit          3D

 46 49  0  0  0  0  0  0  0  0999 V2000
   58.1120   26.0470   43.9790 C   0  0  0  0  0  0  0  0  0  0  0  0
   56.9690   25.1330   44.3290 C   0  0  0  0  0  0  0  0  0  0  0  0
   56.8900   23.8650   43.7280 C   0  0  0  0  0  0  0  0  0  0  0  0
   55.8530   22.9890   44.0580 C   0  0  0  0  0  0  0  0  0  0  0  0
   54.8870   23.3710   44.9900 C   0  0  0  0  0  0  0  0  0  0  0  0
   54.9620   24.6220   45.6070 C   0  0  0  0  0  0  0  0  0  0  0  0
   56.0160   25.5030   45.3030 C   0  0  0  0  0  0  0  0  0  0  0  0
   56.1020   26.8020   45.9130 N   0  0  0  0  0  0  0  0  0  0  0  0
   57.1590   27.2920   46.7470 C   0  0  0  0  0  0  0  0  0  0  0  0
   57.5200   26.6510   47.7710 O   0  0  0  0  0  0  0  0  0  0  0  0
   57.8060   28.5690   46.4090 C   0  0  0  0  0  0  0  0  0  0  0  0
   59.0500   28.9800   46.8640 C   0  0  0  0  0  0  0  0  0  0  0  0
   59.7420   28.3870   47.7370 O   0  0  0  0  0  0  0  0  0  0  0  0
   59.4490   30.0910   46.2080 N   0  0  0  0  0  0  0  0  0  0  0  0
   60.6890   30.8410   46.4450 C   0  0  0  0  0  0  0  0  0  0  0  0
   60.3840   32.1460   47.1300 C   0  0  0  0  0  0  0  0  0  0  0  0
   60.1320   32.1730   48.5130 C   0  0  0  0  0  0  0  0  0  0  0  0
   59.8360   33.3800   49.1520 C   0  0  0  0  0  0  0  0  0  0  0  0
   59.7910   34.5710   48.4180 C   0  0  0  0  0  0  0  0  0  0  0  0
   60.0440   34.5530   47.0430 C   0  0  0  0  0  0  0  0  0  0  0  0
   60.3410   33.3480   46.3990 C   0  0  0  0  0  0  0  0  0  0  0  0
   58.4910   30.4110   45.3470 N   0  0  0  0  0  0  0  0  0  0  0  0
   58.4940   31.4410   44.4570 C   0  0  0  0  0  0  0  0  0  0  0  0
   57.3900   31.6040   43.6140 C   0  0  0  0  0  0  0  0  0  0  0  0
   56.2960   30.7320   43.7290 C   0  0  0  0  0  0  0  0  0  0  0  0
   56.3020   29.7020   44.6810 C   0  0  0  0  0  0  0  0  0  0  0  0
   55.1420   28.9500   44.8650 O   0  0  0  0  0  0  0  0  0  0  0  0
   57.4690   29.5290   45.4510 C   0  0  0  0  0  0  0  0  0  0  0  0
   58.5789   26.4204   44.9024 H   0  0  0  0  0  0  0  0  0  0  0  0
   58.8572   25.4929   43.3894 H   0  0  0  0  0  0  0  0  0  0  0  0
   57.7354   26.8958   43.3894 H   0  0  0  0  0  0  0  0  0  0  0  0
   57.6496   23.5604   42.9930 H   0  0  0  0  0  0  0  0  0  0  0  0
   55.7979   21.9982   43.5833 H   0  0  0  0  0  0  0  0  0  0  0  0
   54.0641   22.6850   45.2395 H   0  0  0  0  0  0  0  0  0  0  0  0
   54.1927   24.9200   46.3346 H   0  0  0  0  0  0  0  0  0  0  0  0
   61.3586   30.2442   47.0817 H   0  0  0  0  0  0  0  0  0  0  0  0
   61.1740   31.0471   45.4795 H   0  0  0  0  0  0  0  0  0  0  0  0
   60.1680   31.2400   49.0945 H   0  0  0  0  0  0  0  0  0  0  0  0
   59.6380   33.3942   50.2339 H   0  0  0  0  0  0  0  0  0  0  0  0
   59.5569   35.5201   48.9224 H   0  0  0  0  0  0  0  0  0  0  0  0
   60.0093   35.4892   46.4665 H   0  0  0  0  0  0  0  0  0  0  0  0
   60.5417   33.3394   45.3175 H   0  0  0  0  0  0  0  0  0  0  0  0
   59.3483   32.1318   44.4019 H   0  0  0  0  0  0  0  0  0  0  0  0
   57.3791   32.4102   42.8658 H   0  0  0  0  0  0  0  0  0  0  0  0
   55.4266   30.8575   43.0669 H   0  0  0  0  0  0  0  0  0  0  0  0
   55.1530   27.9450   44.9610 H   0  0  0  0  0  0  0  0  0  0  0  0
  1  2  1  0
  2  3  2  0
  3  4  1  0
  4  5  2  0
  5  6  1  0
  6  7  2  0
  7  8  1  0
  8  9  1  0
  9 10  2  0
  9 11  1  0
 11 12  1  0
 12 13  2  0
 12 14  1  0
 14 15  1  0
 15 16  1  0
 16 17  2  0
 17 18  1  0
 18 19  2  0
 19 20  1  0
 20 21  2  0
 14 22  1  0
 22 23  1  0
 23 24  2  0
 24 25  1  0
 25 26  2  0
 26 27  1  0
 26 28  1  0
  7  2  1  0
 28 11  2  0
 21 16  1  0
 28 22  1  0
  1 29  1  0
  1 30  1  0
  1 31  1  0
  3 32  1  0
  4 33  1  0
  5 34  1  0
  6 35  1  0
 15 36  1  0
 15 37  1  0
 17 38  1  0
 18 39  1  0
 19 40  1  0
 20 41  1  0
 21 42  1  0
 23 43  1  0
 24 44  1  0
 25 45  1  0
 27 46  1  0
M  CHG  1   8  -1
M  END
>  <UniqueID>  (81) 
72

>  <SMILES>  (81) 
Cc1ccccc1[N-]C(=O)c1c(=O)n(Cc2ccccc2)n2cccc(O)c12

>  <Energy>  (81) 
100.69693576967147

>  <Genealogy>  (81) 
Cc1ccccc1[N-]C(=O)c1c(=O)n(Cc2ccccc2)n2cccc(O)c12 (protonated)
Cc1ccccc1[N-]C(=O)c1c(=O)n(Cc2ccccc2)n2cccc(O)c12 (3D coordinates assigned)
Cc1ccccc1[N-]C(=O)c1c(=O)n(Cc2ccccc2)n2cccc(O)c12 (optimized conformer: 100.69693576967147 kcal/mol)

>  <smiles>  (81) 
Cc1ccccc1NC(=O)c1c(=O)n(Cc2ccccc2)n2cccc(O)c12

>  <score_type>  (81) 
oracle

>  <origin>  (81) 
adg

>  <m_score__min__energy>  (81) 
-10.449999999999999

>  <m_primary>  (81) 
energy

$$$$
81:0
     RDKit          3D

 37 39  0  0  0  0  0  0  0  0999 V2000
   55.1420   26.7240   46.0030 O   0  0  0  0  0  0  0  0  0  0  0  0
   56.1630   26.0930   46.3830 C   0  0  0  0  0  0  0  0  0  0  0  0
   56.0100   24.8760   47.0340 O   0  0  0  0  0  0  0  0  0  0  0  0
   57.5110   26.6150   46.1090 C   0  0  0  0  0  0  0  0  0  0  0  0
   58.5060   25.8580   46.2740 O   0  0  0  0  0  0  0  0  0  0  0  0
   57.7100   27.9570   45.6310 N   0  0  0  0  0  0  0  0  0  0  0  0
   57.7190   28.2010   44.1810 C   0  0  0  0  0  0  0  0  0  0  0  0
   57.0450   29.5390   43.8630 C   0  0  0  0  0  0  0  0  0  0  0  0
   57.5530   30.6030   44.7810 C   0  0  0  0  0  0  0  0  0  0  0  0
   57.3890   32.2570   44.5520 S   0  0  0  0  0  0  0  0  0  0  0  0
   58.0820   32.6880   46.0210 C   0  0  0  0  0  0  0  0  0  0  0  0
   58.3260   34.0500   46.3940 N   0  0  0  0  0  0  0  0  0  0  0  0
   59.5880   34.7260   46.3180 C   0  0  0  0  0  0  0  0  0  0  0  0
   59.6870   35.7340   45.5680 O   0  0  0  0  0  0  0  0  0  0  0  0
   60.7770   34.2650   47.0720 C   0  0  0  0  0  0  0  0  0  0  0  0
   61.9180   33.8210   46.3800 C   0  0  0  0  0  0  0  0  0  0  0  0
   63.0490   33.3940   47.0830 C   0  0  0  0  0  0  0  0  0  0  0  0
   63.0480   33.3930   48.4800 C   0  0  0  0  0  0  0  0  0  0  0  0
   61.9120   33.8140   49.1770 C   0  0  0  0  0  0  0  0  0  0  0  0
   60.7790   34.2410   48.4790 C   0  0  0  0  0  0  0  0  0  0  0  0
   58.4200   31.5360   46.7450 C   0  0  0  0  0  0  0  0  0  0  0  0
   58.9420   31.5470   48.1280 C   0  0  0  0  0  0  0  0  0  0  0  0
   60.0300   30.9790   48.4060 O   0  0  0  0  0  0  0  0  0  0  0  0
   58.2260   32.1690   49.1430 O   0  0  0  0  0  0  0  0  0  0  0  0
   58.1090   30.3560   46.0310 C   0  0  0  0  0  0  0  0  0  0  0  0
   58.3340   28.9490   46.5260 C   0  0  0  0  0  0  0  0  0  0  0  0
   58.7590   28.2245   43.8234 H   0  0  0  0  0  0  0  0  0  0  0  0
   57.1661   27.3935   43.6788 H   0  0  0  0  0  0  0  0  0  0  0  0
   57.2672   29.8198   42.8229 H   0  0  0  0  0  0  0  0  0  0  0  0
   55.9585   29.4353   43.9997 H   0  0  0  0  0  0  0  0  0  0  0  0
   61.9208   33.8095   45.2801 H   0  0  0  0  0  0  0  0  0  0  0  0
   63.9415   33.0581   46.5347 H   0  0  0  0  0  0  0  0  0  0  0  0
   63.9404   33.0612   49.0309 H   0  0  0  0  0  0  0  0  0  0  0  0
   61.9097   33.8092   50.2770 H   0  0  0  0  0  0  0  0  0  0  0  0
   59.8837   34.5602   49.0326 H   0  0  0  0  0  0  0  0  0  0  0  0
   59.4158   28.7558   46.5754 H   0  0  0  0  0  0  0  0  0  0  0  0
   57.8745   28.8547   47.5210 H   0  0  0  0  0  0  0  0  0  0  0  0
  1  2  2  0
  2  3  1  0
  2  4  1  0
  4  5  2  0
  4  6  1  0
  6  7  1  0
  7  8  1  0
  8  9  1  0
  9 10  1  0
 10 11  1  0
 11 12  1  0
 12 13  1  0
 13 14  2  0
 13 15  1  0
 15 16  2  0
 16 17  1  0
 17 18  2  0
 18 19  1  0
 19 20  2  0
 11 21  2  0
 21 22  1  0
 22 23  2  0
 22 24  1  0
 21 25  1  0
 25 26  1  0
 26  6  1  0
 25  9  2  0
 20 15  1  0
  7 27  1  0
  7 28  1  0
  8 29  1  0
  8 30  1  0
 16 31  1  0
 17 32  1  0
 18 33  1  0
 19 34  1  0
 20 35  1  0
 26 36  1  0
 26 37  1  0
M  CHG  3   3  -1  12  -1  24  -1
M  END
>  <UniqueID>  (82) 
73

>  <SMILES>  (82) 
O=C([O-])C(=O)N1CCc2sc([N-]C(=O)c3ccccc3)c(C(=O)[O-])c2C1

>  <Energy>  (82) 
81.02591579032742

>  <Genealogy>  (82) 
O=C([O-])C(=O)N1CCc2sc([N-]C(=O)c3ccccc3)c(C(=O)[O-])c2C1 (protonated)
O=C([O-])C(=O)N1CCc2sc([N-]C(=O)c3ccccc3)c(C(=O)[O-])c2C1 (3D coordinates assigned)
O=C([O-])C(=O)N1CCc2sc([N-]C(=O)c3ccccc3)c(C(=O)[O-])c2C1 (nonaromatic ring conformer: 81.02591579032742 kcal/mol)

>  <smiles>  (82) 
O=C(O)C(=O)N1CCc2sc(NC(=O)c3ccccc3)c(C(=O)O)c2C1

>  <score_type>  (82) 
oracle

>  <origin>  (82) 
adg

>  <m_score__min__energy>  (82) 
-13.470000000000001

>  <m_primary>  (82) 
energy

$$$$
82:0
     RDKit          3D

 60 63  0  0  0  0  0  0  0  0999 V2000
   56.6820   30.3190   43.9880 C   0  0  0  0  0  0  0  0  0  0  0  0
   57.1620   30.9390   45.1780 O   0  0  0  0  0  0  0  0  0  0  0  0
   58.0040   32.0640   45.2120 C   0  0  0  0  0  0  0  0  0  0  0  0
   57.7670   33.1970   44.4090 C   0  0  0  0  0  0  0  0  0  0  0  0
   58.6130   34.3070   44.4850 C   0  0  0  0  0  0  0  0  0  0  0  0
   59.6980   34.3000   45.3610 C   0  0  0  0  0  0  0  0  0  0  0  0
   59.9460   33.1830   46.1600 C   0  0  0  0  0  0  0  0  0  0  0  0
   59.1120   32.0560   46.0840 C   0  0  0  0  0  0  0  0  0  0  0  0
   59.3670   30.8710   46.9770 C   0  0  0  0  0  0  0  0  0  0  0  0
   58.7210   31.0670   48.2740 N   0  0  0  0  0  0  0  0  0  0  0  0
   59.3830   30.7510   49.5050 C   0  0  0  0  0  0  0  0  0  0  0  0
   60.4860   30.1390   49.4860 O   0  0  0  0  0  0  0  0  0  0  0  0
   58.7830   31.1410   50.8020 C   0  0  0  0  0  0  0  0  0  0  0  0
   57.7910   30.3290   51.3760 C   0  0  0  0  0  0  0  0  0  0  0  0
   57.1530   30.7100   52.5630 C   0  0  0  0  0  0  0  0  0  0  0  0
   55.8500   29.7280   53.2270 S   0  0  0  0  0  0  0  0  0  0  0  0
   56.3470   28.3480   53.5570 O   0  0  0  0  0  0  0  0  0  0  0  0
   55.3660   30.3700   54.4970 O   0  0  0  0  0  0  0  0  0  0  0  0
   54.5210   29.5960   52.1170 N   0  0  0  0  0  0  0  0  0  0  0  0
   53.3970   30.4790   52.1140 C   0  0  0  0  0  0  0  0  0  0  0  0
   53.0690   31.1510   50.9290 C   0  0  0  0  0  0  0  0  0  0  0  0
   51.9800   32.0290   50.8940 C   0  0  0  0  0  0  0  0  0  0  0  0
   51.2020   32.2230   52.0400 C   0  0  0  0  0  0  0  0  0  0  0  0
   50.1210   33.0970   52.0060 O   0  0  0  0  0  0  0  0  0  0  0  0
   51.5060   31.5310   53.2190 C   0  0  0  0  0  0  0  0  0  0  0  0
   52.5980   30.6590   53.2560 C   0  0  0  0  0  0  0  0  0  0  0  0
   57.5150   31.9060   53.1920 C   0  0  0  0  0  0  0  0  0  0  0  0
   58.5090   32.7170   52.6390 C   0  0  0  0  0  0  0  0  0  0  0  0
   59.1490   32.3430   51.4480 C   0  0  0  0  0  0  0  0  0  0  0  0
   60.2040   33.1630   50.9240 N   0  0  0  0  0  0  0  0  0  0  0  0
   61.3830   33.4320   51.7470 C   0  0  0  0  0  0  0  0  0  0  0  0
   62.5920   33.6840   50.8350 C   0  0  0  0  0  0  0  0  0  0  0  0
   62.2990   34.6770   49.8650 O   0  0  0  0  0  0  0  0  0  0  0  0
   61.2650   34.2220   49.0070 C   0  0  0  0  0  0  0  0  0  0  0  0
   59.9550   34.0360   49.7780 C   0  0  0  0  0  0  0  0  0  0  0  0
   56.0284   29.4747   44.2524 H   0  0  0  0  0  0  0  0  0  0  0  0
   56.1134   31.0517   43.3965 H   0  0  0  0  0  0  0  0  0  0  0  0
   57.5338   29.9520   43.3965 H   0  0  0  0  0  0  0  0  0  0  0  0
   56.9111   33.2082   43.7181 H   0  0  0  0  0  0  0  0  0  0  0  0
   58.4227   35.1871   43.8531 H   0  0  0  0  0  0  0  0  0  0  0  0
   60.3597   35.1766   45.4223 H   0  0  0  0  0  0  0  0  0  0  0  0
   60.7999   33.1855   46.8534 H   0  0  0  0  0  0  0  0  0  0  0  0
   58.9619   29.9649   46.5027 H   0  0  0  0  0  0  0  0  0  0  0  0
   60.4511   30.7632   47.1290 H   0  0  0  0  0  0  0  0  0  0  0  0
   57.7600   31.4820   48.3050 H   0  0  0  0  0  0  0  0  0  0  0  0
   57.5122   29.3835   50.8878 H   0  0  0  0  0  0  0  0  0  0  0  0
   53.6701   30.9876   50.0224 H   0  0  0  0  0  0  0  0  0  0  0  0
   51.7359   32.5663   49.9657 H   0  0  0  0  0  0  0  0  0  0  0  0
   50.8855   31.6736   54.1160 H   0  0  0  0  0  0  0  0  0  0  0  0
   52.8325   30.1124   54.1813 H   0  0  0  0  0  0  0  0  0  0  0  0
   57.0157   32.2086   54.1243 H   0  0  0  0  0  0  0  0  0  0  0  0
   58.7915   33.6544   53.1404 H   0  0  0  0  0  0  0  0  0  0  0  0
   61.2013   34.3202   52.3700 H   0  0  0  0  0  0  0  0  0  0  0  0
   61.5848   32.5667   52.3955 H   0  0  0  0  0  0  0  0  0  0  0  0
   63.4413   34.0196   51.4482 H   0  0  0  0  0  0  0  0  0  0  0  0
   62.8392   32.7473   50.3140 H   0  0  0  0  0  0  0  0  0  0  0  0
   61.1099   34.9610   48.2071 H   0  0  0  0  0  0  0  0  0  0  0  0
   61.5629   33.2519   48.5826 H   0  0  0  0  0  0  0  0  0  0  0  0
   59.5906   35.0127   50.1293 H   0  0  0  0  0  0  0  0  0  0  0  0
   59.1956   33.5853   49.1222 H   0  0  0  0  0  0  0  0  0  0  0  0
  1  2  1  0
  2  3  1  0
  3  4  2  0
  4  5  1  0
  5  6  2  0
  6  7  1  0
  7  8  2  0
  8  9  1  0
  9 10  1  0
 10 11  1  0
 11 12  2  0
 11 13  1  0
 13 14  2  0
 14 15  1  0
 15 16  1  0
 16 17  2  0
 16 18  2  0
 16 19  1  0
 19 20  1  0
 20 21  2  0
 21 22  1  0
 22 23  2  0
 23 24  1  0
 23 25  1  0
 25 26  2  0
 15 27  2  0
 27 28  1  0
 28 29  2  0
 29 30  1  0
 30 31  1  0
 31 32  1  0
 32 33  1  0
 33 34  1  0
 34 35  1  0
  8  3  1  0
 29 13  1  0
 35 30  1  0
 26 20  1  0
  1 36  1  0
  1 37  1  0
  1 38  1  0
  4 39  1  0
  5 40  1  0
  6 41  1  0
  7 42  1  0
  9 43  1  0
  9 44  1  0
 10 45  1  0
 14 46  1  0
 21 47  1  0
 22 48  1  0
 25 49  1  0
 26 50  1  0
 27 51  1  0
 28 52  1  0
 31 53  1  0
 31 54  1  0
 32 55  1  0
 32 56  1  0
 34 57  1  0
 34 58  1  0
 35 59  1  0
 35 60  1  0
M  CHG  2  19  -1  24  -1
M  END
>  <UniqueID>  (83) 
74

>  <SMILES>  (83) 
COc1ccccc1CNC(=O)c1cc(S(=O)(=O)[N-]c2ccc([O-])cc2)ccc1N1CCOCC1

>  <Energy>  (83) 
78.26346252632985

>  <Genealogy>  (83) 
COc1ccccc1CNC(=O)c1cc(S(=O)(=O)[N-]c2ccc([O-])cc2)ccc1N1CCOCC1 (protonated)
COc1ccccc1CNC(=O)c1cc(S(=O)(=O)[N-]c2ccc([O-])cc2)ccc1N1CCOCC1 (3D coordinates assigned)
COc1ccccc1CNC(=O)c1cc(S(=O)(=O)[N-]c2ccc([O-])cc2)ccc1N1CCOCC1 (nonaromatic ring conformer: 78.26346252632985 kcal/mol)

>  <smiles>  (83) 
COc1ccccc1CNC(=O)c1cc(S(=O)(=O)Nc2ccc(O)cc2)ccc1N1CCOCC1

>  <score_type>  (83) 
oracle

>  <origin>  (83) 
adg

>  <m_score__min__energy>  (83) 
-14.34

>  <m_primary>  (83) 
energy

$$$$
83:0
     RDKit          3D

 58 61  0  0  0  0  0  0  0  0999 V2000
   59.2700   33.9380   48.0000 C   0  0  0  0  0  0  0  0  0  0  0  0
   58.0550   33.3970   47.4900 O   0  0  0  0  0  0  0  0  0  0  0  0
   57.9790   32.4460   46.4600 C   0  0  0  0  0  0  0  0  0  0  0  0
   58.2180   31.0760   46.6870 C   0  0  0  0  0  0  0  0  0  0  0  0
   58.1560   30.1520   45.6310 C   0  0  0  0  0  0  0  0  0  0  0  0
   58.4300   28.6810   45.8840 C   0  0  0  0  0  0  0  0  0  0  0  0
   59.3150   28.4260   47.0440 N   0  0  0  0  0  0  0  0  0  0  0  0
   60.6520   29.0580   46.9500 C   0  0  0  0  0  0  0  0  0  0  0  0
   60.8170   30.1990   47.9620 C   0  0  0  0  0  0  0  0  0  0  0  0
   60.6590   29.7130   49.3550 N   0  0  0  0  0  0  0  0  0  0  0  0
   60.3630   30.8410   50.2630 C   0  0  0  0  0  0  0  0  0  0  0  0
   59.2320   30.4860   51.1910 C   0  0  0  0  0  0  0  0  0  0  0  0
   59.4810   29.7070   52.3310 C   0  0  0  0  0  0  0  0  0  0  0  0
   58.4380   29.3740   53.1980 C   0  0  0  0  0  0  0  0  0  0  0  0
   57.1370   29.8080   52.9310 C   0  0  0  0  0  0  0  0  0  0  0  0
   56.8660   30.5720   51.7810 C   0  0  0  0  0  0  0  0  0  0  0  0
   55.5400   31.0490   51.4940 N   0  0  0  0  0  0  0  0  0  0  0  0
   54.3390   30.3570   51.8770 C   0  0  0  0  0  0  0  0  0  0  0  0
   54.3960   29.1500   52.2400 O   0  0  0  0  0  0  0  0  0  0  0  0
   53.0300   31.0410   51.8110 C   0  0  0  0  0  0  0  0  0  0  0  0
   52.2300   31.1900   52.9550 C   0  0  0  0  0  0  0  0  0  0  0  0
   51.0050   31.8480   52.8330 C   0  0  0  0  0  0  0  0  0  0  0  0
   50.2630   31.9970   53.8390 O   0  0  0  0  0  0  0  0  0  0  0  0
   50.6110   32.3310   51.6270 N   0  0  0  0  0  0  0  0  0  0  0  0
   51.3950   32.1820   50.5280 C   0  0  0  0  0  0  0  0  0  0  0  0
   51.0140   32.6370   49.4180 O   0  0  0  0  0  0  0  0  0  0  0  0
   52.5900   31.5450   50.6250 N   0  0  0  0  0  0  0  0  0  0  0  0
   57.9230   30.9220   50.9270 C   0  0  0  0  0  0  0  0  0  0  0  0
   59.6720   28.6080   49.4920 C   0  0  0  0  0  0  0  0  0  0  0  0
   58.6460   28.5990   48.3520 C   0  0  0  0  0  0  0  0  0  0  0  0
   57.8070   30.6030   44.3480 C   0  0  0  0  0  0  0  0  0  0  0  0
   57.5650   31.9580   44.1180 C   0  0  0  0  0  0  0  0  0  0  0  0
   57.6560   32.8790   45.1660 C   0  0  0  0  0  0  0  0  0  0  0  0
   57.3510   34.5790   44.8430 Cl  0  0  0  0  0  0  0  0  0  0  0  0
   59.2435   33.9262   49.0996 H   0  0  0  0  0  0  0  0  0  0  0  0
   60.1177   33.3323   47.6471 H   0  0  0  0  0  0  0  0  0  0  0  0
   59.3870   34.9733   47.6471 H   0  0  0  0  0  0  0  0  0  0  0  0
   58.4558   30.7263   47.7025 H   0  0  0  0  0  0  0  0  0  0  0  0
   57.4696   28.1757   46.0635 H   0  0  0  0  0  0  0  0  0  0  0  0
   58.9503   28.2957   44.9947 H   0  0  0  0  0  0  0  0  0  0  0  0
   61.4204   28.2955   47.1451 H   0  0  0  0  0  0  0  0  0  0  0  0
   60.7598   29.4797   45.9398 H   0  0  0  0  0  0  0  0  0  0  0  0
   61.8194   30.6373   47.8472 H   0  0  0  0  0  0  0  0  0  0  0  0
   60.0381   30.9508   47.7668 H   0  0  0  0  0  0  0  0  0  0  0  0
   61.2595   31.0731   50.8567 H   0  0  0  0  0  0  0  0  0  0  0  0
   60.0703   31.7148   49.6623 H   0  0  0  0  0  0  0  0  0  0  0  0
   60.5021   29.3570   52.5428 H   0  0  0  0  0  0  0  0  0  0  0  0
   58.6413   28.7684   54.0935 H   0  0  0  0  0  0  0  0  0  0  0  0
   56.3212   29.5513   53.6228 H   0  0  0  0  0  0  0  0  0  0  0  0
   55.4500   31.8990   50.8940 H   0  0  0  0  0  0  0  0  0  0  0  0
   52.5616   30.7964   53.9272 H   0  0  0  0  0  0  0  0  0  0  0  0
   57.7245   31.5441   50.0418 H   0  0  0  0  0  0  0  0  0  0  0  0
   60.2116   27.6495   49.4898 H   0  0  0  0  0  0  0  0  0  0  0  0
   59.1260   28.7596   50.4348 H   0  0  0  0  0  0  0  0  0  0  0  0
   57.9404   27.7698   48.5085 H   0  0  0  0  0  0  0  0  0  0  0  0
   58.1125   29.5610   48.3505 H   0  0  0  0  0  0  0  0  0  0  0  0
   57.7239   29.8842   43.5195 H   0  0  0  0  0  0  0  0  0  0  0  0
   57.3014   32.3031   43.1074 H   0  0  0  0  0  0  0  0  0  0  0  0
  1  2  1  0
  2  3  1  0
  3  4  2  0
  4  5  1  0
  5  6  1  0
  6  7  1  0
  7  8  1  0
  8  9  1  0
  9 10  1  0
 10 11  1  0
 11 12  1  0
 12 13  2  0
 13 14  1  0
 14 15  2  0
 15 16  1  0
 16 17  1  0
 17 18  1  0
 18 19  2  0
 18 20  1  0
 20 21  2  0
 21 22  1  0
 22 23  2  0
 22 24  1  0
 24 25  1  0
 25 26  2  0
 25 27  1  0
 16 28  2  0
 10 29  1  0
 29 30  1  0
  5 31  2  0
 31 32  1  0
 32 33  2  0
 33 34  1  0
 33  3  1  0
 30  7  1  0
 28 12  1  0
 27 20  1  0
  1 35  1  0
  1 36  1  0
  1 37  1  0
  4 38  1  0
  6 39  1  0
  6 40  1  0
  8 41  1  0
  8 42  1  0
  9 43  1  0
  9 44  1  0
 11 45  1  0
 11 46  1  0
 13 47  1  0
 14 48  1  0
 15 49  1  0
 17 50  1  0
 21 51  1  0
 28 52  1  0
 29 53  1  0
 29 54  1  0
 30 55  1  0
 30 56  1  0
 31 57  1  0
 32 58  1  0
M  CHG  2  24  -1  27  -1
M  END
>  <UniqueID>  (84) 
75

>  <SMILES>  (84) 
COc1cc(CN2CCN(Cc3cccc(NC(=O)c4cc(=O)[n-]c(=O)[n-]4)c3)CC2)ccc1Cl

>  <Energy>  (84) 
80.88751726105644

>  <Genealogy>  (84) 
COc1cc(CN2CCN(Cc3cccc(NC(=O)c4cc(=O)[n-]c(=O)[n-]4)c3)CC2)ccc1Cl (protonated)
COc1cc(CN2CCN(Cc3cccc(NC(=O)c4cc(=O)[n-]c(=O)[n-]4)c3)CC2)ccc1Cl (3D coordinates assigned)
COc1cc(CN2CCN(Cc3cccc(NC(=O)c4cc(=O)[n-]c(=O)[n-]4)c3)CC2)ccc1Cl (nonaromatic ring conformer: 80.88751726105644 kcal/mol)

>  <smiles>  (84) 
COc1cc(CN2CCN(Cc3cccc(NC(=O)c4cc(=O)[nH]c(=O)[nH]4)c3)CC2)ccc1Cl

>  <score_type>  (84) 
oracle

>  <origin>  (84) 
adg

>  <m_score__min__energy>  (84) 
-13.84

>  <m_primary>  (84) 
energy

$$$$
84:0
     RDKit          3D

 40 43  0  0  0  0  0  0  0  0999 V2000
   59.9530   34.2160   50.1750 O   0  0  0  0  0  0  0  0  0  0  0  0
   60.6770   34.1880   49.1410 C   0  0  0  0  0  0  0  0  0  0  0  0
   60.0350   33.8990   47.8310 C   0  0  0  0  0  0  0  0  0  0  0  0
   59.9660   34.8790   46.8240 C   0  0  0  0  0  0  0  0  0  0  0  0
   59.3700   34.5920   45.5940 C   0  0  0  0  0  0  0  0  0  0  0  0
   58.8390   33.3240   45.3450 C   0  0  0  0  0  0  0  0  0  0  0  0
   58.2740   33.0690   44.1700 O   0  0  0  0  0  0  0  0  0  0  0  0
   57.7530   31.8870   43.8650 C   0  0  0  0  0  0  0  0  0  0  0  0
   57.1910   31.6960   42.6420 N   0  0  0  0  0  0  0  0  0  0  0  0
   56.6440   30.5030   42.2820 C   0  0  0  0  0  0  0  0  0  0  0  0
   56.6490   29.4310   43.1770 C   0  0  0  0  0  0  0  0  0  0  0  0
   57.2190   29.5930   44.4410 C   0  0  0  0  0  0  0  0  0  0  0  0
   57.7810   30.8290   44.8020 C   0  0  0  0  0  0  0  0  0  0  0  0
   58.3690   31.0550   46.0570 C   0  0  0  0  0  0  0  0  0  0  0  0
   58.4110   30.1330   46.9180 O   0  0  0  0  0  0  0  0  0  0  0  0
   58.9100   32.3230   46.3400 C   0  0  0  0  0  0  0  0  0  0  0  0
   59.5130   32.6190   47.5770 C   0  0  0  0  0  0  0  0  0  0  0  0
   62.1110   34.3810   49.2580 N   0  0  0  0  0  0  0  0  0  0  0  0
   62.8050   33.8830   48.0360 C   0  0  0  0  0  0  0  0  0  0  0  0
   63.4690   32.5140   48.2440 C   0  0  0  0  0  0  0  0  0  0  0  0
   64.5070   32.5690   49.3780 C   0  0  0  0  0  0  0  0  0  0  0  0
   64.1300   33.5740   50.4820 C   0  0  0  0  0  0  0  0  0  0  0  0
   62.6140   33.7950   50.5300 C   0  0  0  0  0  0  0  0  0  0  0  0
   60.3849   35.8795   47.0069 H   0  0  0  0  0  0  0  0  0  0  0  0
   59.3184   35.3688   44.8168 H   0  0  0  0  0  0  0  0  0  0  0  0
   56.1971   30.3829   41.2841 H   0  0  0  0  0  0  0  0  0  0  0  0
   56.2070   28.4660   42.8881 H   0  0  0  0  0  0  0  0  0  0  0  0
   57.2281   28.7545   45.1530 H   0  0  0  0  0  0  0  0  0  0  0  0
   59.5763   31.8412   48.3522 H   0  0  0  0  0  0  0  0  0  0  0  0
   62.3010   35.4080   49.3290 H   0  0  0  0  0  0  0  0  0  0  0  0
   62.0679   33.7962   47.2241 H   0  0  0  0  0  0  0  0  0  0  0  0
   63.6001   34.6025   47.7907 H   0  0  0  0  0  0  0  0  0  0  0  0
   62.6957   31.7748   48.5002 H   0  0  0  0  0  0  0  0  0  0  0  0
   63.9824   32.2295   47.3137 H   0  0  0  0  0  0  0  0  0  0  0  0
   64.5907   31.5683   49.8270 H   0  0  0  0  0  0  0  0  0  0  0  0
   65.4601   32.8998   48.9396 H   0  0  0  0  0  0  0  0  0  0  0  0
   64.4675   33.1842   51.4537 H   0  0  0  0  0  0  0  0  0  0  0  0
   64.6173   34.5353   50.2618 H   0  0  0  0  0  0  0  0  0  0  0  0
   62.1165   32.8288   50.7005 H   0  0  0  0  0  0  0  0  0  0  0  0
   62.3919   34.4974   51.3469 H   0  0  0  0  0  0  0  0  0  0  0  0
  1  2  2  0
  2  3  1  0
  3  4  2  0
  4  5  1  0
  5  6  2  0
  6  7  1  0
  7  8  1  0
  8  9  2  0
  9 10  1  0
 10 11  2  0
 11 12  1  0
 12 13  2  0
 13 14  1  0
 14 15  2  0
 14 16  1  0
 16 17  2  0
  2 18  1  0
 18 19  1  0
 19 20  1  0
 20 21  1  0
 21 22  1  0
 22 23  1  0
 17  3  1  0
 23 18  1  0
 16  6  1  0
 13  8  1  0
  4 24  1  0
  5 25  1  0
 10 26  1  0
 11 27  1  0
 12 28  1  0
 17 29  1  0
 18 30  1  0
 19 31  1  0
 19 32  1  0
 20 33  1  0
 20 34  1  0
 21 35  1  0
 21 36  1  0
 22 37  1  0
 22 38  1  0
 23 39  1  0
 23 40  1  0
M  CHG  1  18   1
M  END
>  <UniqueID>  (85) 
76

>  <SMILES>  (85) 
O=C(c1ccc2oc3ncccc3c(=O)c2c1)[NH+]1CCCCC1

>  <Energy>  (85) 
65.13069855645783

>  <Genealogy>  (85) 
O=C(c1ccc2oc3ncccc3c(=O)c2c1)[NH+]1CCCCC1 (protonated)
O=C(c1ccc2oc3ncccc3c(=O)c2c1)[NH+]1CCCCC1 (3D coordinates assigned)
O=C(c1ccc2oc3ncccc3c(=O)c2c1)[NH+]1CCCCC1 (nonaromatic ring conformer: 65.13069855645783 kcal/mol)

>  <smiles>  (85) 
O=C(c1ccc2oc3ncccc3c(=O)c2c1)N1CCCCC1

>  <score_type>  (85) 
oracle

>  <origin>  (85) 
adg

>  <m_score__min__energy>  (85) 
-6.7800000000000002

>  <m_primary>  (85) 
energy

$$$$
85:0
     RDKit          3D

 32 33  0  0  0  0  0  0  0  0999 V2000
   58.4750   27.8170   45.0180 C   0  0  0  0  0  0  0  0  0  0  0  0
   57.2720   27.1040   45.5460 C   0  0  0  0  0  0  0  0  0  0  0  0
   57.2150   25.7820   45.9390 C   0  0  0  0  0  0  0  0  0  0  0  0
   55.8760   25.5900   46.2200 C   0  0  0  0  0  0  0  0  0  0  0  0
   55.3680   24.5100   46.6200 O   0  0  0  0  0  0  0  0  0  0  0  0
   55.1630   26.7110   46.0010 N   0  0  0  0  0  0  0  0  0  0  0  0
   56.0300   27.6220   45.5880 N   0  0  0  0  0  0  0  0  0  0  0  0
   55.6980   28.9080   45.2160 O   0  0  0  0  0  0  0  0  0  0  0  0
   55.9310   29.4000   43.9020 C   0  0  0  0  0  0  0  0  0  0  0  0
   56.5530   30.7640   43.9680 C   0  0  0  0  0  0  0  0  0  0  0  0
   56.9180   31.3200   42.9000 O   0  0  0  0  0  0  0  0  0  0  0  0
   56.7200   31.4690   45.2080 N   0  0  0  0  0  0  0  0  0  0  0  0
   57.7030   32.4810   45.4760 C   0  0  0  0  0  0  0  0  0  0  0  0
   57.7790   33.6140   44.6480 C   0  0  0  0  0  0  0  0  0  0  0  0
   58.7240   34.6100   44.8910 C   0  0  0  0  0  0  0  0  0  0  0  0
   59.5900   34.4980   45.9750 C   0  0  0  0  0  0  0  0  0  0  0  0
   59.5110   33.3930   46.8260 C   0  0  0  0  0  0  0  0  0  0  0  0
   58.5670   32.3720   46.5970 C   0  0  0  0  0  0  0  0  0  0  0  0
   58.5280   31.2020   47.5190 C   0  0  0  0  0  0  0  0  0  0  0  0
   58.1530   29.9130   47.0330 N   0  0  0  0  0  0  0  0  0  0  0  0
   58.8210   31.3260   48.7390 O   0  0  0  0  0  0  0  0  0  0  0  0
   59.0852   28.1787   45.8587 H   0  0  0  0  0  0  0  0  0  0  0  0
   59.0705   27.1259   44.4034 H   0  0  0  0  0  0  0  0  0  0  0  0
   58.1546   28.6711   44.4034 H   0  0  0  0  0  0  0  0  0  0  0  0
   58.0380   25.0558   46.0111 H   0  0  0  0  0  0  0  0  0  0  0  0
   56.6093   28.7155   43.3716 H   0  0  0  0  0  0  0  0  0  0  0  0
   54.9729   29.4654   43.3655 H   0  0  0  0  0  0  0  0  0  0  0  0
   57.0861   33.7161   43.7998 H   0  0  0  0  0  0  0  0  0  0  0  0
   58.7852   35.4842   44.2261 H   0  0  0  0  0  0  0  0  0  0  0  0
   60.3387   35.2819   46.1621 H   0  0  0  0  0  0  0  0  0  0  0  0
   60.1939   33.3189   47.6852 H   0  0  0  0  0  0  0  0  0  0  0  0
   57.3040   29.7900   46.4380 H   0  0  0  0  0  0  0  0  0  0  0  0
  1  2  1  0
  2  3  2  0
  3  4  1  0
  4  5  2  0
  4  6  1  0
  6  7  1  0
  7  8  1  0
  8  9  1  0
  9 10  1  0
 10 11  2  0
 10 12  1  0
 12 13  1  0
 13 14  2  0
 14 15  1  0
 15 16  2  0
 16 17  1  0
 17 18  2  0
 18 19  1  0
 19 20  1  0
 19 21  2  0
  7  2  1  0
 18 13  1  0
  1 22  1  0
  1 23  1  0
  1 24  1  0
  3 25  1  0
  9 26  1  0
  9 27  1  0
 14 28  1  0
 15 29  1  0
 16 30  1  0
 17 31  1  0
 20 32  1  0
M  CHG  3   6  -1  12  -1  20  -1
M  END
>  <UniqueID>  (86) 
77

>  <SMILES>  (86) 
Cc1cc(=O)[n-]n1OCC(=O)[N-]c1ccccc1C([NH-])=O

>  <Energy>  (86) 
65.88940081002427

>  <Genealogy>  (86) 
Cc1cc(=O)[n-]n1OCC(=O)[N-]c1ccccc1C([NH-])=O (protonated)
Cc1cc(=O)[n-]n1OCC(=O)[N-]c1ccccc1C([NH-])=O (3D coordinates assigned)
Cc1cc(=O)[n-]n1OCC(=O)[N-]c1ccccc1C([NH-])=O (optimized conformer: 65.88940081002427 kcal/mol)

>  <smiles>  (86) 
Cc1cc(=O)[nH]n1OCC(=O)Nc1ccccc1C(N)=O

>  <score_type>  (86) 
oracle

>  <origin>  (86) 
adg

>  <m_score__min__energy>  (86) 
-13.59

>  <m_primary>  (86) 
energy

$$$$
86:0
     RDKit          3D

 30 31  0  0  0  0  0  0  0  0999 V2000
   58.6490   33.6710   52.1640 C   0  0  0  0  0  0  0  0  0  0  0  0
   59.3700   34.0870   51.0090 O   0  0  0  0  0  0  0  0  0  0  0  0
   59.4290   33.3640   49.8090 C   0  0  0  0  0  0  0  0  0  0  0  0
   59.7300   34.0540   48.6300 C   0  0  0  0  0  0  0  0  0  0  0  0
   59.8010   33.3790   47.4080 C   0  0  0  0  0  0  0  0  0  0  0  0
   59.5690   31.9950   47.3490 C   0  0  0  0  0  0  0  0  0  0  0  0
   59.6240   31.2660   46.0330 C   0  0  0  0  0  0  0  0  0  0  0  0
   58.2780   30.8430   45.6240 N   0  0  0  0  0  0  0  0  0  0  0  0
   57.7300   29.6180   45.7650 C   0  0  0  0  0  0  0  0  0  0  0  0
   58.4060   28.4200   46.3590 C   0  0  0  0  0  0  0  0  0  0  0  0
   56.4870   29.6410   45.1770 C   0  0  0  0  0  0  0  0  0  0  0  0
   55.6120   28.5630   45.0920 O   0  0  0  0  0  0  0  0  0  0  0  0
   56.2230   30.8620   44.6760 N   0  0  0  0  0  0  0  0  0  0  0  0
   57.3390   31.5670   44.9640 C   0  0  0  0  0  0  0  0  0  0  0  0
   57.5070   33.1420   44.5400 S   0  0  0  0  0  0  0  0  0  0  0  0
   59.2680   31.3000   48.5300 C   0  0  0  0  0  0  0  0  0  0  0  0
   59.1990   31.9760   49.7510 C   0  0  0  0  0  0  0  0  0  0  0  0
   59.1921   33.9843   53.0678 H   0  0  0  0  0  0  0  0  0  0  0  0
   57.6501   34.1316   52.1583 H   0  0  0  0  0  0  0  0  0  0  0  0
   58.5478   32.5757   52.1583 H   0  0  0  0  0  0  0  0  0  0  0  0
   59.9126   35.1382   48.6648 H   0  0  0  0  0  0  0  0  0  0  0  0
   60.0396   33.9340   46.4888 H   0  0  0  0  0  0  0  0  0  0  0  0
   60.0424   31.9342   45.2659 H   0  0  0  0  0  0  0  0  0  0  0  0
   60.2588   30.3747   46.1456 H   0  0  0  0  0  0  0  0  0  0  0  0
   58.3694   28.4849   47.4565 H   0  0  0  0  0  0  0  0  0  0  0  0
   57.8902   27.5064   46.0283 H   0  0  0  0  0  0  0  0  0  0  0  0
   59.4547   28.3892   46.0283 H   0  0  0  0  0  0  0  0  0  0  0  0
   55.1430   28.2140   45.9190 H   0  0  0  0  0  0  0  0  0  0  0  0
   59.0851   30.2159   48.4945 H   0  0  0  0  0  0  0  0  0  0  0  0
   58.9639   31.4212   50.6713 H   0  0  0  0  0  0  0  0  0  0  0  0
  1  2  1  0
  2  3  1  0
  3  4  2  0
  4  5  1  0
  5  6  2  0
  6  7  1  0
  7  8  1  0
  8  9  1  0
  9 10  1  0
  9 11  2  0
 11 12  1  0
 11 13  1  0
 13 14  1  0
 14 15  2  0
  6 16  1  0
 16 17  2  0
 17  3  1  0
 14  8  1  0
  1 18  1  0
  1 19  1  0
  1 20  1  0
  4 21  1  0
  5 22  1  0
  7 23  1  0
  7 24  1  0
 10 25  1  0
 10 26  1  0
 10 27  1  0
 12 28  1  0
 16 29  1  0
 17 30  1  0
M  CHG  1  13  -1
M  END
>  <UniqueID>  (87) 
78

>  <SMILES>  (87) 
COc1ccc(Cn2c(C)c(O)[n-]c2=S)cc1

>  <Energy>  (87) 
58.57492414005692

>  <Genealogy>  (87) 
COc1ccc(Cn2c(C)c(O)[n-]c2=S)cc1 (protonated)
COc1ccc(Cn2c(C)c(O)[n-]c2=S)cc1 (3D coordinates assigned)
COc1ccc(Cn2c(C)c(O)[n-]c2=S)cc1 (optimized conformer: 58.57492414005692 kcal/mol)

>  <smiles>  (87) 
COc1ccc(Cn2c(C)c(O)[nH]c2=S)cc1

>  <score_type>  (87) 
oracle

>  <origin>  (87) 
adg

>  <m_score__min__energy>  (87) 
-7.8300000000000001

>  <m_primary>  (87) 
energy

$$$$
87:0
     RDKit          3D

 57 60  0  0  0  0  0  0  0  0999 V2000
   54.8000   30.8600   52.0360 C   0  0  0  0  0  0  0  0  0  0  0  0
   55.9770   30.0710   51.8990 O   0  0  0  0  0  0  0  0  0  0  0  0
   57.2150   30.6180   51.5520 C   0  0  0  0  0  0  0  0  0  0  0  0
   57.4990   31.9430   51.8940 C   0  0  0  0  0  0  0  0  0  0  0  0
   58.7340   32.4950   51.5480 C   0  0  0  0  0  0  0  0  0  0  0  0
   59.6790   31.7180   50.8640 C   0  0  0  0  0  0  0  0  0  0  0  0
   60.9220   32.2490   50.4940 C   0  0  0  0  0  0  0  0  0  0  0  0
   61.8590   31.4480   49.8280 C   0  0  0  0  0  0  0  0  0  0  0  0
   63.1840   32.0260   49.3860 C   0  0  0  0  0  0  0  0  0  0  0  0
   63.1980   32.3290   47.9440 N   0  0  0  0  0  0  0  0  0  0  0  0
   61.8640   32.5390   47.4320 C   0  0  0  0  0  0  0  0  0  0  0  0
   61.2200   33.7780   47.6030 C   0  0  0  0  0  0  0  0  0  0  0  0
   59.9040   33.9570   47.1720 C   0  0  0  0  0  0  0  0  0  0  0  0
   59.2130   32.9050   46.5570 C   0  0  0  0  0  0  0  0  0  0  0  0
   57.5510   33.1340   46.0210 S   0  0  0  0  0  0  0  0  0  0  0  0
   57.4710   34.4850   44.8660 C   0  0  0  0  0  0  0  0  0  0  0  0
   57.0560   31.8800   45.3580 O   0  0  0  0  0  0  0  0  0  0  0  0
   56.6710   33.4340   47.2020 O   0  0  0  0  0  0  0  0  0  0  0  0
   59.8470   31.6680   46.3870 C   0  0  0  0  0  0  0  0  0  0  0  0
   61.1640   31.4860   46.8160 C   0  0  0  0  0  0  0  0  0  0  0  0
   61.5380   30.1180   49.5170 C   0  0  0  0  0  0  0  0  0  0  0  0
   60.2800   29.5820   49.8480 C   0  0  0  0  0  0  0  0  0  0  0  0
   59.9060   28.2740   49.4940 O   0  0  0  0  0  0  0  0  0  0  0  0
   60.3740   27.5660   48.3450 C   0  0  0  0  0  0  0  0  0  0  0  0
   59.6920   28.0580   47.0960 C   0  0  0  0  0  0  0  0  0  0  0  0
   60.3970   28.1470   45.8840 C   0  0  0  0  0  0  0  0  0  0  0  0
   59.7540   28.6040   44.7290 C   0  0  0  0  0  0  0  0  0  0  0  0
   58.4090   28.9840   44.7780 C   0  0  0  0  0  0  0  0  0  0  0  0
   57.7070   28.9130   45.9840 C   0  0  0  0  0  0  0  0  0  0  0  0
   58.3450   28.4570   47.1410 C   0  0  0  0  0  0  0  0  0  0  0  0
   59.3580   30.3810   50.5390 C   0  0  0  0  0  0  0  0  0  0  0  0
   58.1440   29.8760   50.8890 N   0  0  0  0  0  0  0  0  0  0  0  0
   54.5798   31.0076   53.1036 H   0  0  0  0  0  0  0  0  0  0  0  0
   54.9555   31.8370   51.5551 H   0  0  0  0  0  0  0  0  0  0  0  0
   53.9553   30.3450   51.5551 H   0  0  0  0  0  0  0  0  0  0  0  0
   56.7541   32.5473   52.4325 H   0  0  0  0  0  0  0  0  0  0  0  0
   58.9649   33.5377   51.8117 H   0  0  0  0  0  0  0  0  0  0  0  0
   61.1625   33.2968   50.7269 H   0  0  0  0  0  0  0  0  0  0  0  0
   63.3717   32.9539   49.9461 H   0  0  0  0  0  0  0  0  0  0  0  0
   63.9654   31.2777   49.5846 H   0  0  0  0  0  0  0  0  0  0  0  0
   63.6310   31.5230   47.4370 H   0  0  0  0  0  0  0  0  0  0  0  0
   63.8000   33.1680   47.7670 H   0  0  0  0  0  0  0  0  0  0  0  0
   61.7569   34.6115   48.0795 H   0  0  0  0  0  0  0  0  0  0  0  0
   59.4078   34.9281   47.3160 H   0  0  0  0  0  0  0  0  0  0  0  0
   57.4147   35.4355   45.4168 H   0  0  0  0  0  0  0  0  0  0  0  0
   58.3710   34.4805   44.2335 H   0  0  0  0  0  0  0  0  0  0  0  0
   56.5778   34.3743   44.2335 H   0  0  0  0  0  0  0  0  0  0  0  0
   59.3055   30.8358   45.9135 H   0  0  0  0  0  0  0  0  0  0  0  0
   61.6566   30.5132   46.6711 H   0  0  0  0  0  0  0  0  0  0  0  0
   62.2800   29.4857   49.0074 H   0  0  0  0  0  0  0  0  0  0  0  0
   61.4591   27.7171   48.2462 H   0  0  0  0  0  0  0  0  0  0  0  0
   60.1448   26.4978   48.4730 H   0  0  0  0  0  0  0  0  0  0  0  0
   61.4572   27.8566   45.8433 H   0  0  0  0  0  0  0  0  0  0  0  0
   60.3073   28.6646   43.7802 H   0  0  0  0  0  0  0  0  0  0  0  0
   57.9039   29.3387   43.8674 H   0  0  0  0  0  0  0  0  0  0  0  0
   56.6504   29.2165   46.0230 H   0  0  0  0  0  0  0  0  0  0  0  0
   57.7910   28.4102   48.0901 H   0  0  0  0  0  0  0  0  0  0  0  0
  1  2  1  0
  2  3  1  0
  3  4  2  0
  4  5  1  0
  5  6  2  0
  6  7  1  0
  7  8  2  0
  8  9  1  0
  9 10  1  0
 10 11  1  0
 11 12  2  0
 12 13  1  0
 13 14  2  0
 14 15  1  0
 15 16  1  0
 15 17  2  0
 15 18  2  0
 14 19  1  0
 19 20  2  0
  8 21  1  0
 21 22  2  0
 22 23  1  0
 23 24  1  0
 24 25  1  0
 25 26  2  0
 26 27  1  0
 27 28  2  0
 28 29  1  0
 29 30  2  0
 22 31  1  0
 31 32  2  0
 32  3  1  0
 31  6  1  0
 20 11  1  0
 30 25  1  0
  1 33  1  0
  1 34  1  0
  1 35  1  0
  4 36  1  0
  5 37  1  0
  7 38  1  0
  9 39  1  0
  9 40  1  0
 10 41  1  0
 10 42  1  0
 12 43  1  0
 13 44  1  0
 16 45  1  0
 16 46  1  0
 16 47  1  0
 19 48  1  0
 20 49  1  0
 21 50  1  0
 24 51  1  0
 24 52  1  0
 26 53  1  0
 27 54  1  0
 28 55  1  0
 29 56  1  0
 30 57  1  0
M  CHG  1  10   1
M  END
>  <UniqueID>  (88) 
79

>  <SMILES>  (88) 
COc1ccc2cc(C[NH2+]c3ccc(S(C)(=O)=O)cc3)cc(OCc3ccccc3)c2n1

>  <Energy>  (88) 
56.09529091827856

>  <Genealogy>  (88) 
COc1ccc2cc(C[NH2+]c3ccc(S(C)(=O)=O)cc3)cc(OCc3ccccc3)c2n1 (protonated)
COc1ccc2cc(C[NH2+]c3ccc(S(C)(=O)=O)cc3)cc(OCc3ccccc3)c2n1 (3D coordinates assigned)
COc1ccc2cc(C[NH2+]c3ccc(S(C)(=O)=O)cc3)cc(OCc3ccccc3)c2n1 (optimized conformer: 56.09529091827856 kcal/mol)

>  <smiles>  (88) 
COc1ccc2cc(CNc3ccc(S(C)(=O)=O)cc3)cc(OCc3ccccc3)c2n1

>  <score_type>  (88) 
oracle

>  <origin>  (88) 
adg

>  <m_score__min__energy>  (88) 
-8.4199999999999999

>  <m_primary>  (88) 
energy

$$$$
88:0
     RDKit          3D

 51 53  0  0  0  0  0  0  0  0999 V2000
   59.9600   26.8930   48.1310 C   0  0  0  0  0  0  0  0  0  0  0  0
   59.2400   27.8880   47.2520 C   0  0  0  0  0  0  0  0  0  0  0  0
   58.2920   27.3900   46.3530 C   0  0  0  0  0  0  0  0  0  0  0  0
   57.5770   28.2400   45.5850 N   0  0  0  0  0  0  0  0  0  0  0  0
   57.7380   29.5820   45.6470 C   0  0  0  0  0  0  0  0  0  0  0  0
   56.9550   30.3100   44.8950 N   0  0  0  0  0  0  0  0  0  0  0  0
   57.1270   31.6470   44.3170 C   0  0  0  0  0  0  0  0  0  0  0  0
   56.6310   32.7390   45.2750 C   0  0  0  0  0  0  0  0  0  0  0  0
   57.7320   33.6660   45.7190 C   0  0  0  0  0  0  0  0  0  0  0  0
   57.9700   33.8790   47.0880 C   0  0  0  0  0  0  0  0  0  0  0  0
   58.9550   34.7820   47.4990 C   0  0  0  0  0  0  0  0  0  0  0  0
   59.7080   35.4790   46.5490 C   0  0  0  0  0  0  0  0  0  0  0  0
   59.4800   35.2690   45.1860 C   0  0  0  0  0  0  0  0  0  0  0  0
   58.4990   34.3640   44.7710 C   0  0  0  0  0  0  0  0  0  0  0  0
   58.7310   30.1010   46.5200 C   0  0  0  0  0  0  0  0  0  0  0  0
   58.9210   31.3430   46.5970 O   0  0  0  0  0  0  0  0  0  0  0  0
   59.5020   29.2440   47.2810 N   0  0  0  0  0  0  0  0  0  0  0  0
   60.5490   29.7990   48.1740 C   0  0  0  0  0  0  0  0  0  0  0  0
   61.3950   30.8840   47.5150 C   0  0  0  0  0  0  0  0  0  0  0  0
   62.3050   30.5000   46.7910 O   0  0  0  0  0  0  0  0  0  0  0  0
   61.2870   32.3200   47.7840 N   0  0  0  0  0  0  0  0  0  0  0  0
   61.8580   32.6660   49.1070 C   0  0  0  0  0  0  0  0  0  0  0  0
   63.4010   32.5970   49.1180 C   0  0  0  0  0  0  0  0  0  0  0  0
   63.9720   32.6680   47.7670 N   0  0  0  0  0  0  0  0  0  0  0  0
   63.2700   33.6590   46.9500 C   0  0  0  0  0  0  0  0  0  0  0  0
   61.7970   33.2470   46.7400 C   0  0  0  0  0  0  0  0  0  0  0  0
   59.7810   27.1404   49.1878 H   0  0  0  0  0  0  0  0  0  0  0  0
   59.5841   25.8804   47.9227 H   0  0  0  0  0  0  0  0  0  0  0  0
   61.0393   26.9335   47.9227 H   0  0  0  0  0  0  0  0  0  0  0  0
   58.1285   26.3053   46.2713 H   0  0  0  0  0  0  0  0  0  0  0  0
   58.1943   31.8120   44.1079 H   0  0  0  0  0  0  0  0  0  0  0  0
   56.5349   31.7031   43.3916 H   0  0  0  0  0  0  0  0  0  0  0  0
   55.8573   33.3308   44.7639 H   0  0  0  0  0  0  0  0  0  0  0  0
   56.2349   32.2398   46.1716 H   0  0  0  0  0  0  0  0  0  0  0  0
   57.3792   33.3333   47.8384 H   0  0  0  0  0  0  0  0  0  0  0  0
   59.1380   34.9445   48.5714 H   0  0  0  0  0  0  0  0  0  0  0  0
   60.4796   36.1924   46.8742 H   0  0  0  0  0  0  0  0  0  0  0  0
   60.0734   35.8167   44.4390 H   0  0  0  0  0  0  0  0  0  0  0  0
   58.3267   34.1975   43.6974 H   0  0  0  0  0  0  0  0  0  0  0  0
   60.0593   30.2289   49.0602 H   0  0  0  0  0  0  0  0  0  0  0  0
   61.2263   28.9719   48.4332 H   0  0  0  0  0  0  0  0  0  0  0  0
   60.2570   32.5020   47.8560 H   0  0  0  0  0  0  0  0  0  0  0  0
   61.5481   33.6884   49.3692 H   0  0  0  0  0  0  0  0  0  0  0  0
   61.4840   31.9323   49.8362 H   0  0  0  0  0  0  0  0  0  0  0  0
   63.7885   33.4390   49.7104 H   0  0  0  0  0  0  0  0  0  0  0  0
   63.6914   31.6304   49.5555 H   0  0  0  0  0  0  0  0  0  0  0  0
   64.9740   32.9590   47.8480 H   0  0  0  0  0  0  0  0  0  0  0  0
   63.3035   34.6345   47.4573 H   0  0  0  0  0  0  0  0  0  0  0  0
   63.7632   33.7224   45.9688 H   0  0  0  0  0  0  0  0  0  0  0  0
   61.1767   34.1554   46.7476 H   0  0  0  0  0  0  0  0  0  0  0  0
   61.7435   32.7139   45.7793 H   0  0  0  0  0  0  0  0  0  0  0  0
  1  2  1  0
  2  3  2  0
  3  4  1  0
  4  5  1  0
  5  6  2  3
  6  7  1  0
  7  8  1  0
  8  9  1  0
  9 10  2  0
 10 11  1  0
 11 12  2  0
 12 13  1  0
 13 14  2  0
  5 15  1  0
 15 16  2  0
 15 17  1  0
 17 18  1  0
 18 19  1  0
 19 20  2  0
 19 21  1  0
 21 22  1  0
 22 23  1  0
 23 24  1  0
 24 25  1  0
 25 26  1  0
 17  2  1  0
 26 21  1  0
 14  9  1  0
  1 27  1  0
  1 28  1  0
  1 29  1  0
  3 30  1  0
  7 31  1  0
  7 32  1  0
  8 33  1  0
  8 34  1  0
 10 35  1  0
 11 36  1  0
 12 37  1  0
 13 38  1  0
 14 39  1  0
 18 40  1  0
 18 41  1  0
 21 42  1  0
 22 43  1  0
 22 44  1  0
 23 45  1  0
 23 46  1  0
 24 47  1  0
 25 48  1  0
 25 49  1  0
 26 50  1  0
 26 51  1  0
M  CHG  2   4  -1  21   1
M  END
>  <UniqueID>  (89) 
80

>  <SMILES>  (89) 
Cc1c[n-]c(=NCCc2ccccc2)c(=O)n1CC(=O)[NH+]1CCNCC1

>  <Energy>  (89) 
78.6058042393022

>  <Genealogy>  (89) 
Cc1c[n-]c(=NCCc2ccccc2)c(=O)n1CC(=O)[NH+]1CCNCC1 (protonated)
Cc1c[n-]c(=NCCc2ccccc2)c(=O)n1CC(=O)[NH+]1CCNCC1 (3D coordinates assigned)
Cc1c[n-]c(=NCCc2ccccc2)c(=O)n1CC(=O)[NH+]1CCNCC1 (nonaromatic ring conformer: 78.6058042393022 kcal/mol)

>  <smiles>  (89) 
Cc1c[nH]c(=NCCc2ccccc2)c(=O)n1CC(=O)N1CCNCC1

>  <score_type>  (89) 
oracle

>  <origin>  (89) 
adg

>  <m_score__min__energy>  (89) 
-7.8399999999999999

>  <m_primary>  (89) 
energy

$$$$
89:0
     RDKit          3D

 34 36  0  0  0  0  0  0  0  0999 V2000
   56.6580   22.2200   43.9080 C   0  0  0  0  0  0  0  0  0  0  0  0
   56.6960   23.5340   44.6180 C   0  0  0  0  0  0  0  0  0  0  0  0
   57.9250   24.1860   44.8330 C   0  0  0  0  0  0  0  0  0  0  0  0
   57.8830   25.4240   45.4650 C   0  0  0  0  0  0  0  0  0  0  0  0
   58.9410   26.2230   45.7090 N   0  0  0  0  0  0  0  0  0  0  0  0
   58.3730   27.3170   46.2760 C   0  0  0  0  0  0  0  0  0  0  0  0
   59.1320   28.5610   46.6160 C   0  0  0  0  0  0  0  0  0  0  0  0
   58.2240   29.6950   46.8030 N   0  0  0  0  0  0  0  0  0  0  0  0
   58.0280   30.6130   45.3340 S   0  0  0  0  0  0  0  0  0  0  0  0
   56.5960   30.5440   44.8800 O   0  0  0  0  0  0  0  0  0  0  0  0
   58.8980   30.0130   44.2650 O   0  0  0  0  0  0  0  0  0  0  0  0
   58.5350   32.2860   45.5940 C   0  0  0  0  0  0  0  0  0  0  0  0
   59.1180   32.6330   46.8210 C   0  0  0  0  0  0  0  0  0  0  0  0
   59.4770   33.9580   47.0830 C   0  0  0  0  0  0  0  0  0  0  0  0
   59.2660   34.9440   46.1170 C   0  0  0  0  0  0  0  0  0  0  0  0
   58.7020   34.6040   44.8840 C   0  0  0  0  0  0  0  0  0  0  0  0
   58.3380   33.2800   44.6170 C   0  0  0  0  0  0  0  0  0  0  0  0
   57.7850   32.9820   43.4150 F   0  0  0  0  0  0  0  0  0  0  0  0
   56.9990   27.1620   46.3650 C   0  0  0  0  0  0  0  0  0  0  0  0
   56.7140   25.9610   45.8410 N   0  0  0  0  0  0  0  0  0  0  0  0
   55.5260   25.3440   45.6260 C   0  0  0  0  0  0  0  0  0  0  0  0
   54.4410   25.8800   45.9760 O   0  0  0  0  0  0  0  0  0  0  0  0
   55.5260   24.1290   45.0110 N   0  0  0  0  0  0  0  0  0  0  0  0
   56.6344   21.4049   44.6463 H   0  0  0  0  0  0  0  0  0  0  0  0
   55.7580   22.1698   43.2775 H   0  0  0  0  0  0  0  0  0  0  0  0
   57.5536   22.1179   43.2775 H   0  0  0  0  0  0  0  0  0  0  0  0
   58.8770   23.7359   44.5150 H   0  0  0  0  0  0  0  0  0  0  0  0
   59.6967   28.3952   47.5453 H   0  0  0  0  0  0  0  0  0  0  0  0
   59.8156   28.7925   45.7859 H   0  0  0  0  0  0  0  0  0  0  0  0
   59.2938   31.8581   47.5816 H   0  0  0  0  0  0  0  0  0  0  0  0
   59.9262   34.2244   48.0511 H   0  0  0  0  0  0  0  0  0  0  0  0
   59.5434   35.9877   46.3262 H   0  0  0  0  0  0  0  0  0  0  0  0
   58.5438   35.3804   44.1210 H   0  0  0  0  0  0  0  0  0  0  0  0
   56.2819   27.8834   46.7838 H   0  0  0  0  0  0  0  0  0  0  0  0
  1  2  1  0
  2  3  2  0
  3  4  1  0
  4  5  2  0
  5  6  1  0
  6  7  1  0
  7  8  1  0
  8  9  1  0
  9 10  2  0
  9 11  2  0
  9 12  1  0
 12 13  2  0
 13 14  1  0
 14 15  2  0
 15 16  1  0
 16 17  2  0
 17 18  1  0
  6 19  2  0
 19 20  1  0
 20 21  1  0
 21 22  2  0
 21 23  1  0
 23  2  1  0
 20  4  1  0
 17 12  1  0
  1 24  1  0
  1 25  1  0
  1 26  1  0
  3 27  1  0
  7 28  1  0
  7 29  1  0
 13 30  1  0
 14 31  1  0
 15 32  1  0
 16 33  1  0
 19 34  1  0
M  CHG  2   8  -1  23  -1
M  END
>  <UniqueID>  (90) 
81

>  <SMILES>  (90) 
Cc1cc2nc(C[N-]S(=O)(=O)c3ccccc3F)cn2c(=O)[n-]1

>  <Energy>  (90) 
66.73252290385497

>  <Genealogy>  (90) 
Cc1cc2nc(C[N-]S(=O)(=O)c3ccccc3F)cn2c(=O)[n-]1 (protonated)
Cc1cc2nc(C[N-]S(=O)(=O)c3ccccc3F)cn2c(=O)[n-]1 (3D coordinates assigned)
Cc1cc2nc(C[N-]S(=O)(=O)c3ccccc3F)cn2c(=O)[n-]1 (optimized conformer: 66.73252290385497 kcal/mol)

>  <smiles>  (90) 
Cc1cc2nc(CNS(=O)(=O)c3ccccc3F)cn2c(=O)[nH]1

>  <score_type>  (90) 
oracle

>  <origin>  (90) 
adg

>  <m_score__min__energy>  (90) 
-11.02

>  <m_primary>  (90) 
energy

$$$$
90:0
     RDKit          3D

 62 66  0  0  0  0  0  0  0  0999 V2000
   54.7090   22.5900   48.9390 C   0  0  0  0  0  0  0  0  0  0  0  0
   56.0450   22.9710   48.2840 C   0  0  0  0  0  0  0  0  0  0  0  0
   56.0440   22.9770   46.8000 N   0  0  0  0  0  0  0  0  0  0  0  0
   57.3480   23.1880   46.1530 C   0  0  0  0  0  0  0  0  0  0  0  0
   57.7950   24.6520   46.1860 C   0  0  0  0  0  0  0  0  0  0  0  0
   56.7000   25.6060   45.9250 N   0  0  0  0  0  0  0  0  0  0  0  0
   57.0500   27.0050   45.7920 C   0  0  0  0  0  0  0  0  0  0  0  0
   58.2590   27.4480   46.2320 N   0  0  0  0  0  0  0  0  0  0  0  0
   58.6290   28.7530   46.1400 C   0  0  0  0  0  0  0  0  0  0  0  0
   59.9080   29.1620   46.6580 N   0  0  0  0  0  0  0  0  0  0  0  0
   60.2500   29.0290   48.0810 C   0  0  1  0  0  0  0  0  0  0  0  0
   61.1800   30.1850   48.5230 C   0  0  0  0  0  0  0  0  0  0  0  0
   60.3770   31.3650   49.0800 C   0  0  0  0  0  0  0  0  0  0  0  0
   59.4970   30.9290   50.2740 C   0  0  0  0  0  0  0  0  0  0  0  0
   59.2440   29.4760   50.2970 N   0  0  0  0  0  0  0  0  0  0  0  0
   58.9670   28.9690   48.9490 C   0  0  0  0  0  0  0  0  0  0  0  0
   57.7400   29.6850   45.5660 C   0  0  0  0  0  0  0  0  0  0  0  0
   58.1290   31.1030   45.3700 C   0  0  0  0  0  0  0  0  0  0  0  0
   58.0010   31.7030   44.1080 C   0  0  0  0  0  0  0  0  0  0  0  0
   58.3520   33.0410   43.9400 C   0  0  0  0  0  0  0  0  0  0  0  0
   58.8250   33.7800   45.0300 C   0  0  0  0  0  0  0  0  0  0  0  0
   59.1800   35.1300   44.8890 C   0  0  0  0  0  0  0  0  0  0  0  0
   59.6500   35.8480   45.9940 C   0  0  0  0  0  0  0  0  0  0  0  0
   59.7660   35.2250   47.2400 C   0  0  0  0  0  0  0  0  0  0  0  0
   59.4150   33.8800   47.3890 C   0  0  0  0  0  0  0  0  0  0  0  0
   58.9440   33.1480   46.2880 C   0  0  0  0  0  0  0  0  0  0  0  0
   58.6000   31.8340   46.4240 N   0  0  0  0  0  0  0  0  0  0  0  0
   56.4910   29.2120   45.1240 C   0  0  0  0  0  0  0  0  0  0  0  0
   55.6590   29.9920   44.5890 O   0  0  0  0  0  0  0  0  0  0  0  0
   56.1790   27.8980   45.2510 N   0  0  0  0  0  0  0  0  0  0  0  0
   55.3190   25.1640   45.9150 C   0  0  0  0  0  0  0  0  0  0  0  0
   54.3860   25.9700   45.6520 O   0  0  0  0  0  0  0  0  0  0  0  0
   54.9590   23.7240   46.1460 C   0  0  0  0  0  0  0  0  0  0  0  0
   54.8154   22.6203   50.0334 H   0  0  0  0  0  0  0  0  0  0  0  0
   53.9311   23.3021   48.6263 H   0  0  0  0  0  0  0  0  0  0  0  0
   54.4237   21.5747   48.6263 H   0  0  0  0  0  0  0  0  0  0  0  0
   56.3167   23.9799   48.6279 H   0  0  0  0  0  0  0  0  0  0  0  0
   56.7640   22.1947   48.5849 H   0  0  0  0  0  0  0  0  0  0  0  0
   58.1015   22.5784   46.6732 H   0  0  0  0  0  0  0  0  0  0  0  0
   57.2458   22.8959   45.0974 H   0  0  0  0  0  0  0  0  0  0  0  0
   58.2142   24.8661   47.1802 H   0  0  0  0  0  0  0  0  0  0  0  0
   58.5370   24.7827   45.3845 H   0  0  0  0  0  0  0  0  0  0  0  0
   60.5990   29.5940   46.0040 H   0  0  0  0  0  0  0  0  0  0  0  0
   60.7939   28.0840   48.2264 H   0  0  0  0  0  0  0  0  0  0  0  0
   61.8632   29.8169   49.3026 H   0  0  0  0  0  0  0  0  0  0  0  0
   61.7428   30.5326   47.6441 H   0  0  0  0  0  0  0  0  0  0  0  0
   61.0742   32.1471   49.4150 H   0  0  0  0  0  0  0  0  0  0  0  0
   59.7201   31.7457   48.2841 H   0  0  0  0  0  0  0  0  0  0  0  0
   60.0057   31.2120   51.2073 H   0  0  0  0  0  0  0  0  0  0  0  0
   58.5247   31.4329   50.1703 H   0  0  0  0  0  0  0  0  0  0  0  0
   58.3980   29.3050   50.8910 H   0  0  0  0  0  0  0  0  0  0  0  0
   58.6222   27.9266   49.0165 H   0  0  0  0  0  0  0  0  0  0  0  0
   58.1891   29.5922   48.4837 H   0  0  0  0  0  0  0  0  0  0  0  0
   57.6251   31.1194   43.2547 H   0  0  0  0  0  0  0  0  0  0  0  0
   58.2574   33.5155   42.9521 H   0  0  0  0  0  0  0  0  0  0  0  0
   59.0889   35.6237   43.9102 H   0  0  0  0  0  0  0  0  0  0  0  0
   59.9291   36.9061   45.8819 H   0  0  0  0  0  0  0  0  0  0  0  0
   60.1345   35.7947   48.1058 H   0  0  0  0  0  0  0  0  0  0  0  0
   59.5082   33.3942   48.3715 H   0  0  0  0  0  0  0  0  0  0  0  0
   58.7030   31.3710   47.3580 H   0  0  0  0  0  0  0  0  0  0  0  0
   54.0644   23.6808   46.7846 H   0  0  0  0  0  0  0  0  0  0  0  0
   54.7743   23.2611   45.1654 H   0  0  0  0  0  0  0  0  0  0  0  0
  1  2  1  0
  2  3  1  0
  3  4  1  0
  4  5  1  0
  5  6  1  0
  6  7  1  0
  7  8  2  0
  8  9  1  0
  9 10  1  0
 10 11  1  0
 11 12  1  0
 12 13  1  0
 13 14  1  0
 14 15  1  0
 15 16  1  0
  9 17  2  0
 17 18  1  0
 18 19  2  0
 19 20  1  0
 20 21  2  0
 21 22  1  0
 22 23  2  0
 23 24  1  0
 24 25  2  0
 25 26  1  0
 26 27  2  0
 17 28  1  0
 28 29  2  0
 28 30  1  0
  6 31  1  0
 31 32  2  0
 31 33  1  0
 33  3  1  0
 30  7  1  0
 16 11  1  0
 27 18  1  0
 26 21  1  0
  1 34  1  0
  1 35  1  0
  1 36  1  0
  2 37  1  0
  2 38  1  0
  4 39  1  0
  4 40  1  0
  5 41  1  0
  5 42  1  0
 10 43  1  0
 11 44  1  6
 12 45  1  0
 12 46  1  0
 13 47  1  0
 13 48  1  0
 14 49  1  0
 14 50  1  0
 15 51  1  0
 16 52  1  0
 16 53  1  0
 19 54  1  0
 20 55  1  0
 22 56  1  0
 23 57  1  0
 24 58  1  0
 25 59  1  0
 27 60  1  0
 33 61  1  0
 33 62  1  0
M  CHG  2  27   1  30  -1
M  END
>  <UniqueID>  (91) 
82

>  <SMILES>  (91) 
CCN1CCN(c2nc(N[C@H]3CCCNC3)c(-c3ccc4ccccc4[nH+]3)c(=O)[n-]2)C(=O)C1

>  <Energy>  (91) 
92.0535391010981

>  <Genealogy>  (91) 
CCN1CCN(c2nc(NC3CCCNC3)c(-c3ccc4ccccc4[nH+]3)c(=O)[n-]2)C(=O)C1 (protonated)
CCN1CCN(c2nc(N[C@H]3CCCNC3)c(-c3ccc4ccccc4[nH+]3)c(=O)[n-]2)C(=O)C1 (chirality)
CCN1CCN(c2nc(N[C@H]3CCCNC3)c(-c3ccc4ccccc4[nH+]3)c(=O)[n-]2)C(=O)C1 (3D coordinates assigned)
CCN1CCN(c2nc(N[C@H]3CCCNC3)c(-c3ccc4ccccc4[nH+]3)c(=O)[n-]2)C(=O)C1 (nonaromatic ring conformer: 92.0535391010981 kcal/mol)

>  <smiles>  (91) 
CCN1CCN(c2nc(NC3CCCNC3)c(-c3ccc4ccccc4n3)c(=O)[nH]2)C(=O)C1

>  <score_type>  (91) 
oracle

>  <origin>  (91) 
adg

>  <m_score__min__energy>  (91) 
-9.5899999999999999

>  <m_primary>  (91) 
energy

$$$$
91:0
     RDKit          3D

 41 43  0  0  0  0  0  0  0  0999 V2000
   60.1161   31.3433   47.7302 H   0  0  0  0  0  0  0  0  0  0  0  0
   59.1090   31.3920   48.1700 C   0  0  0  0  0  0  0  0  0  0  0  0
   58.2050   32.1080   47.5650 N   0  0  0  0  0  0  0  0  0  0  0  0
   58.1160   32.2910   46.1470 C   0  0  0  0  0  0  0  0  0  0  0  0
   58.4120   33.5410   45.5860 C   0  0  0  0  0  0  0  0  0  0  0  0
   58.7420   34.3680   46.2319 H   0  0  0  0  0  0  0  0  0  0  0  0
   58.2890   33.7390   44.2090 C   0  0  0  0  0  0  0  0  0  0  0  0
   58.5364   34.7166   43.7696 H   0  0  0  0  0  0  0  0  0  0  0  0
   57.8520   32.6960   43.3900 C   0  0  0  0  0  0  0  0  0  0  0  0
   57.7420   32.8581   42.3076 H   0  0  0  0  0  0  0  0  0  0  0  0
   57.5540   31.4470   43.9410 C   0  0  0  0  0  0  0  0  0  0  0  0
   57.2010   30.6319   43.2922 H   0  0  0  0  0  0  0  0  0  0  0  0
   57.7040   31.2280   45.3240 C   0  0  0  0  0  0  0  0  0  0  0  0
   57.4590   29.9480   45.9300 N   0  0  0  0  0  0  0  0  0  0  0  0
   56.6280   28.8850   45.4400 C   0  0  0  0  0  0  0  0  0  0  0  0
   55.5740   29.1470   44.8030 O   0  0  0  0  0  0  0  0  0  0  0  0
   57.0600   27.4750   45.6190 C   0  0  0  0  0  0  0  0  0  0  0  0
   58.4250   27.1450   45.4970 C   0  0  0  0  0  0  0  0  0  0  0  0
   59.1606   27.9371   45.2935 H   0  0  0  0  0  0  0  0  0  0  0  0
   58.8530   25.8220   45.6320 C   0  0  0  0  0  0  0  0  0  0  0  0
   59.9212   25.5781   45.5346 H   0  0  0  0  0  0  0  0  0  0  0  0
   57.9290   24.8100   45.8900 C   0  0  0  0  0  0  0  0  0  0  0  0
   58.2684   23.7689   45.9950 H   0  0  0  0  0  0  0  0  0  0  0  0
   56.5740   25.1180   46.0150 C   0  0  0  0  0  0  0  0  0  0  0  0
   55.8480   24.3173   46.2194 H   0  0  0  0  0  0  0  0  0  0  0  0
   56.1330   26.4390   45.8820 C   0  0  0  0  0  0  0  0  0  0  0  0
   54.7750   26.7060   46.0190 O   0  0  0  0  0  0  0  0  0  0  0  0
   58.8470   30.6270   49.4410 C   0  0  0  0  0  0  0  0  0  0  0  0
   57.9768   29.9710   49.2910 H   0  0  0  0  0  0  0  0  0  0  0  0
   59.7439   30.0371   49.6811 H   0  0  0  0  0  0  0  0  0  0  0  0
   58.5670   31.5580   50.5970 C   0  0  0  0  0  0  0  0  0  0  0  0
   59.1750   32.8250   50.6410 C   0  0  0  0  0  0  0  0  0  0  0  0
   59.8503   33.1362   49.8304 H   0  0  0  0  0  0  0  0  0  0  0  0
   58.9260   33.6910   51.7090 C   0  0  0  0  0  0  0  0  0  0  0  0
   59.4079   34.6794   51.7376 H   0  0  0  0  0  0  0  0  0  0  0  0
   58.0670   33.3050   52.7400 C   0  0  0  0  0  0  0  0  0  0  0  0
   57.8739   33.9886   53.5799 H   0  0  0  0  0  0  0  0  0  0  0  0
   57.4530   32.0510   52.7050 C   0  0  0  0  0  0  0  0  0  0  0  0
   56.7779   31.7481   53.5189 H   0  0  0  0  0  0  0  0  0  0  0  0
   57.6940   31.1790   51.6380 C   0  0  0  0  0  0  0  0  0  0  0  0
   57.0650   29.9380   51.6200 O   0  0  0  0  0  0  0  0  0  0  0  0
  1  2  1  0
  2  3  2  0
  3  4  1  0
  4  5  2  0
  5  6  1  0
  5  7  1  0
  7  8  1  0
  7  9  2  0
  9 10  1  0
  9 11  1  0
 11 12  1  0
 11 13  2  0
 13 14  1  0
 14 15  1  0
 15 16  2  0
 15 17  1  0
 17 18  2  0
 18 19  1  0
 18 20  1  0
 20 21  1  0
 20 22  2  0
 22 23  1  0
 22 24  1  0
 24 25  1  0
 24 26  2  0
 26 27  1  0
  2 28  1  0
 28 29  1  0
 28 30  1  0
 28 31  1  0
 31 32  2  0
 32 33  1  0
 32 34  1  0
 34 35  1  0
 34 36  2  0
 36 37  1  0
 36 38  1  0
 38 39  1  0
 38 40  2  0
 40 41  1  0
 13  4  1  0
 26 17  1  0
 40 31  1  0
M  CHG  3  14  -1  27  -1  41  -1
M  END
>  <UniqueID>  (92) 
83

>  <SMILES>  (92) 
O=C([N-]c1ccccc1/N=C\Cc1ccccc1[O-])c1ccccc1[O-]

>  <Energy>  (92) 
53.50600692108238

>  <Genealogy>  (92) 
O=C([N-]c1ccccc1N=CCc1ccccc1[O-])c1ccccc1[O-] (protonated)
O=C([N-]c1ccccc1/N=C\Cc1ccccc1[O-])c1ccccc1[O-] (cis-trans isomerization)
O=C([N-]c1ccccc1/N=C\Cc1ccccc1[O-])c1ccccc1[O-] (3D coordinates assigned)
O=C([N-]c1ccccc1/N=C\Cc1ccccc1[O-])c1ccccc1[O-] (optimized conformer: 53.50600692108238 kcal/mol)

>  <smiles>  (92) 
O=C(Nc1ccccc1N=CCc1ccccc1O)c1ccccc1O

>  <score_type>  (92) 
oracle

>  <origin>  (92) 
adg

>  <m_score__min__energy>  (92) 
-15.07

>  <m_primary>  (92) 
energy

$$$$
92:0
     RDKit          3D

 27 28  0  0  0  0  0  0  0  0999 V2000
   57.3720   25.1800   44.9230 C   0  0  0  0  0  0  0  0  0  0  0  0
   56.6340   26.1030   46.3040 S   0  0  0  0  0  0  0  0  0  0  0  0
   56.9540   27.6970   45.5590 C   0  0  0  0  0  0  0  0  0  0  0  0
   55.9190   28.5200   45.2470 N   0  0  0  0  0  0  0  0  0  0  0  0
   56.1340   29.7360   44.6810 C   0  0  0  0  0  0  0  0  0  0  0  0
   55.1480   30.4690   44.4010 O   0  0  0  0  0  0  0  0  0  0  0  0
   57.4470   30.1620   44.4150 C   0  0  0  0  0  0  0  0  0  0  0  0
   57.7390   31.4870   43.7540 C   0  0  0  0  0  0  0  0  0  0  0  0
   58.1180   32.5150   44.7860 C   0  0  0  0  0  0  0  0  0  0  0  0
   57.7640   32.3350   46.1330 C   0  0  0  0  0  0  0  0  0  0  0  0
   58.0900   33.3080   47.0830 C   0  0  0  0  0  0  0  0  0  0  0  0
   58.7670   34.4680   46.6950 C   0  0  0  0  0  0  0  0  0  0  0  0
   59.1140   34.6580   45.3560 C   0  0  0  0  0  0  0  0  0  0  0  0
   58.7890   33.6880   44.4020 C   0  0  0  0  0  0  0  0  0  0  0  0
   58.4950   29.2870   44.7340 C   0  0  0  0  0  0  0  0  0  0  0  0
   58.2290   28.0820   45.2980 N   0  0  0  0  0  0  0  0  0  0  0  0
   58.0130   24.3784   45.3187 H   0  0  0  0  0  0  0  0  0  0  0  0
   56.5734   24.7406   44.3073 H   0  0  0  0  0  0  0  0  0  0  0  0
   57.9763   25.8624   44.3073 H   0  0  0  0  0  0  0  0  0  0  0  0
   58.5698   31.3627   43.0439 H   0  0  0  0  0  0  0  0  0  0  0  0
   56.8374   31.8283   43.2242 H   0  0  0  0  0  0  0  0  0  0  0  0
   57.2283   31.4253   46.4419 H   0  0  0  0  0  0  0  0  0  0  0  0
   57.8133   33.1604   48.1373 H   0  0  0  0  0  0  0  0  0  0  0  0
   59.0261   35.2306   47.4442 H   0  0  0  0  0  0  0  0  0  0  0  0
   59.6440   35.5723   45.0507 H   0  0  0  0  0  0  0  0  0  0  0  0
   59.0598   33.8442   43.3474 H   0  0  0  0  0  0  0  0  0  0  0  0
   59.5353   29.5781   44.5265 H   0  0  0  0  0  0  0  0  0  0  0  0
  1  2  1  0
  2  3  1  0
  3  4  2  0
  4  5  1  0
  5  6  2  0
  5  7  1  0
  7  8  1  0
  8  9  1  0
  9 10  2  0
 10 11  1  0
 11 12  2  0
 12 13  1  0
 13 14  2  0
  7 15  2  0
 15 16  1  0
 16  3  1  0
 14  9  1  0
  1 17  1  0
  1 18  1  0
  1 19  1  0
  8 20  1  0
  8 21  1  0
 10 22  1  0
 11 23  1  0
 12 24  1  0
 13 25  1  0
 14 26  1  0
 15 27  1  0
M  CHG  1  16  -1
M  END
>  <UniqueID>  (93) 
84

>  <SMILES>  (93) 
CSc1nc(=O)c(Cc2ccccc2)c[n-]1

>  <Energy>  (93) 
24.071411734226885

>  <Genealogy>  (93) 
CSc1nc(=O)c(Cc2ccccc2)c[n-]1 (protonated)
CSc1nc(=O)c(Cc2ccccc2)c[n-]1 (3D coordinates assigned)
CSc1nc(=O)c(Cc2ccccc2)c[n-]1 (optimized conformer: 24.071411734226885 kcal/mol)

>  <smiles>  (93) 
CSc1nc(=O)c(Cc2ccccc2)c[nH]1

>  <score_type>  (93) 
oracle

>  <origin>  (93) 
adg

>  <m_score__min__energy>  (93) 
-8.2400000000000002

>  <m_primary>  (93) 
energy

$$$$
93:0
     RDKit          3D

 30 31  0  0  0  0  0  0  0  0999 V2000
   55.2810   29.3080   44.9120 N   0  0  0  0  0  0  0  0  0  0  0  0
   56.6810   29.6060   43.9400 S   0  0  0  0  0  0  0  0  0  0  0  0
   56.3460   30.6490   42.9110 O   0  0  0  0  0  0  0  0  0  0  0  0
   57.0570   28.3450   43.2190 O   0  0  0  0  0  0  0  0  0  0  0  0
   57.9760   30.2380   44.9810 C   0  0  0  0  0  0  0  0  0  0  0  0
   57.7450   31.5020   45.5500 C   0  0  0  0  0  0  0  0  0  0  0  0
   58.6830   32.0930   46.3950 C   0  0  0  0  0  0  0  0  0  0  0  0
   59.8690   31.4300   46.6920 C   0  0  0  0  0  0  0  0  0  0  0  0
   60.1200   30.1720   46.1480 C   0  0  0  0  0  0  0  0  0  0  0  0
   59.1880   29.5510   45.2910 C   0  0  0  0  0  0  0  0  0  0  0  0
   59.5340   28.1720   44.7700 C   0  0  0  0  0  0  0  0  0  0  0  0
   59.0020   27.0470   45.6650 C   0  0  0  0  0  0  0  0  0  0  0  0
   57.5710   27.5960   46.6670 S   0  0  0  0  0  0  0  0  0  0  0  0
   56.4930   26.2540   46.1660 C   0  0  0  0  0  0  0  0  0  0  0  0
   56.9380   25.0080   45.9110 N   0  0  0  0  0  0  0  0  0  0  0  0
   55.8250   24.3330   45.5820 C   0  0  0  0  0  0  0  0  0  0  0  0
   54.7460   25.1810   45.6400 C   0  0  0  0  0  0  0  0  0  0  0  0
   55.1620   26.4050   46.0090 N   0  0  0  0  0  0  0  0  0  0  0  0
   55.1420   28.2730   44.9380 H   0  0  0  0  0  0  0  0  0  0  0  0
   55.5090   29.6070   45.8860 H   0  0  0  0  0  0  0  0  0  0  0  0
   56.8087   32.0337   45.3249 H   0  0  0  0  0  0  0  0  0  0  0  0
   58.4849   33.0849   46.8274 H   0  0  0  0  0  0  0  0  0  0  0  0
   60.6093   31.8991   47.3568 H   0  0  0  0  0  0  0  0  0  0  0  0
   61.0601   29.6550   46.3909 H   0  0  0  0  0  0  0  0  0  0  0  0
   59.1001   28.0569   43.7658 H   0  0  0  0  0  0  0  0  0  0  0  0
   60.6308   28.0905   44.7530 H   0  0  0  0  0  0  0  0  0  0  0  0
   58.6903   26.2042   45.0305 H   0  0  0  0  0  0  0  0  0  0  0  0
   59.8065   26.7471   46.3526 H   0  0  0  0  0  0  0  0  0  0  0  0
   55.7837   23.2682   45.3089 H   0  0  0  0  0  0  0  0  0  0  0  0
   53.7050   24.9024   45.4192 H   0  0  0  0  0  0  0  0  0  0  0  0
  1  2  1  0
  2  3  2  0
  2  4  2  0
  2  5  1  0
  5  6  2  0
  6  7  1  0
  7  8  2  0
  8  9  1  0
  9 10  2  0
 10 11  1  0
 11 12  1  0
 12 13  1  0
 13 14  1  0
 14 15  2  0
 15 16  1  0
 16 17  2  0
 17 18  1  0
 10  5  1  0
 18 14  1  0
  1 19  1  0
  1 20  1  0
  6 21  1  0
  7 22  1  0
  8 23  1  0
  9 24  1  0
 11 25  1  0
 11 26  1  0
 12 27  1  0
 12 28  1  0
 16 29  1  0
 17 30  1  0
M  CHG  1  18  -1
M  END
>  <UniqueID>  (94) 
85

>  <SMILES>  (94) 
NS(=O)(=O)c1ccccc1CCSc1ncc[n-]1

>  <Energy>  (94) 
54.56842440259854

>  <Genealogy>  (94) 
NS(=O)(=O)c1ccccc1CCSc1ncc[n-]1 (protonated)
NS(=O)(=O)c1ccccc1CCSc1ncc[n-]1 (3D coordinates assigned)
NS(=O)(=O)c1ccccc1CCSc1ncc[n-]1 (optimized conformer: 54.56842440259854 kcal/mol)

>  <smiles>  (94) 
NS(=O)(=O)c1ccccc1CCSc1ncc[nH]1

>  <score_type>  (94) 
oracle

>  <origin>  (94) 
adg

>  <m_score__min__energy>  (94) 
-9.4800000000000004

>  <m_primary>  (94) 
energy

$$$$
