0:0
     RDKit          3D

 57 59  0  0  0  0  0  0  0  0999 V2000
   57.5595   30.8546   47.0024 H   0  0  0  0  0  0  0  0  0  0  0  0
   58.1550   31.7540   46.7870 C   0  0  0  0  0  0  0  0  0  0  0  0
   58.7481   32.2250   47.5847 H   0  0  0  0  0  0  0  0  0  0  0  0
   58.1580   32.2770   45.5500 C   0  0  0  0  0  0  0  0  0  0  0  0
   58.8600   33.4140   45.1130 C   0  0  0  0  0  0  0  0  0  0  0  0
   59.5480   34.3470   45.8000 C   0  0  0  0  0  0  0  0  0  0  0  0
   59.2983   35.4011   45.6090 H   0  0  0  0  0  0  0  0  0  0  0  0
   60.6030   34.0720   46.7820 C   0  0  0  0  0  0  0  0  0  0  0  0
   62.2270   33.8320   46.4060 S   0  0  0  0  0  0  0  0  0  0  0  0
   62.6780   33.6980   48.0210 C   0  0  0  0  0  0  0  0  0  0  0  0
   63.8550   33.4780   48.4100 O   0  0  0  0  0  0  0  0  0  0  0  0
   61.6260   33.8650   48.8590 N   0  0  0  0  0  0  0  0  0  0  0  0
   61.6990   33.7580   50.3210 C   0  0  0  0  0  0  0  0  0  0  0  0
   62.7549   33.6920   50.6222 H   0  0  0  0  0  0  0  0  0  0  0  0
   61.2224   34.6487   50.7563 H   0  0  0  0  0  0  0  0  0  0  0  0
   60.9680   32.5360   50.8240 C   0  0  0  0  0  0  0  0  0  0  0  0
   61.5770   31.6700   51.4420 O   0  0  0  0  0  0  0  0  0  0  0  0
   59.5550   32.3700   50.5430 N   0  0  0  0  0  0  0  0  0  0  0  0
   59.2530   33.1500   49.9110 H   0  0  0  0  0  0  0  0  0  0  0  0
   58.7720   32.4960   51.7940 C   0  0  0  0  0  0  0  0  0  0  0  0
   59.3046   31.9811   52.6072 H   0  0  0  0  0  0  0  0  0  0  0  0
   58.6538   33.5634   52.0322 H   0  0  0  0  0  0  0  0  0  0  0  0
   57.3770   31.8680   51.6260 C   0  0  0  0  0  0  0  0  0  0  0  0
   56.8426   31.9594   52.5831 H   0  0  0  0  0  0  0  0  0  0  0  0
   56.8885   32.4117   50.8039 H   0  0  0  0  0  0  0  0  0  0  0  0
   57.3840   30.4930   51.2510 O   0  0  0  0  0  0  0  0  0  0  0  0
   58.6280   30.0470   50.7320 C   0  0  0  0  0  0  0  0  0  0  0  0
   59.3009   29.8240   51.5731 H   0  0  0  0  0  0  0  0  0  0  0  0
   58.4324   29.1538   50.1205 H   0  0  0  0  0  0  0  0  0  0  0  0
   59.3010   31.0920   49.8270 C   0  0  0  0  0  0  0  0  0  0  0  0
   60.2602   30.6880   49.4709 H   0  0  0  0  0  0  0  0  0  0  0  0
   58.6211   31.3025   48.9883 H   0  0  0  0  0  0  0  0  0  0  0  0
   60.4700   34.0890   48.1710 C   0  0  0  0  0  0  0  0  0  0  0  0
   59.2560   34.3220   48.8110 O   0  0  0  0  0  0  0  0  0  0  0  0
   58.7010   33.4640   43.7390 C   0  0  0  0  0  0  0  0  0  0  0  0
   59.1536   34.1951   43.0529 H   0  0  0  0  0  0  0  0  0  0  0  0
   57.8660   32.4210   43.3950 C   0  0  0  0  0  0  0  0  0  0  0  0
   57.4070   32.1300   41.9980 C   0  0  0  0  0  0  0  0  0  0  0  0
   56.4784   31.5413   42.0323 H   0  0  0  0  0  0  0  0  0  0  0  0
   57.2220   33.0761   41.4683 H   0  0  0  0  0  0  0  0  0  0  0  0
   58.1838   31.5590   41.4683 H   0  0  0  0  0  0  0  0  0  0  0  0
   57.5420   31.6910   44.4870 N   0  0  0  0  0  0  0  0  0  0  0  0
   56.6530   30.5190   44.5060 C   0  0  0  0  0  0  0  0  0  0  0  0
   56.5892   30.1270   45.5318 H   0  0  0  0  0  0  0  0  0  0  0  0
   55.6535   30.8188   44.1578 H   0  0  0  0  0  0  0  0  0  0  0  0
   57.2020   29.4280   43.5790 C   0  0  0  0  0  0  0  0  0  0  0  0
   56.3641   28.9472   43.0529 H   0  0  0  0  0  0  0  0  0  0  0  0
   57.8917   29.8929   42.8591 H   0  0  0  0  0  0  0  0  0  0  0  0
   57.9420   28.4040   44.3490 N   0  0  0  0  0  0  0  0  0  0  0  0
   58.1800   27.2000   43.5310 C   0  0  0  0  0  0  0  0  0  0  0  0
   58.3507   26.3364   44.1906 H   0  0  0  0  0  0  0  0  0  0  0  0
   57.3023   27.0086   42.8962 H   0  0  0  0  0  0  0  0  0  0  0  0
   59.0645   27.3570   42.8962 H   0  0  0  0  0  0  0  0  0  0  0  0
   59.2330   28.9470   44.7990 C   0  0  0  0  0  0  0  0  0  0  0  0
   59.2623   28.9593   45.8985 H   0  0  0  0  0  0  0  0  0  0  0  0
   60.0492   28.3160   44.4175 H   0  0  0  0  0  0  0  0  0  0  0  0
   59.3528   29.9717   44.4175 H   0  0  0  0  0  0  0  0  0  0  0  0
  1  2  1  0
  2  3  1  0
  2  4  2  0
  4  5  1  0
  5  6  2  0
  6  7  1  0
  6  8  1  0
  8  9  1  0
  9 10  1  0
 10 11  2  0
 10 12  1  0
 12 13  1  0
 13 14  1  0
 13 15  1  0
 13 16  1  0
 16 17  2  0
 16 18  1  0
 18 19  1  0
 18 20  1  0
 20 21  1  0
 20 22  1  0
 20 23  1  0
 23 24  1  0
 23 25  1  0
 23 26  1  0
 26 27  1  0
 27 28  1  0
 27 29  1  0
 27 30  1  0
 30 31  1  0
 30 32  1  0
 12 33  1  0
 33 34  1  0
  5 35  1  0
 35 36  1  0
 35 37  2  0
 37 38  1  0
 38 39  1  0
 38 40  1  0
 38 41  1  0
 37 42  1  0
 42 43  1  0
 43 44  1  0
 43 45  1  0
 43 46  1  0
 46 47  1  0
 46 48  1  0
 46 49  1  0
 49 50  1  0
 50 51  1  0
 50 52  1  0
 50 53  1  0
 49 54  1  0
 54 55  1  0
 54 56  1  0
 54 57  1  0
 42  4  1  0
 33  8  2  0
 30 18  1  0
M  CHG  2  18   1  34  -1
M  END
>  <UniqueID>  (1) 
1

>  <SMILES>  (1) 
C=c1/c(=C\c2sc(=O)n(CC(=O)[NH+]3CCOCC3)c2[O-])cc(C)n1CCN(C)C

>  <Energy>  (1) 
140.8453487467061

>  <Genealogy>  (1) 
C=c1c(=Cc2sc(=O)n(CC(=O)[NH+]3CCOCC3)c2[O-])cc(C)n1CCN(C)C (protonated)
C=c1/c(=C\c2sc(=O)n(CC(=O)[NH+]3CCOCC3)c2[O-])cc(C)n1CCN(C)C (cis-trans isomerization)
C=c1/c(=C\c2sc(=O)n(CC(=O)[NH+]3CCOCC3)c2[O-])cc(C)n1CCN(C)C (3D coordinates assigned)
C=c1/c(=C\c2sc(=O)n(CC(=O)[NH+]3CCOCC3)c2[O-])cc(C)n1CCN(C)C (nonaromatic ring conformer: 140.8453487467061 kcal/mol)

>  <smiles>  (1) 
C=c1c(=Cc2sc(=O)n(CC(=O)N3CCOCC3)c2O)cc(C)n1CCN(C)C

>  <score_type>  (1) 
oracle

>  <origin>  (1) 
adg

>  <m_score__min__energy>  (1) 
-10.890000000000001

>  <m_primary>  (1) 
energy

$$$$
1:0
     RDKit          3D

 57 61  0  0  0  0  0  0  0  0999 V2000
   61.4335   23.9849   51.2604 H   0  0  0  0  0  0  0  0  0  0  0  0
   60.9260   24.6240   51.9980 C   0  0  0  0  0  0  0  0  0  0  0  0
   60.2490   24.0460   53.0740 C   0  0  0  0  0  0  0  0  0  0  0  0
   60.2340   22.9523   53.1906 H   0  0  0  0  0  0  0  0  0  0  0  0
   59.5910   24.8560   54.0020 C   0  0  0  0  0  0  0  0  0  0  0  0
   59.0526   24.3961   54.8438 H   0  0  0  0  0  0  0  0  0  0  0  0
   59.6120   26.2510   53.8680 C   0  0  0  0  0  0  0  0  0  0  0  0
   58.6780   27.2440   55.0410 S   0  0  0  0  0  0  0  0  0  0  0  0
   60.1630   27.9900   55.7810 C   0  0  0  0  0  0  0  0  0  0  0  0
   60.0853   27.9510   56.8776 H   0  0  0  0  0  0  0  0  0  0  0  0
   61.0540   27.4325   55.4564 H   0  0  0  0  0  0  0  0  0  0  0  0
   60.2476   29.0376   55.4564 H   0  0  0  0  0  0  0  0  0  0  0  0
   60.3290   26.8380   52.7990 C   0  0  0  0  0  0  0  0  0  0  0  0
   56.1250   29.9800   52.9920 N   0  0  0  0  0  0  0  0  0  0  0  0
   57.2370   29.8490   52.3320 C   0  0  0  0  0  0  0  0  0  0  0  0
   59.5430   29.5980   50.9260 N   0  0  0  0  0  0  0  0  0  0  0  0
   58.5280   30.3460   50.4200 C   0  0  0  0  0  0  0  0  0  0  0  0
   58.6730   31.0160   49.1500 N   0  0  0  0  0  0  0  0  0  0  0  0
   58.6930   32.4910   49.1310 C   0  0  0  0  0  0  0  0  0  0  0  0
   59.5124   32.8354   49.7791 H   0  0  0  0  0  0  0  0  0  0  0  0
   57.7076   32.8300   49.4834 H   0  0  0  0  0  0  0  0  0  0  0  0
   58.8950   33.0790   47.7540 C   0  0  0  0  0  0  0  0  0  0  0  0
   59.2170   34.4400   47.6280 C   0  0  0  0  0  0  0  0  0  0  0  0
   59.3558   35.0545   48.5297 H   0  0  0  0  0  0  0  0  0  0  0  0
   59.3620   35.0180   46.3660 C   0  0  0  0  0  0  0  0  0  0  0  0
   59.6242   36.0826   46.2769 H   0  0  0  0  0  0  0  0  0  0  0  0
   59.1750   34.2480   45.2160 C   0  0  0  0  0  0  0  0  0  0  0  0
   59.2876   34.7069   44.2226 H   0  0  0  0  0  0  0  0  0  0  0  0
   58.8450   32.8950   45.3270 C   0  0  0  0  0  0  0  0  0  0  0  0
   58.6874   32.2925   44.4203 H   0  0  0  0  0  0  0  0  0  0  0  0
   58.7140   32.3020   46.5940 C   0  0  0  0  0  0  0  0  0  0  0  0
   58.3270   30.8590   46.7150 C   0  0  0  0  0  0  0  0  0  0  0  0
   58.6511   30.3186   45.8134 H   0  0  0  0  0  0  0  0  0  0  0  0
   57.2346   30.7870   46.8222 H   0  0  0  0  0  0  0  0  0  0  0  0
   58.9910   30.2390   47.9410 C   0  0  0  0  0  0  0  0  0  0  0  0
   60.0812   30.2275   47.7949 H   0  0  0  0  0  0  0  0  0  0  0  0
   58.6137   29.2136   48.0686 H   0  0  0  0  0  0  0  0  0  0  0  0
   57.3760   30.4660   51.1330 N   0  0  0  0  0  0  0  0  0  0  0  0
   59.4180   28.9820   52.1310 C   0  0  0  0  0  0  0  0  0  0  0  0
   60.3840   28.2600   52.6170 N   0  0  0  0  0  0  0  0  0  0  0  0
   54.9320   29.1740   52.7520 C   0  0  0  0  0  0  0  0  0  0  0  0
   55.1083   28.5013   51.8997 H   0  0  0  0  0  0  0  0  0  0  0  0
   54.7048   28.5763   53.6470 H   0  0  0  0  0  0  0  0  0  0  0  0
   53.7750   30.0800   52.4450 C   0  0  0  0  0  0  0  0  0  0  0  0
   53.6690   30.6930   51.1860 C   0  0  0  0  0  0  0  0  0  0  0  0
   54.4222   30.4875   50.4111 H   0  0  0  0  0  0  0  0  0  0  0  0
   52.6090   31.5640   50.9140 C   0  0  0  0  0  0  0  0  0  0  0  0
   52.5244   32.0335   49.9228 H   0  0  0  0  0  0  0  0  0  0  0  0
   51.6560   31.8390   51.9010 C   0  0  0  0  0  0  0  0  0  0  0  0
   50.6030   32.7040   51.6280 O   0  0  0  0  0  0  0  0  0  0  0  0
   51.7640   31.2440   53.1610 C   0  0  0  0  0  0  0  0  0  0  0  0
   51.0153   31.4610   53.9371 H   0  0  0  0  0  0  0  0  0  0  0  0
   52.8230   30.3730   53.4360 C   0  0  0  0  0  0  0  0  0  0  0  0
   52.9111   29.9153   54.4324 H   0  0  0  0  0  0  0  0  0  0  0  0
   58.2620   29.1040   52.8280 N   0  0  0  0  0  0  0  0  0  0  0  0
   60.9590   26.0140   51.8580 C   0  0  0  0  0  0  0  0  0  0  0  0
   61.4837   26.4643   51.0024 H   0  0  0  0  0  0  0  0  0  0  0  0
  1  2  1  0
  2  3  2  0
  3  4  1  0
  3  5  1  0
  5  6  1  0
  5  7  2  0
  7  8  1  0
  8  9  1  0
  9 10  1  0
  9 11  1  0
  9 12  1  0
  7 13  1  0
 13 14  1  0
 14 15  2  0
 15 16  1  0
 16 17  1  0
 17 18  1  0
 18 19  1  0
 19 20  1  0
 19 21  1  0
 19 22  1  0
 22 23  2  0
 23 24  1  0
 23 25  1  0
 25 26  1  0
 25 27  2  0
 27 28  1  0
 27 29  1  0
 29 30  1  0
 29 31  2  0
 31 32  1  0
 32 33  1  0
 32 34  1  0
 32 35  1  0
 35 36  1  0
 35 37  1  0
 17 38  2  0
 38 39  1  0
 39 40  2  0
 40 41  1  0
 41 42  1  0
 41 43  1  0
 41 44  1  0
 44 45  2  0
 45 46  1  0
 45 47  1  0
 47 48  1  0
 47 49  2  0
 49 50  1  0
 49 51  1  0
 51 52  1  0
 51 53  2  0
 53 54  1  0
 39 55  1  0
 13 56  2  0
 56 57  1  0
 56  2  1  0
 55 15  1  0
 35 18  1  0
 53 44  1  0
 31 22  1  0
M  CHG  3  16  -1  50  -1  55  -1
M  END
>  <UniqueID>  (2) 
2

>  <SMILES>  (2) 
CSc1ccccc1/N=c1\[n-]c(N2CCc3ccccc3C2)n/c(=N/Cc2ccc([O-])cc2)[n-]1

>  <Energy>  (2) 
68.27886813009692

>  <Genealogy>  (2) 
CSc1ccccc1N=c1[n-]c(N2CCc3ccccc3C2)nc(=NCc2ccc([O-])cc2)[n-]1 (protonated)
CSc1ccccc1/N=c1\[n-]c(N2CCc3ccccc3C2)n/c(=N/Cc2ccc([O-])cc2)[n-]1 (cis-trans isomerization)
CSc1ccccc1/N=c1\[n-]c(N2CCc3ccccc3C2)n/c(=N/Cc2ccc([O-])cc2)[n-]1 (3D coordinates assigned)
CSc1ccccc1/N=c1\[n-]c(N2CCc3ccccc3C2)n/c(=N/Cc2ccc([O-])cc2)[n-]1 (nonaromatic ring conformer: 68.27886813009692 kcal/mol)

>  <smiles>  (2) 
CSc1ccccc1N=c1[nH]c(N2CCc3ccccc3C2)nc(=NCc2ccc(O)cc2)[nH]1

>  <score_type>  (2) 
oracle

>  <origin>  (2) 
adg

>  <m_score__min__energy>  (2) 
-14.710000000000001

>  <m_primary>  (2) 
energy

$$$$
2:0
     RDKit          3D

 46 48  0  0  0  0  0  0  0  0999 V2000
   54.4700   29.5550   53.3500 O   0  0  0  0  0  0  0  0  0  0  0  0
   54.0370   30.4930   52.6240 C   0  0  0  0  0  0  0  0  0  0  0  0
   52.5980   30.9040   52.7320 C   0  0  0  0  0  0  0  0  0  0  0  0
   52.0110   31.0980   51.3670 C   0  0  0  0  0  0  0  0  0  0  0  0
   52.0630   30.1790   50.3850 N   0  0  0  0  0  0  0  0  0  0  0  0
   51.3860   30.7700   49.3730 C   0  0  0  0  0  0  0  0  0  0  0  0
   51.2150   30.2140   48.2570 O   0  0  0  0  0  0  0  0  0  0  0  0
   50.9020   32.0010   49.6550 N   0  0  0  0  0  0  0  0  0  0  0  0
   51.3050   32.1930   50.9210 C   0  0  0  0  0  0  0  0  0  0  0  0
   51.0270   33.3380   51.6570 O   0  0  0  0  0  0  0  0  0  0  0  0
   54.9170   31.1720   51.7180 N   0  0  0  0  0  0  0  0  0  0  0  0
   56.3400   30.8380   51.6440 C   0  0  0  0  0  0  0  0  0  0  0  0
   57.1990   32.0660   51.2490 C   0  0  1  0  0  0  0  0  0  0  0  0
   57.7360   32.8150   52.4880 C   0  0  0  0  0  0  0  0  0  0  0  0
   58.8860   32.0730   53.1880 C   0  0  0  0  0  0  0  0  0  0  0  0
   59.7830   31.2870   52.2120 C   0  0  0  0  0  0  0  0  0  0  0  0
   59.7050   31.7890   50.8280 N   0  0  0  0  0  0  0  0  0  0  0  0
   60.3170   33.1230   50.6370 C   0  0  0  0  0  0  0  0  0  0  0  0
   60.5350   33.3620   49.1680 C   0  0  0  0  0  0  0  0  0  0  0  0
   59.6310   34.1700   48.4540 C   0  0  0  0  0  0  0  0  0  0  0  0
   59.8260   34.4130   47.0910 C   0  0  0  0  0  0  0  0  0  0  0  0
   60.9320   33.8640   46.4340 C   0  0  0  0  0  0  0  0  0  0  0  0
   61.8460   33.0730   47.1380 C   0  0  0  0  0  0  0  0  0  0  0  0
   61.6540   32.8250   48.5030 C   0  0  0  0  0  0  0  0  0  0  0  0
   62.5560   32.0570   49.1660 F   0  0  0  0  0  0  0  0  0  0  0  0
   58.3420   31.6650   50.2630 C   0  0  0  0  0  0  0  0  0  0  0  0
   52.0353   30.1210   53.2615 H   0  0  0  0  0  0  0  0  0  0  0  0
   52.5362   31.8517   53.2871 H   0  0  0  0  0  0  0  0  0  0  0  0
   54.5130   31.8970   51.0800 H   0  0  0  0  0  0  0  0  0  0  0  0
   56.6717   30.4727   52.6271 H   0  0  0  0  0  0  0  0  0  0  0  0
   56.4706   30.0662   50.8711 H   0  0  0  0  0  0  0  0  0  0  0  0
   56.5428   32.7706   50.7170 H   0  0  0  0  0  0  0  0  0  0  0  0
   58.0991   33.8034   52.1698 H   0  0  0  0  0  0  0  0  0  0  0  0
   56.9087   32.8934   53.2087 H   0  0  0  0  0  0  0  0  0  0  0  0
   59.5072   32.8105   53.7174 H   0  0  0  0  0  0  0  0  0  0  0  0
   58.4340   31.3440   53.8766 H   0  0  0  0  0  0  0  0  0  0  0  0
   60.8255   31.3636   52.5546 H   0  0  0  0  0  0  0  0  0  0  0  0
   59.4290   30.2455   52.2052 H   0  0  0  0  0  0  0  0  0  0  0  0
   59.6465   33.8964   51.0400 H   0  0  0  0  0  0  0  0  0  0  0  0
   61.2809   33.1662   51.1653 H   0  0  0  0  0  0  0  0  0  0  0  0
   58.7667   34.6126   48.9707 H   0  0  0  0  0  0  0  0  0  0  0  0
   59.1096   35.0359   46.5354 H   0  0  0  0  0  0  0  0  0  0  0  0
   61.0834   34.0547   45.3613 H   0  0  0  0  0  0  0  0  0  0  0  0
   62.7165   32.6453   46.6190 H   0  0  0  0  0  0  0  0  0  0  0  0
   58.2760   32.3135   49.3769 H   0  0  0  0  0  0  0  0  0  0  0  0
   58.1948   30.6010   50.0258 H   0  0  0  0  0  0  0  0  0  0  0  0
  1  2  2  0
  2  3  1  0
  3  4  1  0
  4  5  1  0
  5  6  1  0
  6  7  2  0
  6  8  1  0
  8  9  1  0
  9 10  1  0
  2 11  1  0
 11 12  1  0
 12 13  1  0
 13 14  1  0
 14 15  1  0
 15 16  1  0
 16 17  1  0
 17 18  1  0
 18 19  1  0
 19 20  2  0
 20 21  1  0
 21 22  2  0
 22 23  1  0
 23 24  2  0
 24 25  1  0
 17 26  1  0
  9  4  2  0
 26 13  1  0
 24 19  1  0
  3 27  1  0
  3 28  1  0
 11 29  1  0
 12 30  1  0
 12 31  1  0
 13 32  1  6
 14 33  1  0
 14 34  1  0
 15 35  1  0
 15 36  1  0
 16 37  1  0
 16 38  1  0
 18 39  1  0
 18 40  1  0
 20 41  1  0
 21 42  1  0
 22 43  1  0
 23 44  1  0
 26 45  1  0
 26 46  1  0
M  CHG  3   5  -1   8  -1  10  -1
M  END
>  <UniqueID>  (3) 
3

>  <SMILES>  (3) 
O=C(Cc1[n-]c(=O)[n-]c1[O-])NC[C@H]1CCCN(Cc2ccccc2F)C1

>  <Energy>  (3) 
83.43279411303145

>  <Genealogy>  (3) 
O=C(Cc1[n-]c(=O)[n-]c1[O-])NCC1CCCN(Cc2ccccc2F)C1 (protonated)
O=C(Cc1[n-]c(=O)[n-]c1[O-])NC[C@H]1CCCN(Cc2ccccc2F)C1 (chirality)
O=C(Cc1[n-]c(=O)[n-]c1[O-])NC[C@H]1CCCN(Cc2ccccc2F)C1 (3D coordinates assigned)
O=C(Cc1[n-]c(=O)[n-]c1[O-])NC[C@H]1CCCN(Cc2ccccc2F)C1 (nonaromatic ring conformer: 83.43279411303145 kcal/mol)

>  <smiles>  (3) 
O=C(Cc1[nH]c(=O)[nH]c1O)NCC1CCCN(Cc2ccccc2F)C1

>  <score_type>  (3) 
oracle

>  <origin>  (3) 
adg

>  <m_score__min__energy>  (3) 
-16.890000000000001

>  <m_primary>  (3) 
energy

$$$$
3:0
     RDKit          3D

 55 58  0  0  0  0  0  0  0  0999 V2000
   56.8010   30.2960   45.1450 O   0  0  0  0  0  0  0  0  0  0  0  0
   57.7220   31.1370   44.9620 C   0  0  0  0  0  0  0  0  0  0  0  0
   59.0810   30.8990   45.5000 C   0  0  0  0  0  0  0  0  0  0  0  0
   59.7620   29.7460   45.4110 C   0  0  0  0  0  0  0  0  0  0  0  0
   59.1630   28.3960   45.4140 C   0  0  0  0  0  0  0  0  0  0  0  0
   59.0060   27.6690   46.6070 C   0  0  0  0  0  0  0  0  0  0  0  0
   58.3780   26.4210   46.5950 C   0  0  0  0  0  0  0  0  0  0  0  0
   57.8640   25.8970   45.3960 C   0  0  0  0  0  0  0  0  0  0  0  0
   57.2280   24.6490   45.3480 O   0  0  0  0  0  0  0  0  0  0  0  0
   55.8420   24.4570   45.3880 C   0  0  0  0  0  0  0  0  0  0  0  0
   55.0830   23.0080   44.9950 S   0  0  0  0  0  0  0  0  0  0  0  0
   53.5510   23.6550   45.2430 C   0  0  0  0  0  0  0  0  0  0  0  0
   52.4780   23.0140   45.0980 O   0  0  0  0  0  0  0  0  0  0  0  0
   53.5850   24.9540   45.6070 N   0  0  0  0  0  0  0  0  0  0  0  0
   54.8630   25.4080   45.6820 C   0  0  0  0  0  0  0  0  0  0  0  0
   55.1470   26.7330   45.9870 O   0  0  0  0  0  0  0  0  0  0  0  0
   58.0230   26.6200   44.2090 C   0  0  0  0  0  0  0  0  0  0  0  0
   58.6520   27.8700   44.2190 C   0  0  0  0  0  0  0  0  0  0  0  0
   57.4110   32.4150   44.2380 C   0  0  0  0  0  0  0  0  0  0  0  0
   57.4950   33.6040   45.1600 C   0  0  0  0  0  0  0  0  0  0  0  0
   56.5730   34.4630   45.1060 O   0  0  0  0  0  0  0  0  0  0  0  0
   58.6300   33.8110   46.1030 C   0  0  0  0  0  0  0  0  0  0  0  0
   59.8300   34.4220   45.6910 C   0  0  0  0  0  0  0  0  0  0  0  0
   60.8770   34.6140   46.5980 C   0  0  0  0  0  0  0  0  0  0  0  0
   60.7430   34.2010   47.9240 C   0  0  0  0  0  0  0  0  0  0  0  0
   59.5570   33.5910   48.3500 C   0  0  0  0  0  0  0  0  0  0  0  0
   59.4090   33.1620   49.7480 C   0  0  0  0  0  0  0  0  0  0  0  0
   59.2970   34.0490   50.6350 O   0  0  0  0  0  0  0  0  0  0  0  0
   59.3950   31.7640   50.1130 N   0  0  0  0  0  0  0  0  0  0  0  0
   59.5510   30.7200   49.0870 C   0  0  0  0  0  0  0  0  0  0  0  0
   58.9310   29.4070   49.5670 C   0  0  0  0  0  0  0  0  0  0  0  0
   59.4290   29.0570   50.8420 O   0  0  0  0  0  0  0  0  0  0  0  0
   58.9920   30.0070   51.7950 C   0  0  0  0  0  0  0  0  0  0  0  0
   59.6050   31.3820   51.5160 C   0  0  0  0  0  0  0  0  0  0  0  0
   58.5080   33.3930   47.4430 C   0  0  0  0  0  0  0  0  0  0  0  0
   59.5732   31.7369   46.0154 H   0  0  0  0  0  0  0  0  0  0  0  0
   60.8570   29.8119   45.3290 H   0  0  0  0  0  0  0  0  0  0  0  0
   59.3794   28.0847   47.5545 H   0  0  0  0  0  0  0  0  0  0  0  0
   58.2853   25.8458   47.5280 H   0  0  0  0  0  0  0  0  0  0  0  0
   57.6511   26.2031   43.2614 H   0  0  0  0  0  0  0  0  0  0  0  0
   58.7460   28.4428   43.2846 H   0  0  0  0  0  0  0  0  0  0  0  0
   58.1323   32.5464   43.4180 H   0  0  0  0  0  0  0  0  0  0  0  0
   56.3843   32.3510   43.8484 H   0  0  0  0  0  0  0  0  0  0  0  0
   59.9447   34.7508   44.6476 H   0  0  0  0  0  0  0  0  0  0  0  0
   61.8098   35.0924   46.2648 H   0  0  0  0  0  0  0  0  0  0  0  0
   61.5687   34.3546   48.6343 H   0  0  0  0  0  0  0  0  0  0  0  0
   59.0489   31.0418   48.1627 H   0  0  0  0  0  0  0  0  0  0  0  0
   60.6230   30.5614   48.8981 H   0  0  0  0  0  0  0  0  0  0  0  0
   57.8387   29.5234   49.6253 H   0  0  0  0  0  0  0  0  0  0  0  0
   59.1922   28.6109   48.8543 H   0  0  0  0  0  0  0  0  0  0  0  0
   57.8958   30.0853   51.7490 H   0  0  0  0  0  0  0  0  0  0  0  0
   59.3118   29.6756   52.7940 H   0  0  0  0  0  0  0  0  0  0  0  0
   59.1308   32.1291   52.1694 H   0  0  0  0  0  0  0  0  0  0  0  0
   60.6860   31.3364   51.7143 H   0  0  0  0  0  0  0  0  0  0  0  0
   57.5806   32.9068   47.7800 H   0  0  0  0  0  0  0  0  0  0  0  0
  1  2  2  0
  2  3  1  0
  3  4  2  3
  4  5  1  0
  5  6  2  0
  6  7  1  0
  7  8  2  0
  8  9  1  0
  9 10  1  0
 10 11  1  0
 11 12  1  0
 12 13  2  0
 12 14  1  0
 14 15  1  0
 15 16  1  0
  8 17  1  0
 17 18  2  0
  2 19  1  0
 19 20  1  0
 20 21  2  0
 20 22  1  0
 22 23  2  0
 23 24  1  0
 24 25  2  0
 25 26  1  0
 26 27  1  0
 27 28  2  0
 27 29  1  0
 29 30  1  0
 30 31  1  0
 31 32  1  0
 32 33  1  0
 33 34  1  0
 26 35  2  0
 18  5  1  0
 35 22  1  0
 15 10  2  0
 34 29  1  0
  3 36  1  0
  4 37  1  0
  6 38  1  0
  7 39  1  0
 17 40  1  0
 18 41  1  0
 19 42  1  0
 19 43  1  0
 23 44  1  0
 24 45  1  0
 25 46  1  0
 30 47  1  0
 30 48  1  0
 31 49  1  0
 31 50  1  0
 33 51  1  0
 33 52  1  0
 34 53  1  0
 34 54  1  0
 35 55  1  0
M  CHG  2  14  -1  16  -1
M  END
>  <UniqueID>  (4) 
4

>  <SMILES>  (4) 
O=C(C=Cc1ccc(Oc2sc(=O)[n-]c2[O-])cc1)CC(=O)c1cccc(C(=O)N2CCOCC2)c1

>  <Energy>  (4) 
114.16411695880889

>  <Genealogy>  (4) 
O=C(C=Cc1ccc(Oc2sc(=O)[n-]c2[O-])cc1)CC(=O)c1cccc(C(=O)N2CCOCC2)c1 (protonated)
O=C(C=Cc1ccc(Oc2sc(=O)[n-]c2[O-])cc1)CC(=O)c1cccc(C(=O)N2CCOCC2)c1 (3D coordinates assigned)
O=C(C=Cc1ccc(Oc2sc(=O)[n-]c2[O-])cc1)CC(=O)c1cccc(C(=O)N2CCOCC2)c1 (nonaromatic ring conformer: 114.16411695880889 kcal/mol)

>  <smiles>  (4) 
O=C(C=Cc1ccc(Oc2sc(=O)[nH]c2O)cc1)CC(=O)c1cccc(C(=O)N2CCOCC2)c1

>  <score_type>  (4) 
oracle

>  <origin>  (4) 
adg

>  <m_score__min__energy>  (4) 
-17.25

>  <m_primary>  (4) 
energy

$$$$
4:0
     RDKit          3D

 57 60  0  0  0  0  0  0  0  0999 V2000
   61.0110   26.7410   47.2630 C   0  0  0  0  0  0  0  0  0  0  0  0
   60.0340   27.4040   48.1350 N   0  0  0  0  0  0  0  0  0  0  0  0
   60.3850   27.2230   49.5690 C   0  0  0  0  0  0  0  0  0  0  0  0
   60.9340   28.5030   50.2120 C   0  0  0  0  0  0  0  0  0  0  0  0
   59.9000   29.6360   50.1290 C   0  0  0  0  0  0  0  0  0  0  0  0
   60.5900   30.9060   50.3270 N   0  0  0  0  0  0  0  0  0  0  0  0
   60.3260   32.0980   49.5860 C   0  0  0  0  0  0  0  0  0  0  0  0
   59.2640   32.7330   49.8100 O   0  0  0  0  0  0  0  0  0  0  0  0
   61.3120   32.6270   48.5900 C   0  0  0  0  0  0  0  0  0  0  0  0
   62.4800   31.8800   48.3380 C   0  0  0  0  0  0  0  0  0  0  0  0
   63.4000   32.2940   47.3760 C   0  0  0  0  0  0  0  0  0  0  0  0
   63.1550   33.4560   46.6520 C   0  0  0  0  0  0  0  0  0  0  0  0
   62.0360   34.1820   46.8980 N   0  0  0  0  0  0  0  0  0  0  0  0
   61.1210   33.8230   47.8420 C   0  0  0  0  0  0  0  0  0  0  0  0
   59.7000   34.9150   48.0450 S   0  0  0  0  0  0  0  0  0  0  0  0
   58.7490   34.0410   46.8020 C   0  0  0  0  0  0  0  0  0  0  0  0
   58.3630   34.5650   45.5790 C   0  0  0  0  0  0  0  0  0  0  0  0
   57.6030   33.7340   44.8230 N   0  0  0  0  0  0  0  0  0  0  0  0
   57.3810   32.5500   45.4330 C   0  0  0  0  0  0  0  0  0  0  0  0
   56.6750   31.6200   44.8580 N   0  0  0  0  0  0  0  0  0  0  0  0
   57.0690   30.5300   44.0020 C   0  0  0  0  0  0  0  0  0  0  0  0
   56.9690   30.6920   42.7530 O   0  0  0  0  0  0  0  0  0  0  0  0
   57.5130   29.2120   44.4910 C   0  0  0  0  0  0  0  0  0  0  0  0
   58.8160   28.7740   44.2230 C   0  0  0  0  0  0  0  0  0  0  0  0
   59.2260   27.4990   44.6050 C   0  0  0  0  0  0  0  0  0  0  0  0
   58.3400   26.6350   45.2590 C   0  0  0  0  0  0  0  0  0  0  0  0
   58.8320   25.3400   45.6700 C   0  0  0  0  0  0  0  0  0  0  0  0
   59.2240   24.3000   45.9960 N   0  0  0  0  0  0  0  0  0  0  0  0
   57.0110   27.0570   45.5310 C   0  0  0  0  0  0  0  0  0  0  0  0
   56.0240   26.1830   46.2280 C   0  0  0  0  0  0  0  0  0  0  0  0
   56.4540   25.1560   47.1340 N   0  0  0  0  0  0  0  0  0  0  0  0
   54.7850   26.3420   46.0330 O   0  0  0  0  0  0  0  0  0  0  0  0
   56.6090   28.3410   45.1110 C   0  0  0  0  0  0  0  0  0  0  0  0
   58.1570   32.4710   46.9420 S   0  0  0  0  0  0  0  0  0  0  0  0
   59.1230   29.6320   48.7890 C   0  0  0  0  0  0  0  0  0  0  0  0
   59.8470   28.8120   47.7150 C   0  0  0  0  0  0  0  0  0  0  0  0
   61.7649   26.2294   47.8794 H   0  0  0  0  0  0  0  0  0  0  0  0
   60.4958   26.0052   46.6280 H   0  0  0  0  0  0  0  0  0  0  0  0
   61.5045   27.4915   46.6280 H   0  0  0  0  0  0  0  0  0  0  0  0
   59.4818   26.9143   50.1158 H   0  0  0  0  0  0  0  0  0  0  0  0
   61.1751   26.4596   49.6231 H   0  0  0  0  0  0  0  0  0  0  0  0
   61.1692   28.3049   51.2681 H   0  0  0  0  0  0  0  0  0  0  0  0
   61.8413   28.8105   49.6714 H   0  0  0  0  0  0  0  0  0  0  0  0
   59.1479   29.4838   50.9171 H   0  0  0  0  0  0  0  0  0  0  0  0
   62.6682   30.9581   48.9079 H   0  0  0  0  0  0  0  0  0  0  0  0
   64.3117   31.7069   47.1911 H   0  0  0  0  0  0  0  0  0  0  0  0
   63.8674   33.7856   45.8814 H   0  0  0  0  0  0  0  0  0  0  0  0
   58.6498   35.5739   45.2477 H   0  0  0  0  0  0  0  0  0  0  0  0
   59.5210   29.4422   43.7068 H   0  0  0  0  0  0  0  0  0  0  0  0
   60.2532   27.1687   44.3913 H   0  0  0  0  0  0  0  0  0  0  0  0
   57.4630   24.8810   47.2070 H   0  0  0  0  0  0  0  0  0  0  0  0
   55.7500   24.5870   47.6610 H   0  0  0  0  0  0  0  0  0  0  0  0
   55.5698   28.6635   45.2727 H   0  0  0  0  0  0  0  0  0  0  0  0
   58.1260   29.1984   48.9565 H   0  0  0  0  0  0  0  0  0  0  0  0
   59.0473   30.6704   48.4340 H   0  0  0  0  0  0  0  0  0  0  0  0
   59.2524   28.8322   46.7898 H   0  0  0  0  0  0  0  0  0  0  0  0
   60.8401   29.2571   47.5548 H   0  0  0  0  0  0  0  0  0  0  0  0
  1  2  1  0
  2  3  1  0
  3  4  1  0
  4  5  1  0
  5  6  1  0
  6  7  1  0
  7  8  2  0
  7  9  1  0
  9 10  2  0
 10 11  1  0
 11 12  2  0
 12 13  1  0
 13 14  2  0
 14 15  1  0
 15 16  1  0
 16 17  2  0
 17 18  1  0
 18 19  1  0
 19 20  2  3
 20 21  1  0
 21 22  2  0
 21 23  1  0
 23 24  2  0
 24 25  1  0
 25 26  2  0
 26 27  1  0
 27 28  3  0
 26 29  1  0
 29 30  1  0
 30 31  1  0
 30 32  2  0
 29 33  2  0
 19 34  1  0
  5 35  1  0
 35 36  1  0
 36  2  1  0
 14  9  1  0
 34 16  1  0
 33 23  1  0
  1 37  1  0
  1 38  1  0
  1 39  1  0
  3 40  1  0
  3 41  1  0
  4 42  1  0
  4 43  1  0
  5 44  1  0
 10 45  1  0
 11 46  1  0
 12 47  1  0
 17 48  1  0
 24 49  1  0
 25 50  1  0
 31 51  1  0
 31 52  1  0
 33 53  1  0
 35 54  1  0
 35 55  1  0
 36 56  1  0
 36 57  1  0
M  CHG  2   6  -1  18  -1
M  END
>  <UniqueID>  (5) 
5

>  <SMILES>  (5) 
CN1CCC([N-]C(=O)c2cccnc2Sc2c[n-]c(=NC(=O)c3ccc(C#N)c(C(N)=O)c3)s2)CC1

>  <Energy>  (5) 
106.37024510026949

>  <Genealogy>  (5) 
CN1CCC([N-]C(=O)c2cccnc2Sc2c[n-]c(=NC(=O)c3ccc(C#N)c(C(N)=O)c3)s2)CC1 (protonated)
CN1CCC([N-]C(=O)c2cccnc2Sc2c[n-]c(=NC(=O)c3ccc(C#N)c(C(N)=O)c3)s2)CC1 (3D coordinates assigned)
CN1CCC([N-]C(=O)c2cccnc2Sc2c[n-]c(=NC(=O)c3ccc(C#N)c(C(N)=O)c3)s2)CC1 (nonaromatic ring conformer: 106.37024510026949 kcal/mol)

>  <smiles>  (5) 
CN1CCC(NC(=O)c2cccnc2Sc2c[nH]c(=NC(=O)c3ccc(C#N)c(C(N)=O)c3)s2)CC1

>  <score_type>  (5) 
oracle

>  <origin>  (5) 
adg

>  <m_score__min__energy>  (5) 
-14.720000000000001

>  <m_primary>  (5) 
energy

$$$$
5:0
     RDKit          3D

 46 49  0  0  0  0  0  0  0  0999 V2000
   58.9590   28.7030   44.6320 O   0  0  0  0  0  0  0  0  0  0  0  0
   58.7310   28.7110   45.8700 C   0  0  0  0  0  0  0  0  0  0  0  0
   57.4300   28.1580   46.3810 C   0  0  0  0  0  0  0  0  0  0  0  0
   57.2540   26.7810   45.9210 N   0  0  0  0  0  0  0  0  0  0  0  0
   56.0840   26.1230   45.7780 C   0  0  0  0  0  0  0  0  0  0  0  0
   54.8350   26.6910   46.0050 O   0  0  0  0  0  0  0  0  0  0  0  0
   56.3100   24.8170   45.3920 C   0  0  0  0  0  0  0  0  0  0  0  0
   57.6710   24.6640   45.3090 C   0  0  0  0  0  0  0  0  0  0  0  0
   58.2280   25.8850   45.6480 C   0  0  0  0  0  0  0  0  0  0  0  0
   59.5890   26.1680   45.7200 O   0  0  0  0  0  0  0  0  0  0  0  0
   58.3480   23.3780   44.9590 C   0  0  0  0  0  0  0  0  0  0  0  0
   57.3480   22.2890   44.6260 C   0  0  0  0  0  0  0  0  0  0  0  0
   56.0080   22.4410   44.7070 C   0  0  0  0  0  0  0  0  0  0  0  0
   55.3250   23.7220   45.1450 C   0  0  0  0  0  0  0  0  0  0  0  0
   59.7490   29.1940   46.7570 N   0  0  0  0  0  0  0  0  0  0  0  0
   60.1420   30.5620   46.9400 C   0  0  0  0  0  0  0  0  0  0  0  0
   61.3960   30.8850   47.4870 C   0  0  0  0  0  0  0  0  0  0  0  0
   61.7790   32.2210   47.6340 C   0  0  0  0  0  0  0  0  0  0  0  0
   60.9140   33.2430   47.2440 C   0  0  0  0  0  0  0  0  0  0  0  0
   59.6550   32.9340   46.7240 C   0  0  0  0  0  0  0  0  0  0  0  0
   59.2490   31.6010   46.5950 C   0  0  0  0  0  0  0  0  0  0  0  0
   57.9740   31.3380   46.0730 O   0  0  0  0  0  0  0  0  0  0  0  0
   57.6430   31.3510   44.7100 C   0  0  0  0  0  0  0  0  0  0  0  0
   56.7330   30.4310   44.1550 C   0  0  0  0  0  0  0  0  0  0  0  0
   56.4240   30.4830   42.7920 C   0  0  0  0  0  0  0  0  0  0  0  0
   57.0100   31.4560   41.9770 C   0  0  0  0  0  0  0  0  0  0  0  0
   57.9010   32.3830   42.5270 C   0  0  0  0  0  0  0  0  0  0  0  0
   58.2120   32.3330   43.8890 C   0  0  0  0  0  0  0  0  0  0  0  0
   57.4338   28.1765   47.4808 H   0  0  0  0  0  0  0  0  0  0  0  0
   56.6023   28.7737   45.9991 H   0  0  0  0  0  0  0  0  0  0  0  0
   59.9210   27.1210   45.8150 H   0  0  0  0  0  0  0  0  0  0  0  0
   58.9980   23.5434   44.0872 H   0  0  0  0  0  0  0  0  0  0  0  0
   58.9328   23.0506   45.8312 H   0  0  0  0  0  0  0  0  0  0  0  0
   57.7375   21.3140   44.2979 H   0  0  0  0  0  0  0  0  0  0  0  0
   55.3738   21.5832   44.4389 H   0  0  0  0  0  0  0  0  0  0  0  0
   54.6273   24.0413   44.3569 H   0  0  0  0  0  0  0  0  0  0  0  0
   54.7920   23.5217   46.0862 H   0  0  0  0  0  0  0  0  0  0  0  0
   62.0793   30.0821   47.8009 H   0  0  0  0  0  0  0  0  0  0  0  0
   62.7639   32.4667   48.0578 H   0  0  0  0  0  0  0  0  0  0  0  0
   61.2235   34.2936   47.3460 H   0  0  0  0  0  0  0  0  0  0  0  0
   58.9782   33.7438   46.4138 H   0  0  0  0  0  0  0  0  0  0  0  0
   56.2639   29.6693   44.7951 H   0  0  0  0  0  0  0  0  0  0  0  0
   55.7189   29.7573   42.3606 H   0  0  0  0  0  0  0  0  0  0  0  0
   56.7705   31.4924   40.9040 H   0  0  0  0  0  0  0  0  0  0  0  0
   58.3577   33.1524   41.8871 H   0  0  0  0  0  0  0  0  0  0  0  0
   58.9076   33.0691   44.3185 H   0  0  0  0  0  0  0  0  0  0  0  0
  1  2  2  0
  2  3  1  0
  3  4  1  0
  4  5  1  0
  5  6  1  0
  5  7  2  0
  7  8  1  0
  8  9  2  0
  9 10  1  0
  8 11  1  0
 11 12  1  0
 12 13  2  0
 13 14  1  0
  2 15  1  0
 15 16  1  0
 16 17  2  0
 17 18  1  0
 18 19  2  0
 19 20  1  0
 20 21  2  0
 21 22  1  0
 22 23  1  0
 23 24  2  0
 24 25  1  0
 25 26  2  0
 26 27  1  0
 27 28  2  0
  9  4  1  0
 21 16  1  0
 28 23  1  0
 14  7  1  0
  3 29  1  0
  3 30  1  0
 10 31  1  0
 11 32  1  0
 11 33  1  0
 12 34  1  0
 13 35  1  0
 14 36  1  0
 14 37  1  0
 17 38  1  0
 18 39  1  0
 19 40  1  0
 20 41  1  0
 24 42  1  0
 25 43  1  0
 26 44  1  0
 27 45  1  0
 28 46  1  0
M  CHG  2   6  -1  15  -1
M  END
>  <UniqueID>  (6) 
6

>  <SMILES>  (6) 
O=C(Cn1c([O-])c2c(c1O)CC=CC2)[N-]c1ccccc1Oc1ccccc1

>  <Energy>  (6) 
93.14680221910149

>  <Genealogy>  (6) 
O=C(Cn1c([O-])c2c(c1O)CC=CC2)[N-]c1ccccc1Oc1ccccc1 (protonated)
O=C(Cn1c([O-])c2c(c1O)CC=CC2)[N-]c1ccccc1Oc1ccccc1 (3D coordinates assigned)
O=C(Cn1c([O-])c2c(c1O)CC=CC2)[N-]c1ccccc1Oc1ccccc1 (nonaromatic ring conformer: 93.14680221910149 kcal/mol)

>  <smiles>  (6) 
O=C(Cn1c(O)c2c(c1O)CC=CC2)Nc1ccccc1Oc1ccccc1

>  <score_type>  (6) 
oracle

>  <origin>  (6) 
adg

>  <m_score__min__energy>  (6) 
-12.710000000000001

>  <m_primary>  (6) 
energy

$$$$
6:0
     RDKit          3D

 48 50  0  0  0  0  0  0  0  0999 V2000
   60.1810   33.4960   50.2760 H   0  0  0  0  0  0  0  0  0  0  0  0
   61.1390   33.8060   50.1740 O   0  0  0  0  0  0  0  0  0  0  0  0
   62.0020   33.2640   49.2190 C   0  0  0  0  0  0  0  0  0  0  0  0
   63.2850   33.8010   49.0800 C   0  0  0  0  0  0  0  0  0  0  0  0
   63.6017   34.6380   49.7196 H   0  0  0  0  0  0  0  0  0  0  0  0
   64.1650   33.2780   48.1320 C   0  0  0  0  0  0  0  0  0  0  0  0
   65.1770   33.6949   48.0222 H   0  0  0  0  0  0  0  0  0  0  0  0
   63.7460   32.2200   47.3250 C   0  0  0  0  0  0  0  0  0  0  0  0
   64.4280   31.8004   46.5708 H   0  0  0  0  0  0  0  0  0  0  0  0
   62.4970   31.7080   47.4700 N   0  0  0  0  0  0  0  0  0  0  0  0
   61.6160   32.1880   48.3950 C   0  0  0  0  0  0  0  0  0  0  0  0
   60.4170   31.6870   48.5020 N   0  0  0  0  0  0  0  0  0  0  0  0
   59.1750   32.3870   48.3240 C   0  0  0  0  0  0  0  0  0  0  0  0
   58.4440   32.5770   49.3320 O   0  0  0  0  0  0  0  0  0  0  0  0
   58.6870   32.8030   46.9860 C   0  0  0  0  0  0  0  0  0  0  0  0
   57.7680   31.9760   46.3180 C   0  0  0  0  0  0  0  0  0  0  0  0
   57.4698   31.0202   46.7734 H   0  0  0  0  0  0  0  0  0  0  0  0
   57.2270   32.3480   45.0850 C   0  0  0  0  0  0  0  0  0  0  0  0
   56.2400   31.4960   44.4880 N   0  0  0  0  0  0  0  0  0  0  0  0
   56.4790   29.8430   44.0230 S   0  0  0  0  0  0  0  0  0  0  0  0
   55.6480   28.9500   44.9000 O   0  0  0  0  0  0  0  0  0  0  0  0
   56.0280   29.6750   42.5990 O   0  0  0  0  0  0  0  0  0  0  0  0
   58.2040   29.3690   44.1380 C   0  0  0  0  0  0  0  0  0  0  0  0
   58.6527   29.4310   43.1356 H   0  0  0  0  0  0  0  0  0  0  0  0
   58.6889   30.0566   44.8466 H   0  0  0  0  0  0  0  0  0  0  0  0
   58.3970   27.9430   44.6740 C   0  0  0  0  0  0  0  0  0  0  0  0
   57.4126   27.4572   44.7444 H   0  0  0  0  0  0  0  0  0  0  0  0
   59.0630   27.4132   43.9770 H   0  0  0  0  0  0  0  0  0  0  0  0
   59.0470   27.9160   46.0350 C   0  0  0  0  0  0  0  0  0  0  0  0
   60.0430   26.9690   46.3310 C   0  0  0  0  0  0  0  0  0  0  0  0
   60.3531   26.2425   45.5654 H   0  0  0  0  0  0  0  0  0  0  0  0
   60.6410   26.9470   47.5950 C   0  0  0  0  0  0  0  0  0  0  0  0
   61.4193   26.2032   47.8209 H   0  0  0  0  0  0  0  0  0  0  0  0
   60.2520   27.8680   48.5720 C   0  0  0  0  0  0  0  0  0  0  0  0
   60.7260   27.8508   49.5645 H   0  0  0  0  0  0  0  0  0  0  0  0
   59.2610   28.8100   48.2870 C   0  0  0  0  0  0  0  0  0  0  0  0
   58.9575   29.5369   49.0548 H   0  0  0  0  0  0  0  0  0  0  0  0
   58.6540   28.8310   47.0280 C   0  0  0  0  0  0  0  0  0  0  0  0
   57.8651   29.5668   46.8129 H   0  0  0  0  0  0  0  0  0  0  0  0
   57.6360   33.5500   44.4890 C   0  0  0  0  0  0  0  0  0  0  0  0
   57.2333   33.8396   43.5072 H   0  0  0  0  0  0  0  0  0  0  0  0
   58.5520   34.3800   45.1370 C   0  0  0  0  0  0  0  0  0  0  0  0
   58.8568   35.3260   44.6657 H   0  0  0  0  0  0  0  0  0  0  0  0
   59.0890   34.0210   46.3840 C   0  0  0  0  0  0  0  0  0  0  0  0
   60.0720   34.9460   47.0500 C   0  0  0  0  0  0  0  0  0  0  0  0
   59.9773   34.8569   48.1423 H   0  0  0  0  0  0  0  0  0  0  0  0
   61.0941   34.6745   46.7472 H   0  0  0  0  0  0  0  0  0  0  0  0
   59.8631   35.9827   46.7472 H   0  0  0  0  0  0  0  0  0  0  0  0
  1  2  1  0
  2  3  1  0
  3  4  2  0
  4  5  1  0
  4  6  1  0
  6  7  1  0
  6  8  2  0
  8  9  1  0
  8 10  1  0
 10 11  1  0
 11 12  2  0
 12 13  1  0
 13 14  2  0
 13 15  1  0
 15 16  2  0
 16 17  1  0
 16 18  1  0
 18 19  1  0
 19 20  1  0
 20 21  2  0
 20 22  2  0
 20 23  1  0
 23 24  1  0
 23 25  1  0
 23 26  1  0
 26 27  1  0
 26 28  1  0
 26 29  1  0
 29 30  2  0
 30 31  1  0
 30 32  1  0
 32 33  1  0
 32 34  2  0
 34 35  1  0
 34 36  1  0
 36 37  1  0
 36 38  2  0
 38 39  1  0
 18 40  2  0
 40 41  1  0
 40 42  1  0
 42 43  1  0
 42 44  2  0
 44 45  1  0
 45 46  1  0
 45 47  1  0
 45 48  1  0
 11  3  1  0
 44 15  1  0
 38 29  1  0
M  CHG  2  10  -1  19  -1
M  END
>  <UniqueID>  (7) 
7

>  <SMILES>  (7) 
Cc1ccc([N-]S(=O)(=O)CCc2ccccc2)cc1C(=O)/N=c1\[n-]cccc1O

>  <Energy>  (7) 
54.074704222070466

>  <Genealogy>  (7) 
Cc1ccc([N-]S(=O)(=O)CCc2ccccc2)cc1C(=O)N=c1[n-]cccc1O (protonated)
Cc1ccc([N-]S(=O)(=O)CCc2ccccc2)cc1C(=O)/N=c1\[n-]cccc1O (cis-trans isomerization)
Cc1ccc([N-]S(=O)(=O)CCc2ccccc2)cc1C(=O)/N=c1\[n-]cccc1O (3D coordinates assigned)
Cc1ccc([N-]S(=O)(=O)CCc2ccccc2)cc1C(=O)/N=c1\[n-]cccc1O (optimized conformer: 54.074704222070466 kcal/mol)

>  <smiles>  (7) 
Cc1ccc(NS(=O)(=O)CCc2ccccc2)cc1C(=O)N=c1[nH]cccc1O

>  <score_type>  (7) 
oracle

>  <origin>  (7) 
adg

>  <m_score__min__energy>  (7) 
-11.609999999999999

>  <m_primary>  (7) 
energy

$$$$
7:0
     RDKit          3D

 49 52  0  0  0  0  0  0  0  0999 V2000
   61.4033   30.2024   45.0690 H   0  0  0  0  0  0  0  0  0  0  0  0
   60.6920   29.3700   45.1750 C   0  0  0  0  0  0  0  0  0  0  0  0
   60.6197   28.6048   44.3881 H   0  0  0  0  0  0  0  0  0  0  0  0
   59.9120   29.2880   46.2650 C   0  0  0  0  0  0  0  0  0  0  0  0
   58.9600   28.2960   46.5500 C   0  0  0  0  0  0  0  0  0  0  0  0
   58.4040   27.3590   45.7600 C   0  0  0  0  0  0  0  0  0  0  0  0
   58.9330   27.1024   44.8303 H   0  0  0  0  0  0  0  0  0  0  0  0
   57.1450   26.6500   46.0400 C   0  0  0  0  0  0  0  0  0  0  0  0
   57.0640   25.3690   46.4500 N   0  0  0  0  0  0  0  0  0  0  0  0
   55.7380   25.1170   46.4240 C   0  0  0  0  0  0  0  0  0  0  0  0
   55.2530   24.0050   46.7570 O   0  0  0  0  0  0  0  0  0  0  0  0
   54.9730   26.1440   45.9960 N   0  0  0  0  0  0  0  0  0  0  0  0
   55.8820   27.1010   45.7450 C   0  0  0  0  0  0  0  0  0  0  0  0
   55.5640   28.3550   45.2430 O   0  0  0  0  0  0  0  0  0  0  0  0
   58.6090   28.4650   47.8790 C   0  0  0  0  0  0  0  0  0  0  0  0
   57.9273   27.8295   48.4633 H   0  0  0  0  0  0  0  0  0  0  0  0
   59.2790   29.5840   48.3290 C   0  0  0  0  0  0  0  0  0  0  0  0
   59.1530   30.1590   49.7070 C   0  0  0  0  0  0  0  0  0  0  0  0
   59.3263   29.3681   50.4516 H   0  0  0  0  0  0  0  0  0  0  0  0
   59.8974   30.9578   49.8405 H   0  0  0  0  0  0  0  0  0  0  0  0
   58.1428   30.5733   49.8405 H   0  0  0  0  0  0  0  0  0  0  0  0
   60.0610   30.0910   47.3490 N   0  0  0  0  0  0  0  0  0  0  0  0
   60.9590   31.2090   47.4870 C   0  0  0  0  0  0  0  0  0  0  0  0
   62.3430   30.9760   47.4880 C   0  0  0  0  0  0  0  0  0  0  0  0
   62.7228   29.9450   47.4356 H   0  0  0  0  0  0  0  0  0  0  0  0
   63.2410   32.0420   47.5550 C   0  0  0  0  0  0  0  0  0  0  0  0
   64.3239   31.8490   47.5629 H   0  0  0  0  0  0  0  0  0  0  0  0
   62.7660   33.3520   47.6120 C   0  0  0  0  0  0  0  0  0  0  0  0
   63.4748   34.1916   47.6633 H   0  0  0  0  0  0  0  0  0  0  0  0
   61.3920   33.5990   47.6040 C   0  0  0  0  0  0  0  0  0  0  0  0
   61.0242   34.6353   47.6332 H   0  0  0  0  0  0  0  0  0  0  0  0
   60.4760   32.5370   47.5590 C   0  0  0  0  0  0  0  0  0  0  0  0
   59.0290   32.8490   47.6060 C   0  0  0  0  0  0  0  0  0  0  0  0
   58.5680   33.4140   48.6370 O   0  0  0  0  0  0  0  0  0  0  0  0
   58.1270   32.3800   46.5700 N   0  0  0  0  0  0  0  0  0  0  0  0
   57.6920   31.4820   46.8900 H   0  0  0  0  0  0  0  0  0  0  0  0
   58.8600   32.0920   45.3110 C   0  0  0  0  0  0  0  0  0  0  0  0
   59.6998   32.7958   45.2138 H   0  0  0  0  0  0  0  0  0  0  0  0
   59.2296   31.0566   45.3478 H   0  0  0  0  0  0  0  0  0  0  0  0
   57.9340   32.2410   44.0920 C   0  0  0  0  0  0  0  0  0  0  0  0
   58.5056   31.9862   43.1873 H   0  0  0  0  0  0  0  0  0  0  0  0
   57.0801   31.5658   44.2498 H   0  0  0  0  0  0  0  0  0  0  0  0
   57.4070   33.5530   43.9370 O   0  0  0  0  0  0  0  0  0  0  0  0
   57.2610   34.2610   45.1600 C   0  0  0  0  0  0  0  0  0  0  0  0
   58.1790   34.8406   45.3373 H   0  0  0  0  0  0  0  0  0  0  0  0
   56.3730   34.9018   45.0560 H   0  0  0  0  0  0  0  0  0  0  0  0
   57.0180   33.3500   46.3790 C   0  0  0  0  0  0  0  0  0  0  0  0
   56.9323   33.9753   47.2799 H   0  0  0  0  0  0  0  0  0  0  0  0
   56.0923   32.7822   46.2036 H   0  0  0  0  0  0  0  0  0  0  0  0
  1  2  1  0
  2  3  1  0
  2  4  2  0
  4  5  1  0
  5  6  2  0
  6  7  1  0
  6  8  1  0
  8  9  1  0
  9 10  1  0
 10 11  2  0
 10 12  1  0
 12 13  1  0
 13 14  1  0
  5 15  1  0
 15 16  1  0
 15 17  2  0
 17 18  1  0
 18 19  1  0
 18 20  1  0
 18 21  1  0
 17 22  1  0
 22 23  1  0
 23 24  2  0
 24 25  1  0
 24 26  1  0
 26 27  1  0
 26 28  2  0
 28 29  1  0
 28 30  1  0
 30 31  1  0
 30 32  2  0
 32 33  1  0
 33 34  2  0
 33 35  1  0
 35 36  1  0
 35 37  1  0
 37 38  1  0
 37 39  1  0
 37 40  1  0
 40 41  1  0
 40 42  1  0
 40 43  1  0
 43 44  1  0
 44 45  1  0
 44 46  1  0
 44 47  1  0
 47 48  1  0
 47 49  1  0
 22  4  1  0
 32 23  1  0
 47 35  1  0
 13  8  2  0
M  CHG  4   9  -1  12  -1  14  -1  35   1
M  END
>  <UniqueID>  (8) 
8

>  <SMILES>  (8) 
C=c1/c(=C\c2[n-]c(=O)[n-]c2[O-])cc(C)n1-c1ccccc1C(=O)[NH+]1CCOCC1

>  <Energy>  (8) 
145.76480862442807

>  <Genealogy>  (8) 
C=c1c(=Cc2[n-]c(=O)[n-]c2[O-])cc(C)n1-c1ccccc1C(=O)[NH+]1CCOCC1 (protonated)
C=c1/c(=C\c2[n-]c(=O)[n-]c2[O-])cc(C)n1-c1ccccc1C(=O)[NH+]1CCOCC1 (cis-trans isomerization)
C=c1/c(=C\c2[n-]c(=O)[n-]c2[O-])cc(C)n1-c1ccccc1C(=O)[NH+]1CCOCC1 (3D coordinates assigned)
C=c1/c(=C\c2[n-]c(=O)[n-]c2[O-])cc(C)n1-c1ccccc1C(=O)[NH+]1CCOCC1 (nonaromatic ring conformer: 145.76480862442807 kcal/mol)

>  <smiles>  (8) 
C=c1c(=Cc2[nH]c(=O)[nH]c2O)cc(C)n1-c1ccccc1C(=O)N1CCOCC1

>  <score_type>  (8) 
oracle

>  <origin>  (8) 
adg

>  <m_score__min__energy>  (8) 
-14.83

>  <m_primary>  (8) 
energy

$$$$
8:0
     RDKit          3D

 62 64  0  0  0  0  0  0  0  0999 V2000
   58.4660   33.3670   52.0660 C   0  0  0  0  0  0  0  0  0  0  0  0
   59.2270   33.1370   50.7540 C   0  0  1  0  0  0  0  0  0  0  0  0
   60.5570   32.3960   50.9860 C   0  0  0  0  0  0  0  0  0  0  0  0
   61.7900   33.2790   50.7400 C   0  0  0  0  0  0  0  0  0  0  0  0
   62.2940   33.0880   49.3330 C   0  0  0  0  0  0  0  0  0  0  0  0
   62.8490   34.1650   48.6240 C   0  0  0  0  0  0  0  0  0  0  0  0
   63.3670   33.9720   47.3400 C   0  0  0  0  0  0  0  0  0  0  0  0
   63.3400   32.7030   46.7580 C   0  0  0  0  0  0  0  0  0  0  0  0
   62.8000   31.6230   47.4610 C   0  0  0  0  0  0  0  0  0  0  0  0
   62.2830   31.8110   48.7460 C   0  0  0  0  0  0  0  0  0  0  0  0
   58.4130   32.3350   49.8450 N   0  0  0  0  0  0  0  0  0  0  0  0
   58.8520   31.8410   48.5730 C   0  0  0  0  0  0  0  0  0  0  0  0
   59.0940   30.6120   48.4270 O   0  0  0  0  0  0  0  0  0  0  0  0
   58.9750   32.7740   47.4260 C   0  0  0  0  0  0  0  0  0  0  0  0
   59.2110   34.1400   47.6820 C   0  0  0  0  0  0  0  0  0  0  0  0
   59.2780   35.0630   46.6360 C   0  0  0  0  0  0  0  0  0  0  0  0
   59.1150   34.6370   45.3180 C   0  0  0  0  0  0  0  0  0  0  0  0
   58.8850   33.2890   45.0430 C   0  0  0  0  0  0  0  0  0  0  0  0
   58.8230   32.3500   46.0810 C   0  0  0  0  0  0  0  0  0  0  0  0
   58.6340   30.9720   45.7350 N   0  0  0  0  0  0  0  0  0  0  0  0
   57.3670   30.5040   45.2430 C   0  0  0  0  0  0  0  0  0  0  0  0
   56.6400   31.2660   44.5510 O   0  0  0  0  0  0  0  0  0  0  0  0
   56.8890   29.1910   45.5550 N   0  0  0  0  0  0  0  0  0  0  0  0
   57.7550   28.0990   45.9780 C   0  0  0  0  0  0  0  0  0  0  0  0
   57.1540   26.7850   45.5650 C   0  0  0  0  0  0  0  0  0  0  0  0
   57.6260   26.1060   44.4270 C   0  0  0  0  0  0  0  0  0  0  0  0
   57.0710   24.8740   44.0610 C   0  0  0  0  0  0  0  0  0  0  0  0
   56.0290   24.3080   44.8140 C   0  0  0  0  0  0  0  0  0  0  0  0
   55.5020   23.0350   44.4100 N   0  0  0  0  0  0  0  0  0  0  0  0
   56.4170   21.7310   43.7160 S   0  0  0  0  0  0  0  0  0  0  0  0
   58.1340   21.8980   44.1510 C   0  0  0  0  0  0  0  0  0  0  0  0
   56.2500   21.7190   42.2220 O   0  0  0  0  0  0  0  0  0  0  0  0
   55.9010   20.4310   44.2730 O   0  0  0  0  0  0  0  0  0  0  0  0
   55.5370   25.0040   45.9380 C   0  0  0  0  0  0  0  0  0  0  0  0
   56.0950   26.2330   46.3070 C   0  0  0  0  0  0  0  0  0  0  0  0
   59.1331   33.1654   52.9170 H   0  0  0  0  0  0  0  0  0  0  0  0
   58.1194   34.4100   52.1109 H   0  0  0  0  0  0  0  0  0  0  0  0
   57.5997   32.6905   52.1109 H   0  0  0  0  0  0  0  0  0  0  0  0
   59.4404   34.1264   50.3232 H   0  0  0  0  0  0  0  0  0  0  0  0
   60.5829   32.0408   52.0267 H   0  0  0  0  0  0  0  0  0  0  0  0
   60.5996   31.5655   50.2660 H   0  0  0  0  0  0  0  0  0  0  0  0
   61.5167   34.3342   50.8880 H   0  0  0  0  0  0  0  0  0  0  0  0
   62.5828   32.9938   51.4472 H   0  0  0  0  0  0  0  0  0  0  0  0
   62.8764   35.1653   49.0808 H   0  0  0  0  0  0  0  0  0  0  0  0
   63.7964   34.8208   46.7875 H   0  0  0  0  0  0  0  0  0  0  0  0
   63.7440   32.5536   45.7458 H   0  0  0  0  0  0  0  0  0  0  0  0
   62.7817   30.6233   47.0025 H   0  0  0  0  0  0  0  0  0  0  0  0
   61.8662   30.9567   49.2996 H   0  0  0  0  0  0  0  0  0  0  0  0
   59.3440   34.4832   48.7186 H   0  0  0  0  0  0  0  0  0  0  0  0
   59.4594   36.1263   46.8517 H   0  0  0  0  0  0  0  0  0  0  0  0
   59.1679   35.3646   44.4947 H   0  0  0  0  0  0  0  0  0  0  0  0
   58.7511   32.9602   44.0019 H   0  0  0  0  0  0  0  0  0  0  0  0
   59.2880   30.2840   46.1710 H   0  0  0  0  0  0  0  0  0  0  0  0
   58.7429   28.2129   45.5077 H   0  0  0  0  0  0  0  0  0  0  0  0
   57.8614   28.1223   47.0726 H   0  0  0  0  0  0  0  0  0  0  0  0
   58.4338   26.5445   43.8227 H   0  0  0  0  0  0  0  0  0  0  0  0
   57.4542   24.3446   43.1762 H   0  0  0  0  0  0  0  0  0  0  0  0
   58.2355   21.9079   45.2463 H   0  0  0  0  0  0  0  0  0  0  0  0
   58.7010   21.0508   43.7378 H   0  0  0  0  0  0  0  0  0  0  0  0
   58.5271   22.8386   43.7378 H   0  0  0  0  0  0  0  0  0  0  0  0
   54.7110   24.5787   46.5270 H   0  0  0  0  0  0  0  0  0  0  0  0
   55.7027   26.7705   47.1829 H   0  0  0  0  0  0  0  0  0  0  0  0
  1  2  1  0
  2  3  1  0
  3  4  1  0
  4  5  1  0
  5  6  2  0
  6  7  1  0
  7  8  2  0
  8  9  1  0
  9 10  2  0
  2 11  1  0
 11 12  1  0
 12 13  2  0
 12 14  1  0
 14 15  2  0
 15 16  1  0
 16 17  2  0
 17 18  1  0
 18 19  2  0
 19 20  1  0
 20 21  1  0
 21 22  2  0
 21 23  1  0
 23 24  1  0
 24 25  1  0
 25 26  2  0
 26 27  1  0
 27 28  2  0
 28 29  1  0
 29 30  1  0
 30 31  1  0
 30 32  2  0
 30 33  2  0
 28 34  1  0
 34 35  2  0
 10  5  1  0
 19 14  1  0
 35 25  1  0
  1 36  1  0
  1 37  1  0
  1 38  1  0
  2 39  1  6
  3 40  1  0
  3 41  1  0
  4 42  1  0
  4 43  1  0
  6 44  1  0
  7 45  1  0
  8 46  1  0
  9 47  1  0
 10 48  1  0
 15 49  1  0
 16 50  1  0
 17 51  1  0
 18 52  1  0
 20 53  1  0
 24 54  1  0
 24 55  1  0
 26 56  1  0
 27 57  1  0
 31 58  1  0
 31 59  1  0
 31 60  1  0
 34 61  1  0
 35 62  1  0
M  CHG  3  11  -1  23  -1  29  -1
M  END
>  <UniqueID>  (9) 
9

>  <SMILES>  (9) 
C[C@@H](CCc1ccccc1)[N-]C(=O)c1ccccc1NC(=O)[N-]Cc1ccc([N-]S(C)(=O)=O)cc1

>  <Energy>  (9) 
64.55351814053373

>  <Genealogy>  (9) 
CC(CCc1ccccc1)[N-]C(=O)c1ccccc1NC(=O)[N-]Cc1ccc([N-]S(C)(=O)=O)cc1 (protonated)
C[C@@H](CCc1ccccc1)[N-]C(=O)c1ccccc1NC(=O)[N-]Cc1ccc([N-]S(C)(=O)=O)cc1 (chirality)
C[C@@H](CCc1ccccc1)[N-]C(=O)c1ccccc1NC(=O)[N-]Cc1ccc([N-]S(C)(=O)=O)cc1 (3D coordinates assigned)
C[C@@H](CCc1ccccc1)[N-]C(=O)c1ccccc1NC(=O)[N-]Cc1ccc([N-]S(C)(=O)=O)cc1 (optimized conformer: 64.55351814053373 kcal/mol)

>  <smiles>  (9) 
CC(CCc1ccccc1)NC(=O)c1ccccc1NC(=O)NCc1ccc(NS(C)(=O)=O)cc1

>  <score_type>  (9) 
oracle

>  <origin>  (9) 
adg

>  <m_score__min__energy>  (9) 
-14.33

>  <m_primary>  (9) 
energy

$$$$
9:0
     RDKit          3D

 52 55  0  0  0  0  0  0  0  0999 V2000
   59.3190   28.5390   48.1630 O   0  0  0  0  0  0  0  0  0  0  0  0
   60.0930   27.5950   48.4690 C   0  0  0  0  0  0  0  0  0  0  0  0
   60.3190   26.5690   47.4910 N   0  0  0  0  0  0  0  0  0  0  0  0
   59.4360   26.2360   46.3800 C   0  0  0  0  0  0  0  0  0  0  0  0
   58.9910   27.5010   45.7060 C   0  0  0  0  0  0  0  0  0  0  0  0
   59.9350   28.4900   45.3520 C   0  0  0  0  0  0  0  0  0  0  0  0
   59.5190   29.6890   44.7510 C   0  0  0  0  0  0  0  0  0  0  0  0
   58.1520   29.8850   44.5320 C   0  0  0  0  0  0  0  0  0  0  0  0
   57.2340   28.9310   44.8730 C   0  0  0  0  0  0  0  0  0  0  0  0
   57.6200   27.7310   45.4700 C   0  0  0  0  0  0  0  0  0  0  0  0
   55.8600   29.3720   44.5100 C   0  0  0  0  0  0  0  0  0  0  0  0
   56.0860   30.7680   43.8830 C   0  0  0  0  0  0  0  0  0  0  0  0
   57.5330   31.0090   43.9230 N   0  0  0  0  0  0  0  0  0  0  0  0
   58.1260   32.3100   43.7780 C   0  0  0  0  0  0  0  0  0  0  0  0
   58.3660   32.7590   42.6250 O   0  0  0  0  0  0  0  0  0  0  0  0
   58.4890   33.1190   44.9610 C   0  0  0  0  0  0  0  0  0  0  0  0
   59.2740   34.2780   44.8250 C   0  0  0  0  0  0  0  0  0  0  0  0
   59.6220   35.0320   45.9510 C   0  0  0  0  0  0  0  0  0  0  0  0
   59.2000   34.6320   47.2200 C   0  0  0  0  0  0  0  0  0  0  0  0
   58.4330   33.4730   47.3680 C   0  0  0  0  0  0  0  0  0  0  0  0
   58.0830   32.7150   46.2470 C   0  0  0  0  0  0  0  0  0  0  0  0
   60.7460   27.5830   49.8030 C   0  0  0  0  0  0  0  0  0  0  0  0
   60.8250   26.5050   50.4480 O   0  0  0  0  0  0  0  0  0  0  0  0
   61.3100   28.7620   50.3930 N   0  0  0  0  0  0  0  0  0  0  0  0
   61.3310   30.0920   49.7980 C   0  0  0  0  0  0  0  0  0  0  0  0
   60.1500   30.8810   50.2960 C   0  0  0  0  0  0  0  0  0  0  0  0
   59.0290   30.2040   50.8070 C   0  0  0  0  0  0  0  0  0  0  0  0
   57.9130   30.9170   51.2530 C   0  0  0  0  0  0  0  0  0  0  0  0
   57.8990   32.3100   51.1840 C   0  0  0  0  0  0  0  0  0  0  0  0
   59.0000   32.9950   50.6660 C   0  0  0  0  0  0  0  0  0  0  0  0
   60.1240   32.2920   50.2170 C   0  0  0  0  0  0  0  0  0  0  0  0
   61.4750   33.2070   49.5550 Cl  0  0  0  0  0  0  0  0  0  0  0  0
   59.9751   25.6047   45.6582 H   0  0  0  0  0  0  0  0  0  0  0  0
   58.5585   25.6899   46.7566 H   0  0  0  0  0  0  0  0  0  0  0  0
   61.0039   28.3198   45.5485 H   0  0  0  0  0  0  0  0  0  0  0  0
   60.2514   30.4561   44.4593 H   0  0  0  0  0  0  0  0  0  0  0  0
   56.8690   26.9782   45.7514 H   0  0  0  0  0  0  0  0  0  0  0  0
   55.4045   28.6831   43.7834 H   0  0  0  0  0  0  0  0  0  0  0  0
   55.1743   29.3931   45.3699 H   0  0  0  0  0  0  0  0  0  0  0  0
   55.7264   30.7812   42.8435 H   0  0  0  0  0  0  0  0  0  0  0  0
   55.5361   31.5464   44.4323 H   0  0  0  0  0  0  0  0  0  0  0  0
   59.6161   34.5933   43.8282 H   0  0  0  0  0  0  0  0  0  0  0  0
   60.2294   35.9419   45.8360 H   0  0  0  0  0  0  0  0  0  0  0  0
   59.4710   35.2288   48.1034 H   0  0  0  0  0  0  0  0  0  0  0  0
   58.1041   33.1567   48.3689 H   0  0  0  0  0  0  0  0  0  0  0  0
   57.4875   31.7984   46.3702 H   0  0  0  0  0  0  0  0  0  0  0  0
   62.2614   30.6060   50.0810 H   0  0  0  0  0  0  0  0  0  0  0  0
   61.2796   30.0054   48.7026 H   0  0  0  0  0  0  0  0  0  0  0  0
   59.0303   29.1051   50.8561 H   0  0  0  0  0  0  0  0  0  0  0  0
   57.0440   30.3787   51.6592 H   0  0  0  0  0  0  0  0  0  0  0  0
   57.0203   32.8692   51.5378 H   0  0  0  0  0  0  0  0  0  0  0  0
   58.9839   34.0935   50.6105 H   0  0  0  0  0  0  0  0  0  0  0  0
  1  2  2  0
  2  3  1  0
  3  4  1  0
  4  5  1  0
  5  6  2  0
  6  7  1  0
  7  8  2  0
  8  9  1  0
  9 10  2  0
  9 11  1  0
 11 12  1  0
 12 13  1  0
 13 14  1  0
 14 15  2  0
 14 16  1  0
 16 17  2  0
 17 18  1  0
 18 19  2  0
 19 20  1  0
 20 21  2  0
  2 22  1  0
 22 23  2  0
 22 24  1  0
 24 25  1  0
 25 26  1  0
 26 27  2  0
 27 28  1  0
 28 29  2  0
 29 30  1  0
 30 31  2  0
 31 32  1  0
 10  5  1  0
 21 16  1  0
 31 26  1  0
 13  8  1  0
  4 33  1  0
  4 34  1  0
  6 35  1  0
  7 36  1  0
 10 37  1  0
 11 38  1  0
 11 39  1  0
 12 40  1  0
 12 41  1  0
 17 42  1  0
 18 43  1  0
 19 44  1  0
 20 45  1  0
 21 46  1  0
 25 47  1  0
 25 48  1  0
 27 49  1  0
 28 50  1  0
 29 51  1  0
 30 52  1  0
M  CHG  2   3  -1  24  -1
M  END
>  <UniqueID>  (10) 
10

>  <SMILES>  (10) 
O=C([N-]Cc1ccc2c(c1)CCN2C(=O)c1ccccc1)C(=O)[N-]Cc1ccccc1Cl

>  <Energy>  (10) 
76.47071899068673

>  <Genealogy>  (10) 
O=C([N-]Cc1ccc2c(c1)CCN2C(=O)c1ccccc1)C(=O)[N-]Cc1ccccc1Cl (protonated)
O=C([N-]Cc1ccc2c(c1)CCN2C(=O)c1ccccc1)C(=O)[N-]Cc1ccccc1Cl (3D coordinates assigned)
O=C([N-]Cc1ccc2c(c1)CCN2C(=O)c1ccccc1)C(=O)[N-]Cc1ccccc1Cl (nonaromatic ring conformer: 76.47071899068673 kcal/mol)

>  <smiles>  (10) 
O=C(NCc1ccc2c(c1)CCN2C(=O)c1ccccc1)C(=O)NCc1ccccc1Cl

>  <score_type>  (10) 
oracle

>  <origin>  (10) 
adg

>  <m_score__min__energy>  (10) 
-12.82

>  <m_primary>  (10) 
energy

$$$$
10:0
     RDKit          3D

 45 47  0  0  0  0  0  0  0  0999 V2000
   63.8510   31.4780   51.4420 C   0  0  0  0  0  0  0  0  0  0  0  0
   63.0330   32.6470   51.0680 N   0  0  0  0  0  0  0  0  0  0  0  0
   62.7080   33.4290   52.2730 C   0  0  0  0  0  0  0  0  0  0  0  0
   63.7340   33.5030   50.0850 C   0  0  0  0  0  0  0  0  0  0  0  0
   63.0450   33.4960   48.7500 C   0  0  0  0  0  0  0  0  0  0  0  0
   63.5240   34.0720   47.5910 C   0  0  0  0  0  0  0  0  0  0  0  0
   62.5590   33.8390   46.6340 C   0  0  0  0  0  0  0  0  0  0  0  0
   61.5470   33.1390   47.2730 C   0  0  0  0  0  0  0  0  0  0  0  0
   60.2780   32.6580   46.6770 C   0  0  0  0  0  0  0  0  0  0  0  0
   59.6450   31.4900   47.1380 C   0  0  0  0  0  0  0  0  0  0  0  0
   58.4500   31.0540   46.5580 C   0  0  0  0  0  0  0  0  0  0  0  0
   57.8650   31.7810   45.5070 C   0  0  0  0  0  0  0  0  0  0  0  0
   56.6370   31.3740   44.8880 N   0  0  0  0  0  0  0  0  0  0  0  0
   56.3740   29.8560   44.0910 S   0  0  0  0  0  0  0  0  0  0  0  0
   54.9740   29.3920   44.3720 O   0  0  0  0  0  0  0  0  0  0  0  0
   56.5380   30.0530   42.6090 O   0  0  0  0  0  0  0  0  0  0  0  0
   57.5080   28.6450   44.6900 C   0  0  0  0  0  0  0  0  0  0  0  0
   58.8840   28.8170   44.4820 C   0  0  0  0  0  0  0  0  0  0  0  0
   59.7920   27.8640   44.9510 C   0  0  0  0  0  0  0  0  0  0  0  0
   59.3320   26.7350   45.6340 C   0  0  0  0  0  0  0  0  0  0  0  0
   57.9630   26.5610   45.8530 C   0  0  0  0  0  0  0  0  0  0  0  0
   57.0500   27.5140   45.3870 C   0  0  0  0  0  0  0  0  0  0  0  0
   55.7260   27.3310   45.6210 F   0  0  0  0  0  0  0  0  0  0  0  0
   58.4940   32.9430   45.0480 C   0  0  0  0  0  0  0  0  0  0  0  0
   59.6880   33.3800   45.6270 C   0  0  0  0  0  0  0  0  0  0  0  0
   61.8710   32.9530   48.5340 O   0  0  0  0  0  0  0  0  0  0  0  0
   63.9036   31.4029   52.5382 H   0  0  0  0  0  0  0  0  0  0  0  0
   63.3939   30.5647   51.0334 H   0  0  0  0  0  0  0  0  0  0  0  0
   64.8656   31.5946   51.0334 H   0  0  0  0  0  0  0  0  0  0  0  0
   62.1330   32.3070   50.6540 H   0  0  0  0  0  0  0  0  0  0  0  0
   62.9527   32.8401   53.1693 H   0  0  0  0  0  0  0  0  0  0  0  0
   63.2936   34.3601   52.2748 H   0  0  0  0  0  0  0  0  0  0  0  0
   61.6349   33.6708   52.2748 H   0  0  0  0  0  0  0  0  0  0  0  0
   63.7617   34.5344   50.4663 H   0  0  0  0  0  0  0  0  0  0  0  0
   64.7505   33.1056   49.9480 H   0  0  0  0  0  0  0  0  0  0  0  0
   64.4767   34.6056   47.4583 H   0  0  0  0  0  0  0  0  0  0  0  0
   62.5865   34.1461   45.5781 H   0  0  0  0  0  0  0  0  0  0  0  0
   60.0936   30.9149   47.9614 H   0  0  0  0  0  0  0  0  0  0  0  0
   57.9653   30.1376   46.9259 H   0  0  0  0  0  0  0  0  0  0  0  0
   59.2502   29.7059   43.9474 H   0  0  0  0  0  0  0  0  0  0  0  0
   60.8701   28.0027   44.7824 H   0  0  0  0  0  0  0  0  0  0  0  0
   60.0474   25.9835   45.9991 H   0  0  0  0  0  0  0  0  0  0  0  0
   57.6020   25.6731   46.3928 H   0  0  0  0  0  0  0  0  0  0  0  0
   58.0449   33.5174   44.2244 H   0  0  0  0  0  0  0  0  0  0  0  0
   60.1699   34.2971   45.2573 H   0  0  0  0  0  0  0  0  0  0  0  0
  1  2  1  0
  2  3  1  0
  2  4  1  0
  4  5  1  0
  5  6  2  0
  6  7  1  0
  7  8  2  0
  8  9  1  0
  9 10  2  0
 10 11  1  0
 11 12  2  0
 12 13  1  0
 13 14  1  0
 14 15  2  0
 14 16  2  0
 14 17  1  0
 17 18  2  0
 18 19  1  0
 19 20  2  0
 20 21  1  0
 21 22  2  0
 22 23  1  0
 12 24  1  0
 24 25  2  0
  8 26  1  0
 26  5  1  0
 25  9  1  0
 22 17  1  0
  1 27  1  0
  1 28  1  0
  1 29  1  0
  2 30  1  0
  3 31  1  0
  3 32  1  0
  3 33  1  0
  4 34  1  0
  4 35  1  0
  6 36  1  0
  7 37  1  0
 10 38  1  0
 11 39  1  0
 18 40  1  0
 19 41  1  0
 20 42  1  0
 21 43  1  0
 24 44  1  0
 25 45  1  0
M  CHG  2   2   1  13  -1
M  END
>  <UniqueID>  (11) 
11

>  <SMILES>  (11) 
C[NH+](C)Cc1ccc(-c2ccc([N-]S(=O)(=O)c3ccccc3F)cc2)o1

>  <Energy>  (11) 
77.28607397605687

>  <Genealogy>  (11) 
C[NH+](C)Cc1ccc(-c2ccc([N-]S(=O)(=O)c3ccccc3F)cc2)o1 (protonated)
C[NH+](C)Cc1ccc(-c2ccc([N-]S(=O)(=O)c3ccccc3F)cc2)o1 (3D coordinates assigned)
C[NH+](C)Cc1ccc(-c2ccc([N-]S(=O)(=O)c3ccccc3F)cc2)o1 (optimized conformer: 77.28607397605687 kcal/mol)

>  <smiles>  (11) 
CN(C)Cc1ccc(-c2ccc(NS(=O)(=O)c3ccccc3F)cc2)o1

>  <score_type>  (11) 
oracle

>  <origin>  (11) 
adg

>  <m_score__min__energy>  (11) 
-8.1500000000000004

>  <m_primary>  (11) 
energy

$$$$
11:0
     RDKit          3D

 55 58  0  0  0  0  0  0  0  0999 V2000
   59.2850   35.5660   44.8490 C   0  0  0  0  0  0  0  0  0  0  0  0
   58.8130   34.2290   45.3230 C   0  0  0  0  0  0  0  0  0  0  0  0
   58.2170   33.0150   44.3240 S   0  0  0  0  0  0  0  0  0  0  0  0
   57.9100   31.9020   45.5500 C   0  0  0  0  0  0  0  0  0  0  0  0
   57.3840   30.5420   45.3400 C   0  0  0  0  0  0  0  0  0  0  0  0
   56.2900   30.3950   44.7300 O   0  0  0  0  0  0  0  0  0  0  0  0
   58.0800   29.3960   45.8560 N   0  0  0  0  0  0  0  0  0  0  0  0
   57.8570   28.0520   45.3970 C   0  0  0  0  0  0  0  0  0  0  0  0
   58.1230   27.6770   44.0710 C   0  0  0  0  0  0  0  0  0  0  0  0
   57.9250   26.3590   43.6530 C   0  0  0  0  0  0  0  0  0  0  0  0
   57.4620   25.3670   44.5490 C   0  0  0  0  0  0  0  0  0  0  0  0
   57.2540   23.9880   44.1130 N   0  0  0  0  0  0  0  0  0  0  0  0
   56.2990   23.7100   43.0190 C   0  0  0  0  0  0  0  0  0  0  0  0
   56.2530   22.2370   42.6080 C   0  0  0  0  0  0  0  0  0  0  0  0
   56.3430   21.3990   43.7340 O   0  0  0  0  0  0  0  0  0  0  0  0
   57.6430   21.5020   44.2610 C   0  0  0  0  0  0  0  0  0  0  0  0
   57.8830   22.8860   44.8730 C   0  0  0  0  0  0  0  0  0  0  0  0
   57.2240   25.7570   45.8880 C   0  0  0  0  0  0  0  0  0  0  0  0
   57.4250   27.0770   46.3020 C   0  0  0  0  0  0  0  0  0  0  0  0
   58.2780   32.4700   46.7670 C   0  0  0  0  0  0  0  0  0  0  0  0
   58.7710   33.7800   46.6450 C   0  0  0  0  0  0  0  0  0  0  0  0
   59.2780   34.5650   47.8230 C   0  0  0  0  0  0  0  0  0  0  0  0
   59.9650   33.6380   48.8290 C   0  0  0  0  0  0  0  0  0  0  0  0
   61.2540   33.1050   48.2630 C   0  0  0  0  0  0  0  0  0  0  0  0
   62.3920   33.9270   48.1990 C   0  0  0  0  0  0  0  0  0  0  0  0
   63.5970   33.4210   47.7000 C   0  0  0  0  0  0  0  0  0  0  0  0
   63.6770   32.0930   47.2740 C   0  0  0  0  0  0  0  0  0  0  0  0
   62.5540   31.2650   47.3490 C   0  0  0  0  0  0  0  0  0  0  0  0
   61.3460   31.7660   47.8460 C   0  0  0  0  0  0  0  0  0  0  0  0
   59.5102   36.2040   45.7163 H   0  0  0  0  0  0  0  0  0  0  0  0
   60.1930   35.4399   44.2410 H   0  0  0  0  0  0  0  0  0  0  0  0
   58.4991   36.0379   44.2410 H   0  0  0  0  0  0  0  0  0  0  0  0
   58.7110   29.5310   46.6770 H   0  0  0  0  0  0  0  0  0  0  0  0
   58.4904   28.4270   43.3551 H   0  0  0  0  0  0  0  0  0  0  0  0
   58.1330   26.0873   42.6076 H   0  0  0  0  0  0  0  0  0  0  0  0
   55.2939   24.0107   43.3496 H   0  0  0  0  0  0  0  0  0  0  0  0
   56.6378   24.2801   42.1414 H   0  0  0  0  0  0  0  0  0  0  0  0
   55.3055   22.0382   42.0858 H   0  0  0  0  0  0  0  0  0  0  0  0
   57.1070   22.0298   41.9464 H   0  0  0  0  0  0  0  0  0  0  0  0
   57.7764   20.7369   45.0400 H   0  0  0  0  0  0  0  0  0  0  0  0
   58.3638   21.3520   43.4437 H   0  0  0  0  0  0  0  0  0  0  0  0
   57.4738   22.8902   45.8940 H   0  0  0  0  0  0  0  0  0  0  0  0
   58.9687   23.0618   44.8560 H   0  0  0  0  0  0  0  0  0  0  0  0
   56.8750   25.0092   46.6153 H   0  0  0  0  0  0  0  0  0  0  0  0
   57.2414   27.3519   47.3511 H   0  0  0  0  0  0  0  0  0  0  0  0
   58.1912   31.9446   47.7295 H   0  0  0  0  0  0  0  0  0  0  0  0
   59.9997   35.3178   47.4729 H   0  0  0  0  0  0  0  0  0  0  0  0
   58.4265   35.0567   48.3161 H   0  0  0  0  0  0  0  0  0  0  0  0
   60.1794   34.1995   49.7502 H   0  0  0  0  0  0  0  0  0  0  0  0
   59.2962   32.7921   49.0462 H   0  0  0  0  0  0  0  0  0  0  0  0
   62.3352   34.9706   48.5420 H   0  0  0  0  0  0  0  0  0  0  0  0
   64.4832   34.0701   47.6430 H   0  0  0  0  0  0  0  0  0  0  0  0
   64.6250   31.6988   46.8791 H   0  0  0  0  0  0  0  0  0  0  0  0
   62.6198   30.2184   47.0170 H   0  0  0  0  0  0  0  0  0  0  0  0
   60.4655   31.1099   47.9106 H   0  0  0  0  0  0  0  0  0  0  0  0
  1  2  1  0
  2  3  1  0
  3  4  1  0
  4  5  1  0
  5  6  2  0
  5  7  1  0
  7  8  1  0
  8  9  2  0
  9 10  1  0
 10 11  2  0
 11 12  1  0
 12 13  1  0
 13 14  1  0
 14 15  1  0
 15 16  1  0
 16 17  1  0
 11 18  1  0
 18 19  2  0
  4 20  2  0
 20 21  1  0
 21 22  1  0
 22 23  1  0
 23 24  1  0
 24 25  2  0
 25 26  1  0
 26 27  2  0
 27 28  1  0
 28 29  2  0
 21  2  2  0
 29 24  1  0
 19  8  1  0
 17 12  1  0
  1 30  1  0
  1 31  1  0
  1 32  1  0
  7 33  1  0
  9 34  1  0
 10 35  1  0
 13 36  1  0
 13 37  1  0
 14 38  1  0
 14 39  1  0
 16 40  1  0
 16 41  1  0
 17 42  1  0
 17 43  1  0
 18 44  1  0
 19 45  1  0
 20 46  1  0
 22 47  1  0
 22 48  1  0
 23 49  1  0
 23 50  1  0
 25 51  1  0
 26 52  1  0
 27 53  1  0
 28 54  1  0
 29 55  1  0
M  END
>  <UniqueID>  (12) 
12

>  <SMILES>  (12) 
Cc1sc(C(=O)Nc2ccc(N3CCOCC3)cc2)cc1CCc1ccccc1

>  <Energy>  (12) 
90.23943498995483

>  <Genealogy>  (12) 
Cc1sc(C(=O)Nc2ccc(N3CCOCC3)cc2)cc1CCc1ccccc1 (3D coordinates assigned)
Cc1sc(C(=O)Nc2ccc(N3CCOCC3)cc2)cc1CCc1ccccc1 (nonaromatic ring conformer: 90.23943498995483 kcal/mol)

>  <smiles>  (12) 
Cc1sc(C(=O)Nc2ccc(N3CCOCC3)cc2)cc1CCc1ccccc1

>  <score_type>  (12) 
oracle

>  <origin>  (12) 
adg

>  <m_score__min__energy>  (12) 
-10.06

>  <m_primary>  (12) 
energy

$$$$
12:0
     RDKit          3D

 36 38  0  0  0  0  0  0  0  0999 V2000
   55.8920   23.3390   44.3080 C   0  0  0  0  0  0  0  0  0  0  0  0
   56.0200   24.1300   45.5750 C   0  0  0  0  0  0  0  0  0  0  0  0
   55.0320   24.2130   46.3510 O   0  0  0  0  0  0  0  0  0  0  0  0
   57.2380   24.7970   45.9250 N   0  0  0  0  0  0  0  0  0  0  0  0
   57.4550   26.2060   45.7830 C   0  0  0  0  0  0  0  0  0  0  0  0
   58.7670   26.6770   45.6650 C   0  0  0  0  0  0  0  0  0  0  0  0
   59.0170   28.0400   45.4960 C   0  0  0  0  0  0  0  0  0  0  0  0
   57.9540   28.9590   45.4530 C   0  0  0  0  0  0  0  0  0  0  0  0
   58.2040   30.4090   45.2570 C   0  0  0  0  0  0  0  0  0  0  0  0
   57.9350   30.9960   44.0780 C   0  0  0  0  0  0  0  0  0  0  0  0
   58.1540   32.4640   43.8130 C   0  0  0  0  0  0  0  0  0  0  0  0
   58.8000   33.2110   44.9530 C   0  0  0  0  0  0  0  0  0  0  0  0
   59.1110   34.5710   44.8010 C   0  0  0  0  0  0  0  0  0  0  0  0
   59.6940   35.2840   45.8530 C   0  0  0  0  0  0  0  0  0  0  0  0
   60.0020   36.6300   45.6960 O   0  0  0  0  0  0  0  0  0  0  0  0
   59.9660   34.6420   47.0650 C   0  0  0  0  0  0  0  0  0  0  0  0
   59.6580   33.2890   47.2260 C   0  0  0  0  0  0  0  0  0  0  0  0
   59.0750   32.5690   46.1720 C   0  0  0  0  0  0  0  0  0  0  0  0
   58.7590   31.1830   46.3340 N   0  0  0  0  0  0  0  0  0  0  0  0
   56.6390   28.4860   45.5980 C   0  0  0  0  0  0  0  0  0  0  0  0
   56.3840   27.1220   45.7820 C   0  0  0  0  0  0  0  0  0  0  0  0
   55.0670   26.7120   45.9890 O   0  0  0  0  0  0  0  0  0  0  0  0
   55.7207   22.2803   44.5524 H   0  0  0  0  0  0  0  0  0  0  0  0
   55.0441   23.7216   43.7209 H   0  0  0  0  0  0  0  0  0  0  0  0
   56.8173   23.4347   43.7209 H   0  0  0  0  0  0  0  0  0  0  0  0
   59.6074   25.9685   45.7057 H   0  0  0  0  0  0  0  0  0  0  0  0
   60.0525   28.3973   45.3958 H   0  0  0  0  0  0  0  0  0  0  0  0
   57.5344   30.3732   43.2646 H   0  0  0  0  0  0  0  0  0  0  0  0
   58.7993   32.5617   42.9275 H   0  0  0  0  0  0  0  0  0  0  0  0
   57.1589   32.9098   43.6681 H   0  0  0  0  0  0  0  0  0  0  0  0
   58.8950   35.0787   43.8494 H   0  0  0  0  0  0  0  0  0  0  0  0
   60.4233   35.2033   47.8931 H   0  0  0  0  0  0  0  0  0  0  0  0
   59.8729   32.7870   48.1809 H   0  0  0  0  0  0  0  0  0  0  0  0
   58.9170   30.7310   47.2620 H   0  0  0  0  0  0  0  0  0  0  0  0
   55.7996   29.1962   45.5665 H   0  0  0  0  0  0  0  0  0  0  0  0
   54.8330   25.8430   46.4530 H   0  0  0  0  0  0  0  0  0  0  0  0
  1  2  1  0
  2  3  2  0
  2  4  1  0
  4  5  1  0
  5  6  2  0
  6  7  1  0
  7  8  2  0
  8  9  1  0
  9 10  2  0
 10 11  1  0
 11 12  1  0
 12 13  2  0
 13 14  1  0
 14 15  1  0
 14 16  2  0
 16 17  1  0
 17 18  2  0
 18 19  1  0
  8 20  1  0
 20 21  2  0
 21 22  1  0
 21  5  1  0
 19  9  1  0
 18 12  1  0
  1 23  1  0
  1 24  1  0
  1 25  1  0
  6 26  1  0
  7 27  1  0
 10 28  1  0
 11 29  1  0
 11 30  1  0
 13 31  1  0
 16 32  1  0
 17 33  1  0
 19 34  1  0
 20 35  1  0
 22 36  1  0
M  CHG  2   4  -1  15  -1
M  END
>  <UniqueID>  (13) 
13

>  <SMILES>  (13) 
CC(=O)[N-]c1ccc(C2=CCc3cc([O-])ccc3N2)cc1O

>  <Energy>  (13) 
50.21535792641289

>  <Genealogy>  (13) 
CC(=O)[N-]c1ccc(C2=CCc3cc([O-])ccc3N2)cc1O (protonated)
CC(=O)[N-]c1ccc(C2=CCc3cc([O-])ccc3N2)cc1O (3D coordinates assigned)
CC(=O)[N-]c1ccc(C2=CCc3cc([O-])ccc3N2)cc1O (nonaromatic ring conformer: 50.21535792641289 kcal/mol)

>  <smiles>  (13) 
CC(=O)Nc1ccc(C2=CCc3cc(O)ccc3N2)cc1O

>  <score_type>  (13) 
oracle

>  <origin>  (13) 
adg

>  <m_score__min__energy>  (13) 
-10.109999999999999

>  <m_primary>  (13) 
energy

$$$$
13:0
     RDKit          3D

 60 63  0  0  0  0  0  0  0  0999 V2000
   57.3782   29.9996   42.6811 H   0  0  0  0  0  0  0  0  0  0  0  0
   57.3910   30.0000   43.7810 C   0  0  0  0  0  0  0  0  0  0  0  0
   56.2110   29.5040   44.5090 C   0  0  0  0  0  0  0  0  0  0  0  0
   55.1760   30.2190   44.5320 O   0  0  0  0  0  0  0  0  0  0  0  0
   56.2150   28.2710   45.2460 N   0  0  0  0  0  0  0  0  0  0  0  0
   57.3320   27.3340   45.3740 C   0  0  0  0  0  0  0  0  0  0  0  0
   56.9406   26.3455   45.6563 H   0  0  0  0  0  0  0  0  0  0  0  0
   57.8558   27.2823   44.4081 H   0  0  0  0  0  0  0  0  0  0  0  0
   58.3100   27.7930   46.4230 C   0  0  0  0  0  0  0  0  0  0  0  0
   58.0960   28.9910   47.1210 C   0  0  0  0  0  0  0  0  0  0  0  0
   57.2203   29.6130   46.8839 H   0  0  0  0  0  0  0  0  0  0  0  0
   58.9890   29.3990   48.1160 C   0  0  0  0  0  0  0  0  0  0  0  0
   58.8034   30.3329   48.6667 H   0  0  0  0  0  0  0  0  0  0  0  0
   60.1230   28.6240   48.4180 C   0  0  0  0  0  0  0  0  0  0  0  0
   61.0680   29.0370   49.4850 C   0  0  0  0  0  0  0  0  0  0  0  0
   61.1670   28.3370   50.5300 O   0  0  0  0  0  0  0  0  0  0  0  0
   61.8930   30.2040   49.3340 N   0  0  0  0  0  0  0  0  0  0  0  0
   62.0850   30.5610   48.3720 H   0  0  0  0  0  0  0  0  0  0  0  0
   62.5120   30.8690   50.4500 C   0  0  0  0  0  0  0  0  0  0  0  0
   63.8720   31.2220   50.3860 C   0  0  0  0  0  0  0  0  0  0  0  0
   64.4421   31.0310   49.4649 H   0  0  0  0  0  0  0  0  0  0  0  0
   64.5050   31.8130   51.4820 C   0  0  0  0  0  0  0  0  0  0  0  0
   65.5677   32.0900   51.4193 H   0  0  0  0  0  0  0  0  0  0  0  0
   63.7910   32.0520   52.6550 C   0  0  0  0  0  0  0  0  0  0  0  0
   64.2913   32.5158   53.5179 H   0  0  0  0  0  0  0  0  0  0  0  0
   62.4400   31.7030   52.7360 C   0  0  0  0  0  0  0  0  0  0  0  0
   61.8826   31.8905   53.6656 H   0  0  0  0  0  0  0  0  0  0  0  0
   61.7890   31.1150   51.6400 C   0  0  0  0  0  0  0  0  0  0  0  0
   60.3910   30.8110   51.7440 N   0  0  0  0  0  0  0  0  0  0  0  0
   59.6880   31.5280   52.0240 H   0  0  0  0  0  0  0  0  0  0  0  0
   60.0510   29.8330   51.6080 H   0  0  0  0  0  0  0  0  0  0  0  0
   60.3370   27.4290   47.7110 C   0  0  0  0  0  0  0  0  0  0  0  0
   61.2170   26.8102   47.9403 H   0  0  0  0  0  0  0  0  0  0  0  0
   59.4410   27.0190   46.7180 C   0  0  0  0  0  0  0  0  0  0  0  0
   59.6247   26.0853   46.1663 H   0  0  0  0  0  0  0  0  0  0  0  0
   58.4780   30.4510   44.4170 C   0  0  0  0  0  0  0  0  0  0  0  0
   59.3759   29.8155   44.4226 H   0  0  0  0  0  0  0  0  0  0  0  0
   58.5430   31.7580   45.1150 C   0  0  0  0  0  0  0  0  0  0  0  0
   57.6290   32.8150   44.8490 C   0  0  0  0  0  0  0  0  0  0  0  0
   56.8388   32.6740   44.0968 H   0  0  0  0  0  0  0  0  0  0  0  0
   57.7240   34.0390   45.5370 C   0  0  0  0  0  0  0  0  0  0  0  0
   57.0186   34.8585   45.3348 H   0  0  0  0  0  0  0  0  0  0  0  0
   58.7370   34.1820   46.4810 C   0  0  0  0  0  0  0  0  0  0  0  0
   59.6270   33.1740   46.7370 C   0  0  0  0  0  0  0  0  0  0  0  0
   59.5690   31.9520   46.0680 C   0  0  0  0  0  0  0  0  0  0  0  0
   60.3027   31.1593   46.2764 H   0  0  0  0  0  0  0  0  0  0  0  0
   60.4970   33.6430   47.7020 C   0  0  0  0  0  0  0  0  0  0  0  0
   61.6980   32.9460   48.2680 C   0  0  0  0  0  0  0  0  0  0  0  0
   61.4400   31.8988   48.4842 H   0  0  0  0  0  0  0  0  0  0  0  0
   62.0049   33.4599   49.1909 H   0  0  0  0  0  0  0  0  0  0  0  0
   62.8620   32.9830   47.2700 C   0  0  0  0  0  0  0  0  0  0  0  0
   63.5989   33.7271   47.6064 H   0  0  0  0  0  0  0  0  0  0  0  0
   62.4626   33.2505   46.2806 H   0  0  0  0  0  0  0  0  0  0  0  0
   63.5140   31.6810   47.1670 N   0  0  0  0  0  0  0  0  0  0  0  0
   64.5140   31.8240   46.8960 H   0  0  0  0  0  0  0  0  0  0  0  0
   63.0540   31.1310   46.4060 H   0  0  0  0  0  0  0  0  0  0  0  0
   60.0910   34.9470   47.9720 C   0  0  0  0  0  0  0  0  0  0  0  0
   60.5807   35.6210   48.6903 H   0  0  0  0  0  0  0  0  0  0  0  0
   59.0090   35.2680   47.2260 N   0  0  0  0  0  0  0  0  0  0  0  0
   58.5010   36.1790   47.2210 H   0  0  0  0  0  0  0  0  0  0  0  0
  1  2  1  0
  2  3  1  0
  3  4  2  0
  3  5  1  0
  5  6  1  0
  6  7  1  0
  6  8  1  0
  6  9  1  0
  9 10  2  0
 10 11  1  0
 10 12  1  0
 12 13  1  0
 12 14  2  0
 14 15  1  0
 15 16  2  0
 15 17  1  0
 17 18  1  0
 17 19  1  0
 19 20  2  0
 20 21  1  0
 20 22  1  0
 22 23  1  0
 22 24  2  0
 24 25  1  0
 24 26  1  0
 26 27  1  0
 26 28  2  0
 28 29  1  0
 29 30  1  0
 29 31  1  0
 14 32  1  0
 32 33  1  0
 32 34  2  0
 34 35  1  0
  2 36  2  0
 36 37  1  0
 36 38  1  0
 38 39  2  0
 39 40  1  0
 39 41  1  0
 41 42  1  0
 41 43  2  0
 43 44  1  0
 44 45  2  0
 45 46  1  0
 44 47  1  0
 47 48  1  0
 48 49  1  0
 48 50  1  0
 48 51  1  0
 51 52  1  0
 51 53  1  0
 51 54  1  0
 54 55  1  0
 54 56  1  0
 47 57  2  0
 57 58  1  0
 57 59  1  0
 59 60  1  0
 34  9  1  0
 45 38  1  0
 28 19  1  0
 59 43  1  0
M  CHG  1   5  -1
M  END
>  <UniqueID>  (14) 
14

>  <SMILES>  (14) 
NCCc1c[nH]c2ccc(/C=C/C(=O)[N-]Cc3ccc(C(=O)Nc4ccccc4N)cc3)cc12

>  <Energy>  (14) 
103.17665443719625

>  <Genealogy>  (14) 
NCCc1c[nH]c2ccc(C=CC(=O)[N-]Cc3ccc(C(=O)Nc4ccccc4N)cc3)cc12 (protonated)
NCCc1c[nH]c2ccc(/C=C/C(=O)[N-]Cc3ccc(C(=O)Nc4ccccc4N)cc3)cc12 (cis-trans isomerization)
NCCc1c[nH]c2ccc(/C=C/C(=O)[N-]Cc3ccc(C(=O)Nc4ccccc4N)cc3)cc12 (3D coordinates assigned)
NCCc1c[nH]c2ccc(/C=C/C(=O)[N-]Cc3ccc(C(=O)Nc4ccccc4N)cc3)cc12 (optimized conformer: 103.17665443719625 kcal/mol)

>  <smiles>  (14) 
NCCc1c[nH]c2ccc(C=CC(=O)NCc3ccc(C(=O)Nc4ccccc4N)cc3)cc12

>  <score_type>  (14) 
oracle

>  <origin>  (14) 
adg

>  <m_score__min__energy>  (14) 
-11.06

>  <m_primary>  (14) 
energy

$$$$
14:0
     RDKit          3D

 51 54  0  0  0  0  0  0  0  0999 V2000
   60.0870   34.2280   48.6760 C   0  0  0  0  0  0  0  0  0  0  0  0
   59.3250   34.7310   47.5010 C   0  0  0  0  0  0  0  0  0  0  0  0
   58.4770   33.5170   46.5630 S   0  0  0  0  0  0  0  0  0  0  0  0
   58.5710   32.2210   47.3590 O   0  0  0  0  0  0  0  0  0  0  0  0
   56.9880   33.8020   46.4860 O   0  0  0  0  0  0  0  0  0  0  0  0
   59.1560   33.1860   45.0330 N   0  0  0  0  0  0  0  0  0  0  0  0
   58.2430   33.2020   43.9370 C   0  0  0  0  0  0  0  0  0  0  0  0
   57.7100   31.8320   43.7260 C   0  0  0  0  0  0  0  0  0  0  0  0
   57.1540   31.5690   42.4770 C   0  0  0  0  0  0  0  0  0  0  0  0
   56.6410   30.3150   42.2460 C   0  0  0  0  0  0  0  0  0  0  0  0
   56.6800   29.3360   43.2420 C   0  0  0  0  0  0  0  0  0  0  0  0
   57.2240   29.5750   44.4830 C   0  0  0  0  0  0  0  0  0  0  0  0
   57.2690   28.6290   45.5690 C   0  0  0  0  0  0  0  0  0  0  0  0
   56.3220   27.7670   45.6210 O   0  0  0  0  0  0  0  0  0  0  0  0
   58.2690   28.5440   46.6130 C   0  0  0  0  0  0  0  0  0  0  0  0
   59.1180   29.5800   46.8740 N   0  0  0  0  0  0  0  0  0  0  0  0
   59.8960   29.1910   47.9120 C   0  0  0  0  0  0  0  0  0  0  0  0
   60.9730   29.9720   48.5620 C   0  0  0  0  0  0  0  0  0  0  0  0
   61.3350   29.7530   49.8700 C   0  0  0  0  0  0  0  0  0  0  0  0
   62.3280   30.4500   50.5220 C   0  0  0  0  0  0  0  0  0  0  0  0
   63.0090   31.4300   49.8330 C   0  0  0  0  0  0  0  0  0  0  0  0
   64.0050   32.1340   50.4740 C   0  0  0  0  0  0  0  0  0  0  0  0
   64.7040   33.1270   49.7940 C   0  0  0  0  0  0  0  0  0  0  0  0
   64.3810   33.3900   48.4730 C   0  0  0  0  0  0  0  0  0  0  0  0
   63.3780   32.6750   47.8400 C   0  0  0  0  0  0  0  0  0  0  0  0
   62.6690   31.6770   48.5130 C   0  0  0  0  0  0  0  0  0  0  0  0
   61.6600   30.9580   47.8730 C   0  0  0  0  0  0  0  0  0  0  0  0
   59.5520   27.9330   48.3100 C   0  0  0  0  0  0  0  0  0  0  0  0
   58.5430   27.5570   47.4890 N   0  0  0  0  0  0  0  0  0  0  0  0
   57.7340   30.8470   44.6890 C   0  0  0  0  0  0  0  0  0  0  0  0
   59.5913   34.5552   49.6019 H   0  0  0  0  0  0  0  0  0  0  0  0
   60.1217   33.1289   48.6474 H   0  0  0  0  0  0  0  0  0  0  0  0
   61.1113   34.6281   48.6474 H   0  0  0  0  0  0  0  0  0  0  0  0
   58.5817   35.4551   47.8660 H   0  0  0  0  0  0  0  0  0  0  0  0
   60.0750   35.1623   46.8217 H   0  0  0  0  0  0  0  0  0  0  0  0
   59.5370   32.1990   45.0940 H   0  0  0  0  0  0  0  0  0  0  0  0
   57.4135   33.8894   44.1591 H   0  0  0  0  0  0  0  0  0  0  0  0
   58.7621   33.5408   43.0283 H   0  0  0  0  0  0  0  0  0  0  0  0
   57.1260   32.3436   41.6965 H   0  0  0  0  0  0  0  0  0  0  0  0
   56.1957   30.0800   41.2680 H   0  0  0  0  0  0  0  0  0  0  0  0
   56.2621   28.3415   43.0270 H   0  0  0  0  0  0  0  0  0  0  0  0
   60.7986   28.9731   50.4304 H   0  0  0  0  0  0  0  0  0  0  0  0
   62.5725   30.2289   51.5714 H   0  0  0  0  0  0  0  0  0  0  0  0
   64.2477   31.9111   51.5235 H   0  0  0  0  0  0  0  0  0  0  0  0
   65.5006   33.6941   50.2978 H   0  0  0  0  0  0  0  0  0  0  0  0
   64.9248   34.1721   47.9230 H   0  0  0  0  0  0  0  0  0  0  0  0
   63.1356   32.8965   46.7901 H   0  0  0  0  0  0  0  0  0  0  0  0
   61.4102   31.1733   46.8236 H   0  0  0  0  0  0  0  0  0  0  0  0
   59.9998   27.3470   49.1261 H   0  0  0  0  0  0  0  0  0  0  0  0
   58.0850   26.6370   47.5820 H   0  0  0  0  0  0  0  0  0  0  0  0
   58.1789   31.0812   45.6674 H   0  0  0  0  0  0  0  0  0  0  0  0
  1  2  1  0
  2  3  1  0
  3  4  2  0
  3  5  2  0
  3  6  1  0
  6  7  1  0
  7  8  1  0
  8  9  2  0
  9 10  1  0
 10 11  2  0
 11 12  1  0
 12 13  1  0
 13 14  2  0
 13 15  1  0
 15 16  2  0
 16 17  1  0
 17 18  1  0
 18 19  2  0
 19 20  1  0
 20 21  2  0
 21 22  1  0
 22 23  2  0
 23 24  1  0
 24 25  2  0
 25 26  1  0
 26 27  2  0
 17 28  2  0
 28 29  1  0
 12 30  2  0
 30  8  1  0
 29 15  1  0
 27 18  1  0
 26 21  1  0
  1 31  1  0
  1 32  1  0
  1 33  1  0
  2 34  1  0
  2 35  1  0
  6 36  1  0
  7 37  1  0
  7 38  1  0
  9 39  1  0
 10 40  1  0
 11 41  1  0
 19 42  1  0
 20 43  1  0
 22 44  1  0
 23 45  1  0
 24 46  1  0
 25 47  1  0
 27 48  1  0
 28 49  1  0
 29 50  1  0
 30 51  1  0
M  END
>  <smiles>  (15) 
CCS(=O)(=O)NCc1cccc(C(=O)c2nc(-c3ccc4ccccc4c3)c[nH]2)c1

>  <score_type>  (15) 
oracle

>  <origin>  (15) 
adg

>  <m_score__min__energy>  (15) 
-10.050000000000001

>  <m_primary>  (15) 
energy

$$$$
15:0
     RDKit          3D

 48 51  0  0  0  0  0  0  0  0999 V2000
   62.4300   31.4720   49.3220 O   0  0  0  0  0  0  0  0  0  0  0  0
   61.3270   31.5850   48.7250 C   0  0  0  0  0  0  0  0  0  0  0  0
   61.1120   30.8500   47.4290 C   0  0  0  0  0  0  0  0  0  0  0  0
   59.8200   31.2050   46.8480 N   0  0  0  0  0  0  0  0  0  0  0  0
   58.8180   30.2850   46.4060 C   0  0  0  0  0  0  0  0  0  0  0  0
   58.8230   29.0520   46.6650 O   0  0  0  0  0  0  0  0  0  0  0  0
   57.8260   30.9780   45.5980 C   0  0  0  0  0  0  0  0  0  0  0  0
   56.8060   30.4800   45.0530 O   0  0  0  0  0  0  0  0  0  0  0  0
   58.2710   32.3600   45.5340 C   0  0  0  0  0  0  0  0  0  0  0  0
   57.7250   33.4540   44.8660 C   0  0  0  0  0  0  0  0  0  0  0  0
   58.3990   34.6830   44.9510 C   0  0  0  0  0  0  0  0  0  0  0  0
   59.5960   34.7930   45.6890 C   0  0  0  0  0  0  0  0  0  0  0  0
   60.1310   33.6740   46.3510 C   0  0  0  0  0  0  0  0  0  0  0  0
   59.4450   32.4600   46.2630 C   0  0  0  0  0  0  0  0  0  0  0  0
   60.2970   32.3820   49.3240 N   0  0  0  0  0  0  0  0  0  0  0  0
   59.2600   31.9160   50.1980 C   0  0  0  0  0  0  0  0  0  0  0  0
   58.5890   32.8410   51.0060 C   0  0  0  0  0  0  0  0  0  0  0  0
   57.5560   32.4250   51.8500 C   0  0  0  0  0  0  0  0  0  0  0  0
   57.1750   31.0740   51.8910 C   0  0  0  0  0  0  0  0  0  0  0  0
   56.0770   30.6230   52.7690 C   0  0  0  0  0  0  0  0  0  0  0  0
   56.0690   30.9880   53.9740 O   0  0  0  0  0  0  0  0  0  0  0  0
   54.9960   29.8150   52.2880 N   0  0  0  0  0  0  0  0  0  0  0  0
   54.0770   30.2010   51.2240 C   0  0  0  0  0  0  0  0  0  0  0  0
   52.7720   30.6310   51.8270 C   0  0  0  0  0  0  0  0  0  0  0  0
   52.0480   29.7530   52.6490 C   0  0  0  0  0  0  0  0  0  0  0  0
   50.8480   30.1660   53.2380 C   0  0  0  0  0  0  0  0  0  0  0  0
   50.3710   31.4610   53.0190 C   0  0  0  0  0  0  0  0  0  0  0  0
   51.0940   32.3480   52.2150 C   0  0  0  0  0  0  0  0  0  0  0  0
   50.6220   33.6380   52.0050 O   0  0  0  0  0  0  0  0  0  0  0  0
   52.2940   31.9370   51.6240 C   0  0  0  0  0  0  0  0  0  0  0  0
   57.8110   30.1570   51.0420 C   0  0  0  0  0  0  0  0  0  0  0  0
   58.8450   30.5740   50.1990 C   0  0  0  0  0  0  0  0  0  0  0  0
   61.9122   31.1184   46.7235 H   0  0  0  0  0  0  0  0  0  0  0  0
   61.1280   29.7680   47.6267 H   0  0  0  0  0  0  0  0  0  0  0  0
   56.7934   33.3578   44.2890 H   0  0  0  0  0  0  0  0  0  0  0  0
   57.9905   35.5663   44.4383 H   0  0  0  0  0  0  0  0  0  0  0  0
   60.1147   35.7613   45.7470 H   0  0  0  0  0  0  0  0  0  0  0  0
   61.0666   33.7523   46.9241 H   0  0  0  0  0  0  0  0  0  0  0  0
   58.8767   33.9023   50.9765 H   0  0  0  0  0  0  0  0  0  0  0  0
   57.0388   33.1592   52.4852 H   0  0  0  0  0  0  0  0  0  0  0  0
   54.5087   31.0342   50.6500 H   0  0  0  0  0  0  0  0  0  0  0  0
   53.9088   29.3449   50.5540 H   0  0  0  0  0  0  0  0  0  0  0  0
   52.4258   28.7360   52.8308 H   0  0  0  0  0  0  0  0  0  0  0  0
   50.2798   29.4710   53.8737 H   0  0  0  0  0  0  0  0  0  0  0  0
   49.4255   31.7832   53.4796 H   0  0  0  0  0  0  0  0  0  0  0  0
   52.8652   32.6386   50.9983 H   0  0  0  0  0  0  0  0  0  0  0  0
   57.4944   29.1035   51.0394 H   0  0  0  0  0  0  0  0  0  0  0  0
   59.3357   29.8484   49.5337 H   0  0  0  0  0  0  0  0  0  0  0  0
  1  2  2  0
  2  3  1  0
  3  4  1  0
  4  5  1  0
  5  6  2  0
  5  7  1  0
  7  8  2  0
  7  9  1  0
  9 10  2  0
 10 11  1  0
 11 12  2  0
 12 13  1  0
 13 14  2  0
  2 15  1  0
 15 16  1  0
 16 17  2  0
 17 18  1  0
 18 19  2  0
 19 20  1  0
 20 21  2  0
 20 22  1  0
 22 23  1  0
 23 24  1  0
 24 25  2  0
 25 26  1  0
 26 27  2  0
 27 28  1  0
 28 29  1  0
 28 30  2  0
 19 31  1  0
 31 32  2  0
 14  4  1  0
 32 16  1  0
 14  9  1  0
 30 24  1  0
  3 33  1  0
  3 34  1  0
 10 35  1  0
 11 36  1  0
 12 37  1  0
 13 38  1  0
 17 39  1  0
 18 40  1  0
 23 41  1  0
 23 42  1  0
 25 43  1  0
 26 44  1  0
 27 45  1  0
 30 46  1  0
 31 47  1  0
 32 48  1  0
M  CHG  3  15  -1  22  -1  29  -1
M  END
>  <UniqueID>  (16) 
15

>  <SMILES>  (16) 
O=C(CN1C(=O)C(=O)c2ccccc21)[N-]c1ccc(C(=O)[N-]Cc2cccc([O-])c2)cc1

>  <Energy>  (16) 
91.64234677324775

>  <Genealogy>  (16) 
O=C(CN1C(=O)C(=O)c2ccccc21)[N-]c1ccc(C(=O)[N-]Cc2cccc([O-])c2)cc1 (protonated)
O=C(CN1C(=O)C(=O)c2ccccc21)[N-]c1ccc(C(=O)[N-]Cc2cccc([O-])c2)cc1 (3D coordinates assigned)
O=C(CN1C(=O)C(=O)c2ccccc21)[N-]c1ccc(C(=O)[N-]Cc2cccc([O-])c2)cc1 (nonaromatic ring conformer: 91.64234677324775 kcal/mol)

>  <smiles>  (16) 
O=C(CN1C(=O)C(=O)c2ccccc21)Nc1ccc(C(=O)NCc2cccc(O)c2)cc1

>  <score_type>  (16) 
oracle

>  <origin>  (16) 
adg

>  <m_score__min__energy>  (16) 
-15.23

>  <m_primary>  (16) 
energy

$$$$
16:0
     RDKit          3D

 53 56  0  0  0  0  0  0  0  0999 V2000
   62.9000   33.6110   46.6600 C   0  0  0  0  0  0  0  0  0  0  0  0
   63.2190   33.5500   48.1280 C   0  0  0  0  0  0  0  0  0  0  0  0
   64.4760   33.0920   48.5580 C   0  0  0  0  0  0  0  0  0  0  0  0
   64.7770   33.0270   49.9200 C   0  0  0  0  0  0  0  0  0  0  0  0
   66.3510   32.4570   50.4460 Cl  0  0  0  0  0  0  0  0  0  0  0  0
   63.8260   33.4210   50.8640 C   0  0  0  0  0  0  0  0  0  0  0  0
   62.5710   33.8720   50.4500 C   0  0  0  0  0  0  0  0  0  0  0  0
   62.2540   33.9380   49.0790 C   0  0  0  0  0  0  0  0  0  0  0  0
   61.0000   34.3820   48.6290 O   0  0  0  0  0  0  0  0  0  0  0  0
   59.7500   33.8610   49.0690 C   0  0  0  0  0  0  0  0  0  0  0  0
   59.3940   32.6750   48.2360 C   0  0  0  0  0  0  0  0  0  0  0  0
   60.2820   31.7680   47.6990 C   0  0  0  0  0  0  0  0  0  0  0  0
   59.4810   30.9240   46.9550 C   0  0  0  0  0  0  0  0  0  0  0  0
   59.9480   29.7470   46.1940 C   0  0  0  0  0  0  0  0  0  0  0  0
   61.1430   29.7290   45.7910 O   0  0  0  0  0  0  0  0  0  0  0  0
   59.0810   28.6300   45.8990 N   0  0  0  0  0  0  0  0  0  0  0  0
   58.2700   27.9980   46.9470 C   0  0  0  0  0  0  0  0  0  0  0  0
   57.0770   27.2690   46.3240 C   0  0  0  0  0  0  0  0  0  0  0  0
   56.5750   28.0330   45.2480 O   0  0  0  0  0  0  0  0  0  0  0  0
   57.4540   27.9710   44.1300 C   0  0  1  0  0  0  0  0  0  0  0  0
   57.0250   29.0580   43.1300 C   0  0  0  0  0  0  0  0  0  0  0  0
   57.1130   30.3900   43.7240 N   0  0  0  0  0  0  0  0  0  0  0  0
   58.0730   31.3070   43.5080 C   0  0  0  0  0  0  0  0  0  0  0  0
   57.7520   32.3840   44.3040 C   0  0  0  0  0  0  0  0  0  0  0  0
   58.5480   33.6390   44.4690 C   0  0  0  0  0  0  0  0  0  0  0  0
   58.4300   34.1160   45.7830 O   0  0  0  0  0  0  0  0  0  0  0  0
   56.6260   32.0930   44.9870 N   0  0  0  0  0  0  0  0  0  0  0  0
   56.2580   30.8760   44.6100 N   0  0  0  0  0  0  0  0  0  0  0  0
   58.9530   28.1250   44.5260 C   0  0  0  0  0  0  0  0  0  0  0  0
   58.1960   31.3180   47.0530 N   0  0  0  0  0  0  0  0  0  0  0  0
   58.1440   32.3920   47.8250 N   0  0  0  0  0  0  0  0  0  0  0  0
   61.8276   33.8161   46.5260 H   0  0  0  0  0  0  0  0  0  0  0  0
   63.4882   34.4129   46.1900 H   0  0  0  0  0  0  0  0  0  0  0  0
   63.1508   32.6486   46.1900 H   0  0  0  0  0  0  0  0  0  0  0  0
   65.2277   32.7827   47.8169 H   0  0  0  0  0  0  0  0  0  0  0  0
   64.0663   33.3759   51.9365 H   0  0  0  0  0  0  0  0  0  0  0  0
   61.8255   34.1776   51.1989 H   0  0  0  0  0  0  0  0  0  0  0  0
   59.8274   33.5600   50.1242 H   0  0  0  0  0  0  0  0  0  0  0  0
   58.9715   34.6315   48.9680 H   0  0  0  0  0  0  0  0  0  0  0  0
   61.3731   31.7261   47.8319 H   0  0  0  0  0  0  0  0  0  0  0  0
   58.8890   27.2759   47.4996 H   0  0  0  0  0  0  0  0  0  0  0  0
   57.8986   28.7750   47.6313 H   0  0  0  0  0  0  0  0  0  0  0  0
   57.3993   26.2836   45.9564 H   0  0  0  0  0  0  0  0  0  0  0  0
   56.2899   27.1355   47.0807 H   0  0  0  0  0  0  0  0  0  0  0  0
   57.3768   26.9736   43.6726 H   0  0  0  0  0  0  0  0  0  0  0  0
   57.6825   29.0143   42.2492 H   0  0  0  0  0  0  0  0  0  0  0  0
   55.9789   28.8736   42.8442 H   0  0  0  0  0  0  0  0  0  0  0  0
   58.9373   31.2155   42.8338 H   0  0  0  0  0  0  0  0  0  0  0  0
   59.6058   33.4300   44.2515 H   0  0  0  0  0  0  0  0  0  0  0  0
   58.1662   34.4012   43.7739 H   0  0  0  0  0  0  0  0  0  0  0  0
   58.0220   33.3840   46.3160 H   0  0  0  0  0  0  0  0  0  0  0  0
   59.4472   27.1449   44.4548 H   0  0  0  0  0  0  0  0  0  0  0  0
   59.4264   28.8435   43.8407 H   0  0  0  0  0  0  0  0  0  0  0  0
  1  2  1  0
  2  3  2  0
  3  4  1  0
  4  5  1  0
  4  6  2  0
  6  7  1  0
  7  8  2  0
  8  9  1  0
  9 10  1  0
 10 11  1  0
 11 12  2  0
 12 13  1  0
 13 14  1  0
 14 15  2  0
 14 16  1  0
 16 17  1  0
 17 18  1  0
 18 19  1  0
 19 20  1  0
 20 21  1  0
 21 22  1  0
 22 23  1  0
 23 24  2  0
 24 25  1  0
 25 26  1  0
 24 27  1  0
 27 28  2  0
 20 29  1  0
 13 30  2  0
 30 31  1  0
  8  2  1  0
 31 11  1  0
 29 16  1  0
 28 22  1  0
  1 32  1  0
  1 33  1  0
  1 34  1  0
  3 35  1  0
  6 36  1  0
  7 37  1  0
 10 38  1  0
 10 39  1  0
 12 40  1  0
 17 41  1  0
 17 42  1  0
 18 43  1  0
 18 44  1  0
 20 45  1  6
 21 46  1  0
 21 47  1  0
 23 48  1  0
 25 49  1  0
 25 50  1  0
 26 51  1  0
 29 52  1  0
 29 53  1  0
M  CHG  1  31  -1
M  END
>  <UniqueID>  (17) 
16

>  <SMILES>  (17) 
Cc1cc(Cl)ccc1OCc1cc(C(=O)N2CCO[C@@H](Cn3cc(CO)nn3)C2)n[n-]1

>  <Energy>  (17) 
124.90872758225389

>  <Genealogy>  (17) 
Cc1cc(Cl)ccc1OCc1cc(C(=O)N2CCOC(Cn3cc(CO)nn3)C2)n[n-]1 (protonated)
Cc1cc(Cl)ccc1OCc1cc(C(=O)N2CCO[C@@H](Cn3cc(CO)nn3)C2)n[n-]1 (chirality)
Cc1cc(Cl)ccc1OCc1cc(C(=O)N2CCO[C@@H](Cn3cc(CO)nn3)C2)n[n-]1 (3D coordinates assigned)
Cc1cc(Cl)ccc1OCc1cc(C(=O)N2CCO[C@@H](Cn3cc(CO)nn3)C2)n[n-]1 (nonaromatic ring conformer: 124.90872758225389 kcal/mol)

>  <smiles>  (17) 
Cc1cc(Cl)ccc1OCc1cc(C(=O)N2CCOC(Cn3cc(CO)nn3)C2)n[nH]1

>  <score_type>  (17) 
oracle

>  <origin>  (17) 
adg

>  <m_score__min__energy>  (17) 
-11.960000000000001

>  <m_primary>  (17) 
energy

$$$$
17:0
     RDKit          3D

 57 60  0  0  1  0  0  0  0  0999 V2000
   57.9840   31.9420   44.2880 C   0  0  0  0  0  0  0  0  0  0  0  0
   58.5490   31.0240   45.3180 C   0  0  0  0  0  0  0  0  0  0  0  0
   59.6500   31.3720   46.0550 C   0  0  0  0  0  0  0  0  0  0  0  0
   60.1840   30.5100   47.0040 C   0  0  0  0  0  0  0  0  0  0  0  0
   59.6570   29.2880   47.2540 C   0  0  0  0  0  0  0  0  0  0  0  0
   58.9330   32.5500   49.0940 N   0  0  0  0  0  0  0  0  0  0  0  0
   58.5110   31.8280   50.0920 C   0  0  0  0  0  0  0  0  0  0  0  0
   61.3340   29.8310   49.5200 N   0  0  0  0  0  0  0  0  0  0  0  0
   61.8840   30.0760   50.7110 C   0  0  0  0  0  0  0  0  0  0  0  0
   62.4610   31.2510   51.1220 O   0  0  0  0  0  0  0  0  0  0  0  0
   62.0730   32.5520   50.7860 C   0  0  0  0  0  0  0  0  0  0  0  0
   62.3300   32.9030   49.3500 C   0  0  0  0  0  0  0  0  0  0  0  0
   63.4970   32.7650   48.6850 C   0  0  0  0  0  0  0  0  0  0  0  0
   63.6240   33.1220   47.3450 C   0  0  0  0  0  0  0  0  0  0  0  0
   62.5440   33.6250   46.6660 C   0  0  0  0  0  0  0  0  0  0  0  0
   61.3540   33.7650   47.3500 C   0  0  0  0  0  0  0  0  0  0  0  0
   61.1960   33.4210   48.6850 C   0  0  0  0  0  0  0  0  0  0  0  0
   59.9060   33.5960   49.3200 C   0  0  0  0  0  0  0  0  0  0  0  0
   59.5630   34.5600   50.0360 O   0  0  0  0  0  0  0  0  0  0  0  0
   60.0700   28.3500   48.2360 N   0  0  0  0  0  0  0  0  0  0  0  0
   60.7850   28.6580   49.2550 C   0  0  0  0  0  0  0  0  0  0  0  0
   57.8670   32.4200   51.1470 C   0  0  0  0  0  0  0  0  0  0  0  0
   57.3900   31.7280   52.2440 C   0  0  0  0  0  0  0  0  0  0  0  0
   57.5850   30.3550   52.2560 C   0  0  0  0  0  0  0  0  0  0  0  0
   57.1360   29.5850   53.3110 F   0  0  0  0  0  0  0  0  0  0  0  0
   61.3170   27.8380   51.4290 C   0  0  0  0  0  0  0  0  0  0  0  0
   60.7840   27.6700   50.2100 N   0  0  0  0  0  0  0  0  0  0  0  0
   61.8830   29.0650   51.7010 C   0  0  0  0  0  0  0  0  0  0  0  0
   58.2320   29.7680   51.1930 C   0  0  0  0  0  0  0  0  0  0  0  0
   58.6910   30.4800   50.1260 N   0  0  0  0  0  0  0  0  0  0  0  0
   58.5430   28.9150   46.5200 C   0  0  0  0  0  0  0  0  0  0  0  0
   57.9930   29.7890   45.5540 C   0  0  0  0  0  0  0  0  0  0  0  0
   56.5550   29.3240   44.6810 S   0  0  0  0  0  0  0  0  0  0  0  0
   56.9670   29.0640   43.0070 N   0  0  0  0  0  0  0  0  0  0  0  0
   55.8840   28.1160   45.2470 O   0  0  0  0  0  0  0  0  0  0  0  0
   55.5960   30.4920   44.6780 O   0  0  0  0  0  0  0  0  0  0  0  0
   57.4695   32.7779   44.7845 H   0  0  0  0  0  0  0  0  0  0  0  0
   58.7977   32.3334   43.6598 H   0  0  0  0  0  0  0  0  0  0  0  0
   57.2679   31.3919   43.6598 H   0  0  0  0  0  0  0  0  0  0  0  0
   60.1202   32.3530   45.8920 H   0  0  0  0  0  0  0  0  0  0  0  0
   61.0681   30.8320   47.5738 H   0  0  0  0  0  0  0  0  0  0  0  0
   60.9955   32.6552   50.9818 H   0  0  0  0  0  0  0  0  0  0  0  0
   62.6769   33.2374   51.3989 H   0  0  0  0  0  0  0  0  0  0  0  0
   64.3709   32.3597   49.2160 H   0  0  0  0  0  0  0  0  0  0  0  0
   64.5894   33.0007   46.8319 H   0  0  0  0  0  0  0  0  0  0  0  0
   62.6241   33.9088   45.6063 H   0  0  0  0  0  0  0  0  0  0  0  0
   60.4859   34.1701   46.8093 H   0  0  0  0  0  0  0  0  0  0  0  0
   57.7212   33.5099   51.1190 H   0  0  0  0  0  0  0  0  0  0  0  0
   56.8786   32.2431   53.0705 H   0  0  0  0  0  0  0  0  0  0  0  0
   61.3031   27.0327   52.1782 H   0  0  0  0  0  0  0  0  0  0  0  0
   60.3560   26.7320   50.0250 H   0  0  0  0  0  0  0  0  0  0  0  0
   62.3331   29.2579   52.6860 H   0  0  0  0  0  0  0  0  0  0  0  0
   58.3850   28.6788   51.2052 H   0  0  0  0  0  0  0  0  0  0  0  0
   59.1840   30.0060   49.3340 H   0  0  0  0  0  0  0  0  0  0  0  0
   58.0824   27.9307   46.6900 H   0  0  0  0  0  0  0  0  0  0  0  0
   57.9870   29.2830   42.8830 H   0  0  0  0  0  0  0  0  0  0  0  0
   56.7300   28.1250   42.6700 H   0  0  0  0  0  0  0  0  0  0  0  0
  1  2  1  0
  2  3  2  0
  3  4  1  0
  4  5  2  0
  5  6  1  0
  6  7  2  0
  7  8  1  0
  8  9  2  0
  9 10  1  0
 10 11  1  0
 11 12  1  0
 12 13  2  0
 13 14  1  0
 14 15  2  0
 15 16  1  0
 16 17  2  0
 17 18  1  0
 18 19  2  0
 18 20  1  0
 20 21  2  0
 21 22  1  0
 22 23  2  0
 23 24  1  0
 24 25  1  0
 24 26  2  0
 26 27  1  0
  9 28  1  0
 28 29  2  0
 29 30  1  0
  5 31  1  0
 31 32  2  0
 32 33  1  0
 33 34  1  0
 33 35  2  0
 33 36  2  0
 32  2  1  0
 30  7  1  0
 17 12  1  0
 27 21  1  0
  1 37  1  0
  1 38  1  0
  1 39  1  0
  3 40  1  0
  4 41  1  0
 11 42  1  0
 11 43  1  0
 13 44  1  0
 14 45  1  0
 15 46  1  0
 16 47  1  0
 22 48  1  0
 23 49  1  0
 26 50  1  0
 27 51  1  0
 28 52  1  0
 29 53  1  0
 30 54  1  0
 31 55  1  0
 34 56  1  0
 34 57  1  0
M  END
>  <smiles>  (18) 
Cc1ccc(N=c2nc(OCc3ccccc3C(=O)N=c3ccc(F)c[nH]3)cc[nH]2)cc1S(N)(=O)=O

>  <score_type>  (18) 
oracle

>  <origin>  (18) 
adg

>  <m_score__min__energy>  (18) 
-11.359999999999999

>  <m_primary>  (18) 
energy

$$$$
18:0
     RDKit          3D

 52 55  0  0  0  0  0  0  0  0999 V2000
   55.1510   27.0470   45.3190 H   0  0  0  0  0  0  0  0  0  0  0  0
   54.7930   26.3290   45.9870 N   0  0  0  0  0  0  0  0  0  0  0  0
   54.8140   24.9400   45.6500 C   0  0  0  0  0  0  0  0  0  0  0  0
   53.9770   24.1510   46.1680 O   0  0  0  0  0  0  0  0  0  0  0  0
   55.8480   24.4130   44.7090 C   0  0  0  0  0  0  0  0  0  0  0  0
   55.9252   25.0793   43.8372 H   0  0  0  0  0  0  0  0  0  0  0  0
   55.5616   23.4054   44.3733 H   0  0  0  0  0  0  0  0  0  0  0  0
   57.1370   24.3530   45.3930 N   0  0  0  0  0  0  0  0  0  0  0  0
   57.7600   25.3920   45.8630 C   0  0  0  0  0  0  0  0  0  0  0  0
   58.3890   26.2660   45.0370 N   0  0  0  0  0  0  0  0  0  0  0  0
   59.0450   27.3520   45.5200 C   0  0  0  0  0  0  0  0  0  0  0  0
   59.6490   28.1860   44.6390 N   0  0  0  0  0  0  0  0  0  0  0  0
   60.3180   29.2910   45.0360 C   0  0  0  0  0  0  0  0  0  0  0  0
   60.7925   29.9427   44.2876 H   0  0  0  0  0  0  0  0  0  0  0  0
   60.4090   29.6080   46.3900 C   0  0  0  0  0  0  0  0  0  0  0  0
   61.1470   30.7970   46.7630 C   0  0  0  0  0  0  0  0  0  0  0  0
   61.7360   31.7480   47.0640 N   0  0  0  0  0  0  0  0  0  0  0  0
   59.8040   28.7790   47.3660 C   0  0  0  0  0  0  0  0  0  0  0  0
   59.9570   29.1590   48.6130 N   0  0  0  0  0  0  0  0  0  0  0  0
   59.0940   29.8290   49.5770 C   0  0  0  0  0  0  0  0  0  0  0  0
   58.0405   29.6682   49.3045 H   0  0  0  0  0  0  0  0  0  0  0  0
   59.2703   29.4212   50.5833 H   0  0  0  0  0  0  0  0  0  0  0  0
   59.4020   31.3050   49.5610 C   0  0  0  0  0  0  0  0  0  0  0  0
   58.8480   32.1120   48.5500 C   0  0  0  0  0  0  0  0  0  0  0  0
   58.2155   31.6558   47.7742 H   0  0  0  0  0  0  0  0  0  0  0  0
   59.0950   33.4950   48.5220 C   0  0  0  0  0  0  0  0  0  0  0  0
   58.5290   34.3450   47.5140 N   0  0  0  0  0  0  0  0  0  0  0  0
   57.9510   33.9070   46.2750 C   0  0  0  0  0  0  0  0  0  0  0  0
   56.7400   34.1440   46.0080 O   0  0  0  0  0  0  0  0  0  0  0  0
   58.8080   33.2190   45.2590 C   0  0  0  0  0  0  0  0  0  0  0  0
   59.1934   33.9626   44.5459 H   0  0  0  0  0  0  0  0  0  0  0  0
   59.6436   32.7218   45.7733 H   0  0  0  0  0  0  0  0  0  0  0  0
   58.0090   32.1880   44.5160 C   0  0  0  0  0  0  0  0  0  0  0  0
   57.4360   31.1570   45.2020 N   0  0  0  0  0  0  0  0  0  0  0  0
   56.7280   30.1810   44.5700 C   0  0  0  0  0  0  0  0  0  0  0  0
   56.2727   29.3672   45.1534 H   0  0  0  0  0  0  0  0  0  0  0  0
   56.5790   30.2120   43.1800 C   0  0  0  0  0  0  0  0  0  0  0  0
   55.8780   29.2400   42.5440 F   0  0  0  0  0  0  0  0  0  0  0  0
   57.1600   31.2550   42.4530 C   0  0  0  0  0  0  0  0  0  0  0  0
   57.0508   31.2919   41.3591 H   0  0  0  0  0  0  0  0  0  0  0  0
   57.8800   32.2510   43.1190 C   0  0  0  0  0  0  0  0  0  0  0  0
   58.3406   33.0753   42.5549 H   0  0  0  0  0  0  0  0  0  0  0  0
   59.9470   34.0580   49.4760 C   0  0  0  0  0  0  0  0  0  0  0  0
   60.1790   35.1325   49.4356 H   0  0  0  0  0  0  0  0  0  0  0  0
   60.5060   33.2640   50.4810 C   0  0  0  0  0  0  0  0  0  0  0  0
   61.1642   33.7193   51.2356 H   0  0  0  0  0  0  0  0  0  0  0  0
   60.2330   31.8950   50.5320 C   0  0  0  0  0  0  0  0  0  0  0  0
   60.7910   31.1490   51.5220 F   0  0  0  0  0  0  0  0  0  0  0  0
   59.0930   27.6090   46.9190 C   0  0  0  0  0  0  0  0  0  0  0  0
   58.4210   26.6720   47.7420 C   0  0  0  0  0  0  0  0  0  0  0  0
   58.4185   26.8106   48.8332 H   0  0  0  0  0  0  0  0  0  0  0  0
   57.7800   25.6050   47.2000 N   0  0  0  0  0  0  0  0  0  0  0  0
  1  2  1  0
  2  3  1  0
  3  4  2  0
  3  5  1  0
  5  6  1  0
  5  7  1  0
  5  8  1  0
  8  9  2  0
  9 10  1  0
 10 11  2  0
 11 12  1  0
 12 13  1  0
 13 14  1  0
 13 15  2  0
 15 16  1  0
 16 17  3  0
 15 18  1  0
 18 19  2  0
 19 20  1  0
 20 21  1  0
 20 22  1  0
 20 23  1  0
 23 24  2  0
 24 25  1  0
 24 26  1  0
 26 27  1  0
 27 28  1  0
 28 29  2  0
 28 30  1  0
 30 31  1  0
 30 32  1  0
 30 33  1  0
 33 34  2  0
 34 35  1  0
 35 36  1  0
 35 37  2  0
 37 38  1  0
 37 39  1  0
 39 40  1  0
 39 41  2  0
 41 42  1  0
 26 43  2  0
 43 44  1  0
 43 45  1  0
 45 46  1  0
 45 47  2  0
 47 48  1  0
 18 49  1  0
 49 50  2  0
 50 51  1  0
 50 52  1  0
 52  9  1  0
 49 11  1  0
 47 23  1  0
 41 33  1  0
M  CHG  4   2  -1  12  -1  27  -1  52  -1
M  END
>  <UniqueID>  (19) 
17

>  <SMILES>  (19) 
N#Cc1c[n-]c2n/c(=N\CC([NH-])=O)[n-]cc2/c1=N\Cc1cc([N-]C(=O)Cc2ccc(F)cn2)ccc1F

>  <Energy>  (19) 
75.78898044031546

>  <Genealogy>  (19) 
N#Cc1c[n-]c2nc(=NCC([NH-])=O)[n-]cc2c1=NCc1cc([N-]C(=O)Cc2ccc(F)cn2)ccc1F (protonated)
N#Cc1c[n-]c2n/c(=N\CC([NH-])=O)[n-]cc2/c1=N\Cc1cc([N-]C(=O)Cc2ccc(F)cn2)ccc1F (cis-trans isomerization)
N#Cc1c[n-]c2n/c(=N\CC([NH-])=O)[n-]cc2/c1=N\Cc1cc([N-]C(=O)Cc2ccc(F)cn2)ccc1F (3D coordinates assigned)
N#Cc1c[n-]c2n/c(=N\CC([NH-])=O)[n-]cc2/c1=N\Cc1cc([N-]C(=O)Cc2ccc(F)cn2)ccc1F (optimized conformer: 75.78898044031546 kcal/mol)

>  <smiles>  (19) 
N#Cc1c[nH]c2nc(=NCC(N)=O)[nH]cc2c1=NCc1cc(NC(=O)Cc2ccc(F)cn2)ccc1F

>  <score_type>  (19) 
oracle

>  <origin>  (19) 
adg

>  <m_score__min__energy>  (19) 
-15.77

>  <m_primary>  (19) 
energy

$$$$
19:0
     RDKit          3D

 42 45  0  0  0  0  0  0  0  0999 V2000
   54.6509   27.6807   53.3762 H   0  0  0  0  0  0  0  0  0  0  0  0
   54.2340   28.5650   52.8720 C   0  0  0  0  0  0  0  0  0  0  0  0
   53.1715   28.5865   52.5882 H   0  0  0  0  0  0  0  0  0  0  0  0
   55.0220   29.6180   52.6030 C   0  0  0  0  0  0  0  0  0  0  0  0
   54.6530   30.8170   51.9700 C   0  0  0  0  0  0  0  0  0  0  0  0
   53.5240   31.1680   51.3240 C   0  0  0  0  0  0  0  0  0  0  0  0
   53.5186   31.0619   50.2291 H   0  0  0  0  0  0  0  0  0  0  0  0
   52.2970   31.6810   51.9550 C   0  0  0  0  0  0  0  0  0  0  0  0
   51.8480   31.3110   53.1700 N   0  0  0  0  0  0  0  0  0  0  0  0
   50.6440   31.9170   53.2530 C   0  0  0  0  0  0  0  0  0  0  0  0
   49.9080   31.8220   54.2700 O   0  0  0  0  0  0  0  0  0  0  0  0
   50.2870   32.6220   52.1600 N   0  0  0  0  0  0  0  0  0  0  0  0
   51.3370   32.4490   51.3430 C   0  0  0  0  0  0  0  0  0  0  0  0
   51.4170   32.9770   50.0610 O   0  0  0  0  0  0  0  0  0  0  0  0
   55.7400   31.6690   52.0900 C   0  0  0  0  0  0  0  0  0  0  0  0
   55.7966   32.7117   51.7442 H   0  0  0  0  0  0  0  0  0  0  0  0
   56.7370   30.9590   52.7260 C   0  0  0  0  0  0  0  0  0  0  0  0
   58.1050   31.4900   53.0270 C   0  0  0  0  0  0  0  0  0  0  0  0
   58.2456   31.5446   54.1166 H   0  0  0  0  0  0  0  0  0  0  0  0
   58.8620   30.8204   52.5927 H   0  0  0  0  0  0  0  0  0  0  0  0
   58.2120   32.4950   52.5927 H   0  0  0  0  0  0  0  0  0  0  0  0
   56.3080   29.7140   53.0280 N   0  0  0  0  0  0  0  0  0  0  0  0
   57.0700   28.7250   53.7420 C   0  0  0  0  0  0  0  0  0  0  0  0
   56.6500   28.2850   55.0040 C   0  0  0  0  0  0  0  0  0  0  0  0
   55.7227   28.6818   55.4430 H   0  0  0  0  0  0  0  0  0  0  0  0
   57.4050   27.3450   55.7050 C   0  0  0  0  0  0  0  0  0  0  0  0
   57.0714   27.0024   56.6956 H   0  0  0  0  0  0  0  0  0  0  0  0
   58.5840   26.8370   55.1530 C   0  0  0  0  0  0  0  0  0  0  0  0
   59.1754   26.0981   55.7136 H   0  0  0  0  0  0  0  0  0  0  0  0
   59.0200   27.2640   53.8850 C   0  0  0  0  0  0  0  0  0  0  0  0
   60.2770   26.7470   53.2900 C   0  0  0  0  0  0  0  0  0  0  0  0
   61.1410   27.6160   52.6940 N   0  0  0  0  0  0  0  0  0  0  0  0
   62.3020   27.1880   52.1350 C   0  0  0  0  0  0  0  0  0  0  0  0
   62.9836   27.9090   51.6601 H   0  0  0  0  0  0  0  0  0  0  0  0
   62.6280   25.8350   52.1640 C   0  0  0  0  0  0  0  0  0  0  0  0
   63.5683   25.4727   51.7229 H   0  0  0  0  0  0  0  0  0  0  0  0
   61.7350   24.9510   52.7650 C   0  0  0  0  0  0  0  0  0  0  0  0
   61.9649   23.8757   52.7956 H   0  0  0  0  0  0  0  0  0  0  0  0
   60.5800   25.4130   53.3140 N   0  0  0  0  0  0  0  0  0  0  0  0
   59.9180   24.7190   53.7270 H   0  0  0  0  0  0  0  0  0  0  0  0
   58.2570   28.2220   53.1920 C   0  0  0  0  0  0  0  0  0  0  0  0
   58.5956   28.5798   52.2085 H   0  0  0  0  0  0  0  0  0  0  0  0
  1  2  1  0
  2  3  1  0
  2  4  2  0
  4  5  1  0
  5  6  2  0
  6  7  1  0
  6  8  1  0
  8  9  1  0
  9 10  1  0
 10 11  2  0
 10 12  1  0
 12 13  1  0
 13 14  1  0
  5 15  1  0
 15 16  1  0
 15 17  2  0
 17 18  1  0
 18 19  1  0
 18 20  1  0
 18 21  1  0
 17 22  1  0
 22 23  1  0
 23 24  2  0
 24 25  1  0
 24 26  1  0
 26 27  1  0
 26 28  2  0
 28 29  1  0
 28 30  1  0
 30 31  1  0
 31 32  2  0
 32 33  1  0
 33 34  1  0
 33 35  2  0
 35 36  1  0
 35 37  1  0
 37 38  1  0
 37 39  2  0
 39 40  1  0
 30 41  2  0
 41 42  1  0
 22  4  1  0
 41 23  1  0
 13  8  2  0
 39 31  1  0
M  CHG  4   9  -1  12  -1  14  -1  39   1
M  END
>  <UniqueID>  (20) 
18

>  <SMILES>  (20) 
C=c1/c(=C\c2[n-]c(=O)[n-]c2[O-])cc(C)n1-c1cccc(-c2nccc[nH+]2)c1

>  <Energy>  (20) 
125.63126136196311

>  <Genealogy>  (20) 
C=c1c(=Cc2[n-]c(=O)[n-]c2[O-])cc(C)n1-c1cccc(-c2nccc[nH+]2)c1 (protonated)
C=c1/c(=C\c2[n-]c(=O)[n-]c2[O-])cc(C)n1-c1cccc(-c2nccc[nH+]2)c1 (cis-trans isomerization)
C=c1/c(=C\c2[n-]c(=O)[n-]c2[O-])cc(C)n1-c1cccc(-c2nccc[nH+]2)c1 (3D coordinates assigned)
C=c1/c(=C\c2[n-]c(=O)[n-]c2[O-])cc(C)n1-c1cccc(-c2nccc[nH+]2)c1 (optimized conformer: 125.63126136196311 kcal/mol)

>  <smiles>  (20) 
C=c1c(=Cc2[nH]c(=O)[nH]c2O)cc(C)n1-c1cccc(-c2ncccn2)c1

>  <score_type>  (20) 
oracle

>  <origin>  (20) 
adg

>  <m_score__min__energy>  (20) 
-15.24

>  <m_primary>  (20) 
energy

$$$$
20:0
     RDKit          3D

 57 60  0  0  0  0  0  0  0  0999 V2000
   60.0050   29.7700   46.7850 C   0  0  0  0  0  0  0  0  0  0  0  0
   59.3650   30.7540   46.1320 C   0  0  0  0  0  0  0  0  0  0  0  0
   58.3880   30.6230   45.1290 C   0  0  0  0  0  0  0  0  0  0  0  0
   57.9390   29.5420   44.4620 C   0  0  0  0  0  0  0  0  0  0  0  0
   57.3940   28.3170   45.0760 C   0  0  0  0  0  0  0  0  0  0  0  0
   56.0120   28.1710   45.2550 C   0  0  0  0  0  0  0  0  0  0  0  0
   55.1400   29.1920   44.8960 O   0  0  0  0  0  0  0  0  0  0  0  0
   55.5150   27.0270   45.7930 N   0  0  0  0  0  0  0  0  0  0  0  0
   56.3350   26.0070   46.1510 C   0  0  0  0  0  0  0  0  0  0  0  0
   55.8520   24.9590   46.6530 O   0  0  0  0  0  0  0  0  0  0  0  0
   57.6760   26.1130   45.9620 N   0  0  0  0  0  0  0  0  0  0  0  0
   58.2220   27.2350   45.4250 C   0  0  0  0  0  0  0  0  0  0  0  0
   59.4690   27.2920   45.2450 O   0  0  0  0  0  0  0  0  0  0  0  0
   57.9030   31.9000   44.8940 C   0  0  0  0  0  0  0  0  0  0  0  0
   58.6150   32.7570   45.7050 C   0  0  0  0  0  0  0  0  0  0  0  0
   58.4270   34.2420   45.7520 C   0  0  0  0  0  0  0  0  0  0  0  0
   59.5010   32.0660   46.4540 N   0  0  0  0  0  0  0  0  0  0  0  0
   60.4060   32.6340   47.4190 C   0  0  0  0  0  0  0  0  0  0  0  0
   60.0880   32.6130   48.7840 C   0  0  0  0  0  0  0  0  0  0  0  0
   60.9660   33.1650   49.7190 C   0  0  0  0  0  0  0  0  0  0  0  0
   62.1740   33.7470   49.3000 C   0  0  0  0  0  0  0  0  0  0  0  0
   63.1090   34.3560   50.3130 C   0  0  0  0  0  0  0  0  0  0  0  0
   64.4770   33.8190   50.1580 N   0  0  0  0  0  0  0  0  0  0  0  0
   64.4610   32.3590   49.9320 C   0  0  0  0  0  0  0  0  0  0  0  0
   65.8550   31.7110   50.1590 C   0  0  2  0  0  0  0  0  0  0  0  0
   65.8880   30.7880   51.3840 C   0  0  0  0  0  0  0  0  0  0  0  0
   66.9260   32.6460   50.1760 O   0  0  0  0  0  0  0  0  0  0  0  0
   66.7470   33.7570   51.0510 C   0  0  2  0  0  0  0  0  0  0  0  0
   67.5670   33.5790   52.3310 C   0  0  0  0  0  0  0  0  0  0  0  0
   65.2800   34.1170   51.3470 C   0  0  0  0  0  0  0  0  0  0  0  0
   62.4870   33.7720   47.9320 C   0  0  0  0  0  0  0  0  0  0  0  0
   61.6090   33.2160   46.9980 C   0  0  0  0  0  0  0  0  0  0  0  0
   60.7529   30.0155   47.5533 H   0  0  0  0  0  0  0  0  0  0  0  0
   59.7812   28.7186   46.5514 H   0  0  0  0  0  0  0  0  0  0  0  0
   57.9828   29.5761   43.3634 H   0  0  0  0  0  0  0  0  0  0  0  0
   57.1017   32.1769   44.1931 H   0  0  0  0  0  0  0  0  0  0  0  0
   58.3851   34.5733   46.8001 H   0  0  0  0  0  0  0  0  0  0  0  0
   59.2700   34.7345   45.2452 H   0  0  0  0  0  0  0  0  0  0  0  0
   57.4879   34.5089   45.2452 H   0  0  0  0  0  0  0  0  0  0  0  0
   59.1435   32.1601   49.1198 H   0  0  0  0  0  0  0  0  0  0  0  0
   60.7106   33.1440   50.7887 H   0  0  0  0  0  0  0  0  0  0  0  0
   63.1321   35.4466   50.1717 H   0  0  0  0  0  0  0  0  0  0  0  0
   62.7458   34.1066   51.3209 H   0  0  0  0  0  0  0  0  0  0  0  0
   64.1453   32.1650   48.8963 H   0  0  0  0  0  0  0  0  0  0  0  0
   63.7618   31.9145   50.6555 H   0  0  0  0  0  0  0  0  0  0  0  0
   66.0182   31.0801   49.2728 H   0  0  0  0  0  0  0  0  0  0  0  0
   65.8663   31.3950   52.3011 H   0  0  0  0  0  0  0  0  0  0  0  0
   65.0131   30.1215   51.3646 H   0  0  0  0  0  0  0  0  0  0  0  0
   66.8083   30.1857   51.3646 H   0  0  0  0  0  0  0  0  0  0  0  0
   67.1319   34.6301   50.5038 H   0  0  0  0  0  0  0  0  0  0  0  0
   66.9158   33.7203   53.2062 H   0  0  0  0  0  0  0  0  0  0  0  0
   67.9967   32.5667   52.3534 H   0  0  0  0  0  0  0  0  0  0  0  0
   68.3778   34.3221   52.3534 H   0  0  0  0  0  0  0  0  0  0  0  0
   65.2024   35.1875   51.5880 H   0  0  0  0  0  0  0  0  0  0  0  0
   64.9147   33.5318   52.2038 H   0  0  0  0  0  0  0  0  0  0  0  0
   63.4275   34.2313   47.5937 H   0  0  0  0  0  0  0  0  0  0  0  0
   61.8633   33.2353   45.9280 H   0  0  0  0  0  0  0  0  0  0  0  0
  1  2  2  0
  2  3  1  0
  3  4  2  3
  4  5  1  0
  5  6  2  0
  6  7  1  0
  6  8  1  0
  8  9  1  0
  9 10  2  0
  9 11  1  0
 11 12  1  0
 12 13  2  0
  3 14  1  0
 14 15  2  0
 15 16  1  0
 15 17  1  0
 17 18  1  0
 18 19  2  0
 19 20  1  0
 20 21  2  0
 21 22  1  0
 22 23  1  0
 23 24  1  0
 24 25  1  0
 25 26  1  0
 25 27  1  0
 27 28  1  0
 28 29  1  0
 28 30  1  0
 21 31  1  0
 31 32  2  0
 17  2  1  0
 32 18  1  0
 12  5  1  0
 30 23  1  0
  1 33  1  0
  1 34  1  0
  4 35  1  0
 14 36  1  0
 16 37  1  0
 16 38  1  0
 16 39  1  0
 19 40  1  0
 20 41  1  0
 22 42  1  0
 22 43  1  0
 24 44  1  0
 24 45  1  0
 25 46  1  6
 26 47  1  0
 26 48  1  0
 26 49  1  0
 28 50  1  6
 29 51  1  0
 29 52  1  0
 29 53  1  0
 30 54  1  0
 30 55  1  0
 31 56  1  0
 32 57  1  0
M  CHG  3   7  -1   8  -1  11  -1
M  END
>  <UniqueID>  (21) 
19

>  <SMILES>  (21) 
C=c1c(=Cc2c([O-])[n-]c(=O)[n-]c2=O)cc(C)n1-c1ccc(CN2C[C@@H](C)O[C@@H](C)C2)cc1

>  <Energy>  (21) 
120.38282671961119

>  <Genealogy>  (21) 
C=c1c(=Cc2c([O-])[n-]c(=O)[n-]c2=O)cc(C)n1-c1ccc(CN2CC(C)OC(C)C2)cc1 (protonated)
C=c1c(=Cc2c([O-])[n-]c(=O)[n-]c2=O)cc(C)n1-c1ccc(CN2C[C@@H](C)O[C@@H](C)C2)cc1 (chirality)
C=c1c(=Cc2c([O-])[n-]c(=O)[n-]c2=O)cc(C)n1-c1ccc(CN2C[C@@H](C)O[C@@H](C)C2)cc1 (3D coordinates assigned)
C=c1c(=Cc2c([O-])[n-]c(=O)[n-]c2=O)cc(C)n1-c1ccc(CN2C[C@@H](C)O[C@@H](C)C2)cc1 (nonaromatic ring conformer: 120.38282671961119 kcal/mol)

>  <smiles>  (21) 
C=c1c(=Cc2c(O)[nH]c(=O)[nH]c2=O)cc(C)n1-c1ccc(CN2CC(C)OC(C)C2)cc1

>  <score_type>  (21) 
oracle

>  <origin>  (21) 
adg

>  <m_score__min__energy>  (21) 
-16.870000000000001

>  <m_primary>  (21) 
energy

$$$$
21:0
     RDKit          3D

 63 66  0  0  0  0  0  0  0  0999 V2000
   54.7210   26.7170   47.0630 H   0  0  0  0  0  0  0  0  0  0  0  0
   55.2080   26.4590   46.1740 N   0  0  0  0  0  0  0  0  0  0  0  0
   56.4920   26.5630   46.0560 C   0  0  0  0  0  0  0  0  0  0  0  0
   57.2370   27.0570   47.0850 N   0  0  0  0  0  0  0  0  0  0  0  0
   58.5910   27.1800   46.9920 C   0  0  0  0  0  0  0  0  0  0  0  0
   59.3480   27.7580   48.1370 C   0  0  0  0  0  0  0  0  0  0  0  0
   60.2350   26.9320   48.8810 C   0  0  0  0  0  0  0  0  0  0  0  0
   60.3632   25.8785   48.5918 H   0  0  0  0  0  0  0  0  0  0  0  0
   60.9510   27.4390   49.9800 C   0  0  0  0  0  0  0  0  0  0  0  0
   61.6339   26.7962   50.5548 H   0  0  0  0  0  0  0  0  0  0  0  0
   60.7720   28.7750   50.3200 C   0  0  0  0  0  0  0  0  0  0  0  0
   61.3370   29.4180   51.3600 N   0  0  0  0  0  0  0  0  0  0  0  0
   60.8330   30.6710   51.2830 C   0  0  0  0  0  0  0  0  0  0  0  0
   61.1470   31.6630   52.2040 O   0  0  0  0  0  0  0  0  0  0  0  0
   59.9710   30.8320   50.2000 C   0  0  0  0  0  0  0  0  0  0  0  0
   59.1440   32.0390   49.8490 C   0  0  0  0  0  0  0  0  0  0  0  0
   58.1033   31.7226   49.6851 H   0  0  0  0  0  0  0  0  0  0  0  0
   59.2122   32.7550   50.6813 H   0  0  0  0  0  0  0  0  0  0  0  0
   59.6480   32.7160   48.6070 C   0  0  0  0  0  0  0  0  0  0  0  0
   58.8780   33.2370   47.5730 C   0  0  0  0  0  0  0  0  0  0  0  0
   57.3790   33.2320   47.4840 C   0  0  0  0  0  0  0  0  0  0  0  0
   56.9515   33.2306   48.4975 H   0  0  0  0  0  0  0  0  0  0  0  0
   57.0407   34.1290   46.9446 H   0  0  0  0  0  0  0  0  0  0  0  0
   57.0467   32.3327   46.9446 H   0  0  0  0  0  0  0  0  0  0  0  0
   59.7720   33.7550   46.6370 C   0  0  0  0  0  0  0  0  0  0  0  0
   59.4490   34.4340   45.3590 C   0  0  0  0  0  0  0  0  0  0  0  0
   59.5610   35.6890   45.2720 O   0  0  0  0  0  0  0  0  0  0  0  0
   59.0110   33.6740   44.2240 N   0  0  0  0  0  0  0  0  0  0  0  0
   57.8460   33.1070   44.1480 C   0  0  0  0  0  0  0  0  0  0  0  0
   56.9377   33.7026   44.3221 H   0  0  0  0  0  0  0  0  0  0  0  0
   57.7270   31.6520   43.8260 C   0  0  0  0  0  0  0  0  0  0  0  0
   57.2349   31.5332   42.8494 H   0  0  0  0  0  0  0  0  0  0  0  0
   58.7312   31.2044   43.7921 H   0  0  0  0  0  0  0  0  0  0  0  0
   56.9230   30.9710   44.8680 N   0  0  0  0  0  0  0  0  0  0  0  0
   55.9110   30.0680   44.2740 C   0  0  0  0  0  0  0  0  0  0  0  0
   55.8312   29.1590   44.8883 H   0  0  0  0  0  0  0  0  0  0  0  0
   54.9427   30.5890   44.2423 H   0  0  0  0  0  0  0  0  0  0  0  0
   56.3130   29.6800   42.8490 C   0  0  0  0  0  0  0  0  0  0  0  0
   57.1040   28.9165   42.8862 H   0  0  0  0  0  0  0  0  0  0  0  0
   55.4382   29.2761   42.3184 H   0  0  0  0  0  0  0  0  0  0  0  0
   56.6857   30.5686   42.3184 H   0  0  0  0  0  0  0  0  0  0  0  0
   57.7880   30.2550   45.8340 C   0  0  0  0  0  0  0  0  0  0  0  0
   57.8185   30.8187   46.7781 H   0  0  0  0  0  0  0  0  0  0  0  0
   57.3734   29.2501   46.0024 H   0  0  0  0  0  0  0  0  0  0  0  0
   59.2070   30.1150   45.2880 C   0  0  0  0  0  0  0  0  0  0  0  0
   59.9168   30.0450   46.1254 H   0  0  0  0  0  0  0  0  0  0  0  0
   59.2751   29.2058   44.6726 H   0  0  0  0  0  0  0  0  0  0  0  0
   59.4514   30.9934   44.6726 H   0  0  0  0  0  0  0  0  0  0  0  0
   61.0450   33.5130   47.1550 C   0  0  0  0  0  0  0  0  0  0  0  0
   62.3520   33.8810   46.5230 C   0  0  0  0  0  0  0  0  0  0  0  0
   63.0932   34.0897   47.3085 H   0  0  0  0  0  0  0  0  0  0  0  0
   62.7048   33.0473   45.8982 H   0  0  0  0  0  0  0  0  0  0  0  0
   62.2179   34.7763   45.8982 H   0  0  0  0  0  0  0  0  0  0  0  0
   60.9560   32.8850   48.3410 N   0  0  0  0  0  0  0  0  0  0  0  0
   61.7540   32.5870   48.9460 H   0  0  0  0  0  0  0  0  0  0  0  0
   59.9300   29.5890   49.6030 C   0  0  0  0  0  0  0  0  0  0  0  0
   59.2070   29.1190   48.5040 C   0  0  0  0  0  0  0  0  0  0  0  0
   58.5442   29.7895   47.9373 H   0  0  0  0  0  0  0  0  0  0  0  0
   59.2220   26.7940   45.7940 C   0  0  0  0  0  0  0  0  0  0  0  0
   60.3114   26.8937   45.6790 H   0  0  0  0  0  0  0  0  0  0  0  0
   58.4420   26.2820   44.7530 C   0  0  0  0  0  0  0  0  0  0  0  0
   58.9184   25.9642   43.8138 H   0  0  0  0  0  0  0  0  0  0  0  0
   57.0970   26.1770   44.9010 N   0  0  0  0  0  0  0  0  0  0  0  0
  1  2  1  0
  2  3  2  0
  3  4  1  0
  4  5  2  0
  5  6  1  0
  6  7  2  0
  7  8  1  0
  7  9  1  0
  9 10  1  0
  9 11  2  0
 11 12  1  0
 12 13  1  0
 13 14  1  0
 13 15  2  0
 15 16  1  0
 16 17  1  0
 16 18  1  0
 16 19  1  0
 19 20  2  0
 20 21  1  0
 21 22  1  0
 21 23  1  0
 21 24  1  0
 20 25  1  0
 25 26  1  0
 26 27  2  0
 26 28  1  0
 28 29  2  3
 29 30  1  0
 29 31  1  0
 31 32  1  0
 31 33  1  0
 31 34  1  0
 34 35  1  0
 35 36  1  0
 35 37  1  0
 35 38  1  0
 38 39  1  0
 38 40  1  0
 38 41  1  0
 34 42  1  0
 42 43  1  0
 42 44  1  0
 42 45  1  0
 45 46  1  0
 45 47  1  0
 45 48  1  0
 25 49  2  0
 49 50  1  0
 50 51  1  0
 50 52  1  0
 50 53  1  0
 49 54  1  0
 54 55  1  0
 15 56  1  0
 56 57  2  0
 57 58  1  0
  5 59  1  0
 59 60  1  0
 59 61  2  0
 61 62  1  0
 61 63  1  0
 63  3  1  0
 57  6  1  0
 56 11  1  0
 54 19  1  0
M  CHG  3  12  -1  14  -1  63  -1
M  END
>  <UniqueID>  (22) 
20

>  <SMILES>  (22) 
[H]/N=c1\nc(-c2ccc3[n-]c([O-])c(Cc4[nH]c(C)c(C(=O)N=CCN(CC)CC)c4C)c3c2)cc[n-]1

>  <Energy>  (22) 
124.78312312467409

>  <Genealogy>  (22) 
CCN(CC)CC=NC(=O)c1c(C)[nH]c(Cc2c([O-])[n-]c3ccc(-c4cc[n-]c(=N)n4)cc23)c1C (protonated)
[H]/N=c1\nc(-c2ccc3[n-]c([O-])c(Cc4[nH]c(C)c(C(=O)N=CCN(CC)CC)c4C)c3c2)cc[n-]1 (cis-trans isomerization)
[H]/N=c1\nc(-c2ccc3[n-]c([O-])c(Cc4[nH]c(C)c(C(=O)N=CCN(CC)CC)c4C)c3c2)cc[n-]1 (3D coordinates assigned)
[H]/N=c1\nc(-c2ccc3[n-]c([O-])c(Cc4[nH]c(C)c(C(=O)N=CCN(CC)CC)c4C)c3c2)cc[n-]1 (optimized conformer: 124.78312312467409 kcal/mol)

>  <smiles>  (22) 
CCN(CC)CC=NC(=O)c1c(C)[nH]c(Cc2c(O)[nH]c3ccc(-c4cc[nH]c(=N)n4)cc23)c1C

>  <score_type>  (22) 
oracle

>  <origin>  (22) 
adg

>  <m_score__min__energy>  (22) 
-13.59

>  <m_primary>  (22) 
energy

$$$$
22:0
     RDKit          3D

 51 54  0  0  0  0  0  0  0  0999 V2000
   57.7380   27.6180   47.3710 C   0  0  0  0  0  0  0  0  0  0  0  0
   57.7690   26.9920   46.1840 C   0  0  0  0  0  0  0  0  0  0  0  0
   57.8530   25.6120   45.9720 C   0  0  0  0  0  0  0  0  0  0  0  0
   57.8630   24.6420   46.9070 C   0  0  0  0  0  0  0  0  0  0  0  0
   56.8190   23.6090   47.0350 C   0  0  0  0  0  0  0  0  0  0  0  0
   57.0830   22.3270   47.3420 N   0  0  0  0  0  0  0  0  0  0  0  0
   55.8730   21.7320   47.2740 C   0  0  0  0  0  0  0  0  0  0  0  0
   55.7050   20.5080   47.5150 O   0  0  0  0  0  0  0  0  0  0  0  0
   54.8590   22.5480   46.9170 N   0  0  0  0  0  0  0  0  0  0  0  0
   55.4740   23.7310   46.7580 C   0  0  0  0  0  0  0  0  0  0  0  0
   54.8270   24.8800   46.3220 O   0  0  0  0  0  0  0  0  0  0  0  0
   57.8680   25.4310   44.5940 C   0  0  0  0  0  0  0  0  0  0  0  0
   57.8010   26.6890   44.0280 C   0  0  0  0  0  0  0  0  0  0  0  0
   57.7710   26.9680   42.5570 C   0  0  0  0  0  0  0  0  0  0  0  0
   57.7480   27.6340   44.9910 N   0  0  0  0  0  0  0  0  0  0  0  0
   57.6620   29.0510   44.7690 C   0  0  0  0  0  0  0  0  0  0  0  0
   58.8330   29.8010   44.5970 C   0  0  0  0  0  0  0  0  0  0  0  0
   58.7600   31.1810   44.3850 C   0  0  0  0  0  0  0  0  0  0  0  0
   57.5140   31.8260   44.3460 C   0  0  0  0  0  0  0  0  0  0  0  0
   57.4250   33.3080   44.0900 C   0  0  0  0  0  0  0  0  0  0  0  0
   58.1090   34.0660   45.1580 N   0  0  0  0  0  0  0  0  0  0  0  0
   59.5210   34.3480   44.7910 C   0  0  0  0  0  0  0  0  0  0  0  0
   60.3680   34.8230   45.9930 C   0  0  0  0  0  0  0  0  0  0  0  0
   59.4840   35.3230   47.1370 C   0  0  0  0  0  0  0  0  0  0  0  0
   58.5110   34.2270   47.5980 C   0  0  0  0  0  0  0  0  0  0  0  0
   58.0390   33.3330   46.4360 C   0  0  0  0  0  0  0  0  0  0  0  0
   56.3420   31.0700   44.5060 C   0  0  0  0  0  0  0  0  0  0  0  0
   56.4130   29.6890   44.7180 C   0  0  0  0  0  0  0  0  0  0  0  0
   55.2430   28.9550   44.8680 O   0  0  0  0  0  0  0  0  0  0  0  0
   57.6704   28.7151   47.4126 H   0  0  0  0  0  0  0  0  0  0  0  0
   57.7802   27.0339   48.3021 H   0  0  0  0  0  0  0  0  0  0  0  0
   58.7016   24.6194   47.6185 H   0  0  0  0  0  0  0  0  0  0  0  0
   57.9226   24.4719   44.0582 H   0  0  0  0  0  0  0  0  0  0  0  0
   57.6547   28.0492   42.3912 H   0  0  0  0  0  0  0  0  0  0  0  0
   58.7111   26.6259   42.0997 H   0  0  0  0  0  0  0  0  0  0  0  0
   56.9251   26.4339   42.0997 H   0  0  0  0  0  0  0  0  0  0  0  0
   59.8130   29.3024   44.6289 H   0  0  0  0  0  0  0  0  0  0  0  0
   59.6829   31.7637   44.2482 H   0  0  0  0  0  0  0  0  0  0  0  0
   57.8999   33.5365   43.1245 H   0  0  0  0  0  0  0  0  0  0  0  0
   56.3647   33.6003   44.0733 H   0  0  0  0  0  0  0  0  0  0  0  0
   59.9694   33.4287   44.3863 H   0  0  0  0  0  0  0  0  0  0  0  0
   59.5148   35.1596   44.0485 H   0  0  0  0  0  0  0  0  0  0  0  0
   60.9793   33.9828   46.3542 H   0  0  0  0  0  0  0  0  0  0  0  0
   61.0055   35.6551   45.6595 H   0  0  0  0  0  0  0  0  0  0  0  0
   60.1223   35.6170   47.9832 H   0  0  0  0  0  0  0  0  0  0  0  0
   58.8997   36.1835   46.7791 H   0  0  0  0  0  0  0  0  0  0  0  0
   59.0165   33.5974   48.3450 H   0  0  0  0  0  0  0  0  0  0  0  0
   57.6246   34.7223   48.0211 H   0  0  0  0  0  0  0  0  0  0  0  0
   58.6837   32.4436   46.3788 H   0  0  0  0  0  0  0  0  0  0  0  0
   56.9960   33.0347   46.6180 H   0  0  0  0  0  0  0  0  0  0  0  0
   55.3614   31.5667   44.4644 H   0  0  0  0  0  0  0  0  0  0  0  0
  1  2  2  0
  2  3  1  0
  3  4  2  3
  4  5  1  0
  5  6  1  0
  6  7  1  0
  7  8  2  0
  7  9  1  0
  9 10  1  0
 10 11  1  0
  3 12  1  0
 12 13  2  0
 13 14  1  0
 13 15  1  0
 15 16  1  0
 16 17  2  0
 17 18  1  0
 18 19  2  0
 19 20  1  0
 20 21  1  0
 21 22  1  0
 22 23  1  0
 23 24  1  0
 24 25  1  0
 25 26  1  0
 19 27  1  0
 27 28  2  0
 28 29  1  0
 15  2  1  0
 28 16  1  0
 10  5  2  0
 26 21  1  0
  1 30  1  0
  1 31  1  0
  4 32  1  0
 12 33  1  0
 14 34  1  0
 14 35  1  0
 14 36  1  0
 17 37  1  0
 18 38  1  0
 20 39  1  0
 20 40  1  0
 22 41  1  0
 22 42  1  0
 23 43  1  0
 23 44  1  0
 24 45  1  0
 24 46  1  0
 25 47  1  0
 25 48  1  0
 26 49  1  0
 26 50  1  0
 27 51  1  0
M  CHG  4   6  -1   9  -1  11  -1  29  -1
M  END
>  <UniqueID>  (23) 
21

>  <SMILES>  (23) 
C=c1c(=Cc2[n-]c(=O)[n-]c2[O-])cc(C)n1-c1ccc(CN2CCCCC2)cc1[O-]

>  <Energy>  (23) 
129.87821067743624

>  <Genealogy>  (23) 
C=c1c(=Cc2[n-]c(=O)[n-]c2[O-])cc(C)n1-c1ccc(CN2CCCCC2)cc1[O-] (protonated)
C=c1c(=Cc2[n-]c(=O)[n-]c2[O-])cc(C)n1-c1ccc(CN2CCCCC2)cc1[O-] (3D coordinates assigned)
C=c1c(=Cc2[n-]c(=O)[n-]c2[O-])cc(C)n1-c1ccc(CN2CCCCC2)cc1[O-] (nonaromatic ring conformer: 129.87821067743624 kcal/mol)

>  <smiles>  (23) 
C=c1c(=Cc2[nH]c(=O)[nH]c2O)cc(C)n1-c1ccc(CN2CCCCC2)cc1O

>  <score_type>  (23) 
oracle

>  <origin>  (23) 
adg

>  <m_score__min__energy>  (23) 
-17.890000000000001

>  <m_primary>  (23) 
energy

$$$$
23:0
     RDKit          3D

 52 55  0  0  0  0  0  0  0  0999 V2000
   58.5640   32.6410   48.1920 O   0  0  0  0  0  0  0  0  0  0  0  0
   58.4850   32.0320   47.0920 C   0  0  0  0  0  0  0  0  0  0  0  0
   57.7290   32.6290   46.0280 N   0  0  0  0  0  0  0  0  0  0  0  0
   57.4650   32.0940   44.8720 C   0  0  0  0  0  0  0  0  0  0  0  0
   58.0700   32.6160   43.7210 C   0  0  0  0  0  0  0  0  0  0  0  0
   57.8090   32.0300   42.4810 C   0  0  0  0  0  0  0  0  0  0  0  0
   56.9580   30.9280   42.3980 C   0  0  0  0  0  0  0  0  0  0  0  0
   56.3810   30.4220   43.5650 C   0  0  0  0  0  0  0  0  0  0  0  0
   56.6480   31.0070   44.7630 N   0  0  0  0  0  0  0  0  0  0  0  0
   59.0860   30.7340   46.9430 N   0  0  0  0  0  0  0  0  0  0  0  0
   59.8590   30.1130   47.9800 C   0  0  0  0  0  0  0  0  0  0  0  0
   60.3220   30.9040   49.0400 C   0  0  0  0  0  0  0  0  0  0  0  0
   61.0240   30.3290   50.1120 C   0  0  0  0  0  0  0  0  0  0  0  0
   61.5060   31.1760   51.2290 C   0  0  0  0  0  0  0  0  0  0  0  0
   60.8720   31.1810   52.3200 O   0  0  0  0  0  0  0  0  0  0  0  0
   62.6660   32.0140   51.0850 N   0  0  0  0  0  0  0  0  0  0  0  0
   62.6560   33.3520   51.6840 C   0  0  0  0  0  0  0  0  0  0  0  0
   63.9320   34.1110   51.3110 C   0  0  0  0  0  0  0  0  0  0  0  0
   64.2620   33.8330   49.9670 O   0  0  0  0  0  0  0  0  0  0  0  0
   64.7640   32.5130   49.8440 C   0  0  0  0  0  0  0  0  0  0  0  0
   63.9340   31.4510   50.6050 C   0  0  0  0  0  0  0  0  0  0  0  0
   61.2830   28.9490   50.0970 C   0  0  0  0  0  0  0  0  0  0  0  0
   60.8490   28.1600   49.0310 C   0  0  0  0  0  0  0  0  0  0  0  0
   60.1670   28.7320   47.9530 C   0  0  0  0  0  0  0  0  0  0  0  0
   59.8020   27.9030   46.8820 O   0  0  0  0  0  0  0  0  0  0  0  0
   58.4920   27.4830   46.6020 C   0  0  0  0  0  0  0  0  0  0  0  0
   57.9680   26.2820   47.1140 C   0  0  0  0  0  0  0  0  0  0  0  0
   56.6600   25.8970   46.8020 C   0  0  0  0  0  0  0  0  0  0  0  0
   55.8640   26.7100   45.9900 C   0  0  0  0  0  0  0  0  0  0  0  0
   54.5660   26.3250   45.6790 O   0  0  0  0  0  0  0  0  0  0  0  0
   56.3740   27.9150   45.4960 C   0  0  0  0  0  0  0  0  0  0  0  0
   57.6820   28.3020   45.8060 C   0  0  0  0  0  0  0  0  0  0  0  0
   58.7456   33.4811   43.7939 H   0  0  0  0  0  0  0  0  0  0  0  0
   58.2738   32.4368   41.5708 H   0  0  0  0  0  0  0  0  0  0  0  0
   56.7437   30.4627   41.4246 H   0  0  0  0  0  0  0  0  0  0  0  0
   55.7111   29.5509   43.5149 H   0  0  0  0  0  0  0  0  0  0  0  0
   59.0160   30.2300   46.0320 H   0  0  0  0  0  0  0  0  0  0  0  0
   60.1335   31.9877   49.0324 H   0  0  0  0  0  0  0  0  0  0  0  0
   61.7819   33.9083   51.3147 H   0  0  0  0  0  0  0  0  0  0  0  0
   62.6054   33.2536   52.7784 H   0  0  0  0  0  0  0  0  0  0  0  0
   63.7662   35.1916   51.4331 H   0  0  0  0  0  0  0  0  0  0  0  0
   64.7559   33.7931   51.9669 H   0  0  0  0  0  0  0  0  0  0  0  0
   64.7744   32.2448   48.7773 H   0  0  0  0  0  0  0  0  0  0  0  0
   65.7693   32.5116   50.2906 H   0  0  0  0  0  0  0  0  0  0  0  0
   63.7203   30.6101   49.9288 H   0  0  0  0  0  0  0  0  0  0  0  0
   64.5159   31.1107   51.4743 H   0  0  0  0  0  0  0  0  0  0  0  0
   61.8316   28.4869   50.9310 H   0  0  0  0  0  0  0  0  0  0  0  0
   61.0454   27.0777   49.0390 H   0  0  0  0  0  0  0  0  0  0  0  0
   58.5882   25.6444   47.7611 H   0  0  0  0  0  0  0  0  0  0  0  0
   56.2569   24.9526   47.1964 H   0  0  0  0  0  0  0  0  0  0  0  0
   55.7459   28.5591   44.8630 H   0  0  0  0  0  0  0  0  0  0  0  0
   58.0762   29.2546   45.4225 H   0  0  0  0  0  0  0  0  0  0  0  0
  1  2  2  0
  2  3  1  0
  3  4  2  3
  4  5  1  0
  5  6  2  0
  6  7  1  0
  7  8  2  0
  8  9  1  0
  2 10  1  0
 10 11  1  0
 11 12  2  0
 12 13  1  0
 13 14  1  0
 14 15  2  0
 14 16  1  0
 16 17  1  0
 17 18  1  0
 18 19  1  0
 19 20  1  0
 20 21  1  0
 13 22  2  0
 22 23  1  0
 23 24  2  0
 24 25  1  0
 25 26  1  0
 26 27  2  0
 27 28  1  0
 28 29  2  0
 29 30  1  0
 29 31  1  0
 31 32  2  0
  9  4  1  0
 24 11  1  0
 32 26  1  0
 21 16  1  0
  5 33  1  0
  6 34  1  0
  7 35  1  0
  8 36  1  0
 10 37  1  0
 12 38  1  0
 17 39  1  0
 17 40  1  0
 18 41  1  0
 18 42  1  0
 20 43  1  0
 20 44  1  0
 21 45  1  0
 21 46  1  0
 22 47  1  0
 23 48  1  0
 27 49  1  0
 28 50  1  0
 31 51  1  0
 32 52  1  0
M  CHG  2   9  -1  30  -1
M  END
>  <UniqueID>  (24) 
22

>  <SMILES>  (24) 
O=C(N=c1cccc[n-]1)Nc1cc(C(=O)N2CCOCC2)ccc1Oc1ccc([O-])cc1

>  <Energy>  (24) 
84.69320676112524

>  <Genealogy>  (24) 
O=C(N=c1cccc[n-]1)Nc1cc(C(=O)N2CCOCC2)ccc1Oc1ccc([O-])cc1 (protonated)
O=C(N=c1cccc[n-]1)Nc1cc(C(=O)N2CCOCC2)ccc1Oc1ccc([O-])cc1 (3D coordinates assigned)
O=C(N=c1cccc[n-]1)Nc1cc(C(=O)N2CCOCC2)ccc1Oc1ccc([O-])cc1 (nonaromatic ring conformer: 84.69320676112524 kcal/mol)

>  <smiles>  (24) 
O=C(N=c1cccc[nH]1)Nc1cc(C(=O)N2CCOCC2)ccc1Oc1ccc(O)cc1

>  <score_type>  (24) 
oracle

>  <origin>  (24) 
adg

>  <m_score__min__energy>  (24) 
-12.130000000000001

>  <m_primary>  (24) 
energy

$$$$
24:0
     RDKit          3D

 46 48  0  0  0  0  0  0  0  0999 V2000
   61.8720   31.8150   48.7830 C   0  0  0  0  0  0  0  0  0  0  0  0
   60.6160   31.6480   49.5350 N   0  0  0  0  0  0  0  0  0  0  0  0
   59.9100   30.4050   49.1590 C   0  0  0  0  0  0  0  0  0  0  0  0
   59.3760   30.4640   47.7190 C   0  0  0  0  0  0  0  0  0  0  0  0
   58.8580   31.8010   47.4140 N   0  0  0  0  0  0  0  0  0  0  0  0
   58.5710   32.1650   46.0530 C   0  0  0  0  0  0  0  0  0  0  0  0
   59.1510   33.3180   45.5020 C   0  0  0  0  0  0  0  0  0  0  0  0
   58.8700   33.6900   44.1860 C   0  0  0  0  0  0  0  0  0  0  0  0
   58.0100   32.9130   43.4090 C   0  0  0  0  0  0  0  0  0  0  0  0
   57.4180   31.7700   43.9490 C   0  0  0  0  0  0  0  0  0  0  0  0
   57.6750   31.3980   45.2800 C   0  0  0  0  0  0  0  0  0  0  0  0
   57.0630   30.2350   45.8590 N   0  0  0  0  0  0  0  0  0  0  0  0
   56.3610   29.2140   45.1450 C   0  0  0  0  0  0  0  0  0  0  0  0
   55.1490   29.3960   44.8570 O   0  0  0  0  0  0  0  0  0  0  0  0
   57.0580   28.0570   44.6630 N   0  0  0  0  0  0  0  0  0  0  0  0
   58.0140   27.2610   45.3800 C   0  0  0  0  0  0  0  0  0  0  0  0
   59.3670   27.6470   45.4330 C   0  0  0  0  0  0  0  0  0  0  0  0
   60.3090   26.8500   46.0850 C   0  0  0  0  0  0  0  0  0  0  0  0
   59.9190   25.6510   46.6760 C   0  0  0  0  0  0  0  0  0  0  0  0
   58.5870   25.2390   46.6110 C   0  0  0  0  0  0  0  0  0  0  0  0
   57.6160   26.0290   45.9660 C   0  0  0  0  0  0  0  0  0  0  0  0
   56.2080   25.5450   45.9280 C   0  0  0  0  0  0  0  0  0  0  0  0
   55.1140   26.4260   46.1730 N   0  0  0  0  0  0  0  0  0  0  0  0
   55.9670   24.3300   45.6930 O   0  0  0  0  0  0  0  0  0  0  0  0
   58.5480   32.7180   48.5130 C   0  0  0  0  0  0  0  0  0  0  0  0
   59.7580   32.8600   49.4580 C   0  0  0  0  0  0  0  0  0  0  0  0
   62.7093   31.9263   49.4877 H   0  0  0  0  0  0  0  0  0  0  0  0
   62.0406   30.9314   48.1499 H   0  0  0  0  0  0  0  0  0  0  0  0
   61.8038   32.7120   48.1499 H   0  0  0  0  0  0  0  0  0  0  0  0
   60.6080   29.5592   49.2453 H   0  0  0  0  0  0  0  0  0  0  0  0
   59.0523   30.2811   49.8365 H   0  0  0  0  0  0  0  0  0  0  0  0
   60.1918   30.2247   47.0210 H   0  0  0  0  0  0  0  0  0  0  0  0
   58.5588   29.7352   47.6142 H   0  0  0  0  0  0  0  0  0  0  0  0
   59.8310   33.9323   46.1105 H   0  0  0  0  0  0  0  0  0  0  0  0
   59.3268   34.5961   43.7614 H   0  0  0  0  0  0  0  0  0  0  0  0
   57.7981   33.2017   42.3689 H   0  0  0  0  0  0  0  0  0  0  0  0
   56.7467   31.1570   43.3296 H   0  0  0  0  0  0  0  0  0  0  0  0
   59.6846   28.5859   44.9559 H   0  0  0  0  0  0  0  0  0  0  0  0
   61.3606   27.1693   46.1321 H   0  0  0  0  0  0  0  0  0  0  0  0
   60.6619   25.0275   47.1950 H   0  0  0  0  0  0  0  0  0  0  0  0
   58.2917   24.2840   47.0700 H   0  0  0  0  0  0  0  0  0  0  0  0
   55.1940   27.4510   45.9870 H   0  0  0  0  0  0  0  0  0  0  0  0
   58.2942   33.7052   48.0996 H   0  0  0  0  0  0  0  0  0  0  0  0
   57.6980   32.3145   49.0829 H   0  0  0  0  0  0  0  0  0  0  0  0
   60.3759   33.6983   49.1039 H   0  0  0  0  0  0  0  0  0  0  0  0
   59.3534   33.0258   50.4673 H   0  0  0  0  0  0  0  0  0  0  0  0
  1  2  1  0
  2  3  1  0
  3  4  1  0
  4  5  1  0
  5  6  1  0
  6  7  2  0
  7  8  1  0
  8  9  2  0
  9 10  1  0
 10 11  2  0
 11 12  1  0
 12 13  1  0
 13 14  2  0
 13 15  1  0
 15 16  1  0
 16 17  2  0
 17 18  1  0
 18 19  2  0
 19 20  1  0
 20 21  2  0
 21 22  1  0
 22 23  1  0
 22 24  2  0
  5 25  1  0
 25 26  1  0
 26  2  1  0
 11  6  1  0
 21 16  1  0
  1 27  1  0
  1 28  1  0
  1 29  1  0
  3 30  1  0
  3 31  1  0
  4 32  1  0
  4 33  1  0
  7 34  1  0
  8 35  1  0
  9 36  1  0
 10 37  1  0
 17 38  1  0
 18 39  1  0
 19 40  1  0
 20 41  1  0
 23 42  1  0
 25 43  1  0
 25 44  1  0
 26 45  1  0
 26 46  1  0
M  CHG  3  12  -1  15  -1  23  -1
M  END
>  <UniqueID>  (25) 
23

>  <SMILES>  (25) 
CN1CCN(c2ccccc2[N-]C(=O)[N-]c2ccccc2C([NH-])=O)CC1

>  <Energy>  (25) 
68.608693474507

>  <Genealogy>  (25) 
CN1CCN(c2ccccc2[N-]C(=O)[N-]c2ccccc2C([NH-])=O)CC1 (protonated)
CN1CCN(c2ccccc2[N-]C(=O)[N-]c2ccccc2C([NH-])=O)CC1 (3D coordinates assigned)
CN1CCN(c2ccccc2[N-]C(=O)[N-]c2ccccc2C([NH-])=O)CC1 (nonaromatic ring conformer: 68.608693474507 kcal/mol)

>  <smiles>  (25) 
CN1CCN(c2ccccc2NC(=O)Nc2ccccc2C(N)=O)CC1

>  <score_type>  (25) 
oracle

>  <origin>  (25) 
adg

>  <m_score__min__energy>  (25) 
-14.43

>  <m_primary>  (25) 
energy

$$$$
25:0
     RDKit          3D

 43 45  0  0  0  0  0  0  0  0999 V2000
   54.7530   28.9590   45.3680 H   0  0  0  0  0  0  0  0  0  0  0  0
   55.6270   28.6050   45.0040 O   0  0  0  0  0  0  0  0  0  0  0  0
   56.3560   27.5760   45.6030 C   0  0  0  0  0  0  0  0  0  0  0  0
   55.6730   26.4980   46.0670 N   0  0  0  0  0  0  0  0  0  0  0  0
   56.3020   25.4580   46.6740 C   0  0  0  0  0  0  0  0  0  0  0  0
   55.6310   24.4390   47.1230 N   0  0  0  0  0  0  0  0  0  0  0  0
   54.6680   23.6630   46.3410 C   0  0  0  0  0  0  0  0  0  0  0  0
   53.7921   24.2905   46.1195 H   0  0  0  0  0  0  0  0  0  0  0  0
   54.3646   22.7809   46.9239 H   0  0  0  0  0  0  0  0  0  0  0  0
   55.2880   23.2030   45.0480 C   0  0  0  0  0  0  0  0  0  0  0  0
   54.6500   23.4690   43.8290 C   0  0  0  0  0  0  0  0  0  0  0  0
   53.6810   23.9893   43.8130 H   0  0  0  0  0  0  0  0  0  0  0  0
   55.2530   23.0690   42.6350 C   0  0  0  0  0  0  0  0  0  0  0  0
   54.7555   23.2696   41.6747 H   0  0  0  0  0  0  0  0  0  0  0  0
   56.4540   22.4320   42.6570 N   0  0  0  0  0  0  0  0  0  0  0  0
   57.0990   22.1590   43.8230 C   0  0  0  0  0  0  0  0  0  0  0  0
   58.4280   21.4730   43.7960 C   0  0  0  0  0  0  0  0  0  0  0  0
   58.7704   21.2963   44.8263 H   0  0  0  0  0  0  0  0  0  0  0  0
   58.3335   20.5110   43.2709 H   0  0  0  0  0  0  0  0  0  0  0  0
   59.1574   22.1072   43.2709 H   0  0  0  0  0  0  0  0  0  0  0  0
   56.5270   22.5450   45.0430 C   0  0  0  0  0  0  0  0  0  0  0  0
   57.0458   22.3335   45.9896 H   0  0  0  0  0  0  0  0  0  0  0  0
   57.6490   25.4840   46.8200 N   0  0  0  0  0  0  0  0  0  0  0  0
   58.3880   26.5320   46.3790 C   0  0  0  0  0  0  0  0  0  0  0  0
   59.6360   26.5150   46.5510 O   0  0  0  0  0  0  0  0  0  0  0  0
   57.7620   27.6230   45.7440 C   0  0  0  0  0  0  0  0  0  0  0  0
   58.5720   28.8270   45.2990 C   0  0  0  0  0  0  0  0  0  0  0  0
   59.5984   28.5011   45.0748 H   0  0  0  0  0  0  0  0  0  0  0  0
   58.0860   29.2529   44.4088 H   0  0  0  0  0  0  0  0  0  0  0  0
   58.6230   29.9180   46.3790 C   0  0  0  0  0  0  0  0  0  0  0  0
   57.8523   29.7069   47.1350 H   0  0  0  0  0  0  0  0  0  0  0  0
   59.6281   29.9098   46.8260 H   0  0  0  0  0  0  0  0  0  0  0  0
   58.3780   31.2890   45.8020 C   0  0  0  0  0  0  0  0  0  0  0  0
   58.4630   32.4270   46.6200 C   0  0  0  0  0  0  0  0  0  0  0  0
   58.7456   32.3212   47.6778 H   0  0  0  0  0  0  0  0  0  0  0  0
   58.1900   33.6940   46.0960 C   0  0  0  0  0  0  0  0  0  0  0  0
   58.2640   34.5826   46.7402 H   0  0  0  0  0  0  0  0  0  0  0  0
   57.8230   33.8330   44.7540 C   0  0  0  0  0  0  0  0  0  0  0  0
   57.6091   34.8305   44.3427 H   0  0  0  0  0  0  0  0  0  0  0  0
   57.7280   32.7040   43.9350 C   0  0  0  0  0  0  0  0  0  0  0  0
   57.4382   32.8138   42.8796 H   0  0  0  0  0  0  0  0  0  0  0  0
   58.0010   31.4350   44.4560 C   0  0  0  0  0  0  0  0  0  0  0  0
   57.9204   30.5483   43.8101 H   0  0  0  0  0  0  0  0  0  0  0  0
  1  2  1  0
  2  3  1  0
  3  4  1  0
  4  5  1  0
  5  6  2  0
  6  7  1  0
  7  8  1  0
  7  9  1  0
  7 10  1  0
 10 11  2  0
 11 12  1  0
 11 13  1  0
 13 14  1  0
 13 15  2  0
 15 16  1  0
 16 17  1  0
 17 18  1  0
 17 19  1  0
 17 20  1  0
 16 21  2  0
 21 22  1  0
  5 23  1  0
 23 24  1  0
 24 25  2  0
 24 26  1  0
 26 27  1  0
 27 28  1  0
 27 29  1  0
 27 30  1  0
 30 31  1  0
 30 32  1  0
 30 33  1  0
 33 34  2  0
 34 35  1  0
 34 36  1  0
 36 37  1  0
 36 38  2  0
 38 39  1  0
 38 40  1  0
 40 41  1  0
 40 42  2  0
 42 43  1  0
 26  3  2  0
 42 33  1  0
 21 10  1  0
M  CHG  2   4  -1  23  -1
M  END
>  <UniqueID>  (26) 
24

>  <SMILES>  (26) 
Cc1cc(C/N=c2\[n-]c(O)c(CCc3ccccc3)c(=O)[n-]2)ccn1

>  <Energy>  (26) 
43.558844591606324

>  <Genealogy>  (26) 
Cc1cc(CN=c2[n-]c(O)c(CCc3ccccc3)c(=O)[n-]2)ccn1 (protonated)
Cc1cc(C/N=c2\[n-]c(O)c(CCc3ccccc3)c(=O)[n-]2)ccn1 (cis-trans isomerization)
Cc1cc(C/N=c2\[n-]c(O)c(CCc3ccccc3)c(=O)[n-]2)ccn1 (3D coordinates assigned)
Cc1cc(C/N=c2\[n-]c(O)c(CCc3ccccc3)c(=O)[n-]2)ccn1 (optimized conformer: 43.558844591606324 kcal/mol)

>  <smiles>  (26) 
Cc1cc(CN=c2[nH]c(O)c(CCc3ccccc3)c(=O)[nH]2)ccn1

>  <score_type>  (26) 
oracle

>  <origin>  (26) 
adg

>  <m_score__min__energy>  (26) 
-12.039999999999999

>  <m_primary>  (26) 
energy

$$$$
26:0
     RDKit          3D

 47 50  0  0  0  0  0  0  0  0999 V2000
   61.4978   31.5036   46.1817 H   0  0  0  0  0  0  0  0  0  0  0  0
   61.9230   31.6730   47.1820 C   0  0  0  0  0  0  0  0  0  0  0  0
   57.7440   31.9600   46.3670 N   0  0  0  0  0  0  0  0  0  0  0  0
   57.3760   32.0180   45.0700 C   0  0  0  0  0  0  0  0  0  0  0  0
   56.6450   31.0960   44.5180 N   0  0  0  0  0  0  0  0  0  0  0  0
   61.4910   29.5510   50.8970 C   0  0  0  0  0  0  0  0  0  0  0  0
   61.3010   28.5370   50.1740 O   0  0  0  0  0  0  0  0  0  0  0  0
   60.7360   29.6830   52.1950 C   0  0  0  0  0  0  0  0  0  0  0  0
   60.9811   30.6534   52.6513 H   0  0  0  0  0  0  0  0  0  0  0  0
   61.0345   28.8496   52.8479 H   0  0  0  0  0  0  0  0  0  0  0  0
   58.9270   29.5870   51.9480 S   0  0  0  0  0  0  0  0  0  0  0  0
   58.9600   30.4340   50.3640 C   0  0  0  0  0  0  0  0  0  0  0  0
   58.9530   29.7880   49.1800 N   0  0  0  0  0  0  0  0  0  0  0  0
   58.9470   30.7290   48.2500 N   0  0  0  0  0  0  0  0  0  0  0  0
   58.9430   30.5490   47.2220 H   0  0  0  0  0  0  0  0  0  0  0  0
   58.9410   31.9270   48.8640 C   0  0  0  0  0  0  0  0  0  0  0  0
   58.9580   33.2380   48.1360 C   0  0  0  0  0  0  0  0  0  0  0  0
   58.3026   33.9521   48.6561 H   0  0  0  0  0  0  0  0  0  0  0  0
   59.9873   33.6253   48.1130 H   0  0  0  0  0  0  0  0  0  0  0  0
   58.4720   33.0500   46.7330 C   0  0  0  0  0  0  0  0  0  0  0  0
   61.7770   30.7810   48.1980 N   0  0  0  0  0  0  0  0  0  0  0  0
   62.3780   31.2140   49.3270 C   0  0  0  0  0  0  0  0  0  0  0  0
   62.4220   30.5470   50.4430 N   0  0  0  0  0  0  0  0  0  0  0  0
   56.6470   29.7020   44.8630 C   0  0  0  0  0  0  0  0  0  0  0  0
   55.5470   29.0900   44.9020 O   0  0  0  0  0  0  0  0  0  0  0  0
   57.8910   28.9920   45.2520 C   0  0  0  0  0  0  0  0  0  0  0  0
   59.1470   29.5150   44.8920 C   0  0  0  0  0  0  0  0  0  0  0  0
   59.2038   30.4477   44.3116 H   0  0  0  0  0  0  0  0  0  0  0  0
   60.3220   28.8590   45.2660 C   0  0  0  0  0  0  0  0  0  0  0  0
   61.2988   29.2726   44.9748 H   0  0  0  0  0  0  0  0  0  0  0  0
   60.2580   27.6790   46.0090 C   0  0  0  0  0  0  0  0  0  0  0  0
   61.1841   27.1617   46.3000 H   0  0  0  0  0  0  0  0  0  0  0  0
   59.0190   27.1550   46.3830 C   0  0  0  0  0  0  0  0  0  0  0  0
   58.9714   26.2263   46.9706 H   0  0  0  0  0  0  0  0  0  0  0  0
   57.8380   27.8070   46.0130 C   0  0  0  0  0  0  0  0  0  0  0  0
   56.6470   27.2660   46.3750 F   0  0  0  0  0  0  0  0  0  0  0  0
   63.1260   32.7000   49.1110 S   0  0  0  0  0  0  0  0  0  0  0  0
   58.6680   33.9980   45.7290 C   0  0  0  0  0  0  0  0  0  0  0  0
   59.2203   34.9438   45.8310 H   0  0  0  0  0  0  0  0  0  0  0  0
   58.9760   31.7750   50.2030 N   0  0  0  0  0  0  0  0  0  0  0  0
   58.9050   32.8080   51.2340 C   0  0  0  0  0  0  0  0  0  0  0  0
   58.9374   32.3372   52.2276 H   0  0  0  0  0  0  0  0  0  0  0  0
   59.7581   33.4938   51.1253 H   0  0  0  0  0  0  0  0  0  0  0  0
   57.9661   33.3706   51.1253 H   0  0  0  0  0  0  0  0  0  0  0  0
   57.9110   33.4400   44.3350 S   0  0  0  0  0  0  0  0  0  0  0  0
   62.6500   32.8160   47.5010 C   0  0  0  0  0  0  0  0  0  0  0  0
   62.8744   33.6499   46.8196 H   0  0  0  0  0  0  0  0  0  0  0  0
  1  2  1  0
  2  3  1  0
  3  4  1  0
  4  5  2  0
  5  6  1  0
  6  7  2  0
  6  8  1  0
  8  9  1  0
  8 10  1  0
  8 11  1  0
 11 12  1  0
 12 13  2  0
 13 14  1  0
 14 15  1  0
 14 16  2  0
 16 17  1  0
 17 18  1  0
 17 19  1  0
 17 20  1  0
 20 21  1  0
 21 22  1  0
 22 23  2  0
 23 24  1  0
 24 25  2  0
 24 26  1  0
 26 27  2  0
 27 28  1  0
 27 29  1  0
 29 30  1  0
 29 31  2  0
 31 32  1  0
 31 33  1  0
 33 34  1  0
 33 35  2  0
 35 36  1  0
 22 37  1  0
 37 38  1  0
 38 39  1  0
 16 40  1  0
 40 41  1  0
 41 42  1  0
 41 43  1  0
 41 44  1  0
  4 45  1  0
 45 46  1  0
 46 47  1  0
 46  2  2  0
 40 12  1  0
 38 20  2  0
 35 26  1  0
M  CHG  3   3  -1  14   1  21  -1
M  END
>  <UniqueID>  (27) 
25

>  <SMILES>  (27) 
Cn1c(SCC(=O)/N=c2\[n-]ccs2)n[nH+]c1Cc1cs/c(=N\C(=O)c2ccccc2F)[n-]1

>  <Energy>  (27) 
153.2760586122272

>  <Genealogy>  (27) 
Cn1c(SCC(=O)N=c2[n-]ccs2)n[nH+]c1Cc1csc(=NC(=O)c2ccccc2F)[n-]1 (protonated)
Cn1c(SCC(=O)/N=c2\[n-]ccs2)n[nH+]c1Cc1cs/c(=N\C(=O)c2ccccc2F)[n-]1 (cis-trans isomerization)
Cn1c(SCC(=O)/N=c2\[n-]ccs2)n[nH+]c1Cc1cs/c(=N\C(=O)c2ccccc2F)[n-]1 (3D coordinates assigned)
Cn1c(SCC(=O)/N=c2\[n-]ccs2)n[nH+]c1Cc1cs/c(=N\C(=O)c2ccccc2F)[n-]1 (optimized conformer: 153.2760586122272 kcal/mol)

>  <smiles>  (27) 
Cn1c(Cc2csc(=NC(=O)c3ccccc3F)[nH]2)nnc1SCC(=O)N=c1[nH]ccs1

>  <score_type>  (27) 
oracle

>  <origin>  (27) 
adg

>  <m_score__min__energy>  (27) 
-10.880000000000001

>  <m_primary>  (27) 
energy

$$$$
27:0
     RDKit          3D

 39 41  0  0  0  0  0  0  0  0999 V2000
   60.4110   27.1680   48.8900 C   0  0  0  0  0  0  0  0  0  0  0  0
   60.4070   28.1160   47.6910 C   0  0  0  0  0  0  0  0  0  0  0  0
   60.4230   27.3740   46.4090 N   0  0  0  0  0  0  0  0  0  0  0  0
   60.9240   28.1560   45.2610 C   0  0  0  0  0  0  0  0  0  0  0  0
   60.0270   29.3570   44.9270 C   0  0  0  0  0  0  0  0  0  0  0  0
   58.5390   29.0530   45.0070 C   0  0  0  0  0  0  0  0  0  0  0  0
   58.1100   27.8540   45.6210 C   0  0  0  0  0  0  0  0  0  0  0  0
   56.7360   27.6030   45.7020 C   0  0  0  0  0  0  0  0  0  0  0  0
   56.3030   26.5290   46.2000 O   0  0  0  0  0  0  0  0  0  0  0  0
   55.8560   28.5180   45.2420 N   0  0  0  0  0  0  0  0  0  0  0  0
   56.2630   29.6830   44.6860 C   0  0  0  0  0  0  0  0  0  0  0  0
   55.3870   30.4930   44.2800 O   0  0  0  0  0  0  0  0  0  0  0  0
   57.6040   29.9680   44.5620 N   0  0  0  0  0  0  0  0  0  0  0  0
   58.0180   31.2500   43.9430 C   0  0  0  0  0  0  0  0  0  0  0  0
   58.2580   32.3190   44.9840 C   0  0  0  0  0  0  0  0  0  0  0  0
   58.6540   33.6090   44.5890 C   0  0  0  0  0  0  0  0  0  0  0  0
   58.9020   34.5970   45.5460 C   0  0  0  0  0  0  0  0  0  0  0  0
   58.7720   34.3040   46.9050 C   0  0  0  0  0  0  0  0  0  0  0  0
   58.3990   33.0200   47.3100 C   0  0  0  0  0  0  0  0  0  0  0  0
   58.1500   32.0280   46.3550 C   0  0  0  0  0  0  0  0  0  0  0  0
   59.1010   26.8060   46.0880 C   0  0  0  0  0  0  0  0  0  0  0  0
   60.4085   27.7541   49.8208 H   0  0  0  0  0  0  0  0  0  0  0  0
   59.5155   26.5300   48.8560 H   0  0  0  0  0  0  0  0  0  0  0  0
   61.3118   26.5376   48.8560 H   0  0  0  0  0  0  0  0  0  0  0  0
   59.5014   28.7390   47.7316 H   0  0  0  0  0  0  0  0  0  0  0  0
   61.3136   28.7370   47.7404 H   0  0  0  0  0  0  0  0  0  0  0  0
   61.9324   28.5252   45.4996 H   0  0  0  0  0  0  0  0  0  0  0  0
   60.9315   27.4921   44.3840 H   0  0  0  0  0  0  0  0  0  0  0  0
   60.2540   30.1671   45.6357 H   0  0  0  0  0  0  0  0  0  0  0  0
   60.2412   29.6368   43.8850 H   0  0  0  0  0  0  0  0  0  0  0  0
   58.9468   31.0890   43.3760 H   0  0  0  0  0  0  0  0  0  0  0  0
   57.2076   31.5900   43.2815 H   0  0  0  0  0  0  0  0  0  0  0  0
   58.7693   33.8421   43.5202 H   0  0  0  0  0  0  0  0  0  0  0  0
   59.2001   35.6070   45.2281 H   0  0  0  0  0  0  0  0  0  0  0  0
   58.9632   35.0840   47.6566 H   0  0  0  0  0  0  0  0  0  0  0  0
   58.3009   32.7886   48.3809 H   0  0  0  0  0  0  0  0  0  0  0  0
   57.8683   31.0152   46.6788 H   0  0  0  0  0  0  0  0  0  0  0  0
   58.6994   26.3190   46.9889 H   0  0  0  0  0  0  0  0  0  0  0  0
   59.2389   26.0898   45.2646 H   0  0  0  0  0  0  0  0  0  0  0  0
  1  2  1  0
  2  3  1  0
  3  4  1  0
  4  5  1  0
  5  6  1  0
  6  7  2  0
  7  8  1  0
  8  9  2  0
  8 10  1  0
 10 11  1  0
 11 12  2  0
 11 13  1  0
 13 14  1  0
 14 15  1  0
 15 16  2  0
 16 17  1  0
 17 18  2  0
 18 19  1  0
 19 20  2  0
  7 21  1  0
 21  3  1  0
 13  6  1  0
 20 15  1  0
  1 22  1  0
  1 23  1  0
  1 24  1  0
  2 25  1  0
  2 26  1  0
  4 27  1  0
  4 28  1  0
  5 29  1  0
  5 30  1  0
 14 31  1  0
 14 32  1  0
 16 33  1  0
 17 34  1  0
 18 35  1  0
 19 36  1  0
 20 37  1  0
 21 38  1  0
 21 39  1  0
M  CHG  1  10  -1
M  END
>  <UniqueID>  (28) 
26

>  <SMILES>  (28) 
CCN1CCc2c(c(=O)[n-]c(=O)n2Cc2ccccc2)C1

>  <Energy>  (28) 
52.58227097173426

>  <Genealogy>  (28) 
CCN1CCc2c(c(=O)[n-]c(=O)n2Cc2ccccc2)C1 (protonated)
CCN1CCc2c(c(=O)[n-]c(=O)n2Cc2ccccc2)C1 (3D coordinates assigned)
CCN1CCc2c(c(=O)[n-]c(=O)n2Cc2ccccc2)C1 (nonaromatic ring conformer: 52.58227097173426 kcal/mol)

>  <smiles>  (28) 
CCN1CCc2c(c(=O)[nH]c(=O)n2Cc2ccccc2)C1

>  <score_type>  (28) 
oracle

>  <origin>  (28) 
adg

>  <m_score__min__energy>  (28) 
-9.1899999999999995

>  <m_primary>  (28) 
energy

$$$$
28:0
     RDKit          3D

 57 60  0  0  0  0  0  0  0  0999 V2000
   58.5470   29.1190   47.2600 C   0  0  0  0  0  0  0  0  0  0  0  0
   58.2430   29.7430   46.1110 C   0  0  0  0  0  0  0  0  0  0  0  0
   57.5150   29.2280   45.0230 C   0  0  0  0  0  0  0  0  0  0  0  0
   57.0630   27.9850   44.7650 C   0  0  0  0  0  0  0  0  0  0  0  0
   57.1780   26.8190   45.6610 C   0  0  0  0  0  0  0  0  0  0  0  0
   56.0430   26.2380   46.2530 C   0  0  0  0  0  0  0  0  0  0  0  0
   54.7700   26.7130   45.9640 O   0  0  0  0  0  0  0  0  0  0  0  0
   56.1860   25.2050   47.1240 N   0  0  0  0  0  0  0  0  0  0  0  0
   57.4140   24.7310   47.4520 C   0  0  0  0  0  0  0  0  0  0  0  0
   57.5240   23.7740   48.2620 O   0  0  0  0  0  0  0  0  0  0  0  0
   58.5270   25.2930   46.9140 N   0  0  0  0  0  0  0  0  0  0  0  0
   58.4380   26.3280   46.0370 C   0  0  0  0  0  0  0  0  0  0  0  0
   59.4910   26.8330   45.5640 O   0  0  0  0  0  0  0  0  0  0  0  0
   57.3040   30.2900   44.1590 C   0  0  0  0  0  0  0  0  0  0  0  0
   57.9380   31.3850   44.7060 C   0  0  0  0  0  0  0  0  0  0  0  0
   57.9550   32.7530   44.0920 C   0  0  0  0  0  0  0  0  0  0  0  0
   58.5060   31.0580   45.8890 N   0  0  0  0  0  0  0  0  0  0  0  0
   59.2100   31.9650   46.7550 C   0  0  0  0  0  0  0  0  0  0  0  0
   58.5250   32.6390   47.7740 C   0  0  0  0  0  0  0  0  0  0  0  0
   59.2020   33.5400   48.5980 C   0  0  0  0  0  0  0  0  0  0  0  0
   60.5640   33.7810   48.4040 C   0  0  0  0  0  0  0  0  0  0  0  0
   61.2690   33.1230   47.3770 C   0  0  0  0  0  0  0  0  0  0  0  0
   62.7180   33.3640   47.1510 C   0  0  0  0  0  0  0  0  0  0  0  0
   63.0620   34.2430   46.3090 O   0  0  0  0  0  0  0  0  0  0  0  0
   63.7380   32.6130   47.8570 N   0  0  1  0  0  0  0  0  0  0  0  0
   64.4260   33.5010   48.8300 C   0  0  0  0  0  0  0  0  0  0  0  0
   65.1460   32.6940   49.9170 C   0  0  0  0  0  0  0  0  0  0  0  0
   64.1420   31.8660   50.7580 C   0  0  1  0  0  0  0  0  0  0  0  0
   63.7950   32.5860   52.0750 C   0  0  0  0  0  0  0  0  0  0  0  0
   63.0090   33.7220   51.8320 O   0  0  0  0  0  0  0  0  0  0  0  0
   62.8590   31.5290   49.9590 C   0  0  0  0  0  0  0  0  0  0  0  0
   63.1660   31.3730   48.4620 C   0  0  0  0  0  0  0  0  0  0  0  0
   60.5800   32.2020   46.5660 C   0  0  0  0  0  0  0  0  0  0  0  0
   59.1275   29.6430   48.0336 H   0  0  0  0  0  0  0  0  0  0  0  0
   58.2157   28.0836   47.4279 H   0  0  0  0  0  0  0  0  0  0  0  0
   56.5628   27.8254   43.7984 H   0  0  0  0  0  0  0  0  0  0  0  0
   56.7383   30.2644   43.2160 H   0  0  0  0  0  0  0  0  0  0  0  0
   57.9644   33.5121   44.8880 H   0  0  0  0  0  0  0  0  0  0  0  0
   58.8546   32.8640   43.4688 H   0  0  0  0  0  0  0  0  0  0  0  0
   57.0584   32.8864   43.4688 H   0  0  0  0  0  0  0  0  0  0  0  0
   57.4506   32.4579   47.9254 H   0  0  0  0  0  0  0  0  0  0  0  0
   58.6615   34.0613   49.4018 H   0  0  0  0  0  0  0  0  0  0  0  0
   61.0908   34.4907   49.0588 H   0  0  0  0  0  0  0  0  0  0  0  0
   64.4520   32.2880   47.1640 H   0  0  0  0  0  0  0  0  0  0  0  0
   63.6806   34.1554   49.3056 H   0  0  0  0  0  0  0  0  0  0  0  0
   65.1767   34.0927   48.2857 H   0  0  0  0  0  0  0  0  0  0  0  0
   65.6844   33.3866   50.5806 H   0  0  0  0  0  0  0  0  0  0  0  0
   65.8468   32.0005   49.4292 H   0  0  0  0  0  0  0  0  0  0  0  0
   64.6346   30.9141   51.0054 H   0  0  0  0  0  0  0  0  0  0  0  0
   63.2392   31.8961   52.7270 H   0  0  0  0  0  0  0  0  0  0  0  0
   64.7304   32.9027   52.5596 H   0  0  0  0  0  0  0  0  0  0  0  0
   62.4090   33.8260   52.6150 H   0  0  0  0  0  0  0  0  0  0  0  0
   62.1283   32.3402   50.0935 H   0  0  0  0  0  0  0  0  0  0  0  0
   62.4532   30.5778   50.3338 H   0  0  0  0  0  0  0  0  0  0  0  0
   62.2328   31.1232   47.9359 H   0  0  0  0  0  0  0  0  0  0  0  0
   63.9178   30.5766   48.3590 H   0  0  0  0  0  0  0  0  0  0  0  0
   61.1214   31.6620   45.7753 H   0  0  0  0  0  0  0  0  0  0  0  0
  1  2  2  0
  2  3  1  0
  3  4  2  3
  4  5  1  0
  5  6  2  0
  6  7  1  0
  6  8  1  0
  8  9  1  0
  9 10  2  0
  9 11  1  0
 11 12  1  0
 12 13  2  0
  3 14  1  0
 14 15  2  0
 15 16  1  0
 15 17  1  0
 17 18  1  0
 18 19  2  0
 19 20  1  0
 20 21  2  0
 21 22  1  0
 22 23  1  0
 23 24  2  0
 23 25  1  0
 25 26  1  0
 26 27  1  0
 27 28  1  0
 28 29  1  0
 29 30  1  0
 28 31  1  0
 31 32  1  0
 22 33  2  0
 17  2  1  0
 33 18  1  0
 12  5  1  0
 32 25  1  0
  1 34  1  0
  1 35  1  0
  4 36  1  0
 14 37  1  0
 16 38  1  0
 16 39  1  0
 16 40  1  0
 19 41  1  0
 20 42  1  0
 21 43  1  0
 25 44  1  6
 26 45  1  0
 26 46  1  0
 27 47  1  0
 27 48  1  0
 28 49  1  1
 29 50  1  0
 29 51  1  0
 30 52  1  0
 31 53  1  0
 31 54  1  0
 32 55  1  0
 32 56  1  0
 33 57  1  0
M  CHG  4   7  -1   8  -1  11  -1  25   1
M  END
>  <UniqueID>  (29) 
27

>  <SMILES>  (29) 
C=c1c(=Cc2c([O-])[n-]c(=O)[n-]c2=O)cc(C)n1-c1cccc(C(=O)[NH+]2CCC(CO)CC2)c1

>  <Energy>  (29) 
120.57404519420199

>  <Genealogy>  (29) 
C=c1c(=Cc2c([O-])[n-]c(=O)[n-]c2=O)cc(C)n1-c1cccc(C(=O)[NH+]2CCC(CO)CC2)c1 (protonated)
C=c1c(=Cc2c([O-])[n-]c(=O)[n-]c2=O)cc(C)n1-c1cccc(C(=O)[NH+]2CCC(CO)CC2)c1 (3D coordinates assigned)
C=c1c(=Cc2c([O-])[n-]c(=O)[n-]c2=O)cc(C)n1-c1cccc(C(=O)[NH+]2CCC(CO)CC2)c1 (nonaromatic ring conformer: 120.57404519420199 kcal/mol)

>  <smiles>  (29) 
C=c1c(=Cc2c(O)[nH]c(=O)[nH]c2=O)cc(C)n1-c1cccc(C(=O)N2CCC(CO)CC2)c1

>  <score_type>  (29) 
oracle

>  <origin>  (29) 
adg

>  <m_score__min__energy>  (29) 
-15.58

>  <m_primary>  (29) 
energy

$$$$
29:0
     RDKit          3D

 44 46  0  0  0  0  0  0  0  0999 V2000
   60.7790   31.9470   49.5160 H   0  0  0  0  0  0  0  0  0  0  0  0
   60.5940   32.5420   50.3130 O   0  0  0  0  0  0  0  0  0  0  0  0
   60.3340   33.8800   50.1230 N   0  0  0  0  0  0  0  0  0  0  0  0
   60.4350   34.4700   48.9690 C   0  0  0  0  0  0  0  0  0  0  0  0
   61.0937   35.3477   48.8925 H   0  0  0  0  0  0  0  0  0  0  0  0
   59.7150   34.0300   47.7500 C   0  0  0  0  0  0  0  0  0  0  0  0
   60.0680   34.4830   46.4660 C   0  0  0  0  0  0  0  0  0  0  0  0
   60.9248   35.1614   46.3409 H   0  0  0  0  0  0  0  0  0  0  0  0
   59.3350   34.0750   45.3490 C   0  0  0  0  0  0  0  0  0  0  0  0
   59.6331   34.4140   44.3459 H   0  0  0  0  0  0  0  0  0  0  0  0
   58.2190   33.2340   45.4990 C   0  0  0  0  0  0  0  0  0  0  0  0
   57.4720   32.7850   44.4010 O   0  0  0  0  0  0  0  0  0  0  0  0
   57.0180   31.4730   44.2120 C   0  0  0  0  0  0  0  0  0  0  0  0
   56.6550   30.6750   45.2270 N   0  0  0  0  0  0  0  0  0  0  0  0
   56.2660   29.5360   44.6140 C   0  0  0  0  0  0  0  0  0  0  0  0
   55.8610   28.4730   45.2450 N   0  0  0  0  0  0  0  0  0  0  0  0
   56.6370   27.3420   45.6760 C   0  0  0  0  0  0  0  0  0  0  0  0
   56.0600   26.4480   46.3480 O   0  0  0  0  0  0  0  0  0  0  0  0
   58.1190   27.2070   45.4260 C   0  0  0  0  0  0  0  0  0  0  0  0
   58.3000   27.2512   44.3419 H   0  0  0  0  0  0  0  0  0  0  0  0
   58.4447   26.2456   45.8498 H   0  0  0  0  0  0  0  0  0  0  0  0
   58.9170   28.3000   46.0960 C   0  0  0  0  0  0  0  0  0  0  0  0
   59.9430   28.9650   45.4050 C   0  0  0  0  0  0  0  0  0  0  0  0
   60.1483   28.7106   44.3547 H   0  0  0  0  0  0  0  0  0  0  0  0
   60.7050   29.9480   46.0430 C   0  0  0  0  0  0  0  0  0  0  0  0
   61.5001   30.4691   45.4896 H   0  0  0  0  0  0  0  0  0  0  0  0
   60.4600   30.2740   47.3890 C   0  0  0  0  0  0  0  0  0  0  0  0
   61.1950   31.2560   48.0720 O   0  0  0  0  0  0  0  0  0  0  0  0
   62.4610   31.7500   47.6480 C   0  0  0  0  0  0  0  0  0  0  0  0
   63.0748   31.9895   48.5288 H   0  0  0  0  0  0  0  0  0  0  0  0
   62.9697   30.9844   47.0438 H   0  0  0  0  0  0  0  0  0  0  0  0
   62.3167   32.6578   47.0438 H   0  0  0  0  0  0  0  0  0  0  0  0
   59.4510   29.5980   48.0830 C   0  0  0  0  0  0  0  0  0  0  0  0
   59.2517   29.8466   49.1358 H   0  0  0  0  0  0  0  0  0  0  0  0
   58.6950   28.6100   47.4490 C   0  0  0  0  0  0  0  0  0  0  0  0
   57.9198   28.0701   48.0126 H   0  0  0  0  0  0  0  0  0  0  0  0
   56.3540   29.5720   43.2670 N   0  0  0  0  0  0  0  0  0  0  0  0
   56.8180   30.8090   43.0230 C   0  0  0  0  0  0  0  0  0  0  0  0
   57.0190   31.3250   41.7470 O   0  0  0  0  0  0  0  0  0  0  0  0
   57.2120   32.3100   41.6130 H   0  0  0  0  0  0  0  0  0  0  0  0
   57.8670   32.7880   46.7770 C   0  0  0  0  0  0  0  0  0  0  0  0
   57.0069   32.1138   46.9022 H   0  0  0  0  0  0  0  0  0  0  0  0
   58.5990   33.1920   47.8950 C   0  0  0  0  0  0  0  0  0  0  0  0
   58.2987   32.8509   48.8967 H   0  0  0  0  0  0  0  0  0  0  0  0
  1  2  1  0
  2  3  1  0
  3  4  2  3
  4  5  1  0
  4  6  1  0
  6  7  2  0
  7  8  1  0
  7  9  1  0
  9 10  1  0
  9 11  2  0
 11 12  1  0
 12 13  1  0
 13 14  1  0
 14 15  1  0
 15 16  2  0
 16 17  1  0
 17 18  2  0
 17 19  1  0
 19 20  1  0
 19 21  1  0
 19 22  1  0
 22 23  2  0
 23 24  1  0
 23 25  1  0
 25 26  1  0
 25 27  2  0
 27 28  1  0
 28 29  1  0
 29 30  1  0
 29 31  1  0
 29 32  1  0
 27 33  1  0
 33 34  1  0
 33 35  2  0
 35 36  1  0
 15 37  1  0
 37 38  1  0
 38 39  1  0
 39 40  1  0
 11 41  1  0
 41 42  1  0
 41 43  2  0
 43 44  1  0
 43  6  1  0
 38 13  2  0
 35 22  1  0
M  CHG  2  14  -1  37  -1
M  END
>  <UniqueID>  (30) 
28

>  <SMILES>  (30) 
COc1ccc(CC(=O)/N=c2/[n-]c(O)c(Oc3ccc(C=NO)cc3)[n-]2)cc1

>  <Energy>  (30) 
88.46076524062086

>  <Genealogy>  (30) 
COc1ccc(CC(=O)N=c2[n-]c(O)c(Oc3ccc(C=NO)cc3)[n-]2)cc1 (protonated)
COc1ccc(CC(=O)/N=c2/[n-]c(O)c(Oc3ccc(C=NO)cc3)[n-]2)cc1 (cis-trans isomerization)
COc1ccc(CC(=O)/N=c2/[n-]c(O)c(Oc3ccc(C=NO)cc3)[n-]2)cc1 (3D coordinates assigned)
COc1ccc(CC(=O)/N=c2/[n-]c(O)c(Oc3ccc(C=NO)cc3)[n-]2)cc1 (optimized conformer: 88.46076524062086 kcal/mol)

>  <smiles>  (30) 
COc1ccc(CC(=O)N=c2[nH]c(O)c(Oc3ccc(C=NO)cc3)[nH]2)cc1

>  <score_type>  (30) 
oracle

>  <origin>  (30) 
adg

>  <m_score__min__energy>  (30) 
-12.300000000000001

>  <m_primary>  (30) 
energy

$$$$
30:0
     RDKit          3D

 29 30  0  0  0  0  0  0  0  0999 V2000
   63.9684   33.8016   45.7803 H   0  0  0  0  0  0  0  0  0  0  0  0
   63.2650   33.8070   46.6260 C   0  0  0  0  0  0  0  0  0  0  0  0
   61.9250   33.8030   46.3950 N   0  0  0  0  0  0  0  0  0  0  0  0
   61.0180   33.8090   47.4140 C   0  0  0  0  0  0  0  0  0  0  0  0
   59.6030   33.8020   47.1570 N   0  0  0  0  0  0  0  0  0  0  0  0
   58.9960   33.1880   46.1840 C   0  0  0  0  0  0  0  0  0  0  0  0
   58.8140   31.8520   46.1180 N   0  0  0  0  0  0  0  0  0  0  0  0
   58.1330   31.4950   44.9930 C   0  0  0  0  0  0  0  0  0  0  0  0
   57.8390   30.0620   44.6800 C   0  0  0  0  0  0  0  0  0  0  0  0
   58.3807   29.4174   45.3879 H   0  0  0  0  0  0  0  0  0  0  0  0
   58.1626   29.8467   43.6510 H   0  0  0  0  0  0  0  0  0  0  0  0
   56.3630   29.7950   44.7950 C   0  0  0  0  0  0  0  0  0  0  0  0
   55.5520   30.7160   44.5090 O   0  0  0  0  0  0  0  0  0  0  0  0
   55.8440   28.5370   45.2480 N   0  0  0  0  0  0  0  0  0  0  0  0
   56.6560   27.3990   45.6580 C   0  0  0  0  0  0  0  0  0  0  0  0
   57.3968   27.7259   46.4025 H   0  0  0  0  0  0  0  0  0  0  0  0
   57.1765   26.9842   44.7822 H   0  0  0  0  0  0  0  0  0  0  0  0
   55.7760   26.3530   46.2570 C   0  0  0  0  0  0  0  0  0  0  0  0
   54.5480   26.3250   45.9820 O   0  0  0  0  0  0  0  0  0  0  0  0
   56.3170   25.3780   47.0830 O   0  0  0  0  0  0  0  0  0  0  0  0
   57.7850   32.5520   44.1530 C   0  0  0  0  0  0  0  0  0  0  0  0
   57.2438   32.4689   43.1990 H   0  0  0  0  0  0  0  0  0  0  0  0
   58.3390   33.9780   44.8560 S   0  0  0  0  0  0  0  0  0  0  0  0
   61.4690   33.8210   48.7390 C   0  0  0  0  0  0  0  0  0  0  0  0
   60.7484   33.8264   49.5701 H   0  0  0  0  0  0  0  0  0  0  0  0
   62.8420   33.8260   48.9970 C   0  0  0  0  0  0  0  0  0  0  0  0
   63.2077   33.8362   50.0344 H   0  0  0  0  0  0  0  0  0  0  0  0
   63.7490   33.8180   47.9360 C   0  0  0  0  0  0  0  0  0  0  0  0
   64.8319   33.8203   48.1293 H   0  0  0  0  0  0  0  0  0  0  0  0
  1  2  1  0
  2  3  2  0
  3  4  1  0
  4  5  1  0
  5  6  2  0
  6  7  1  0
  7  8  1  0
  8  9  1  0
  9 10  1  0
  9 11  1  0
  9 12  1  0
 12 13  2  0
 12 14  1  0
 14 15  1  0
 15 16  1  0
 15 17  1  0
 15 18  1  0
 18 19  2  0
 18 20  1  0
  8 21  2  0
 21 22  1  0
 21 23  1  0
  4 24  2  0
 24 25  1  0
 24 26  1  0
 26 27  1  0
 26 28  2  0
 28 29  1  0
 28  2  1  0
 23  6  1  0
M  CHG  3   7  -1  14  -1  20  -1
M  END
>  <UniqueID>  (31) 
29

>  <SMILES>  (31) 
O=C([O-])C[N-]C(=O)Cc1cs/c(=N/c2ccccn2)[n-]1

>  <Energy>  (31) 
56.948026006317264

>  <Genealogy>  (31) 
O=C([O-])C[N-]C(=O)Cc1csc(=Nc2ccccn2)[n-]1 (protonated)
O=C([O-])C[N-]C(=O)Cc1cs/c(=N/c2ccccn2)[n-]1 (cis-trans isomerization)
O=C([O-])C[N-]C(=O)Cc1cs/c(=N/c2ccccn2)[n-]1 (3D coordinates assigned)
O=C([O-])C[N-]C(=O)Cc1cs/c(=N/c2ccccn2)[n-]1 (optimized conformer: 56.948026006317264 kcal/mol)

>  <smiles>  (31) 
O=C(O)CNC(=O)Cc1csc(=Nc2ccccn2)[nH]1

>  <score_type>  (31) 
oracle

>  <origin>  (31) 
adg

>  <m_score__min__energy>  (31) 
-13.41

>  <m_primary>  (31) 
energy

$$$$
31:0
     RDKit          3D

 43 45  0  0  0  0  0  0  0  0999 V2000
   61.8305   29.3578   47.7329 H   0  0  0  0  0  0  0  0  0  0  0  0
   60.7680   29.5200   47.4990 C   0  0  0  0  0  0  0  0  0  0  0  0
   60.3060   29.0700   46.3240 C   0  0  0  0  0  0  0  0  0  0  0  0
   60.9559   29.1803   45.4434 H   0  0  0  0  0  0  0  0  0  0  0  0
   58.9830   28.4350   46.1270 C   0  0  0  0  0  0  0  0  0  0  0  0
   58.6840   27.1840   46.6900 C   0  0  0  0  0  0  0  0  0  0  0  0
   59.4520   26.6502   47.2690 H   0  0  0  0  0  0  0  0  0  0  0  0
   57.4170   26.6080   46.5220 C   0  0  0  0  0  0  0  0  0  0  0  0
   57.1100   25.2740   47.1420 C   0  0  0  0  0  0  0  0  0  0  0  0
   57.1311   25.3655   48.2380 H   0  0  0  0  0  0  0  0  0  0  0  0
   56.1118   24.9414   46.8209 H   0  0  0  0  0  0  0  0  0  0  0  0
   57.8624   24.5386   46.8209 H   0  0  0  0  0  0  0  0  0  0  0  0
   56.4260   27.3100   45.8130 C   0  0  0  0  0  0  0  0  0  0  0  0
   55.1590   26.7540   45.6570 O   0  0  0  0  0  0  0  0  0  0  0  0
   56.7080   28.5740   45.2670 C   0  0  0  0  0  0  0  0  0  0  0  0
   55.6450   29.3300   44.5210 C   0  0  0  0  0  0  0  0  0  0  0  0
   54.9660   29.8129   45.2392 H   0  0  0  0  0  0  0  0  0  0  0  0
   56.1159   30.0972   43.8888 H   0  0  0  0  0  0  0  0  0  0  0  0
   55.0749   28.6334   43.8888 H   0  0  0  0  0  0  0  0  0  0  0  0
   57.9840   29.1350   45.4390 C   0  0  0  0  0  0  0  0  0  0  0  0
   58.2006   30.1328   45.0298 H   0  0  0  0  0  0  0  0  0  0  0  0
   59.9370   30.2200   48.4980 C   0  0  0  0  0  0  0  0  0  0  0  0
   59.2680   29.4780   49.4220 N   0  0  0  0  0  0  0  0  0  0  0  0
   58.5040   30.0590   50.3780 C   0  0  0  0  0  0  0  0  0  0  0  0
   57.8970   29.3450   51.2180 O   0  0  0  0  0  0  0  0  0  0  0  0
   58.3940   31.4090   50.4330 N   0  0  0  0  0  0  0  0  0  0  0  0
   59.0340   32.2030   49.5370 C   0  0  0  0  0  0  0  0  0  0  0  0
   58.8920   33.4520   49.6180 O   0  0  0  0  0  0  0  0  0  0  0  0
   59.8380   31.6300   48.5300 C   0  0  0  0  0  0  0  0  0  0  0  0
   60.4630   32.4940   47.4500 C   0  0  0  0  0  0  0  0  0  0  0  0
   60.9554   33.3589   47.9185 H   0  0  0  0  0  0  0  0  0  0  0  0
   61.1984   31.8927   46.8953 H   0  0  0  0  0  0  0  0  0  0  0  0
   59.4070   32.9850   46.4860 C   0  0  0  0  0  0  0  0  0  0  0  0
   58.3110   32.1580   46.1800 C   0  0  0  0  0  0  0  0  0  0  0  0
   58.2066   31.1842   46.6808 H   0  0  0  0  0  0  0  0  0  0  0  0
   57.3540   32.5620   45.2460 C   0  0  0  0  0  0  0  0  0  0  0  0
   56.5051   31.9038   45.0092 H   0  0  0  0  0  0  0  0  0  0  0  0
   57.4740   33.8000   44.6130 C   0  0  0  0  0  0  0  0  0  0  0  0
   56.7238   34.1139   43.8723 H   0  0  0  0  0  0  0  0  0  0  0  0
   58.5470   34.6410   44.9200 C   0  0  0  0  0  0  0  0  0  0  0  0
   58.6350   35.6197   44.4255 H   0  0  0  0  0  0  0  0  0  0  0  0
   59.5100   34.2430   45.8540 C   0  0  0  0  0  0  0  0  0  0  0  0
   60.5610   35.1060   46.1450 O   0  0  0  0  0  0  0  0  0  0  0  0
  1  2  1  0
  2  3  2  0
  3  4  1  0
  3  5  1  0
  5  6  2  0
  6  7  1  0
  6  8  1  0
  8  9  1  0
  9 10  1  0
  9 11  1  0
  9 12  1  0
  8 13  2  0
 13 14  1  0
 13 15  1  0
 15 16  1  0
 16 17  1  0
 16 18  1  0
 16 19  1  0
 15 20  2  0
 20 21  1  0
  2 22  1  0
 22 23  1  0
 23 24  1  0
 24 25  2  0
 24 26  1  0
 26 27  1  0
 27 28  2  0
 27 29  1  0
 29 30  1  0
 30 31  1  0
 30 32  1  0
 30 33  1  0
 33 34  2  0
 34 35  1  0
 34 36  1  0
 36 37  1  0
 36 38  2  0
 38 39  1  0
 38 40  1  0
 40 41  1  0
 40 42  2  0
 42 43  1  0
 20  5  1  0
 29 22  2  0
 42 33  1  0
M  CHG  4  14  -1  23  -1  26  -1  43  -1
M  END
>  <UniqueID>  (32) 
30

>  <SMILES>  (32) 
Cc1cc(/C=C\c2[n-]c(=O)[n-]c(=O)c2Cc2ccccc2[O-])cc(C)c1[O-]

>  <Energy>  (32) 
55.45220316226001

>  <Genealogy>  (32) 
Cc1cc(C=Cc2[n-]c(=O)[n-]c(=O)c2Cc2ccccc2[O-])cc(C)c1[O-] (protonated)
Cc1cc(/C=C\c2[n-]c(=O)[n-]c(=O)c2Cc2ccccc2[O-])cc(C)c1[O-] (cis-trans isomerization)
Cc1cc(/C=C\c2[n-]c(=O)[n-]c(=O)c2Cc2ccccc2[O-])cc(C)c1[O-] (3D coordinates assigned)
Cc1cc(/C=C\c2[n-]c(=O)[n-]c(=O)c2Cc2ccccc2[O-])cc(C)c1[O-] (optimized conformer: 55.45220316226001 kcal/mol)

>  <smiles>  (32) 
Cc1cc(C=Cc2[nH]c(=O)[nH]c(=O)c2Cc2ccccc2O)cc(C)c1O

>  <score_type>  (32) 
oracle

>  <origin>  (32) 
adg

>  <m_score__min__energy>  (32) 
-14.67

>  <m_primary>  (32) 
energy

$$$$
32:0
     RDKit          3D

 45 48  0  0  0  0  0  0  0  0999 V2000
   58.5010   34.7840   45.3720 C   0  0  0  0  0  0  0  0  0  0  0  0
   59.0310   33.9310   44.4990 C   0  0  0  0  0  0  0  0  0  0  0  0
   58.4550   32.6010   44.2300 C   0  0  0  0  0  0  0  0  0  0  0  0
   58.0240   32.2460   43.0040 N   0  0  0  0  0  0  0  0  0  0  0  0
   57.5310   31.0210   43.1000 N   0  0  0  0  0  0  0  0  0  0  0  0
   57.6510   30.6530   44.3870 C   0  0  0  0  0  0  0  0  0  0  0  0
   57.1820   29.3610   44.9040 C   0  0  0  0  0  0  0  0  0  0  0  0
   55.8980   28.8720   44.9260 C   0  0  0  0  0  0  0  0  0  0  0  0
   54.7860   29.4620   44.3400 O   0  0  0  0  0  0  0  0  0  0  0  0
   55.8700   27.7520   45.6120 O   0  0  0  0  0  0  0  0  0  0  0  0
   57.0550   27.4600   46.0720 N   0  0  0  0  0  0  0  0  0  0  0  0
   57.8830   28.4390   45.6480 C   0  0  0  0  0  0  0  0  0  0  0  0
   59.1340   28.5510   45.9830 N   0  0  0  0  0  0  0  0  0  0  0  0
   59.7830   27.8420   47.0500 C   0  0  0  0  0  0  0  0  0  0  0  0
   60.3240   26.7340   46.7920 O   0  0  0  0  0  0  0  0  0  0  0  0
   59.7960   28.3430   48.4440 C   0  0  0  0  0  0  0  0  0  0  0  0
   58.8740   29.3250   48.8480 C   0  0  0  0  0  0  0  0  0  0  0  0
   58.8920   29.8140   50.1580 C   0  0  0  0  0  0  0  0  0  0  0  0
   59.8360   29.3360   51.0720 C   0  0  0  0  0  0  0  0  0  0  0  0
   59.8530   29.8140   52.3410 F   0  0  0  0  0  0  0  0  0  0  0  0
   60.7670   28.3740   50.6750 C   0  0  0  0  0  0  0  0  0  0  0  0
   60.7530   27.8810   49.3660 C   0  0  0  0  0  0  0  0  0  0  0  0
   58.2340   31.6160   45.1330 N   0  0  0  0  0  0  0  0  0  0  0  0
   58.4130   31.6180   46.5920 C   0  0  0  0  0  0  0  0  0  0  0  0
   59.8450   31.9260   46.9540 C   0  0  0  0  0  0  0  0  0  0  0  0
   60.8540   30.9720   46.7420 C   0  0  0  0  0  0  0  0  0  0  0  0
   62.1710   31.2390   47.1290 C   0  0  0  0  0  0  0  0  0  0  0  0
   62.4950   32.4610   47.7260 C   0  0  0  0  0  0  0  0  0  0  0  0
   63.8080   32.7070   48.1200 O   0  0  0  0  0  0  0  0  0  0  0  0
   61.4970   33.4230   47.9260 C   0  0  0  0  0  0  0  0  0  0  0  0
   60.1790   33.1600   47.5370 C   0  0  0  0  0  0  0  0  0  0  0  0
   58.9700   35.7654   45.5362 H   0  0  0  0  0  0  0  0  0  0  0  0
   57.5938   34.5078   45.9295 H   0  0  0  0  0  0  0  0  0  0  0  0
   59.9383   34.2313   43.9544 H   0  0  0  0  0  0  0  0  0  0  0  0
   58.1350   29.7104   48.1301 H   0  0  0  0  0  0  0  0  0  0  0  0
   58.1624   30.5758   50.4699 H   0  0  0  0  0  0  0  0  0  0  0  0
   61.5130   28.0030   51.3932 H   0  0  0  0  0  0  0  0  0  0  0  0
   61.4934   27.1288   49.0562 H   0  0  0  0  0  0  0  0  0  0  0  0
   57.7565   32.3813   47.0351 H   0  0  0  0  0  0  0  0  0  0  0  0
   58.1568   30.6214   46.9808 H   0  0  0  0  0  0  0  0  0  0  0  0
   60.6069   30.0100   46.2692 H   0  0  0  0  0  0  0  0  0  0  0  0
   62.9546   30.4851   46.9632 H   0  0  0  0  0  0  0  0  0  0  0  0
   64.5920   32.4810   47.5180 H   0  0  0  0  0  0  0  0  0  0  0  0
   61.7500   34.3877   48.3900 H   0  0  0  0  0  0  0  0  0  0  0  0
   59.4009   33.9227   47.6883 H   0  0  0  0  0  0  0  0  0  0  0  0
  1  2  2  0
  2  3  1  0
  3  4  2  0
  4  5  1  0
  5  6  2  0
  6  7  1  0
  7  8  2  0
  8  9  1  0
  8 10  1  0
 10 11  1  0
 11 12  1  0
 12 13  2  3
 13 14  1  0
 14 15  2  0
 14 16  1  0
 16 17  2  0
 17 18  1  0
 18 19  2  0
 19 20  1  0
 19 21  1  0
 21 22  2  0
  6 23  1  0
 23 24  1  0
 24 25  1  0
 25 26  2  0
 26 27  1  0
 27 28  2  0
 28 29  1  0
 28 30  1  0
 30 31  2  0
 23  3  1  0
 31 25  1  0
 12  7  1  0
 22 16  1  0
  1 32  1  0
  1 33  1  0
  2 34  1  0
 17 35  1  0
 18 36  1  0
 21 37  1  0
 22 38  1  0
 24 39  1  0
 24 40  1  0
 26 41  1  0
 27 42  1  0
 29 43  1  0
 30 44  1  0
 31 45  1  0
M  CHG  2   9  -1  11  -1
M  END
>  <UniqueID>  (33) 
31

>  <SMILES>  (33) 
C=Cc1nnc(-c2c([O-])o[n-]c2=NC(=O)c2ccc(F)cc2)n1Cc1ccc(O)cc1

>  <Energy>  (33) 
133.02296423114487

>  <Genealogy>  (33) 
C=Cc1nnc(-c2c([O-])o[n-]c2=NC(=O)c2ccc(F)cc2)n1Cc1ccc(O)cc1 (protonated)
C=Cc1nnc(-c2c([O-])o[n-]c2=NC(=O)c2ccc(F)cc2)n1Cc1ccc(O)cc1 (3D coordinates assigned)
C=Cc1nnc(-c2c([O-])o[n-]c2=NC(=O)c2ccc(F)cc2)n1Cc1ccc(O)cc1 (optimized conformer: 133.02296423114487 kcal/mol)

>  <smiles>  (33) 
C=Cc1nnc(-c2c(O)o[nH]c2=NC(=O)c2ccc(F)cc2)n1Cc1ccc(O)cc1

>  <score_type>  (33) 
oracle

>  <origin>  (33) 
adg

>  <m_score__min__energy>  (33) 
-12.77

>  <m_primary>  (33) 
energy

$$$$
33:0
     RDKit          3D

 28 30  0  0  0  0  0  0  0  0999 V2000
   53.9840   24.0440   46.0070 S   0  0  0  0  0  0  0  0  0  0  0  0
   55.3440   24.9590   45.8080 C   0  0  0  0  0  0  0  0  0  0  0  0
   56.5870   24.4890   45.5840 N   0  0  0  0  0  0  0  0  0  0  0  0
   57.3700   25.5720   45.4870 N   0  0  0  0  0  0  0  0  0  0  0  0
   56.6270   26.6820   45.6460 C   0  0  0  0  0  0  0  0  0  0  0  0
   57.0330   28.0830   45.6220 C   0  0  0  0  0  0  0  0  0  0  0  0
   56.2880   28.9600   44.8750 C   0  0  0  0  0  0  0  0  0  0  0  0
   56.6790   30.2860   44.8570 C   0  0  0  0  0  0  0  0  0  0  0  0
   57.7750   30.7550   45.5500 C   0  0  0  0  0  0  0  0  0  0  0  0
   58.2200   32.1220   45.5600 C   0  0  0  0  0  0  0  0  0  0  0  0
   58.4660   32.7110   46.7940 C   0  0  0  0  0  0  0  0  0  0  0  0
   58.8960   34.0190   46.9160 C   0  0  0  0  0  0  0  0  0  0  0  0
   59.0830   34.7580   45.7610 C   0  0  0  0  0  0  0  0  0  0  0  0
   58.8530   34.2210   44.5150 C   0  0  0  0  0  0  0  0  0  0  0  0
   58.4200   32.8960   44.4360 C   0  0  0  0  0  0  0  0  0  0  0  0
   58.0920   32.1150   42.7280 Br  0  0  0  0  0  0  0  0  0  0  0  0
   58.5120   29.8320   46.3010 C   0  0  0  0  0  0  0  0  0  0  0  0
   58.1390   28.5010   46.3330 C   0  0  0  0  0  0  0  0  0  0  0  0
   55.3840   26.2770   45.8410 O   0  0  0  0  0  0  0  0  0  0  0  0
   56.9000   23.4760   45.5020 H   0  0  0  0  0  0  0  0  0  0  0  0
   55.4085   28.6194   44.3090 H   0  0  0  0  0  0  0  0  0  0  0  0
   56.0890   30.9993   44.2628 H   0  0  0  0  0  0  0  0  0  0  0  0
   58.3132   32.1154   47.7061 H   0  0  0  0  0  0  0  0  0  0  0  0
   59.0847   34.4610   47.9055 H   0  0  0  0  0  0  0  0  0  0  0  0
   59.4240   35.8007   45.8409 H   0  0  0  0  0  0  0  0  0  0  0  0
   59.0063   34.8199   43.6052 H   0  0  0  0  0  0  0  0  0  0  0  0
   59.3925   30.1673   46.8687 H   0  0  0  0  0  0  0  0  0  0  0  0
   58.7217   27.7783   46.9230 H   0  0  0  0  0  0  0  0  0  0  0  0
  1  2  2  0
  2  3  1  0
  3  4  1  0
  4  5  2  0
  5  6  1  0
  6  7  2  0
  7  8  1  0
  8  9  2  0
  9 10  1  0
 10 11  2  0
 11 12  1  0
 12 13  2  0
 13 14  1  0
 14 15  2  0
 15 16  1  0
  9 17  1  0
 17 18  2  0
  5 19  1  0
 19  2  1  0
 18  6  1  0
 15 10  1  0
  3 20  1  0
  7 21  1  0
  8 22  1  0
 11 23  1  0
 12 24  1  0
 13 25  1  0
 14 26  1  0
 17 27  1  0
 18 28  1  0
M  END
>  <smiles>  (34) 
S=c1[nH]nc(-c2ccc(-c3ccccc3Br)cc2)o1

>  <score_type>  (34) 
oracle

>  <origin>  (34) 
adg

>  <m_score__min__energy>  (34) 
-7.2999999999999998

>  <m_primary>  (34) 
energy

$$$$
34:0
     RDKit          3D

 52 56  0  0  0  0  0  0  0  0999 V2000
   58.4280   28.9160   48.6680 O   0  0  0  0  0  0  0  0  0  0  0  0
   59.3540   29.3360   47.9220 C   0  0  0  0  0  0  0  0  0  0  0  0
   60.2750   30.4200   48.2420 C   0  0  0  0  0  0  0  0  0  0  0  0
   60.3730   31.2240   49.3730 C   0  0  0  0  0  0  0  0  0  0  0  0
   61.3860   32.1990   49.4070 C   0  0  0  0  0  0  0  0  0  0  0  0
   62.2870   32.3530   48.3180 C   0  0  0  0  0  0  0  0  0  0  0  0
   63.3240   33.3480   48.3700 N   0  0  0  0  0  0  0  0  0  0  0  0
   63.4920   34.1430   47.4210 O   0  0  0  0  0  0  0  0  0  0  0  0
   64.1550   33.4330   49.4620 O   0  0  0  0  0  0  0  0  0  0  0  0
   62.1580   31.5130   47.1870 C   0  0  0  0  0  0  0  0  0  0  0  0
   61.1410   30.5610   47.1790 C   0  0  0  0  0  0  0  0  0  0  0  0
   60.7790   29.5650   46.1780 C   0  0  0  0  0  0  0  0  0  0  0  0
   61.4050   29.3470   45.1060 O   0  0  0  0  0  0  0  0  0  0  0  0
   59.6430   28.8170   46.6230 N   0  0  0  0  0  0  0  0  0  0  0  0
   59.0470   27.6710   46.0010 C   0  0  0  0  0  0  0  0  0  0  0  0
   58.7910   26.5190   46.6560 N   0  0  0  0  0  0  0  0  0  0  0  0
   58.1810   25.6950   45.8130 N   0  0  0  0  0  0  0  0  0  0  0  0
   57.6740   24.4050   46.2000 C   0  0  0  0  0  0  0  0  0  0  0  0
   58.0700   23.2350   45.5280 C   0  0  0  0  0  0  0  0  0  0  0  0
   57.5670   21.9910   45.9210 C   0  0  0  0  0  0  0  0  0  0  0  0
   56.6730   21.9020   46.9890 C   0  0  0  0  0  0  0  0  0  0  0  0
   56.2810   23.0560   47.6730 C   0  0  0  0  0  0  0  0  0  0  0  0
   56.7840   24.3010   47.2850 C   0  0  0  0  0  0  0  0  0  0  0  0
   58.0200   26.3290   44.6310 C   0  0  0  0  0  0  0  0  0  0  0  0
   57.3540   25.8810   43.6580 O   0  0  0  0  0  0  0  0  0  0  0  0
   58.5810   27.5850   44.7020 C   0  0  0  0  0  0  0  0  0  0  0  0
   58.2960   28.6660   43.8110 N   0  0  0  0  0  0  0  0  0  0  0  0
   56.9810   29.7430   44.1550 S   0  0  0  0  0  0  0  0  0  0  0  0
   56.1290   29.1540   45.2420 O   0  0  0  0  0  0  0  0  0  0  0  0
   56.1320   29.9320   42.9270 O   0  0  0  0  0  0  0  0  0  0  0  0
   57.6310   31.2880   44.7030 C   0  0  0  0  0  0  0  0  0  0  0  0
   58.0510   32.2530   43.7780 C   0  0  0  0  0  0  0  0  0  0  0  0
   58.6660   33.4290   44.2170 C   0  0  0  0  0  0  0  0  0  0  0  0
   58.8690   33.6590   45.5940 C   0  0  0  0  0  0  0  0  0  0  0  0
   59.5090   34.8640   46.0520 N   0  0  0  0  0  0  0  0  0  0  0  0
   59.6420   35.8430   45.2910 O   0  0  0  0  0  0  0  0  0  0  0  0
   59.9790   34.9570   47.3430 O   0  0  0  0  0  0  0  0  0  0  0  0
   58.4410   32.6850   46.5170 C   0  0  0  0  0  0  0  0  0  0  0  0
   57.8300   31.5090   46.0730 C   0  0  0  0  0  0  0  0  0  0  0  0
   59.6780   31.1007   50.2167 H   0  0  0  0  0  0  0  0  0  0  0  0
   61.4825   32.8510   50.2877 H   0  0  0  0  0  0  0  0  0  0  0  0
   62.8451   31.6094   46.3334 H   0  0  0  0  0  0  0  0  0  0  0  0
   58.7788   23.2987   44.6892 H   0  0  0  0  0  0  0  0  0  0  0  0
   57.8766   21.0804   45.3872 H   0  0  0  0  0  0  0  0  0  0  0  0
   56.2763   20.9221   47.2929 H   0  0  0  0  0  0  0  0  0  0  0  0
   55.5775   22.9846   48.5156 H   0  0  0  0  0  0  0  0  0  0  0  0
   56.4819   25.2063   47.8319 H   0  0  0  0  0  0  0  0  0  0  0  0
   58.5790   28.5620   42.8120 H   0  0  0  0  0  0  0  0  0  0  0  0
   57.8961   32.0845   42.7021 H   0  0  0  0  0  0  0  0  0  0  0  0
   58.9940   34.1804   43.4836 H   0  0  0  0  0  0  0  0  0  0  0  0
   58.5886   32.8510   47.5943 H   0  0  0  0  0  0  0  0  0  0  0  0
   57.5036   30.7530   46.8023 H   0  0  0  0  0  0  0  0  0  0  0  0
  1  2  2  0
  2  3  1  0
  3  4  2  0
  4  5  1  0
  5  6  2  0
  6  7  1  0
  7  8  2  0
  7  9  1  0
  6 10  1  0
 10 11  2  0
 11 12  1  0
 12 13  2  0
 12 14  1  0
 14 15  1  0
 15 16  1  0
 16 17  1  0
 17 18  1  0
 18 19  2  0
 19 20  1  0
 20 21  2  0
 21 22  1  0
 22 23  2  0
 17 24  1  0
 24 25  2  0
 24 26  1  0
 26 27  1  0
 27 28  1  0
 28 29  2  0
 28 30  2  0
 28 31  1  0
 31 32  2  0
 32 33  1  0
 33 34  2  0
 34 35  1  0
 35 36  2  0
 35 37  1  0
 34 38  1  0
 38 39  2  0
 14  2  1  0
 26 15  2  0
 39 31  1  0
 11  3  1  0
 23 18  1  0
  4 40  1  0
  5 41  1  0
 10 42  1  0
 19 43  1  0
 20 44  1  0
 21 45  1  0
 22 46  1  0
 23 47  1  0
 27 48  1  0
 32 49  1  0
 33 50  1  0
 38 51  1  0
 39 52  1  0
M  CHG  5   7   1   9  -1  16  -1  35   1  37  -1
M  END
>  <UniqueID>  (35) 
32

>  <SMILES>  (35) 
O=C1c2ccc([N+](=O)[O-])cc2C(=O)N1c1[n-]n(-c2ccccc2)c(=O)c1NS(=O)(=O)c1ccc([N+](=O)[O-])cc1

>  <Energy>  (35) 
139.2522010867307

>  <Genealogy>  (35) 
O=C1c2ccc([N+](=O)[O-])cc2C(=O)N1c1[n-]n(-c2ccccc2)c(=O)c1NS(=O)(=O)c1ccc([N+](=O)[O-])cc1 (protonated)
O=C1c2ccc([N+](=O)[O-])cc2C(=O)N1c1[n-]n(-c2ccccc2)c(=O)c1NS(=O)(=O)c1ccc([N+](=O)[O-])cc1 (3D coordinates assigned)
O=C1c2ccc([N+](=O)[O-])cc2C(=O)N1c1[n-]n(-c2ccccc2)c(=O)c1NS(=O)(=O)c1ccc([N+](=O)[O-])cc1 (nonaromatic ring conformer: 139.2522010867307 kcal/mol)

>  <smiles>  (35) 
O=C1c2ccc([N+](=O)[O-])cc2C(=O)N1c1[nH]n(-c2ccccc2)c(=O)c1NS(=O)(=O)c1ccc([N+](=O)[O-])cc1

>  <score_type>  (35) 
oracle

>  <origin>  (35) 
adg

>  <m_score__min__energy>  (35) 
-11.19

>  <m_primary>  (35) 
energy

$$$$
35:0
     RDKit          3D

 47 50  0  0  0  0  0  0  0  0999 V2000
   57.5570   29.8920   43.8580 C   0  0  0  0  0  0  0  0  0  0  0  0
   57.9880   29.5290   45.0760 C   0  0  0  0  0  0  0  0  0  0  0  0
   57.9290   28.2460   45.6440 C   0  0  0  0  0  0  0  0  0  0  0  0
   57.6740   27.0450   45.0920 C   0  0  0  0  0  0  0  0  0  0  0  0
   57.0900   25.8870   45.7900 C   0  0  0  0  0  0  0  0  0  0  0  0
   57.7920   24.8350   46.2510 N   0  0  0  0  0  0  0  0  0  0  0  0
   56.8680   24.1160   46.9250 C   0  0  0  0  0  0  0  0  0  0  0  0
   57.1410   23.0300   47.4990 O   0  0  0  0  0  0  0  0  0  0  0  0
   55.6320   24.6590   46.9460 N   0  0  0  0  0  0  0  0  0  0  0  0
   55.7950   25.7850   46.2340 C   0  0  0  0  0  0  0  0  0  0  0  0
   54.7810   26.7070   46.0010 O   0  0  0  0  0  0  0  0  0  0  0  0
   58.2200   28.4060   46.9900 C   0  0  0  0  0  0  0  0  0  0  0  0
   58.5200   29.7380   47.1800 C   0  0  0  0  0  0  0  0  0  0  0  0
   58.9140   30.3410   48.4950 C   0  0  0  0  0  0  0  0  0  0  0  0
   58.3820   30.4220   46.0210 N   0  0  0  0  0  0  0  0  0  0  0  0
   58.5770   31.8380   45.8530 C   0  0  0  0  0  0  0  0  0  0  0  0
   57.8940   32.5270   44.8410 C   0  0  0  0  0  0  0  0  0  0  0  0
   58.0740   33.9030   44.6820 C   0  0  0  0  0  0  0  0  0  0  0  0
   58.9470   34.5960   45.5250 C   0  0  0  0  0  0  0  0  0  0  0  0
   59.6570   33.9180   46.5230 C   0  0  0  0  0  0  0  0  0  0  0  0
   60.5320   34.6690   47.3770 N   0  0  0  0  0  0  0  0  0  0  0  0
   61.0910   34.2250   48.6200 C   0  0  0  0  0  0  0  0  0  0  0  0
   60.4170   34.2750   49.6850 O   0  0  0  0  0  0  0  0  0  0  0  0
   62.4930   33.6900   48.6490 C   0  0  1  0  0  0  0  0  0  0  0  0
   62.5020   32.1660   48.5980 C   0  0  0  0  0  0  0  0  0  0  0  0
   62.8970   31.8690   47.1860 C   0  0  0  0  0  0  0  0  0  0  0  0
   63.6710   33.1060   46.7860 C   0  0  0  0  0  0  0  0  0  0  0  0
   63.2160   34.2000   47.5480 O   0  0  0  0  0  0  0  0  0  0  0  0
   59.4500   32.5380   46.6990 C   0  0  0  0  0  0  0  0  0  0  0  0
   57.6603   30.9358   43.5265 H   0  0  0  0  0  0  0  0  0  0  0  0
   57.1004   29.1458   43.1912 H   0  0  0  0  0  0  0  0  0  0  0  0
   57.9232   26.9175   44.0282 H   0  0  0  0  0  0  0  0  0  0  0  0
   58.2129   27.6200   47.7595 H   0  0  0  0  0  0  0  0  0  0  0  0
   58.5128   29.7270   49.3148 H   0  0  0  0  0  0  0  0  0  0  0  0
   60.0110   30.3779   48.5675 H   0  0  0  0  0  0  0  0  0  0  0  0
   58.5072   31.3605   48.5675 H   0  0  0  0  0  0  0  0  0  0  0  0
   57.2139   31.9821   44.1698 H   0  0  0  0  0  0  0  0  0  0  0  0
   57.5284   34.4413   43.8930 H   0  0  0  0  0  0  0  0  0  0  0  0
   59.0771   35.6815   45.4035 H   0  0  0  0  0  0  0  0  0  0  0  0
   62.9640   34.0089   49.5905 H   0  0  0  0  0  0  0  0  0  0  0  0
   63.2345   31.7527   49.3069 H   0  0  0  0  0  0  0  0  0  0  0  0
   61.5352   31.7212   48.8762 H   0  0  0  0  0  0  0  0  0  0  0  0
   63.5302   30.9711   47.1324 H   0  0  0  0  0  0  0  0  0  0  0  0
   62.0397   31.6609   46.5290 H   0  0  0  0  0  0  0  0  0  0  0  0
   64.7431   32.9466   46.9737 H   0  0  0  0  0  0  0  0  0  0  0  0
   63.5174   33.3098   45.7160 H   0  0  0  0  0  0  0  0  0  0  0  0
   59.9757   32.0046   47.5047 H   0  0  0  0  0  0  0  0  0  0  0  0
  1  2  2  0
  2  3  1  0
  3  4  2  3
  4  5  1  0
  5  6  1  0
  6  7  1  0
  7  8  2  0
  7  9  1  0
  9 10  1  0
 10 11  1  0
  3 12  1  0
 12 13  2  0
 13 14  1  0
 13 15  1  0
 15 16  1  0
 16 17  2  0
 17 18  1  0
 18 19  2  0
 19 20  1  0
 20 21  1  0
 21 22  1  0
 22 23  2  0
 22 24  1  0
 24 25  1  0
 25 26  1  0
 26 27  1  0
 27 28  1  0
 20 29  2  0
 15  2  1  0
 29 16  1  0
 10  5  2  0
 28 24  1  0
  1 30  1  0
  1 31  1  0
  4 32  1  0
 12 33  1  0
 14 34  1  0
 14 35  1  0
 14 36  1  0
 17 37  1  0
 18 38  1  0
 19 39  1  0
 24 40  1  1
 25 41  1  0
 25 42  1  0
 26 43  1  0
 26 44  1  0
 27 45  1  0
 27 46  1  0
 29 47  1  0
M  CHG  4   6  -1   9  -1  11  -1  21  -1
M  END
>  <UniqueID>  (36) 
33

>  <SMILES>  (36) 
C=c1c(=Cc2[n-]c(=O)[n-]c2[O-])cc(C)n1-c1cccc([N-]C(=O)[C@H]2CCCO2)c1

>  <Energy>  (36) 
127.10265747014343

>  <Genealogy>  (36) 
C=c1c(=Cc2[n-]c(=O)[n-]c2[O-])cc(C)n1-c1cccc([N-]C(=O)C2CCCO2)c1 (protonated)
C=c1c(=Cc2[n-]c(=O)[n-]c2[O-])cc(C)n1-c1cccc([N-]C(=O)[C@H]2CCCO2)c1 (chirality)
C=c1c(=Cc2[n-]c(=O)[n-]c2[O-])cc(C)n1-c1cccc([N-]C(=O)[C@H]2CCCO2)c1 (3D coordinates assigned)
C=c1c(=Cc2[n-]c(=O)[n-]c2[O-])cc(C)n1-c1cccc([N-]C(=O)[C@H]2CCCO2)c1 (nonaromatic ring conformer: 127.10265747014343 kcal/mol)

>  <smiles>  (36) 
C=c1c(=Cc2[nH]c(=O)[nH]c2O)cc(C)n1-c1cccc(NC(=O)C2CCCO2)c1

>  <score_type>  (36) 
oracle

>  <origin>  (36) 
adg

>  <m_score__min__energy>  (36) 
-17.460000000000001

>  <m_primary>  (36) 
energy

$$$$
36:0
     RDKit          3D

 39 40  0  0  0  0  0  0  0  0999 V2000
   60.8040   27.0120   47.1810 H   0  0  0  0  0  0  0  0  0  0  0  0
   60.2600   26.2360   46.8230 O   0  0  0  0  0  0  0  0  0  0  0  0
   58.8930   26.3690   46.5940 C   0  0  0  0  0  0  0  0  0  0  0  0
   58.0420   25.3920   47.0130 N   0  0  0  0  0  0  0  0  0  0  0  0
   56.6990   25.4730   46.8190 C   0  0  0  0  0  0  0  0  0  0  0  0
   55.9530   24.5420   47.2220 O   0  0  0  0  0  0  0  0  0  0  0  0
   56.1550   26.5910   46.1800 C   0  0  0  0  0  0  0  0  0  0  0  0
   54.7810   26.6970   45.9880 O   0  0  0  0  0  0  0  0  0  0  0  0
   57.0030   27.6080   45.7400 C   0  0  0  0  0  0  0  0  0  0  0  0
   56.5835   28.4984   45.2488 H   0  0  0  0  0  0  0  0  0  0  0  0
   58.3910   27.4970   45.9230 C   0  0  0  0  0  0  0  0  0  0  0  0
   59.3080   28.5790   45.5010 C   0  0  0  0  0  0  0  0  0  0  0  0
   60.2078   28.2946   44.9358 H   0  0  0  0  0  0  0  0  0  0  0  0
   59.1190   29.8890   45.7600 C   0  0  0  0  0  0  0  0  0  0  0  0
   58.2800   30.6860   44.8340 C   0  0  0  0  0  0  0  0  0  0  0  0
   58.6800   30.8760   43.6540 O   0  0  0  0  0  0  0  0  0  0  0  0
   57.0390   31.2770   45.2380 N   0  0  0  0  0  0  0  0  0  0  0  0
   56.7060   32.6920   45.1330 C   0  0  0  0  0  0  0  0  0  0  0  0
   55.7596   32.8870   45.6586 H   0  0  0  0  0  0  0  0  0  0  0  0
   56.5976   32.9681   44.0737 H   0  0  0  0  0  0  0  0  0  0  0  0
   57.8030   33.5060   45.7560 C   0  0  0  0  0  0  0  0  0  0  0  0
   58.5960   34.3500   44.9630 C   0  0  0  0  0  0  0  0  0  0  0  0
   58.3968   34.4358   43.8846 H   0  0  0  0  0  0  0  0  0  0  0  0
   59.6370   35.0810   45.5390 C   0  0  0  0  0  0  0  0  0  0  0  0
   60.2484   35.7491   44.9146 H   0  0  0  0  0  0  0  0  0  0  0  0
   59.9050   34.9670   46.9060 C   0  0  0  0  0  0  0  0  0  0  0  0
   60.7244   35.5477   47.3547 H   0  0  0  0  0  0  0  0  0  0  0  0
   59.1290   34.1110   47.7100 C   0  0  0  0  0  0  0  0  0  0  0  0
   59.3610   33.9550   49.0860 O   0  0  0  0  0  0  0  0  0  0  0  0
   60.6500   33.8020   49.6690 C   0  0  0  0  0  0  0  0  0  0  0  0
   60.5602   33.8127   50.7653 H   0  0  0  0  0  0  0  0  0  0  0  0
   61.0873   32.8456   49.3462 H   0  0  0  0  0  0  0  0  0  0  0  0
   61.2990   34.6294   49.3462 H   0  0  0  0  0  0  0  0  0  0  0  0
   58.0850   33.3820   47.1260 C   0  0  0  0  0  0  0  0  0  0  0  0
   57.4798   32.7053   47.7471 H   0  0  0  0  0  0  0  0  0  0  0  0
   59.6610   30.5430   47.0060 C   0  0  0  0  0  0  0  0  0  0  0  0
   59.2460   30.0422   47.8931 H   0  0  0  0  0  0  0  0  0  0  0  0
   60.7577   30.4588   47.0169 H   0  0  0  0  0  0  0  0  0  0  0  0
   59.3747   31.6050   47.0169 H   0  0  0  0  0  0  0  0  0  0  0  0
  1  2  1  0
  2  3  1  0
  3  4  1  0
  4  5  1  0
  5  6  2  0
  5  7  1  0
  7  8  1  0
  7  9  2  0
  9 10  1  0
  9 11  1  0
 11 12  1  0
 12 13  1  0
 12 14  2  0
 14 15  1  0
 15 16  2  0
 15 17  1  0
 17 18  1  0
 18 19  1  0
 18 20  1  0
 18 21  1  0
 21 22  2  0
 22 23  1  0
 22 24  1  0
 24 25  1  0
 24 26  2  0
 26 27  1  0
 26 28  1  0
 28 29  1  0
 29 30  1  0
 30 31  1  0
 30 32  1  0
 30 33  1  0
 28 34  2  0
 34 35  1  0
 14 36  1  0
 36 37  1  0
 36 38  1  0
 36 39  1  0
 11  3  2  0
 34 21  1  0
M  CHG  3   4  -1   8  -1  17  -1
M  END
>  <UniqueID>  (37) 
34

>  <SMILES>  (37) 
COc1cccc(C[N-]C(=O)/C(C)=C/c2cc([O-])c(=O)[n-]c2O)c1

>  <Energy>  (37) 
47.97871927619125

>  <Genealogy>  (37) 
COc1cccc(C[N-]C(=O)C(C)=Cc2cc([O-])c(=O)[n-]c2O)c1 (protonated)
COc1cccc(C[N-]C(=O)/C(C)=C/c2cc([O-])c(=O)[n-]c2O)c1 (cis-trans isomerization)
COc1cccc(C[N-]C(=O)/C(C)=C/c2cc([O-])c(=O)[n-]c2O)c1 (3D coordinates assigned)
COc1cccc(C[N-]C(=O)/C(C)=C/c2cc([O-])c(=O)[n-]c2O)c1 (optimized conformer: 47.97871927619125 kcal/mol)

>  <smiles>  (37) 
COc1cccc(CNC(=O)C(C)=Cc2cc(O)c(=O)[nH]c2O)c1

>  <score_type>  (37) 
oracle

>  <origin>  (37) 
adg

>  <m_score__min__energy>  (37) 
-14.19

>  <m_primary>  (37) 
energy

$$$$
37:0
     RDKit          3D

 55 58  0  0  0  0  0  0  0  0999 V2000
   59.3653   29.5825   49.1022 H   0  0  0  0  0  0  0  0  0  0  0  0
   59.3200   29.6470   48.0050 C   0  0  0  0  0  0  0  0  0  0  0  0
   58.2470   29.2220   47.2880 N   0  0  0  0  0  0  0  0  0  0  0  0
   58.4300   29.4160   45.9610 C   0  0  0  0  0  0  0  0  0  0  0  0
   57.5370   29.1460   45.0570 N   0  0  0  0  0  0  0  0  0  0  0  0
   56.3380   29.9010   44.8230 C   0  0  0  0  0  0  0  0  0  0  0  0
   55.2070   29.3620   44.9810 O   0  0  0  0  0  0  0  0  0  0  0  0
   56.3980   31.2770   44.4340 N   0  0  0  0  0  0  0  0  0  0  0  0
   57.2960   32.2810   44.9390 C   0  0  0  0  0  0  0  0  0  0  0  0
   57.3820   32.5880   46.3080 C   0  0  0  0  0  0  0  0  0  0  0  0
   56.7572   32.0445   47.0320 H   0  0  0  0  0  0  0  0  0  0  0  0
   58.2600   33.5830   46.7530 C   0  0  0  0  0  0  0  0  0  0  0  0
   58.3154   33.8269   47.8242 H   0  0  0  0  0  0  0  0  0  0  0  0
   59.0660   34.2670   45.8400 C   0  0  0  0  0  0  0  0  0  0  0  0
   59.7409   35.0623   46.1893 H   0  0  0  0  0  0  0  0  0  0  0  0
   59.0140   33.9400   44.4830 C   0  0  0  0  0  0  0  0  0  0  0  0
   59.6599   34.4675   43.7657 H   0  0  0  0  0  0  0  0  0  0  0  0
   58.1410   32.9420   44.0350 C   0  0  0  0  0  0  0  0  0  0  0  0
   58.0970   32.6400   42.7130 F   0  0  0  0  0  0  0  0  0  0  0  0
   59.9190   30.1170   45.6170 S   0  0  0  0  0  0  0  0  0  0  0  0
   60.3540   30.1690   47.2410 C   0  0  0  0  0  0  0  0  0  0  0  0
   61.8770   30.8510   47.8860 S   0  0  0  0  0  0  0  0  0  0  0  0
   61.0070   32.0300   48.9190 C   0  0  0  0  0  0  0  0  0  0  0  0
   60.9620   33.3770   48.5430 C   0  0  0  0  0  0  0  0  0  0  0  0
   61.4845   33.7114   47.6346 H   0  0  0  0  0  0  0  0  0  0  0  0
   60.2550   34.2970   49.3190 C   0  0  0  0  0  0  0  0  0  0  0  0
   60.2299   35.3574   49.0275 H   0  0  0  0  0  0  0  0  0  0  0  0
   59.5790   33.8720   50.4660 C   0  0  0  0  0  0  0  0  0  0  0  0
   59.0016   34.5966   51.0589 H   0  0  0  0  0  0  0  0  0  0  0  0
   59.6310   32.5230   50.8690 C   0  0  0  0  0  0  0  0  0  0  0  0
   58.9170   32.0780   52.0910 C   0  0  0  0  0  0  0  0  0  0  0  0
   59.2530   32.5230   53.2180 O   0  0  0  0  0  0  0  0  0  0  0  0
   57.8420   31.1360   52.0060 N   0  0  0  0  0  0  0  0  0  0  0  0
   58.1200   29.7070   51.9350 C   0  0  0  0  0  0  0  0  0  0  0  0
   59.1819   29.5300   52.1608 H   0  0  0  0  0  0  0  0  0  0  0  0
   57.8903   29.3423   50.9229 H   0  0  0  0  0  0  0  0  0  0  0  0
   57.2500   28.9560   52.9540 C   0  0  0  0  0  0  0  0  0  0  0  0
   57.6700   29.1214   53.9571 H   0  0  0  0  0  0  0  0  0  0  0  0
   57.2595   27.8952   52.6631 H   0  0  0  0  0  0  0  0  0  0  0  0
   55.8290   29.3890   52.9640 N   0  0  0  0  0  0  0  0  0  0  0  0
   55.2590   29.7350   54.5810 S   0  0  0  0  0  0  0  0  0  0  0  0
   56.1320   30.8080   55.1750 O   0  0  0  0  0  0  0  0  0  0  0  0
   55.3710   28.5000   55.4320 O   0  0  0  0  0  0  0  0  0  0  0  0
   53.5590   30.2920   54.6080 C   0  0  0  0  0  0  0  0  0  0  0  0
   53.2255   30.4013   55.6505 H   0  0  0  0  0  0  0  0  0  0  0  0
   53.4828   31.2621   54.0950 H   0  0  0  0  0  0  0  0  0  0  0  0
   52.9235   29.5551   54.0950 H   0  0  0  0  0  0  0  0  0  0  0  0
   55.4730   30.4480   51.9950 C   0  0  0  0  0  0  0  0  0  0  0  0
   54.4721   30.8304   52.2439 H   0  0  0  0  0  0  0  0  0  0  0  0
   55.5001   30.0011   50.9902 H   0  0  0  0  0  0  0  0  0  0  0  0
   56.4620   31.6190   52.0070 C   0  0  0  0  0  0  0  0  0  0  0  0
   56.2928   32.2241   52.9099 H   0  0  0  0  0  0  0  0  0  0  0  0
   56.3008   32.2246   51.1030 H   0  0  0  0  0  0  0  0  0  0  0  0
   60.3570   31.6060   50.0870 C   0  0  0  0  0  0  0  0  0  0  0  0
   60.4150   30.5511   50.3934 H   0  0  0  0  0  0  0  0  0  0  0  0
  1  2  1  0
  2  3  1  0
  3  4  1  0
  4  5  2  0
  5  6  1  0
  6  7  2  0
  6  8  1  0
  8  9  1  0
  9 10  2  0
 10 11  1  0
 10 12  1  0
 12 13  1  0
 12 14  2  0
 14 15  1  0
 14 16  1  0
 16 17  1  0
 16 18  2  0
 18 19  1  0
  4 20  1  0
 20 21  1  0
 21 22  1  0
 22 23  1  0
 23 24  2  0
 24 25  1  0
 24 26  1  0
 26 27  1  0
 26 28  2  0
 28 29  1  0
 28 30  1  0
 30 31  1  0
 31 32  2  0
 31 33  1  0
 33 34  1  0
 34 35  1  0
 34 36  1  0
 34 37  1  0
 37 38  1  0
 37 39  1  0
 37 40  1  0
 40 41  1  0
 41 42  2  0
 41 43  2  0
 41 44  1  0
 44 45  1  0
 44 46  1  0
 44 47  1  0
 40 48  1  0
 48 49  1  0
 48 50  1  0
 48 51  1  0
 51 52  1  0
 51 53  1  0
 30 54  2  0
 54 55  1  0
 21  2  2  0
 54 23  1  0
 18  9  1  0
 51 33  1  0
M  CHG  2   3  -1   8  -1
M  END
>  <UniqueID>  (38) 
35

>  <SMILES>  (38) 
CS(=O)(=O)N1CCN(C(=O)c2cccc(Sc3c[n-]/c(=N\C(=O)[N-]c4ccccc4F)s3)c2)CC1

>  <Energy>  (38) 
101.81226180295882

>  <Genealogy>  (38) 
CS(=O)(=O)N1CCN(C(=O)c2cccc(Sc3c[n-]c(=NC(=O)[N-]c4ccccc4F)s3)c2)CC1 (protonated)
CS(=O)(=O)N1CCN(C(=O)c2cccc(Sc3c[n-]/c(=N\C(=O)[N-]c4ccccc4F)s3)c2)CC1 (cis-trans isomerization)
CS(=O)(=O)N1CCN(C(=O)c2cccc(Sc3c[n-]/c(=N\C(=O)[N-]c4ccccc4F)s3)c2)CC1 (3D coordinates assigned)
CS(=O)(=O)N1CCN(C(=O)c2cccc(Sc3c[n-]/c(=N\C(=O)[N-]c4ccccc4F)s3)c2)CC1 (nonaromatic ring conformer: 101.81226180295882 kcal/mol)

>  <smiles>  (38) 
CS(=O)(=O)N1CCN(C(=O)c2cccc(Sc3c[nH]c(=NC(=O)Nc4ccccc4F)s3)c2)CC1

>  <score_type>  (38) 
oracle

>  <origin>  (38) 
adg

>  <m_score__min__energy>  (38) 
-13.9

>  <m_primary>  (38) 
energy

$$$$
38:0
     RDKit          3D

 66 70  0  0  0  0  0  0  0  0999 V2000
   54.0580   26.6850   46.7580 H   0  0  0  0  0  0  0  0  0  0  0  0
   54.5550   26.3100   45.9600 O   0  0  0  0  0  0  0  0  0  0  0  0
   55.9470   26.3210   45.8660 C   0  0  0  0  0  0  0  0  0  0  0  0
   56.6350   27.4970   45.5040 C   0  0  0  0  0  0  0  0  0  0  0  0
   55.8880   28.6870   45.2030 N   0  0  0  0  0  0  0  0  0  0  0  0
   56.3700   29.8530   44.5210 C   0  0  0  0  0  0  0  0  0  0  0  0
   55.6550   30.8900   44.5200 O   0  0  0  0  0  0  0  0  0  0  0  0
   57.7130   29.8800   43.9030 C   0  0  0  0  0  0  0  0  0  0  0  0
   58.1178   28.9561   43.4643 H   0  0  0  0  0  0  0  0  0  0  0  0
   58.4520   30.9990   43.8620 C   0  0  0  0  0  0  0  0  0  0  0  0
   59.2194   31.0775   43.0779 H   0  0  0  0  0  0  0  0  0  0  0  0
   58.3050   32.1410   44.8040 C   0  0  0  0  0  0  0  0  0  0  0  0
   57.3710   33.1800   44.6140 C   0  0  0  0  0  0  0  0  0  0  0  0
   56.7217   33.1766   43.7261 H   0  0  0  0  0  0  0  0  0  0  0  0
   57.2660   34.2140   45.5480 C   0  0  0  0  0  0  0  0  0  0  0  0
   56.5341   35.0202   45.3919 H   0  0  0  0  0  0  0  0  0  0  0  0
   58.0850   34.2290   46.6780 C   0  0  0  0  0  0  0  0  0  0  0  0
   57.9929   35.0446   47.4103 H   0  0  0  0  0  0  0  0  0  0  0  0
   59.0210   33.2130   46.8830 C   0  0  0  0  0  0  0  0  0  0  0  0
   59.8060   33.2490   48.0460 O   0  0  0  0  0  0  0  0  0  0  0  0
   61.1990   33.0960   48.0940 C   0  0  0  0  0  0  0  0  0  0  0  0
   62.0630   34.1990   47.9640 C   0  0  0  0  0  0  0  0  0  0  0  0
   61.6455   35.2067   47.8214 H   0  0  0  0  0  0  0  0  0  0  0  0
   63.4480   34.0220   48.0150 C   0  0  0  0  0  0  0  0  0  0  0  0
   64.1170   34.8889   47.9102 H   0  0  0  0  0  0  0  0  0  0  0  0
   63.9840   32.7450   48.1990 C   0  0  0  0  0  0  0  0  0  0  0  0
   65.0748   32.6057   48.2282 H   0  0  0  0  0  0  0  0  0  0  0  0
   63.1350   31.6440   48.3460 C   0  0  0  0  0  0  0  0  0  0  0  0
   63.5605   30.6399   48.4898 H   0  0  0  0  0  0  0  0  0  0  0  0
   61.7430   31.8140   48.3110 C   0  0  0  0  0  0  0  0  0  0  0  0
   60.8890   30.6750   48.4710 N   0  0  0  0  0  0  0  0  0  0  0  0
   60.7900   29.6850   47.3920 C   0  0  0  0  0  0  0  0  0  0  0  0
   60.5640   30.2015   46.4475 H   0  0  0  0  0  0  0  0  0  0  0  0
   61.7476   29.1494   47.3139 H   0  0  0  0  0  0  0  0  0  0  0  0
   59.6840   28.6740   47.6880 C   0  0  0  0  0  0  0  0  0  0  0  0
   59.3964   28.1597   46.7592 H   0  0  0  0  0  0  0  0  0  0  0  0
   60.0443   27.9316   48.4153 H   0  0  0  0  0  0  0  0  0  0  0  0
   58.5260   29.3810   48.2360 N   0  0  0  0  0  0  0  0  0  0  0  0
   57.7290   28.7040   48.3030 H   0  0  0  0  0  0  0  0  0  0  0  0
   58.7990   29.9000   49.5890 C   0  0  0  0  0  0  0  0  0  0  0  0
   58.0952   30.7196   49.7964 H   0  0  0  0  0  0  0  0  0  0  0  0
   58.6780   29.0600   50.2889 H   0  0  0  0  0  0  0  0  0  0  0  0
   60.2390   30.4350   49.7640 C   0  0  0  0  0  0  0  0  0  0  0  0
   60.2025   31.3801   50.3256 H   0  0  0  0  0  0  0  0  0  0  0  0
   60.8232   29.6769   50.3062 H   0  0  0  0  0  0  0  0  0  0  0  0
   59.1180   32.1640   45.9520 C   0  0  0  0  0  0  0  0  0  0  0  0
   59.8387   31.3509   46.1233 H   0  0  0  0  0  0  0  0  0  0  0  0
   58.0330   27.4620   45.3580 C   0  0  0  0  0  0  0  0  0  0  0  0
   58.5724   28.3667   45.0408 H   0  0  0  0  0  0  0  0  0  0  0  0
   58.7400   26.2870   45.6130 C   0  0  0  0  0  0  0  0  0  0  0  0
   59.8352   26.2727   45.5110 H   0  0  0  0  0  0  0  0  0  0  0  0
   58.0620   25.1300   45.9970 C   0  0  0  0  0  0  0  0  0  0  0  0
   58.6262   24.2083   46.2022 H   0  0  0  0  0  0  0  0  0  0  0  0
   56.6650   25.1350   46.1230 C   0  0  0  0  0  0  0  0  0  0  0  0
   55.9740   23.9330   46.5040 N   0  0  0  0  0  0  0  0  0  0  0  0
   56.2510   23.1710   47.6670 C   0  0  0  0  0  0  0  0  0  0  0  0
   57.2790   23.3400   48.3750 O   0  0  0  0  0  0  0  0  0  0  0  0
   55.2180   22.1550   47.9540 C   0  0  0  0  0  0  0  0  0  0  0  0
   54.6886   22.3840   48.8906 H   0  0  0  0  0  0  0  0  0  0  0  0
   55.6315   21.1446   48.0885 H   0  0  0  0  0  0  0  0  0  0  0  0
   54.2750   22.2650   46.7470 C   0  0  0  0  0  0  0  0  0  0  0  0
   53.2340   22.3610   47.0891 H   0  0  0  0  0  0  0  0  0  0  0  0
   54.3423   21.3675   46.1146 H   0  0  0  0  0  0  0  0  0  0  0  0
   54.6910   23.5230   45.9600 C   0  0  0  0  0  0  0  0  0  0  0  0
   53.9464   24.3213   46.0951 H   0  0  0  0  0  0  0  0  0  0  0  0
   54.7590   23.3179   44.8814 H   0  0  0  0  0  0  0  0  0  0  0  0
  1  2  1  0
  2  3  1  0
  3  4  2  0
  4  5  1  0
  5  6  1  0
  6  7  2  0
  6  8  1  0
  8  9  1  0
  8 10  2  0
 10 11  1  0
 10 12  1  0
 12 13  2  0
 13 14  1  0
 13 15  1  0
 15 16  1  0
 15 17  2  0
 17 18  1  0
 17 19  1  0
 19 20  1  0
 20 21  1  0
 21 22  2  0
 22 23  1  0
 22 24  1  0
 24 25  1  0
 24 26  2  0
 26 27  1  0
 26 28  1  0
 28 29  1  0
 28 30  2  0
 30 31  1  0
 31 32  1  0
 32 33  1  0
 32 34  1  0
 32 35  1  0
 35 36  1  0
 35 37  1  0
 35 38  1  0
 38 39  1  0
 38 40  1  0
 40 41  1  0
 40 42  1  0
 40 43  1  0
 43 44  1  0
 43 45  1  0
 19 46  2  0
 46 47  1  0
  4 48  1  0
 48 49  1  0
 48 50  2  0
 50 51  1  0
 50 52  1  0
 52 53  1  0
 52 54  2  0
 54 55  1  0
 55 56  1  0
 56 57  2  0
 56 58  1  0
 58 59  1  0
 58 60  1  0
 58 61  1  0
 61 62  1  0
 61 63  1  0
 61 64  1  0
 64 65  1  0
 64 66  1  0
 54  3  1  0
 64 55  1  0
 46 12  1  0
 30 21  1  0
 43 31  1  0
M  CHG  1   5  -1
M  END
>  <UniqueID>  (39) 
36

>  <SMILES>  (39) 
O=C(/C=C/c1cccc(Oc2ccccc2N2CCNCC2)c1)[N-]c1cccc(N2CCCC2=O)c1O

>  <Energy>  (39) 
104.67891687665055

>  <Genealogy>  (39) 
O=C(C=Cc1cccc(Oc2ccccc2N2CCNCC2)c1)[N-]c1cccc(N2CCCC2=O)c1O (protonated)
O=C(/C=C/c1cccc(Oc2ccccc2N2CCNCC2)c1)[N-]c1cccc(N2CCCC2=O)c1O (cis-trans isomerization)
O=C(/C=C/c1cccc(Oc2ccccc2N2CCNCC2)c1)[N-]c1cccc(N2CCCC2=O)c1O (3D coordinates assigned)
O=C(/C=C/c1cccc(Oc2ccccc2N2CCNCC2)c1)[N-]c1cccc(N2CCCC2=O)c1O (nonaromatic ring conformer: 104.67891687665055 kcal/mol)

>  <smiles>  (39) 
O=C(C=Cc1cccc(Oc2ccccc2N2CCNCC2)c1)Nc1cccc(N2CCCC2=O)c1O

>  <score_type>  (39) 
oracle

>  <origin>  (39) 
adg

>  <m_score__min__energy>  (39) 
-14.07

>  <m_primary>  (39) 
energy

$$$$
39:0
     RDKit          3D

 53 56  0  0  0  0  0  0  0  0999 V2000
   58.2034   25.0964   48.4926 H   0  0  0  0  0  0  0  0  0  0  0  0
   58.1490   25.5080   47.4740 C   0  0  0  0  0  0  0  0  0  0  0  0
   59.1910   26.2980   46.9830 C   0  0  0  0  0  0  0  0  0  0  0  0
   60.0695   26.5019   47.6129 H   0  0  0  0  0  0  0  0  0  0  0  0
   59.1190   26.8300   45.6920 C   0  0  0  0  0  0  0  0  0  0  0  0
   59.9443   27.4487   45.3098 H   0  0  0  0  0  0  0  0  0  0  0  0
   57.9990   26.5800   44.8780 C   0  0  0  0  0  0  0  0  0  0  0  0
   57.9230   27.1500   43.5100 C   0  0  0  0  0  0  0  0  0  0  0  0
   58.0920   26.4060   42.5070 O   0  0  0  0  0  0  0  0  0  0  0  0
   57.5960   28.5290   43.2940 N   0  0  0  0  0  0  0  0  0  0  0  0
   57.4470   29.4420   44.2140 C   0  0  0  0  0  0  0  0  0  0  0  0
   56.0680   29.8450   44.5550 C   0  0  0  0  0  0  0  0  0  0  0  0
   55.2010   28.9870   44.8690 O   0  0  0  0  0  0  0  0  0  0  0  0
   55.7120   31.1870   44.5340 O   0  0  0  0  0  0  0  0  0  0  0  0
   58.6280   30.0710   44.9350 C   0  0  0  0  0  0  0  0  0  0  0  0
   58.7904   29.5297   45.8787 H   0  0  0  0  0  0  0  0  0  0  0  0
   59.4968   30.0002   44.2641 H   0  0  0  0  0  0  0  0  0  0  0  0
   58.4200   31.5400   45.2510 C   0  0  0  0  0  0  0  0  0  0  0  0
   58.1080   32.4230   44.2020 C   0  0  0  0  0  0  0  0  0  0  0  0
   57.9838   32.0319   43.1814 H   0  0  0  0  0  0  0  0  0  0  0  0
   57.9540   33.7900   44.4400 C   0  0  0  0  0  0  0  0  0  0  0  0
   57.6901   34.4652   43.6127 H   0  0  0  0  0  0  0  0  0  0  0  0
   58.1340   34.3000   45.7230 C   0  0  0  0  0  0  0  0  0  0  0  0
   58.0134   35.3776   45.9078 H   0  0  0  0  0  0  0  0  0  0  0  0
   58.4670   33.4460   46.7740 C   0  0  0  0  0  0  0  0  0  0  0  0
   58.6187   33.8558   47.7835 H   0  0  0  0  0  0  0  0  0  0  0  0
   58.6100   32.0670   46.5530 C   0  0  0  0  0  0  0  0  0  0  0  0
   58.9850   31.2150   47.6950 C   0  0  0  0  0  0  0  0  0  0  0  0
   58.5190   30.0440   47.7430 O   0  0  0  0  0  0  0  0  0  0  0  0
   59.8550   31.7010   48.7440 N   0  0  0  0  0  0  0  0  0  0  0  0
   61.1680   32.2340   48.4530 C   0  0  0  0  0  0  0  0  0  0  0  0
   61.9510   31.7200   47.4010 C   0  0  0  0  0  0  0  0  0  0  0  0
   61.5693   30.8853   46.7947 H   0  0  0  0  0  0  0  0  0  0  0  0
   63.2080   32.2610   47.1210 C   0  0  0  0  0  0  0  0  0  0  0  0
   63.8032   31.8634   46.2858 H   0  0  0  0  0  0  0  0  0  0  0  0
   63.7100   33.3050   47.8990 C   0  0  0  0  0  0  0  0  0  0  0  0
   64.6939   33.7390   47.6677 H   0  0  0  0  0  0  0  0  0  0  0  0
   62.9640   33.7990   48.9710 C   0  0  0  0  0  0  0  0  0  0  0  0
   63.3736   34.6075   49.5944 H   0  0  0  0  0  0  0  0  0  0  0  0
   61.6960   33.2720   49.2590 C   0  0  0  0  0  0  0  0  0  0  0  0
   60.9690   33.7520   50.4950 C   0  0  0  0  0  0  0  0  0  0  0  0
   61.0135   34.8508   50.5226 H   0  0  0  0  0  0  0  0  0  0  0  0
   61.4658   33.2974   51.3648 H   0  0  0  0  0  0  0  0  0  0  0  0
   59.4970   33.3220   50.5330 C   0  0  0  0  0  0  0  0  0  0  0  0
   58.9179   33.9532   49.8429 H   0  0  0  0  0  0  0  0  0  0  0  0
   59.1201   33.4366   51.5600 H   0  0  0  0  0  0  0  0  0  0  0  0
   59.3540   31.8600   50.1160 C   0  0  0  0  0  0  0  0  0  0  0  0
   58.2946   31.5668   50.1577 H   0  0  0  0  0  0  0  0  0  0  0  0
   59.9334   31.2212   50.7988 H   0  0  0  0  0  0  0  0  0  0  0  0
   56.9610   25.7720   45.3800 C   0  0  0  0  0  0  0  0  0  0  0  0
   56.0836   25.5571   44.7523 H   0  0  0  0  0  0  0  0  0  0  0  0
   57.0380   25.2410   46.6710 C   0  0  0  0  0  0  0  0  0  0  0  0
   56.2218   24.6116   47.0551 H   0  0  0  0  0  0  0  0  0  0  0  0
  1  2  1  0
  2  3  2  0
  3  4  1  0
  3  5  1  0
  5  6  1  0
  5  7  2  0
  7  8  1  0
  8  9  2  0
  8 10  1  0
 10 11  2  0
 11 12  1  0
 12 13  2  0
 12 14  1  0
 11 15  1  0
 15 16  1  0
 15 17  1  0
 15 18  1  0
 18 19  2  0
 19 20  1  0
 19 21  1  0
 21 22  1  0
 21 23  2  0
 23 24  1  0
 23 25  1  0
 25 26  1  0
 25 27  2  0
 27 28  1  0
 28 29  2  0
 28 30  1  0
 30 31  1  0
 31 32  2  0
 32 33  1  0
 32 34  1  0
 34 35  1  0
 34 36  2  0
 36 37  1  0
 36 38  1  0
 38 39  1  0
 38 40  2  0
 40 41  1  0
 41 42  1  0
 41 43  1  0
 41 44  1  0
 44 45  1  0
 44 46  1  0
 44 47  1  0
 47 48  1  0
 47 49  1  0
  7 50  1  0
 50 51  1  0
 50 52  2  0
 52 53  1  0
 52  2  1  0
 27 18  1  0
 47 30  1  0
 40 31  1  0
M  CHG  1  14  -1
M  END
>  <UniqueID>  (40) 
37

>  <SMILES>  (40) 
O=C([O-])/C(Cc1ccccc1C(=O)N1CCCc2ccccc21)=N/C(=O)c1ccccc1

>  <Energy>  (40) 
78.3063389030116

>  <Genealogy>  (40) 
O=C([O-])C(Cc1ccccc1C(=O)N1CCCc2ccccc21)=NC(=O)c1ccccc1 (protonated)
O=C([O-])/C(Cc1ccccc1C(=O)N1CCCc2ccccc21)=N/C(=O)c1ccccc1 (cis-trans isomerization)
O=C([O-])/C(Cc1ccccc1C(=O)N1CCCc2ccccc21)=N/C(=O)c1ccccc1 (3D coordinates assigned)
O=C([O-])/C(Cc1ccccc1C(=O)N1CCCc2ccccc21)=N/C(=O)c1ccccc1 (nonaromatic ring conformer: 78.3063389030116 kcal/mol)

>  <smiles>  (40) 
O=C(O)C(Cc1ccccc1C(=O)N1CCCc2ccccc21)=NC(=O)c1ccccc1

>  <score_type>  (40) 
oracle

>  <origin>  (40) 
adg

>  <m_score__min__energy>  (40) 
-13.34

>  <m_primary>  (40) 
energy

$$$$
40:0
     RDKit          3D

 53 55  0  0  0  0  0  0  0  0999 V2000
   63.7630   33.1030   46.7570 C   0  0  0  0  0  0  0  0  0  0  0  0
   62.5570   32.8140   47.4540 O   0  0  0  0  0  0  0  0  0  0  0  0
   61.3300   33.4600   47.2270 C   0  0  0  0  0  0  0  0  0  0  0  0
   60.6570   33.3710   45.9900 C   0  0  0  0  0  0  0  0  0  0  0  0
   59.4250   34.0150   45.8080 C   0  0  0  0  0  0  0  0  0  0  0  0
   58.6910   33.8620   44.5400 C   0  0  0  0  0  0  0  0  0  0  0  0
   58.1420   32.7040   44.1380 C   0  0  0  0  0  0  0  0  0  0  0  0
   57.3070   31.8310   44.9880 C   0  0  0  0  0  0  0  0  0  0  0  0
   56.3480   31.2000   44.4640 O   0  0  0  0  0  0  0  0  0  0  0  0
   57.6700   31.5880   46.3540 N   0  0  0  0  0  0  0  0  0  0  0  0
   58.7570   30.7870   46.8420 C   0  0  0  0  0  0  0  0  0  0  0  0
   59.3050   29.7720   46.0400 C   0  0  0  0  0  0  0  0  0  0  0  0
   60.2970   28.9350   46.5420 C   0  0  0  0  0  0  0  0  0  0  0  0
   60.7570   29.1010   47.8470 C   0  0  0  0  0  0  0  0  0  0  0  0
   60.2380   30.1100   48.6770 C   0  0  0  0  0  0  0  0  0  0  0  0
   60.9540   30.2720   50.3010 S   0  0  0  0  0  0  0  0  0  0  0  0
   59.8960   30.3780   51.3620 O   0  0  0  0  0  0  0  0  0  0  0  0
   61.7530   29.0290   50.5930 O   0  0  0  0  0  0  0  0  0  0  0  0
   62.0050   31.6710   50.4080 N   0  0  0  0  0  0  0  0  0  0  0  0
   63.3390   31.3680   49.8570 C   0  0  0  0  0  0  0  0  0  0  0  0
   64.3450   32.4870   50.2010 C   0  0  0  0  0  0  0  0  0  0  0  0
   63.6750   33.6500   50.6420 O   0  0  0  0  0  0  0  0  0  0  0  0
   63.0180   33.3870   51.8690 C   0  0  0  0  0  0  0  0  0  0  0  0
   62.1190   32.1310   51.8010 C   0  0  0  0  0  0  0  0  0  0  0  0
   59.2100   30.9610   48.1780 C   0  0  0  0  0  0  0  0  0  0  0  0
   58.5710   32.0150   49.0530 C   0  0  0  0  0  0  0  0  0  0  0  0
   58.8700   34.7670   46.8510 C   0  0  0  0  0  0  0  0  0  0  0  0
   59.5380   34.8740   48.0740 C   0  0  0  0  0  0  0  0  0  0  0  0
   60.7600   34.2210   48.2700 C   0  0  0  0  0  0  0  0  0  0  0  0
   61.3960   34.3470   49.5080 O   0  0  0  0  0  0  0  0  0  0  0  0
   64.5680   33.2959   47.4814 H   0  0  0  0  0  0  0  0  0  0  0  0
   64.0361   32.2449   46.1253 H   0  0  0  0  0  0  0  0  0  0  0  0
   63.6175   33.9917   46.1253 H   0  0  0  0  0  0  0  0  0  0  0  0
   61.1007   32.7941   45.1652 H   0  0  0  0  0  0  0  0  0  0  0  0
   58.5871   34.7421   43.8884 H   0  0  0  0  0  0  0  0  0  0  0  0
   58.3273   32.3830   43.1023 H   0  0  0  0  0  0  0  0  0  0  0  0
   58.9476   29.6380   45.0084 H   0  0  0  0  0  0  0  0  0  0  0  0
   60.7186   28.1412   45.9078 H   0  0  0  0  0  0  0  0  0  0  0  0
   61.5392   28.4314   48.2340 H   0  0  0  0  0  0  0  0  0  0  0  0
   63.6970   30.4188   50.2822 H   0  0  0  0  0  0  0  0  0  0  0  0
   63.2581   31.2929   48.7626 H   0  0  0  0  0  0  0  0  0  0  0  0
   65.0169   32.1347   50.9975 H   0  0  0  0  0  0  0  0  0  0  0  0
   64.9185   32.7342   49.2955 H   0  0  0  0  0  0  0  0  0  0  0  0
   63.7772   33.2357   52.6505 H   0  0  0  0  0  0  0  0  0  0  0  0
   62.3725   34.2487   52.0943 H   0  0  0  0  0  0  0  0  0  0  0  0
   62.5618   31.3320   52.4138 H   0  0  0  0  0  0  0  0  0  0  0  0
   61.1181   32.3812   52.1826 H   0  0  0  0  0  0  0  0  0  0  0  0
   58.7272   31.7573   50.1109 H   0  0  0  0  0  0  0  0  0  0  0  0
   59.0284   32.9930   48.8424 H   0  0  0  0  0  0  0  0  0  0  0  0
   57.4924   32.0617   48.8424 H   0  0  0  0  0  0  0  0  0  0  0  0
   57.9051   35.2752   46.7072 H   0  0  0  0  0  0  0  0  0  0  0  0
   59.1013   35.4741   48.8859 H   0  0  0  0  0  0  0  0  0  0  0  0
   62.1590   33.7410   49.7880 H   0  0  0  0  0  0  0  0  0  0  0  0
  1  2  1  0
  2  3  1  0
  3  4  2  0
  4  5  1  0
  5  6  1  0
  6  7  2  3
  7  8  1  0
  8  9  2  0
  8 10  1  0
 10 11  1  0
 11 12  2  0
 12 13  1  0
 13 14  2  0
 14 15  1  0
 15 16  1  0
 16 17  2  0
 16 18  2  0
 16 19  1  0
 19 20  1  0
 20 21  1  0
 21 22  1  0
 22 23  1  0
 23 24  1  0
 15 25  2  0
 25 26  1  0
  5 27  2  0
 27 28  1  0
 28 29  2  0
 29 30  1  0
 29  3  1  0
 25 11  1  0
 24 19  1  0
  1 31  1  0
  1 32  1  0
  1 33  1  0
  4 34  1  0
  6 35  1  0
  7 36  1  0
 12 37  1  0
 13 38  1  0
 14 39  1  0
 20 40  1  0
 20 41  1  0
 21 42  1  0
 21 43  1  0
 23 44  1  0
 23 45  1  0
 24 46  1  0
 24 47  1  0
 26 48  1  0
 26 49  1  0
 26 50  1  0
 27 51  1  0
 28 52  1  0
 30 53  1  0
M  CHG  1  10  -1
M  END
>  <UniqueID>  (41) 
38

>  <SMILES>  (41) 
COc1cc(C=CC(=O)[N-]c2cccc(S(=O)(=O)N3CCOCC3)c2C)ccc1O

>  <Energy>  (41) 
76.01987758013468

>  <Genealogy>  (41) 
COc1cc(C=CC(=O)[N-]c2cccc(S(=O)(=O)N3CCOCC3)c2C)ccc1O (protonated)
COc1cc(C=CC(=O)[N-]c2cccc(S(=O)(=O)N3CCOCC3)c2C)ccc1O (3D coordinates assigned)
COc1cc(C=CC(=O)[N-]c2cccc(S(=O)(=O)N3CCOCC3)c2C)ccc1O (nonaromatic ring conformer: 76.01987758013468 kcal/mol)

>  <smiles>  (41) 
COc1cc(C=CC(=O)Nc2cccc(S(=O)(=O)N3CCOCC3)c2C)ccc1O

>  <score_type>  (41) 
oracle

>  <origin>  (41) 
adg

>  <m_score__min__energy>  (41) 
-10.9

>  <m_primary>  (41) 
energy

$$$$
41:0
     RDKit          3D

 31 33  0  0  0  0  0  0  0  0999 V2000
   56.0090   29.3870   44.9580 O   0  0  0  0  0  0  0  0  0  0  0  0
   57.0490   29.1360   45.6200 C   0  0  0  0  0  0  0  0  0  0  0  0
   57.8180   30.2350   46.1350 N   0  0  0  0  0  0  0  0  0  0  0  0
   57.7690   31.4730   45.7310 C   0  0  0  0  0  0  0  0  0  0  0  0
   57.6710   32.5010   46.6240 N   0  0  0  0  0  0  0  0  0  0  0  0
   57.6070   33.7990   46.2280 C   0  0  0  0  0  0  0  0  0  0  0  0
   57.6350   34.1160   44.8690 C   0  0  0  0  0  0  0  0  0  0  0  0
   57.7230   33.0880   43.9310 C   0  0  0  0  0  0  0  0  0  0  0  0
   57.7880   31.7550   44.3570 C   0  0  0  0  0  0  0  0  0  0  0  0
   57.8740   30.7180   43.4270 O   0  0  0  0  0  0  0  0  0  0  0  0
   57.4580   27.7220   45.8060 C   0  0  0  0  0  0  0  0  0  0  0  0
   58.8230   27.4040   45.8350 C   0  0  0  0  0  0  0  0  0  0  0  0
   59.2350   26.0820   45.9960 C   0  0  0  0  0  0  0  0  0  0  0  0
   58.2920   25.0640   46.1360 C   0  0  0  0  0  0  0  0  0  0  0  0
   56.9170   25.3560   46.1240 C   0  0  0  0  0  0  0  0  0  0  0  0
   55.9230   24.2690   46.2960 C   0  0  0  0  0  0  0  0  0  0  0  0
   54.7140   24.2550   45.7040 N   0  0  0  0  0  0  0  0  0  0  0  0
   54.1590   23.1020   46.1360 C   0  0  0  0  0  0  0  0  0  0  0  0
   53.0060   22.7330   45.7920 O   0  0  0  0  0  0  0  0  0  0  0  0
   54.9380   22.3750   46.9640 N   0  0  0  0  0  0  0  0  0  0  0  0
   56.0500   23.1230   47.0550 C   0  0  0  0  0  0  0  0  0  0  0  0
   57.1660   22.7450   47.7920 O   0  0  0  0  0  0  0  0  0  0  0  0
   56.5030   26.6980   45.9750 C   0  0  0  0  0  0  0  0  0  0  0  0
   55.1470   27.0140   45.9980 O   0  0  0  0  0  0  0  0  0  0  0  0
   57.5331   34.6000   46.9783 H   0  0  0  0  0  0  0  0  0  0  0  0
   57.5882   35.1651   44.5416 H   0  0  0  0  0  0  0  0  0  0  0  0
   57.7414   33.3237   42.8567 H   0  0  0  0  0  0  0  0  0  0  0  0
   57.7540   29.7500   43.7010 H   0  0  0  0  0  0  0  0  0  0  0  0
   59.5730   28.2019   45.7302 H   0  0  0  0  0  0  0  0  0  0  0  0
   60.3081   25.8408   46.0127 H   0  0  0  0  0  0  0  0  0  0  0  0
   58.6272   24.0233   46.2569 H   0  0  0  0  0  0  0  0  0  0  0  0
  1  2  2  0
  2  3  1  0
  3  4  2  3
  4  5  1  0
  5  6  1  0
  6  7  2  0
  7  8  1  0
  8  9  2  0
  9 10  1  0
  2 11  1  0
 11 12  2  0
 12 13  1  0
 13 14  2  0
 14 15  1  0
 15 16  1  0
 16 17  1  0
 17 18  1  0
 18 19  2  0
 18 20  1  0
 20 21  1  0
 21 22  1  0
 15 23  2  0
 23 24  1  0
  9  4  1  0
 23 11  1  0
 21 16  2  0
  6 25  1  0
  7 26  1  0
  8 27  1  0
 10 28  1  0
 12 29  1  0
 13 30  1  0
 14 31  1  0
M  CHG  5   5  -1  17  -1  20  -1  22  -1  24  -1
M  END
>  <UniqueID>  (42) 
39

>  <SMILES>  (42) 
O=C(N=c1[n-]cccc1O)c1cccc(-c2[n-]c(=O)[n-]c2[O-])c1[O-]

>  <Energy>  (42) 
78.15883787221561

>  <Genealogy>  (42) 
O=C(N=c1[n-]cccc1O)c1cccc(-c2[n-]c(=O)[n-]c2[O-])c1[O-] (protonated)
O=C(N=c1[n-]cccc1O)c1cccc(-c2[n-]c(=O)[n-]c2[O-])c1[O-] (3D coordinates assigned)
O=C(N=c1[n-]cccc1O)c1cccc(-c2[n-]c(=O)[n-]c2[O-])c1[O-] (optimized conformer: 78.15883787221561 kcal/mol)

>  <smiles>  (42) 
O=C(N=c1[nH]cccc1O)c1cccc(-c2[nH]c(=O)[nH]c2O)c1O

>  <score_type>  (42) 
oracle

>  <origin>  (42) 
adg

>  <m_score__min__energy>  (42) 
-19.359999999999999

>  <m_primary>  (42) 
energy

$$$$
42:0
     RDKit          3D

 63 67  0  0  1  0  0  0  0  0999 V2000
   62.4550   30.1950   50.5430 C   0  0  0  0  0  0  0  0  0  0  0  0
   61.2230   30.1270   49.8250 N   0  0  0  0  0  0  0  0  0  0  0  0
   61.3890   30.3990   48.4060 C   0  0  0  0  0  0  0  0  0  0  0  0
   60.3460   28.6730   50.0860 S   0  0  0  0  0  0  0  0  0  0  0  0
   59.2360   28.9410   51.0620 O   0  0  0  0  0  0  0  0  0  0  0  0
   61.3040   27.6580   50.6590 O   0  0  0  0  0  0  0  0  0  0  0  0
   59.7740   28.0330   48.5700 C   0  0  0  0  0  0  0  0  0  0  0  0
   58.5510   28.4670   48.1060 C   0  0  0  0  0  0  0  0  0  0  0  0
   58.0590   27.9830   46.9060 C   0  0  0  0  0  0  0  0  0  0  0  0
   58.8080   27.0680   46.1960 C   0  0  0  0  0  0  0  0  0  0  0  0
   58.2760   26.5660   44.9350 C   0  0  0  0  0  0  0  0  0  0  0  0
   58.1090   25.3270   44.8360 O   0  0  0  0  0  0  0  0  0  0  0  0
   57.9500   27.4160   43.8340 N   0  0  0  0  0  0  0  0  0  0  0  0
   57.5740   28.6030   44.0150 C   0  0  0  0  0  0  0  0  0  0  0  0
   56.4050   29.2360   43.9620 N   0  0  0  0  0  0  0  0  0  0  0  0
   56.3240   30.4980   44.2040 C   0  0  0  0  0  0  0  0  0  0  0  0
   57.5230   31.1830   44.5270 C   0  0  0  0  0  0  0  0  0  0  0  0
   57.6850   32.5870   44.8380 C   0  0  0  0  0  0  0  0  0  0  0  0
   57.4140   33.4470   43.9420 O   0  0  0  0  0  0  0  0  0  0  0  0
   58.1310   33.0950   46.0810 N   0  0  0  0  0  0  0  0  0  0  0  0
   59.2310   34.0380   46.2000 C   0  0  0  0  0  0  0  0  0  0  0  0
   59.9300   33.5440   47.4480 C   0  0  1  0  0  0  0  0  0  0  0  0
   60.2210   34.6740   48.4090 C   0  0  0  0  0  0  0  0  0  0  0  0
   61.5890   34.3630   49.0310 C   0  0  0  0  0  0  0  0  0  0  0  0
   61.4770   33.1940   49.9890 C   0  0  1  0  0  0  0  0  0  0  0  0
   62.1770   33.5140   51.1490 O   0  0  0  0  0  0  0  0  0  0  0  0
   60.0410   32.9840   50.3830 C   0  0  0  0  0  0  0  0  0  0  0  0
   58.9440   32.6940   49.5640 C   0  0  0  0  0  0  0  0  0  0  0  0
   57.8730   32.5950   50.3670 N   0  0  0  0  0  0  0  0  0  0  0  0
   58.2510   32.8060   51.6180 N   0  0  0  0  0  0  0  0  0  0  0  0
   59.5610   33.0480   51.6840 C   0  0  0  0  0  0  0  0  0  0  0  0
   60.2930   33.2930   52.6850 O   0  0  0  0  0  0  0  0  0  0  0  0
   59.0080   32.5350   48.1040 C   0  0  1  0  0  0  0  0  0  0  0  0
   57.6670   32.8440   47.4300 C   0  0  0  0  0  0  0  0  0  0  0  0
   58.7510   29.9760   44.4730 S   0  0  0  0  0  0  0  0  0  0  0  0
   60.0400   26.6050   46.6270 C   0  0  0  0  0  0  0  0  0  0  0  0
   60.4970   27.1120   47.8290 C   0  0  0  0  0  0  0  0  0  0  0  0
   62.2506   30.1837   51.6238 H   0  0  0  0  0  0  0  0  0  0  0  0
   63.0813   29.3301   50.2792 H   0  0  0  0  0  0  0  0  0  0  0  0
   62.9823   31.1236   50.2792 H   0  0  0  0  0  0  0  0  0  0  0  0
   61.9580   31.3313   48.2755 H   0  0  0  0  0  0  0  0  0  0  0  0
   61.9339   29.5678   47.9346 H   0  0  0  0  0  0  0  0  0  0  0  0
   60.4006   30.5036   47.9346 H   0  0  0  0  0  0  0  0  0  0  0  0
   57.9675   29.1959   48.6875 H   0  0  0  0  0  0  0  0  0  0  0  0
   57.0850   28.3231   46.5243 H   0  0  0  0  0  0  0  0  0  0  0  0
   55.5240   28.6480   43.7080 H   0  0  0  0  0  0  0  0  0  0  0  0
   55.3598   31.0257   44.1617 H   0  0  0  0  0  0  0  0  0  0  0  0
   59.8949   33.9913   45.3242 H   0  0  0  0  0  0  0  0  0  0  0  0
   58.9120   35.0893   46.2551 H   0  0  0  0  0  0  0  0  0  0  0  0
   60.8971   33.0939   47.1794 H   0  0  0  0  0  0  0  0  0  0  0  0
   60.2554   35.6330   47.8713 H   0  0  0  0  0  0  0  0  0  0  0  0
   59.4396   34.7579   49.1787 H   0  0  0  0  0  0  0  0  0  0  0  0
   62.3020   34.1107   48.2323 H   0  0  0  0  0  0  0  0  0  0  0  0
   61.9402   35.2467   49.5839 H   0  0  0  0  0  0  0  0  0  0  0  0
   61.8737   32.2903   49.5032 H   0  0  0  0  0  0  0  0  0  0  0  0
   61.9410   32.8060   51.8140 H   0  0  0  0  0  0  0  0  0  0  0  0
   56.9060   32.3850   50.0490 H   0  0  0  0  0  0  0  0  0  0  0  0
   57.6420   32.7980   52.4900 H   0  0  0  0  0  0  0  0  0  0  0  0
   59.3394   31.4940   47.9753 H   0  0  0  0  0  0  0  0  0  0  0  0
   56.9782   31.9876   47.4745 H   0  0  0  0  0  0  0  0  0  0  0  0
   57.0902   33.6616   47.8870 H   0  0  0  0  0  0  0  0  0  0  0  0
   60.6221   25.8749   46.0455 H   0  0  0  0  0  0  0  0  0  0  0  0
   61.4706   26.7717   48.2114 H   0  0  0  0  0  0  0  0  0  0  0  0
  1  2  1  0
  2  3  1  0
  2  4  1  0
  4  5  2  0
  4  6  2  0
  4  7  1  0
  7  8  2  0
  8  9  1  0
  9 10  2  0
 10 11  1  0
 11 12  2  0
 11 13  1  0
 13 14  2  0
 14 15  1  0
 15 16  1  0
 16 17  2  0
 17 18  1  0
 18 19  2  0
 18 20  1  0
 20 21  1  0
 21 22  1  0
 22 23  1  0
 23 24  1  0
 24 25  1  0
 25 26  1  0
 25 27  1  0
 27 28  2  0
 28 29  1  0
 29 30  1  0
 30 31  1  0
 31 32  2  0
 28 33  1  0
 33 34  1  0
 17 35  1  0
 10 36  1  0
 36 37  2  0
 37  7  1  0
 35 14  1  0
 34 20  1  0
 33 22  1  0
 31 27  1  0
  1 38  1  0
  1 39  1  0
  1 40  1  0
  3 41  1  0
  3 42  1  0
  3 43  1  0
  8 44  1  0
  9 45  1  0
 15 46  1  0
 16 47  1  0
 21 48  1  0
 21 49  1  0
 22 50  1  6
 23 51  1  0
 23 52  1  0
 24 53  1  0
 24 54  1  0
 25 55  1  6
 26 56  1  0
 29 57  1  0
 30 58  1  0
 33 59  1  1
 34 60  1  0
 34 61  1  0
 36 62  1  0
 37 63  1  0
M  END
>  <smiles>  (43) 
CN(C)S(=O)(=O)c1ccc(C(=O)N=c2[nH]cc(C(=O)N3CC4CCC(O)c5c([nH][nH]c5=O)C4C3)s2)cc1

>  <score_type>  (43) 
oracle

>  <origin>  (43) 
adg

>  <m_score__min__energy>  (43) 
-8.9499999999999993

>  <m_primary>  (43) 
energy

$$$$
43:0
     RDKit          3D

 50 52  0  0  0  0  0  0  0  0999 V2000
   58.6200   35.0551   46.0872 H   0  0  0  0  0  0  0  0  0  0  0  0
   58.2670   34.0310   45.8960 C   0  0  0  0  0  0  0  0  0  0  0  0
   57.6100   33.4690   44.4560 S   0  0  0  0  0  0  0  0  0  0  0  0
   57.3770   31.9070   45.0470 C   0  0  0  0  0  0  0  0  0  0  0  0
   56.9130   30.8860   44.3850 N   0  0  0  0  0  0  0  0  0  0  0  0
   56.3840   29.6680   44.9260 C   0  0  0  0  0  0  0  0  0  0  0  0
   55.1820   29.3400   44.7510 O   0  0  0  0  0  0  0  0  0  0  0  0
   57.2990   28.7470   45.6630 C   0  0  0  0  0  0  0  0  0  0  0  0
   57.8296   29.3029   46.4501 H   0  0  0  0  0  0  0  0  0  0  0  0
   56.7209   27.9354   46.1289 H   0  0  0  0  0  0  0  0  0  0  0  0
   58.5050   28.0550   44.4780 S   0  0  0  0  0  0  0  0  0  0  0  0
   59.9160   29.0030   45.0690 C   0  0  0  0  0  0  0  0  0  0  0  0
   61.2440   28.6070   44.6590 S   0  0  0  0  0  0  0  0  0  0  0  0
   59.7040   30.1410   45.9400 N   0  0  0  0  0  0  0  0  0  0  0  0
   60.3250   30.9340   45.6500 H   0  0  0  0  0  0  0  0  0  0  0  0
   58.7150   30.4710   45.8440 H   0  0  0  0  0  0  0  0  0  0  0  0
   59.9590   29.8160   47.3580 C   0  0  0  0  0  0  0  0  0  0  0  0
   59.0556   30.0424   47.9434 H   0  0  0  0  0  0  0  0  0  0  0  0
   60.2148   28.7482   47.4238 H   0  0  0  0  0  0  0  0  0  0  0  0
   61.1160   30.6120   47.9160 C   0  0  0  0  0  0  0  0  0  0  0  0
   61.7770   31.5570   47.1160 C   0  0  0  0  0  0  0  0  0  0  0  0
   61.4884   31.6814   46.0619 H   0  0  0  0  0  0  0  0  0  0  0  0
   62.8020   32.3410   47.6560 C   0  0  0  0  0  0  0  0  0  0  0  0
   63.3138   33.0842   47.0269 H   0  0  0  0  0  0  0  0  0  0  0  0
   63.1780   32.1820   48.9950 C   0  0  0  0  0  0  0  0  0  0  0  0
   63.9878   32.7961   49.4157 H   0  0  0  0  0  0  0  0  0  0  0  0
   62.5250   31.2440   49.7960 C   0  0  0  0  0  0  0  0  0  0  0  0
   62.8188   31.1214   50.8489 H   0  0  0  0  0  0  0  0  0  0  0  0
   61.4980   30.4600   49.2620 C   0  0  0  0  0  0  0  0  0  0  0  0
   60.9864   29.7213   49.8965 H   0  0  0  0  0  0  0  0  0  0  0  0
   57.7880   31.8010   46.3280 N   0  0  0  0  0  0  0  0  0  0  0  0
   58.2880   32.9730   46.8100 C   0  0  0  0  0  0  0  0  0  0  0  0
   58.8180   33.0870   48.1920 C   0  0  0  0  0  0  0  0  0  0  0  0
   58.3510   32.2520   49.2250 C   0  0  0  0  0  0  0  0  0  0  0  0
   57.6023   31.4774   49.0028 H   0  0  0  0  0  0  0  0  0  0  0  0
   58.8300   32.3980   50.5310 C   0  0  0  0  0  0  0  0  0  0  0  0
   58.4539   31.7408   51.3289 H   0  0  0  0  0  0  0  0  0  0  0  0
   59.7920   33.3830   50.8290 C   0  0  0  0  0  0  0  0  0  0  0  0
   60.3080   33.5740   52.1220 O   0  0  0  0  0  0  0  0  0  0  0  0
   59.5670   34.0480   53.2470 C   0  0  0  0  0  0  0  0  0  0  0  0
   58.9542   34.9081   52.9392 H   0  0  0  0  0  0  0  0  0  0  0  0
   60.2736   34.3454   54.0358 H   0  0  0  0  0  0  0  0  0  0  0  0
   58.6550   32.9530   53.7930 C   0  0  0  0  0  0  0  0  0  0  0  0
   58.6733   32.9750   54.8926 H   0  0  0  0  0  0  0  0  0  0  0  0
   57.6270   33.1221   53.4400 H   0  0  0  0  0  0  0  0  0  0  0  0
   59.0073   31.9726   53.4400 H   0  0  0  0  0  0  0  0  0  0  0  0
   60.2670   34.2010   49.7990 C   0  0  0  0  0  0  0  0  0  0  0  0
   61.0326   34.9603   50.0164 H   0  0  0  0  0  0  0  0  0  0  0  0
   59.7790   34.0640   48.4950 C   0  0  0  0  0  0  0  0  0  0  0  0
   60.1516   34.7275   47.7006 H   0  0  0  0  0  0  0  0  0  0  0  0
  1  2  1  0
  2  3  1  0
  3  4  1  0
  4  5  2  0
  5  6  1  0
  6  7  2  0
  6  8  1  0
  8  9  1  0
  8 10  1  0
  8 11  1  0
 11 12  1  0
 12 13  2  0
 12 14  1  0
 14 15  1  0
 14 16  1  0
 14 17  1  0
 17 18  1  0
 17 19  1  0
 17 20  1  0
 20 21  2  0
 21 22  1  0
 21 23  1  0
 23 24  1  0
 23 25  2  0
 25 26  1  0
 25 27  1  0
 27 28  1  0
 27 29  2  0
 29 30  1  0
  4 31  1  0
 31 32  1  0
 32 33  1  0
 33 34  2  0
 34 35  1  0
 34 36  1  0
 36 37  1  0
 36 38  2  0
 38 39  1  0
 39 40  1  0
 40 41  1  0
 40 42  1  0
 40 43  1  0
 43 44  1  0
 43 45  1  0
 43 46  1  0
 38 47  1  0
 47 48  1  0
 47 49  2  0
 49 50  1  0
 32  2  2  0
 49 33  1  0
 29 20  1  0
M  CHG  2  14   1  31  -1
M  END
>  <UniqueID>  (44) 
40

>  <SMILES>  (44) 
CCOc1ccc(-c2cs/c(=N\C(=O)CSC(=S)[NH2+]Cc3ccccc3)[n-]2)cc1

>  <Energy>  (44) 
83.26393999471196

>  <Genealogy>  (44) 
CCOc1ccc(-c2csc(=NC(=O)CSC(=S)[NH2+]Cc3ccccc3)[n-]2)cc1 (protonated)
CCOc1ccc(-c2cs/c(=N\C(=O)CSC(=S)[NH2+]Cc3ccccc3)[n-]2)cc1 (cis-trans isomerization)
CCOc1ccc(-c2cs/c(=N\C(=O)CSC(=S)[NH2+]Cc3ccccc3)[n-]2)cc1 (3D coordinates assigned)
CCOc1ccc(-c2cs/c(=N\C(=O)CSC(=S)[NH2+]Cc3ccccc3)[n-]2)cc1 (optimized conformer: 83.26393999471196 kcal/mol)

>  <smiles>  (44) 
CCOc1ccc(-c2csc(=NC(=O)CSC(=S)NCc3ccccc3)[nH]2)cc1

>  <score_type>  (44) 
oracle

>  <origin>  (44) 
adg

>  <m_score__min__energy>  (44) 
-7.8799999999999999

>  <m_primary>  (44) 
energy

$$$$
44:0
     RDKit          3D

 59 61  0  0  0  0  0  0  0  0999 V2000
   54.7510   27.0920   46.4480 H   0  0  0  0  0  0  0  0  0  0  0  0
   54.6760   26.1690   45.9650 N   0  0  0  0  0  0  0  0  0  0  0  0
   56.2780   25.5290   45.8550 S   0  0  0  0  0  0  0  0  0  0  0  0
   56.3500   24.5440   44.7220 O   0  0  0  0  0  0  0  0  0  0  0  0
   56.6250   24.8220   47.1330 O   0  0  0  0  0  0  0  0  0  0  0  0
   57.4140   26.8450   45.5730 C   0  0  0  0  0  0  0  0  0  0  0  0
   58.7920   26.6090   45.6520 C   0  0  0  0  0  0  0  0  0  0  0  0
   59.1632   25.6044   45.9031 H   0  0  0  0  0  0  0  0  0  0  0  0
   59.6950   27.6450   45.4130 C   0  0  0  0  0  0  0  0  0  0  0  0
   60.7764   27.4552   45.4800 H   0  0  0  0  0  0  0  0  0  0  0  0
   59.2320   28.9220   45.0890 C   0  0  0  0  0  0  0  0  0  0  0  0
   59.9510   29.7341   44.9062 H   0  0  0  0  0  0  0  0  0  0  0  0
   57.8520   29.1760   44.9950 C   0  0  0  0  0  0  0  0  0  0  0  0
   57.3580   30.5230   44.6270 C   0  0  0  0  0  0  0  0  0  0  0  0
   56.1230   30.7790   44.6690 O   0  0  0  0  0  0  0  0  0  0  0  0
   58.2810   31.5420   44.2310 N   0  0  0  0  0  0  0  0  0  0  0  0
   57.8670   32.8800   43.8310 C   0  0  0  0  0  0  0  0  0  0  0  0
   58.4946   33.2256   42.9963 H   0  0  0  0  0  0  0  0  0  0  0  0
   56.8150   32.8619   43.5100 H   0  0  0  0  0  0  0  0  0  0  0  0
   58.0230   33.8070   44.9910 C   0  0  0  0  0  0  0  0  0  0  0  0
   57.0070   34.1600   45.6490 O   0  0  0  0  0  0  0  0  0  0  0  0
   59.3310   34.2450   45.3850 N   0  0  0  0  0  0  0  0  0  0  0  0
   60.1510   33.9900   44.7890 H   0  0  0  0  0  0  0  0  0  0  0  0
   59.5690   34.9910   46.6190 C   0  0  0  0  0  0  0  0  0  0  0  0
   59.8039   36.0359   46.3681 H   0  0  0  0  0  0  0  0  0  0  0  0
   58.6631   34.9384   47.2407 H   0  0  0  0  0  0  0  0  0  0  0  0
   60.7200   34.3990   47.3950 C   0  0  0  0  0  0  0  0  0  0  0  0
   61.8540   33.9250   46.7170 C   0  0  0  0  0  0  0  0  0  0  0  0
   61.9026   33.9902   45.6200 H   0  0  0  0  0  0  0  0  0  0  0  0
   62.9210   33.3710   47.4280 C   0  0  0  0  0  0  0  0  0  0  0  0
   63.8089   33.0077   46.8898 H   0  0  0  0  0  0  0  0  0  0  0  0
   62.8640   33.2770   48.8200 C   0  0  0  0  0  0  0  0  0  0  0  0
   63.7143   32.8558   49.3764 H   0  0  0  0  0  0  0  0  0  0  0  0
   61.7260   33.7180   49.5110 C   0  0  0  0  0  0  0  0  0  0  0  0
   61.6900   33.6660   51.0110 C   0  0  0  0  0  0  0  0  0  0  0  0
   62.6326   33.2418   51.3872 H   0  0  0  0  0  0  0  0  0  0  0  0
   61.5628   34.6819   51.4133 H   0  0  0  0  0  0  0  0  0  0  0  0
   60.5760   32.8290   51.4340 N   0  0  0  0  0  0  0  0  0  0  0  0
   59.2220   33.2970   51.4590 C   0  0  0  0  0  0  0  0  0  0  0  0
   58.9800   34.5220   51.6260 O   0  0  0  0  0  0  0  0  0  0  0  0
   58.1280   32.3100   51.3910 C   0  0  0  0  0  0  0  0  0  0  0  0
   57.2517   32.4841   52.0327 H   0  0  0  0  0  0  0  0  0  0  0  0
   58.1120   31.2160   50.6110 C   0  0  0  0  0  0  0  0  0  0  0  0
   57.3930   30.4237   50.8664 H   0  0  0  0  0  0  0  0  0  0  0  0
   58.9820   30.9910   49.4380 C   0  0  0  0  0  0  0  0  0  0  0  0
   60.1710   30.2570   49.5910 C   0  0  0  0  0  0  0  0  0  0  0  0
   60.4178   29.8106   50.5656 H   0  0  0  0  0  0  0  0  0  0  0  0
   61.0420   30.0920   48.5080 C   0  0  0  0  0  0  0  0  0  0  0  0
   61.9640   29.5045   48.6298 H   0  0  0  0  0  0  0  0  0  0  0  0
   60.7430   30.6720   47.2720 C   0  0  0  0  0  0  0  0  0  0  0  0
   61.4263   30.5361   46.4207 H   0  0  0  0  0  0  0  0  0  0  0  0
   59.5750   31.4250   47.1180 C   0  0  0  0  0  0  0  0  0  0  0  0
   59.3410   31.8828   46.1455 H   0  0  0  0  0  0  0  0  0  0  0  0
   58.7040   31.5970   48.1980 C   0  0  0  0  0  0  0  0  0  0  0  0
   57.7975   32.2085   48.0784 H   0  0  0  0  0  0  0  0  0  0  0  0
   60.6540   34.2760   48.7950 C   0  0  0  0  0  0  0  0  0  0  0  0
   59.7574   34.6189   49.3322 H   0  0  0  0  0  0  0  0  0  0  0  0
   56.9480   28.1260   45.2420 C   0  0  0  0  0  0  0  0  0  0  0  0
   55.8659   28.3116   45.1749 H   0  0  0  0  0  0  0  0  0  0  0  0
  1  2  1  0
  2  3  1  0
  3  4  2  0
  3  5  2  0
  3  6  1  0
  6  7  2  0
  7  8  1  0
  7  9  1  0
  9 10  1  0
  9 11  2  0
 11 12  1  0
 11 13  1  0
 13 14  1  0
 14 15  2  0
 14 16  1  0
 16 17  1  0
 17 18  1  0
 17 19  1  0
 17 20  1  0
 20 21  2  0
 20 22  1  0
 22 23  1  0
 22 24  1  0
 24 25  1  0
 24 26  1  0
 24 27  1  0
 27 28  2  0
 28 29  1  0
 28 30  1  0
 30 31  1  0
 30 32  2  0
 32 33  1  0
 32 34  1  0
 34 35  1  0
 35 36  1  0
 35 37  1  0
 35 38  1  0
 38 39  1  0
 39 40  2  0
 39 41  1  0
 41 42  1  0
 41 43  2  0
 43 44  1  0
 43 45  1  0
 45 46  2  0
 46 47  1  0
 46 48  1  0
 48 49  1  0
 48 50  2  0
 50 51  1  0
 50 52  1  0
 52 53  1  0
 52 54  2  0
 54 55  1  0
 34 56  2  0
 56 57  1  0
 13 58  2  0
 58 59  1  0
 58  6  1  0
 56 27  1  0
 54 45  1  0
M  CHG  3   2  -1  16  -1  38  -1
M  END
>  <UniqueID>  (45) 
41

>  <SMILES>  (45) 
[NH-]S(=O)(=O)c1cccc(C(=O)[N-]CC(=O)NCc2cccc(C[N-]C(=O)/C=C\c3ccccc3)c2)c1

>  <Energy>  (45) 
56.55823163297892

>  <Genealogy>  (45) 
[NH-]S(=O)(=O)c1cccc(C(=O)[N-]CC(=O)NCc2cccc(C[N-]C(=O)C=Cc3ccccc3)c2)c1 (protonated)
[NH-]S(=O)(=O)c1cccc(C(=O)[N-]CC(=O)NCc2cccc(C[N-]C(=O)/C=C\c3ccccc3)c2)c1 (cis-trans isomerization)
[NH-]S(=O)(=O)c1cccc(C(=O)[N-]CC(=O)NCc2cccc(C[N-]C(=O)/C=C\c3ccccc3)c2)c1 (3D coordinates assigned)
[NH-]S(=O)(=O)c1cccc(C(=O)[N-]CC(=O)NCc2cccc(C[N-]C(=O)/C=C\c3ccccc3)c2)c1 (optimized conformer: 56.55823163297892 kcal/mol)

>  <smiles>  (45) 
NS(=O)(=O)c1cccc(C(=O)NCC(=O)NCc2cccc(CNC(=O)C=Cc3ccccc3)c2)c1

>  <score_type>  (45) 
oracle

>  <origin>  (45) 
adg

>  <m_score__min__energy>  (45) 
-15.58

>  <m_primary>  (45) 
energy

$$$$
45:0
     RDKit          3D

 51 53  0  0  0  0  0  0  0  0999 V2000
   55.1430   27.5500   45.4490 H   0  0  0  0  0  0  0  0  0  0  0  0
   55.1450   26.7050   45.9830 O   0  0  0  0  0  0  0  0  0  0  0  0
   56.3410   26.0510   45.6600 C   0  0  0  0  0  0  0  0  0  0  0  0
   56.1927   25.4422   44.7559 H   0  0  0  0  0  0  0  0  0  0  0  0
   56.6397   25.4018   46.4962 H   0  0  0  0  0  0  0  0  0  0  0  0
   57.4380   27.0850   45.4030 C   0  0  0  0  0  0  0  0  0  0  0  0
   57.5838   27.1959   44.3184 H   0  0  0  0  0  0  0  0  0  0  0  0
   58.3688   26.7413   45.8779 H   0  0  0  0  0  0  0  0  0  0  0  0
   57.0660   28.3810   45.9740 N   0  0  0  0  0  0  0  0  0  0  0  0
   56.5920   29.5050   45.2250 C   0  0  0  0  0  0  0  0  0  0  0  0
   55.3850   29.5300   44.8620 O   0  0  0  0  0  0  0  0  0  0  0  0
   57.4980   30.6330   44.8310 C   0  0  0  0  0  0  0  0  0  0  0  0
   56.9623   31.5881   44.9352 H   0  0  0  0  0  0  0  0  0  0  0  0
   57.8135   30.5040   43.7851 H   0  0  0  0  0  0  0  0  0  0  0  0
   58.6420   30.6350   45.6770 O   0  0  0  0  0  0  0  0  0  0  0  0
   58.9500   31.6450   46.6010 C   0  0  0  0  0  0  0  0  0  0  0  0
   59.7070   32.7790   46.2500 C   0  0  0  0  0  0  0  0  0  0  0  0
   60.0963   32.8843   45.2266 H   0  0  0  0  0  0  0  0  0  0  0  0
   59.9640   33.7690   47.1980 C   0  0  0  0  0  0  0  0  0  0  0  0
   60.5456   34.6585   46.9142 H   0  0  0  0  0  0  0  0  0  0  0  0
   59.4890   33.6400   48.5040 C   0  0  0  0  0  0  0  0  0  0  0  0
   59.7019   34.4272   49.2422 H   0  0  0  0  0  0  0  0  0  0  0  0
   58.7360   32.5050   48.8860 C   0  0  0  0  0  0  0  0  0  0  0  0
   58.2130   32.3150   50.2780 C   0  0  0  0  0  0  0  0  0  0  0  0
   57.2920   31.3350   50.5030 N   0  0  0  0  0  0  0  0  0  0  0  0
   56.7860   31.0770   51.7420 C   0  0  0  0  0  0  0  0  0  0  0  0
   55.9430   30.1030   51.9300 N   0  0  0  0  0  0  0  0  0  0  0  0
   54.6070   30.3110   52.4020 C   0  0  0  0  0  0  0  0  0  0  0  0
   54.1720   29.6700   53.5630 C   0  0  0  0  0  0  0  0  0  0  0  0
   54.8640   29.0319   54.1321 H   0  0  0  0  0  0  0  0  0  0  0  0
   52.8570   29.8400   54.0010 C   0  0  0  0  0  0  0  0  0  0  0  0
   52.5117   29.3222   54.9080 H   0  0  0  0  0  0  0  0  0  0  0  0
   51.9780   30.6630   53.2950 C   0  0  0  0  0  0  0  0  0  0  0  0
   50.9491   30.8060   53.6568 H   0  0  0  0  0  0  0  0  0  0  0  0
   52.4030   31.3050   52.1300 C   0  0  0  0  0  0  0  0  0  0  0  0
   51.4740   32.1910   51.3980 C   0  0  0  0  0  0  0  0  0  0  0  0
   51.7600   32.5330   50.2190 O   0  0  0  0  0  0  0  0  0  0  0  0
   50.2850   32.7210   51.9990 N   0  0  0  0  0  0  0  0  0  0  0  0
   50.2410   33.5730   53.1850 C   0  0  0  0  0  0  0  0  0  0  0  0
   50.2734   32.9461   54.0883 H   0  0  0  0  0  0  0  0  0  0  0  0
   51.1052   34.2535   53.1799 H   0  0  0  0  0  0  0  0  0  0  0  0
   49.3113   34.1609   53.1799 H   0  0  0  0  0  0  0  0  0  0  0  0
   53.7290   31.1410   51.6990 C   0  0  0  0  0  0  0  0  0  0  0  0
   54.0799   31.6700   50.8007 H   0  0  0  0  0  0  0  0  0  0  0  0
   57.1990   31.8180   52.8000 N   0  0  0  0  0  0  0  0  0  0  0  0
   58.1080   32.8140   52.6380 C   0  0  0  0  0  0  0  0  0  0  0  0
   58.4302   33.4068   53.5068 H   0  0  0  0  0  0  0  0  0  0  0  0
   58.6360   33.0900   51.3750 C   0  0  0  0  0  0  0  0  0  0  0  0
   59.3694   33.8985   51.2394 H   0  0  0  0  0  0  0  0  0  0  0  0
   58.4820   31.5140   47.9120 C   0  0  0  0  0  0  0  0  0  0  0  0
   57.9040   30.6206   48.1907 H   0  0  0  0  0  0  0  0  0  0  0  0
  1  2  1  0
  2  3  1  0
  3  4  1  0
  3  5  1  0
  3  6  1  0
  6  7  1  0
  6  8  1  0
  6  9  1  0
  9 10  1  0
 10 11  2  0
 10 12  1  0
 12 13  1  0
 12 14  1  0
 12 15  1  0
 15 16  1  0
 16 17  2  0
 17 18  1  0
 17 19  1  0
 19 20  1  0
 19 21  2  0
 21 22  1  0
 21 23  1  0
 23 24  1  0
 24 25  2  0
 25 26  1  0
 26 27  2  0
 27 28  1  0
 28 29  2  0
 29 30  1  0
 29 31  1  0
 31 32  1  0
 31 33  2  0
 33 34  1  0
 33 35  1  0
 35 36  1  0
 36 37  2  0
 36 38  1  0
 38 39  1  0
 39 40  1  0
 39 41  1  0
 39 42  1  0
 35 43  2  0
 43 44  1  0
 26 45  1  0
 45 46  1  0
 46 47  1  0
 46 48  2  0
 48 49  1  0
 23 50  2  0
 50 51  1  0
 50 16  1  0
 48 24  1  0
 43 28  1  0
M  CHG  3   9  -1  38  -1  45  -1
M  END
>  <UniqueID>  (46) 
42

>  <SMILES>  (46) 
C[N-]C(=O)c1cccc(/N=c2\nc(-c3cccc(OCC(=O)[N-]CCO)c3)cc[n-]2)c1

>  <Energy>  (46) 
62.88165957185047

>  <Genealogy>  (46) 
C[N-]C(=O)c1cccc(N=c2nc(-c3cccc(OCC(=O)[N-]CCO)c3)cc[n-]2)c1 (protonated)
C[N-]C(=O)c1cccc(/N=c2\nc(-c3cccc(OCC(=O)[N-]CCO)c3)cc[n-]2)c1 (cis-trans isomerization)
C[N-]C(=O)c1cccc(/N=c2\nc(-c3cccc(OCC(=O)[N-]CCO)c3)cc[n-]2)c1 (3D coordinates assigned)
C[N-]C(=O)c1cccc(/N=c2\nc(-c3cccc(OCC(=O)[N-]CCO)c3)cc[n-]2)c1 (optimized conformer: 62.88165957185047 kcal/mol)

>  <smiles>  (46) 
CNC(=O)c1cccc(N=c2nc(-c3cccc(OCC(=O)NCCO)c3)cc[nH]2)c1

>  <score_type>  (46) 
oracle

>  <origin>  (46) 
adg

>  <m_score__min__energy>  (46) 
-15.68

>  <m_primary>  (46) 
energy

$$$$
46:0
     RDKit          3D

 54 56  0  0  0  0  0  0  0  0999 V2000
   57.3890   33.8670   44.8950 C   0  0  0  0  0  0  0  0  0  0  0  0
   57.8240   34.2560   46.1940 O   0  0  0  0  0  0  0  0  0  0  0  0
   59.0920   33.9740   46.7250 C   0  0  0  0  0  0  0  0  0  0  0  0
   60.2820   34.2430   46.0220 C   0  0  0  0  0  0  0  0  0  0  0  0
   61.5200   33.9570   46.6020 C   0  0  0  0  0  0  0  0  0  0  0  0
   61.5870   33.3890   47.8750 C   0  0  0  0  0  0  0  0  0  0  0  0
   60.4080   33.0910   48.5810 C   0  0  0  0  0  0  0  0  0  0  0  0
   60.4450   32.5570   49.9140 N   0  0  0  0  0  0  0  0  0  0  0  0
   59.6480   33.0520   51.0010 C   0  0  0  0  0  0  0  0  0  0  0  0
   59.3300   34.2720   51.0590 O   0  0  0  0  0  0  0  0  0  0  0  0
   59.2030   32.1170   52.0880 C   0  0  0  0  0  0  0  0  0  0  0  0
   59.0240   30.6730   51.5850 C   0  0  0  0  0  0  0  0  0  0  0  0
   60.1180   29.7870   51.9870 N   0  0  0  0  0  0  0  0  0  0  0  0
   60.9720   29.0740   51.0900 C   0  0  0  0  0  0  0  0  0  0  0  0
   61.4770   27.9830   51.4630 O   0  0  0  0  0  0  0  0  0  0  0  0
   61.2660   29.6040   49.7930 N   0  0  0  0  0  0  0  0  0  0  0  0
   60.3690   29.6440   48.6750 C   0  0  0  0  0  0  0  0  0  0  0  0
   60.7740   30.1040   47.4070 C   0  0  0  0  0  0  0  0  0  0  0  0
   59.8820   30.0820   46.3310 C   0  0  0  0  0  0  0  0  0  0  0  0
   58.5810   29.5910   46.5050 C   0  0  0  0  0  0  0  0  0  0  0  0
   57.4390   29.5540   45.1670 S   0  0  0  0  0  0  0  0  0  0  0  0
   56.6520   30.8340   45.1700 O   0  0  0  0  0  0  0  0  0  0  0  0
   58.1490   29.4370   43.8450 O   0  0  0  0  0  0  0  0  0  0  0  0
   56.3510   28.2200   45.3710 N   0  0  0  0  0  0  0  0  0  0  0  0
   56.7280   26.8800   45.7140 C   0  0  0  0  0  0  0  0  0  0  0  0
   58.0760   26.4700   45.7640 C   0  0  0  0  0  0  0  0  0  0  0  0
   58.3980   25.1480   46.0750 C   0  0  0  0  0  0  0  0  0  0  0  0
   57.3870   24.2240   46.3460 C   0  0  0  0  0  0  0  0  0  0  0  0
   56.0500   24.6210   46.3080 C   0  0  0  0  0  0  0  0  0  0  0  0
   55.7180   25.9430   45.9910 C   0  0  0  0  0  0  0  0  0  0  0  0
   54.3820   26.3250   45.9550 O   0  0  0  0  0  0  0  0  0  0  0  0
   58.1830   29.1150   47.7590 C   0  0  0  0  0  0  0  0  0  0  0  0
   59.0750   29.1350   48.8350 C   0  0  0  0  0  0  0  0  0  0  0  0
   59.1670   33.4060   48.0010 C   0  0  0  0  0  0  0  0  0  0  0  0
   56.5718   33.1362   44.9855 H   0  0  0  0  0  0  0  0  0  0  0  0
   57.0309   34.7516   44.3480 H   0  0  0  0  0  0  0  0  0  0  0  0
   58.2283   33.4126   44.3480 H   0  0  0  0  0  0  0  0  0  0  0  0
   60.2365   34.6795   45.0134 H   0  0  0  0  0  0  0  0  0  0  0  0
   62.4465   34.1805   46.0528 H   0  0  0  0  0  0  0  0  0  0  0  0
   62.5660   33.1736   48.3279 H   0  0  0  0  0  0  0  0  0  0  0  0
   61.0620   31.7350   50.0970 H   0  0  0  0  0  0  0  0  0  0  0  0
   59.9579   32.1211   52.8881 H   0  0  0  0  0  0  0  0  0  0  0  0
   58.2263   32.4681   52.4526 H   0  0  0  0  0  0  0  0  0  0  0  0
   58.0828   30.2744   51.9916 H   0  0  0  0  0  0  0  0  0  0  0  0
   59.0151   30.7065   50.4855 H   0  0  0  0  0  0  0  0  0  0  0  0
   61.7968   30.4823   47.2627 H   0  0  0  0  0  0  0  0  0  0  0  0
   60.2020   30.4510   45.3454 H   0  0  0  0  0  0  0  0  0  0  0  0
   58.8771   27.1948   45.5571 H   0  0  0  0  0  0  0  0  0  0  0  0
   59.4515   24.8331   46.1067 H   0  0  0  0  0  0  0  0  0  0  0  0
   57.6447   23.1827   46.5895 H   0  0  0  0  0  0  0  0  0  0  0  0
   55.2550   23.8932   46.5277 H   0  0  0  0  0  0  0  0  0  0  0  0
   57.1645   28.7236   47.8986 H   0  0  0  0  0  0  0  0  0  0  0  0
   58.7577   28.7479   49.8146 H   0  0  0  0  0  0  0  0  0  0  0  0
   58.2410   33.2028   48.5589 H   0  0  0  0  0  0  0  0  0  0  0  0
  1  2  1  0
  2  3  1  0
  3  4  2  0
  4  5  1  0
  5  6  2  0
  6  7  1  0
  7  8  1  0
  8  9  1  0
  9 10  2  0
  9 11  1  0
 11 12  1  0
 12 13  1  0
 13 14  1  0
 14 15  2  0
 14 16  1  0
 16 17  1  0
 17 18  2  0
 18 19  1  0
 19 20  2  0
 20 21  1  0
 21 22  2  0
 21 23  2  0
 21 24  1  0
 24 25  1  0
 25 26  2  0
 26 27  1  0
 27 28  2  0
 28 29  1  0
 29 30  2  0
 30 31  1  0
 20 32  1  0
 32 33  2  0
  7 34  2  0
 34  3  1  0
 33 17  1  0
 30 25  1  0
  1 35  1  0
  1 36  1  0
  1 37  1  0
  4 38  1  0
  5 39  1  0
  6 40  1  0
  8 41  1  0
 11 42  1  0
 11 43  1  0
 12 44  1  0
 12 45  1  0
 18 46  1  0
 19 47  1  0
 26 48  1  0
 27 49  1  0
 28 50  1  0
 29 51  1  0
 32 52  1  0
 33 53  1  0
 34 54  1  0
M  CHG  4  13  -1  16  -1  24  -1  31  -1
M  END
>  <UniqueID>  (47) 
43

>  <SMILES>  (47) 
COc1cccc(NC(=O)CC[N-]C(=O)[N-]c2ccc(S(=O)(=O)[N-]c3ccccc3[O-])cc2)c1

>  <Energy>  (47) 
58.340860629256504

>  <Genealogy>  (47) 
COc1cccc(NC(=O)CC[N-]C(=O)[N-]c2ccc(S(=O)(=O)[N-]c3ccccc3[O-])cc2)c1 (protonated)
COc1cccc(NC(=O)CC[N-]C(=O)[N-]c2ccc(S(=O)(=O)[N-]c3ccccc3[O-])cc2)c1 (3D coordinates assigned)
COc1cccc(NC(=O)CC[N-]C(=O)[N-]c2ccc(S(=O)(=O)[N-]c3ccccc3[O-])cc2)c1 (optimized conformer: 58.340860629256504 kcal/mol)

>  <smiles>  (47) 
COc1cccc(NC(=O)CCNC(=O)Nc2ccc(S(=O)(=O)Nc3ccccc3O)cc2)c1

>  <score_type>  (47) 
oracle

>  <origin>  (47) 
adg

>  <m_score__min__energy>  (47) 
-15.9

>  <m_primary>  (47) 
energy

$$$$
47:0
     RDKit          3D

 42 44  0  0  0  0  0  0  0  0999 V2000
   58.0506   29.8812   50.8967 H   0  0  0  0  0  0  0  0  0  0  0  0
   57.9170   30.9730   50.9070 C   0  0  0  0  0  0  0  0  0  0  0  0
   57.0656   31.4280   50.3796 H   0  0  0  0  0  0  0  0  0  0  0  0
   58.7860   31.7440   51.5580 C   0  0  0  0  0  0  0  0  0  0  0  0
   59.6302   31.2685   52.0788 H   0  0  0  0  0  0  0  0  0  0  0  0
   58.6570   33.2160   51.6060 C   0  0  0  0  0  0  0  0  0  0  0  0
   57.8350   33.7510   52.3970 O   0  0  0  0  0  0  0  0  0  0  0  0
   59.5060   34.0610   50.8200 N   0  0  0  0  0  0  0  0  0  0  0  0
   60.0970   33.7290   49.5560 C   0  0  0  0  0  0  0  0  0  0  0  0
   61.4060   34.1450   49.2880 C   0  0  0  0  0  0  0  0  0  0  0  0
   61.9702   34.7021   50.0504 H   0  0  0  0  0  0  0  0  0  0  0  0
   62.0000   33.8560   48.0560 C   0  0  0  0  0  0  0  0  0  0  0  0
   63.0332   34.1764   47.8561 H   0  0  0  0  0  0  0  0  0  0  0  0
   61.2840   33.1610   47.0780 C   0  0  0  0  0  0  0  0  0  0  0  0
   61.7574   32.9288   46.1126 H   0  0  0  0  0  0  0  0  0  0  0  0
   59.9640   32.7590   47.3240 C   0  0  0  0  0  0  0  0  0  0  0  0
   59.2150   32.0710   46.3070 N   0  0  0  0  0  0  0  0  0  0  0  0
   58.3540   32.6530   45.4430 C   0  0  0  0  0  0  0  0  0  0  0  0
   58.0840   34.1240   45.3610 C   0  0  0  0  0  0  0  0  0  0  0  0
   58.0077   34.5399   46.3765 H   0  0  0  0  0  0  0  0  0  0  0  0
   58.9064   34.6183   44.8232 H   0  0  0  0  0  0  0  0  0  0  0  0
   57.1396   34.2940   44.8232 H   0  0  0  0  0  0  0  0  0  0  0  0
   57.7660   31.7010   44.6380 C   0  0  0  0  0  0  0  0  0  0  0  0
   57.0214   31.8810   43.8486 H   0  0  0  0  0  0  0  0  0  0  0  0
   58.2910   30.4740   45.0120 C   0  0  0  0  0  0  0  0  0  0  0  0
   57.9620   29.3250   44.3890 C   0  0  0  0  0  0  0  0  0  0  0  0
   58.1229   29.2796   43.3018 H   0  0  0  0  0  0  0  0  0  0  0  0
   57.4050   28.1230   45.0380 C   0  0  0  0  0  0  0  0  0  0  0  0
   56.0270   28.0010   45.2780 C   0  0  0  0  0  0  0  0  0  0  0  0
   55.1440   28.9960   44.8720 O   0  0  0  0  0  0  0  0  0  0  0  0
   55.5450   26.9030   45.9170 N   0  0  0  0  0  0  0  0  0  0  0  0
   56.3790   25.9210   46.3460 C   0  0  0  0  0  0  0  0  0  0  0  0
   55.9110   24.9100   46.9310 O   0  0  0  0  0  0  0  0  0  0  0  0
   57.7180   26.0300   46.1480 N   0  0  0  0  0  0  0  0  0  0  0  0
   58.2480   27.1080   45.5140 C   0  0  0  0  0  0  0  0  0  0  0  0
   59.4960   27.1800   45.3540 O   0  0  0  0  0  0  0  0  0  0  0  0
   59.1750   30.7330   46.0760 C   0  0  0  0  0  0  0  0  0  0  0  0
   59.8490   29.8370   46.8160 C   0  0  0  0  0  0  0  0  0  0  0  0
   60.5124   30.1788   47.6241 H   0  0  0  0  0  0  0  0  0  0  0  0
   59.7375   28.7615   46.6138 H   0  0  0  0  0  0  0  0  0  0  0  0
   59.3670   33.0600   48.5570 C   0  0  0  0  0  0  0  0  0  0  0  0
   58.3221   32.7713   48.7438 H   0  0  0  0  0  0  0  0  0  0  0  0
  1  2  1  0
  2  3  1  0
  2  4  2  0
  4  5  1  0
  4  6  1  0
  6  7  2  0
  6  8  1  0
  8  9  1  0
  9 10  2  0
 10 11  1  0
 10 12  1  0
 12 13  1  0
 12 14  2  0
 14 15  1  0
 14 16  1  0
 16 17  1  0
 17 18  1  0
 18 19  1  0
 19 20  1  0
 19 21  1  0
 19 22  1  0
 18 23  2  0
 23 24  1  0
 23 25  1  0
 25 26  2  0
 26 27  1  0
 26 28  1  0
 28 29  2  0
 29 30  1  0
 29 31  1  0
 31 32  1  0
 32 33  2  0
 32 34  1  0
 34 35  1  0
 35 36  2  0
 25 37  1  0
 37 38  2  0
 38 39  1  0
 38 40  1  0
 16 41  2  0
 41 42  1  0
 41  9  1  0
 37 17  1  0
 35 28  1  0
M  CHG  4   8  -1  30  -1  31  -1  34  -1
M  END
>  <UniqueID>  (48) 
44

>  <SMILES>  (48) 
C=CC(=O)[N-]c1cccc(-n2c(C)c/c(=C/c3c([O-])[n-]c(=O)[n-]c3=O)c2=C)c1

>  <Energy>  (48) 
96.27633362971626

>  <Genealogy>  (48) 
C=CC(=O)[N-]c1cccc(-n2c(C)cc(=Cc3c([O-])[n-]c(=O)[n-]c3=O)c2=C)c1 (protonated)
C=CC(=O)[N-]c1cccc(-n2c(C)c/c(=C/c3c([O-])[n-]c(=O)[n-]c3=O)c2=C)c1 (cis-trans isomerization)
C=CC(=O)[N-]c1cccc(-n2c(C)c/c(=C/c3c([O-])[n-]c(=O)[n-]c3=O)c2=C)c1 (3D coordinates assigned)
C=CC(=O)[N-]c1cccc(-n2c(C)c/c(=C/c3c([O-])[n-]c(=O)[n-]c3=O)c2=C)c1 (optimized conformer: 96.27633362971626 kcal/mol)

>  <smiles>  (48) 
C=CC(=O)Nc1cccc(-n2c(C)cc(=Cc3c(O)[nH]c(=O)[nH]c3=O)c2=C)c1

>  <score_type>  (48) 
oracle

>  <origin>  (48) 
adg

>  <m_score__min__energy>  (48) 
-16.690000000000001

>  <m_primary>  (48) 
energy

$$$$
48:0
     RDKit          3D

 23 23  0  0  0  0  0  0  0  0999 V2000
   56.8825   27.3675   44.7059 H   0  0  0  0  0  0  0  0  0  0  0  0
   57.0450   26.9440   45.7080 C   0  0  0  0  0  0  0  0  0  0  0  0
   55.9860   26.1180   46.3100 C   0  0  0  0  0  0  0  0  0  0  0  0
   56.2600   25.2150   47.1440 O   0  0  0  0  0  0  0  0  0  0  0  0
   54.6630   26.3400   45.9530 O   0  0  0  0  0  0  0  0  0  0  0  0
   58.1990   27.1980   46.3370 C   0  0  0  0  0  0  0  0  0  0  0  0
   58.8374   26.3505   46.6270 H   0  0  0  0  0  0  0  0  0  0  0  0
   58.6530   28.5670   46.6590 C   0  0  0  0  0  0  0  0  0  0  0  0
   59.8740   28.7500   46.9100 O   0  0  0  0  0  0  0  0  0  0  0  0
   57.7650   29.6940   46.7020 N   0  0  0  0  0  0  0  0  0  0  0  0
   57.8000   30.8310   45.8260 C   0  0  0  0  0  0  0  0  0  0  0  0
   58.5070   31.9630   46.2530 C   0  0  0  0  0  0  0  0  0  0  0  0
   58.9423   31.9847   47.2630 H   0  0  0  0  0  0  0  0  0  0  0  0
   58.6640   33.0640   45.4080 C   0  0  0  0  0  0  0  0  0  0  0  0
   59.6620   34.5840   45.9930 Br  0  0  0  0  0  0  0  0  0  0  0  0
   58.1030   33.0460   44.1310 C   0  0  0  0  0  0  0  0  0  0  0  0
   58.2448   33.9042   43.4576 H   0  0  0  0  0  0  0  0  0  0  0  0
   57.3620   31.9420   43.7050 C   0  0  0  0  0  0  0  0  0  0  0  0
   56.9193   31.9392   42.6980 H   0  0  0  0  0  0  0  0  0  0  0  0
   57.1760   30.8340   44.5500 C   0  0  0  0  0  0  0  0  0  0  0  0
   56.2810   29.7440   44.0970 C   0  0  0  0  0  0  0  0  0  0  0  0
   56.5320   29.1010   43.0440 O   0  0  0  0  0  0  0  0  0  0  0  0
   55.1790   29.3840   44.8630 O   0  0  0  0  0  0  0  0  0  0  0  0
  1  2  1  0
  2  3  1  0
  3  4  2  0
  3  5  1  0
  2  6  2  0
  6  7  1  0
  6  8  1  0
  8  9  2  0
  8 10  1  0
 10 11  1  0
 11 12  2  0
 12 13  1  0
 12 14  1  0
 14 15  1  0
 14 16  2  0
 16 17  1  0
 16 18  1  0
 18 19  1  0
 18 20  2  0
 20 21  1  0
 21 22  2  0
 21 23  1  0
 20 11  1  0
M  CHG  3   5  -1  10  -1  23  -1
M  END
>  <UniqueID>  (49) 
45

>  <SMILES>  (49) 
O=C([O-])/C=C/C(=O)[N-]c1cc(Br)ccc1C(=O)[O-]

>  <Energy>  (49) 
32.383301093125496

>  <Genealogy>  (49) 
O=C([O-])C=CC(=O)[N-]c1cc(Br)ccc1C(=O)[O-] (protonated)
O=C([O-])/C=C/C(=O)[N-]c1cc(Br)ccc1C(=O)[O-] (cis-trans isomerization)
O=C([O-])/C=C/C(=O)[N-]c1cc(Br)ccc1C(=O)[O-] (3D coordinates assigned)
O=C([O-])/C=C/C(=O)[N-]c1cc(Br)ccc1C(=O)[O-] (optimized conformer: 32.383301093125496 kcal/mol)

>  <smiles>  (49) 
O=C(O)C=CC(=O)Nc1cc(Br)ccc1C(=O)O

>  <score_type>  (49) 
oracle

>  <origin>  (49) 
adg

>  <m_score__min__energy>  (49) 
-12.92

>  <m_primary>  (49) 
energy

$$$$
49:0
     RDKit          3D

 52 54  0  0  0  0  0  0  0  0999 V2000
   54.7370   22.0810   46.3920 C   0  0  0  0  0  0  0  0  0  0  0  0
   54.3720   23.3410   45.1910 S   0  0  0  0  0  0  0  0  0  0  0  0
   52.9030   23.3140   44.8800 O   0  0  0  0  0  0  0  0  0  0  0  0
   55.1670   23.0730   43.9440 O   0  0  0  0  0  0  0  0  0  0  0  0
   54.8090   24.8850   45.8450 N   0  0  0  0  0  0  0  0  0  0  0  0
   56.1510   25.3490   46.0360 C   0  0  0  0  0  0  0  0  0  0  0  0
   56.3580   26.7060   46.3120 C   0  0  0  0  0  0  0  0  0  0  0  0
   57.6510   27.2010   46.5080 C   0  0  0  0  0  0  0  0  0  0  0  0
   58.7560   26.3410   46.4400 C   0  0  0  0  0  0  0  0  0  0  0  0
   60.1500   26.8780   46.6150 C   0  0  0  0  0  0  0  0  0  0  0  0
   60.2240   28.2840   46.1160 C   0  0  0  0  0  0  0  0  0  0  0  0
   60.6960   29.1850   46.8620 O   0  0  0  0  0  0  0  0  0  0  0  0
   59.6690   28.5960   44.8690 O   0  0  0  0  0  0  0  0  0  0  0  0
   58.6870   29.5690   44.6360 C   0  0  0  0  0  0  0  0  0  0  0  0
   57.4950   29.1770   44.0140 C   0  0  0  0  0  0  0  0  0  0  0  0
   56.4940   30.1130   43.7470 C   0  0  0  0  0  0  0  0  0  0  0  0
   56.6770   31.4540   44.0920 C   0  0  0  0  0  0  0  0  0  0  0  0
   57.8690   31.8660   44.7030 C   0  0  0  0  0  0  0  0  0  0  0  0
   58.1370   33.5590   45.1080 S   0  0  0  0  0  0  0  0  0  0  0  0
   56.8340   34.2970   44.9690 O   0  0  0  0  0  0  0  0  0  0  0  0
   59.1370   34.1650   44.1610 O   0  0  0  0  0  0  0  0  0  0  0  0
   58.7160   33.6860   46.7480 N   0  0  0  0  0  0  0  0  0  0  0  0
   60.1880   33.6310   46.7720 C   0  0  0  0  0  0  0  0  0  0  0  0
   60.7130   33.7200   48.2240 C   0  0  0  0  0  0  0  0  0  0  0  0
   59.6740   33.6160   49.1840 O   0  0  0  0  0  0  0  0  0  0  0  0
   58.8930   32.4690   48.9190 C   0  0  0  0  0  0  0  0  0  0  0  0
   58.1370   32.6140   47.5820 C   0  0  0  0  0  0  0  0  0  0  0  0
   58.8750   30.9260   44.9650 C   0  0  0  0  0  0  0  0  0  0  0  0
   58.5530   24.9820   46.1490 C   0  0  0  0  0  0  0  0  0  0  0  0
   57.2600   24.4890   45.9520 C   0  0  0  0  0  0  0  0  0  0  0  0
   54.6174   22.4939   47.4045 H   0  0  0  0  0  0  0  0  0  0  0  0
   54.0470   21.2350   46.2571 H   0  0  0  0  0  0  0  0  0  0  0  0
   55.7724   21.7348   46.2571 H   0  0  0  0  0  0  0  0  0  0  0  0
   55.4971   27.3878   46.3751 H   0  0  0  0  0  0  0  0  0  0  0  0
   57.8018   28.2705   46.7166 H   0  0  0  0  0  0  0  0  0  0  0  0
   60.4173   26.8559   47.6818 H   0  0  0  0  0  0  0  0  0  0  0  0
   60.8511   26.2545   46.0409 H   0  0  0  0  0  0  0  0  0  0  0  0
   57.3463   28.1238   43.7337 H   0  0  0  0  0  0  0  0  0  0  0  0
   55.5589   29.7935   43.2637 H   0  0  0  0  0  0  0  0  0  0  0  0
   55.8844   32.1878   43.8838 H   0  0  0  0  0  0  0  0  0  0  0  0
   58.4060   34.6150   47.1190 H   0  0  0  0  0  0  0  0  0  0  0  0
   60.5216   32.6831   46.3245 H   0  0  0  0  0  0  0  0  0  0  0  0
   60.5838   34.4826   46.1992 H   0  0  0  0  0  0  0  0  0  0  0  0
   61.4304   32.9029   48.3905 H   0  0  0  0  0  0  0  0  0  0  0  0
   61.1863   34.7051   48.3488 H   0  0  0  0  0  0  0  0  0  0  0  0
   59.5514   31.5893   48.8668 H   0  0  0  0  0  0  0  0  0  0  0  0
   58.1568   32.3508   49.7277 H   0  0  0  0  0  0  0  0  0  0  0  0
   58.1955   31.6626   47.0330 H   0  0  0  0  0  0  0  0  0  0  0  0
   57.0913   32.8743   47.8026 H   0  0  0  0  0  0  0  0  0  0  0  0
   59.8175   31.2498   45.4306 H   0  0  0  0  0  0  0  0  0  0  0  0
   59.4152   24.3028   46.0758 H   0  0  0  0  0  0  0  0  0  0  0  0
   57.1093   23.4222   45.7300 H   0  0  0  0  0  0  0  0  0  0  0  0
  1  2  1  0
  2  3  2  0
  2  4  2  0
  2  5  1  0
  5  6  1  0
  6  7  2  0
  7  8  1  0
  8  9  2  0
  9 10  1  0
 10 11  1  0
 11 12  2  0
 11 13  1  0
 13 14  1  0
 14 15  2  0
 15 16  1  0
 16 17  2  0
 17 18  1  0
 18 19  1  0
 19 20  2  0
 19 21  2  0
 19 22  1  0
 22 23  1  0
 23 24  1  0
 24 25  1  0
 25 26  1  0
 26 27  1  0
 18 28  2  0
  9 29  1  0
 29 30  2  0
 30  6  1  0
 28 14  1  0
 27 22  1  0
  1 31  1  0
  1 32  1  0
  1 33  1  0
  7 34  1  0
  8 35  1  0
 10 36  1  0
 10 37  1  0
 15 38  1  0
 16 39  1  0
 17 40  1  0
 22 41  1  0
 23 42  1  0
 23 43  1  0
 24 44  1  0
 24 45  1  0
 26 46  1  0
 26 47  1  0
 27 48  1  0
 27 49  1  0
 28 50  1  0
 29 51  1  0
 30 52  1  0
M  CHG  2   5  -1  22   1
M  END
>  <UniqueID>  (50) 
46

>  <SMILES>  (50) 
CS(=O)(=O)[N-]c1ccc(CC(=O)Oc2cccc(S(=O)(=O)[NH+]3CCOCC3)c2)cc1

>  <Energy>  (50) 
61.44689850809882

>  <Genealogy>  (50) 
CS(=O)(=O)[N-]c1ccc(CC(=O)Oc2cccc(S(=O)(=O)[NH+]3CCOCC3)c2)cc1 (protonated)
CS(=O)(=O)[N-]c1ccc(CC(=O)Oc2cccc(S(=O)(=O)[NH+]3CCOCC3)c2)cc1 (3D coordinates assigned)
CS(=O)(=O)[N-]c1ccc(CC(=O)Oc2cccc(S(=O)(=O)[NH+]3CCOCC3)c2)cc1 (nonaromatic ring conformer: 61.44689850809882 kcal/mol)

>  <smiles>  (50) 
CS(=O)(=O)Nc1ccc(CC(=O)Oc2cccc(S(=O)(=O)N3CCOCC3)c2)cc1

>  <score_type>  (50) 
oracle

>  <origin>  (50) 
adg

>  <m_score__min__energy>  (50) 
-10.15

>  <m_primary>  (50) 
energy

$$$$
50:0
     RDKit          3D

 53 56  0  0  0  0  0  0  0  0999 V2000
   57.0980   32.0608   46.2264 H   0  0  0  0  0  0  0  0  0  0  0  0
   57.9700   31.4910   45.8730 C   0  0  0  0  0  0  0  0  0  0  0  0
   57.7460   30.3760   45.1570 C   0  0  0  0  0  0  0  0  0  0  0  0
   59.0460   29.2260   44.6980 S   0  0  0  0  0  0  0  0  0  0  0  0
   58.2970   27.8540   45.5850 C   0  0  0  0  0  0  0  0  0  0  0  0
   59.1130   26.9720   46.3000 C   0  0  0  0  0  0  0  0  0  0  0  0
   60.1838   27.1920   46.4219 H   0  0  0  0  0  0  0  0  0  0  0  0
   58.5720   25.8120   46.8600 C   0  0  0  0  0  0  0  0  0  0  0  0
   59.2204   25.1187   47.4158 H   0  0  0  0  0  0  0  0  0  0  0  0
   57.2060   25.5270   46.7170 C   0  0  0  0  0  0  0  0  0  0  0  0
   56.6360   24.2850   47.2750 C   0  0  0  0  0  0  0  0  0  0  0  0
   57.4080   23.4380   47.7970 O   0  0  0  0  0  0  0  0  0  0  0  0
   55.2330   23.9980   47.2230 N   0  0  0  0  0  0  0  0  0  0  0  0
   54.4890   23.7180   45.9990 C   0  0  0  0  0  0  0  0  0  0  0  0
   53.6450   23.0503   46.2267 H   0  0  0  0  0  0  0  0  0  0  0  0
   54.1062   24.6591   45.5773 H   0  0  0  0  0  0  0  0  0  0  0  0
   55.3990   23.0550   45.0050 C   0  0  0  0  0  0  0  0  0  0  0  0
   55.9030   21.7700   45.2630 C   0  0  0  0  0  0  0  0  0  0  0  0
   55.6461   21.2591   46.2026 H   0  0  0  0  0  0  0  0  0  0  0  0
   56.7310   21.1370   44.3290 C   0  0  0  0  0  0  0  0  0  0  0  0
   57.1294   20.1334   44.5388 H   0  0  0  0  0  0  0  0  0  0  0  0
   57.0520   21.7790   43.1300 C   0  0  0  0  0  0  0  0  0  0  0  0
   57.6999   21.2785   42.3953 H   0  0  0  0  0  0  0  0  0  0  0  0
   56.5510   23.0560   42.8630 C   0  0  0  0  0  0  0  0  0  0  0  0
   56.8078   23.5609   41.9201 H   0  0  0  0  0  0  0  0  0  0  0  0
   55.7230   23.6930   43.7940 C   0  0  0  0  0  0  0  0  0  0  0  0
   55.3244   24.6953   43.5783 H   0  0  0  0  0  0  0  0  0  0  0  0
   56.3850   26.4160   46.0050 C   0  0  0  0  0  0  0  0  0  0  0  0
   55.3173   26.1871   45.8723 H   0  0  0  0  0  0  0  0  0  0  0  0
   56.9170   27.5920   45.4630 C   0  0  0  0  0  0  0  0  0  0  0  0
   56.0280   28.5700   44.9040 N   0  0  0  0  0  0  0  0  0  0  0  0
   56.3780   29.9560   44.8180 C   0  0  0  0  0  0  0  0  0  0  0  0
   55.5060   30.8030   44.4930 O   0  0  0  0  0  0  0  0  0  0  0  0
   59.3140   31.9990   46.2150 C   0  0  0  0  0  0  0  0  0  0  0  0
   60.2450   31.1310   46.7990 C   0  0  0  0  0  0  0  0  0  0  0  0
   59.9740   30.0802   46.9790 H   0  0  0  0  0  0  0  0  0  0  0  0
   61.5170   31.5910   47.1550 C   0  0  0  0  0  0  0  0  0  0  0  0
   62.2455   30.8950   47.5964 H   0  0  0  0  0  0  0  0  0  0  0  0
   61.8710   32.9350   46.9530 C   0  0  0  0  0  0  0  0  0  0  0  0
   63.2190   33.4180   47.3290 C   0  0  0  0  0  0  0  0  0  0  0  0
   63.7730   34.3360   46.6630 O   0  0  0  0  0  0  0  0  0  0  0  0
   63.8750   32.8560   48.4330 O   0  0  0  0  0  0  0  0  0  0  0  0
   63.9360   33.4800   49.7150 C   0  0  0  0  0  0  0  0  0  0  0  0
   64.7969   34.1642   49.7430 H   0  0  0  0  0  0  0  0  0  0  0  0
   64.0433   32.7000   50.4832 H   0  0  0  0  0  0  0  0  0  0  0  0
   62.6600   34.2690   49.9920 C   0  0  0  0  0  0  0  0  0  0  0  0
   62.5135   34.3596   51.0784 H   0  0  0  0  0  0  0  0  0  0  0  0
   62.7456   35.2721   49.5486 H   0  0  0  0  0  0  0  0  0  0  0  0
   61.8009   33.7442   49.5486 H   0  0  0  0  0  0  0  0  0  0  0  0
   60.9240   33.8120   46.3960 C   0  0  0  0  0  0  0  0  0  0  0  0
   61.1845   34.8694   46.2407 H   0  0  0  0  0  0  0  0  0  0  0  0
   59.6540   33.3510   46.0380 C   0  0  0  0  0  0  0  0  0  0  0  0
   58.9170   34.0499   45.6156 H   0  0  0  0  0  0  0  0  0  0  0  0
  1  2  1  0
  2  3  2  0
  3  4  1  0
  4  5  1  0
  5  6  2  0
  6  7  1  0
  6  8  1  0
  8  9  1  0
  8 10  2  0
 10 11  1  0
 11 12  2  0
 11 13  1  0
 13 14  1  0
 14 15  1  0
 14 16  1  0
 14 17  1  0
 17 18  2  0
 18 19  1  0
 18 20  1  0
 20 21  1  0
 20 22  2  0
 22 23  1  0
 22 24  1  0
 24 25  1  0
 24 26  2  0
 26 27  1  0
 10 28  1  0
 28 29  1  0
 28 30  2  0
 30 31  1  0
 31 32  1  0
 32 33  2  0
  2 34  1  0
 34 35  2  0
 35 36  1  0
 35 37  1  0
 37 38  1  0
 37 39  2  0
 39 40  1  0
 40 41  2  0
 40 42  1  0
 42 43  1  0
 43 44  1  0
 43 45  1  0
 43 46  1  0
 46 47  1  0
 46 48  1  0
 46 49  1  0
 39 50  1  0
 50 51  1  0
 50 52  2  0
 52 53  1  0
 32  3  1  0
 52 34  1  0
 30  5  1  0
 26 17  1  0
M  CHG  2  13  -1  31  -1
M  END
>  <UniqueID>  (51) 
47

>  <SMILES>  (51) 
CCOC(=O)c1ccc(/C=C2\Sc3ccc(C(=O)[N-]Cc4ccccc4)cc3[N-]C2=O)cc1

>  <Energy>  (51) 
74.76809469742471

>  <Genealogy>  (51) 
CCOC(=O)c1ccc(C=C2Sc3ccc(C(=O)[N-]Cc4ccccc4)cc3[N-]C2=O)cc1 (protonated)
CCOC(=O)c1ccc(/C=C2\Sc3ccc(C(=O)[N-]Cc4ccccc4)cc3[N-]C2=O)cc1 (cis-trans isomerization)
CCOC(=O)c1ccc(/C=C2\Sc3ccc(C(=O)[N-]Cc4ccccc4)cc3[N-]C2=O)cc1 (3D coordinates assigned)
CCOC(=O)c1ccc(/C=C2\Sc3ccc(C(=O)[N-]Cc4ccccc4)cc3[N-]C2=O)cc1 (nonaromatic ring conformer: 74.76809469742471 kcal/mol)

>  <smiles>  (51) 
CCOC(=O)c1ccc(C=C2Sc3ccc(C(=O)NCc4ccccc4)cc3NC2=O)cc1

>  <score_type>  (51) 
oracle

>  <origin>  (51) 
adg

>  <m_score__min__energy>  (51) 
-13.039999999999999

>  <m_primary>  (51) 
energy

$$$$
51:0
     RDKit          3D

 55 57  0  0  0  0  0  0  0  0999 V2000
   63.5110   34.1970   47.3400 O   0  0  0  0  0  0  0  0  0  0  0  0
   63.3200   33.5780   48.4210 C   0  0  0  0  0  0  0  0  0  0  0  0
   64.0770   32.3180   48.6970 C   0  0  0  0  0  0  0  0  0  0  0  0
   63.5620   31.6780   49.8340 O   0  0  0  0  0  0  0  0  0  0  0  0
   62.4200   34.0980   49.4060 N   0  0  0  0  0  0  0  0  0  0  0  0
   60.9850   34.2300   49.1910 C   0  0  0  0  0  0  0  0  0  0  0  0
   60.2390   33.3500   50.1430 C   0  0  0  0  0  0  0  0  0  0  0  0
   59.2700   33.8190   50.7990 O   0  0  0  0  0  0  0  0  0  0  0  0
   60.5910   31.9980   50.2430 O   0  0  0  0  0  0  0  0  0  0  0  0
   60.6610   31.0980   49.1710 C   0  0  0  0  0  0  0  0  0  0  0  0
   60.8340   31.5240   47.8400 C   0  0  0  0  0  0  0  0  0  0  0  0
   60.8730   30.5900   46.8030 C   0  0  0  0  0  0  0  0  0  0  0  0
   60.7310   29.2280   47.0790 C   0  0  0  0  0  0  0  0  0  0  0  0
   60.5520   28.7890   48.4000 C   0  0  0  0  0  0  0  0  0  0  0  0
   60.4200   27.3210   48.7090 C   0  0  0  0  0  0  0  0  0  0  0  0
   59.3410   26.7200   47.9290 N   0  0  0  0  0  0  0  0  0  0  0  0
   59.2240   26.7250   46.4990 C   0  0  0  0  0  0  0  0  0  0  0  0
   59.9600   25.9530   45.8310 O   0  0  0  0  0  0  0  0  0  0  0  0
   58.3010   27.6210   45.7830 C   0  0  0  0  0  0  0  0  0  0  0  0
   56.9210   27.5760   45.8550 C   0  0  0  0  0  0  0  0  0  0  0  0
   56.4760   28.6310   45.0880 C   0  0  0  0  0  0  0  0  0  0  0  0
   55.1400   28.9680   44.8930 O   0  0  0  0  0  0  0  0  0  0  0  0
   57.5100   29.3160   44.5620 N   0  0  0  0  0  0  0  0  0  0  0  0
   57.4420   30.5360   43.7580 C   0  0  0  0  0  0  0  0  0  0  0  0
   56.6620   31.6340   44.4860 C   0  0  0  0  0  0  0  0  0  0  0  0
   57.5850   32.6240   45.1480 C   0  0  0  0  0  0  0  0  0  0  0  0
   57.5810   32.7750   46.5460 C   0  0  0  0  0  0  0  0  0  0  0  0
   58.4150   33.7180   47.1540 C   0  0  0  0  0  0  0  0  0  0  0  0
   59.2540   34.5200   46.3730 C   0  0  0  0  0  0  0  0  0  0  0  0
   59.2580   34.3820   44.9820 C   0  0  0  0  0  0  0  0  0  0  0  0
   58.4240   33.4410   44.3700 C   0  0  0  0  0  0  0  0  0  0  0  0
   58.6350   28.7140   44.9980 C   0  0  0  0  0  0  0  0  0  0  0  0
   60.5070   29.7320   49.4390 C   0  0  0  0  0  0  0  0  0  0  0  0
   63.9892   31.6452   47.8312 H   0  0  0  0  0  0  0  0  0  0  0  0
   65.1333   32.5678   48.8755 H   0  0  0  0  0  0  0  0  0  0  0  0
   62.7240   32.1550   50.0710 H   0  0  0  0  0  0  0  0  0  0  0  0
   60.6876   35.2764   49.3538 H   0  0  0  0  0  0  0  0  0  0  0  0
   60.7464   33.9288   48.1603 H   0  0  0  0  0  0  0  0  0  0  0  0
   60.9387   32.5960   47.6166 H   0  0  0  0  0  0  0  0  0  0  0  0
   61.0159   30.9275   45.7659 H   0  0  0  0  0  0  0  0  0  0  0  0
   60.7596   28.4967   46.2578 H   0  0  0  0  0  0  0  0  0  0  0  0
   61.3658   26.8150   48.4653 H   0  0  0  0  0  0  0  0  0  0  0  0
   60.1876   27.2060   49.7780 H   0  0  0  0  0  0  0  0  0  0  0  0
   56.3070   26.8503   46.4084 H   0  0  0  0  0  0  0  0  0  0  0  0
   58.4635   30.8926   43.5594 H   0  0  0  0  0  0  0  0  0  0  0  0
   56.9228   30.3049   42.8162 H   0  0  0  0  0  0  0  0  0  0  0  0
   56.0307   32.1655   43.7587 H   0  0  0  0  0  0  0  0  0  0  0  0
   56.0484   31.1604   45.2665 H   0  0  0  0  0  0  0  0  0  0  0  0
   56.9196   32.1492   47.1632 H   0  0  0  0  0  0  0  0  0  0  0  0
   58.4115   33.8295   48.2483 H   0  0  0  0  0  0  0  0  0  0  0  0
   59.9110   35.2597   46.8538 H   0  0  0  0  0  0  0  0  0  0  0  0
   59.9173   35.0137   44.3686 H   0  0  0  0  0  0  0  0  0  0  0  0
   58.4244   33.3395   43.2747 H   0  0  0  0  0  0  0  0  0  0  0  0
   59.6598   29.0398   44.7666 H   0  0  0  0  0  0  0  0  0  0  0  0
   60.3492   29.3946   50.4740 H   0  0  0  0  0  0  0  0  0  0  0  0
  1  2  2  0
  2  3  1  0
  3  4  1  0
  2  5  1  0
  5  6  1  0
  6  7  1  0
  7  8  2  0
  7  9  1  0
  9 10  1  0
 10 11  2  0
 11 12  1  0
 12 13  2  0
 13 14  1  0
 14 15  1  0
 15 16  1  0
 16 17  1  0
 17 18  2  0
 17 19  1  0
 19 20  1  0
 20 21  2  0
 21 22  1  0
 21 23  1  0
 23 24  1  0
 24 25  1  0
 25 26  1  0
 26 27  2  0
 27 28  1  0
 28 29  2  0
 29 30  1  0
 30 31  2  0
 23 32  1  0
 14 33  2  0
 33 10  1  0
 32 19  2  0
 31 26  1  0
  3 34  1  0
  3 35  1  0
  4 36  1  0
  6 37  1  0
  6 38  1  0
 11 39  1  0
 12 40  1  0
 13 41  1  0
 15 42  1  0
 15 43  1  0
 20 44  1  0
 24 45  1  0
 24 46  1  0
 25 47  1  0
 25 48  1  0
 27 49  1  0
 28 50  1  0
 29 51  1  0
 30 52  1  0
 31 53  1  0
 32 54  1  0
 33 55  1  0
M  CHG  3   5  -1  16  -1  22  -1
M  END
>  <UniqueID>  (52) 
48

>  <SMILES>  (52) 
O=C(CO)[N-]CC(=O)Oc1cccc(C[N-]C(=O)c2cc([O-])n(CCc3ccccc3)c2)c1

>  <Energy>  (52) 
80.49410559917945

>  <Genealogy>  (52) 
O=C(CO)[N-]CC(=O)Oc1cccc(C[N-]C(=O)c2cc([O-])n(CCc3ccccc3)c2)c1 (protonated)
O=C(CO)[N-]CC(=O)Oc1cccc(C[N-]C(=O)c2cc([O-])n(CCc3ccccc3)c2)c1 (3D coordinates assigned)
O=C(CO)[N-]CC(=O)Oc1cccc(C[N-]C(=O)c2cc([O-])n(CCc3ccccc3)c2)c1 (optimized conformer: 80.49410559917945 kcal/mol)

>  <smiles>  (52) 
O=C(CO)NCC(=O)Oc1cccc(CNC(=O)c2cc(O)n(CCc3ccccc3)c2)c1

>  <score_type>  (52) 
oracle

>  <origin>  (52) 
adg

>  <m_score__min__energy>  (52) 
-14.16

>  <m_primary>  (52) 
energy

$$$$
52:0
     RDKit          3D

 38 40  0  0  0  0  0  0  0  0999 V2000
   58.8730   25.9260   47.6640 O   0  0  0  0  0  0  0  0  0  0  0  0
   57.9020   25.9220   46.8580 C   0  0  0  0  0  0  0  0  0  0  0  0
   57.1070   24.7410   46.6880 N   0  0  0  0  0  0  0  0  0  0  0  0
   57.3430   23.6780   45.7520 C   0  0  0  0  0  0  0  0  0  0  0  0
   58.6440   23.2160   45.4720 C   0  0  0  0  0  0  0  0  0  0  0  0
   58.8450   22.1950   44.5380 C   0  0  0  0  0  0  0  0  0  0  0  0
   57.7560   21.6360   43.8660 C   0  0  0  0  0  0  0  0  0  0  0  0
   56.4650   22.1050   44.1180 C   0  0  0  0  0  0  0  0  0  0  0  0
   56.2550   23.1280   45.0500 C   0  0  0  0  0  0  0  0  0  0  0  0
   54.6170   23.6980   45.3410 Cl  0  0  0  0  0  0  0  0  0  0  0  0
   57.5200   27.1710   46.1640 C   0  0  0  0  0  0  0  0  0  0  0  0
   56.1840   27.4370   45.8080 C   0  0  0  0  0  0  0  0  0  0  0  0
   55.1610   26.5060   45.9920 O   0  0  0  0  0  0  0  0  0  0  0  0
   55.8720   28.6230   45.2340 N   0  0  0  0  0  0  0  0  0  0  0  0
   56.8120   29.5630   44.9650 C   0  0  0  0  0  0  0  0  0  0  0  0
   56.4520   30.6440   44.4280 O   0  0  0  0  0  0  0  0  0  0  0  0
   58.1290   29.3330   45.2700 N   0  0  0  0  0  0  0  0  0  0  0  0
   59.1560   30.3390   44.9300 C   0  0  0  0  0  0  0  0  0  0  0  0
   58.8120   31.6720   45.5470 C   0  0  0  0  0  0  0  0  0  0  0  0
   58.5100   32.7750   44.7300 C   0  0  0  0  0  0  0  0  0  0  0  0
   58.2280   34.0200   45.3020 C   0  0  0  0  0  0  0  0  0  0  0  0
   58.2460   34.1720   46.6910 C   0  0  0  0  0  0  0  0  0  0  0  0
   58.5480   33.0810   47.5100 C   0  0  0  0  0  0  0  0  0  0  0  0
   58.8310   31.8350   46.9420 C   0  0  0  0  0  0  0  0  0  0  0  0
   58.4890   28.1490   45.8670 C   0  0  0  0  0  0  0  0  0  0  0  0
   59.6970   27.9370   46.1730 O   0  0  0  0  0  0  0  0  0  0  0  0
   59.5061   23.6607   45.9907 H   0  0  0  0  0  0  0  0  0  0  0  0
   59.8626   21.8315   44.3323 H   0  0  0  0  0  0  0  0  0  0  0  0
   57.9150   20.8265   43.1384 H   0  0  0  0  0  0  0  0  0  0  0  0
   55.6094   21.6686   43.5818 H   0  0  0  0  0  0  0  0  0  0  0  0
   55.1480   25.8370   46.7500 H   0  0  0  0  0  0  0  0  0  0  0  0
   60.1317   30.0040   45.3118 H   0  0  0  0  0  0  0  0  0  0  0  0
   59.1961   30.4520   43.8366 H   0  0  0  0  0  0  0  0  0  0  0  0
   58.4953   32.6588   43.6363 H   0  0  0  0  0  0  0  0  0  0  0  0
   57.9919   34.8800   44.6580 H   0  0  0  0  0  0  0  0  0  0  0  0
   58.0223   35.1510   47.1398 H   0  0  0  0  0  0  0  0  0  0  0  0
   58.5632   33.2025   48.6032 H   0  0  0  0  0  0  0  0  0  0  0  0
   59.0695   30.9789   47.5903 H   0  0  0  0  0  0  0  0  0  0  0  0
  1  2  2  0
  2  3  1  0
  3  4  1  0
  4  5  2  0
  5  6  1  0
  6  7  2  0
  7  8  1  0
  8  9  2  0
  9 10  1  0
  2 11  1  0
 11 12  2  0
 12 13  1  0
 12 14  1  0
 14 15  1  0
 15 16  2  0
 15 17  1  0
 17 18  1  0
 18 19  1  0
 19 20  2  0
 20 21  1  0
 21 22  2  0
 22 23  1  0
 23 24  2  0
 17 25  1  0
 25 26  2  0
  9  4  1  0
 25 11  1  0
 24 19  1  0
  5 27  1  0
  6 28  1  0
  7 29  1  0
  8 30  1  0
 13 31  1  0
 18 32  1  0
 18 33  1  0
 20 34  1  0
 21 35  1  0
 22 36  1  0
 23 37  1  0
 24 38  1  0
M  CHG  2   3  -1  14  -1
M  END
>  <UniqueID>  (53) 
49

>  <SMILES>  (53) 
O=C([N-]c1ccccc1Cl)c1c(O)[n-]c(=O)n(Cc2ccccc2)c1=O

>  <Energy>  (53) 
55.94607727249403

>  <Genealogy>  (53) 
O=C([N-]c1ccccc1Cl)c1c(O)[n-]c(=O)n(Cc2ccccc2)c1=O (protonated)
O=C([N-]c1ccccc1Cl)c1c(O)[n-]c(=O)n(Cc2ccccc2)c1=O (3D coordinates assigned)
O=C([N-]c1ccccc1Cl)c1c(O)[n-]c(=O)n(Cc2ccccc2)c1=O (optimized conformer: 55.94607727249403 kcal/mol)

>  <smiles>  (53) 
O=C(Nc1ccccc1Cl)c1c(O)[nH]c(=O)n(Cc2ccccc2)c1=O

>  <score_type>  (53) 
oracle

>  <origin>  (53) 
adg

>  <m_score__min__energy>  (53) 
-11.52

>  <m_primary>  (53) 
energy

$$$$
53:0
     RDKit          3D

 28 29  0  0  0  0  0  0  0  0999 V2000
   62.8440   33.8420   46.0420 C   0  0  0  0  0  0  0  0  0  0  0  0
   62.8310   33.3820   47.2950 C   0  0  0  0  0  0  0  0  0  0  0  0
   63.9480   32.7100   47.8720 N   0  0  0  0  0  0  0  0  0  0  0  0
   63.6810   32.6860   49.2750 C   0  0  0  0  0  0  0  0  0  0  0  0
   64.4800   32.1790   50.1630 N   0  0  0  0  0  0  0  0  0  0  0  0
   65.8660   32.3940   50.1510 C   0  0  0  0  0  0  0  0  0  0  0  0
   67.0110   32.5700   50.1410 N   0  0  0  0  0  0  0  0  0  0  0  0
   62.4370   33.2850   49.6170 N   0  0  0  0  0  0  0  0  0  0  0  0
   61.8640   33.6780   48.3730 C   0  0  0  0  0  0  0  0  0  0  0  0
   60.6460   34.1420   48.2830 N   0  0  0  0  0  0  0  0  0  0  0  0
   59.7940   34.0160   47.1360 C   0  0  0  0  0  0  0  0  0  0  0  0
   59.7620   35.0180   46.1540 C   0  0  0  0  0  0  0  0  0  0  0  0
   58.9660   34.8620   45.0190 C   0  0  0  0  0  0  0  0  0  0  0  0
   58.2150   33.6970   44.8420 C   0  0  0  0  0  0  0  0  0  0  0  0
   58.2590   32.6680   45.8010 C   0  0  0  0  0  0  0  0  0  0  0  0
   57.4970   31.4610   45.6180 N   0  0  0  0  0  0  0  0  0  0  0  0
   56.5610   31.4180   44.7930 O   0  0  0  0  0  0  0  0  0  0  0  0
   57.7870   30.3320   46.3500 O   0  0  0  0  0  0  0  0  0  0  0  0
   59.0650   32.8350   46.9430 C   0  0  0  0  0  0  0  0  0  0  0  0
   61.9601   34.3552   45.6353 H   0  0  0  0  0  0  0  0  0  0  0  0
   63.7386   33.7079   45.4161 H   0  0  0  0  0  0  0  0  0  0  0  0
   64.8270   32.4240   47.3860 H   0  0  0  0  0  0  0  0  0  0  0  0
   61.9970   33.3310   50.5630 H   0  0  0  0  0  0  0  0  0  0  0  0
   60.2290   34.5950   49.1260 H   0  0  0  0  0  0  0  0  0  0  0  0
   60.3661   35.9287   46.2795 H   0  0  0  0  0  0  0  0  0  0  0  0
   58.9294   35.6584   44.2612 H   0  0  0  0  0  0  0  0  0  0  0  0
   57.5853   33.5835   43.9472 H   0  0  0  0  0  0  0  0  0  0  0  0
   59.1231   32.0306   47.6911 H   0  0  0  0  0  0  0  0  0  0  0  0
  1  2  2  0
  2  3  1  0
  3  4  1  0
  4  5  2  3
  5  6  1  0
  6  7  3  0
  4  8  1  0
  8  9  1  0
  9 10  2  3
 10 11  1  0
 11 12  2  0
 12 13  1  0
 13 14  2  0
 14 15  1  0
 15 16  1  0
 16 17  2  0
 16 18  1  0
 15 19  2  0
  9  2  1  0
 19 11  1  0
  1 20  1  0
  1 21  1  0
  3 22  1  0
  8 23  1  0
 10 24  1  0
 12 25  1  0
 13 26  1  0
 14 27  1  0
 19 28  1  0
M  CHG  3  10   1  16   1  18  -1
M  END
>  <UniqueID>  (54) 
50

>  <SMILES>  (54) 
C=C1NC(=NC#N)NC1=[NH+]c1cccc([N+](=O)[O-])c1

>  <Energy>  (54) 
66.60435323791837

>  <Genealogy>  (54) 
C=C1NC(=NC#N)NC1=[NH+]c1cccc([N+](=O)[O-])c1 (protonated)
C=C1NC(=NC#N)NC1=[NH+]c1cccc([N+](=O)[O-])c1 (3D coordinates assigned)
C=C1NC(=NC#N)NC1=[NH+]c1cccc([N+](=O)[O-])c1 (nonaromatic ring conformer: 66.60435323791837 kcal/mol)

>  <smiles>  (54) 
C=C1NC(=NC#N)NC1=Nc1cccc([N+](=O)[O-])c1

>  <score_type>  (54) 
oracle

>  <origin>  (54) 
adg

>  <m_score__min__energy>  (54) 
-5.7999999999999998

>  <m_primary>  (54) 
energy

$$$$
54:0
     RDKit          3D

 42 44  0  0  1  0  0  0  0  0999 V2000
   56.8110   29.5390   42.6730 N   0  0  0  0  0  0  0  0  0  0  0  0
   56.5240   29.9970   44.3200 S   0  0  0  0  0  0  0  0  0  0  0  0
   56.7060   28.8410   45.2590 O   0  0  0  0  0  0  0  0  0  0  0  0
   55.0880   30.4380   44.4000 O   0  0  0  0  0  0  0  0  0  0  0  0
   57.5280   31.3660   44.7430 C   0  0  0  0  0  0  0  0  0  0  0  0
   57.8170   32.3780   43.8290 C   0  0  0  0  0  0  0  0  0  0  0  0
   58.6190   33.4630   44.1800 C   0  0  0  0  0  0  0  0  0  0  0  0
   59.1420   33.5370   45.4770 C   0  0  0  0  0  0  0  0  0  0  0  0
   58.8620   32.5270   46.4120 C   0  0  0  0  0  0  0  0  0  0  0  0
   59.3310   32.6020   47.7400 N   0  0  0  0  0  0  0  0  0  0  0  0
   60.1320   31.8350   48.3260 C   0  0  0  0  0  0  0  0  0  0  0  0
   59.9470   30.5230   48.3200 N   0  0  0  0  0  0  0  0  0  0  0  0
   60.8000   29.6820   48.9470 C   0  0  0  0  0  0  0  0  0  0  0  0
   60.5300   28.4270   48.8800 N   0  0  0  0  0  0  0  0  0  0  0  0
   59.8950   27.8790   47.7260 C   0  0  0  0  0  0  0  0  0  0  0  0
   60.4000   28.2800   46.5020 C   0  0  0  0  0  0  0  0  0  0  0  0
   59.8010   27.7610   45.3730 C   0  0  0  0  0  0  0  0  0  0  0  0
   58.7440   26.8790   45.4400 C   0  0  0  0  0  0  0  0  0  0  0  0
   58.1340   26.3510   44.2280 C   0  0  0  0  0  0  0  0  0  0  0  0
   57.9190   25.1150   44.0560 O   0  0  0  0  0  0  0  0  0  0  0  0
   57.7700   27.2290   43.2110 O   0  0  0  0  0  0  0  0  0  0  0  0
   58.2700   26.5040   46.6730 C   0  0  0  0  0  0  0  0  0  0  0  0
   58.8320   26.9920   47.8230 C   0  0  0  0  0  0  0  0  0  0  0  0
   61.8870   30.1450   49.6130 N   0  0  0  0  0  0  0  0  0  0  0  0
   62.0660   31.4790   49.6130 C   0  0  0  0  0  0  0  0  0  0  0  0
   61.2160   32.3570   48.9840 C   0  0  0  0  0  0  0  0  0  0  0  0
   61.6090   34.2110   49.0790 Br  0  0  0  0  0  0  0  0  0  0  0  0
   58.0520   31.4420   46.0390 C   0  0  0  0  0  0  0  0  0  0  0  0
   56.2750   28.6650   42.4890 H   0  0  0  0  0  0  0  0  0  0  0  0
   57.8310   29.3000   42.6170 H   0  0  0  0  0  0  0  0  0  0  0  0
   57.4043   32.3194   42.8111 H   0  0  0  0  0  0  0  0  0  0  0  0
   58.8386   34.2524   43.4461 H   0  0  0  0  0  0  0  0  0  0  0  0
   59.7747   34.3896   45.7647 H   0  0  0  0  0  0  0  0  0  0  0  0
   59.1070   30.1320   47.8080 H   0  0  0  0  0  0  0  0  0  0  0  0
   61.2433   28.9828   46.4321 H   0  0  0  0  0  0  0  0  0  0  0  0
   60.1800   28.0614   44.3850 H   0  0  0  0  0  0  0  0  0  0  0  0
   56.9610   27.8150   43.2990 H   0  0  0  0  0  0  0  0  0  0  0  0
   57.4263   25.8012   46.7382 H   0  0  0  0  0  0  0  0  0  0  0  0
   58.4472   26.6859   48.8070 H   0  0  0  0  0  0  0  0  0  0  0  0
   62.5220   29.4760   50.0830 H   0  0  0  0  0  0  0  0  0  0  0  0
   62.9382   31.8879   50.1442 H   0  0  0  0  0  0  0  0  0  0  0  0
   57.8285   30.6490   46.7678 H   0  0  0  0  0  0  0  0  0  0  0  0
  1  2  1  0
  2  3  2  0
  2  4  2  0
  2  5  1  0
  5  6  2  0
  6  7  1  0
  7  8  2  0
  8  9  1  0
  9 10  1  0
 10 11  2  0
 11 12  1  0
 12 13  1  0
 13 14  2  0
 14 15  1  0
 15 16  2  0
 16 17  1  0
 17 18  2  0
 18 19  1  0
 19 20  2  0
 19 21  1  0
 18 22  1  0
 22 23  2  0
 13 24  1  0
 24 25  1  0
 25 26  2  0
 26 27  1  0
  9 28  2  0
 28  5  1  0
 26 11  1  0
 23 15  1  0
  1 29  1  0
  1 30  1  0
  6 31  1  0
  7 32  1  0
  8 33  1  0
 12 34  1  0
 16 35  1  0
 17 36  1  0
 21 37  1  0
 22 38  1  0
 23 39  1  0
 24 40  1  0
 25 41  1  0
 28 42  1  0
M  END
>  <smiles>  (55) 
NS(=O)(=O)c1cccc(N=c2[nH]c(=Nc3ccc(C(=O)O)cc3)[nH]cc2Br)c1

>  <score_type>  (55) 
oracle

>  <origin>  (55) 
adg

>  <m_score__min__energy>  (55) 
-9.8300000000000001

>  <m_primary>  (55) 
energy

$$$$
55:0
     RDKit          3D

 47 50  0  0  0  0  0  0  0  0999 V2000
   54.2800   28.2680   53.4720 C   0  0  0  0  0  0  0  0  0  0  0  0
   54.5540   29.4400   52.8770 C   0  0  0  0  0  0  0  0  0  0  0  0
   53.6360   30.3450   52.3180 C   0  0  0  0  0  0  0  0  0  0  0  0
   52.3170   30.2280   52.0660 C   0  0  0  0  0  0  0  0  0  0  0  0
   51.6240   30.7280   50.8670 C   0  0  0  0  0  0  0  0  0  0  0  0
   51.5630   30.0770   49.6910 N   0  0  0  0  0  0  0  0  0  0  0  0
   50.9670   30.9690   48.8710 C   0  0  0  0  0  0  0  0  0  0  0  0
   50.7150   30.7190   47.6640 O   0  0  0  0  0  0  0  0  0  0  0  0
   50.6730   32.1560   49.4440 N   0  0  0  0  0  0  0  0  0  0  0  0
   51.1090   31.9900   50.7030 C   0  0  0  0  0  0  0  0  0  0  0  0
   51.0430   32.9750   51.6810 O   0  0  0  0  0  0  0  0  0  0  0  0
   54.3580   31.4840   52.0010 C   0  0  0  0  0  0  0  0  0  0  0  0
   55.6760   31.2220   52.3160 C   0  0  0  0  0  0  0  0  0  0  0  0
   56.8110   32.1760   52.1020 C   0  0  0  0  0  0  0  0  0  0  0  0
   55.7980   29.9810   52.8350 N   0  0  0  0  0  0  0  0  0  0  0  0
   57.0210   29.4050   53.3250 C   0  0  0  0  0  0  0  0  0  0  0  0
   58.2110   29.5650   52.6040 C   0  0  0  0  0  0  0  0  0  0  0  0
   59.4040   29.0200   53.0870 C   0  0  0  0  0  0  0  0  0  0  0  0
   59.4280   28.3250   54.3020 C   0  0  0  0  0  0  0  0  0  0  0  0
   60.6480   27.7870   54.7400 O   0  0  0  0  0  0  0  0  0  0  0  0
   61.8740   27.9100   54.0750 C   0  0  0  0  0  0  0  0  0  0  0  0
   62.7380   28.7420   54.4630 O   0  0  0  0  0  0  0  0  0  0  0  0
   62.1260   27.0770   52.9380 N   0  0  0  0  0  0  0  0  0  0  0  0
   61.6900   25.7220   52.7540 C   0  0  0  0  0  0  0  0  0  0  0  0
   62.5960   24.6430   52.7220 C   0  0  0  0  0  0  0  0  0  0  0  0
   62.1290   23.3400   52.5180 C   0  0  0  0  0  0  0  0  0  0  0  0
   60.7650   23.1050   52.3300 C   0  0  0  0  0  0  0  0  0  0  0  0
   59.8650   24.1740   52.3370 C   0  0  0  0  0  0  0  0  0  0  0  0
   60.3270   25.4770   52.5400 C   0  0  0  0  0  0  0  0  0  0  0  0
   58.2280   28.1530   55.0180 C   0  0  0  0  0  0  0  0  0  0  0  0
   57.0340   28.6980   54.5350 C   0  0  0  0  0  0  0  0  0  0  0  0
   55.0974   27.6493   53.8709 H   0  0  0  0  0  0  0  0  0  0  0  0
   53.2381   27.9265   53.5606 H   0  0  0  0  0  0  0  0  0  0  0  0
   51.7050   29.7142   52.8220 H   0  0  0  0  0  0  0  0  0  0  0  0
   53.9578   32.4178   51.5793 H   0  0  0  0  0  0  0  0  0  0  0  0
   57.2022   32.5048   53.0761 H   0  0  0  0  0  0  0  0  0  0  0  0
   57.6100   31.6743   51.5364 H   0  0  0  0  0  0  0  0  0  0  0  0
   56.4542   33.0494   51.5364 H   0  0  0  0  0  0  0  0  0  0  0  0
   58.2067   30.1211   51.6549 H   0  0  0  0  0  0  0  0  0  0  0  0
   60.3316   29.1381   52.5077 H   0  0  0  0  0  0  0  0  0  0  0  0
   63.6722   24.8256   52.8576 H   0  0  0  0  0  0  0  0  0  0  0  0
   62.8376   22.4987   52.5056 H   0  0  0  0  0  0  0  0  0  0  0  0
   60.3994   22.0789   52.1765 H   0  0  0  0  0  0  0  0  0  0  0  0
   58.7916   23.9895   52.1825 H   0  0  0  0  0  0  0  0  0  0  0  0
   59.6159   26.3162   52.5318 H   0  0  0  0  0  0  0  0  0  0  0  0
   58.2296   27.5875   55.9615 H   0  0  0  0  0  0  0  0  0  0  0  0
   56.1026   28.5714   55.1064 H   0  0  0  0  0  0  0  0  0  0  0  0
  1  2  2  0
  2  3  1  0
  3  4  2  3
  4  5  1  0
  5  6  1  0
  6  7  1  0
  7  8  2  0
  7  9  1  0
  9 10  1  0
 10 11  1  0
  3 12  1  0
 12 13  2  0
 13 14  1  0
 13 15  1  0
 15 16  1  0
 16 17  2  0
 17 18  1  0
 18 19  2  0
 19 20  1  0
 20 21  1  0
 21 22  2  0
 21 23  1  0
 23 24  1  0
 24 25  2  0
 25 26  1  0
 26 27  2  0
 27 28  1  0
 28 29  2  0
 19 30  1  0
 30 31  2  0
 15  2  1  0
 31 16  1  0
 10  5  2  0
 29 24  1  0
  1 32  1  0
  1 33  1  0
  4 34  1  0
 12 35  1  0
 14 36  1  0
 14 37  1  0
 14 38  1  0
 17 39  1  0
 18 40  1  0
 25 41  1  0
 26 42  1  0
 27 43  1  0
 28 44  1  0
 29 45  1  0
 30 46  1  0
 31 47  1  0
M  CHG  4   6  -1   9  -1  11  -1  23  -1
M  END
>  <UniqueID>  (56) 
51

>  <SMILES>  (56) 
C=c1c(=Cc2[n-]c(=O)[n-]c2[O-])cc(C)n1-c1ccc(OC(=O)[N-]c2ccccc2)cc1

>  <Energy>  (56) 
134.8989796474467

>  <Genealogy>  (56) 
C=c1c(=Cc2[n-]c(=O)[n-]c2[O-])cc(C)n1-c1ccc(OC(=O)[N-]c2ccccc2)cc1 (protonated)
C=c1c(=Cc2[n-]c(=O)[n-]c2[O-])cc(C)n1-c1ccc(OC(=O)[N-]c2ccccc2)cc1 (3D coordinates assigned)
C=c1c(=Cc2[n-]c(=O)[n-]c2[O-])cc(C)n1-c1ccc(OC(=O)[N-]c2ccccc2)cc1 (optimized conformer: 134.8989796474467 kcal/mol)

>  <smiles>  (56) 
C=c1c(=Cc2[nH]c(=O)[nH]c2O)cc(C)n1-c1ccc(OC(=O)Nc2ccccc2)cc1

>  <score_type>  (56) 
oracle

>  <origin>  (56) 
adg

>  <m_score__min__energy>  (56) 
-16.690000000000001

>  <m_primary>  (56) 
energy

$$$$
56:0
     RDKit          3D

 60 63  0  0  0  0  0  0  0  0999 V2000
   62.7340   33.8730   50.6220 C   0  0  0  0  0  0  0  0  0  0  0  0
   62.5080   33.7210   49.1400 C   0  0  0  0  0  0  0  0  0  0  0  0
   63.6230   33.5660   48.2990 C   0  0  0  0  0  0  0  0  0  0  0  0
   63.4610   33.4400   46.9200 C   0  0  0  0  0  0  0  0  0  0  0  0
   62.1860   33.4740   46.3610 C   0  0  0  0  0  0  0  0  0  0  0  0
   61.0570   33.6200   47.1770 C   0  0  0  0  0  0  0  0  0  0  0  0
   59.7620   33.6850   46.5630 N   0  0  0  0  0  0  0  0  0  0  0  0
   59.2560   34.9760   46.0960 C   0  0  0  0  0  0  0  0  0  0  0  0
   58.3370   34.7980   44.8710 C   0  0  0  0  0  0  0  0  0  0  0  0
   57.4720   33.5790   44.9160 N   0  0  0  0  0  0  0  0  0  0  0  0
   57.8210   32.6130   43.8870 C   0  0  0  0  0  0  0  0  0  0  0  0
   58.5650   32.9470   42.9240 O   0  0  0  0  0  0  0  0  0  0  0  0
   57.3970   31.2010   43.9760 C   0  0  0  0  0  0  0  0  0  0  0  0
   56.1060   30.7240   44.1270 C   0  0  0  0  0  0  0  0  0  0  0  0
   56.2150   29.3520   44.1770 C   0  0  0  0  0  0  0  0  0  0  0  0
   57.5640   29.0770   44.0660 C   0  0  0  0  0  0  0  0  0  0  0  0
   58.1840   27.7170   44.0690 C   0  0  0  0  0  0  0  0  0  0  0  0
   58.5650   27.1590   45.7320 S   0  0  0  0  0  0  0  0  0  0  0  0
   58.5320   25.6560   45.7740 O   0  0  0  0  0  0  0  0  0  0  0  0
   57.4920   27.6780   46.6480 O   0  0  0  0  0  0  0  0  0  0  0  0
   60.1150   27.7200   46.3260 N   0  0  0  0  0  0  0  0  0  0  0  0
   60.6550   28.8250   45.5200 C   0  0  0  0  0  0  0  0  0  0  0  0
   60.8190   30.0440   46.4180 C   0  0  0  0  0  0  0  0  0  0  0  0
   60.1010   29.7000   47.7020 C   0  0  0  0  0  0  0  0  0  0  0  0
   60.0290   28.1870   47.7140 C   0  0  0  0  0  0  0  0  0  0  0  0
   58.2410   30.1950   43.9380 O   0  0  0  0  0  0  0  0  0  0  0  0
   57.4350   32.9190   46.2390 C   0  0  0  0  0  0  0  0  0  0  0  0
   58.8410   32.5610   46.7410 C   0  0  0  0  0  0  0  0  0  0  0  0
   61.2030   33.7110   48.5800 C   0  0  0  0  0  0  0  0  0  0  0  0
   59.9770   33.8680   49.4490 C   0  0  0  0  0  0  0  0  0  0  0  0
   61.9426   33.3407   51.1701 H   0  0  0  0  0  0  0  0  0  0  0  0
   63.7134   33.4493   50.8889 H   0  0  0  0  0  0  0  0  0  0  0  0
   62.7110   34.9399   50.8889 H   0  0  0  0  0  0  0  0  0  0  0  0
   64.6336   33.5439   48.7329 H   0  0  0  0  0  0  0  0  0  0  0  0
   64.3414   33.3136   46.2727 H   0  0  0  0  0  0  0  0  0  0  0  0
   62.0647   33.3856   45.2713 H   0  0  0  0  0  0  0  0  0  0  0  0
   58.6865   35.4539   46.9067 H   0  0  0  0  0  0  0  0  0  0  0  0
   60.1113   35.6034   45.8047 H   0  0  0  0  0  0  0  0  0  0  0  0
   57.6838   35.6803   44.8006 H   0  0  0  0  0  0  0  0  0  0  0  0
   58.9974   34.6807   43.9992 H   0  0  0  0  0  0  0  0  0  0  0  0
   56.4990   33.9090   44.7190 H   0  0  0  0  0  0  0  0  0  0  0  0
   55.1830   31.3186   44.1934 H   0  0  0  0  0  0  0  0  0  0  0  0
   55.3964   28.6250   44.2834 H   0  0  0  0  0  0  0  0  0  0  0  0
   57.4835   27.0058   43.6069 H   0  0  0  0  0  0  0  0  0  0  0  0
   59.1257   27.7703   43.5031 H   0  0  0  0  0  0  0  0  0  0  0  0
   61.6315   28.5373   45.1032 H   0  0  0  0  0  0  0  0  0  0  0  0
   59.9693   29.0570   44.6917 H   0  0  0  0  0  0  0  0  0  0  0  0
   61.8842   30.2370   46.6132 H   0  0  0  0  0  0  0  0  0  0  0  0
   60.4086   30.9519   45.9520 H   0  0  0  0  0  0  0  0  0  0  0  0
   60.6654   30.0676   48.5716 H   0  0  0  0  0  0  0  0  0  0  0  0
   59.1046   30.1628   47.7564 H   0  0  0  0  0  0  0  0  0  0  0  0
   60.8662   27.7777   48.2985 H   0  0  0  0  0  0  0  0  0  0  0  0
   59.0872   27.8521   48.1731 H   0  0  0  0  0  0  0  0  0  0  0  0
   56.9618   33.5993   46.9624 H   0  0  0  0  0  0  0  0  0  0  0  0
   56.8618   31.9856   46.1379 H   0  0  0  0  0  0  0  0  0  0  0  0
   58.7875   32.3052   47.8095 H   0  0  0  0  0  0  0  0  0  0  0  0
   59.2144   31.7055   46.1590 H   0  0  0  0  0  0  0  0  0  0  0  0
   60.2711   33.8303   50.5083 H   0  0  0  0  0  0  0  0  0  0  0  0
   59.4977   34.8349   49.2357 H   0  0  0  0  0  0  0  0  0  0  0  0
   59.2696   33.0531   49.2357 H   0  0  0  0  0  0  0  0  0  0  0  0
  1  2  1  0
  2  3  2  0
  3  4  1  0
  4  5  2  0
  5  6  1  0
  6  7  1  0
  7  8  1  0
  8  9  1  0
  9 10  1  0
 10 11  1  0
 11 12  2  0
 11 13  1  0
 13 14  2  0
 14 15  1  0
 15 16  2  0
 16 17  1  0
 17 18  1  0
 18 19  2  0
 18 20  2  0
 18 21  1  0
 21 22  1  0
 22 23  1  0
 23 24  1  0
 24 25  1  0
 16 26  1  0
 10 27  1  0
 27 28  1  0
  6 29  2  0
 29 30  1  0
 29  2  1  0
 28  7  1  0
 26 13  1  0
 25 21  1  0
  1 31  1  0
  1 32  1  0
  1 33  1  0
  3 34  1  0
  4 35  1  0
  5 36  1  0
  8 37  1  0
  8 38  1  0
  9 39  1  0
  9 40  1  0
 10 41  1  0
 14 42  1  0
 15 43  1  0
 17 44  1  0
 17 45  1  0
 22 46  1  0
 22 47  1  0
 23 48  1  0
 23 49  1  0
 24 50  1  0
 24 51  1  0
 25 52  1  0
 25 53  1  0
 27 54  1  0
 27 55  1  0
 28 56  1  0
 28 57  1  0
 30 58  1  0
 30 59  1  0
 30 60  1  0
M  CHG  1  10   1
M  END
>  <UniqueID>  (57) 
52

>  <SMILES>  (57) 
Cc1cccc(N2CC[NH+](C(=O)c3ccc(CS(=O)(=O)N4CCCC4)o3)CC2)c1C

>  <Energy>  (57) 
99.20531908972454

>  <Genealogy>  (57) 
Cc1cccc(N2CC[NH+](C(=O)c3ccc(CS(=O)(=O)N4CCCC4)o3)CC2)c1C (protonated)
Cc1cccc(N2CC[NH+](C(=O)c3ccc(CS(=O)(=O)N4CCCC4)o3)CC2)c1C (3D coordinates assigned)
Cc1cccc(N2CC[NH+](C(=O)c3ccc(CS(=O)(=O)N4CCCC4)o3)CC2)c1C (nonaromatic ring conformer: 99.20531908972454 kcal/mol)

>  <smiles>  (57) 
Cc1cccc(N2CCN(C(=O)c3ccc(CS(=O)(=O)N4CCCC4)o3)CC2)c1C

>  <score_type>  (57) 
oracle

>  <origin>  (57) 
adg

>  <m_score__min__energy>  (57) 
-8.0099999999999998

>  <m_primary>  (57) 
energy

$$$$
57:0
     RDKit          3D

 56 59  0  0  0  0  0  0  0  0999 V2000
   60.0760   29.5320   46.0050 O   0  0  0  0  0  0  0  0  0  0  0  0
   59.8730   28.5840   46.8110 C   0  0  0  0  0  0  0  0  0  0  0  0
   60.1700   28.7720   48.2070 N   0  0  0  0  0  0  0  0  0  0  0  0
   60.2920   30.0650   48.8260 C   0  0  0  0  0  0  0  0  0  0  0  0
   59.9200   30.2730   50.1670 C   0  0  0  0  0  0  0  0  0  0  0  0
   60.0710   31.5340   50.7530 C   0  0  0  0  0  0  0  0  0  0  0  0
   60.6010   32.5930   50.0110 C   0  0  0  0  0  0  0  0  0  0  0  0
   60.9870   32.3960   48.6780 C   0  0  0  0  0  0  0  0  0  0  0  0
   61.6530   33.7210   47.7250 S   0  0  0  0  0  0  0  0  0  0  0  0
   62.4650   34.5960   48.6380 O   0  0  0  0  0  0  0  0  0  0  0  0
   62.5550   33.1760   46.6530 O   0  0  0  0  0  0  0  0  0  0  0  0
   60.3390   34.6370   47.0160 N   0  0  0  0  0  0  0  0  0  0  0  0
   59.1300   34.6200   47.8710 C   0  0  0  0  0  0  0  0  0  0  0  0
   58.0760   33.6060   47.3900 C   0  0  0  0  0  0  0  0  0  0  0  0
   58.7040   32.4820   46.8170 O   0  0  0  0  0  0  0  0  0  0  0  0
   59.3240   32.8360   45.5930 C   0  0  0  0  0  0  0  0  0  0  0  0
   60.0570   34.2000   45.6370 C   0  0  0  0  0  0  0  0  0  0  0  0
   60.8450   31.1290   48.0950 C   0  0  0  0  0  0  0  0  0  0  0  0
   59.3690   27.3220   46.3200 N   0  0  0  0  0  0  0  0  0  0  0  0
   59.1550   27.1070   44.8810 C   0  0  0  0  0  0  0  0  0  0  0  0
   57.7360   26.5830   44.6420 C   0  0  0  0  0  0  0  0  0  0  0  0
   57.4150   25.4760   45.5560 N   0  0  0  0  0  0  0  0  0  0  0  0
   56.1780   24.7570   45.3810 C   0  0  0  0  0  0  0  0  0  0  0  0
   56.2030   23.4040   45.0100 C   0  0  0  0  0  0  0  0  0  0  0  0
   55.0110   22.6940   44.8410 C   0  0  0  0  0  0  0  0  0  0  0  0
   53.7820   23.3270   45.0420 C   0  0  0  0  0  0  0  0  0  0  0  0
   53.7440   24.6710   45.4150 C   0  0  0  0  0  0  0  0  0  0  0  0
   54.9340   25.3870   45.5910 C   0  0  0  0  0  0  0  0  0  0  0  0
   54.8710   26.7150   45.9950 O   0  0  0  0  0  0  0  0  0  0  0  0
   58.3940   25.0370   46.5590 C   0  0  0  0  0  0  0  0  0  0  0  0
   59.0120   26.2490   47.2660 C   0  0  0  0  0  0  0  0  0  0  0  0
   60.4200   27.9380   48.7830 H   0  0  0  0  0  0  0  0  0  0  0  0
   59.5088   29.4405   50.7568 H   0  0  0  0  0  0  0  0  0  0  0  0
   59.7721   31.6924   51.7997 H   0  0  0  0  0  0  0  0  0  0  0  0
   60.7156   33.5840   50.4744 H   0  0  0  0  0  0  0  0  0  0  0  0
   59.4282   34.3577   48.8968 H   0  0  0  0  0  0  0  0  0  0  0  0
   58.6749   35.6203   47.8227 H   0  0  0  0  0  0  0  0  0  0  0  0
   57.4656   33.2833   48.2463 H   0  0  0  0  0  0  0  0  0  0  0  0
   57.4387   34.0849   46.6320 H   0  0  0  0  0  0  0  0  0  0  0  0
   60.0565   32.0564   45.3367 H   0  0  0  0  0  0  0  0  0  0  0  0
   58.5250   32.9249   44.8422 H   0  0  0  0  0  0  0  0  0  0  0  0
   61.0086   34.1083   45.0930 H   0  0  0  0  0  0  0  0  0  0  0  0
   59.4007   34.9508   45.1727 H   0  0  0  0  0  0  0  0  0  0  0  0
   61.1694   30.9669   47.0565 H   0  0  0  0  0  0  0  0  0  0  0  0
   59.2883   28.0586   44.3455 H   0  0  0  0  0  0  0  0  0  0  0  0
   59.8824   26.3695   44.5111 H   0  0  0  0  0  0  0  0  0  0  0  0
   57.0194   27.4015   44.8048 H   0  0  0  0  0  0  0  0  0  0  0  0
   57.6724   26.2104   43.6090 H   0  0  0  0  0  0  0  0  0  0  0  0
   57.1671   22.8988   44.8511 H   0  0  0  0  0  0  0  0  0  0  0  0
   55.0407   21.6339   44.5489 H   0  0  0  0  0  0  0  0  0  0  0  0
   52.8453   22.7665   44.9064 H   0  0  0  0  0  0  0  0  0  0  0  0
   52.7760   25.1695   45.5712 H   0  0  0  0  0  0  0  0  0  0  0  0
   57.8914   24.4007   47.3023 H   0  0  0  0  0  0  0  0  0  0  0  0
   59.1920   24.4710   46.0561 H   0  0  0  0  0  0  0  0  0  0  0  0
   58.2863   26.6438   47.9923 H   0  0  0  0  0  0  0  0  0  0  0  0
   59.9348   25.9160   47.7636 H   0  0  0  0  0  0  0  0  0  0  0  0
  1  2  2  0
  2  3  1  0
  3  4  1  0
  4  5  2  0
  5  6  1  0
  6  7  2  0
  7  8  1  0
  8  9  1  0
  9 10  2  0
  9 11  2  0
  9 12  1  0
 12 13  1  0
 13 14  1  0
 14 15  1  0
 15 16  1  0
 16 17  1  0
  8 18  2  0
  2 19  1  0
 19 20  1  0
 20 21  1  0
 21 22  1  0
 22 23  1  0
 23 24  2  0
 24 25  1  0
 25 26  2  0
 26 27  1  0
 27 28  2  0
 28 29  1  0
 22 30  1  0
 30 31  1  0
 18  4  1  0
 31 19  1  0
 17 12  1  0
 28 23  1  0
  3 32  1  0
  5 33  1  0
  6 34  1  0
  7 35  1  0
 13 36  1  0
 13 37  1  0
 14 38  1  0
 14 39  1  0
 16 40  1  0
 16 41  1  0
 17 42  1  0
 17 43  1  0
 18 44  1  0
 20 45  1  0
 20 46  1  0
 21 47  1  0
 21 48  1  0
 24 49  1  0
 25 50  1  0
 26 51  1  0
 27 52  1  0
 30 53  1  0
 30 54  1  0
 31 55  1  0
 31 56  1  0
M  CHG  1  29  -1
M  END
>  <UniqueID>  (58) 
53

>  <SMILES>  (58) 
O=C(Nc1cccc(S(=O)(=O)N2CCOCC2)c1)N1CCN(c2ccccc2[O-])CC1

>  <Energy>  (58) 
78.84630098556104

>  <Genealogy>  (58) 
O=C(Nc1cccc(S(=O)(=O)N2CCOCC2)c1)N1CCN(c2ccccc2[O-])CC1 (protonated)
O=C(Nc1cccc(S(=O)(=O)N2CCOCC2)c1)N1CCN(c2ccccc2[O-])CC1 (3D coordinates assigned)
O=C(Nc1cccc(S(=O)(=O)N2CCOCC2)c1)N1CCN(c2ccccc2[O-])CC1 (nonaromatic ring conformer: 78.84630098556104 kcal/mol)

>  <smiles>  (58) 
O=C(Nc1cccc(S(=O)(=O)N2CCOCC2)c1)N1CCN(c2ccccc2O)CC1

>  <score_type>  (58) 
oracle

>  <origin>  (58) 
adg

>  <m_score__min__energy>  (58) 
-11.85

>  <m_primary>  (58) 
energy

$$$$
58:0
     RDKit          3D

 38 40  0  0  0  0  0  0  0  0999 V2000
   58.2877   26.7133   43.2000 H   0  0  0  0  0  0  0  0  0  0  0  0
   57.8010   26.0510   43.9310 C   0  0  0  0  0  0  0  0  0  0  0  0
   56.9587   25.4149   43.6214 H   0  0  0  0  0  0  0  0  0  0  0  0
   58.2350   26.0190   45.2010 C   0  0  0  0  0  0  0  0  0  0  0  0
   57.7220   25.2320   46.2460 C   0  0  0  0  0  0  0  0  0  0  0  0
   56.8370   24.2170   46.2410 C   0  0  0  0  0  0  0  0  0  0  0  0
   57.1800   23.2505   46.6388 H   0  0  0  0  0  0  0  0  0  0  0  0
   55.4510   24.2870   45.7500 C   0  0  0  0  0  0  0  0  0  0  0  0
   54.6870   23.2200   45.4550 N   0  0  0  0  0  0  0  0  0  0  0  0
   53.4790   23.7630   45.1950 C   0  0  0  0  0  0  0  0  0  0  0  0
   52.4820   23.0710   44.8590 O   0  0  0  0  0  0  0  0  0  0  0  0
   53.4180   25.1040   45.3330 N   0  0  0  0  0  0  0  0  0  0  0  0
   54.6720   25.4180   45.7000 C   0  0  0  0  0  0  0  0  0  0  0  0
   55.0940   26.7100   45.9880 O   0  0  0  0  0  0  0  0  0  0  0  0
   58.3430   25.6720   47.4020 C   0  0  0  0  0  0  0  0  0  0  0  0
   58.1533   25.3123   48.4241 H   0  0  0  0  0  0  0  0  0  0  0  0
   59.2440   26.6460   47.0300 C   0  0  0  0  0  0  0  0  0  0  0  0
   60.1890   27.3240   47.9760 C   0  0  0  0  0  0  0  0  0  0  0  0
   59.8884   27.1083   49.0119 H   0  0  0  0  0  0  0  0  0  0  0  0
   61.2095   26.9508   47.8051 H   0  0  0  0  0  0  0  0  0  0  0  0
   60.1624   28.4103   47.8051 H   0  0  0  0  0  0  0  0  0  0  0  0
   59.1840   26.8640   45.6930 N   0  0  0  0  0  0  0  0  0  0  0  0
   59.9390   27.8890   44.9520 C   0  0  0  0  0  0  0  0  0  0  0  0
   60.9985   27.5953   44.9173 H   0  0  0  0  0  0  0  0  0  0  0  0
   59.5155   27.9606   43.9393 H   0  0  0  0  0  0  0  0  0  0  0  0
   59.8270   29.2710   45.6160 C   0  0  0  0  0  0  0  0  0  0  0  0
   59.8366   29.1417   46.7083 H   0  0  0  0  0  0  0  0  0  0  0  0
   60.6794   29.8792   45.2790 H   0  0  0  0  0  0  0  0  0  0  0  0
   58.5630   29.9860   45.2230 C   0  0  0  0  0  0  0  0  0  0  0  0
   58.5380   31.3850   45.1310 C   0  0  0  0  0  0  0  0  0  0  0  0
   59.4514   31.9689   45.3172 H   0  0  0  0  0  0  0  0  0  0  0  0
   57.3440   32.0320   44.8010 C   0  0  0  0  0  0  0  0  0  0  0  0
   57.3177   33.1288   44.7208 H   0  0  0  0  0  0  0  0  0  0  0  0
   56.2150   31.3080   44.5790 N   0  0  0  0  0  0  0  0  0  0  0  0
   56.2080   29.9510   44.6670 C   0  0  0  0  0  0  0  0  0  0  0  0
   55.1410   29.3170   44.4570 O   0  0  0  0  0  0  0  0  0  0  0  0
   57.3820   29.2640   44.9900 C   0  0  0  0  0  0  0  0  0  0  0  0
   57.3802   28.1663   45.0610 H   0  0  0  0  0  0  0  0  0  0  0  0
  1  2  1  0
  2  3  1  0
  2  4  2  0
  4  5  1  0
  5  6  2  0
  6  7  1  0
  6  8  1  0
  8  9  1  0
  9 10  1  0
 10 11  2  0
 10 12  1  0
 12 13  1  0
 13 14  1  0
  5 15  1  0
 15 16  1  0
 15 17  2  0
 17 18  1  0
 18 19  1  0
 18 20  1  0
 18 21  1  0
 17 22  1  0
 22 23  1  0
 23 24  1  0
 23 25  1  0
 23 26  1  0
 26 27  1  0
 26 28  1  0
 26 29  1  0
 29 30  1  0
 30 31  1  0
 30 32  2  0
 32 33  1  0
 32 34  1  0
 34 35  1  0
 35 36  2  0
 35 37  1  0
 37 38  1  0
 22  4  1  0
 37 29  2  0
 13  8  2  0
M  CHG  4   9  -1  12  -1  14  -1  34  -1
M  END
>  <UniqueID>  (59) 
54

>  <SMILES>  (59) 
C=c1/c(=C\c2[n-]c(=O)[n-]c2[O-])cc(C)n1CCc1cc[n-]c(=O)c1

>  <Energy>  (59) 
105.62116087616072

>  <Genealogy>  (59) 
C=c1c(=Cc2[n-]c(=O)[n-]c2[O-])cc(C)n1CCc1cc[n-]c(=O)c1 (protonated)
C=c1/c(=C\c2[n-]c(=O)[n-]c2[O-])cc(C)n1CCc1cc[n-]c(=O)c1 (cis-trans isomerization)
C=c1/c(=C\c2[n-]c(=O)[n-]c2[O-])cc(C)n1CCc1cc[n-]c(=O)c1 (3D coordinates assigned)
C=c1/c(=C\c2[n-]c(=O)[n-]c2[O-])cc(C)n1CCc1cc[n-]c(=O)c1 (optimized conformer: 105.62116087616072 kcal/mol)

>  <smiles>  (59) 
C=c1c(=Cc2[nH]c(=O)[nH]c2O)cc(C)n1CCc1cc[nH]c(=O)c1

>  <score_type>  (59) 
oracle

>  <origin>  (59) 
adg

>  <m_score__min__energy>  (59) 
-16.32

>  <m_primary>  (59) 
energy

$$$$
59:0
     RDKit          3D

 39 40  0  0  0  0  0  0  0  0999 V2000
   58.4710   29.9280   44.6990 C   0  0  0  0  0  0  0  0  0  0  0  0
   56.8500   30.6040   44.3940 S   0  0  0  0  0  0  0  0  0  0  0  0
   56.6870   30.7980   42.9140 O   0  0  0  0  0  0  0  0  0  0  0  0
   55.8080   29.6320   44.8730 O   0  0  0  0  0  0  0  0  0  0  0  0
   56.6740   32.1510   45.1800 N   0  0  0  0  0  0  0  0  0  0  0  0
   57.9700   32.7580   45.5260 C   0  0  1  0  0  0  0  0  0  0  0  0
   58.3830   33.8710   44.5290 C   0  0  0  0  0  0  0  0  0  0  0  0
   59.2680   34.9500   45.1770 C   0  0  0  0  0  0  0  0  0  0  0  0
   60.0790   34.3690   46.3380 C   0  0  0  0  0  0  0  0  0  0  0  0
   59.2050   33.8600   47.4290 N   0  0  0  0  0  0  0  0  0  0  0  0
   59.9180   32.8790   48.2760 C   0  0  0  0  0  0  0  0  0  0  0  0
   59.3270   32.8320   49.6620 C   0  0  0  0  0  0  0  0  0  0  0  0
   59.6450   33.8310   50.5960 C   0  0  0  0  0  0  0  0  0  0  0  0
   59.1220   33.7780   51.8900 C   0  0  0  0  0  0  0  0  0  0  0  0
   58.2820   32.7260   52.2660 C   0  0  0  0  0  0  0  0  0  0  0  0
   57.9640   31.7190   51.3440 C   0  0  0  0  0  0  0  0  0  0  0  0
   57.1060   30.6330   51.7320 C   0  0  0  0  0  0  0  0  0  0  0  0
   56.4140   29.7580   52.0440 N   0  0  0  0  0  0  0  0  0  0  0  0
   58.4880   31.7720   50.0450 C   0  0  0  0  0  0  0  0  0  0  0  0
   57.8990   33.3240   46.9570 C   0  0  0  0  0  0  0  0  0  0  0  0
   58.6407   29.8573   45.7835 H   0  0  0  0  0  0  0  0  0  0  0  0
   58.5406   28.9259   44.2508 H   0  0  0  0  0  0  0  0  0  0  0  0
   59.2320   30.5838   44.2508 H   0  0  0  0  0  0  0  0  0  0  0  0
   56.1380   32.7850   44.5440 H   0  0  0  0  0  0  0  0  0  0  0  0
   58.7390   31.9737   45.4668 H   0  0  0  0  0  0  0  0  0  0  0  0
   58.9395   33.4112   43.6990 H   0  0  0  0  0  0  0  0  0  0  0  0
   57.4629   34.3619   44.1792 H   0  0  0  0  0  0  0  0  0  0  0  0
   59.9588   35.3508   44.4206 H   0  0  0  0  0  0  0  0  0  0  0  0
   58.6191   35.7480   45.5672 H   0  0  0  0  0  0  0  0  0  0  0  0
   60.6953   33.5397   45.9606 H   0  0  0  0  0  0  0  0  0  0  0  0
   60.7046   35.1738   46.7515 H   0  0  0  0  0  0  0  0  0  0  0  0
   59.8386   31.8825   47.8170 H   0  0  0  0  0  0  0  0  0  0  0  0
   60.9719   33.1841   48.3544 H   0  0  0  0  0  0  0  0  0  0  0  0
   60.3090   34.6591   50.3073 H   0  0  0  0  0  0  0  0  0  0  0  0
   59.3719   34.5664   52.6153 H   0  0  0  0  0  0  0  0  0  0  0  0
   57.8704   32.6883   53.2854 H   0  0  0  0  0  0  0  0  0  0  0  0
   58.2413   30.9803   49.3223 H   0  0  0  0  0  0  0  0  0  0  0  0
   57.5818   32.5203   47.6378 H   0  0  0  0  0  0  0  0  0  0  0  0
   57.1814   34.1577   46.9490 H   0  0  0  0  0  0  0  0  0  0  0  0
  1  2  1  0
  2  3  2  0
  2  4  2  0
  2  5  1  0
  5  6  1  0
  6  7  1  0
  7  8  1  0
  8  9  1  0
  9 10  1  0
 10 11  1  0
 11 12  1  0
 12 13  2  0
 13 14  1  0
 14 15  2  0
 15 16  1  0
 16 17  1  0
 17 18  3  0
 16 19  2  0
 10 20  1  0
 20  6  1  0
 19 12  1  0
  1 21  1  0
  1 22  1  0
  1 23  1  0
  5 24  1  0
  6 25  1  1
  7 26  1  0
  7 27  1  0
  8 28  1  0
  8 29  1  0
  9 30  1  0
  9 31  1  0
 11 32  1  0
 11 33  1  0
 13 34  1  0
 14 35  1  0
 15 36  1  0
 19 37  1  0
 20 38  1  0
 20 39  1  0
M  END
>  <UniqueID>  (60) 
55

>  <SMILES>  (60) 
CS(=O)(=O)N[C@H]1CCCN(Cc2cccc(C#N)c2)C1

>  <Energy>  (60) 
40.83588271934044

>  <Genealogy>  (60) 
CS(=O)(=O)N[C@H]1CCCN(Cc2cccc(C#N)c2)C1 (chirality)
CS(=O)(=O)N[C@H]1CCCN(Cc2cccc(C#N)c2)C1 (3D coordinates assigned)
CS(=O)(=O)N[C@H]1CCCN(Cc2cccc(C#N)c2)C1 (nonaromatic ring conformer: 40.83588271934044 kcal/mol)

>  <smiles>  (60) 
CS(=O)(=O)NC1CCCN(Cc2cccc(C#N)c2)C1

>  <score_type>  (60) 
oracle

>  <origin>  (60) 
adg

>  <m_score__min__energy>  (60) 
-7.9299999999999997

>  <m_primary>  (60) 
energy

$$$$
60:0
     RDKit          3D

 56 59  0  0  0  0  0  0  0  0999 V2000
   56.6230   29.8580   42.9700 O   0  0  0  0  0  0  0  0  0  0  0  0
   56.7230   29.9120   44.2240 C   0  0  0  0  0  0  0  0  0  0  0  0
   56.1870   28.8310   45.0040 N   0  0  0  0  0  0  0  0  0  0  0  0
   56.8570   27.8190   45.4770 C   0  0  0  0  0  0  0  0  0  0  0  0
   58.2220   27.8260   45.4980 N   0  0  0  0  0  0  0  0  0  0  0  0
   58.9410   26.7870   45.9970 C   0  0  0  0  0  0  0  0  0  0  0  0
   58.2860   25.6710   46.5200 C   0  0  0  0  0  0  0  0  0  0  0  0
   56.8910   25.6400   46.5240 C   0  0  0  0  0  0  0  0  0  0  0  0
   56.1670   26.7170   46.0040 C   0  0  0  0  0  0  0  0  0  0  0  0
   54.7770   26.6850   46.0130 O   0  0  0  0  0  0  0  0  0  0  0  0
   57.4300   31.0570   44.8440 C   0  0  0  0  0  0  0  0  0  0  0  0
   57.7700   31.0230   46.2070 C   0  0  0  0  0  0  0  0  0  0  0  0
   58.4650   32.0870   46.7880 C   0  0  0  0  0  0  0  0  0  0  0  0
   58.8160   33.2040   46.0180 C   0  0  0  0  0  0  0  0  0  0  0  0
   59.7510   34.5200   46.7280 S   0  0  0  0  0  0  0  0  0  0  0  0
   58.9530   35.1730   47.8230 O   0  0  0  0  0  0  0  0  0  0  0  0
   60.0350   35.5520   45.6720 O   0  0  0  0  0  0  0  0  0  0  0  0
   61.3000   33.9150   47.4030 C   0  0  1  0  0  0  0  0  0  0  0  0
   61.1310   32.5260   48.0500 C   0  0  0  0  0  0  0  0  0  0  0  0
   62.3440   31.5930   47.8540 C   0  0  0  0  0  0  0  0  0  0  0  0
   63.6580   32.2810   47.8300 N   0  0  2  0  0  0  0  0  0  0  0  0
   64.2780   32.5720   49.4450 S   0  0  0  0  0  0  0  0  0  0  0  0
   65.7660   32.7840   49.3700 O   0  0  0  0  0  0  0  0  0  0  0  0
   63.6660   33.8340   49.9880 O   0  0  0  0  0  0  0  0  0  0  0  0
   63.9440   31.2560   50.5730 C   0  0  0  0  0  0  0  0  0  0  0  0
   64.9960   30.5870   51.2160 C   0  0  0  0  0  0  0  0  0  0  0  0
   64.7280   29.5440   52.1070 C   0  0  0  0  0  0  0  0  0  0  0  0
   63.4080   29.1520   52.3500 C   0  0  0  0  0  0  0  0  0  0  0  0
   62.3560   29.7970   51.6930 C   0  0  0  0  0  0  0  0  0  0  0  0
   62.6220   30.8400   50.8010 C   0  0  0  0  0  0  0  0  0  0  0  0
   63.7280   33.4990   46.9730 C   0  0  0  0  0  0  0  0  0  0  0  0
   62.3910   33.8900   46.3330 C   0  0  0  0  0  0  0  0  0  0  0  0
   58.4470   33.2580   44.6690 C   0  0  0  0  0  0  0  0  0  0  0  0
   57.7550   32.1940   44.0860 C   0  0  0  0  0  0  0  0  0  0  0  0
   60.0403   26.8253   45.9889 H   0  0  0  0  0  0  0  0  0  0  0  0
   58.8626   24.8260   46.9242 H   0  0  0  0  0  0  0  0  0  0  0  0
   56.3612   24.7685   46.9361 H   0  0  0  0  0  0  0  0  0  0  0  0
   57.4876   30.1543   46.8198 H   0  0  0  0  0  0  0  0  0  0  0  0
   58.7374   32.0477   47.8530 H   0  0  0  0  0  0  0  0  0  0  0  0
   61.6117   34.6136   48.1934 H   0  0  0  0  0  0  0  0  0  0  0  0
   60.2475   32.0429   47.6073 H   0  0  0  0  0  0  0  0  0  0  0  0
   61.0253   32.6890   49.1327 H   0  0  0  0  0  0  0  0  0  0  0  0
   62.2175   31.0627   46.8986 H   0  0  0  0  0  0  0  0  0  0  0  0
   62.3618   30.9198   48.7238 H   0  0  0  0  0  0  0  0  0  0  0  0
   64.3290   31.5880   47.4220 H   0  0  0  0  0  0  0  0  0  0  0  0
   66.0364   30.8845   51.0181 H   0  0  0  0  0  0  0  0  0  0  0  0
   65.5563   29.0310   52.6176 H   0  0  0  0  0  0  0  0  0  0  0  0
   63.1975   28.3366   53.0577 H   0  0  0  0  0  0  0  0  0  0  0  0
   61.3180   29.4835   51.8781 H   0  0  0  0  0  0  0  0  0  0  0  0
   61.7929   31.3367   50.2758 H   0  0  0  0  0  0  0  0  0  0  0  0
   64.4554   33.3145   46.1687 H   0  0  0  0  0  0  0  0  0  0  0  0
   64.0224   34.3321   47.6282 H   0  0  0  0  0  0  0  0  0  0  0  0
   62.1272   33.1554   45.5579 H   0  0  0  0  0  0  0  0  0  0  0  0
   62.4807   34.8877   45.8785 H   0  0  0  0  0  0  0  0  0  0  0  0
   58.7029   34.1415   44.0658 H   0  0  0  0  0  0  0  0  0  0  0  0
   57.4628   32.2468   43.0268 H   0  0  0  0  0  0  0  0  0  0  0  0
  1  2  2  0
  2  3  1  0
  3  4  2  3
  4  5  1  0
  5  6  1  0
  6  7  2  0
  7  8  1  0
  8  9  2  0
  9 10  1  0
  2 11  1  0
 11 12  2  0
 12 13  1  0
 13 14  2  0
 14 15  1  0
 15 16  2  0
 15 17  2  0
 15 18  1  0
 18 19  1  0
 19 20  1  0
 20 21  1  0
 21 22  1  0
 22 23  2  0
 22 24  2  0
 22 25  1  0
 25 26  2  0
 26 27  1  0
 27 28  2  0
 28 29  1  0
 29 30  2  0
 21 31  1  0
 31 32  1  0
 14 33  1  0
 33 34  2  0
  9  4  1  0
 34 11  1  0
 32 18  1  0
 30 25  1  0
  6 35  1  0
  7 36  1  0
  8 37  1  0
 12 38  1  0
 13 39  1  0
 18 40  1  1
 19 41  1  0
 19 42  1  0
 20 43  1  0
 20 44  1  0
 21 45  1  6
 26 46  1  0
 27 47  1  0
 28 48  1  0
 29 49  1  0
 30 50  1  0
 31 51  1  0
 31 52  1  0
 32 53  1  0
 32 54  1  0
 33 55  1  0
 34 56  1  0
M  CHG  3   5  -1  10  -1  21   1
M  END
>  <UniqueID>  (61) 
56

>  <SMILES>  (61) 
O=C(N=c1[n-]cccc1[O-])c1ccc(S(=O)(=O)C2CC[NH+](S(=O)(=O)c3ccccc3)CC2)cc1

>  <Energy>  (61) 
73.76301031097648

>  <Genealogy>  (61) 
O=C(N=c1[n-]cccc1[O-])c1ccc(S(=O)(=O)C2CC[NH+](S(=O)(=O)c3ccccc3)CC2)cc1 (protonated)
O=C(N=c1[n-]cccc1[O-])c1ccc(S(=O)(=O)C2CC[NH+](S(=O)(=O)c3ccccc3)CC2)cc1 (3D coordinates assigned)
O=C(N=c1[n-]cccc1[O-])c1ccc(S(=O)(=O)C2CC[NH+](S(=O)(=O)c3ccccc3)CC2)cc1 (nonaromatic ring conformer: 73.76301031097648 kcal/mol)

>  <smiles>  (61) 
O=C(N=c1[nH]cccc1O)c1ccc(S(=O)(=O)C2CCN(S(=O)(=O)c3ccccc3)CC2)cc1

>  <score_type>  (61) 
oracle

>  <origin>  (61) 
adg

>  <m_score__min__energy>  (61) 
-15.17

>  <m_primary>  (61) 
energy

$$$$
61:0
     RDKit          3D

 39 41  0  0  0  0  0  0  0  0999 V2000
   53.2780   31.2130   55.3640 O   0  0  0  0  0  0  0  0  0  0  0  0
   52.8050   30.7410   54.2970 C   0  0  0  0  0  0  0  0  0  0  0  0
   51.4670   31.2360   53.8110 C   0  0  0  0  0  0  0  0  0  0  0  0
   51.3910   31.2360   52.3140 C   0  0  0  0  0  0  0  0  0  0  0  0
   51.7810   29.9310   51.3200 S   0  0  0  0  0  0  0  0  0  0  0  0
   51.4210   30.7860   49.9180 C   0  0  0  0  0  0  0  0  0  0  0  0
   51.5170   30.3130   48.7550 O   0  0  0  0  0  0  0  0  0  0  0  0
   51.0150   32.0480   50.1670 N   0  0  0  0  0  0  0  0  0  0  0  0
   51.0010   32.3000   51.5030 C   0  0  0  0  0  0  0  0  0  0  0  0
   50.6220   33.5370   52.0080 O   0  0  0  0  0  0  0  0  0  0  0  0
   53.5360   29.7090   53.6170 N   0  0  0  0  0  0  0  0  0  0  0  0
   54.7810   29.8770   52.9320 C   0  0  0  0  0  0  0  0  0  0  0  0
   54.9360   30.8450   51.9290 C   0  0  0  0  0  0  0  0  0  0  0  0
   56.1600   30.9840   51.2690 C   0  0  0  0  0  0  0  0  0  0  0  0
   57.2450   30.1590   51.6060 C   0  0  0  0  0  0  0  0  0  0  0  0
   58.5210   30.2960   50.9620 N   0  0  0  0  0  0  0  0  0  0  0  0
   58.9160   29.7630   49.6890 C   0  0  0  0  0  0  0  0  0  0  0  0
   59.4870   28.6420   49.6580 O   0  0  0  0  0  0  0  0  0  0  0  0
   58.5820   30.4360   48.4130 C   0  0  0  0  0  0  0  0  0  0  0  0
   58.5280   31.6930   48.3630 O   0  0  0  0  0  0  0  0  0  0  0  0
   58.1350   29.6830   47.2760 N   0  0  0  0  0  0  0  0  0  0  0  0
   57.7940   30.1030   46.0890 C   0  0  0  0  0  0  0  0  0  0  0  0
   58.4000   31.2300   45.6220 N   0  0  0  0  0  0  0  0  0  0  0  0
   58.1210   31.7620   44.4040 C   0  0  0  0  0  0  0  0  0  0  0  0
   57.1850   31.1500   43.5730 C   0  0  0  0  0  0  0  0  0  0  0  0
   56.5570   29.9820   44.0010 C   0  0  0  0  0  0  0  0  0  0  0  0
   56.8620   29.4370   45.2520 C   0  0  0  0  0  0  0  0  0  0  0  0
   56.2670   28.2340   45.6080 O   0  0  0  0  0  0  0  0  0  0  0  0
   57.1050   29.2350   52.6520 C   0  0  0  0  0  0  0  0  0  0  0  0
   58.1820   28.4440   53.0360 O   0  0  0  0  0  0  0  0  0  0  0  0
   55.8800   29.0990   53.3120 C   0  0  0  0  0  0  0  0  0  0  0  0
   50.6778   30.5811   54.2088 H   0  0  0  0  0  0  0  0  0  0  0  0
   51.3332   32.2695   54.1630 H   0  0  0  0  0  0  0  0  0  0  0  0
   54.0915   31.4969   51.6610 H   0  0  0  0  0  0  0  0  0  0  0  0
   56.2740   31.7436   50.4815 H   0  0  0  0  0  0  0  0  0  0  0  0
   58.6344   32.6769   44.0733 H   0  0  0  0  0  0  0  0  0  0  0  0
   56.9447   31.5835   42.5910 H   0  0  0  0  0  0  0  0  0  0  0  0
   55.8189   29.4872   43.3526 H   0  0  0  0  0  0  0  0  0  0  0  0
   55.7797   28.3760   54.1349 H   0  0  0  0  0  0  0  0  0  0  0  0
  1  2  2  0
  2  3  1  0
  3  4  1  0
  4  5  1  0
  5  6  1  0
  6  7  2  0
  6  8  1  0
  8  9  1  0
  9 10  1  0
  2 11  1  0
 11 12  1  0
 12 13  2  0
 13 14  1  0
 14 15  2  0
 15 16  1  0
 16 17  1  0
 17 18  2  0
 17 19  1  0
 19 20  2  0
 19 21  1  0
 21 22  2  3
 22 23  1  0
 23 24  1  0
 24 25  2  0
 25 26  1  0
 26 27  2  0
 27 28  1  0
 15 29  1  0
 29 30  1  0
 29 31  2  0
  9  4  2  0
 31 12  1  0
 27 22  1  0
  3 32  1  0
  3 33  1  0
 13 34  1  0
 14 35  1  0
 24 36  1  0
 25 37  1  0
 26 38  1  0
 31 39  1  0
M  CHG  7   8  -1  10  -1  11  -1  16  -1  23  -1  28  -1  30  -1
M  END
>  <UniqueID>  (62) 
57

>  <SMILES>  (62) 
O=C(Cc1sc(=O)[n-]c1[O-])[N-]c1ccc([N-]C(=O)C(=O)N=c2[n-]cccc2[O-])c([O-])c1

>  <Energy>  (62) 
94.33290537425559

>  <Genealogy>  (62) 
O=C(Cc1sc(=O)[n-]c1[O-])[N-]c1ccc([N-]C(=O)C(=O)N=c2[n-]cccc2[O-])c([O-])c1 (protonated)
O=C(Cc1sc(=O)[n-]c1[O-])[N-]c1ccc([N-]C(=O)C(=O)N=c2[n-]cccc2[O-])c([O-])c1 (3D coordinates assigned)
O=C(Cc1sc(=O)[n-]c1[O-])[N-]c1ccc([N-]C(=O)C(=O)N=c2[n-]cccc2[O-])c([O-])c1 (optimized conformer: 94.33290537425559 kcal/mol)

>  <smiles>  (62) 
O=C(Cc1sc(=O)[nH]c1O)Nc1ccc(NC(=O)C(=O)N=c2[nH]cccc2O)c(O)c1

>  <score_type>  (62) 
oracle

>  <origin>  (62) 
adg

>  <m_score__min__energy>  (62) 
-21.739999999999998

>  <m_primary>  (62) 
energy

$$$$
62:0
     RDKit          3D

 54 57  0  0  0  0  0  0  0  0999 V2000
   59.4390   25.9140   47.1160 C   0  0  0  0  0  0  0  0  0  0  0  0
   58.2070   26.5070   46.5200 C   0  0  0  0  0  0  0  0  0  0  0  0
   58.1730   27.6620   45.7620 C   0  0  0  0  0  0  0  0  0  0  0  0
   56.8450   27.8660   45.4430 C   0  0  0  0  0  0  0  0  0  0  0  0
   56.2850   28.9760   44.6440 C   0  0  0  0  0  0  0  0  0  0  0  0
   55.1150   29.3790   44.8780 O   0  0  0  0  0  0  0  0  0  0  0  0
   57.0700   29.6640   43.6600 N   0  0  0  0  0  0  0  0  0  0  0  0
   57.4540   30.9050   43.7340 C   0  0  0  0  0  0  0  0  0  0  0  0
   57.5790   31.6840   42.6390 N   0  0  0  0  0  0  0  0  0  0  0  0
   57.9800   32.9440   42.9600 C   0  0  0  0  0  0  0  0  0  0  0  0
   58.1990   33.1570   44.3170 C   0  0  0  0  0  0  0  0  0  0  0  0
   58.4980   34.4730   44.9620 C   0  0  0  0  0  0  0  0  0  0  0  0
   59.3930   34.2590   46.1520 C   0  0  0  0  0  0  0  0  0  0  0  0
   58.8950   34.4380   47.4510 C   0  0  0  0  0  0  0  0  0  0  0  0
   59.7420   34.3140   48.5530 C   0  0  0  0  0  0  0  0  0  0  0  0
   61.0940   34.0120   48.3690 C   0  0  0  0  0  0  0  0  0  0  0  0
   61.6130   33.8270   47.0750 C   0  0  0  0  0  0  0  0  0  0  0  0
   63.0540   33.5320   46.8570 C   0  0  0  0  0  0  0  0  0  0  0  0
   63.6950   34.2350   46.0260 O   0  0  0  0  0  0  0  0  0  0  0  0
   63.7430   32.5070   47.6180 N   0  0  0  0  0  0  0  0  0  0  0  0
   62.8840   31.3010   47.7690 C   0  0  0  0  0  0  0  0  0  0  0  0
   62.2940   31.1760   49.1810 C   0  0  0  0  0  0  0  0  0  0  0  0
   63.3640   31.0820   50.2000 N   0  0  0  0  0  0  0  0  0  0  0  0
   62.8230   31.3790   51.5350 C   0  0  0  0  0  0  0  0  0  0  0  0
   64.5530   31.9190   49.8980 C   0  0  0  0  0  0  0  0  0  0  0  0
   64.2350   33.0510   48.9100 C   0  0  0  0  0  0  0  0  0  0  0  0
   60.7540   33.9680   45.9700 C   0  0  0  0  0  0  0  0  0  0  0  0
   57.8630   31.7340   45.1480 S   0  0  0  0  0  0  0  0  0  0  0  0
   56.1480   26.8400   46.0520 C   0  0  0  0  0  0  0  0  0  0  0  0
   54.7710   26.6670   45.9990 O   0  0  0  0  0  0  0  0  0  0  0  0
   56.9690   26.0040   46.7140 N   0  0  0  0  0  0  0  0  0  0  0  0
   59.3685   25.9480   48.2132 H   0  0  0  0  0  0  0  0  0  0  0  0
   59.5390   24.8691   46.7872 H   0  0  0  0  0  0  0  0  0  0  0  0
   60.3181   26.4876   46.7872 H   0  0  0  0  0  0  0  0  0  0  0  0
   59.0283   28.2900   45.4722 H   0  0  0  0  0  0  0  0  0  0  0  0
   58.1200   33.7322   42.2056 H   0  0  0  0  0  0  0  0  0  0  0  0
   59.0023   35.1296   44.2378 H   0  0  0  0  0  0  0  0  0  0  0  0
   57.5584   34.9410   45.2906 H   0  0  0  0  0  0  0  0  0  0  0  0
   57.8320   34.6772   47.6017 H   0  0  0  0  0  0  0  0  0  0  0  0
   59.3445   34.4543   49.5690 H   0  0  0  0  0  0  0  0  0  0  0  0
   61.7567   33.9184   49.2420 H   0  0  0  0  0  0  0  0  0  0  0  0
   64.6010   32.2220   47.0880 H   0  0  0  0  0  0  0  0  0  0  0  0
   62.0580   31.3627   47.0452 H   0  0  0  0  0  0  0  0  0  0  0  0
   63.5127   30.4166   47.5886 H   0  0  0  0  0  0  0  0  0  0  0  0
   61.6747   32.0605   49.3911 H   0  0  0  0  0  0  0  0  0  0  0  0
   61.6875   30.2594   49.2261 H   0  0  0  0  0  0  0  0  0  0  0  0
   63.5133   31.0000   52.3030 H   0  0  0  0  0  0  0  0  0  0  0  0
   62.7077   32.4669   51.6502 H   0  0  0  0  0  0  0  0  0  0  0  0
   61.8433   30.8922   51.6502 H   0  0  0  0  0  0  0  0  0  0  0  0
   64.9214   32.3611   50.8355 H   0  0  0  0  0  0  0  0  0  0  0  0
   65.3108   31.2709   49.4336 H   0  0  0  0  0  0  0  0  0  0  0  0
   63.4614   33.7011   49.3446 H   0  0  0  0  0  0  0  0  0  0  0  0
   65.1565   33.6215   48.7220 H   0  0  0  0  0  0  0  0  0  0  0  0
   61.1533   33.8489   44.9520 H   0  0  0  0  0  0  0  0  0  0  0  0
  1  2  1  0
  2  3  2  0
  3  4  1  0
  4  5  1  0
  5  6  2  0
  5  7  1  0
  7  8  2  3
  8  9  1  0
  9 10  1  0
 10 11  2  0
 11 12  1  0
 12 13  1  0
 13 14  2  0
 14 15  1  0
 15 16  2  0
 16 17  1  0
 17 18  1  0
 18 19  2  0
 18 20  1  0
 20 21  1  0
 21 22  1  0
 22 23  1  0
 23 24  1  0
 23 25  1  0
 25 26  1  0
 17 27  2  0
 11 28  1  0
  4 29  2  0
 29 30  1  0
 29 31  1  0
 31  2  1  0
 28  8  1  0
 27 13  1  0
 26 20  1  0
  1 32  1  0
  1 33  1  0
  1 34  1  0
  3 35  1  0
 10 36  1  0
 12 37  1  0
 12 38  1  0
 14 39  1  0
 15 40  1  0
 16 41  1  0
 20 42  1  0
 21 43  1  0
 21 44  1  0
 22 45  1  0
 22 46  1  0
 24 47  1  0
 24 48  1  0
 24 49  1  0
 25 50  1  0
 25 51  1  0
 26 52  1  0
 26 53  1  0
 27 54  1  0
M  CHG  4   9  -1  20   1  30  -1  31  -1
M  END
>  <UniqueID>  (63) 
58

>  <SMILES>  (63) 
Cc1cc(C(=O)N=c2[n-]cc(Cc3cccc(C(=O)[NH+]4CCN(C)CC4)c3)s2)c([O-])[n-]1

>  <Energy>  (63) 
132.92792868686828

>  <Genealogy>  (63) 
Cc1cc(C(=O)N=c2[n-]cc(Cc3cccc(C(=O)[NH+]4CCN(C)CC4)c3)s2)c([O-])[n-]1 (protonated)
Cc1cc(C(=O)N=c2[n-]cc(Cc3cccc(C(=O)[NH+]4CCN(C)CC4)c3)s2)c([O-])[n-]1 (3D coordinates assigned)
Cc1cc(C(=O)N=c2[n-]cc(Cc3cccc(C(=O)[NH+]4CCN(C)CC4)c3)s2)c([O-])[n-]1 (nonaromatic ring conformer: 132.92792868686828 kcal/mol)

>  <smiles>  (63) 
Cc1cc(C(=O)N=c2[nH]cc(Cc3cccc(C(=O)N4CCN(C)CC4)c3)s2)c(O)[nH]1

>  <score_type>  (63) 
oracle

>  <origin>  (63) 
adg

>  <m_score__min__energy>  (63) 
-16.75

>  <m_primary>  (63) 
energy

$$$$
63:0
     RDKit          3D

 35 37  0  0  0  0  0  0  0  0999 V2000
   56.1450   27.6170   45.6240 N   0  0  0  0  0  0  0  0  0  0  0  0
   57.3590   28.3150   45.9020 C   0  0  0  0  0  0  0  0  0  0  0  0
   58.2720   27.7310   46.5440 O   0  0  0  0  0  0  0  0  0  0  0  0
   57.5130   29.7290   45.4890 C   0  0  0  0  0  0  0  0  0  0  0  0
   58.3620   30.5610   46.2440 C   0  0  0  0  0  0  0  0  0  0  0  0
   58.6020   31.8930   45.8590 C   0  0  0  0  0  0  0  0  0  0  0  0
   59.5030   32.7740   46.6440 C   0  0  0  0  0  0  0  0  0  0  0  0
   59.3350   34.1170   46.9160 C   0  0  0  0  0  0  0  0  0  0  0  0
   60.3720   34.5500   47.6540 N   0  0  0  0  0  0  0  0  0  0  0  0
   61.1470   33.4550   47.8130 C   0  0  0  0  0  0  0  0  0  0  0  0
   62.4160   33.4620   48.5720 C   0  0  0  0  0  0  0  0  0  0  0  0
   62.5240   34.1560   49.7860 C   0  0  0  0  0  0  0  0  0  0  0  0
   63.7280   34.1540   50.4920 C   0  0  0  0  0  0  0  0  0  0  0  0
   64.8230   33.4460   49.9830 C   0  0  0  0  0  0  0  0  0  0  0  0
   66.1410   33.4550   50.6990 C   0  0  0  0  0  0  0  0  0  0  0  0
   67.1300   32.8750   49.8940 O   0  0  0  0  0  0  0  0  0  0  0  0
   64.7070   32.7880   48.7970 N   0  0  0  0  0  0  0  0  0  0  0  0
   63.5440   32.7750   48.0910 C   0  0  0  0  0  0  0  0  0  0  0  0
   60.6500   32.3540   47.2110 N   0  0  0  0  0  0  0  0  0  0  0  0
   57.9800   32.3870   44.7030 C   0  0  0  0  0  0  0  0  0  0  0  0
   57.1230   31.5770   43.9590 C   0  0  0  0  0  0  0  0  0  0  0  0
   56.8640   30.2600   44.3480 C   0  0  0  0  0  0  0  0  0  0  0  0
   55.9390   29.5310   43.6000 O   0  0  0  0  0  0  0  0  0  0  0  0
   55.5030   27.9400   44.8670 H   0  0  0  0  0  0  0  0  0  0  0  0
   58.8451   30.1635   47.1488 H   0  0  0  0  0  0  0  0  0  0  0  0
   58.4879   34.7343   46.5822 H   0  0  0  0  0  0  0  0  0  0  0  0
   61.6567   34.7038   50.1831 H   0  0  0  0  0  0  0  0  0  0  0  0
   63.8157   34.7042   51.4405 H   0  0  0  0  0  0  0  0  0  0  0  0
   66.4224   34.4930   50.9301 H   0  0  0  0  0  0  0  0  0  0  0  0
   66.0491   32.8761   51.6298 H   0  0  0  0  0  0  0  0  0  0  0  0
   66.7450   32.7990   48.9820 H   0  0  0  0  0  0  0  0  0  0  0  0
   63.4863   32.2248   47.1402 H   0  0  0  0  0  0  0  0  0  0  0  0
   58.1698   33.4215   44.3808 H   0  0  0  0  0  0  0  0  0  0  0  0
   56.6446   31.9799   43.0541 H   0  0  0  0  0  0  0  0  0  0  0  0
   55.8060   28.5330   43.6950 H   0  0  0  0  0  0  0  0  0  0  0  0
  1  2  1  0
  2  3  2  0
  2  4  1  0
  4  5  2  0
  5  6  1  0
  6  7  1  0
  7  8  2  0
  8  9  1  0
  9 10  1  0
 10 11  1  0
 11 12  2  0
 12 13  1  0
 13 14  2  0
 14 15  1  0
 15 16  1  0
 14 17  1  0
 17 18  2  0
 10 19  2  0
  6 20  2  0
 20 21  1  0
 21 22  2  0
 22 23  1  0
 22  4  1  0
 19  7  1  0
 18 11  1  0
  1 24  1  0
  5 25  1  0
  8 26  1  0
 12 27  1  0
 13 28  1  0
 15 29  1  0
 15 30  1  0
 16 31  1  0
 18 32  1  0
 20 33  1  0
 21 34  1  0
 23 35  1  0
M  CHG  2   1  -1   9  -1
M  END
>  <UniqueID>  (64) 
59

>  <SMILES>  (64) 
[NH-]C(=O)c1cc(-c2c[n-]c(-c3ccc(CO)nc3)n2)ccc1O

>  <Energy>  (64) 
72.1000954759494

>  <Genealogy>  (64) 
[NH-]C(=O)c1cc(-c2c[n-]c(-c3ccc(CO)nc3)n2)ccc1O (protonated)
[NH-]C(=O)c1cc(-c2c[n-]c(-c3ccc(CO)nc3)n2)ccc1O (3D coordinates assigned)
[NH-]C(=O)c1cc(-c2c[n-]c(-c3ccc(CO)nc3)n2)ccc1O (optimized conformer: 72.1000954759494 kcal/mol)

>  <smiles>  (64) 
NC(=O)c1cc(-c2c[nH]c(-c3ccc(CO)nc3)n2)ccc1O

>  <score_type>  (64) 
oracle

>  <origin>  (64) 
adg

>  <m_score__min__energy>  (64) 
-10.949999999999999

>  <m_primary>  (64) 
energy

$$$$
64:0
     RDKit          3D

 52 55  0  0  0  0  0  0  0  0999 V2000
   61.3570   33.1640   51.5380 C   0  0  0  0  0  0  0  0  0  0  0  0
   59.9890   33.1680   50.8420 C   0  0  0  0  0  0  0  0  0  0  0  0
   59.9940   34.1190   49.6410 C   0  0  0  0  0  0  0  0  0  0  0  0
   59.5990   31.7750   50.4020 C   0  0  0  0  0  0  0  0  0  0  0  0
   60.5960   30.7280   49.5300 S   0  0  0  0  0  0  0  0  0  0  0  0
   59.4130   29.5430   49.3990 C   0  0  0  0  0  0  0  0  0  0  0  0
   59.6570   27.9460   48.6220 S   0  0  0  0  0  0  0  0  0  0  0  0
   60.3590   28.6190   47.0760 C   0  0  0  0  0  0  0  0  0  0  0  0
   59.5080   29.7240   46.5240 C   0  0  0  0  0  0  0  0  0  0  0  0
   58.2960   29.4520   45.8910 C   0  0  0  0  0  0  0  0  0  0  0  0
   57.5270   30.5160   45.4180 C   0  0  0  0  0  0  0  0  0  0  0  0
   56.4250   30.2650   44.8530 O   0  0  0  0  0  0  0  0  0  0  0  0
   57.9550   31.8110   45.5810 N   0  0  0  0  0  0  0  0  0  0  0  0
   57.2080   32.8650   45.1190 C   0  0  0  0  0  0  0  0  0  0  0  0
   57.6430   34.1800   45.2980 C   0  0  0  0  0  0  0  0  0  0  0  0
   58.8440   34.4240   45.9560 C   0  0  0  0  0  0  0  0  0  0  0  0
   59.6060   33.3550   46.4230 C   0  0  0  0  0  0  0  0  0  0  0  0
   59.1520   32.0480   46.2260 C   0  0  0  0  0  0  0  0  0  0  0  0
   59.9050   31.0110   46.6800 N   0  0  0  0  0  0  0  0  0  0  0  0
   58.2530   29.9230   49.9780 N   0  0  0  0  0  0  0  0  0  0  0  0
   58.3440   31.1620   50.5370 C   0  0  0  0  0  0  0  0  0  0  0  0
   57.1510   31.7930   51.1960 C   0  0  0  0  0  0  0  0  0  0  0  0
   56.4470   30.8180   52.0890 C   0  0  0  0  0  0  0  0  0  0  0  0
   56.8780   30.6110   53.2570 O   0  0  0  0  0  0  0  0  0  0  0  0
   55.2220   30.2200   51.6440 N   0  0  0  0  0  0  0  0  0  0  0  0
   53.8880   30.5730   52.0490 C   0  0  0  0  0  0  0  0  0  0  0  0
   53.3960   30.0530   53.2560 C   0  0  0  0  0  0  0  0  0  0  0  0
   52.1140   30.3900   53.7050 C   0  0  0  0  0  0  0  0  0  0  0  0
   51.3180   31.2630   52.9580 C   0  0  0  0  0  0  0  0  0  0  0  0
   51.8080   31.8080   51.7660 C   0  0  0  0  0  0  0  0  0  0  0  0
   51.0230   32.6870   51.0310 O   0  0  0  0  0  0  0  0  0  0  0  0
   53.0890   31.4690   51.3110 C   0  0  0  0  0  0  0  0  0  0  0  0
   61.2135   33.1644   52.6286 H   0  0  0  0  0  0  0  0  0  0  0  0
   61.9163   32.2642   51.2421 H   0  0  0  0  0  0  0  0  0  0  0  0
   61.9216   34.0605   51.2421 H   0  0  0  0  0  0  0  0  0  0  0  0
   59.2440   33.5227   51.5694 H   0  0  0  0  0  0  0  0  0  0  0  0
   59.9995   35.1597   49.9974 H   0  0  0  0  0  0  0  0  0  0  0  0
   60.8912   33.9354   49.0316 H   0  0  0  0  0  0  0  0  0  0  0  0
   59.0949   33.9448   49.0316 H   0  0  0  0  0  0  0  0  0  0  0  0
   61.3660   29.0112   47.2812 H   0  0  0  0  0  0  0  0  0  0  0  0
   60.3995   27.8090   46.3328 H   0  0  0  0  0  0  0  0  0  0  0  0
   57.9513   28.4149   45.7664 H   0  0  0  0  0  0  0  0  0  0  0  0
   56.2563   32.6723   44.6021 H   0  0  0  0  0  0  0  0  0  0  0  0
   57.0391   35.0184   44.9206 H   0  0  0  0  0  0  0  0  0  0  0  0
   59.1908   35.4569   46.1071 H   0  0  0  0  0  0  0  0  0  0  0  0
   60.5579   33.5384   46.9429 H   0  0  0  0  0  0  0  0  0  0  0  0
   57.4851   32.6524   51.7958 H   0  0  0  0  0  0  0  0  0  0  0  0
   56.4503   32.1163   50.4121 H   0  0  0  0  0  0  0  0  0  0  0  0
   54.0229   29.3752   53.8539 H   0  0  0  0  0  0  0  0  0  0  0  0
   51.7326   29.9676   54.6463 H   0  0  0  0  0  0  0  0  0  0  0  0
   50.3073   31.5214   53.3069 H   0  0  0  0  0  0  0  0  0  0  0  0
   53.4719   31.9032   50.3757 H   0  0  0  0  0  0  0  0  0  0  0  0
  1  2  1  0
  2  3  1  0
  2  4  1  0
  4  5  1  0
  5  6  1  0
  6  7  1  0
  7  8  1  0
  8  9  1  0
  9 10  2  0
 10 11  1  0
 11 12  2  0
 11 13  1  0
 13 14  1  0
 14 15  2  0
 15 16  1  0
 16 17  2  0
 17 18  1  0
 18 19  2  0
  6 20  2  0
 20 21  1  0
 21 22  1  0
 22 23  1  0
 23 24  2  0
 23 25  1  0
 25 26  1  0
 26 27  2  0
 27 28  1  0
 28 29  2  0
 29 30  1  0
 30 31  1  0
 30 32  2  0
 21  4  2  0
 32 26  1  0
 19  9  1  0
 18 13  1  0
  1 33  1  0
  1 34  1  0
  1 35  1  0
  2 36  1  0
  3 37  1  0
  3 38  1  0
  3 39  1  0
  8 40  1  0
  8 41  1  0
 10 42  1  0
 14 43  1  0
 15 44  1  0
 16 45  1  0
 17 46  1  0
 22 47  1  0
 22 48  1  0
 27 49  1  0
 28 50  1  0
 29 51  1  0
 32 52  1  0
M  CHG  2  25  -1  31  -1
M  END
>  <UniqueID>  (65) 
60

>  <SMILES>  (65) 
CC(C)c1sc(SCc2cc(=O)n3ccccc3n2)nc1CC(=O)[N-]c1cccc([O-])c1

>  <Energy>  (65) 
81.12445597951003

>  <Genealogy>  (65) 
CC(C)c1sc(SCc2cc(=O)n3ccccc3n2)nc1CC(=O)[N-]c1cccc([O-])c1 (protonated)
CC(C)c1sc(SCc2cc(=O)n3ccccc3n2)nc1CC(=O)[N-]c1cccc([O-])c1 (3D coordinates assigned)
CC(C)c1sc(SCc2cc(=O)n3ccccc3n2)nc1CC(=O)[N-]c1cccc([O-])c1 (optimized conformer: 81.12445597951003 kcal/mol)

>  <smiles>  (65) 
CC(C)c1sc(SCc2cc(=O)n3ccccc3n2)nc1CC(=O)Nc1cccc(O)c1

>  <score_type>  (65) 
oracle

>  <origin>  (65) 
adg

>  <m_score__min__energy>  (65) 
-14.779999999999999

>  <m_primary>  (65) 
energy

$$$$
65:0
     RDKit          3D

 47 49  0  0  1  0  0  0  0  0999 V2000
   58.1470   32.4580   42.5210 C   0  0  0  0  0  0  0  0  0  0  0  0
   58.3240   33.2360   43.7390 N   0  0  0  0  0  0  0  0  0  0  0  0
   58.5300   32.6250   44.8380 C   0  0  0  0  0  0  0  0  0  0  0  0
   58.3670   31.2710   44.9380 N   0  0  0  0  0  0  0  0  0  0  0  0
   58.5620   30.5730   46.0420 C   0  0  0  0  0  0  0  0  0  0  0  0
   58.4240   29.1540   46.2520 C   0  0  0  0  0  0  0  0  0  0  0  0
   59.0810   28.5750   47.3460 C   0  0  0  0  0  0  0  0  0  0  0  0
   59.0290   27.2420   47.6440 C   0  0  0  0  0  0  0  0  0  0  0  0
   58.3110   26.3890   46.8630 C   0  0  0  0  0  0  0  0  0  0  0  0
   57.6510   26.9100   45.7810 C   0  0  0  0  0  0  0  0  0  0  0  0
   56.9070   26.0050   44.9750 N   0  0  0  0  0  0  0  0  0  0  0  0
   55.5900   25.0940   45.6200 S   0  0  0  0  0  0  0  0  0  0  0  0
   55.3290   23.6860   44.5900 C   0  0  0  0  0  0  0  0  0  0  0  0
   54.3570   25.9600   45.6310 O   0  0  0  0  0  0  0  0  0  0  0  0
   55.8670   24.6560   47.0210 O   0  0  0  0  0  0  0  0  0  0  0  0
   57.7040   28.2870   45.4720 C   0  0  0  0  0  0  0  0  0  0  0  0
   56.9660   28.6470   44.3280 N   0  0  0  0  0  0  0  0  0  0  0  0
   57.4040   28.2330   42.9970 C   0  0  0  0  0  0  0  0  0  0  0  0
   55.7920   29.4950   44.5210 C   0  0  0  0  0  0  0  0  0  0  0  0
   58.9510   31.3050   47.1340 N   0  0  0  0  0  0  0  0  0  0  0  0
   59.1240   32.6210   47.0950 C   0  0  0  0  0  0  0  0  0  0  0  0
   59.5030   33.2570   48.1930 N   0  0  0  0  0  0  0  0  0  0  0  0
   59.6980   34.6070   48.2190 C   0  0  0  0  0  0  0  0  0  0  0  0
   59.5000   35.3220   47.0940 N   0  0  0  0  0  0  0  0  0  0  0  0
   59.1160   34.6970   45.9660 C   0  0  0  0  0  0  0  0  0  0  0  0
   58.9160   35.3440   44.8660 N   0  0  0  0  0  0  0  0  0  0  0  0
   58.9220   33.3430   45.9440 C   0  0  0  0  0  0  0  0  0  0  0  0
   57.9100   31.4162   42.7826 H   0  0  0  0  0  0  0  0  0  0  0  0
   57.3229   32.8843   41.9301 H   0  0  0  0  0  0  0  0  0  0  0  0
   59.0744   32.4858   41.9301 H   0  0  0  0  0  0  0  0  0  0  0  0
   58.0810   30.8130   44.0870 H   0  0  0  0  0  0  0  0  0  0  0  0
   59.6722   29.2305   48.0023 H   0  0  0  0  0  0  0  0  0  0  0  0
   59.5706   26.8562   48.5202 H   0  0  0  0  0  0  0  0  0  0  0  0
   58.2621   25.3145   47.0934 H   0  0  0  0  0  0  0  0  0  0  0  0
   57.1270   25.8600   43.9670 H   0  0  0  0  0  0  0  0  0  0  0  0
   55.1644   22.7979   45.2178 H   0  0  0  0  0  0  0  0  0  0  0  0
   54.4468   23.8547   43.9549 H   0  0  0  0  0  0  0  0  0  0  0  0
   56.2130   23.5273   43.9549 H   0  0  0  0  0  0  0  0  0  0  0  0
   58.2005   27.4801   43.0908 H   0  0  0  0  0  0  0  0  0  0  0  0
   56.5537   27.8009   42.4491 H   0  0  0  0  0  0  0  0  0  0  0  0
   57.7876   29.1063   42.4491 H   0  0  0  0  0  0  0  0  0  0  0  0
   55.6084   29.6276   45.5974 H   0  0  0  0  0  0  0  0  0  0  0  0
   55.9677   30.4760   44.0554 H   0  0  0  0  0  0  0  0  0  0  0  0
   54.9159   29.0199   44.0554 H   0  0  0  0  0  0  0  0  0  0  0  0
   60.0131   35.1060   49.1473 H   0  0  0  0  0  0  0  0  0  0  0  0
   59.6540   36.3590   47.1250 H   0  0  0  0  0  0  0  0  0  0  0  0
   58.4850   34.8420   44.0680 H   0  0  0  0  0  0  0  0  0  0  0  0
  1  2  1  0
  2  3  2  0
  3  4  1  0
  4  5  1  0
  5  6  1  0
  6  7  2  0
  7  8  1  0
  8  9  2  0
  9 10  1  0
 10 11  1  0
 11 12  1  0
 12 13  1  0
 12 14  2  0
 12 15  2  0
 10 16  2  0
 16 17  1  0
 17 18  1  0
 17 19  1  0
  5 20  2  0
 20 21  1  0
 21 22  1  0
 22 23  2  0
 23 24  1  0
 24 25  1  0
 25 26  2  3
 25 27  1  0
 27  3  1  0
 16  6  1  0
 27 21  2  0
  1 28  1  0
  1 29  1  0
  1 30  1  0
  4 31  1  0
  7 32  1  0
  8 33  1  0
  9 34  1  0
 11 35  1  0
 13 36  1  0
 13 37  1  0
 13 38  1  0
 18 39  1  0
 18 40  1  0
 18 41  1  0
 19 42  1  0
 19 43  1  0
 19 44  1  0
 23 45  1  0
 24 46  1  0
 26 47  1  0
M  END
>  <smiles>  (66) 
CN=c1[nH]c(-c2cccc(NS(C)(=O)=O)c2N(C)C)nc2nc[nH]c(=N)c12

>  <score_type>  (66) 
oracle

>  <origin>  (66) 
adg

>  <m_score__min__energy>  (66) 
-7.3799999999999999

>  <m_primary>  (66) 
energy

$$$$
66:0
     RDKit          3D

 42 44  0  0  0  0  0  0  0  0999 V2000
   61.5773   34.1679   50.3149 H   0  0  0  0  0  0  0  0  0  0  0  0
   61.5050   33.9770   49.2340 C   0  0  0  0  0  0  0  0  0  0  0  0
   62.5180   33.3380   48.6250 C   0  0  0  0  0  0  0  0  0  0  0  0
   63.4222   33.1002   49.2046 H   0  0  0  0  0  0  0  0  0  0  0  0
   62.4560   32.9370   47.1760 C   0  0  0  0  0  0  0  0  0  0  0  0
   63.4655   32.9974   46.7432 H   0  0  0  0  0  0  0  0  0  0  0  0
   62.0693   31.9090   47.1147 H   0  0  0  0  0  0  0  0  0  0  0  0
   61.5210   33.8540   46.3900 C   0  0  0  0  0  0  0  0  0  0  0  0
   61.9830   34.8468   46.2855 H   0  0  0  0  0  0  0  0  0  0  0  0
   61.3412   33.4273   45.3922 H   0  0  0  0  0  0  0  0  0  0  0  0
   60.2480   33.9800   47.1050 N   0  0  0  0  0  0  0  0  0  0  0  0
   58.9960   33.9340   46.3980 C   0  0  0  0  0  0  0  0  0  0  0  0
   58.8200   34.6710   45.3910 O   0  0  0  0  0  0  0  0  0  0  0  0
   57.8810   33.0280   46.8430 C   0  0  0  0  0  0  0  0  0  0  0  0
   56.9237   33.5644   46.7666 H   0  0  0  0  0  0  0  0  0  0  0  0
   58.0574   32.7247   47.8855 H   0  0  0  0  0  0  0  0  0  0  0  0
   57.8360   31.8310   45.9950 N   0  0  0  0  0  0  0  0  0  0  0  0
   57.1720   31.8190   44.8520 N   0  0  0  0  0  0  0  0  0  0  0  0
   57.2770   30.5950   44.3040 C   0  0  0  0  0  0  0  0  0  0  0  0
   56.6420   30.2590   42.9920 C   0  0  0  0  0  0  0  0  0  0  0  0
   55.6823   29.7512   43.1685 H   0  0  0  0  0  0  0  0  0  0  0  0
   56.4683   31.1832   42.4213 H   0  0  0  0  0  0  0  0  0  0  0  0
   57.3084   29.5955   42.4213 H   0  0  0  0  0  0  0  0  0  0  0  0
   58.0430   29.7730   45.1410 C   0  0  0  0  0  0  0  0  0  0  0  0
   58.3830   28.4770   44.9790 C   0  0  0  0  0  0  0  0  0  0  0  0
   59.2966   28.2516   44.4093 H   0  0  0  0  0  0  0  0  0  0  0  0
   57.6080   27.3440   45.5170 C   0  0  0  0  0  0  0  0  0  0  0  0
   56.2110   27.4100   45.6220 C   0  0  0  0  0  0  0  0  0  0  0  0
   55.5220   28.5400   45.1960 O   0  0  0  0  0  0  0  0  0  0  0  0
   55.5200   26.3600   46.1420 N   0  0  0  0  0  0  0  0  0  0  0  0
   56.1620   25.2440   46.5780 C   0  0  0  0  0  0  0  0  0  0  0  0
   55.5020   24.2820   47.0540 O   0  0  0  0  0  0  0  0  0  0  0  0
   57.5170   25.1670   46.5060 N   0  0  0  0  0  0  0  0  0  0  0  0
   58.2520   26.1910   45.9940 C   0  0  0  0  0  0  0  0  0  0  0  0
   59.5080   26.0910   45.9490 O   0  0  0  0  0  0  0  0  0  0  0  0
   58.3960   30.6090   46.2050 C   0  0  0  0  0  0  0  0  0  0  0  0
   59.1610   30.2750   47.2590 C   0  0  0  0  0  0  0  0  0  0  0  0
   59.3745   31.0184   48.0412 H   0  0  0  0  0  0  0  0  0  0  0  0
   59.5734   29.2584   47.3391 H   0  0  0  0  0  0  0  0  0  0  0  0
   60.2700   34.4450   48.4980 C   0  0  0  0  0  0  0  0  0  0  0  0
   60.2481   35.5448   48.5053 H   0  0  0  0  0  0  0  0  0  0  0  0
   59.3913   34.0251   49.0094 H   0  0  0  0  0  0  0  0  0  0  0  0
  1  2  1  0
  2  3  2  0
  3  4  1  0
  3  5  1  0
  5  6  1  0
  5  7  1  0
  5  8  1  0
  8  9  1  0
  8 10  1  0
  8 11  1  0
 11 12  1  0
 12 13  2  0
 12 14  1  0
 14 15  1  0
 14 16  1  0
 14 17  1  0
 17 18  1  0
 18 19  2  0
 19 20  1  0
 20 21  1  0
 20 22  1  0
 20 23  1  0
 19 24  1  0
 24 25  2  0
 25 26  1  0
 25 27  1  0
 27 28  2  0
 28 29  1  0
 28 30  1  0
 30 31  1  0
 31 32  2  0
 31 33  1  0
 33 34  1  0
 34 35  2  0
 24 36  1  0
 36 37  2  0
 37 38  1  0
 37 39  1  0
 11 40  1  0
 40 41  1  0
 40 42  1  0
 40  2  1  0
 36 17  1  0
 34 27  1  0
M  CHG  3  29  -1  30  -1  33  -1
M  END
>  <UniqueID>  (67) 
61

>  <SMILES>  (67) 
C=c1/c(=C/c2c([O-])[n-]c(=O)[n-]c2=O)c(C)nn1CC(=O)N1CC=CCC1

>  <Energy>  (67) 
89.54415065604101

>  <Genealogy>  (67) 
C=c1c(=Cc2c([O-])[n-]c(=O)[n-]c2=O)c(C)nn1CC(=O)N1CC=CCC1 (protonated)
C=c1/c(=C/c2c([O-])[n-]c(=O)[n-]c2=O)c(C)nn1CC(=O)N1CC=CCC1 (cis-trans isomerization)
C=c1/c(=C/c2c([O-])[n-]c(=O)[n-]c2=O)c(C)nn1CC(=O)N1CC=CCC1 (3D coordinates assigned)
C=c1/c(=C/c2c([O-])[n-]c(=O)[n-]c2=O)c(C)nn1CC(=O)N1CC=CCC1 (nonaromatic ring conformer: 89.54415065604101 kcal/mol)

>  <smiles>  (67) 
C=c1c(=Cc2c(O)[nH]c(=O)[nH]c2=O)c(C)nn1CC(=O)N1CC=CCC1

>  <score_type>  (67) 
oracle

>  <origin>  (67) 
adg

>  <m_score__min__energy>  (67) 
-16.280000000000001

>  <m_primary>  (67) 
energy

$$$$
67:0
     RDKit          3D

 47 48  0  0  0  0  0  0  0  0999 V2000
   55.2230   27.4230   45.9950 H   0  0  0  0  0  0  0  0  0  0  0  0
   55.1170   26.3830   46.0100 N   0  0  0  0  0  0  0  0  0  0  0  0
   56.7030   25.7110   45.8540 S   0  0  0  0  0  0  0  0  0  0  0  0
   56.7090   24.3170   46.4130 O   0  0  0  0  0  0  0  0  0  0  0  0
   57.0830   25.6490   44.4020 O   0  0  0  0  0  0  0  0  0  0  0  0
   57.8540   26.7150   46.7290 C   0  0  0  0  0  0  0  0  0  0  0  0
   58.9040   26.1270   47.4460 C   0  0  0  0  0  0  0  0  0  0  0  0
   59.0200   25.0331   47.4496 H   0  0  0  0  0  0  0  0  0  0  0  0
   59.8050   26.9250   48.1570 C   0  0  0  0  0  0  0  0  0  0  0  0
   60.6270   26.4565   48.7180 H   0  0  0  0  0  0  0  0  0  0  0  0
   59.6650   28.3230   48.1580 C   0  0  0  0  0  0  0  0  0  0  0  0
   60.6060   29.1860   48.9520 C   0  0  0  0  0  0  0  0  0  0  0  0
   61.4783   28.5888   49.2560 H   0  0  0  0  0  0  0  0  0  0  0  0
   60.0825   29.5645   49.8424 H   0  0  0  0  0  0  0  0  0  0  0  0
   61.0530   30.3170   48.1440 N   0  0  0  0  0  0  0  0  0  0  0  0
   61.1360   30.1660   47.1130 H   0  0  0  0  0  0  0  0  0  0  0  0
   61.1960   31.6410   48.6860 C   0  0  0  0  0  0  0  0  0  0  0  0
   60.7810   31.8840   49.8510 O   0  0  0  0  0  0  0  0  0  0  0  0
   61.8080   32.7370   47.9010 C   0  0  0  0  0  0  0  0  0  0  0  0
   63.0810   32.6730   47.6480 N   0  0  0  0  0  0  0  0  0  0  0  0
   63.6460   31.6080   46.9810 O   0  0  0  0  0  0  0  0  0  0  0  0
   64.6150   31.6500   46.6900 H   0  0  0  0  0  0  0  0  0  0  0  0
   60.9620   33.8360   47.2950 C   0  0  0  0  0  0  0  0  0  0  0  0
   61.5684   34.4022   46.5727 H   0  0  0  0  0  0  0  0  0  0  0  0
   60.6118   34.4985   48.1003 H   0  0  0  0  0  0  0  0  0  0  0  0
   59.7650   33.2560   46.5890 C   0  0  0  0  0  0  0  0  0  0  0  0
   58.5780   33.9990   46.4810 C   0  0  0  0  0  0  0  0  0  0  0  0
   58.5255   35.0110   46.9089 H   0  0  0  0  0  0  0  0  0  0  0  0
   57.4630   33.4600   45.8330 C   0  0  0  0  0  0  0  0  0  0  0  0
   56.5359   34.0475   45.7596 H   0  0  0  0  0  0  0  0  0  0  0  0
   57.5200   32.1720   45.2750 C   0  0  0  0  0  0  0  0  0  0  0  0
   56.4080   31.5810   44.5900 N   0  0  0  0  0  0  0  0  0  0  0  0
   56.2730   29.9170   44.1160 S   0  0  0  0  0  0  0  0  0  0  0  0
   55.5220   29.1420   45.1650 O   0  0  0  0  0  0  0  0  0  0  0  0
   55.5110   29.8480   42.8230 O   0  0  0  0  0  0  0  0  0  0  0  0
   57.8880   29.2130   43.8620 C   0  0  0  0  0  0  0  0  0  0  0  0
   58.3563   29.0088   44.8362 H   0  0  0  0  0  0  0  0  0  0  0  0
   57.7940   28.2742   43.2964 H   0  0  0  0  0  0  0  0  0  0  0  0
   58.5117   29.9209   43.2964 H   0  0  0  0  0  0  0  0  0  0  0  0
   58.7040   31.4320   45.3850 C   0  0  0  0  0  0  0  0  0  0  0  0
   58.7577   30.4216   44.9534 H   0  0  0  0  0  0  0  0  0  0  0  0
   59.8170   31.9660   46.0380 C   0  0  0  0  0  0  0  0  0  0  0  0
   60.7394   31.3725   46.1210 H   0  0  0  0  0  0  0  0  0  0  0  0
   58.6040   28.9070   47.4510 C   0  0  0  0  0  0  0  0  0  0  0  0
   58.4786   29.9998   47.4568 H   0  0  0  0  0  0  0  0  0  0  0  0
   57.7050   28.1080   46.7390 C   0  0  0  0  0  0  0  0  0  0  0  0
   56.8775   28.5746   46.1845 H   0  0  0  0  0  0  0  0  0  0  0  0
  1  2  1  0
  2  3  1  0
  3  4  2  0
  3  5  2  0
  3  6  1  0
  6  7  2  0
  7  8  1  0
  7  9  1  0
  9 10  1  0
  9 11  2  0
 11 12  1  0
 12 13  1  0
 12 14  1  0
 12 15  1  0
 15 16  1  0
 15 17  1  0
 17 18  2  0
 17 19  1  0
 19 20  2  0
 20 21  1  0
 21 22  1  0
 19 23  1  0
 23 24  1  0
 23 25  1  0
 23 26  1  0
 26 27  2  0
 27 28  1  0
 27 29  1  0
 29 30  1  0
 29 31  2  0
 31 32  1  0
 32 33  1  0
 33 34  2  0
 33 35  2  0
 33 36  1  0
 36 37  1  0
 36 38  1  0
 36 39  1  0
 31 40  1  0
 40 41  1  0
 40 42  2  0
 42 43  1  0
 11 44  1  0
 44 45  1  0
 44 46  2  0
 46 47  1  0
 46  6  1  0
 42 26  1  0
M  CHG  2   2  -1  32  -1
M  END
>  <UniqueID>  (68) 
62

>  <SMILES>  (68) 
CS(=O)(=O)[N-]c1ccc(C/C(=N\O)C(=O)NCc2ccc(S([NH-])(=O)=O)cc2)cc1

>  <Energy>  (68) 
43.90662708646524

>  <Genealogy>  (68) 
CS(=O)(=O)[N-]c1ccc(CC(=NO)C(=O)NCc2ccc(S([NH-])(=O)=O)cc2)cc1 (protonated)
CS(=O)(=O)[N-]c1ccc(C/C(=N\O)C(=O)NCc2ccc(S([NH-])(=O)=O)cc2)cc1 (cis-trans isomerization)
CS(=O)(=O)[N-]c1ccc(C/C(=N\O)C(=O)NCc2ccc(S([NH-])(=O)=O)cc2)cc1 (3D coordinates assigned)
CS(=O)(=O)[N-]c1ccc(C/C(=N\O)C(=O)NCc2ccc(S([NH-])(=O)=O)cc2)cc1 (optimized conformer: 43.90662708646524 kcal/mol)

>  <smiles>  (68) 
CS(=O)(=O)Nc1ccc(CC(=NO)C(=O)NCc2ccc(S(N)(=O)=O)cc2)cc1

>  <score_type>  (68) 
oracle

>  <origin>  (68) 
adg

>  <m_score__min__energy>  (68) 
-12.800000000000001

>  <m_primary>  (68) 
energy

$$$$
68:0
     RDKit          3D

 48 51  0  0  0  0  0  0  0  0999 V2000
   64.6170   32.6330   49.3550 C   0  0  0  0  0  0  0  0  0  0  0  0
   63.4520   33.1640   48.5900 C   0  0  0  0  0  0  0  0  0  0  0  0
   62.2460   33.5990   49.1420 C   0  0  0  0  0  0  0  0  0  0  0  0
   61.3240   33.9730   48.2140 N   0  0  0  0  0  0  0  0  0  0  0  0
   60.0710   34.4470   48.4550 C   0  0  0  0  0  0  0  0  0  0  0  0
   59.6450   34.5870   49.6330 O   0  0  0  0  0  0  0  0  0  0  0  0
   59.2540   34.7840   47.3670 C   0  0  0  0  0  0  0  0  0  0  0  0
   59.7580   34.6260   46.0620 C   0  0  0  0  0  0  0  0  0  0  0  0
   58.9150   34.9810   44.8780 C   0  0  0  0  0  0  0  0  0  0  0  0
   57.8110   34.0860   44.7940 O   0  0  0  0  0  0  0  0  0  0  0  0
   57.9150   32.8100   44.2290 C   0  0  0  0  0  0  0  0  0  0  0  0
   57.8840   32.6710   42.9750 O   0  0  0  0  0  0  0  0  0  0  0  0
   58.0570   31.6260   45.1050 C   0  0  0  0  0  0  0  0  0  0  0  0
   58.6760   31.7430   46.3610 C   0  0  0  0  0  0  0  0  0  0  0  0
   58.8000   30.6300   47.1940 C   0  0  0  0  0  0  0  0  0  0  0  0
   58.3220   29.3830   46.7820 C   0  0  0  0  0  0  0  0  0  0  0  0
   58.3990   28.3330   47.6380 F   0  0  0  0  0  0  0  0  0  0  0  0
   57.7230   29.2410   45.5180 C   0  0  0  0  0  0  0  0  0  0  0  0
   57.2080   27.9770   45.0720 N   0  0  0  0  0  0  0  0  0  0  0  0
   58.0390   26.9140   44.5810 C   0  0  0  0  0  0  0  0  0  0  0  0
   59.2710   27.1010   44.3870 O   0  0  0  0  0  0  0  0  0  0  0  0
   57.4310   25.5950   44.2090 C   0  0  0  0  0  0  0  0  0  0  0  0
   57.0540   24.8270   45.4500 C   0  0  0  0  0  0  0  0  0  0  0  0
   57.7730   23.6800   45.8130 C   0  0  0  0  0  0  0  0  0  0  0  0
   57.4140   22.9670   46.9110 N   0  0  0  0  0  0  0  0  0  0  0  0
   56.3540   23.3430   47.6700 C   0  0  0  0  0  0  0  0  0  0  0  0
   56.0370   22.6700   48.6860 O   0  0  0  0  0  0  0  0  0  0  0  0
   55.6320   24.4430   47.3360 N   0  0  0  0  0  0  0  0  0  0  0  0
   55.9520   25.1890   46.2460 C   0  0  0  0  0  0  0  0  0  0  0  0
   55.2560   26.2010   45.9640 O   0  0  0  0  0  0  0  0  0  0  0  0
   57.5750   30.3680   44.6960 C   0  0  0  0  0  0  0  0  0  0  0  0
   61.0180   34.1400   45.8740 N   0  0  0  0  0  0  0  0  0  0  0  0
   61.7800   33.8220   46.9490 C   0  0  0  0  0  0  0  0  0  0  0  0
   63.3460   33.2190   46.9010 S   0  0  0  0  0  0  0  0  0  0  0  0
   64.4194   32.7231   50.4333 H   0  0  0  0  0  0  0  0  0  0  0  0
   64.7729   31.5749   49.0979 H   0  0  0  0  0  0  0  0  0  0  0  0
   65.5179   33.2094   49.0979 H   0  0  0  0  0  0  0  0  0  0  0  0
   62.0587   33.6359   50.2253 H   0  0  0  0  0  0  0  0  0  0  0  0
   58.2354   35.1658   47.5302 H   0  0  0  0  0  0  0  0  0  0  0  0
   58.5442   36.0108   44.9878 H   0  0  0  0  0  0  0  0  0  0  0  0
   59.5193   34.9037   43.9621 H   0  0  0  0  0  0  0  0  0  0  0  0
   59.0653   32.7179   46.6898 H   0  0  0  0  0  0  0  0  0  0  0  0
   59.2764   30.7348   48.1799 H   0  0  0  0  0  0  0  0  0  0  0  0
   56.1730   27.8820   44.9640 H   0  0  0  0  0  0  0  0  0  0  0  0
   56.5305   25.7684   43.6015 H   0  0  0  0  0  0  0  0  0  0  0  0
   58.1649   25.0108   43.6345 H   0  0  0  0  0  0  0  0  0  0  0  0
   58.6313   23.3563   45.2060 H   0  0  0  0  0  0  0  0  0  0  0  0
   57.0766   30.2677   43.7205 H   0  0  0  0  0  0  0  0  0  0  0  0
  1  2  1  0
  2  3  2  0
  3  4  1  0
  4  5  1  0
  5  6  2  0
  5  7  1  0
  7  8  2  0
  8  9  1  0
  9 10  1  0
 10 11  1  0
 11 12  2  0
 11 13  1  0
 13 14  2  0
 14 15  1  0
 15 16  2  0
 16 17  1  0
 16 18  1  0
 18 19  1  0
 19 20  1  0
 20 21  2  0
 20 22  1  0
 22 23  1  0
 23 24  2  0
 24 25  1  0
 25 26  1  0
 26 27  2  0
 26 28  1  0
 28 29  1  0
 29 30  2  0
 18 31  2  0
  8 32  1  0
 32 33  2  0
 33 34  1  0
 34  2  1  0
 33  4  1  0
 31 13  1  0
 29 23  1  0
  1 35  1  0
  1 36  1  0
  1 37  1  0
  3 38  1  0
  7 39  1  0
  9 40  1  0
  9 41  1  0
 14 42  1  0
 15 43  1  0
 19 44  1  0
 22 45  1  0
 22 46  1  0
 24 47  1  0
 31 48  1  0
M  CHG  2  25  -1  28  -1
M  END
>  <UniqueID>  (69) 
63

>  <SMILES>  (69) 
Cc1cn2c(=O)cc(COC(=O)c3ccc(F)c(NC(=O)Cc4c[n-]c(=O)[n-]c4=O)c3)nc2s1

>  <Energy>  (69) 
88.98841135325341

>  <Genealogy>  (69) 
Cc1cn2c(=O)cc(COC(=O)c3ccc(F)c(NC(=O)Cc4c[n-]c(=O)[n-]c4=O)c3)nc2s1 (protonated)
Cc1cn2c(=O)cc(COC(=O)c3ccc(F)c(NC(=O)Cc4c[n-]c(=O)[n-]c4=O)c3)nc2s1 (3D coordinates assigned)
Cc1cn2c(=O)cc(COC(=O)c3ccc(F)c(NC(=O)Cc4c[n-]c(=O)[n-]c4=O)c3)nc2s1 (optimized conformer: 88.98841135325341 kcal/mol)

>  <smiles>  (69) 
Cc1cn2c(=O)cc(COC(=O)c3ccc(F)c(NC(=O)Cc4c[nH]c(=O)[nH]c4=O)c3)nc2s1

>  <score_type>  (69) 
oracle

>  <origin>  (69) 
adg

>  <m_score__min__energy>  (69) 
-14.359999999999999

>  <m_primary>  (69) 
energy

$$$$
69:0
     RDKit          3D

 75 79  0  0  1  0  0  0  0  0999 V2000
   54.7150   30.6480   52.0180 C   0  0  0  0  0  0  0  0  0  0  0  0
   56.0200   30.1170   51.9370 O   0  0  0  0  0  0  0  0  0  0  0  0
   57.1740   30.8460   52.0040 C   0  0  0  0  0  0  0  0  0  0  0  0
   57.3150   32.0610   52.6350 C   0  0  0  0  0  0  0  0  0  0  0  0
   58.5160   32.7440   52.6630 C   0  0  0  0  0  0  0  0  0  0  0  0
   59.6390   32.2070   52.0400 C   0  0  0  0  0  0  0  0  0  0  0  0
   59.5200   30.9900   51.4020 C   0  0  0  0  0  0  0  0  0  0  0  0
   60.5790   30.3690   50.7510 O   0  0  0  0  0  0  0  0  0  0  0  0
   60.5490   30.0190   49.4210 C   0  0  0  0  0  0  0  0  0  0  0  0
   60.5480   28.6900   49.0150 C   0  0  0  0  0  0  0  0  0  0  0  0
   60.5620   27.6040   49.7640 O   0  0  0  0  0  0  0  0  0  0  0  0
   60.7810   27.0040   50.9170 C   0  0  0  0  0  0  0  0  0  0  0  0
   61.7950   27.5600   51.9040 C   0  0  0  0  0  0  0  0  0  0  0  0
   62.6860   28.5250   51.4050 N   0  0  0  0  0  0  0  0  0  0  0  0
   62.9260   29.8410   52.4720 S   0  0  0  0  0  0  0  0  0  0  0  0
   61.6790   29.9410   53.3450 O   0  0  0  0  0  0  0  0  0  0  0  0
   64.0930   29.5960   53.3990 O   0  0  0  0  0  0  0  0  0  0  0  0
   63.1860   31.3130   51.6020 C   0  0  0  0  0  0  0  0  0  0  0  0
   63.6770   31.2250   50.3100 C   0  0  0  0  0  0  0  0  0  0  0  0
   63.8680   32.3560   49.5190 C   0  0  0  0  0  0  0  0  0  0  0  0
   63.5670   33.6030   50.0130 C   0  0  0  0  0  0  0  0  0  0  0  0
   63.0790   33.7150   51.2930 C   0  0  0  0  0  0  0  0  0  0  0  0
   62.8980   32.5700   52.0650 C   0  0  0  0  0  0  0  0  0  0  0  0
   62.4640   32.7770   53.3320 F   0  0  0  0  0  0  0  0  0  0  0  0
   60.5240   28.5230   47.6510 N   0  0  0  0  0  0  0  0  0  0  0  0
   60.5020   29.5140   46.7810 C   0  0  0  0  0  0  0  0  0  0  0  0
   60.4810   29.2400   45.4990 N   0  0  0  0  0  0  0  0  0  0  0  0
   59.2190   29.3920   44.8620 C   0  0  0  0  0  0  0  0  0  0  0  0
   58.6500   28.2490   44.3300 C   0  0  0  0  0  0  0  0  0  0  0  0
   57.4240   28.3800   43.7080 C   0  0  0  0  0  0  0  0  0  0  0  0
   56.7750   29.6180   43.6170 C   0  0  0  0  0  0  0  0  0  0  0  0
   55.5310   29.6790   42.9710 O   0  0  0  0  0  0  0  0  0  0  0  0
   57.3630   30.7410   44.1570 C   0  0  0  0  0  0  0  0  0  0  0  0
   58.5810   30.6010   44.7720 C   0  0  0  0  0  0  0  0  0  0  0  0
   60.5020   30.7870   47.2000 N   0  0  0  0  0  0  0  0  0  0  0  0
   60.5240   31.0660   48.5100 C   0  0  0  0  0  0  0  0  0  0  0  0
   60.5230   32.3060   48.8590 N   0  0  0  0  0  0  0  0  0  0  0  0
   60.8020   33.6260   47.8740 S   0  0  0  0  0  0  0  0  0  0  0  0
   61.1470   34.9440   48.3640 O   0  0  0  0  0  0  0  0  0  0  0  0
   61.9230   33.2300   46.9380 O   0  0  0  0  0  0  0  0  0  0  0  0
   59.3960   33.8160   46.8350 C   0  0  0  0  0  0  0  0  0  0  0  0
   59.4550   34.4590   45.6190 C   0  0  0  0  0  0  0  0  0  0  0  0
   58.3400   34.6020   44.8110 C   0  0  0  0  0  0  0  0  0  0  0  0
   57.1360   34.1000   45.2100 C   0  0  0  0  0  0  0  0  0  0  0  0
   57.0400   33.4430   46.4360 C   0  0  0  0  0  0  0  0  0  0  0  0
   58.1630   33.3170   47.2150 C   0  0  0  0  0  0  0  0  0  0  0  0
   58.3020   30.3240   51.3880 C   0  0  0  0  0  0  0  0  0  0  0  0
   54.4311   30.7635   53.0744 H   0  0  0  0  0  0  0  0  0  0  0  0
   54.6869   31.6291   51.5214 H   0  0  0  0  0  0  0  0  0  0  0  0
   54.0099   29.9653   51.5214 H   0  0  0  0  0  0  0  0  0  0  0  0
   56.4409   32.5040   53.1346 H   0  0  0  0  0  0  0  0  0  0  0  0
   58.5847   33.7134   53.1783 H   0  0  0  0  0  0  0  0  0  0  0  0
   60.6003   32.7415   52.0562 H   0  0  0  0  0  0  0  0  0  0  0  0
   59.8154   26.9735   51.4431 H   0  0  0  0  0  0  0  0  0  0  0  0
   61.2348   26.0492   50.6128 H   0  0  0  0  0  0  0  0  0  0  0  0
   61.2378   28.0166   52.7353 H   0  0  0  0  0  0  0  0  0  0  0  0
   62.4222   26.7039   52.1931 H   0  0  0  0  0  0  0  0  0  0  0  0
   62.2150   28.9140   50.5130 H   0  0  0  0  0  0  0  0  0  0  0  0
   63.9228   30.2355   49.8972 H   0  0  0  0  0  0  0  0  0  0  0  0
   64.2606   32.2508   48.4968 H   0  0  0  0  0  0  0  0  0  0  0  0
   63.7147   34.4991   49.3923 H   0  0  0  0  0  0  0  0  0  0  0  0
   62.8325   34.7044   51.7058 H   0  0  0  0  0  0  0  0  0  0  0  0
   60.5240   27.5360   47.2590 H   0  0  0  0  0  0  0  0  0  0  0  0
   59.1543   27.2739   44.3996 H   0  0  0  0  0  0  0  0  0  0  0  0
   56.9453   27.4902   43.2733 H   0  0  0  0  0  0  0  0  0  0  0  0
   55.3160   28.9970   42.2650 H   0  0  0  0  0  0  0  0  0  0  0  0
   56.8695   31.7222   44.0966 H   0  0  0  0  0  0  0  0  0  0  0  0
   59.0617   31.4894   45.2076 H   0  0  0  0  0  0  0  0  0  0  0  0
   60.4840   31.5580   46.5230 H   0  0  0  0  0  0  0  0  0  0  0  0
   60.4166   34.8713   45.2794 H   0  0  0  0  0  0  0  0  0  0  0  0
   58.4251   35.1215   43.8452 H   0  0  0  0  0  0  0  0  0  0  0  0
   56.2485   34.2126   44.5700 H   0  0  0  0  0  0  0  0  0  0  0  0
   56.0776   33.0314   46.7742 H   0  0  0  0  0  0  0  0  0  0  0  0
   58.0791   32.7979   48.1812 H   0  0  0  0  0  0  0  0  0  0  0  0
   58.2293   29.3544   50.8736 H   0  0  0  0  0  0  0  0  0  0  0  0
  1  2  1  0
  2  3  1  0
  3  4  2  0
  4  5  1  0
  5  6  2  0
  6  7  1  0
  7  8  1  0
  8  9  1  0
  9 10  2  0
 10 11  1  0
 11 12  1  0
 12 13  1  0
 13 14  1  0
 14 15  1  0
 15 16  2  0
 15 17  2  0
 15 18  1  0
 18 19  2  0
 19 20  1  0
 20 21  2  0
 21 22  1  0
 22 23  2  0
 23 24  1  0
 10 25  1  0
 25 26  1  0
 26 27  2  0
 27 28  1  0
 28 29  2  0
 29 30  1  0
 30 31  2  0
 31 32  1  0
 31 33  1  0
 33 34  2  0
 26 35  1  0
 35 36  1  0
 36 37  2  0
 37 38  1  0
 38 39  2  0
 38 40  2  0
 38 41  1  0
 41 42  2  0
 42 43  1  0
 43 44  2  0
 44 45  1  0
 45 46  2  0
  7 47  2  0
 47  3  1  0
 36  9  1  0
 46 41  1  0
 23 18  1  0
 34 28  1  0
  1 48  1  0
  1 49  1  0
  1 50  1  0
  4 51  1  0
  5 52  1  0
  6 53  1  0
 12 54  1  0
 12 55  1  0
 13 56  1  0
 13 57  1  0
 14 58  1  0
 19 59  1  0
 20 60  1  0
 21 61  1  0
 22 62  1  0
 25 63  1  0
 29 64  1  0
 30 65  1  0
 32 66  1  0
 33 67  1  0
 34 68  1  0
 35 69  1  0
 42 70  1  0
 43 71  1  0
 44 72  1  0
 45 73  1  0
 46 74  1  0
 47 75  1  0
M  END
>  <smiles>  (70) 
COc1cccc(Oc2c(OCCNS(=O)(=O)c3ccccc3F)[nH]c(=Nc3ccc(O)cc3)[nH]c2=NS(=O)(=O)c2ccccc2)c1

>  <score_type>  (70) 
oracle

>  <origin>  (70) 
adg

>  <m_score__min__energy>  (70) 
-11.65

>  <m_primary>  (70) 
energy

$$$$
70:0
     RDKit          3D

 28 30  0  0  0  0  0  0  0  0999 V2000
   56.5620   29.3020   43.0300 O   0  0  0  0  0  0  0  0  0  0  0  0
   56.6590   29.5050   44.2700 C   0  0  0  0  0  0  0  0  0  0  0  0
   56.0750   28.5850   45.2030 N   0  0  0  0  0  0  0  0  0  0  0  0
   56.7220   27.4570   45.8100 C   0  0  0  0  0  0  0  0  0  0  0  0
   58.0960   27.4660   46.1150 C   0  0  0  0  0  0  0  0  0  0  0  0
   58.6900   26.3570   46.7270 C   0  0  0  0  0  0  0  0  0  0  0  0
   60.4040   26.3750   47.1010 Cl  0  0  0  0  0  0  0  0  0  0  0  0
   57.9160   25.2410   47.0540 C   0  0  0  0  0  0  0  0  0  0  0  0
   56.5450   25.2320   46.7790 C   0  0  0  0  0  0  0  0  0  0  0  0
   55.5860   23.8250   47.2120 Cl  0  0  0  0  0  0  0  0  0  0  0  0
   55.9470   26.3410   46.1640 C   0  0  0  0  0  0  0  0  0  0  0  0
   54.5820   26.3340   45.8970 O   0  0  0  0  0  0  0  0  0  0  0  0
   57.3230   30.7200   44.7750 C   0  0  0  0  0  0  0  0  0  0  0  0
   57.7770   30.9390   46.3920 S   0  0  0  0  0  0  0  0  0  0  0  0
   58.4290   32.4670   46.1690 C   0  0  0  0  0  0  0  0  0  0  0  0
   59.0180   33.2970   47.1210 C   0  0  0  0  0  0  0  0  0  0  0  0
   59.5000   34.5460   46.7030 C   0  0  0  0  0  0  0  0  0  0  0  0
   59.3860   34.9360   45.3550 C   0  0  0  0  0  0  0  0  0  0  0  0
   58.7890   34.0830   44.4140 C   0  0  0  0  0  0  0  0  0  0  0  0
   58.3080   32.8370   44.8370 C   0  0  0  0  0  0  0  0  0  0  0  0
   57.6880   31.8600   44.0410 C   0  0  0  0  0  0  0  0  0  0  0  0
   57.4100   32.0640   42.3140 Cl  0  0  0  0  0  0  0  0  0  0  0  0
   58.7054   28.3487   45.8711 H   0  0  0  0  0  0  0  0  0  0  0  0
   58.3861   24.3673   47.5289 H   0  0  0  0  0  0  0  0  0  0  0  0
   59.1025   32.9812   48.1713 H   0  0  0  0  0  0  0  0  0  0  0  0
   59.9691   35.2238   47.4314 H   0  0  0  0  0  0  0  0  0  0  0  0
   59.7680   35.9173   45.0368 H   0  0  0  0  0  0  0  0  0  0  0  0
   58.7001   34.3879   43.3609 H   0  0  0  0  0  0  0  0  0  0  0  0
  1  2  2  0
  2  3  1  0
  3  4  1  0
  4  5  2  0
  5  6  1  0
  6  7  1  0
  6  8  2  0
  8  9  1  0
  9 10  1  0
  9 11  2  0
 11 12  1  0
  2 13  1  0
 13 14  1  0
 14 15  1  0
 15 16  2  0
 16 17  1  0
 17 18  2  0
 18 19  1  0
 19 20  2  0
 20 21  1  0
 21 22  1  0
 11  4  1  0
 21 13  2  0
 20 15  1  0
  5 23  1  0
  8 24  1  0
 16 25  1  0
 17 26  1  0
 18 27  1  0
 19 28  1  0
M  CHG  2   3  -1  12  -1
M  END
>  <UniqueID>  (71) 
64

>  <SMILES>  (71) 
O=C([N-]c1cc(Cl)cc(Cl)c1[O-])c1sc2ccccc2c1Cl

>  <Energy>  (71) 
67.05721776239777

>  <Genealogy>  (71) 
O=C([N-]c1cc(Cl)cc(Cl)c1[O-])c1sc2ccccc2c1Cl (protonated)
O=C([N-]c1cc(Cl)cc(Cl)c1[O-])c1sc2ccccc2c1Cl (3D coordinates assigned)
O=C([N-]c1cc(Cl)cc(Cl)c1[O-])c1sc2ccccc2c1Cl (optimized conformer: 67.05721776239777 kcal/mol)

>  <smiles>  (71) 
O=C(Nc1cc(Cl)cc(Cl)c1O)c1sc2ccccc2c1Cl

>  <score_type>  (71) 
oracle

>  <origin>  (71) 
adg

>  <m_score__min__energy>  (71) 
-14.640000000000001

>  <m_primary>  (71) 
energy

$$$$
71:0
     RDKit          3D

 33 35  0  0  0  0  0  0  0  0999 V2000
   54.6596   29.8644   55.6996 H   0  0  0  0  0  0  0  0  0  0  0  0
   53.9560   30.0280   54.8700 C   0  0  0  0  0  0  0  0  0  0  0  0
   52.8726   29.9521   55.0446 H   0  0  0  0  0  0  0  0  0  0  0  0
   54.4190   30.3200   53.6460 C   0  0  0  0  0  0  0  0  0  0  0  0
   53.6650   30.5570   52.4840 C   0  0  0  0  0  0  0  0  0  0  0  0
   52.3510   30.3940   52.2330 C   0  0  0  0  0  0  0  0  0  0  0  0
   51.7424   29.9326   53.0247 H   0  0  0  0  0  0  0  0  0  0  0  0
   51.6590   30.7790   50.9930 C   0  0  0  0  0  0  0  0  0  0  0  0
   51.6230   30.0350   49.8720 N   0  0  0  0  0  0  0  0  0  0  0  0
   51.0150   30.8460   48.9790 C   0  0  0  0  0  0  0  0  0  0  0  0
   50.7800   30.4940   47.7940 O   0  0  0  0  0  0  0  0  0  0  0  0
   50.6900   32.0680   49.4520 N   0  0  0  0  0  0  0  0  0  0  0  0
   51.1180   32.0130   50.7240 C   0  0  0  0  0  0  0  0  0  0  0  0
   51.0220   33.0710   51.6190 O   0  0  0  0  0  0  0  0  0  0  0  0
   54.5590   31.0050   51.5260 C   0  0  0  0  0  0  0  0  0  0  0  0
   54.3159   31.3272   50.5027 H   0  0  0  0  0  0  0  0  0  0  0  0
   55.8120   30.9700   52.1000 C   0  0  0  0  0  0  0  0  0  0  0  0
   57.0840   31.3420   51.3990 C   0  0  0  0  0  0  0  0  0  0  0  0
   57.8605   31.5691   52.1443 H   0  0  0  0  0  0  0  0  0  0  0  0
   57.4145   30.5029   50.7692 H   0  0  0  0  0  0  0  0  0  0  0  0
   56.9103   32.2270   50.7692 H   0  0  0  0  0  0  0  0  0  0  0  0
   55.7320   30.5440   53.3790 N   0  0  0  0  0  0  0  0  0  0  0  0
   56.8400   30.4440   54.2910 C   0  0  0  0  0  0  0  0  0  0  0  0
   57.5540   31.5870   54.6740 C   0  0  0  0  0  0  0  0  0  0  0  0
   57.2609   32.5749   54.2891 H   0  0  0  0  0  0  0  0  0  0  0  0
   58.6380   31.4690   55.5450 C   0  0  0  0  0  0  0  0  0  0  0  0
   59.2012   32.3618   55.8545 H   0  0  0  0  0  0  0  0  0  0  0  0
   59.0010   30.2070   56.0200 C   0  0  0  0  0  0  0  0  0  0  0  0
   59.8535   30.1037   56.7075 H   0  0  0  0  0  0  0  0  0  0  0  0
   58.3020   29.1040   55.6340 N   0  0  0  0  0  0  0  0  0  0  0  0
   58.5870   28.1670   55.9960 H   0  0  0  0  0  0  0  0  0  0  0  0
   57.2420   29.1960   54.7850 C   0  0  0  0  0  0  0  0  0  0  0  0
   56.6991   28.2873   54.4857 H   0  0  0  0  0  0  0  0  0  0  0  0
  1  2  1  0
  2  3  1  0
  2  4  2  0
  4  5  1  0
  5  6  2  0
  6  7  1  0
  6  8  1  0
  8  9  1  0
  9 10  1  0
 10 11  2  0
 10 12  1  0
 12 13  1  0
 13 14  1  0
  5 15  1  0
 15 16  1  0
 15 17  2  0
 17 18  1  0
 18 19  1  0
 18 20  1  0
 18 21  1  0
 17 22  1  0
 22 23  1  0
 23 24  2  0
 24 25  1  0
 24 26  1  0
 26 27  1  0
 26 28  2  0
 28 29  1  0
 28 30  1  0
 30 31  1  0
 30 32  2  0
 32 33  1  0
 22  4  1  0
 32 23  1  0
 13  8  2  0
M  CHG  4   9  -1  12  -1  14  -1  30   1
M  END
>  <UniqueID>  (72) 
65

>  <SMILES>  (72) 
C=c1/c(=C\c2[n-]c(=O)[n-]c2[O-])cc(C)n1-c1ccc[nH+]c1

>  <Energy>  (72) 
110.58034211339074

>  <Genealogy>  (72) 
C=c1c(=Cc2[n-]c(=O)[n-]c2[O-])cc(C)n1-c1ccc[nH+]c1 (protonated)
C=c1/c(=C\c2[n-]c(=O)[n-]c2[O-])cc(C)n1-c1ccc[nH+]c1 (cis-trans isomerization)
C=c1/c(=C\c2[n-]c(=O)[n-]c2[O-])cc(C)n1-c1ccc[nH+]c1 (3D coordinates assigned)
C=c1/c(=C\c2[n-]c(=O)[n-]c2[O-])cc(C)n1-c1ccc[nH+]c1 (optimized conformer: 110.58034211339074 kcal/mol)

>  <smiles>  (72) 
C=c1c(=Cc2[nH]c(=O)[nH]c2O)cc(C)n1-c1cccnc1

>  <score_type>  (72) 
oracle

>  <origin>  (72) 
adg

>  <m_score__min__energy>  (72) 
-14.19

>  <m_primary>  (72) 
energy

$$$$
72:0
     RDKit          3D

 43 45  0  0  0  0  0  0  0  0999 V2000
   55.9800   24.2870   44.5820 C   0  0  0  0  0  0  0  0  0  0  0  0
   55.1530   24.9240   45.6570 C   0  0  0  0  0  0  0  0  0  0  0  0
   54.3660   24.2050   46.3280 O   0  0  0  0  0  0  0  0  0  0  0  0
   55.2540   26.3190   45.9660 N   0  0  0  0  0  0  0  0  0  0  0  0
   56.4310   27.1270   45.8190 C   0  0  0  0  0  0  0  0  0  0  0  0
   57.6450   26.6500   46.3270 C   0  0  0  0  0  0  0  0  0  0  0  0
   58.8040   27.4230   46.2300 C   0  0  0  0  0  0  0  0  0  0  0  0
   58.7580   28.6820   45.6280 C   0  0  0  0  0  0  0  0  0  0  0  0
   57.5520   29.1750   45.1200 C   0  0  0  0  0  0  0  0  0  0  0  0
   57.5250   30.4720   44.5150 N   0  0  0  0  0  0  0  0  0  0  0  0
   57.6860   31.6970   45.2410 C   0  0  0  0  0  0  0  0  0  0  0  0
   56.7150   32.4950   45.3170 O   0  0  0  0  0  0  0  0  0  0  0  0
   58.9580   32.0080   45.9790 C   0  0  0  0  0  0  0  0  0  0  0  0
   59.2160   33.4630   45.9270 N   0  0  0  0  0  0  0  0  0  0  0  0
   58.5300   34.2090   46.9990 C   0  0  0  0  0  0  0  0  0  0  0  0
   59.0400   33.8150   48.3920 C   0  0  0  0  0  0  0  0  0  0  0  0
   60.5430   33.7420   48.4430 C   0  0  0  0  0  0  0  0  0  0  0  0
   61.1830   33.6690   49.6900 C   0  0  0  0  0  0  0  0  0  0  0  0
   62.5730   33.5490   49.7650 C   0  0  0  0  0  0  0  0  0  0  0  0
   63.3350   33.4930   48.5960 C   0  0  0  0  0  0  0  0  0  0  0  0
   64.7180   33.3790   48.6730 O   0  0  0  0  0  0  0  0  0  0  0  0
   62.7080   33.5520   47.3480 C   0  0  0  0  0  0  0  0  0  0  0  0
   61.3110   33.6590   47.2610 C   0  0  0  0  0  0  0  0  0  0  0  0
   60.6600   33.7800   45.9020 C   0  0  0  0  0  0  0  0  0  0  0  0
   56.3750   28.4150   45.2540 C   0  0  0  0  0  0  0  0  0  0  0  0
   55.1540   28.9630   44.8720 O   0  0  0  0  0  0  0  0  0  0  0  0
   56.7718   23.6771   45.0414 H   0  0  0  0  0  0  0  0  0  0  0  0
   55.3396   23.6466   43.9577 H   0  0  0  0  0  0  0  0  0  0  0  0
   56.4357   25.0697   43.9577 H   0  0  0  0  0  0  0  0  0  0  0  0
   57.6863   25.6604   46.8055 H   0  0  0  0  0  0  0  0  0  0  0  0
   59.7548   27.0394   46.6285 H   0  0  0  0  0  0  0  0  0  0  0  0
   59.6731   29.2878   45.5531 H   0  0  0  0  0  0  0  0  0  0  0  0
   58.8603   31.6904   47.0276 H   0  0  0  0  0  0  0  0  0  0  0  0
   59.7949   31.4706   45.5090 H   0  0  0  0  0  0  0  0  0  0  0  0
   58.7025   35.2850   46.8491 H   0  0  0  0  0  0  0  0  0  0  0  0
   57.4582   33.9666   46.9489 H   0  0  0  0  0  0  0  0  0  0  0  0
   58.6959   34.5635   49.1209 H   0  0  0  0  0  0  0  0  0  0  0  0
   58.6433   32.8168   48.6291 H   0  0  0  0  0  0  0  0  0  0  0  0
   60.5868   33.7065   50.6136 H   0  0  0  0  0  0  0  0  0  0  0  0
   63.0678   33.4986   50.7461 H   0  0  0  0  0  0  0  0  0  0  0  0
   63.3123   33.5144   46.4296 H   0  0  0  0  0  0  0  0  0  0  0  0
   60.7869   34.8118   45.5423 H   0  0  0  0  0  0  0  0  0  0  0  0
   61.1469   33.0523   45.2361 H   0  0  0  0  0  0  0  0  0  0  0  0
  1  2  1  0
  2  3  2  0
  2  4  1  0
  4  5  1  0
  5  6  2  0
  6  7  1  0
  7  8  2  0
  8  9  1  0
  9 10  1  0
 10 11  1  0
 11 12  2  0
 11 13  1  0
 13 14  1  0
 14 15  1  0
 15 16  1  0
 16 17  1  0
 17 18  2  0
 18 19  1  0
 19 20  2  0
 20 21  1  0
 20 22  1  0
 22 23  2  0
 23 24  1  0
  9 25  2  0
 25 26  1  0
 25  5  1  0
 24 14  1  0
 23 17  1  0
  1 27  1  0
  1 28  1  0
  1 29  1  0
  6 30  1  0
  7 31  1  0
  8 32  1  0
 13 33  1  0
 13 34  1  0
 15 35  1  0
 15 36  1  0
 16 37  1  0
 16 38  1  0
 18 39  1  0
 19 40  1  0
 22 41  1  0
 24 42  1  0
 24 43  1  0
M  CHG  4   4  -1  10  -1  21  -1  26  -1
M  END
>  <UniqueID>  (73) 
66

>  <SMILES>  (73) 
CC(=O)[N-]c1cccc([N-]C(=O)CN2CCc3ccc([O-])cc3C2)c1[O-]

>  <Energy>  (73) 
59.82864643206368

>  <Genealogy>  (73) 
CC(=O)[N-]c1cccc([N-]C(=O)CN2CCc3ccc([O-])cc3C2)c1[O-] (protonated)
CC(=O)[N-]c1cccc([N-]C(=O)CN2CCc3ccc([O-])cc3C2)c1[O-] (3D coordinates assigned)
CC(=O)[N-]c1cccc([N-]C(=O)CN2CCc3ccc([O-])cc3C2)c1[O-] (nonaromatic ring conformer: 59.82864643206368 kcal/mol)

>  <smiles>  (73) 
CC(=O)Nc1cccc(NC(=O)CN2CCc3ccc(O)cc3C2)c1O

>  <score_type>  (73) 
oracle

>  <origin>  (73) 
adg

>  <m_score__min__energy>  (73) 
-16.32

>  <m_primary>  (73) 
energy

$$$$
73:0
     RDKit          3D

 29 30  0  0  0  0  0  0  0  0999 V2000
   56.2600   29.7020   42.5790 C   0  0  0  0  0  0  0  0  0  0  0  0
   56.1660   29.9270   44.0580 C   0  0  0  0  0  0  0  0  0  0  0  0
   55.1660   29.4630   44.6710 O   0  0  0  0  0  0  0  0  0  0  0  0
   57.2110   30.6620   44.8200 C   0  0  0  0  0  0  0  0  0  0  0  0
   57.5370   31.9690   44.4130 C   0  0  0  0  0  0  0  0  0  0  0  0
   58.4950   32.7130   45.1030 C   0  0  0  0  0  0  0  0  0  0  0  0
   59.1390   32.1660   46.2110 C   0  0  0  0  0  0  0  0  0  0  0  0
   58.8430   30.8660   46.6200 C   0  0  0  0  0  0  0  0  0  0  0  0
   57.9020   30.0880   45.9160 C   0  0  0  0  0  0  0  0  0  0  0  0
   57.6240   28.7360   46.3120 N   0  0  0  0  0  0  0  0  0  0  0  0
   57.8470   27.5460   45.5460 C   0  0  0  0  0  0  0  0  0  0  0  0
   58.3470   27.6150   44.3910 O   0  0  0  0  0  0  0  0  0  0  0  0
   57.4670   26.2320   46.1120 C   0  0  0  0  0  0  0  0  0  0  0  0
   56.1170   25.8380   46.2670 C   0  0  0  0  0  0  0  0  0  0  0  0
   55.0510   26.6960   45.9880 O   0  0  0  0  0  0  0  0  0  0  0  0
   55.8310   24.5950   46.7330 N   0  0  0  0  0  0  0  0  0  0  0  0
   56.8100   23.7240   47.0780 C   0  0  0  0  0  0  0  0  0  0  0  0
   56.5110   22.5800   47.5090 O   0  0  0  0  0  0  0  0  0  0  0  0
   58.1110   24.0850   46.9650 N   0  0  0  0  0  0  0  0  0  0  0  0
   58.4620   25.3090   46.4940 C   0  0  0  0  0  0  0  0  0  0  0  0
   59.6840   25.5960   46.3870 O   0  0  0  0  0  0  0  0  0  0  0  0
   56.6774   28.7028   42.3859 H   0  0  0  0  0  0  0  0  0  0  0  0
   55.2570   29.7728   42.1329 H   0  0  0  0  0  0  0  0  0  0  0  0
   56.9145   30.4653   42.1329 H   0  0  0  0  0  0  0  0  0  0  0  0
   57.0310   32.4092   43.5411 H   0  0  0  0  0  0  0  0  0  0  0  0
   58.7420   33.7325   44.7718 H   0  0  0  0  0  0  0  0  0  0  0  0
   59.8816   32.7602   46.7637 H   0  0  0  0  0  0  0  0  0  0  0  0
   59.3489   30.4437   47.5007 H   0  0  0  0  0  0  0  0  0  0  0  0
   55.1450   27.5460   45.4480 H   0  0  0  0  0  0  0  0  0  0  0  0
  1  2  1  0
  2  3  2  0
  2  4  1  0
  4  5  2  0
  5  6  1  0
  6  7  2  0
  7  8  1  0
  8  9  2  0
  9 10  1  0
 10 11  1  0
 11 12  2  0
 11 13  1  0
 13 14  2  0
 14 15  1  0
 14 16  1  0
 16 17  1  0
 17 18  2  0
 17 19  1  0
 19 20  1  0
 20 21  2  0
  9  4  1  0
 20 13  1  0
  1 22  1  0
  1 23  1  0
  1 24  1  0
  5 25  1  0
  6 26  1  0
  7 27  1  0
  8 28  1  0
 15 29  1  0
M  CHG  3  10  -1  16  -1  19  -1
M  END
>  <UniqueID>  (74) 
67

>  <SMILES>  (74) 
CC(=O)c1ccccc1[N-]C(=O)c1c(O)[n-]c(=O)[n-]c1=O

>  <Energy>  (74) 
45.19893509027732

>  <Genealogy>  (74) 
CC(=O)c1ccccc1[N-]C(=O)c1c(O)[n-]c(=O)[n-]c1=O (protonated)
CC(=O)c1ccccc1[N-]C(=O)c1c(O)[n-]c(=O)[n-]c1=O (3D coordinates assigned)
CC(=O)c1ccccc1[N-]C(=O)c1c(O)[n-]c(=O)[n-]c1=O (optimized conformer: 45.19893509027732 kcal/mol)

>  <smiles>  (74) 
CC(=O)c1ccccc1NC(=O)c1c(O)[nH]c(=O)[nH]c1=O

>  <score_type>  (74) 
oracle

>  <origin>  (74) 
adg

>  <m_score__min__energy>  (74) 
-13.31

>  <m_primary>  (74) 
energy

$$$$
74:0
     RDKit          3D

 44 46  0  0  0  0  0  0  0  0999 V2000
   59.8083   26.0983   46.9197 H   0  0  0  0  0  0  0  0  0  0  0  0
   59.5780   27.1100   47.2850 C   0  0  0  0  0  0  0  0  0  0  0  0
   59.9950   27.7340   48.7910 S   0  0  0  0  0  0  0  0  0  0  0  0
   59.2770   29.2300   48.4890 C   0  0  0  0  0  0  0  0  0  0  0  0
   59.2200   30.2360   49.3100 N   0  0  0  0  0  0  0  0  0  0  0  0
   59.1190   31.6140   48.9310 C   0  0  0  0  0  0  0  0  0  0  0  0
   58.4980   32.4100   49.6820 O   0  0  0  0  0  0  0  0  0  0  0  0
   59.6680   32.1010   47.7000 N   0  0  0  0  0  0  0  0  0  0  0  0
   61.0410   32.4540   47.4660 C   0  0  0  0  0  0  0  0  0  0  0  0
   62.0310   31.6320   48.0240 C   0  0  0  0  0  0  0  0  0  0  0  0
   61.7385   30.7596   48.6268 H   0  0  0  0  0  0  0  0  0  0  0  0
   63.3830   31.9100   47.8220 C   0  0  0  0  0  0  0  0  0  0  0  0
   64.1503   31.2503   48.2534 H   0  0  0  0  0  0  0  0  0  0  0  0
   63.7620   33.0230   47.0740 C   0  0  0  0  0  0  0  0  0  0  0  0
   64.8285   33.2352   46.9080 H   0  0  0  0  0  0  0  0  0  0  0  0
   62.7920   33.8690   46.5350 C   0  0  0  0  0  0  0  0  0  0  0  0
   63.0992   34.7389   45.9360 H   0  0  0  0  0  0  0  0  0  0  0  0
   61.4250   33.6190   46.7510 C   0  0  0  0  0  0  0  0  0  0  0  0
   60.4250   34.6170   46.2350 C   0  0  0  0  0  0  0  0  0  0  0  0
   59.9294   35.1116   47.0834 H   0  0  0  0  0  0  0  0  0  0  0  0
   60.9416   35.3704   45.6221 H   0  0  0  0  0  0  0  0  0  0  0  0
   59.6727   34.0989   45.6221 H   0  0  0  0  0  0  0  0  0  0  0  0
   58.7010   29.2590   47.2690 N   0  0  0  0  0  0  0  0  0  0  0  0
   58.1850   30.0880   46.8960 H   0  0  0  0  0  0  0  0  0  0  0  0
   58.8900   28.0970   46.5800 C   0  0  0  0  0  0  0  0  0  0  0  0
   58.3660   27.8720   45.1880 C   0  0  0  0  0  0  0  0  0  0  0  0
   58.5059   26.8131   44.9250 H   0  0  0  0  0  0  0  0  0  0  0  0
   58.9240   28.5338   44.5092 H   0  0  0  0  0  0  0  0  0  0  0  0
   56.9020   28.2130   45.0610 C   0  0  0  0  0  0  0  0  0  0  0  0
   56.0660   27.4490   45.6120 O   0  0  0  0  0  0  0  0  0  0  0  0
   56.4020   29.3730   44.3700 N   0  0  0  0  0  0  0  0  0  0  0  0
   56.9070   30.5700   44.2720 C   0  0  0  0  0  0  0  0  0  0  0  0
   57.0190   31.3930   45.3510 N   0  0  0  0  0  0  0  0  0  0  0  0
   57.5380   32.6480   45.2600 C   0  0  0  0  0  0  0  0  0  0  0  0
   57.5690   33.5170   46.4770 C   0  0  0  0  0  0  0  0  0  0  0  0
   57.5465   32.8867   47.3783 H   0  0  0  0  0  0  0  0  0  0  0  0
   58.4892   34.1197   46.4739 H   0  0  0  0  0  0  0  0  0  0  0  0
   56.6941   34.1837   46.4739 H   0  0  0  0  0  0  0  0  0  0  0  0
   57.9800   33.1260   44.0200 C   0  0  0  0  0  0  0  0  0  0  0  0
   58.4045   34.1371   43.9329 H   0  0  0  0  0  0  0  0  0  0  0  0
   57.8760   32.3060   42.8970 C   0  0  0  0  0  0  0  0  0  0  0  0
   58.2168   32.6693   41.9163 H   0  0  0  0  0  0  0  0  0  0  0  0
   57.3390   31.0240   43.0190 C   0  0  0  0  0  0  0  0  0  0  0  0
   57.2553   30.3732   42.1361 H   0  0  0  0  0  0  0  0  0  0  0  0
  1  2  1  0
  2  3  1  0
  3  4  1  0
  4  5  2  3
  5  6  1  0
  6  7  2  0
  6  8  1  0
  8  9  1  0
  9 10  2  0
 10 11  1  0
 10 12  1  0
 12 13  1  0
 12 14  2  0
 14 15  1  0
 14 16  1  0
 16 17  1  0
 16 18  2  0
 18 19  1  0
 19 20  1  0
 19 21  1  0
 19 22  1  0
  4 23  1  0
 23 24  1  0
 23 25  1  0
 25 26  1  0
 26 27  1  0
 26 28  1  0
 26 29  1  0
 29 30  2  0
 29 31  1  0
 31 32  2  0
 32 33  1  0
 33 34  1  0
 34 35  1  0
 35 36  1  0
 35 37  1  0
 35 38  1  0
 34 39  2  0
 39 40  1  0
 39 41  1  0
 41 42  1  0
 41 43  2  0
 43 44  1  0
 25  2  2  0
 43 32  1  0
 18  9  1  0
M  CHG  2   8  -1  33  -1
M  END
>  <UniqueID>  (75) 
68

>  <SMILES>  (75) 
Cc1ccc/c(=N/C(=O)Cc2csc(=NC(=O)[N-]c3ccccc3C)[nH]2)[n-]1

>  <Energy>  (75) 
86.66605450011441

>  <Genealogy>  (75) 
Cc1cccc(=NC(=O)Cc2csc(=NC(=O)[N-]c3ccccc3C)[nH]2)[n-]1 (protonated)
Cc1ccc/c(=N/C(=O)Cc2csc(=NC(=O)[N-]c3ccccc3C)[nH]2)[n-]1 (cis-trans isomerization)
Cc1ccc/c(=N/C(=O)Cc2csc(=NC(=O)[N-]c3ccccc3C)[nH]2)[n-]1 (3D coordinates assigned)
Cc1ccc/c(=N/C(=O)Cc2csc(=NC(=O)[N-]c3ccccc3C)[nH]2)[n-]1 (optimized conformer: 86.66605450011441 kcal/mol)

>  <smiles>  (75) 
Cc1cccc(=NC(=O)Cc2csc(=NC(=O)Nc3ccccc3C)[nH]2)[nH]1

>  <score_type>  (75) 
oracle

>  <origin>  (75) 
adg

>  <m_score__min__energy>  (75) 
-12.35

>  <m_primary>  (75) 
energy

$$$$
75:0
     RDKit          3D

 49 51  0  0  0  0  0  0  0  0999 V2000
   53.1590   23.9930   45.4220 C   0  0  0  0  0  0  0  0  0  0  0  0
   54.3690   24.8440   45.6180 C   0  0  0  0  0  0  0  0  0  0  0  0
   55.6760   24.4550   45.4190 C   0  0  0  0  0  0  0  0  0  0  0  0
   56.3890   25.6070   45.7130 C   0  0  0  0  0  0  0  0  0  0  0  0
   57.6800   25.7740   45.6920 N   0  0  0  0  0  0  0  0  0  0  0  0
   58.4200   27.0010   45.8080 C   0  0  0  0  0  0  0  0  0  0  0  0
   59.2990   27.1580   46.6960 O   0  0  0  0  0  0  0  0  0  0  0  0
   58.1660   28.1010   44.8250 C   0  0  0  0  0  0  0  0  0  0  0  0
   58.4110   29.4010   45.4430 N   0  0  0  0  0  0  0  0  0  0  0  0
   57.5600   30.5350   45.2060 C   0  0  0  0  0  0  0  0  0  0  0  0
   56.4700   30.3770   44.5900 O   0  0  0  0  0  0  0  0  0  0  0  0
   57.9340   31.8860   45.6880 C   0  0  0  0  0  0  0  0  0  0  0  0
   57.4150   33.0440   45.0820 C   0  0  0  0  0  0  0  0  0  0  0  0
   57.7780   34.3100   45.5470 C   0  0  0  0  0  0  0  0  0  0  0  0
   58.6550   34.4390   46.6250 C   0  0  0  0  0  0  0  0  0  0  0  0
   59.1670   33.2960   47.2530 C   0  0  0  0  0  0  0  0  0  0  0  0
   60.2910   33.4420   48.6020 S   0  0  0  0  0  0  0  0  0  0  0  0
   59.6420   34.1960   49.7290 O   0  0  0  0  0  0  0  0  0  0  0  0
   60.6270   32.0600   49.0900 O   0  0  0  0  0  0  0  0  0  0  0  0
   61.7630   34.2490   48.0980 N   0  0  0  0  0  0  0  0  0  0  0  0
   62.8140   34.1900   49.1320 C   0  0  0  0  0  0  0  0  0  0  0  0
   63.4480   32.7930   49.2610 C   0  0  0  0  0  0  0  0  0  0  0  0
   63.6660   32.1020   47.9030 C   0  0  0  0  0  0  0  0  0  0  0  0
   63.5630   33.0840   46.7380 C   0  0  0  0  0  0  0  0  0  0  0  0
   62.2030   33.8040   46.7500 C   0  0  0  0  0  0  0  0  0  0  0  0
   58.8060   32.0250   46.7840 C   0  0  0  0  0  0  0  0  0  0  0  0
   55.5430   26.5970   46.0570 N   0  0  0  0  0  0  0  0  0  0  0  0
   54.3410   26.1040   45.9850 O   0  0  0  0  0  0  0  0  0  0  0  0
   52.7503   23.7055   46.4019 H   0  0  0  0  0  0  0  0  0  0  0  0
   52.4007   24.5577   44.8598 H   0  0  0  0  0  0  0  0  0  0  0  0
   53.4341   23.0884   44.8598 H   0  0  0  0  0  0  0  0  0  0  0  0
   56.0589   23.4729   45.1045 H   0  0  0  0  0  0  0  0  0  0  0  0
   58.8364   27.9778   43.9616 H   0  0  0  0  0  0  0  0  0  0  0  0
   57.1168   28.0528   44.4981 H   0  0  0  0  0  0  0  0  0  0  0  0
   59.1980   29.4760   46.1250 H   0  0  0  0  0  0  0  0  0  0  0  0
   56.7182   32.9521   44.2358 H   0  0  0  0  0  0  0  0  0  0  0  0
   57.3709   35.2092   45.0615 H   0  0  0  0  0  0  0  0  0  0  0  0
   58.9444   35.4385   46.9817 H   0  0  0  0  0  0  0  0  0  0  0  0
   63.6030   34.9112   48.8724 H   0  0  0  0  0  0  0  0  0  0  0  0
   62.3427   34.4295   50.0966 H   0  0  0  0  0  0  0  0  0  0  0  0
   64.4218   32.8953   49.7623 H   0  0  0  0  0  0  0  0  0  0  0  0
   62.7512   32.1683   49.8392 H   0  0  0  0  0  0  0  0  0  0  0  0
   64.6661   31.6441   47.8941 H   0  0  0  0  0  0  0  0  0  0  0  0
   62.8796   31.3431   47.7780 H   0  0  0  0  0  0  0  0  0  0  0  0
   64.3669   33.8300   46.8228 H   0  0  0  0  0  0  0  0  0  0  0  0
   63.6580   32.5248   45.7955 H   0  0  0  0  0  0  0  0  0  0  0  0
   62.2751   34.6890   46.1007 H   0  0  0  0  0  0  0  0  0  0  0  0
   61.4566   33.0772   46.3970 H   0  0  0  0  0  0  0  0  0  0  0  0
   59.2081   31.1278   47.2774 H   0  0  0  0  0  0  0  0  0  0  0  0
  1  2  1  0
  2  3  2  0
  3  4  1  0
  4  5  2  3
  5  6  1  0
  6  7  2  0
  6  8  1  0
  8  9  1  0
  9 10  1  0
 10 11  2  0
 10 12  1  0
 12 13  2  0
 13 14  1  0
 14 15  2  0
 15 16  1  0
 16 17  1  0
 17 18  2  0
 17 19  2  0
 17 20  1  0
 20 21  1  0
 21 22  1  0
 22 23  1  0
 23 24  1  0
 24 25  1  0
 16 26  2  0
  4 27  1  0
 27 28  1  0
 28  2  1  0
 26 12  1  0
 25 20  1  0
  1 29  1  0
  1 30  1  0
  1 31  1  0
  3 32  1  0
  8 33  1  0
  8 34  1  0
  9 35  1  0
 13 36  1  0
 14 37  1  0
 15 38  1  0
 21 39  1  0
 21 40  1  0
 22 41  1  0
 22 42  1  0
 23 43  1  0
 23 44  1  0
 24 45  1  0
 24 46  1  0
 25 47  1  0
 25 48  1  0
 26 49  1  0
M  CHG  1  27  -1
M  END
>  <UniqueID>  (76) 
69

>  <SMILES>  (76) 
Cc1cc(=NC(=O)CNC(=O)c2cccc(S(=O)(=O)N3CCCCC3)c2)[n-]o1

>  <Energy>  (76) 
89.79397526236437

>  <Genealogy>  (76) 
Cc1cc(=NC(=O)CNC(=O)c2cccc(S(=O)(=O)N3CCCCC3)c2)[n-]o1 (protonated)
Cc1cc(=NC(=O)CNC(=O)c2cccc(S(=O)(=O)N3CCCCC3)c2)[n-]o1 (3D coordinates assigned)
Cc1cc(=NC(=O)CNC(=O)c2cccc(S(=O)(=O)N3CCCCC3)c2)[n-]o1 (nonaromatic ring conformer: 89.79397526236437 kcal/mol)

>  <smiles>  (76) 
Cc1cc(=NC(=O)CNC(=O)c2cccc(S(=O)(=O)N3CCCCC3)c2)[nH]o1

>  <score_type>  (76) 
oracle

>  <origin>  (76) 
adg

>  <m_score__min__energy>  (76) 
-12.57

>  <m_primary>  (76) 
energy

$$$$
76:0
     RDKit          3D

 38 40  0  0  0  0  0  0  0  0999 V2000
   54.7440   28.9640   45.6180 H   0  0  0  0  0  0  0  0  0  0  0  0
   55.5970   28.6140   45.1980 O   0  0  0  0  0  0  0  0  0  0  0  0
   56.2100   27.4300   45.6130 C   0  0  0  0  0  0  0  0  0  0  0  0
   55.4290   26.4170   46.0700 N   0  0  0  0  0  0  0  0  0  0  0  0
   55.9700   25.2460   46.4940 C   0  0  0  0  0  0  0  0  0  0  0  0
   55.2230   24.3230   46.9100 O   0  0  0  0  0  0  0  0  0  0  0  0
   57.3150   25.0720   46.4750 N   0  0  0  0  0  0  0  0  0  0  0  0
   58.1420   26.0510   46.0280 C   0  0  0  0  0  0  0  0  0  0  0  0
   59.3880   25.8580   46.0290 O   0  0  0  0  0  0  0  0  0  0  0  0
   57.6070   27.2640   45.5650 C   0  0  0  0  0  0  0  0  0  0  0  0
   58.4960   28.3470   45.1110 C   0  0  0  0  0  0  0  0  0  0  0  0
   59.2050   28.1246   44.2999 H   0  0  0  0  0  0  0  0  0  0  0  0
   58.4970   29.5950   45.6260 C   0  0  0  0  0  0  0  0  0  0  0  0
   57.8300   30.7380   45.1730 C   0  0  0  0  0  0  0  0  0  0  0  0
   56.9330   30.8860   43.9840 C   0  0  0  0  0  0  0  0  0  0  0  0
   55.9004   31.0564   44.3227 H   0  0  0  0  0  0  0  0  0  0  0  0
   57.2659   31.7414   43.3778 H   0  0  0  0  0  0  0  0  0  0  0  0
   56.9735   29.9690   43.3778 H   0  0  0  0  0  0  0  0  0  0  0  0
   58.1110   31.7750   45.9870 N   0  0  0  0  0  0  0  0  0  0  0  0
   58.9280   31.3500   46.9390 N   0  0  0  0  0  0  0  0  0  0  0  0
   59.4520   32.2090   48.0100 C   0  0  0  0  0  0  0  0  0  0  0  0
   58.8368   33.1189   48.0701 H   0  0  0  0  0  0  0  0  0  0  0  0
   59.4132   31.6434   48.9527 H   0  0  0  0  0  0  0  0  0  0  0  0
   60.8920   32.6060   47.7570 C   0  0  0  0  0  0  0  0  0  0  0  0
   61.9310   32.1060   48.5780 C   0  0  0  0  0  0  0  0  0  0  0  0
   61.6140   31.0070   49.9190 Cl  0  0  0  0  0  0  0  0  0  0  0  0
   63.2550   32.4960   48.3530 C   0  0  0  0  0  0  0  0  0  0  0  0
   64.0594   32.0918   48.9852 H   0  0  0  0  0  0  0  0  0  0  0  0
   63.5610   33.3950   47.3310 C   0  0  0  0  0  0  0  0  0  0  0  0
   64.6059   33.6889   47.1526 H   0  0  0  0  0  0  0  0  0  0  0  0
   62.5450   33.9210   46.5360 C   0  0  0  0  0  0  0  0  0  0  0  0
   62.7907   34.6381   45.7389 H   0  0  0  0  0  0  0  0  0  0  0  0
   61.2140   33.5430   46.7450 C   0  0  0  0  0  0  0  0  0  0  0  0
   59.9780   34.2870   45.7350 Cl  0  0  0  0  0  0  0  0  0  0  0  0
   59.1900   30.0340   46.7560 C   0  0  0  0  0  0  0  0  0  0  0  0
   59.9850   29.3040   47.5510 C   0  0  0  0  0  0  0  0  0  0  0  0
   60.4767   29.7721   48.4165 H   0  0  0  0  0  0  0  0  0  0  0  0
   60.1456   28.2369   47.3379 H   0  0  0  0  0  0  0  0  0  0  0  0
  1  2  1  0
  2  3  1  0
  3  4  1  0
  4  5  1  0
  5  6  2  0
  5  7  1  0
  7  8  1  0
  8  9  2  0
  8 10  1  0
 10 11  1  0
 11 12  1  0
 11 13  2  0
 13 14  1  0
 14 15  1  0
 15 16  1  0
 15 17  1  0
 15 18  1  0
 14 19  2  0
 19 20  1  0
 20 21  1  0
 21 22  1  0
 21 23  1  0
 21 24  1  0
 24 25  2  0
 25 26  1  0
 25 27  1  0
 27 28  1  0
 27 29  2  0
 29 30  1  0
 29 31  1  0
 31 32  1  0
 31 33  2  0
 33 34  1  0
 20 35  1  0
 35 36  2  0
 36 37  1  0
 36 38  1  0
 10  3  2  0
 35 13  1  0
 33 24  1  0
M  CHG  2   4  -1   7  -1
M  END
>  <UniqueID>  (77) 
70

>  <SMILES>  (77) 
C=c1/c(=C/c2c(O)[n-]c(=O)[n-]c2=O)c(C)nn1Cc1c(Cl)cccc1Cl

>  <Energy>  (77) 
88.7960694402529

>  <Genealogy>  (77) 
C=c1c(=Cc2c(O)[n-]c(=O)[n-]c2=O)c(C)nn1Cc1c(Cl)cccc1Cl (protonated)
C=c1/c(=C/c2c(O)[n-]c(=O)[n-]c2=O)c(C)nn1Cc1c(Cl)cccc1Cl (cis-trans isomerization)
C=c1/c(=C/c2c(O)[n-]c(=O)[n-]c2=O)c(C)nn1Cc1c(Cl)cccc1Cl (3D coordinates assigned)
C=c1/c(=C/c2c(O)[n-]c(=O)[n-]c2=O)c(C)nn1Cc1c(Cl)cccc1Cl (optimized conformer: 88.7960694402529 kcal/mol)

>  <smiles>  (77) 
C=c1c(=Cc2c(O)[nH]c(=O)[nH]c2=O)c(C)nn1Cc1c(Cl)cccc1Cl

>  <score_type>  (77) 
oracle

>  <origin>  (77) 
adg

>  <m_score__min__energy>  (77) 
-13.789999999999999

>  <m_primary>  (77) 
energy

$$$$
77:0
     RDKit          3D

 45 46  0  0  0  0  0  0  0  0999 V2000
   54.7830   26.7160   47.1210 H   0  0  0  0  0  0  0  0  0  0  0  0
   55.1140   26.3960   46.1840 N   0  0  0  0  0  0  0  0  0  0  0  0
   56.2950   25.8850   46.0150 C   0  0  0  0  0  0  0  0  0  0  0  0
   57.4340   26.7740   45.6690 C   0  0  0  0  0  0  0  0  0  0  0  0
   57.7740   26.9990   44.3230 C   0  0  0  0  0  0  0  0  0  0  0  0
   57.1887   26.5189   43.5249 H   0  0  0  0  0  0  0  0  0  0  0  0
   58.8500   27.8280   43.9910 C   0  0  0  0  0  0  0  0  0  0  0  0
   59.1128   27.9885   42.9350 H   0  0  0  0  0  0  0  0  0  0  0  0
   59.5910   28.4520   44.9940 C   0  0  0  0  0  0  0  0  0  0  0  0
   60.4425   29.0952   44.7271 H   0  0  0  0  0  0  0  0  0  0  0  0
   59.2540   28.2620   46.3420 C   0  0  0  0  0  0  0  0  0  0  0  0
   60.0730   28.9100   47.4240 C   0  0  0  0  0  0  0  0  0  0  0  0
   59.5510   28.8083   48.3869 H   0  0  0  0  0  0  0  0  0  0  0  0
   61.0548   28.4170   47.4794 H   0  0  0  0  0  0  0  0  0  0  0  0
   60.2670   30.3600   47.1160 C   0  0  0  0  0  0  0  0  0  0  0  0
   61.4100   30.7810   46.7910 O   0  0  0  0  0  0  0  0  0  0  0  0
   59.1390   31.2430   47.1460 N   0  0  0  0  0  0  0  0  0  0  0  0
   59.1760   32.6880   47.3810 C   0  0  2  0  0  0  0  0  0  0  0  0
   60.2079   33.0269   47.2067 H   0  0  0  0  0  0  0  0  0  0  0  0
   58.8040   33.0090   48.8320 C   0  0  0  0  0  0  0  0  0  0  0  0
   59.4587   32.4441   49.5119 H   0  0  0  0  0  0  0  0  0  0  0  0
   58.9299   34.0867   49.0130 H   0  0  0  0  0  0  0  0  0  0  0  0
   57.7564   32.7267   49.0130 H   0  0  0  0  0  0  0  0  0  0  0  0
   58.2780   33.4570   46.3880 C   0  0  0  0  0  0  0  0  0  0  0  0
   57.2437   33.1021   46.5075 H   0  0  0  0  0  0  0  0  0  0  0  0
   58.3819   34.5271   46.6204 H   0  0  0  0  0  0  0  0  0  0  0  0
   58.6890   33.2720   44.9180 C   0  0  0  0  0  0  0  0  0  0  0  0
   58.5473   34.2254   44.3879 H   0  0  0  0  0  0  0  0  0  0  0  0
   59.7425   32.9560   44.8992 H   0  0  0  0  0  0  0  0  0  0  0  0
   57.8740   32.2070   44.2280 C   0  0  0  0  0  0  0  0  0  0  0  0
   57.7970   32.1660   42.8250 C   0  0  0  0  0  0  0  0  0  0  0  0
   58.3429   32.9084   42.2244 H   0  0  0  0  0  0  0  0  0  0  0  0
   57.0290   31.1850   42.1900 C   0  0  0  0  0  0  0  0  0  0  0  0
   56.9755   31.1544   41.0917 H   0  0  0  0  0  0  0  0  0  0  0  0
   56.3290   30.2430   42.9500 C   0  0  0  0  0  0  0  0  0  0  0  0
   55.7267   29.4707   42.4492 H   0  0  0  0  0  0  0  0  0  0  0  0
   56.3940   30.2820   44.3450 C   0  0  0  0  0  0  0  0  0  0  0  0
   55.7090   29.3720   45.0800 F   0  0  0  0  0  0  0  0  0  0  0  0
   57.1610   31.2630   44.9840 C   0  0  0  0  0  0  0  0  0  0  0  0
   57.2053   31.2945   46.0827 H   0  0  0  0  0  0  0  0  0  0  0  0
   58.1820   27.4170   46.6750 C   0  0  0  0  0  0  0  0  0  0  0  0
   57.9241   27.2558   47.7321 H   0  0  0  0  0  0  0  0  0  0  0  0
   56.4790   24.4700   46.1520 N   0  0  0  0  0  0  0  0  0  0  0  0
   57.3610   24.0020   45.8540 H   0  0  0  0  0  0  0  0  0  0  0  0
   55.7010   23.8650   46.5000 H   0  0  0  0  0  0  0  0  0  0  0  0
  1  2  1  0
  2  3  2  0
  3  4  1  0
  4  5  2  0
  5  6  1  0
  5  7  1  0
  7  8  1  0
  7  9  2  0
  9 10  1  0
  9 11  1  0
 11 12  1  0
 12 13  1  0
 12 14  1  0
 12 15  1  0
 15 16  2  0
 15 17  1  0
 17 18  1  0
 18 19  1  6
 18 20  1  0
 20 21  1  0
 20 22  1  0
 20 23  1  0
 18 24  1  0
 24 25  1  0
 24 26  1  0
 24 27  1  0
 27 28  1  0
 27 29  1  0
 27 30  1  0
 30 31  2  0
 31 32  1  0
 31 33  1  0
 33 34  1  0
 33 35  2  0
 35 36  1  0
 35 37  1  0
 37 38  1  0
 37 39  2  0
 39 40  1  0
 11 41  2  0
 41 42  1  0
  3 43  1  0
 43 44  1  0
 43 45  1  0
 41  4  1  0
 39 30  1  0
M  CHG  1  17  -1
M  END
>  <UniqueID>  (78) 
71

>  <SMILES>  (78) 
[H]/N=C(\N)c1cccc(CC(=O)[N-][C@H](C)CCc2cccc(F)c2)c1

>  <Energy>  (78) 
37.851491288788544

>  <Genealogy>  (78) 
CC(CCc1cccc(F)c1)[N-]C(=O)Cc1cccc(C(=N)N)c1 (protonated)
C[C@H](CCc1cccc(F)c1)[N-]C(=O)Cc1cccc(C(=N)N)c1 (chirality)
[H]/N=C(\N)c1cccc(CC(=O)[N-][C@H](C)CCc2cccc(F)c2)c1 (cis-trans isomerization)
[H]/N=C(\N)c1cccc(CC(=O)[N-][C@H](C)CCc2cccc(F)c2)c1 (3D coordinates assigned)
[H]/N=C(\N)c1cccc(CC(=O)[N-][C@H](C)CCc2cccc(F)c2)c1 (optimized conformer: 37.851491288788544 kcal/mol)

>  <smiles>  (78) 
CC(CCc1cccc(F)c1)NC(=O)Cc1cccc(C(=N)N)c1

>  <score_type>  (78) 
oracle

>  <origin>  (78) 
adg

>  <m_score__min__energy>  (78) 
-10.779999999999999

>  <m_primary>  (78) 
energy

$$$$
78:0
     RDKit          3D

 56 59  0  0  0  0  0  0  0  0999 V2000
   61.4250   31.8670   46.7530 O   0  0  0  0  0  0  0  0  0  0  0  0
   61.7790   32.4700   47.8000 C   0  0  0  0  0  0  0  0  0  0  0  0
   61.7530   33.8990   47.8260 N   0  0  0  0  0  0  0  0  0  0  0  0
   61.4680   34.5950   48.9600 O   0  0  0  0  0  0  0  0  0  0  0  0
   60.0660   34.5780   49.1260 C   0  0  0  0  0  0  0  0  0  0  0  0
   59.6530   33.4570   50.0440 C   0  0  0  0  0  0  0  0  0  0  0  0
   58.8350   32.4220   49.5640 C   0  0  0  0  0  0  0  0  0  0  0  0
   58.3990   31.4120   50.4260 C   0  0  0  0  0  0  0  0  0  0  0  0
   58.7890   31.4190   51.7690 C   0  0  0  0  0  0  0  0  0  0  0  0
   59.6210   32.4330   52.2480 C   0  0  0  0  0  0  0  0  0  0  0  0
   60.0510   33.4520   51.3920 C   0  0  0  0  0  0  0  0  0  0  0  0
   62.2520   31.7340   48.9340 N   0  0  0  0  0  0  0  0  0  0  0  0
   61.7370   30.4600   49.3690 C   0  0  0  0  0  0  0  0  0  0  0  0
   60.7980   29.8080   48.5560 C   0  0  0  0  0  0  0  0  0  0  0  0
   60.3040   28.5360   48.8850 C   0  0  0  0  0  0  0  0  0  0  0  0
   59.2500   27.9410   48.0380 C   0  0  0  0  0  0  0  0  0  0  0  0
   58.8560   26.6560   48.2420 N   0  0  0  0  0  0  0  0  0  0  0  0
   57.9180   26.0800   47.4510 C   0  0  0  0  0  0  0  0  0  0  0  0
   57.5680   24.8880   47.6670 O   0  0  0  0  0  0  0  0  0  0  0  0
   57.3490   26.8030   46.3970 C   0  0  0  0  0  0  0  0  0  0  0  0
   56.3860   26.2020   45.5920 O   0  0  0  0  0  0  0  0  0  0  0  0
   57.7780   28.1290   46.1760 C   0  0  0  0  0  0  0  0  0  0  0  0
   57.2320   28.9590   45.0600 C   0  0  0  0  0  0  0  0  0  0  0  0
   57.2340   28.4980   43.8880 O   0  0  0  0  0  0  0  0  0  0  0  0
   56.6950   30.2800   45.2490 N   0  0  0  0  0  0  0  0  0  0  0  0
   56.7180   31.3860   44.3010 C   0  0  0  0  0  0  0  0  0  0  0  0
   57.5600   32.4980   44.8530 C   0  0  0  0  0  0  0  0  0  0  0  0
   57.3900   32.9300   46.1790 C   0  0  0  0  0  0  0  0  0  0  0  0
   58.1600   33.9840   46.6810 C   0  0  0  0  0  0  0  0  0  0  0  0
   59.0950   34.6210   45.8600 C   0  0  0  0  0  0  0  0  0  0  0  0
   59.8400   35.6430   46.3470 F   0  0  0  0  0  0  0  0  0  0  0  0
   59.2580   34.2070   44.5350 C   0  0  0  0  0  0  0  0  0  0  0  0
   58.4910   33.1530   44.0300 C   0  0  0  0  0  0  0  0  0  0  0  0
   58.7190   28.6480   47.0070 N   0  0  0  0  0  0  0  0  0  0  0  0
   60.7990   27.8820   50.0350 C   0  0  0  0  0  0  0  0  0  0  0  0
   60.4340   26.5770   50.3690 O   0  0  0  0  0  0  0  0  0  0  0  0
   61.7230   28.5330   50.8560 C   0  0  0  0  0  0  0  0  0  0  0  0
   62.2120   29.7990   50.5230 C   0  0  0  0  0  0  0  0  0  0  0  0
   63.2000   30.3570   51.3260 O   0  0  0  0  0  0  0  0  0  0  0  0
   59.7416   35.5364   49.5575 H   0  0  0  0  0  0  0  0  0  0  0  0
   59.5950   34.4233   48.1440 H   0  0  0  0  0  0  0  0  0  0  0  0
   58.5361   32.4059   48.5055 H   0  0  0  0  0  0  0  0  0  0  0  0
   57.7480   30.6102   50.0475 H   0  0  0  0  0  0  0  0  0  0  0  0
   58.4406   30.6263   52.4475 H   0  0  0  0  0  0  0  0  0  0  0  0
   59.9389   32.4303   53.3010 H   0  0  0  0  0  0  0  0  0  0  0  0
   60.7023   34.2516   51.7747 H   0  0  0  0  0  0  0  0  0  0  0  0
   63.0330   32.1600   49.4820 H   0  0  0  0  0  0  0  0  0  0  0  0
   60.4413   30.3040   47.6413 H   0  0  0  0  0  0  0  0  0  0  0  0
   57.1436   31.0425   43.3466 H   0  0  0  0  0  0  0  0  0  0  0  0
   55.6930   31.7490   44.1349 H   0  0  0  0  0  0  0  0  0  0  0  0
   56.6483   32.4373   46.8249 H   0  0  0  0  0  0  0  0  0  0  0  0
   58.0298   34.3121   47.7228 H   0  0  0  0  0  0  0  0  0  0  0  0
   59.9911   34.7115   43.8884 H   0  0  0  0  0  0  0  0  0  0  0  0
   58.6170   32.8354   42.9844 H   0  0  0  0  0  0  0  0  0  0  0  0
   59.8080   26.0180   49.8020 H   0  0  0  0  0  0  0  0  0  0  0  0
   62.0704   28.0423   51.7772 H   0  0  0  0  0  0  0  0  0  0  0  0
  1  2  2  0
  2  3  1  0
  3  4  1  0
  4  5  1  0
  5  6  1  0
  6  7  2  0
  7  8  1  0
  8  9  2  0
  9 10  1  0
 10 11  2  0
  2 12  1  0
 12 13  1  0
 13 14  2  0
 14 15  1  0
 15 16  1  0
 16 17  2  0
 17 18  1  0
 18 19  2  0
 18 20  1  0
 20 21  1  0
 20 22  2  0
 22 23  1  0
 23 24  2  0
 23 25  1  0
 25 26  1  0
 26 27  1  0
 27 28  2  0
 28 29  1  0
 29 30  2  0
 30 31  1  0
 30 32  1  0
 32 33  2  0
 22 34  1  0
 15 35  2  0
 35 36  1  0
 35 37  1  0
 37 38  2  0
 38 39  1  0
 11  6  1  0
 38 13  1  0
 34 16  1  0
 33 27  1  0
  5 40  1  0
  5 41  1  0
  7 42  1  0
  8 43  1  0
  9 44  1  0
 10 45  1  0
 11 46  1  0
 12 47  1  0
 14 48  1  0
 26 49  1  0
 26 50  1  0
 28 51  1  0
 29 52  1  0
 32 53  1  0
 33 54  1  0
 36 55  1  0
 37 56  1  0
M  CHG  5   3  -1  21  -1  25  -1  34  -1  39  -1
M  END
>  <UniqueID>  (79) 
72

>  <SMILES>  (79) 
O=C([N-]OCc1ccccc1)Nc1cc(-c2nc(=O)c([O-])c(C(=O)[N-]Cc3ccc(F)cc3)[n-]2)c(O)cc1[O-]

>  <Energy>  (79) 
71.5978138645237

>  <Genealogy>  (79) 
O=C([N-]OCc1ccccc1)Nc1cc(-c2nc(=O)c([O-])c(C(=O)[N-]Cc3ccc(F)cc3)[n-]2)c(O)cc1[O-] (protonated)
O=C([N-]OCc1ccccc1)Nc1cc(-c2nc(=O)c([O-])c(C(=O)[N-]Cc3ccc(F)cc3)[n-]2)c(O)cc1[O-] (3D coordinates assigned)
O=C([N-]OCc1ccccc1)Nc1cc(-c2nc(=O)c([O-])c(C(=O)[N-]Cc3ccc(F)cc3)[n-]2)c(O)cc1[O-] (optimized conformer: 71.5978138645237 kcal/mol)

>  <smiles>  (79) 
O=C(NOCc1ccccc1)Nc1cc(-c2nc(=O)c(O)c(C(=O)NCc3ccc(F)cc3)[nH]2)c(O)cc1O

>  <score_type>  (79) 
oracle

>  <origin>  (79) 
adg

>  <m_score__min__energy>  (79) 
-15.27

>  <m_primary>  (79) 
energy

$$$$
79:0
     RDKit          3D

 37 38  0  0  0  0  0  0  0  0999 V2000
   58.8980   34.9150   47.4920 N   0  0  0  0  0  0  0  0  0  0  0  0
   59.4910   34.4040   45.9500 S   0  0  0  0  0  0  0  0  0  0  0  0
   59.2760   35.5020   44.9470 O   0  0  0  0  0  0  0  0  0  0  0  0
   60.9650   34.1240   46.0490 O   0  0  0  0  0  0  0  0  0  0  0  0
   58.6530   32.9420   45.4370 C   0  0  0  0  0  0  0  0  0  0  0  0
   58.6150   31.8280   46.2870 C   0  0  0  0  0  0  0  0  0  0  0  0
   57.9800   30.6510   45.8780 C   0  0  0  0  0  0  0  0  0  0  0  0
   57.3690   30.5770   44.6170 C   0  0  0  0  0  0  0  0  0  0  0  0
   56.7040   29.3050   44.1570 C   0  0  0  0  0  0  0  0  0  0  0  0
   55.9160   28.7200   45.2400 N   0  0  0  0  0  0  0  0  0  0  0  0
   56.5870   27.2070   45.7830 S   0  0  0  0  0  0  0  0  0  0  0  0
   55.5130   26.1950   46.0750 O   0  0  0  0  0  0  0  0  0  0  0  0
   57.3910   27.4430   47.0290 O   0  0  0  0  0  0  0  0  0  0  0  0
   57.6580   26.5640   44.5110 C   0  0  0  0  0  0  0  0  0  0  0  0
   57.5720   25.0640   44.4720 C   0  0  0  0  0  0  0  0  0  0  0  0
   58.3770   24.2840   45.3200 C   0  0  0  0  0  0  0  0  0  0  0  0
   58.3170   22.8880   45.2600 C   0  0  0  0  0  0  0  0  0  0  0  0
   57.4630   22.2620   44.3480 C   0  0  0  0  0  0  0  0  0  0  0  0
   56.6710   23.0310   43.4910 C   0  0  0  0  0  0  0  0  0  0  0  0
   55.8430   22.4250   42.6040 F   0  0  0  0  0  0  0  0  0  0  0  0
   56.7280   24.4270   43.5480 C   0  0  0  0  0  0  0  0  0  0  0  0
   57.4000   31.6980   43.7720 C   0  0  0  0  0  0  0  0  0  0  0  0
   58.0360   32.8740   44.1810 C   0  0  0  0  0  0  0  0  0  0  0  0
   58.9020   35.9600   47.4910 H   0  0  0  0  0  0  0  0  0  0  0  0
   59.5960   34.6080   48.2040 H   0  0  0  0  0  0  0  0  0  0  0  0
   59.0864   31.8798   47.2795 H   0  0  0  0  0  0  0  0  0  0  0  0
   57.9594   29.7789   46.5481 H   0  0  0  0  0  0  0  0  0  0  0  0
   56.0420   29.5291   43.3076 H   0  0  0  0  0  0  0  0  0  0  0  0
   57.4800   28.5871   43.8531 H   0  0  0  0  0  0  0  0  0  0  0  0
   57.3507   26.9714   43.5365 H   0  0  0  0  0  0  0  0  0  0  0  0
   58.6947   26.8593   44.7304 H   0  0  0  0  0  0  0  0  0  0  0  0
   59.0566   24.7732   46.0333 H   0  0  0  0  0  0  0  0  0  0  0  0
   58.9429   22.2820   45.9316 H   0  0  0  0  0  0  0  0  0  0  0  0
   57.4142   21.1639   44.3047 H   0  0  0  0  0  0  0  0  0  0  0  0
   56.1091   25.0287   42.8662 H   0  0  0  0  0  0  0  0  0  0  0  0
   56.9213   31.6507   42.7828 H   0  0  0  0  0  0  0  0  0  0  0  0
   58.0520   33.7488   43.5144 H   0  0  0  0  0  0  0  0  0  0  0  0
  1  2  1  0
  2  3  2  0
  2  4  2  0
  2  5  1  0
  5  6  2  0
  6  7  1  0
  7  8  2  0
  8  9  1  0
  9 10  1  0
 10 11  1  0
 11 12  2  0
 11 13  2  0
 11 14  1  0
 14 15  1  0
 15 16  2  0
 16 17  1  0
 17 18  2  0
 18 19  1  0
 19 20  1  0
 19 21  2  0
  8 22  1  0
 22 23  2  0
 23  5  1  0
 21 15  1  0
  1 24  1  0
  1 25  1  0
  6 26  1  0
  7 27  1  0
  9 28  1  0
  9 29  1  0
 14 30  1  0
 14 31  1  0
 16 32  1  0
 17 33  1  0
 18 34  1  0
 21 35  1  0
 22 36  1  0
 23 37  1  0
M  CHG  1  10  -1
M  END
>  <UniqueID>  (80) 
73

>  <SMILES>  (80) 
NS(=O)(=O)c1ccc(C[N-]S(=O)(=O)Cc2cccc(F)c2)cc1

>  <Energy>  (80) 
25.817858485849563

>  <Genealogy>  (80) 
NS(=O)(=O)c1ccc(C[N-]S(=O)(=O)Cc2cccc(F)c2)cc1 (protonated)
NS(=O)(=O)c1ccc(C[N-]S(=O)(=O)Cc2cccc(F)c2)cc1 (3D coordinates assigned)
NS(=O)(=O)c1ccc(C[N-]S(=O)(=O)Cc2cccc(F)c2)cc1 (optimized conformer: 25.817858485849563 kcal/mol)

>  <smiles>  (80) 
NS(=O)(=O)c1ccc(CNS(=O)(=O)Cc2cccc(F)c2)cc1

>  <score_type>  (80) 
oracle

>  <origin>  (80) 
adg

>  <m_score__min__energy>  (80) 
-10.74

>  <m_primary>  (80) 
energy

$$$$
80:0
     RDKit          3D

 36 37  0  0  0  0  0  0  0  0999 V2000
   59.6580   34.9830   47.4970 C   0  0  0  0  0  0  0  0  0  0  0  0
   60.1250   33.8330   46.6560 C   0  0  0  0  0  0  0  0  0  0  0  0
   61.3630   33.7060   46.4500 O   0  0  0  0  0  0  0  0  0  0  0  0
   59.1750   32.8520   46.0670 C   0  0  0  0  0  0  0  0  0  0  0  0
   58.2780   33.2570   45.0590 C   0  0  0  0  0  0  0  0  0  0  0  0
   57.3780   32.3470   44.4970 C   0  0  0  0  0  0  0  0  0  0  0  0
   57.3620   31.0150   44.9280 C   0  0  0  0  0  0  0  0  0  0  0  0
   56.2110   29.8670   44.2460 S   0  0  0  0  0  0  0  0  0  0  0  0
   54.8530   30.5010   44.1270 O   0  0  0  0  0  0  0  0  0  0  0  0
   56.6710   29.4700   42.8710 O   0  0  0  0  0  0  0  0  0  0  0  0
   56.1070   28.4490   45.2450 N   0  0  0  0  0  0  0  0  0  0  0  0
   57.2050   27.5340   44.9280 C   0  0  0  0  0  0  0  0  0  0  0  0
   57.1370   26.3250   45.8350 C   0  0  0  0  0  0  0  0  0  0  0  0
   58.3050   25.7220   46.3580 C   0  0  0  0  0  0  0  0  0  0  0  0
   59.6790   26.2140   46.0130 C   0  0  0  0  0  0  0  0  0  0  0  0
   58.1900   24.6500   47.1870 N   0  0  0  0  0  0  0  0  0  0  0  0
   56.9790   24.1560   47.5450 C   0  0  0  0  0  0  0  0  0  0  0  0
   56.9080   23.1630   48.3130 O   0  0  0  0  0  0  0  0  0  0  0  0
   55.8460   24.7350   47.0780 N   0  0  0  0  0  0  0  0  0  0  0  0
   55.8940   25.8040   46.2430 C   0  0  0  0  0  0  0  0  0  0  0  0
   54.8150   26.3180   45.8430 O   0  0  0  0  0  0  0  0  0  0  0  0
   58.2440   30.6040   45.9330 C   0  0  0  0  0  0  0  0  0  0  0  0
   59.1450   31.5110   46.4970 C   0  0  0  0  0  0  0  0  0  0  0  0
   59.7627   34.7252   48.5612 H   0  0  0  0  0  0  0  0  0  0  0  0
   60.2665   35.8717   47.2734 H   0  0  0  0  0  0  0  0  0  0  0  0
   58.6022   35.1958   47.2734 H   0  0  0  0  0  0  0  0  0  0  0  0
   58.2859   34.3003   44.7105 H   0  0  0  0  0  0  0  0  0  0  0  0
   56.6803   32.6784   43.7138 H   0  0  0  0  0  0  0  0  0  0  0  0
   55.2070   27.9730   45.0030 H   0  0  0  0  0  0  0  0  0  0  0  0
   57.1208   27.2105   43.8800 H   0  0  0  0  0  0  0  0  0  0  0  0
   58.1649   28.0497   45.0785 H   0  0  0  0  0  0  0  0  0  0  0  0
   60.2396   26.4147   46.9379 H   0  0  0  0  0  0  0  0  0  0  0  0
   60.2054   25.4485   45.4240 H   0  0  0  0  0  0  0  0  0  0  0  0
   59.5999   27.1396   45.4240 H   0  0  0  0  0  0  0  0  0  0  0  0
   58.2282   29.5607   46.2813 H   0  0  0  0  0  0  0  0  0  0  0  0
   59.8367   31.1749   47.2835 H   0  0  0  0  0  0  0  0  0  0  0  0
  1  2  1  0
  2  3  2  0
  2  4  1  0
  4  5  2  0
  5  6  1  0
  6  7  2  0
  7  8  1  0
  8  9  2  0
  8 10  2  0
  8 11  1  0
 11 12  1  0
 12 13  1  0
 13 14  2  0
 14 15  1  0
 14 16  1  0
 16 17  1  0
 17 18  2  0
 17 19  1  0
 19 20  1  0
 20 21  2  0
  7 22  1  0
 22 23  2  0
 23  4  1  0
 20 13  1  0
  1 24  1  0
  1 25  1  0
  1 26  1  0
  5 27  1  0
  6 28  1  0
 11 29  1  0
 12 30  1  0
 12 31  1  0
 15 32  1  0
 15 33  1  0
 15 34  1  0
 22 35  1  0
 23 36  1  0
M  CHG  2  16  -1  19  -1
M  END
>  <UniqueID>  (81) 
74

>  <SMILES>  (81) 
CC(=O)c1ccc(S(=O)(=O)NCc2c(C)[n-]c(=O)[n-]c2=O)cc1

>  <Energy>  (81) 
35.90436656050718

>  <Genealogy>  (81) 
CC(=O)c1ccc(S(=O)(=O)NCc2c(C)[n-]c(=O)[n-]c2=O)cc1 (protonated)
CC(=O)c1ccc(S(=O)(=O)NCc2c(C)[n-]c(=O)[n-]c2=O)cc1 (3D coordinates assigned)
CC(=O)c1ccc(S(=O)(=O)NCc2c(C)[n-]c(=O)[n-]c2=O)cc1 (optimized conformer: 35.90436656050718 kcal/mol)

>  <smiles>  (81) 
CC(=O)c1ccc(S(=O)(=O)NCc2c(C)[nH]c(=O)[nH]c2=O)cc1

>  <score_type>  (81) 
oracle

>  <origin>  (81) 
adg

>  <m_score__min__energy>  (81) 
-12.109999999999999

>  <m_primary>  (81) 
energy

$$$$
81:0
     RDKit          3D

 36 38  0  0  0  0  0  0  0  0999 V2000
   54.0790   26.3390   46.3810 H   0  0  0  0  0  0  0  0  0  0  0  0
   55.0280   26.4530   46.0470 O   0  0  0  0  0  0  0  0  0  0  0  0
   56.0070   25.5180   46.3660 C   0  0  0  0  0  0  0  0  0  0  0  0
   55.8510   24.5480   47.2820 N   0  0  0  0  0  0  0  0  0  0  0  0
   57.0490   23.9260   47.2620 C   0  0  0  0  0  0  0  0  0  0  0  0
   57.3160   22.9440   48.0010 O   0  0  0  0  0  0  0  0  0  0  0  0
   57.9450   24.4490   46.3950 N   0  0  0  0  0  0  0  0  0  0  0  0
   57.2600   25.4480   45.8080 C   0  0  0  0  0  0  0  0  0  0  0  0
   57.8390   26.4190   44.8640 C   0  0  0  0  0  0  0  0  0  0  0  0
   58.3138   26.0167   43.9570 H   0  0  0  0  0  0  0  0  0  0  0  0
   57.8370   27.7570   45.0160 C   0  0  0  0  0  0  0  0  0  0  0  0
   57.1390   28.6060   44.1730 C   0  0  0  0  0  0  0  0  0  0  0  0
   56.5762   28.3186   43.2727 H   0  0  0  0  0  0  0  0  0  0  0  0
   57.2850   29.8810   44.6790 C   0  0  0  0  0  0  0  0  0  0  0  0
   56.6700   31.1090   44.0770 C   0  0  0  0  0  0  0  0  0  0  0  0
   56.3332   31.7815   44.8796 H   0  0  0  0  0  0  0  0  0  0  0  0
   57.4159   31.6253   43.4549 H   0  0  0  0  0  0  0  0  0  0  0  0
   55.8098   30.8209   43.4549 H   0  0  0  0  0  0  0  0  0  0  0  0
   58.0820   29.8660   45.7710 N   0  0  0  0  0  0  0  0  0  0  0  0
   58.4840   31.0180   46.5350 C   0  0  0  0  0  0  0  0  0  0  0  0
   58.7010   30.9050   47.9120 C   0  0  0  0  0  0  0  0  0  0  0  0
   58.5693   29.9328   48.4096 H   0  0  0  0  0  0  0  0  0  0  0  0
   59.0840   32.0210   48.6570 C   0  0  0  0  0  0  0  0  0  0  0  0
   59.2533   31.9235   49.7395 H   0  0  0  0  0  0  0  0  0  0  0  0
   59.2540   33.2630   48.0360 C   0  0  0  0  0  0  0  0  0  0  0  0
   59.6350   34.3500   48.8140 O   0  0  0  0  0  0  0  0  0  0  0  0
   59.0400   33.3960   46.6440 C   0  0  0  0  0  0  0  0  0  0  0  0
   59.2120   34.6940   45.9440 C   0  0  0  0  0  0  0  0  0  0  0  0
   60.0330   35.5530   46.3620 O   0  0  0  0  0  0  0  0  0  0  0  0
   58.4630   34.9830   44.8090 O   0  0  0  0  0  0  0  0  0  0  0  0
   58.6560   32.2610   45.9060 C   0  0  0  0  0  0  0  0  0  0  0  0
   58.4885   32.3490   44.8224 H   0  0  0  0  0  0  0  0  0  0  0  0
   58.4560   28.5760   45.9740 C   0  0  0  0  0  0  0  0  0  0  0  0
   59.4070   28.2180   46.8500 C   0  0  0  0  0  0  0  0  0  0  0  0
   59.8134   28.9591   47.5540 H   0  0  0  0  0  0  0  0  0  0  0  0
   59.7803   27.1834   46.8643 H   0  0  0  0  0  0  0  0  0  0  0  0
  1  2  1  0
  2  3  1  0
  3  4  1  0
  4  5  1  0
  5  6  2  0
  5  7  1  0
  7  8  1  0
  8  9  1  0
  9 10  1  0
  9 11  2  0
 11 12  1  0
 12 13  1  0
 12 14  2  0
 14 15  1  0
 15 16  1  0
 15 17  1  0
 15 18  1  0
 14 19  1  0
 19 20  1  0
 20 21  2  0
 21 22  1  0
 21 23  1  0
 23 24  1  0
 23 25  2  0
 25 26  1  0
 25 27  1  0
 27 28  1  0
 28 29  2  0
 28 30  1  0
 27 31  2  0
 31 32  1  0
 19 33  1  0
 33 34  2  0
 34 35  1  0
 34 36  1  0
  8  3  2  0
 33 11  1  0
 31 20  1  0
M  CHG  4   4  -1   7  -1  26  -1  30  -1
M  END
>  <UniqueID>  (82) 
75

>  <SMILES>  (82) 
C=c1/c(=C\c2[n-]c(=O)[n-]c2O)cc(C)n1-c1ccc([O-])c(C(=O)[O-])c1

>  <Energy>  (82) 
114.44319810187672

>  <Genealogy>  (82) 
C=c1c(=Cc2[n-]c(=O)[n-]c2O)cc(C)n1-c1ccc([O-])c(C(=O)[O-])c1 (protonated)
C=c1/c(=C\c2[n-]c(=O)[n-]c2O)cc(C)n1-c1ccc([O-])c(C(=O)[O-])c1 (cis-trans isomerization)
C=c1/c(=C\c2[n-]c(=O)[n-]c2O)cc(C)n1-c1ccc([O-])c(C(=O)[O-])c1 (3D coordinates assigned)
C=c1/c(=C\c2[n-]c(=O)[n-]c2O)cc(C)n1-c1ccc([O-])c(C(=O)[O-])c1 (optimized conformer: 114.44319810187672 kcal/mol)

>  <smiles>  (82) 
C=c1c(=Cc2[nH]c(=O)[nH]c2O)cc(C)n1-c1ccc(O)c(C(=O)O)c1

>  <score_type>  (82) 
oracle

>  <origin>  (82) 
adg

>  <m_score__min__energy>  (82) 
-14.880000000000001

>  <m_primary>  (82) 
energy

$$$$
82:0
     RDKit          3D

 49 51  0  0  0  0  0  0  0  0999 V2000
   50.2630   33.6400   53.4780 C   0  0  0  0  0  0  0  0  0  0  0  0
   50.6550   33.3140   52.1470 O   0  0  0  0  0  0  0  0  0  0  0  0
   51.3710   32.1600   51.7910 C   0  0  0  0  0  0  0  0  0  0  0  0
   52.1870   31.4710   52.7090 C   0  0  0  0  0  0  0  0  0  0  0  0
   52.9190   30.3400   52.3070 C   0  0  0  0  0  0  0  0  0  0  0  0
   53.7970   29.6120   53.2930 C   0  0  0  0  0  0  0  0  0  0  0  0
   55.2280   29.6850   52.8630 C   0  0  0  0  0  0  0  0  0  0  0  0
   55.8430   28.6250   52.5610 O   0  0  0  0  0  0  0  0  0  0  0  0
   55.8620   30.9660   52.7400 N   0  0  0  0  0  0  0  0  0  0  0  0
   56.9770   31.1780   52.1100 C   0  0  0  0  0  0  0  0  0  0  0  0
   57.5510   30.2840   51.2760 N   0  0  0  0  0  0  0  0  0  0  0  0
   58.6490   30.8050   50.6640 C   0  0  0  0  0  0  0  0  0  0  0  0
   59.4490   30.0180   49.6680 C   0  0  0  0  0  0  0  0  0  0  0  0
   59.3450   30.6330   48.3020 C   0  0  0  0  0  0  0  0  0  0  0  0
   58.8730   29.9540   47.3490 O   0  0  0  0  0  0  0  0  0  0  0  0
   59.7910   31.9820   48.0850 N   0  0  0  0  0  0  0  0  0  0  0  0
   59.3130   32.8170   47.0160 C   0  0  0  0  0  0  0  0  0  0  0  0
   58.0760   32.5560   46.3980 C   0  0  0  0  0  0  0  0  0  0  0  0
   57.6100   33.3790   45.3720 C   0  0  0  0  0  0  0  0  0  0  0  0
   58.3640   34.4740   44.9580 C   0  0  0  0  0  0  0  0  0  0  0  0
   59.5780   34.7670   45.5840 C   0  0  0  0  0  0  0  0  0  0  0  0
   60.0580   33.9470   46.6240 C   0  0  0  0  0  0  0  0  0  0  0  0
   61.2660   34.2220   47.2840 O   0  0  0  0  0  0  0  0  0  0  0  0
   62.4880   33.5300   47.0510 C   0  0  0  0  0  0  0  0  0  0  0  0
   58.9660   32.1120   51.0330 C   0  0  0  0  0  0  0  0  0  0  0  0
   57.8060   32.6370   52.1360 S   0  0  0  0  0  0  0  0  0  0  0  0
   52.8150   29.8910   50.9800 C   0  0  0  0  0  0  0  0  0  0  0  0
   51.9890   30.5600   50.0740 C   0  0  0  0  0  0  0  0  0  0  0  0
   51.2660   31.6850   50.4770 C   0  0  0  0  0  0  0  0  0  0  0  0
   50.4450   32.3360   49.5640 O   0  0  0  0  0  0  0  0  0  0  0  0
   50.9068   33.1046   54.1914 H   0  0  0  0  0  0  0  0  0  0  0  0
   50.3641   34.7240   53.6349 H   0  0  0  0  0  0  0  0  0  0  0  0
   49.2156   33.3429   53.6349 H   0  0  0  0  0  0  0  0  0  0  0  0
   52.2522   31.8209   53.7498 H   0  0  0  0  0  0  0  0  0  0  0  0
   53.6916   30.0758   54.2848 H   0  0  0  0  0  0  0  0  0  0  0  0
   53.4889   28.5569   53.3370 H   0  0  0  0  0  0  0  0  0  0  0  0
   60.5038   30.0064   49.9798 H   0  0  0  0  0  0  0  0  0  0  0  0
   59.0532   28.9925   49.6262 H   0  0  0  0  0  0  0  0  0  0  0  0
   60.4770   32.3830   48.7650 H   0  0  0  0  0  0  0  0  0  0  0  0
   57.4721   31.6971   46.7260 H   0  0  0  0  0  0  0  0  0  0  0  0
   56.6455   33.1624   44.8895 H   0  0  0  0  0  0  0  0  0  0  0  0
   58.0029   35.1097   44.1362 H   0  0  0  0  0  0  0  0  0  0  0  0
   60.1620   35.6423   45.2633 H   0  0  0  0  0  0  0  0  0  0  0  0
   62.9505   33.2681   48.0141 H   0  0  0  0  0  0  0  0  0  0  0  0
   62.2863   32.6120   46.4794 H   0  0  0  0  0  0  0  0  0  0  0  0
   63.1715   34.1751   46.4794 H   0  0  0  0  0  0  0  0  0  0  0  0
   59.8229   32.6972   50.6680 H   0  0  0  0  0  0  0  0  0  0  0  0
   53.3861   29.0095   50.6533 H   0  0  0  0  0  0  0  0  0  0  0  0
   51.9075   30.1991   49.0381 H   0  0  0  0  0  0  0  0  0  0  0  0
  1  2  1  0
  2  3  1  0
  3  4  2  0
  4  5  1  0
  5  6  1  0
  6  7  1  0
  7  8  2  0
  7  9  1  0
  9 10  2  3
 10 11  1  0
 11 12  1  0
 12 13  1  0
 13 14  1  0
 14 15  2  0
 14 16  1  0
 16 17  1  0
 17 18  2  0
 18 19  1  0
 19 20  2  0
 20 21  1  0
 21 22  2  0
 22 23  1  0
 23 24  1  0
 12 25  2  0
 25 26  1  0
  5 27  2  0
 27 28  1  0
 28 29  2  0
 29 30  1  0
 29  3  1  0
 26 10  1  0
 22 17  1  0
  1 31  1  0
  1 32  1  0
  1 33  1  0
  4 34  1  0
  6 35  1  0
  6 36  1  0
 13 37  1  0
 13 38  1  0
 16 39  1  0
 18 40  1  0
 19 41  1  0
 20 42  1  0
 21 43  1  0
 24 44  1  0
 24 45  1  0
 24 46  1  0
 25 47  1  0
 27 48  1  0
 28 49  1  0
M  CHG  2  11  -1  30  -1
M  END
>  <UniqueID>  (83) 
76

>  <SMILES>  (83) 
COc1cc(CC(=O)N=c2[n-]c(CC(=O)Nc3ccccc3OC)cs2)ccc1[O-]

>  <Energy>  (83) 
77.30455716099115

>  <Genealogy>  (83) 
COc1cc(CC(=O)N=c2[n-]c(CC(=O)Nc3ccccc3OC)cs2)ccc1[O-] (protonated)
COc1cc(CC(=O)N=c2[n-]c(CC(=O)Nc3ccccc3OC)cs2)ccc1[O-] (3D coordinates assigned)
COc1cc(CC(=O)N=c2[n-]c(CC(=O)Nc3ccccc3OC)cs2)ccc1[O-] (optimized conformer: 77.30455716099115 kcal/mol)

>  <smiles>  (83) 
COc1cc(CC(=O)N=c2[nH]c(CC(=O)Nc3ccccc3OC)cs2)ccc1O

>  <score_type>  (83) 
oracle

>  <origin>  (83) 
adg

>  <m_score__min__energy>  (83) 
-14.73

>  <m_primary>  (83) 
energy

$$$$
83:0
     RDKit          3D

 65 68  0  0  0  0  0  0  0  0999 V2000
   58.4770   34.2380   46.6950 C   0  0  0  0  0  0  0  0  0  0  0  0
   59.8970   34.0900   47.1610 C   0  0  0  0  0  0  0  0  0  0  0  0
   60.9160   33.7690   46.2510 C   0  0  0  0  0  0  0  0  0  0  0  0
   62.2400   33.6510   46.6860 C   0  0  0  0  0  0  0  0  0  0  0  0
   62.5620   33.8600   48.0400 C   0  0  0  0  0  0  0  0  0  0  0  0
   63.8600   33.6730   48.5360 O   0  0  0  0  0  0  0  0  0  0  0  0
   64.2070   32.7380   49.5160 C   0  0  0  0  0  0  0  0  0  0  0  0
   65.5580   32.5190   49.8020 C   0  0  0  0  0  0  0  0  0  0  0  0
   65.9300   31.5920   50.7780 C   0  0  0  0  0  0  0  0  0  0  0  0
   64.9540   30.8570   51.4550 C   0  0  0  0  0  0  0  0  0  0  0  0
   63.5900   31.0460   51.1640 C   0  0  0  0  0  0  0  0  0  0  0  0
   62.5320   30.1910   51.8250 C   0  0  0  0  0  0  0  0  0  0  0  0
   61.1280   30.6240   51.4350 C   0  0  0  0  0  0  0  0  0  0  0  0
   60.4310   30.0740   50.3280 C   0  0  0  0  0  0  0  0  0  0  0  0
   61.0890   29.0340   49.4410 C   0  0  0  0  0  0  0  0  0  0  0  0
   59.1630   30.5130   50.0360 N   0  0  0  0  0  0  0  0  0  0  0  0
   58.5020   29.9560   48.9500 O   0  0  0  0  0  0  0  0  0  0  0  0
   58.6940   30.3980   47.6090 C   0  0  0  0  0  0  0  0  0  0  0  0
   59.0100   29.2030   46.7080 C   0  0  0  0  0  0  0  0  0  0  0  0
   58.5600   27.8600   47.2920 C   0  0  0  0  0  0  0  0  0  0  0  0
   57.3520   27.4100   46.6750 O   0  0  0  0  0  0  0  0  0  0  0  0
   57.1390   26.1730   46.0430 C   0  0  0  0  0  0  0  0  0  0  0  0
   58.1820   25.2740   45.7430 C   0  0  0  0  0  0  0  0  0  0  0  0
   57.9030   24.0470   45.1330 C   0  0  0  0  0  0  0  0  0  0  0  0
   56.5870   23.6970   44.8070 C   0  0  0  0  0  0  0  0  0  0  0  0
   56.3130   22.3950   44.1650 C   0  0  0  0  0  0  0  0  0  0  0  0
   55.8760   22.3310   42.9850 O   0  0  0  0  0  0  0  0  0  0  0  0
   55.5480   24.5950   45.0980 C   0  0  0  0  0  0  0  0  0  0  0  0
   55.8240   25.8190   45.7150 C   0  0  0  0  0  0  0  0  0  0  0  0
   54.7790   26.6890   46.0010 O   0  0  0  0  0  0  0  0  0  0  0  0
   58.5840   31.5050   50.7880 C   0  0  0  0  0  0  0  0  0  0  0  0
   57.4540   31.9660   50.4800 O   0  0  0  0  0  0  0  0  0  0  0  0
   59.2330   32.0220   51.8610 N   0  0  0  0  0  0  0  0  0  0  0  0
   60.4740   31.6020   52.2030 C   0  0  0  0  0  0  0  0  0  0  0  0
   61.0410   32.1050   53.2140 O   0  0  0  0  0  0  0  0  0  0  0  0
   63.2240   31.9960   50.1890 C   0  0  0  0  0  0  0  0  0  0  0  0
   61.5490   34.2190   48.9360 C   0  0  0  0  0  0  0  0  0  0  0  0
   60.2250   34.3430   48.5010 C   0  0  0  0  0  0  0  0  0  0  0  0
   57.8102   34.3075   47.5671 H   0  0  0  0  0  0  0  0  0  0  0  0
   58.3834   35.1508   46.0883 H   0  0  0  0  0  0  0  0  0  0  0  0
   58.1972   33.3641   46.0883 H   0  0  0  0  0  0  0  0  0  0  0  0
   60.6722   33.6094   45.1903 H   0  0  0  0  0  0  0  0  0  0  0  0
   63.0323   33.3940   45.9675 H   0  0  0  0  0  0  0  0  0  0  0  0
   66.3312   33.0793   49.2559 H   0  0  0  0  0  0  0  0  0  0  0  0
   66.9936   31.4404   51.0141 H   0  0  0  0  0  0  0  0  0  0  0  0
   65.2533   30.1259   52.2204 H   0  0  0  0  0  0  0  0  0  0  0  0
   62.6789   29.1444   51.5200 H   0  0  0  0  0  0  0  0  0  0  0  0
   62.6335   30.3047   52.9144 H   0  0  0  0  0  0  0  0  0  0  0  0
   61.5723   28.2702   50.0680 H   0  0  0  0  0  0  0  0  0  0  0  0
   60.3269   28.5586   48.8059 H   0  0  0  0  0  0  0  0  0  0  0  0
   61.8449   29.5191   48.8059 H   0  0  0  0  0  0  0  0  0  0  0  0
   57.7777   30.8914   47.2527 H   0  0  0  0  0  0  0  0  0  0  0  0
   59.5340   31.1075   47.5780 H   0  0  0  0  0  0  0  0  0  0  0  0
   58.5023   29.3506   45.7434 H   0  0  0  0  0  0  0  0  0  0  0  0
   60.1040   29.1588   46.6018 H   0  0  0  0  0  0  0  0  0  0  0  0
   59.3494   27.1125   47.1240 H   0  0  0  0  0  0  0  0  0  0  0  0
   58.3749   27.9913   48.3683 H   0  0  0  0  0  0  0  0  0  0  0  0
   59.2207   25.5388   45.9899 H   0  0  0  0  0  0  0  0  0  0  0  0
   58.7243   23.3509   44.9074 H   0  0  0  0  0  0  0  0  0  0  0  0
   56.4934   21.4663   44.7263 H   0  0  0  0  0  0  0  0  0  0  0  0
   54.5111   24.3343   44.8392 H   0  0  0  0  0  0  0  0  0  0  0  0
   58.7700   32.7670   52.4330 H   0  0  0  0  0  0  0  0  0  0  0  0
   62.1614   32.1568   49.9542 H   0  0  0  0  0  0  0  0  0  0  0  0
   61.7957   34.4054   49.9916 H   0  0  0  0  0  0  0  0  0  0  0  0
   59.4395   34.6396   49.2116 H   0  0  0  0  0  0  0  0  0  0  0  0
  1  2  1  0
  2  3  2  0
  3  4  1  0
  4  5  2  0
  5  6  1  0
  6  7  1  0
  7  8  2  0
  8  9  1  0
  9 10  2  0
 10 11  1  0
 11 12  1  0
 12 13  1  0
 13 14  2  0
 14 15  1  0
 14 16  1  0
 16 17  1  0
 17 18  1  0
 18 19  1  0
 19 20  1  0
 20 21  1  0
 21 22  1  0
 22 23  2  0
 23 24  1  0
 24 25  2  0
 25 26  1  0
 26 27  2  0
 25 28  1  0
 28 29  2  0
 29 30  1  0
 16 31  1  0
 31 32  2  0
 31 33  1  0
 33 34  1  0
 34 35  2  0
 11 36  2  0
  5 37  1  0
 37 38  2  0
 38  2  1  0
 36  7  1  0
 34 13  1  0
 29 22  1  0
  1 39  1  0
  1 40  1  0
  1 41  1  0
  3 42  1  0
  4 43  1  0
  8 44  1  0
  9 45  1  0
 10 46  1  0
 12 47  1  0
 12 48  1  0
 15 49  1  0
 15 50  1  0
 15 51  1  0
 18 52  1  0
 18 53  1  0
 19 54  1  0
 19 55  1  0
 20 56  1  0
 20 57  1  0
 23 58  1  0
 24 59  1  0
 26 60  1  0
 28 61  1  0
 33 62  1  0
 36 63  1  0
 37 64  1  0
 38 65  1  0
M  CHG  1  30  -1
M  END
>  <UniqueID>  (84) 
77

>  <SMILES>  (84) 
Cc1ccc(Oc2cccc(Cc3c(C)n(OCCCOc4ccc(C=O)cc4[O-])c(=O)[nH]c3=O)c2)cc1

>  <Energy>  (84) 
84.07595787548146

>  <Genealogy>  (84) 
Cc1ccc(Oc2cccc(Cc3c(C)n(OCCCOc4ccc(C=O)cc4[O-])c(=O)[nH]c3=O)c2)cc1 (protonated)
Cc1ccc(Oc2cccc(Cc3c(C)n(OCCCOc4ccc(C=O)cc4[O-])c(=O)[nH]c3=O)c2)cc1 (3D coordinates assigned)
Cc1ccc(Oc2cccc(Cc3c(C)n(OCCCOc4ccc(C=O)cc4[O-])c(=O)[nH]c3=O)c2)cc1 (optimized conformer: 84.07595787548146 kcal/mol)

>  <smiles>  (84) 
Cc1ccc(Oc2cccc(Cc3c(C)n(OCCCOc4ccc(C=O)cc4O)c(=O)[nH]c3=O)c2)cc1

>  <score_type>  (84) 
oracle

>  <origin>  (84) 
adg

>  <m_score__min__energy>  (84) 
-14.5

>  <m_primary>  (84) 
energy

$$$$
84:0
     RDKit          3D

 64 67  0  0  0  0  0  0  0  0999 V2000
   58.6030   34.1720   52.3870 C   0  0  0  0  0  0  0  0  0  0  0  0
   58.9650   33.4970   53.6990 C   0  0  0  0  0  0  0  0  0  0  0  0
   58.0510   32.4360   53.9490 O   0  0  0  0  0  0  0  0  0  0  0  0
   58.4570   31.1410   54.2970 C   0  0  0  0  0  0  0  0  0  0  0  0
   58.0100   30.5850   55.3350 O   0  0  0  0  0  0  0  0  0  0  0  0
   59.3380   30.4170   53.4360 N   0  0  0  0  0  0  0  0  0  0  0  0
   59.4240   30.6460   52.0240 C   0  0  0  0  0  0  0  0  0  0  0  0
   60.6090   31.1780   51.5000 C   0  0  0  0  0  0  0  0  0  0  0  0
   60.7720   31.3170   50.1210 C   0  0  0  0  0  0  0  0  0  0  0  0
   59.7370   30.9500   49.2530 C   0  0  0  0  0  0  0  0  0  0  0  0
   59.9650   30.9650   47.5080 S   0  0  0  0  0  0  0  0  0  0  0  0
   61.4280   30.9430   47.1630 O   0  0  0  0  0  0  0  0  0  0  0  0
   59.3470   32.2130   46.9470 O   0  0  0  0  0  0  0  0  0  0  0  0
   59.1760   29.5560   46.8500 N   0  0  0  0  0  0  0  0  0  0  0  0
   60.1690   28.6760   46.1930 C   0  0  0  0  0  0  0  0  0  0  0  0
   59.5070   27.6480   45.2550 C   0  0  0  0  0  0  0  0  0  0  0  0
   58.0920   27.4910   45.6020 N   0  0  0  0  0  0  0  0  0  0  0  0
   57.5630   26.2250   46.0340 C   0  0  0  0  0  0  0  0  0  0  0  0
   58.3050   25.1000   46.3430 C   0  0  0  0  0  0  0  0  0  0  0  0
   57.3770   24.1170   46.6320 C   0  0  0  0  0  0  0  0  0  0  0  0
   57.6990   22.8080   46.9770 O   0  0  0  0  0  0  0  0  0  0  0  0
   56.1120   24.5800   46.5050 N   0  0  0  0  0  0  0  0  0  0  0  0
   54.8950   23.8380   46.7000 C   0  0  0  0  0  0  0  0  0  0  0  0
   54.7610   22.9730   47.7980 C   0  0  0  0  0  0  0  0  0  0  0  0
   53.5860   22.2380   47.9790 C   0  0  0  0  0  0  0  0  0  0  0  0
   52.5330   22.3630   47.0710 C   0  0  0  0  0  0  0  0  0  0  0  0
   52.6420   23.2360   45.9790 C   0  0  0  0  0  0  0  0  0  0  0  0
   51.5330   23.3280   44.9750 C   0  0  0  0  0  0  0  0  0  0  0  0
   53.8310   23.9610   45.7880 C   0  0  0  0  0  0  0  0  0  0  0  0
   56.2280   25.8720   46.1280 C   0  0  0  0  0  0  0  0  0  0  0  0
   55.1460   26.7060   45.8590 O   0  0  0  0  0  0  0  0  0  0  0  0
   57.2450   28.6910   45.6240 C   0  0  0  0  0  0  0  0  0  0  0  0
   58.0940   29.9350   45.9290 C   0  0  0  0  0  0  0  0  0  0  0  0
   58.5270   30.4780   49.7740 C   0  0  0  0  0  0  0  0  0  0  0  0
   58.3540   30.3290   51.1610 C   0  0  0  0  0  0  0  0  0  0  0  0
   57.1410   29.8780   51.7070 O   0  0  0  0  0  0  0  0  0  0  0  0
   56.0390   30.7180   52.0380 C   0  0  0  0  0  0  0  0  0  0  0  0
   58.0923   35.1242   52.5932 H   0  0  0  0  0  0  0  0  0  0  0  0
   59.5188   34.3647   51.8089 H   0  0  0  0  0  0  0  0  0  0  0  0
   57.9358   33.5158   51.8089 H   0  0  0  0  0  0  0  0  0  0  0  0
   59.9868   33.0947   53.6357 H   0  0  0  0  0  0  0  0  0  0  0  0
   58.9121   34.2298   54.5176 H   0  0  0  0  0  0  0  0  0  0  0  0
   61.4163   31.4882   52.1798 H   0  0  0  0  0  0  0  0  0  0  0  0
   61.7141   31.7151   49.7160 H   0  0  0  0  0  0  0  0  0  0  0  0
   60.8595   29.2985   45.6051 H   0  0  0  0  0  0  0  0  0  0  0  0
   60.7007   28.1210   46.9800 H   0  0  0  0  0  0  0  0  0  0  0  0
   59.5905   27.9970   44.2152 H   0  0  0  0  0  0  0  0  0  0  0  0
   60.0154   26.6788   45.3653 H   0  0  0  0  0  0  0  0  0  0  0  0
   59.4010   25.0069   46.3561 H   0  0  0  0  0  0  0  0  0  0  0  0
   55.5852   22.8733   48.5196 H   0  0  0  0  0  0  0  0  0  0  0  0
   53.4907   21.5592   48.8393 H   0  0  0  0  0  0  0  0  0  0  0  0
   51.6145   21.7746   47.2126 H   0  0  0  0  0  0  0  0  0  0  0  0
   50.5694   23.4079   45.4994 H   0  0  0  0  0  0  0  0  0  0  0  0
   51.6821   24.2169   44.3444 H   0  0  0  0  0  0  0  0  0  0  0  0
   51.5336   22.4267   44.3444 H   0  0  0  0  0  0  0  0  0  0  0  0
   53.9301   24.6290   44.9197 H   0  0  0  0  0  0  0  0  0  0  0  0
   56.7617   28.8125   44.6433 H   0  0  0  0  0  0  0  0  0  0  0  0
   56.4815   28.5768   46.4076 H   0  0  0  0  0  0  0  0  0  0  0  0
   58.5236   30.3274   44.9955 H   0  0  0  0  0  0  0  0  0  0  0  0
   57.4663   30.7122   46.3894 H   0  0  0  0  0  0  0  0  0  0  0  0
   57.7034   30.2211   49.0916 H   0  0  0  0  0  0  0  0  0  0  0  0
   55.9470   30.7881   53.1319 H   0  0  0  0  0  0  0  0  0  0  0  0
   56.2040   31.7215   51.6188 H   0  0  0  0  0  0  0  0  0  0  0  0
   55.1151   30.2929   51.6188 H   0  0  0  0  0  0  0  0  0  0  0  0
  1  2  1  0
  2  3  1  0
  3  4  1  0
  4  5  2  0
  4  6  1  0
  6  7  1  0
  7  8  2  0
  8  9  1  0
  9 10  2  0
 10 11  1  0
 11 12  2  0
 11 13  2  0
 11 14  1  0
 14 15  1  0
 15 16  1  0
 16 17  1  0
 17 18  1  0
 18 19  1  0
 19 20  2  0
 20 21  1  0
 20 22  1  0
 22 23  1  0
 23 24  2  0
 24 25  1  0
 25 26  2  0
 26 27  1  0
 27 28  1  0
 27 29  2  0
 22 30  1  0
 30 31  1  0
 17 32  1  0
 32 33  1  0
 10 34  1  0
 34 35  2  0
 35 36  1  0
 36 37  1  0
 35  7  1  0
 33 14  1  0
 30 18  2  0
 29 23  1  0
  1 38  1  0
  1 39  1  0
  1 40  1  0
  2 41  1  0
  2 42  1  0
  8 43  1  0
  9 44  1  0
 15 45  1  0
 15 46  1  0
 16 47  1  0
 16 48  1  0
 19 49  1  0
 24 50  1  0
 25 51  1  0
 26 52  1  0
 28 53  1  0
 28 54  1  0
 28 55  1  0
 29 56  1  0
 32 57  1  0
 32 58  1  0
 33 59  1  0
 33 60  1  0
 34 61  1  0
 37 62  1  0
 37 63  1  0
 37 64  1  0
M  CHG  3   6  -1  21  -1  31  -1
M  END
>  <UniqueID>  (85) 
78

>  <SMILES>  (85) 
CCOC(=O)[N-]c1ccc(S(=O)(=O)N2CCN(c3cc([O-])n(-c4cccc(C)c4)c3[O-])CC2)cc1OC

>  <Energy>  (85) 
104.91731703091948

>  <Genealogy>  (85) 
CCOC(=O)[N-]c1ccc(S(=O)(=O)N2CCN(c3cc([O-])n(-c4cccc(C)c4)c3[O-])CC2)cc1OC (protonated)
CCOC(=O)[N-]c1ccc(S(=O)(=O)N2CCN(c3cc([O-])n(-c4cccc(C)c4)c3[O-])CC2)cc1OC (3D coordinates assigned)
CCOC(=O)[N-]c1ccc(S(=O)(=O)N2CCN(c3cc([O-])n(-c4cccc(C)c4)c3[O-])CC2)cc1OC (nonaromatic ring conformer: 104.91731703091948 kcal/mol)

>  <smiles>  (85) 
CCOC(=O)Nc1ccc(S(=O)(=O)N2CCN(c3cc(O)n(-c4cccc(C)c4)c3O)CC2)cc1OC

>  <score_type>  (85) 
oracle

>  <origin>  (85) 
adg

>  <m_score__min__energy>  (85) 
-15.050000000000001

>  <m_primary>  (85) 
energy

$$$$
85:0
     RDKit          3D

 15 15  0  0  0  0  0  0  0  0999 V2000
   56.0520   29.1570   45.2400 N   0  0  0  0  0  0  0  0  0  0  0  0
   57.3270   28.5210   45.2850 C   0  0  0  0  0  0  0  0  0  0  0  0
   58.2860   29.0790   45.8790 O   0  0  0  0  0  0  0  0  0  0  0  0
   57.5100   27.1720   44.6660 C   0  0  0  0  0  0  0  0  0  0  0  0
   57.1340   26.1030   45.6440 C   0  0  0  0  0  0  0  0  0  0  0  0
   57.9720   25.1480   46.1770 C   0  0  0  0  0  0  0  0  0  0  0  0
   57.1940   24.4410   47.0730 C   0  0  0  0  0  0  0  0  0  0  0  0
   57.6490   23.3740   47.8360 O   0  0  0  0  0  0  0  0  0  0  0  0
   55.9310   24.9060   47.1330 N   0  0  0  0  0  0  0  0  0  0  0  0
   55.9090   25.9280   46.2580 C   0  0  0  0  0  0  0  0  0  0  0  0
   54.7810   26.7060   46.0210 O   0  0  0  0  0  0  0  0  0  0  0  0
   55.2030   28.6840   45.6220 H   0  0  0  0  0  0  0  0  0  0  0  0
   56.8708   27.0909   43.7745 H   0  0  0  0  0  0  0  0  0  0  0  0
   58.5652   27.0458   44.3822 H   0  0  0  0  0  0  0  0  0  0  0  0
   59.0335   24.9837   45.9398 H   0  0  0  0  0  0  0  0  0  0  0  0
  1  2  1  0
  2  3  2  0
  2  4  1  0
  4  5  1  0
  5  6  1  0
  6  7  2  0
  7  8  1  0
  7  9  1  0
  9 10  1  0
 10 11  1  0
 10  5  2  0
  1 12  1  0
  4 13  1  0
  4 14  1  0
  6 15  1  0
M  CHG  4   1  -1   8  -1   9  -1  11  -1
M  END
>  <UniqueID>  (86) 
79

>  <SMILES>  (86) 
[NH-]C(=O)Cc1cc([O-])[n-]c1[O-]

>  <Energy>  (86) 
36.82603272153157

>  <Genealogy>  (86) 
[NH-]C(=O)Cc1cc([O-])[n-]c1[O-] (protonated)
[NH-]C(=O)Cc1cc([O-])[n-]c1[O-] (3D coordinates assigned)
[NH-]C(=O)Cc1cc([O-])[n-]c1[O-] (optimized conformer: 36.82603272153157 kcal/mol)

>  <smiles>  (86) 
NC(=O)Cc1cc(O)[nH]c1O

>  <score_type>  (86) 
oracle

>  <origin>  (86) 
adg

>  <m_score__min__energy>  (86) 
-14.880000000000001

>  <m_primary>  (86) 
energy

$$$$
86:0
     RDKit          3D

 33 34  0  0  0  0  0  0  0  0999 V2000
   53.1060   28.6470   52.7800 C   0  0  0  0  0  0  0  0  0  0  0  0
   54.2670   29.2720   52.5730 C   0  0  0  0  0  0  0  0  0  0  0  0
   55.4520   28.6490   52.6970 N   0  0  0  0  0  0  0  0  0  0  0  0
   56.4150   29.5150   52.4300 N   0  0  0  0  0  0  0  0  0  0  0  0
   55.8670   30.7130   52.1450 C   0  0  0  0  0  0  0  0  0  0  0  0
   56.7060   31.8460   51.6130 C   0  0  0  0  0  0  0  0  0  0  0  0
   57.8360   31.3460   50.7040 C   0  0  0  0  0  0  0  0  0  0  0  0
   58.8490   32.4190   50.4480 C   0  0  0  0  0  0  0  0  0  0  0  0
   58.9920   33.3570   51.2780 O   0  0  0  0  0  0  0  0  0  0  0  0
   59.6150   32.3980   49.2420 N   0  0  0  0  0  0  0  0  0  0  0  0
   59.3370   33.5150   47.9500 S   0  0  0  0  0  0  0  0  0  0  0  0
   57.7830   33.1340   47.1750 C   0  0  0  0  0  0  0  0  0  0  0  0
   59.2930   34.9150   48.4940 O   0  0  0  0  0  0  0  0  0  0  0  0
   60.4370   33.3990   46.9320 O   0  0  0  0  0  0  0  0  0  0  0  0
   54.4720   30.6080   52.2240 C   0  0  0  0  0  0  0  0  0  0  0  0
   53.5140   31.5290   51.9880 C   0  0  0  0  0  0  0  0  0  0  0  0
   52.5290   31.4600   50.9040 C   0  0  0  0  0  0  0  0  0  0  0  0
   52.5100   30.4940   49.9700 N   0  0  0  0  0  0  0  0  0  0  0  0
   51.3710   30.7450   49.2890 C   0  0  0  0  0  0  0  0  0  0  0  0
   51.0050   30.0540   48.3030 O   0  0  0  0  0  0  0  0  0  0  0  0
   50.6470   31.7860   49.7550 N   0  0  0  0  0  0  0  0  0  0  0  0
   51.3870   32.2170   50.7900 C   0  0  0  0  0  0  0  0  0  0  0  0
   51.0190   33.2670   51.6210 O   0  0  0  0  0  0  0  0  0  0  0  0
   52.1588   29.1948   52.6676 H   0  0  0  0  0  0  0  0  0  0  0  0
   53.0964   27.5841   53.0630 H   0  0  0  0  0  0  0  0  0  0  0  0
   56.0609   32.5256   51.0368 H   0  0  0  0  0  0  0  0  0  0  0  0
   57.1626   32.3626   52.4702 H   0  0  0  0  0  0  0  0  0  0  0  0
   58.3335   30.4928   51.1883 H   0  0  0  0  0  0  0  0  0  0  0  0
   57.3977   31.0477   49.7402 H   0  0  0  0  0  0  0  0  0  0  0  0
   57.0234   32.9478   47.9485 H   0  0  0  0  0  0  0  0  0  0  0  0
   57.4682   33.9816   46.5485 H   0  0  0  0  0  0  0  0  0  0  0  0
   57.8959   32.2369   46.5485 H   0  0  0  0  0  0  0  0  0  0  0  0
   53.4687   32.3982   52.6606 H   0  0  0  0  0  0  0  0  0  0  0  0
  1  2  2  0
  2  3  1  0
  3  4  1  0
  4  5  2  0
  5  6  1  0
  6  7  1  0
  7  8  1  0
  8  9  2  0
  8 10  1  0
 10 11  1  0
 11 12  1  0
 11 13  2  0
 11 14  2  0
  5 15  1  0
 15 16  2  3
 16 17  1  0
 17 18  1  0
 18 19  1  0
 19 20  2  0
 19 21  1  0
 21 22  1  0
 22 23  1  0
 15  2  1  0
 22 17  2  0
  1 24  1  0
  1 25  1  0
  6 26  1  0
  6 27  1  0
  7 28  1  0
  7 29  1  0
 12 30  1  0
 12 31  1  0
 12 32  1  0
 16 33  1  0
M  CHG  5   3  -1  10  -1  18  -1  21  -1  23  -1
M  END
>  <UniqueID>  (87) 
80

>  <SMILES>  (87) 
C=c1[n-]nc(CCC(=O)[N-]S(C)(=O)=O)c1=Cc1[n-]c(=O)[n-]c1[O-]

>  <Energy>  (87) 
98.7324502171531

>  <Genealogy>  (87) 
C=c1[n-]nc(CCC(=O)[N-]S(C)(=O)=O)c1=Cc1[n-]c(=O)[n-]c1[O-] (protonated)
C=c1[n-]nc(CCC(=O)[N-]S(C)(=O)=O)c1=Cc1[n-]c(=O)[n-]c1[O-] (3D coordinates assigned)
C=c1[n-]nc(CCC(=O)[N-]S(C)(=O)=O)c1=Cc1[n-]c(=O)[n-]c1[O-] (optimized conformer: 98.7324502171531 kcal/mol)

>  <smiles>  (87) 
C=c1[nH]nc(CCC(=O)NS(C)(=O)=O)c1=Cc1[nH]c(=O)[nH]c1O

>  <score_type>  (87) 
oracle

>  <origin>  (87) 
adg

>  <m_score__min__energy>  (87) 
-17.280000000000001

>  <m_primary>  (87) 
energy

$$$$
87:0
     RDKit          3D

 79 82  0  0  0  0  0  0  0  0999 V2000
   56.5950   30.2440   44.4570 C   0  0  0  0  0  0  0  0  0  0  0  0
   57.8340   30.8620   45.0990 C   0  0  0  0  0  0  0  0  0  0  0  0
   58.1660   32.1560   44.4680 N   0  0  0  0  0  0  0  0  0  0  0  0
   57.3970   32.4470   43.2350 C   0  0  0  0  0  0  0  0  0  0  0  0
   58.1810   32.2600   41.9230 C   0  0  0  0  0  0  0  0  0  0  0  0
   58.1520   33.5040   45.5920 S   0  0  0  0  0  0  0  0  0  0  0  0
   58.2640   34.8010   44.8430 O   0  0  0  0  0  0  0  0  0  0  0  0
   56.8380   33.5200   46.3240 O   0  0  0  0  0  0  0  0  0  0  0  0
   59.4570   33.4240   46.7760 C   0  0  0  0  0  0  0  0  0  0  0  0
   60.7260   32.9740   46.3960 C   0  0  0  0  0  0  0  0  0  0  0  0
   61.7600   32.9060   47.3320 C   0  0  0  0  0  0  0  0  0  0  0  0
   61.5400   33.2970   48.6670 C   0  0  0  0  0  0  0  0  0  0  0  0
   62.5420   33.1860   49.6440 O   0  0  0  0  0  0  0  0  0  0  0  0
   63.7800   32.5060   49.4620 C   0  0  0  0  0  0  0  0  0  0  0  0
   60.2720   33.7890   49.0390 C   0  0  0  0  0  0  0  0  0  0  0  0
   59.9920   34.1930   50.3870 N   0  0  0  0  0  0  0  0  0  0  0  0
   59.4360   33.3490   51.4010 C   0  0  0  0  0  0  0  0  0  0  0  0
   58.3660   33.7020   51.9660 O   0  0  0  0  0  0  0  0  0  0  0  0
   60.1250   32.0810   51.8330 C   0  0  0  0  0  0  0  0  0  0  0  0
   60.0210   31.0160   50.7710 C   0  0  0  0  0  0  0  0  0  0  0  0
   61.0600   30.0910   50.5880 C   0  0  0  0  0  0  0  0  0  0  0  0
   60.9710   29.1140   49.5910 C   0  0  0  0  0  0  0  0  0  0  0  0
   59.8360   29.0460   48.7650 C   0  0  0  0  0  0  0  0  0  0  0  0
   59.7250   28.0800   47.7110 N   0  0  0  0  0  0  0  0  0  0  0  0
   59.7870   28.3610   46.3070 C   0  0  0  0  0  0  0  0  0  0  0  0
   60.7650   28.9960   45.8260 O   0  0  0  0  0  0  0  0  0  0  0  0
   58.7400   27.7780   45.3970 C   0  0  1  0  0  0  0  0  0  0  0  0
   59.1790   27.8240   43.9180 C   0  0  0  0  0  0  0  0  0  0  0  0
   58.1120   27.2010   43.0060 C   0  0  0  0  0  0  0  0  0  0  0  0
   57.7680   25.7740   43.4530 C   0  0  0  0  0  0  0  0  0  0  0  0
   57.4340   25.7700   44.8800 N   0  0  0  0  0  0  0  0  0  0  0  0
   56.2360   25.1240   45.3490 C   0  0  0  0  0  0  0  0  0  0  0  0
   55.3800   25.7940   45.9900 O   0  0  0  0  0  0  0  0  0  0  0  0
   55.9890   23.6600   45.0620 C   0  0  0  0  0  0  0  0  0  0  0  0
   55.5130   23.3570   43.6400 C   0  0  0  0  0  0  0  0  0  0  0  0
   56.7950   22.5750   43.3820 C   0  0  0  0  0  0  0  0  0  0  0  0
   57.2720   22.8750   44.7970 C   0  0  0  0  0  0  0  0  0  0  0  0
   58.4160   26.3370   45.8120 C   0  0  0  0  0  0  0  0  0  0  0  0
   58.8100   29.9850   48.9330 C   0  0  0  0  0  0  0  0  0  0  0  0
   58.8930   30.9540   49.9360 C   0  0  0  0  0  0  0  0  0  0  0  0
   59.2370   33.8320   48.0990 C   0  0  0  0  0  0  0  0  0  0  0  0
   55.9069   29.9008   45.2436 H   0  0  0  0  0  0  0  0  0  0  0  0
   56.0916   30.9966   43.8323 H   0  0  0  0  0  0  0  0  0  0  0  0
   56.8934   29.3892   43.8323 H   0  0  0  0  0  0  0  0  0  0  0  0
   57.6423   31.0225   46.1702 H   0  0  0  0  0  0  0  0  0  0  0  0
   58.6817   30.1752   44.9586 H   0  0  0  0  0  0  0  0  0  0  0  0
   56.5247   31.7774   43.2103 H   0  0  0  0  0  0  0  0  0  0  0  0
   57.1268   33.5122   43.2839 H   0  0  0  0  0  0  0  0  0  0  0  0
   59.2272   32.0104   42.1534 H   0  0  0  0  0  0  0  0  0  0  0  0
   57.7295   31.4443   41.3391 H   0  0  0  0  0  0  0  0  0  0  0  0
   58.1463   33.1916   41.3391 H   0  0  0  0  0  0  0  0  0  0  0  0
   60.9102   32.6722   45.3544 H   0  0  0  0  0  0  0  0  0  0  0  0
   62.7525   32.5448   47.0247 H   0  0  0  0  0  0  0  0  0  0  0  0
   64.2149   32.2671   50.4437 H   0  0  0  0  0  0  0  0  0  0  0  0
   63.6083   31.5756   48.9008 H   0  0  0  0  0  0  0  0  0  0  0  0
   64.4731   33.1500   48.9008 H   0  0  0  0  0  0  0  0  0  0  0  0
   61.1869   32.2962   52.0228 H   0  0  0  0  0  0  0  0  0  0  0  0
   59.6353   31.7118   52.7462 H   0  0  0  0  0  0  0  0  0  0  0  0
   61.9502   30.1344   51.2327 H   0  0  0  0  0  0  0  0  0  0  0  0
   61.7928   28.3959   49.4529 H   0  0  0  0  0  0  0  0  0  0  0  0
   57.8335   28.3933   45.4948 H   0  0  0  0  0  0  0  0  0  0  0  0
   59.3372   28.8717   43.6224 H   0  0  0  0  0  0  0  0  0  0  0  0
   60.1100   27.2479   43.8114 H   0  0  0  0  0  0  0  0  0  0  0  0
   57.2024   27.8184   43.0436 H   0  0  0  0  0  0  0  0  0  0  0  0
   58.5093   27.1598   41.9811 H   0  0  0  0  0  0  0  0  0  0  0  0
   56.9069   25.4074   42.8750 H   0  0  0  0  0  0  0  0  0  0  0  0
   58.6349   25.1193   43.2801 H   0  0  0  0  0  0  0  0  0  0  0  0
   55.3405   23.4201   45.9175 H   0  0  0  0  0  0  0  0  0  0  0  0
   54.5978   22.7486   43.5922 H   0  0  0  0  0  0  0  0  0  0  0  0
   55.2118   24.1729   42.9665 H   0  0  0  0  0  0  0  0  0  0  0  0
   56.6345   21.5056   43.1807 H   0  0  0  0  0  0  0  0  0  0  0  0
   57.4306   22.8221   42.5189 H   0  0  0  0  0  0  0  0  0  0  0  0
   57.3915   21.9829   45.4294 H   0  0  0  0  0  0  0  0  0  0  0  0
   58.2545   23.3396   44.9669 H   0  0  0  0  0  0  0  0  0  0  0  0
   58.0002   26.3331   46.8304 H   0  0  0  0  0  0  0  0  0  0  0  0
   59.3350   25.7329   45.7897 H   0  0  0  0  0  0  0  0  0  0  0  0
   57.9325   29.9592   48.2702 H   0  0  0  0  0  0  0  0  0  0  0  0
   58.0709   31.6720   50.0726 H   0  0  0  0  0  0  0  0  0  0  0  0
   58.2413   34.1892   48.4007 H   0  0  0  0  0  0  0  0  0  0  0  0
  1  2  1  0
  2  3  1  0
  3  4  1  0
  4  5  1  0
  3  6  1  0
  6  7  2  0
  6  8  2  0
  6  9  1  0
  9 10  2  0
 10 11  1  0
 11 12  2  0
 12 13  1  0
 13 14  1  0
 12 15  1  0
 15 16  1  0
 16 17  1  0
 17 18  2  0
 17 19  1  0
 19 20  1  0
 20 21  2  0
 21 22  1  0
 22 23  2  0
 23 24  1  0
 24 25  1  0
 25 26  2  0
 25 27  1  0
 27 28  1  0
 28 29  1  0
 29 30  1  0
 30 31  1  0
 31 32  1  0
 32 33  2  0
 32 34  1  0
 34 35  1  0
 35 36  1  0
 36 37  1  0
 31 38  1  0
 23 39  1  0
 39 40  2  0
 15 41  2  0
 41  9  1  0
 40 20  1  0
 38 27  1  0
 37 34  1  0
  1 42  1  0
  1 43  1  0
  1 44  1  0
  2 45  1  0
  2 46  1  0
  4 47  1  0
  4 48  1  0
  5 49  1  0
  5 50  1  0
  5 51  1  0
 10 52  1  0
 11 53  1  0
 14 54  1  0
 14 55  1  0
 14 56  1  0
 19 57  1  0
 19 58  1  0
 21 59  1  0
 22 60  1  0
 27 61  1  6
 28 62  1  0
 28 63  1  0
 29 64  1  0
 29 65  1  0
 30 66  1  0
 30 67  1  0
 34 68  1  0
 35 69  1  0
 35 70  1  0
 36 71  1  0
 36 72  1  0
 37 73  1  0
 37 74  1  0
 38 75  1  0
 38 76  1  0
 39 77  1  0
 40 78  1  0
 41 79  1  0
M  CHG  2  16  -1  24  -1
M  END
>  <UniqueID>  (88) 
81

>  <SMILES>  (88) 
CCN(CC)S(=O)(=O)c1ccc(OC)c([N-]C(=O)Cc2ccc([N-]C(=O)[C@H]3CCCN(C(=O)C4CCC4)C3)cc2)c1

>  <Energy>  (88) 
148.62306482346065

>  <Genealogy>  (88) 
CCN(CC)S(=O)(=O)c1ccc(OC)c([N-]C(=O)Cc2ccc([N-]C(=O)C3CCCN(C(=O)C4CCC4)C3)cc2)c1 (protonated)
CCN(CC)S(=O)(=O)c1ccc(OC)c([N-]C(=O)Cc2ccc([N-]C(=O)[C@H]3CCCN(C(=O)C4CCC4)C3)cc2)c1 (chirality)
CCN(CC)S(=O)(=O)c1ccc(OC)c([N-]C(=O)Cc2ccc([N-]C(=O)[C@H]3CCCN(C(=O)C4CCC4)C3)cc2)c1 (3D coordinates assigned)
CCN(CC)S(=O)(=O)c1ccc(OC)c([N-]C(=O)Cc2ccc([N-]C(=O)[C@H]3CCCN(C(=O)C4CCC4)C3)cc2)c1 (nonaromatic ring conformer: 148.62306482346065 kcal/mol)

>  <smiles>  (88) 
CCN(CC)S(=O)(=O)c1ccc(OC)c(NC(=O)Cc2ccc(NC(=O)C3CCCN(C(=O)C4CCC4)C3)cc2)c1

>  <score_type>  (88) 
oracle

>  <origin>  (88) 
adg

>  <m_score__min__energy>  (88) 
-13.15

>  <m_primary>  (88) 
energy

$$$$
