0:0
     RDKit          3D

 56 59  0  0  1  0  0  0  0  0999 V2000
   56.6590   30.5420   42.5660 C   0  0  0  0  0  0  0  0  0  0  0  0
   57.7170   31.1460   43.3620 N   0  0  0  0  0  0  0  0  0  0  0  0
   57.4740   31.9350   44.5090 C   0  0  0  0  0  0  0  0  0  0  0  0
   56.2840   32.1300   44.8680 O   0  0  0  0  0  0  0  0  0  0  0  0
   58.5260   32.5460   45.3140 C   0  0  0  0  0  0  0  0  0  0  0  0
   58.6700   33.9150   45.2470 C   0  0  0  0  0  0  0  0  0  0  0  0
   59.6640   34.5470   46.0000 C   0  0  0  0  0  0  0  0  0  0  0  0
   60.4770   33.7820   46.7940 C   0  0  0  0  0  0  0  0  0  0  0  0
   60.3650   32.4200   46.8870 C   0  0  0  0  0  0  0  0  0  0  0  0
   61.2310   31.6630   47.7230 N   0  0  0  0  0  0  0  0  0  0  0  0
   60.8800   30.4710   48.0990 C   0  0  0  0  0  0  0  0  0  0  0  0
   60.1600   29.6560   47.3040 N   0  0  0  0  0  0  0  0  0  0  0  0
   59.8240   28.4290   47.7450 C   0  0  0  0  0  0  0  0  0  0  0  0
   59.0660   27.5650   46.9090 N   0  0  0  0  0  0  0  0  0  0  0  0
   59.3160   27.3980   45.4710 C   0  0  0  0  0  0  0  0  0  0  0  0
   58.2990   26.3990   45.0020 C   0  0  0  0  0  0  0  0  0  0  0  0
   57.1840   26.6130   46.0040 C   0  0  1  0  0  0  0  0  0  0  0  0
   56.0520   25.2670   46.0470 S   0  0  0  0  0  0  0  0  0  0  0  0
   54.7000   25.7930   45.6500 O   0  0  0  0  0  0  0  0  0  0  0  0
   55.9810   24.7900   47.4790 O   0  0  0  0  0  0  0  0  0  0  0  0
   56.5360   23.9450   45.0120 C   0  0  0  0  0  0  0  0  0  0  0  0
   55.5720   23.3990   44.1630 C   0  0  0  0  0  0  0  0  0  0  0  0
   55.8700   22.3800   43.3370 N   0  0  0  0  0  0  0  0  0  0  0  0
   57.1200   21.8420   43.2970 C   0  0  0  0  0  0  0  0  0  0  0  0
   58.0830   22.3810   44.1390 C   0  0  0  0  0  0  0  0  0  0  0  0
   59.4580   21.8280   44.1310 C   0  0  0  0  0  0  0  0  0  0  0  0
   57.8050   23.4230   44.9930 C   0  0  0  0  0  0  0  0  0  0  0  0
   57.9680   26.7340   47.3030 C   0  0  0  0  0  0  0  0  0  0  0  0
   60.2300   28.0470   49.0060 C   0  0  0  0  0  0  0  0  0  0  0  0
   60.9670   28.8860   49.8170 C   0  0  0  0  0  0  0  0  0  0  0  0
   61.2790   30.1020   49.3320 N   0  0  0  0  0  0  0  0  0  0  0  0
   59.3640   31.8090   46.1240 C   0  0  0  0  0  0  0  0  0  0  0  0
   55.8998   30.1086   43.2336 H   0  0  0  0  0  0  0  0  0  0  0  0
   56.1935   31.3104   41.9313 H   0  0  0  0  0  0  0  0  0  0  0  0
   57.0840   29.7504   41.9313 H   0  0  0  0  0  0  0  0  0  0  0  0
   58.7000   30.9760   43.0530 H   0  0  0  0  0  0  0  0  0  0  0  0
   58.0047   34.5087   44.6029 H   0  0  0  0  0  0  0  0  0  0  0  0
   59.7910   35.6387   45.9557 H   0  0  0  0  0  0  0  0  0  0  0  0
   61.2566   34.2853   47.3848 H   0  0  0  0  0  0  0  0  0  0  0  0
   59.1865   28.3550   44.9443 H   0  0  0  0  0  0  0  0  0  0  0  0
   60.3435   27.0596   45.2714 H   0  0  0  0  0  0  0  0  0  0  0  0
   57.9653   26.6160   43.9766 H   0  0  0  0  0  0  0  0  0  0  0  0
   58.6718   25.3650   44.9588 H   0  0  0  0  0  0  0  0  0  0  0  0
   56.5464   27.4802   45.7773 H   0  0  0  0  0  0  0  0  0  0  0  0
   54.5513   23.8090   44.1695 H   0  0  0  0  0  0  0  0  0  0  0  0
   57.3588   21.0083   42.6203 H   0  0  0  0  0  0  0  0  0  0  0  0
   59.8034   21.6891   45.1661 H   0  0  0  0  0  0  0  0  0  0  0  0
   59.4605   20.8590   43.6105 H   0  0  0  0  0  0  0  0  0  0  0  0
   60.1307   22.5255   43.6105 H   0  0  0  0  0  0  0  0  0  0  0  0
   58.5872   23.8312   45.6500 H   0  0  0  0  0  0  0  0  0  0  0  0
   57.3666   27.2122   48.0902 H   0  0  0  0  0  0  0  0  0  0  0  0
   58.2731   25.7671   47.7298 H   0  0  0  0  0  0  0  0  0  0  0  0
   59.9593   27.0469   49.3755 H   0  0  0  0  0  0  0  0  0  0  0  0
   61.2872   28.5727   50.8216 H   0  0  0  0  0  0  0  0  0  0  0  0
   61.8340   30.7430   49.9350 H   0  0  0  0  0  0  0  0  0  0  0  0
   59.2428   30.7167   46.1713 H   0  0  0  0  0  0  0  0  0  0  0  0
  1  2  1  0
  2  3  1  0
  3  4  2  0
  3  5  1  0
  5  6  2  0
  6  7  1  0
  7  8  2  0
  8  9  1  0
  9 10  1  0
 10 11  2  0
 11 12  1  0
 12 13  2  0
 13 14  1  0
 14 15  1  0
 15 16  1  0
 16 17  1  0
 17 18  1  0
 18 19  2  0
 18 20  2  0
 18 21  1  0
 21 22  2  0
 22 23  1  0
 23 24  2  0
 24 25  1  0
 25 26  1  0
 25 27  2  0
 17 28  1  0
 13 29  1  0
 29 30  2  0
 30 31  1  0
  9 32  2  0
 32  5  1  0
 31 11  1  0
 28 14  1  0
 27 21  1  0
  1 33  1  0
  1 34  1  0
  1 35  1  0
  2 36  1  0
  6 37  1  0
  7 38  1  0
  8 39  1  0
 15 40  1  0
 15 41  1  0
 16 42  1  0
 16 43  1  0
 17 44  1  6
 22 45  1  0
 24 46  1  0
 26 47  1  0
 26 48  1  0
 26 49  1  0
 27 50  1  0
 28 51  1  0
 28 52  1  0
 29 53  1  0
 30 54  1  0
 31 55  1  0
 32 56  1  0
M  END
>  <smiles>  (1) 
CNC(=O)c1cccc(N=c2nc(N3CCC(S(=O)(=O)c4cncc(C)c4)C3)cc[nH]2)c1

>  <score_type>  (1) 
oracle

>  <origin>  (1) 
adg

>  <m_score__min__energy>  (1) 
-10.35

>  <m_primary>  (1) 
energy

$$$$
1:0
     RDKit          3D

 38 40  0  0  0  0  0  0  0  0999 V2000
   55.5480   26.6660   46.1770 O   0  0  0  0  0  0  0  0  0  0  0  0
   56.2790   27.5260   45.6180 C   0  0  0  0  0  0  0  0  0  0  0  0
   57.7700   27.4240   45.7730 C   0  0  0  0  0  0  0  0  0  0  0  0
   58.0740   26.9140   47.1080 N   0  0  0  0  0  0  0  0  0  0  0  0
   59.7390   27.2130   47.5030 S   0  0  0  0  0  0  0  0  0  0  0  0
   60.0700   26.5220   48.7970 O   0  0  0  0  0  0  0  0  0  0  0  0
   60.6350   26.6640   46.4250 O   0  0  0  0  0  0  0  0  0  0  0  0
   60.0050   28.9410   47.6990 C   0  0  0  0  0  0  0  0  0  0  0  0
   59.7980   29.5370   48.9500 C   0  0  0  0  0  0  0  0  0  0  0  0
   60.0680   30.8970   49.1360 C   0  0  0  0  0  0  0  0  0  0  0  0
   60.5400   31.6660   48.0720 C   0  0  0  0  0  0  0  0  0  0  0  0
   60.7300   31.0820   46.8150 C   0  0  0  0  0  0  0  0  0  0  0  0
   60.4610   29.7220   46.6270 C   0  0  0  0  0  0  0  0  0  0  0  0
   55.6520   28.6400   44.9630 N   0  0  0  0  0  0  0  0  0  0  0  0
   56.2480   29.6940   44.4900 C   0  0  0  0  0  0  0  0  0  0  0  0
   56.7300   30.7050   45.2460 N   0  0  0  0  0  0  0  0  0  0  0  0
   57.3640   31.6450   44.4960 C   0  0  0  0  0  0  0  0  0  0  0  0
   58.0240   32.8180   45.1210 C   0  0  0  0  0  0  0  0  0  0  0  0
   58.7980   33.7150   44.3560 C   0  0  0  0  0  0  0  0  0  0  0  0
   59.4270   34.8070   44.9660 C   0  0  0  0  0  0  0  0  0  0  0  0
   59.2990   35.0070   46.3430 C   0  0  0  0  0  0  0  0  0  0  0  0
   58.5250   34.1310   47.1100 C   0  0  0  0  0  0  0  0  0  0  0  0
   57.8860   33.0450   46.5050 C   0  0  0  0  0  0  0  0  0  0  0  0
   57.3840   31.3690   43.1240 C   0  0  0  0  0  0  0  0  0  0  0  0
   56.6000   29.9050   42.8660 S   0  0  0  0  0  0  0  0  0  0  0  0
   58.1738   26.7371   45.0147 H   0  0  0  0  0  0  0  0  0  0  0  0
   58.2269   28.4158   45.6403 H   0  0  0  0  0  0  0  0  0  0  0  0
   59.4218   28.9333   49.7890 H   0  0  0  0  0  0  0  0  0  0  0  0
   59.9082   31.3599   50.1210 H   0  0  0  0  0  0  0  0  0  0  0  0
   60.7630   32.7327   48.2216 H   0  0  0  0  0  0  0  0  0  0  0  0
   61.0910   31.6924   45.9741 H   0  0  0  0  0  0  0  0  0  0  0  0
   60.6073   29.2647   45.6373 H   0  0  0  0  0  0  0  0  0  0  0  0
   58.9082   33.5557   43.2732 H   0  0  0  0  0  0  0  0  0  0  0  0
   60.0219   35.5074   44.3614 H   0  0  0  0  0  0  0  0  0  0  0  0
   59.8080   35.8551   46.8243 H   0  0  0  0  0  0  0  0  0  0  0  0
   58.4187   34.2968   48.1922 H   0  0  0  0  0  0  0  0  0  0  0  0
   57.2721   32.3638   47.1125 H   0  0  0  0  0  0  0  0  0  0  0  0
   57.8360   32.0026   42.3467 H   0  0  0  0  0  0  0  0  0  0  0  0
  1  2  2  0
  2  3  1  0
  3  4  1  0
  4  5  1  0
  5  6  2  0
  5  7  2  0
  5  8  1  0
  8  9  2  0
  9 10  1  0
 10 11  2  0
 11 12  1  0
 12 13  2  0
  2 14  1  0
 14 15  2  3
 15 16  1  0
 16 17  1  0
 17 18  1  0
 18 19  2  0
 19 20  1  0
 20 21  2  0
 21 22  1  0
 22 23  2  0
 17 24  2  0
 24 25  1  0
 13  8  1  0
 25 15  1  0
 23 18  1  0
  3 26  1  0
  3 27  1  0
  9 28  1  0
 10 29  1  0
 11 30  1  0
 12 31  1  0
 13 32  1  0
 19 33  1  0
 20 34  1  0
 21 35  1  0
 22 36  1  0
 23 37  1  0
 24 38  1  0
M  CHG  2   4  -1  16  -1
M  END
>  <UniqueID>  (2) 
1

>  <SMILES>  (2) 
O=C(C[N-]S(=O)(=O)c1ccccc1)N=c1[n-]c(-c2ccccc2)cs1

>  <Energy>  (2) 
70.04152488236589

>  <Genealogy>  (2) 
O=C(C[N-]S(=O)(=O)c1ccccc1)N=c1[n-]c(-c2ccccc2)cs1 (protonated)
O=C(C[N-]S(=O)(=O)c1ccccc1)N=c1[n-]c(-c2ccccc2)cs1 (3D coordinates assigned)
O=C(C[N-]S(=O)(=O)c1ccccc1)N=c1[n-]c(-c2ccccc2)cs1 (optimized conformer: 70.04152488236589 kcal/mol)

>  <smiles>  (2) 
O=C(CNS(=O)(=O)c1ccccc1)N=c1[nH]c(-c2ccccc2)cs1

>  <score_type>  (2) 
oracle

>  <origin>  (2) 
adg

>  <m_score__min__energy>  (2) 
-12.93

>  <m_primary>  (2) 
energy

$$$$
2:0
     RDKit          3D

 38 40  0  0  0  0  0  0  0  0999 V2000
   54.7840   27.0900   46.3850 H   0  0  0  0  0  0  0  0  0  0  0  0
   54.4710   26.1850   45.9660 N   0  0  0  0  0  0  0  0  0  0  0  0
   55.8500   25.1470   45.9150 S   0  0  0  0  0  0  0  0  0  0  0  0
   55.8520   24.3770   44.6240 O   0  0  0  0  0  0  0  0  0  0  0  0
   55.7910   24.1730   47.0580 O   0  0  0  0  0  0  0  0  0  0  0  0
   57.3150   26.1170   46.0350 C   0  0  0  0  0  0  0  0  0  0  0  0
   58.5370   25.5110   46.3500 C   0  0  0  0  0  0  0  0  0  0  0  0
   58.5812   24.4275   46.5348 H   0  0  0  0  0  0  0  0  0  0  0  0
   59.7000   26.2800   46.4300 C   0  0  0  0  0  0  0  0  0  0  0  0
   60.6577   25.8011   46.6821 H   0  0  0  0  0  0  0  0  0  0  0  0
   59.6510   27.6550   46.1910 C   0  0  0  0  0  0  0  0  0  0  0  0
   60.5712   28.2539   46.2581 H   0  0  0  0  0  0  0  0  0  0  0  0
   58.4330   28.2800   45.8650 C   0  0  0  0  0  0  0  0  0  0  0  0
   58.3790   29.7420   45.6080 C   0  0  0  0  0  0  0  0  0  0  0  0
   58.5360   30.6630   46.6550 C   0  0  0  0  0  0  0  0  0  0  0  0
   58.7020   30.3022   47.6808 H   0  0  0  0  0  0  0  0  0  0  0  0
   58.4840   31.9990   46.4080 N   0  0  0  0  0  0  0  0  0  0  0  0
   58.2720   32.5040   45.1630 C   0  0  0  0  0  0  0  0  0  0  0  0
   58.2400   33.8000   45.0150 N   0  0  0  0  0  0  0  0  0  0  0  0
   59.2090   34.7490   45.4870 C   0  0  0  0  0  0  0  0  0  0  0  0
   59.3190   35.8490   44.8820 O   0  0  0  0  0  0  0  0  0  0  0  0
   60.1260   34.4360   46.6110 C   0  0  0  0  0  0  0  0  0  0  0  0
   61.4300   33.9630   46.3670 C   0  0  0  0  0  0  0  0  0  0  0  0
   61.7756   33.8217   45.3323 H   0  0  0  0  0  0  0  0  0  0  0  0
   62.2880   33.6720   47.4320 C   0  0  0  0  0  0  0  0  0  0  0  0
   63.3029   33.2974   47.2326 H   0  0  0  0  0  0  0  0  0  0  0  0
   61.8590   33.8560   48.7490 C   0  0  0  0  0  0  0  0  0  0  0  0
   62.6930   33.5740   49.7800 F   0  0  0  0  0  0  0  0  0  0  0  0
   60.5710   34.3360   49.0030 C   0  0  0  0  0  0  0  0  0  0  0  0
   60.2350   34.4850   50.0398 H   0  0  0  0  0  0  0  0  0  0  0  0
   59.7090   34.6270   47.9410 C   0  0  0  0  0  0  0  0  0  0  0  0
   58.6978   35.0079   48.1470 H   0  0  0  0  0  0  0  0  0  0  0  0
   58.1270   31.6130   44.0810 C   0  0  0  0  0  0  0  0  0  0  0  0
   57.9754   31.9990   43.0622 H   0  0  0  0  0  0  0  0  0  0  0  0
   58.1770   30.2380   44.3110 C   0  0  0  0  0  0  0  0  0  0  0  0
   58.0574   29.5384   43.4706 H   0  0  0  0  0  0  0  0  0  0  0  0
   57.2660   27.4960   45.7870 C   0  0  0  0  0  0  0  0  0  0  0  0
   56.3073   27.9697   45.5292 H   0  0  0  0  0  0  0  0  0  0  0  0
  1  2  1  0
  2  3  1  0
  3  4  2  0
  3  5  2  0
  3  6  1  0
  6  7  2  0
  7  8  1  0
  7  9  1  0
  9 10  1  0
  9 11  2  0
 11 12  1  0
 11 13  1  0
 13 14  1  0
 14 15  2  0
 15 16  1  0
 15 17  1  0
 17 18  1  0
 18 19  2  0
 19 20  1  0
 20 21  2  0
 20 22  1  0
 22 23  2  0
 23 24  1  0
 23 25  1  0
 25 26  1  0
 25 27  2  0
 27 28  1  0
 27 29  1  0
 29 30  1  0
 29 31  2  0
 31 32  1  0
 18 33  1  0
 33 34  1  0
 33 35  2  0
 35 36  1  0
 13 37  2  0
 37 38  1  0
 37  6  1  0
 35 14  1  0
 31 22  1  0
M  CHG  2   2  -1  17  -1
M  END
>  <UniqueID>  (3) 
2

>  <SMILES>  (3) 
[NH-]S(=O)(=O)c1cccc(-c2cc/c(=N\C(=O)c3ccc(F)cc3)[n-]c2)c1

>  <Energy>  (3) 
57.3567625938432

>  <Genealogy>  (3) 
[NH-]S(=O)(=O)c1cccc(-c2ccc(=NC(=O)c3ccc(F)cc3)[n-]c2)c1 (protonated)
[NH-]S(=O)(=O)c1cccc(-c2cc/c(=N\C(=O)c3ccc(F)cc3)[n-]c2)c1 (cis-trans isomerization)
[NH-]S(=O)(=O)c1cccc(-c2cc/c(=N\C(=O)c3ccc(F)cc3)[n-]c2)c1 (3D coordinates assigned)
[NH-]S(=O)(=O)c1cccc(-c2cc/c(=N\C(=O)c3ccc(F)cc3)[n-]c2)c1 (optimized conformer: 57.3567625938432 kcal/mol)

>  <smiles>  (3) 
NS(=O)(=O)c1cccc(-c2ccc(=NC(=O)c3ccc(F)cc3)[nH]c2)c1

>  <score_type>  (3) 
oracle

>  <origin>  (3) 
adg

>  <m_score__min__energy>  (3) 
-12.77

>  <m_primary>  (3) 
energy

$$$$
3:0
     RDKit          3D

 58 61  0  0  0  0  0  0  0  0999 V2000
   63.2680   30.1440   51.1670 C   0  0  0  0  0  0  0  0  0  0  0  0
   62.4340   31.3820   50.9600 C   0  0  0  0  0  0  0  0  0  0  0  0
   61.8180   31.9730   52.0720 C   0  0  0  0  0  0  0  0  0  0  0  0
   61.0300   33.1110   51.9240 C   0  0  0  0  0  0  0  0  0  0  0  0
   60.8280   33.6670   50.6630 C   0  0  0  0  0  0  0  0  0  0  0  0
   61.4250   33.0980   49.5190 C   0  0  0  0  0  0  0  0  0  0  0  0
   62.2760   31.9730   49.6780 C   0  0  0  0  0  0  0  0  0  0  0  0
   62.9300   31.3750   48.4480 C   0  0  0  0  0  0  0  0  0  0  0  0
   63.3250   32.4580   47.4430 C   0  0  0  0  0  0  0  0  0  0  0  0
   62.1530   33.3370   47.1490 C   0  0  0  0  0  0  0  0  0  0  0  0
   62.0210   33.8250   45.9920 O   0  0  0  0  0  0  0  0  0  0  0  0
   61.2150   33.6610   48.1960 N   0  0  0  0  0  0  0  0  0  0  0  0
   60.0240   34.4610   47.8560 C   0  0  0  0  0  0  0  0  0  0  0  0
   59.2580   33.8340   46.7170 C   0  0  0  0  0  0  0  0  0  0  0  0
   58.8760   34.6000   45.6030 C   0  0  0  0  0  0  0  0  0  0  0  0
   58.1670   34.0140   44.5540 C   0  0  0  0  0  0  0  0  0  0  0  0
   57.8340   32.6590   44.6000 C   0  0  0  0  0  0  0  0  0  0  0  0
   58.2090   31.8720   45.7030 C   0  0  0  0  0  0  0  0  0  0  0  0
   57.8670   30.4290   45.7540 C   0  0  0  0  0  0  0  0  0  0  0  0
   56.7250   30.0460   45.3840 O   0  0  0  0  0  0  0  0  0  0  0  0
   58.8310   29.4390   46.1460 N   0  0  0  0  0  0  0  0  0  0  0  0
   59.2400   29.1770   47.3560 C   0  0  0  0  0  0  0  0  0  0  0  0
   60.3830   28.3960   47.6190 C   0  0  0  0  0  0  0  0  0  0  0  0
   60.7650   28.1630   48.9410 C   0  0  0  0  0  0  0  0  0  0  0  0
   60.0240   28.7090   49.9880 C   0  0  0  0  0  0  0  0  0  0  0  0
   58.8940   29.4910   49.7010 C   0  0  0  0  0  0  0  0  0  0  0  0
   58.1050   30.1090   50.7930 C   0  0  0  0  0  0  0  0  0  0  0  0
   57.5160   29.3550   51.6160 O   0  0  0  0  0  0  0  0  0  0  0  0
   57.9970   31.5410   50.9480 N   0  0  0  0  0  0  0  0  0  0  0  0
   58.1380   32.4430   49.8010 C   0  0  0  0  0  0  0  0  0  0  0  0
   57.6180   32.0840   52.2560 C   0  0  0  0  0  0  0  0  0  0  0  0
   58.5500   29.7070   48.4010 N   0  0  0  0  0  0  0  0  0  0  0  0
   58.9080   32.4730   46.7640 C   0  0  0  0  0  0  0  0  0  0  0  0
   63.3913   29.9609   52.2446 H   0  0  0  0  0  0  0  0  0  0  0  0
   62.7658   29.2819   50.7037 H   0  0  0  0  0  0  0  0  0  0  0  0
   64.2556   30.2855   50.7037 H   0  0  0  0  0  0  0  0  0  0  0  0
   61.9586   31.5335   53.0705 H   0  0  0  0  0  0  0  0  0  0  0  0
   60.5647   33.5733   52.8070 H   0  0  0  0  0  0  0  0  0  0  0  0
   60.1952   34.5606   50.5582 H   0  0  0  0  0  0  0  0  0  0  0  0
   63.8320   30.8248   48.7541 H   0  0  0  0  0  0  0  0  0  0  0  0
   62.2069   30.7016   47.9646 H   0  0  0  0  0  0  0  0  0  0  0  0
   64.1392   33.0659   47.8643 H   0  0  0  0  0  0  0  0  0  0  0  0
   63.6594   31.9796   46.5106 H   0  0  0  0  0  0  0  0  0  0  0  0
   59.3695   34.5242   48.7378 H   0  0  0  0  0  0  0  0  0  0  0  0
   60.3525   35.4643   47.5469 H   0  0  0  0  0  0  0  0  0  0  0  0
   59.1373   35.6675   45.5576 H   0  0  0  0  0  0  0  0  0  0  0  0
   57.8691   34.6221   43.6871 H   0  0  0  0  0  0  0  0  0  0  0  0
   57.2751   32.2046   43.7686 H   0  0  0  0  0  0  0  0  0  0  0  0
   60.9691   27.9736   46.7895 H   0  0  0  0  0  0  0  0  0  0  0  0
   61.6512   27.5482   49.1569 H   0  0  0  0  0  0  0  0  0  0  0  0
   60.3225   28.5284   51.0312 H   0  0  0  0  0  0  0  0  0  0  0  0
   58.2986   33.4703   50.1600 H   0  0  0  0  0  0  0  0  0  0  0  0
   58.9980   32.1290   49.1912 H   0  0  0  0  0  0  0  0  0  0  0  0
   57.2232   32.4065   49.1912 H   0  0  0  0  0  0  0  0  0  0  0  0
   58.0528   31.4611   53.0516 H   0  0  0  0  0  0  0  0  0  0  0  0
   57.9949   33.1132   52.3489 H   0  0  0  0  0  0  0  0  0  0  0  0
   56.5219   32.0851   52.3489 H   0  0  0  0  0  0  0  0  0  0  0  0
   59.1847   31.8711   47.6421 H   0  0  0  0  0  0  0  0  0  0  0  0
  1  2  1  0
  2  3  2  0
  3  4  1  0
  4  5  2  0
  5  6  1  0
  6  7  2  0
  7  8  1  0
  8  9  1  0
  9 10  1  0
 10 11  2  0
 10 12  1  0
 12 13  1  0
 13 14  1  0
 14 15  2  0
 15 16  1  0
 16 17  2  0
 17 18  1  0
 18 19  1  0
 19 20  2  0
 19 21  1  0
 21 22  2  3
 22 23  1  0
 23 24  2  0
 24 25  1  0
 25 26  2  0
 26 27  1  0
 27 28  2  0
 27 29  1  0
 29 30  1  0
 29 31  1  0
 26 32  1  0
 18 33  2  0
  7  2  1  0
 33 14  1  0
 12  6  1  0
 32 22  1  0
  1 34  1  0
  1 35  1  0
  1 36  1  0
  3 37  1  0
  4 38  1  0
  5 39  1  0
  8 40  1  0
  8 41  1  0
  9 42  1  0
  9 43  1  0
 13 44  1  0
 13 45  1  0
 15 46  1  0
 16 47  1  0
 17 48  1  0
 23 49  1  0
 24 50  1  0
 25 51  1  0
 30 52  1  0
 30 53  1  0
 30 54  1  0
 31 55  1  0
 31 56  1  0
 31 57  1  0
 33 58  1  0
M  CHG  1  32  -1
M  END
>  <UniqueID>  (4) 
3

>  <SMILES>  (4) 
Cc1cccc2c1CCC(=O)N2Cc1cccc(C(=O)N=c2cccc(C(=O)N(C)C)[n-]2)c1

>  <Energy>  (4) 
79.06717143626348

>  <Genealogy>  (4) 
Cc1cccc2c1CCC(=O)N2Cc1cccc(C(=O)N=c2cccc(C(=O)N(C)C)[n-]2)c1 (protonated)
Cc1cccc2c1CCC(=O)N2Cc1cccc(C(=O)N=c2cccc(C(=O)N(C)C)[n-]2)c1 (3D coordinates assigned)
Cc1cccc2c1CCC(=O)N2Cc1cccc(C(=O)N=c2cccc(C(=O)N(C)C)[n-]2)c1 (nonaromatic ring conformer: 79.06717143626348 kcal/mol)

>  <smiles>  (4) 
Cc1cccc2c1CCC(=O)N2Cc1cccc(C(=O)N=c2cccc(C(=O)N(C)C)[nH]2)c1

>  <score_type>  (4) 
oracle

>  <origin>  (4) 
adg

>  <m_score__min__energy>  (4) 
-12.220000000000001

>  <m_primary>  (4) 
energy

$$$$
4:0
     RDKit          3D

 53 56  0  0  0  0  0  0  0  0999 V2000
   57.4470   31.8730   42.7220 C   0  0  0  0  0  0  0  0  0  0  0  0
   57.7880   31.1750   43.8070 C   0  0  0  0  0  0  0  0  0  0  0  0
   57.8970   29.8310   43.8160 N   0  0  0  0  0  0  0  0  0  0  0  0
   58.2490   29.4780   45.0740 C   0  0  0  0  0  0  0  0  0  0  0  0
   58.4780   28.2270   45.5050 C   0  0  0  0  0  0  0  0  0  0  0  0
   57.4350   27.2500   45.8770 C   0  0  0  0  0  0  0  0  0  0  0  0
   57.6720   25.6710   46.4300 S   0  0  0  0  0  0  0  0  0  0  0  0
   56.0310   25.3180   46.4000 C   0  0  0  0  0  0  0  0  0  0  0  0
   55.5370   24.2120   46.7420 O   0  0  0  0  0  0  0  0  0  0  0  0
   55.2870   26.3510   45.9580 N   0  0  0  0  0  0  0  0  0  0  0  0
   56.0700   27.4200   45.6540 C   0  0  0  0  0  0  0  0  0  0  0  0
   55.5280   28.5990   45.1540 O   0  0  0  0  0  0  0  0  0  0  0  0
   58.3820   30.6040   45.8680 C   0  0  0  0  0  0  0  0  0  0  0  0
   58.0900   31.6890   45.0620 C   0  0  0  0  0  0  0  0  0  0  0  0
   58.0250   33.1170   45.5240 C   0  0  0  0  0  0  0  0  0  0  0  0
   59.0470   33.3640   46.6000 C   0  0  0  0  0  0  0  0  0  0  0  0
   60.3760   33.6500   46.2550 C   0  0  0  0  0  0  0  0  0  0  0  0
   61.3350   33.8490   47.2490 C   0  0  0  0  0  0  0  0  0  0  0  0
   60.9800   33.7540   48.5970 C   0  0  0  0  0  0  0  0  0  0  0  0
   59.6570   33.4480   48.9650 C   0  0  0  0  0  0  0  0  0  0  0  0
   59.2570   33.3440   50.3920 C   0  0  0  0  0  0  0  0  0  0  0  0
   59.2870   34.3870   51.1040 O   0  0  0  0  0  0  0  0  0  0  0  0
   58.8660   32.0790   50.9830 N   0  0  0  0  0  0  0  0  0  0  0  0
   57.3990   32.0200   51.1050 C   0  0  0  0  0  0  0  0  0  0  0  0
   56.9710   30.7540   51.8750 C   0  0  0  0  0  0  0  0  0  0  0  0
   57.7770   29.5550   51.5370 N   0  0  0  0  0  0  0  0  0  0  0  0
   58.6630   29.1380   52.6370 C   0  0  0  0  0  0  0  0  0  0  0  0
   58.5040   29.6790   50.2590 C   0  0  0  0  0  0  0  0  0  0  0  0
   59.4050   30.9340   50.2020 C   0  0  0  0  0  0  0  0  0  0  0  0
   58.6930   33.2660   47.9570 C   0  0  0  0  0  0  0  0  0  0  0  0
   57.3737   32.9693   42.7739 H   0  0  0  0  0  0  0  0  0  0  0  0
   57.2392   31.3520   41.7757 H   0  0  0  0  0  0  0  0  0  0  0  0
   57.7740   29.2090   42.9880 H   0  0  0  0  0  0  0  0  0  0  0  0
   59.5263   27.9042   45.5876 H   0  0  0  0  0  0  0  0  0  0  0  0
   58.6644   30.6305   46.9308 H   0  0  0  0  0  0  0  0  0  0  0  0
   58.2262   33.7836   44.6724 H   0  0  0  0  0  0  0  0  0  0  0  0
   57.0223   33.3168   45.9298 H   0  0  0  0  0  0  0  0  0  0  0  0
   60.6638   33.7178   45.1955 H   0  0  0  0  0  0  0  0  0  0  0  0
   62.3735   34.0813   46.9705 H   0  0  0  0  0  0  0  0  0  0  0  0
   61.7395   33.9195   49.3753 H   0  0  0  0  0  0  0  0  0  0  0  0
   59.2750   32.0170   51.9440 H   0  0  0  0  0  0  0  0  0  0  0  0
   57.0448   32.9098   51.6461 H   0  0  0  0  0  0  0  0  0  0  0  0
   56.9594   31.9888   50.0972 H   0  0  0  0  0  0  0  0  0  0  0  0
   57.0739   30.9503   52.9524 H   0  0  0  0  0  0  0  0  0  0  0  0
   55.9316   30.5366   51.5880 H   0  0  0  0  0  0  0  0  0  0  0  0
   58.1827   29.3641   53.6004 H   0  0  0  0  0  0  0  0  0  0  0  0
   58.8516   28.0566   52.5661 H   0  0  0  0  0  0  0  0  0  0  0  0
   59.6165   29.6819   52.5661 H   0  0  0  0  0  0  0  0  0  0  0  0
   59.1342   28.7874   50.1252 H   0  0  0  0  0  0  0  0  0  0  0  0
   57.7546   29.7726   49.4592 H   0  0  0  0  0  0  0  0  0  0  0  0
   60.3949   30.6720   50.6038 H   0  0  0  0  0  0  0  0  0  0  0  0
   59.4564   31.2516   49.1501 H   0  0  0  0  0  0  0  0  0  0  0  0
   57.6515   33.0447   48.2333 H   0  0  0  0  0  0  0  0  0  0  0  0
  1  2  2  0
  2  3  1  0
  3  4  1  0
  4  5  2  3
  5  6  1  0
  6  7  1  0
  7  8  1  0
  8  9  2  0
  8 10  1  0
 10 11  1  0
 11 12  1  0
  4 13  1  0
 13 14  2  0
 14 15  1  0
 15 16  1  0
 16 17  2  0
 17 18  1  0
 18 19  2  0
 19 20  1  0
 20 21  1  0
 21 22  2  0
 21 23  1  0
 23 24  1  0
 24 25  1  0
 25 26  1  0
 26 27  1  0
 26 28  1  0
 28 29  1  0
 20 30  2  0
 14  2  1  0
 30 16  1  0
 11  6  2  0
 29 23  1  0
  1 31  1  0
  1 32  1  0
  3 33  1  0
  5 34  1  0
 13 35  1  0
 15 36  1  0
 15 37  1  0
 17 38  1  0
 18 39  1  0
 19 40  1  0
 23 41  1  0
 24 42  1  0
 24 43  1  0
 25 44  1  0
 25 45  1  0
 27 46  1  0
 27 47  1  0
 27 48  1  0
 28 49  1  0
 28 50  1  0
 29 51  1  0
 29 52  1  0
 30 53  1  0
M  CHG  3  10  -1  12  -1  23   1
M  END
>  <UniqueID>  (5) 
4

>  <SMILES>  (5) 
C=c1[nH]c(=Cc2sc(=O)[n-]c2[O-])cc1Cc1cccc(C(=O)[NH+]2CCN(C)CC2)c1

>  <Energy>  (5) 
133.60588055413862

>  <Genealogy>  (5) 
C=c1[nH]c(=Cc2sc(=O)[n-]c2[O-])cc1Cc1cccc(C(=O)[NH+]2CCN(C)CC2)c1 (protonated)
C=c1[nH]c(=Cc2sc(=O)[n-]c2[O-])cc1Cc1cccc(C(=O)[NH+]2CCN(C)CC2)c1 (3D coordinates assigned)
C=c1[nH]c(=Cc2sc(=O)[n-]c2[O-])cc1Cc1cccc(C(=O)[NH+]2CCN(C)CC2)c1 (nonaromatic ring conformer: 133.60588055413862 kcal/mol)

>  <smiles>  (5) 
C=c1[nH]c(=Cc2sc(=O)[nH]c2O)cc1Cc1cccc(C(=O)N2CCN(C)CC2)c1

>  <score_type>  (5) 
oracle

>  <origin>  (5) 
adg

>  <m_score__min__energy>  (5) 
-14.970000000000001

>  <m_primary>  (5) 
energy

$$$$
5:0
     RDKit          3D

 69 71  0  0  0  0  0  0  0  0999 V2000
   57.0216   32.9954   51.1282 H   0  0  0  0  0  0  0  0  0  0  0  0
   57.9040   32.7780   51.7480 C   0  0  0  0  0  0  0  0  0  0  0  0
   59.1910   32.5200   51.0680 C   0  0  0  0  0  0  0  0  0  0  0  0
   60.2520   32.8500   51.6650 O   0  0  0  0  0  0  0  0  0  0  0  0
   59.2710   31.8110   49.7390 C   0  0  0  0  0  0  0  0  0  0  0  0
   58.5815   30.9541   49.7563 H   0  0  0  0  0  0  0  0  0  0  0  0
   60.3146   31.4940   49.5964 H   0  0  0  0  0  0  0  0  0  0  0  0
   58.9050   32.7000   48.5760 C   0  0  0  0  0  0  0  0  0  0  0  0
   57.7730   32.6430   48.1200 O   0  0  0  0  0  0  0  0  0  0  0  0
   59.9030   33.6460   47.9460 C   0  0  0  0  0  0  0  0  0  0  0  0
   60.3738   33.1365   47.0923 H   0  0  0  0  0  0  0  0  0  0  0  0
   60.6301   33.9140   48.7267 H   0  0  0  0  0  0  0  0  0  0  0  0
   59.2770   34.9580   47.4440 C   0  0  0  0  0  0  0  0  0  0  0  0
   59.6342   35.7787   48.0834 H   0  0  0  0  0  0  0  0  0  0  0  0
   58.1856   34.8289   47.4914 H   0  0  0  0  0  0  0  0  0  0  0  0
   59.6230   35.2970   45.9820 C   0  0  0  0  0  0  0  0  0  0  0  0
   60.6377   35.7206   45.9517 H   0  0  0  0  0  0  0  0  0  0  0  0
   58.8673   36.0114   45.6235 H   0  0  0  0  0  0  0  0  0  0  0  0
   59.5750   34.0660   45.0450 C   0  0  0  0  0  0  0  0  0  0  0  0
   60.3693   33.3656   45.3426 H   0  0  0  0  0  0  0  0  0  0  0  0
   59.7159   34.4258   44.0151 H   0  0  0  0  0  0  0  0  0  0  0  0
   58.2250   33.3320   45.1010 C   0  0  0  0  0  0  0  0  0  0  0  0
   57.4762   33.9989   45.5533 H   0  0  0  0  0  0  0  0  0  0  0  0
   58.3578   32.4197   45.7011 H   0  0  0  0  0  0  0  0  0  0  0  0
   57.7400   32.9160   43.7030 C   0  0  0  0  0  0  0  0  0  0  0  0
   58.5796   32.9949   42.9967 H   0  0  0  0  0  0  0  0  0  0  0  0
   56.9160   33.5848   43.4137 H   0  0  0  0  0  0  0  0  0  0  0  0
   57.2220   31.5010   43.6890 C   0  0  0  0  0  0  0  0  0  0  0  0
   56.9820   30.9350   42.5900 O   0  0  0  0  0  0  0  0  0  0  0  0
   57.0030   30.7680   44.9030 N   0  0  0  0  0  0  0  0  0  0  0  0
   57.8530   29.7480   45.4540 C   0  0  0  0  0  0  0  0  0  0  0  0
   58.3810   29.8700   46.7520 C   0  0  0  0  0  0  0  0  0  0  0  0
   58.1663   30.7699   47.3470 H   0  0  0  0  0  0  0  0  0  0  0  0
   59.1760   28.8560   47.2900 C   0  0  0  0  0  0  0  0  0  0  0  0
   59.5950   28.9652   48.3012 H   0  0  0  0  0  0  0  0  0  0  0  0
   59.4400   27.7050   46.5480 C   0  0  0  0  0  0  0  0  0  0  0  0
   60.0761   26.9128   46.9696 H   0  0  0  0  0  0  0  0  0  0  0  0
   58.8970   27.5580   45.2700 C   0  0  0  0  0  0  0  0  0  0  0  0
   59.0991   26.6441   44.6922 H   0  0  0  0  0  0  0  0  0  0  0  0
   58.0950   28.5690   44.7180 C   0  0  0  0  0  0  0  0  0  0  0  0
   57.5370   28.3880   43.4110 N   0  0  0  0  0  0  0  0  0  0  0  0
   57.7400   29.0540   42.6330 H   0  0  0  0  0  0  0  0  0  0  0  0
   56.8920   27.5910   43.2130 H   0  0  0  0  0  0  0  0  0  0  0  0
   57.7560   32.7610   53.0780 C   0  0  0  0  0  0  0  0  0  0  0  0
   57.9616   33.6779   53.6499 H   0  0  0  0  0  0  0  0  0  0  0  0
   57.3260   31.5510   53.7980 C   0  0  0  0  0  0  0  0  0  0  0  0
   57.5400   31.3490   55.1470 C   0  0  0  0  0  0  0  0  0  0  0  0
   58.1078   32.0003   55.8277 H   0  0  0  0  0  0  0  0  0  0  0  0
   56.9020   30.1700   55.4740 C   0  0  0  0  0  0  0  0  0  0  0  0
   56.8739   29.6912   56.4639 H   0  0  0  0  0  0  0  0  0  0  0  0
   56.3060   29.7080   54.3180 C   0  0  0  0  0  0  0  0  0  0  0  0
   55.7100   28.7866   54.2421 H   0  0  0  0  0  0  0  0  0  0  0  0
   56.5600   30.5500   53.2940 N   0  0  0  0  0  0  0  0  0  0  0  0
   55.9320   30.4660   51.9710 C   0  0  0  0  0  0  0  0  0  0  0  0
   56.1737   31.3730   51.3975 H   0  0  0  0  0  0  0  0  0  0  0  0
   56.3150   29.5752   51.4516 H   0  0  0  0  0  0  0  0  0  0  0  0
   54.4360   30.3470   52.1030 C   0  0  0  0  0  0  0  0  0  0  0  0
   53.8770   29.2290   52.7380 C   0  0  0  0  0  0  0  0  0  0  0  0
   54.5314   28.4325   53.1218 H   0  0  0  0  0  0  0  0  0  0  0  0
   52.4920   29.1230   52.8850 C   0  0  0  0  0  0  0  0  0  0  0  0
   52.0592   28.2412   53.3800 H   0  0  0  0  0  0  0  0  0  0  0  0
   51.6540   30.1340   52.4050 C   0  0  0  0  0  0  0  0  0  0  0  0
   50.5645   30.0462   52.5284 H   0  0  0  0  0  0  0  0  0  0  0  0
   52.1970   31.2630   51.7650 C   0  0  0  0  0  0  0  0  0  0  0  0
   51.3170   32.3420   51.2660 C   0  0  0  0  0  0  0  0  0  0  0  0
   51.3940   32.7300   50.0690 O   0  0  0  0  0  0  0  0  0  0  0  0
   50.3910   32.9430   52.1100 O   0  0  0  0  0  0  0  0  0  0  0  0
   53.5910   31.3570   51.6140 C   0  0  0  0  0  0  0  0  0  0  0  0
   54.0254   32.2313   51.1072 H   0  0  0  0  0  0  0  0  0  0  0  0
  1  2  1  0
  2  3  1  0
  3  4  2  0
  3  5  1  0
  5  6  1  0
  5  7  1  0
  5  8  1  0
  8  9  2  0
  8 10  1  0
 10 11  1  0
 10 12  1  0
 10 13  1  0
 13 14  1  0
 13 15  1  0
 13 16  1  0
 16 17  1  0
 16 18  1  0
 16 19  1  0
 19 20  1  0
 19 21  1  0
 19 22  1  0
 22 23  1  0
 22 24  1  0
 22 25  1  0
 25 26  1  0
 25 27  1  0
 25 28  1  0
 28 29  2  0
 28 30  1  0
 30 31  1  0
 31 32  2  0
 32 33  1  0
 32 34  1  0
 34 35  1  0
 34 36  2  0
 36 37  1  0
 36 38  1  0
 38 39  1  0
 38 40  2  0
 40 41  1  0
 41 42  1  0
 41 43  1  0
  2 44  2  0
 44 45  1  0
 44 46  1  0
 46 47  2  0
 47 48  1  0
 47 49  1  0
 49 50  1  0
 49 51  2  0
 51 52  1  0
 51 53  1  0
 53 54  1  0
 54 55  1  0
 54 56  1  0
 54 57  1  0
 57 58  2  0
 58 59  1  0
 58 60  1  0
 60 61  1  0
 60 62  2  0
 62 63  1  0
 62 64  1  0
 64 65  1  0
 65 66  2  0
 65 67  1  0
 64 68  2  0
 68 69  1  0
 40 31  1  0
 53 46  1  0
 68 57  1  0
M  CHG  2  30  -1  67  -1
M  END
>  <UniqueID>  (6) 
5

>  <SMILES>  (6) 
Nc1ccccc1[N-]C(=O)CCCCCCC(=O)CC(=O)/C=C/c1cccn1Cc1cccc(C(=O)[O-])c1

>  <Energy>  (6) 
97.85121273953573

>  <Genealogy>  (6) 
Nc1ccccc1[N-]C(=O)CCCCCCC(=O)CC(=O)C=Cc1cccn1Cc1cccc(C(=O)[O-])c1 (protonated)
Nc1ccccc1[N-]C(=O)CCCCCCC(=O)CC(=O)/C=C/c1cccn1Cc1cccc(C(=O)[O-])c1 (cis-trans isomerization)
Nc1ccccc1[N-]C(=O)CCCCCCC(=O)CC(=O)/C=C/c1cccn1Cc1cccc(C(=O)[O-])c1 (3D coordinates assigned)
Nc1ccccc1[N-]C(=O)CCCCCCC(=O)CC(=O)/C=C/c1cccn1Cc1cccc(C(=O)[O-])c1 (optimized conformer: 97.85121273953573 kcal/mol)

>  <smiles>  (6) 
Nc1ccccc1NC(=O)CCCCCCC(=O)CC(=O)C=Cc1cccn1Cc1cccc(C(=O)O)c1

>  <score_type>  (6) 
oracle

>  <origin>  (6) 
adg

>  <m_score__min__energy>  (6) 
-15.15

>  <m_primary>  (6) 
energy

$$$$
6:0
     RDKit          3D

 40 42  0  0  0  0  0  0  0  0999 V2000
   55.8910   27.2370   45.6340 O   0  0  0  0  0  0  0  0  0  0  0  0
   56.6190   28.2330   45.3770 C   0  0  0  0  0  0  0  0  0  0  0  0
   56.0440   29.4500   44.8840 N   0  0  0  0  0  0  0  0  0  0  0  0
   56.7590   30.5670   44.3360 C   0  0  0  0  0  0  0  0  0  0  0  0
   56.7850   30.7310   42.9450 C   0  0  0  0  0  0  0  0  0  0  0  0
   57.4640   31.8100   42.3730 C   0  0  0  0  0  0  0  0  0  0  0  0
   58.1110   32.7420   43.1870 C   0  0  0  0  0  0  0  0  0  0  0  0
   58.0700   32.6070   44.5820 C   0  0  0  0  0  0  0  0  0  0  0  0
   58.8780   33.7880   45.6160 S   0  0  0  0  0  0  0  0  0  0  0  0
   58.0080   34.0760   46.8070 O   0  0  0  0  0  0  0  0  0  0  0  0
   59.0660   35.0720   44.8560 O   0  0  0  0  0  0  0  0  0  0  0  0
   60.4310   33.2040   46.1630 N   0  0  0  0  0  0  0  0  0  0  0  0
   60.2910   31.8500   46.7410 C   0  0  0  0  0  0  0  0  0  0  0  0
   61.5580   31.4010   47.5020 C   0  0  0  0  0  0  0  0  0  0  0  0
   62.7680   32.2730   47.1550 C   0  0  0  0  0  0  0  0  0  0  0  0
   62.4780   33.7580   47.4320 C   0  0  0  0  0  0  0  0  0  0  0  0
   61.0140   34.1360   47.1410 C   0  0  0  0  0  0  0  0  0  0  0  0
   57.3850   31.5260   45.1540 C   0  0  0  0  0  0  0  0  0  0  0  0
   58.0620   28.1620   45.6380 C   0  0  0  0  0  0  0  0  0  0  0  0
   59.0740   28.3660   44.7060 C   0  0  0  0  0  0  0  0  0  0  0  0
   60.3580   28.2300   45.2480 C   0  0  0  0  0  0  0  0  0  0  0  0
   60.3620   27.9190   46.6010 C   0  0  0  0  0  0  0  0  0  0  0  0
   58.7670   27.8130   47.1250 S   0  0  0  0  0  0  0  0  0  0  0  0
   56.2678   30.0061   42.2992 H   0  0  0  0  0  0  0  0  0  0  0  0
   57.4889   31.9254   41.2794 H   0  0  0  0  0  0  0  0  0  0  0  0
   58.6540   33.5839   42.7328 H   0  0  0  0  0  0  0  0  0  0  0  0
   59.4410   31.8500   47.4392 H   0  0  0  0  0  0  0  0  0  0  0  0
   60.1309   31.1459   45.9112 H   0  0  0  0  0  0  0  0  0  0  0  0
   61.3674   31.4702   48.5831 H   0  0  0  0  0  0  0  0  0  0  0  0
   61.7859   30.3662   47.2065 H   0  0  0  0  0  0  0  0  0  0  0  0
   63.6267   31.9549   47.7644 H   0  0  0  0  0  0  0  0  0  0  0  0
   62.9888   32.1540   46.0840 H   0  0  0  0  0  0  0  0  0  0  0  0
   62.6932   33.9683   48.4900 H   0  0  0  0  0  0  0  0  0  0  0  0
   63.1168   34.3541   46.7637 H   0  0  0  0  0  0  0  0  0  0  0  0
   60.4350   34.0909   48.0752 H   0  0  0  0  0  0  0  0  0  0  0  0
   60.9828   35.1548   46.7273 H   0  0  0  0  0  0  0  0  0  0  0  0
   57.3365   31.4267   46.2484 H   0  0  0  0  0  0  0  0  0  0  0  0
   58.8849   28.6095   43.6501 H   0  0  0  0  0  0  0  0  0  0  0  0
   61.2771   28.3576   44.6572 H   0  0  0  0  0  0  0  0  0  0  0  0
   61.2558   27.7677   47.2241 H   0  0  0  0  0  0  0  0  0  0  0  0
  1  2  2  0
  2  3  1  0
  3  4  1  0
  4  5  2  0
  5  6  1  0
  6  7  2  0
  7  8  1  0
  8  9  1  0
  9 10  2  0
  9 11  2  0
  9 12  1  0
 12 13  1  0
 13 14  1  0
 14 15  1  0
 15 16  1  0
 16 17  1  0
  8 18  2  0
  2 19  1  0
 19 20  2  0
 20 21  1  0
 21 22  2  0
 22 23  1  0
 18  4  1  0
 23 19  1  0
 17 12  1  0
  5 24  1  0
  6 25  1  0
  7 26  1  0
 13 27  1  0
 13 28  1  0
 14 29  1  0
 14 30  1  0
 15 31  1  0
 15 32  1  0
 16 33  1  0
 16 34  1  0
 17 35  1  0
 17 36  1  0
 18 37  1  0
 20 38  1  0
 21 39  1  0
 22 40  1  0
M  CHG  1   3  -1
M  END
>  <UniqueID>  (7) 
6

>  <SMILES>  (7) 
O=C([N-]c1cccc(S(=O)(=O)N2CCCCC2)c1)c1cccs1

>  <Energy>  (7) 
71.77575914067688

>  <Genealogy>  (7) 
O=C([N-]c1cccc(S(=O)(=O)N2CCCCC2)c1)c1cccs1 (protonated)
O=C([N-]c1cccc(S(=O)(=O)N2CCCCC2)c1)c1cccs1 (3D coordinates assigned)
O=C([N-]c1cccc(S(=O)(=O)N2CCCCC2)c1)c1cccs1 (nonaromatic ring conformer: 71.77575914067688 kcal/mol)

>  <smiles>  (7) 
O=C(Nc1cccc(S(=O)(=O)N2CCCCC2)c1)c1cccs1

>  <score_type>  (7) 
oracle

>  <origin>  (7) 
adg

>  <m_score__min__energy>  (7) 
-10.949999999999999

>  <m_primary>  (7) 
energy

$$$$
7:0
     RDKit          3D

 39 41  0  0  0  0  0  0  0  0999 V2000
   56.1805   29.6046   42.3544 H   0  0  0  0  0  0  0  0  0  0  0  0
   56.6530   30.5920   42.4630 C   0  0  0  0  0  0  0  0  0  0  0  0
   56.7177   31.2689   41.5983 H   0  0  0  0  0  0  0  0  0  0  0  0
   57.1520   30.9720   43.6540 C   0  0  0  0  0  0  0  0  0  0  0  0
   57.7430   32.2470   43.7250 C   0  0  0  0  0  0  0  0  0  0  0  0
   57.5937   32.9602   42.9010 H   0  0  0  0  0  0  0  0  0  0  0  0
   58.5140   32.6190   44.8230 C   0  0  0  0  0  0  0  0  0  0  0  0
   58.9620   33.6230   44.8584 H   0  0  0  0  0  0  0  0  0  0  0  0
   58.7250   31.7290   45.8820 C   0  0  0  0  0  0  0  0  0  0  0  0
   59.5990   32.1310   47.0150 C   0  0  0  0  0  0  0  0  0  0  0  0
   59.9830   33.3330   47.0830 O   0  0  0  0  0  0  0  0  0  0  0  0
   60.0460   31.1700   48.0060 N   0  0  1  0  0  0  0  0  0  0  0  0
   60.6780   31.6360   48.7000 H   0  0  0  0  0  0  0  0  0  0  0  0
   58.9180   30.5590   48.7210 C   0  0  0  0  0  0  0  0  0  0  0  0
   58.6353   31.1813   49.5829 H   0  0  0  0  0  0  0  0  0  0  0  0
   58.0389   30.4710   48.0657 H   0  0  0  0  0  0  0  0  0  0  0  0
   59.3830   29.1860   49.1960 C   0  0  0  0  0  0  0  0  0  0  0  0
   59.5875   29.2021   50.2767 H   0  0  0  0  0  0  0  0  0  0  0  0
   58.6174   28.4146   49.0261 H   0  0  0  0  0  0  0  0  0  0  0  0
   60.6660   28.8950   48.4130 C   0  0  1  0  0  0  0  0  0  0  0  0
   61.5333   28.8232   49.0858 H   0  0  0  0  0  0  0  0  0  0  0  0
   60.6240   27.6020   47.7250 N   0  0  0  0  0  0  0  0  0  0  0  0
   59.9560   27.6530   46.9200 H   0  0  0  0  0  0  0  0  0  0  0  0
   60.2500   26.8890   48.3920 H   0  0  0  0  0  0  0  0  0  0  0  0
   60.7970   30.0510   47.4240 C   0  0  0  0  0  0  0  0  0  0  0  0
   61.8543   30.3261   47.2958 H   0  0  0  0  0  0  0  0  0  0  0  0
   60.4080   29.7779   46.4320 H   0  0  0  0  0  0  0  0  0  0  0  0
   58.1040   30.4700   45.8450 C   0  0  0  0  0  0  0  0  0  0  0  0
   58.2946   29.7532   46.6573 H   0  0  0  0  0  0  0  0  0  0  0  0
   57.2400   30.1020   44.7890 C   0  0  0  0  0  0  0  0  0  0  0  0
   56.5390   28.9490   44.9460 C   0  0  0  0  0  0  0  0  0  0  0  0
   55.5569   28.8903   44.4540 H   0  0  0  0  0  0  0  0  0  0  0  0
   56.9750   27.7670   45.7170 C   0  0  0  0  0  0  0  0  0  0  0  0
   58.2550   27.4500   45.9830 N   0  0  0  0  0  0  0  0  0  0  0  0
   58.1580   26.2500   46.5960 C   0  0  0  0  0  0  0  0  0  0  0  0
   59.1630   25.6210   47.0170 O   0  0  0  0  0  0  0  0  0  0  0  0
   56.9000   25.7740   46.7130 N   0  0  0  0  0  0  0  0  0  0  0  0
   56.1660   26.7410   46.1400 C   0  0  0  0  0  0  0  0  0  0  0  0
   54.7850   26.6840   46.0040 O   0  0  0  0  0  0  0  0  0  0  0  0
  1  2  1  0
  2  3  1  0
  2  4  2  0
  4  5  1  0
  5  6  1  0
  5  7  2  0
  7  8  1  0
  7  9  1  0
  9 10  1  0
 10 11  2  0
 10 12  1  0
 12 13  1  1
 12 14  1  0
 14 15  1  0
 14 16  1  0
 14 17  1  0
 17 18  1  0
 17 19  1  0
 17 20  1  0
 20 21  1  1
 20 22  1  0
 22 23  1  0
 22 24  1  0
 20 25  1  0
 25 26  1  0
 25 27  1  0
  9 28  2  0
 28 29  1  0
 28 30  1  0
 30 31  2  0
 31 32  1  0
 31 33  1  0
 33 34  1  0
 34 35  1  0
 35 36  2  0
 35 37  1  0
 37 38  1  0
 38 39  1  0
 30  4  1  0
 38 33  2  0
 25 12  1  0
M  CHG  4  12   1  34  -1  37  -1  39  -1
M  END
>  <UniqueID>  (8) 
7

>  <SMILES>  (8) 
C=c1ccc(C(=O)[N@H+]2CC[C@@H](N)C2)c/c1=C/c1[n-]c(=O)[n-]c1[O-]

>  <Energy>  (8) 
98.58537594988552

>  <Genealogy>  (8) 
C=c1ccc(C(=O)[NH+]2CCC(N)C2)cc1=Cc1[n-]c(=O)[n-]c1[O-] (protonated)
C=c1ccc(C(=O)[N@H+]2CC[C@@H](N)C2)cc1=Cc1[n-]c(=O)[n-]c1[O-] (chirality)
C=c1ccc(C(=O)[N@H+]2CC[C@@H](N)C2)c/c1=C/c1[n-]c(=O)[n-]c1[O-] (cis-trans isomerization)
C=c1ccc(C(=O)[N@H+]2CC[C@@H](N)C2)c/c1=C/c1[n-]c(=O)[n-]c1[O-] (3D coordinates assigned)
C=c1ccc(C(=O)[N@H+]2CC[C@@H](N)C2)c/c1=C/c1[n-]c(=O)[n-]c1[O-] (nonaromatic ring conformer: 98.58537594988552 kcal/mol)

>  <smiles>  (8) 
C=c1ccc(C(=O)N2CCC(N)C2)cc1=Cc1[nH]c(=O)[nH]c1O

>  <score_type>  (8) 
oracle

>  <origin>  (8) 
adg

>  <m_score__min__energy>  (8) 
-15.1

>  <m_primary>  (8) 
energy

$$$$
8:0
     RDKit          3D

 54 57  0  0  0  0  0  0  0  0999 V2000
   57.2396   33.7920   45.5364 H   0  0  0  0  0  0  0  0  0  0  0  0
   57.0540   32.8360   45.0250 C   0  0  0  0  0  0  0  0  0  0  0  0
   56.3457   32.7902   44.1846 H   0  0  0  0  0  0  0  0  0  0  0  0
   57.6880   31.7320   45.4240 C   0  0  0  0  0  0  0  0  0  0  0  0
   58.5970   31.6370   46.4600 C   0  0  0  0  0  0  0  0  0  0  0  0
   58.9430   32.7180   47.4030 C   0  0  0  0  0  0  0  0  0  0  0  0
   58.0110   33.4190   47.8870 O   0  0  0  0  0  0  0  0  0  0  0  0
   60.3160   32.9790   47.7690 N   0  0  0  0  0  0  0  0  0  0  0  0
   60.6160   33.8120   48.9420 C   0  0  0  0  0  0  0  0  0  0  0  0
   60.6263   34.8709   48.6444 H   0  0  0  0  0  0  0  0  0  0  0  0
   59.8446   33.6491   49.7090 H   0  0  0  0  0  0  0  0  0  0  0  0
   61.9840   33.4320   49.5140 C   0  0  0  0  0  0  0  0  0  0  0  0
   62.2019   34.0735   50.3806 H   0  0  0  0  0  0  0  0  0  0  0  0
   61.9559   32.3740   49.8137 H   0  0  0  0  0  0  0  0  0  0  0  0
   63.0500   33.6060   48.5040 N   0  0  0  0  0  0  0  0  0  0  0  0
   64.4290   33.1960   48.8760 C   0  0  0  0  0  0  0  0  0  0  0  0
   64.8504   33.5010   47.9068 H   0  0  0  0  0  0  0  0  0  0  0  0
   64.9130   33.3590   50.3180 C   0  0  0  0  0  0  0  0  0  0  0  0
   65.9726   33.5730   50.5218 H   0  0  0  0  0  0  0  0  0  0  0  0
   64.6217   33.9911   51.1698 H   0  0  0  0  0  0  0  0  0  0  0  0
   64.4990   31.9890   49.8040 C   0  0  0  0  0  0  0  0  0  0  0  0
   65.2597   31.2120   49.6378 H   0  0  0  0  0  0  0  0  0  0  0  0
   63.7839   31.2205   50.1327 H   0  0  0  0  0  0  0  0  0  0  0  0
   62.6930   33.2190   47.1150 C   0  0  0  0  0  0  0  0  0  0  0  0
   62.5337   34.1356   46.5282 H   0  0  0  0  0  0  0  0  0  0  0  0
   63.5235   32.6127   46.7243 H   0  0  0  0  0  0  0  0  0  0  0  0
   61.4240   32.3580   47.0260 C   0  0  0  0  0  0  0  0  0  0  0  0
   61.1345   32.2510   45.9702 H   0  0  0  0  0  0  0  0  0  0  0  0
   61.6354   31.3730   47.4677 H   0  0  0  0  0  0  0  0  0  0  0  0
   59.0010   30.3030   46.5470 C   0  0  0  0  0  0  0  0  0  0  0  0
   59.6970   29.7460   47.7910 C   0  0  0  0  0  0  0  0  0  0  0  0
   60.5336   30.4356   47.9772 H   0  0  0  0  0  0  0  0  0  0  0  0
   60.3520   28.3750   47.5720 C   0  0  0  0  0  0  0  0  0  0  0  0
   60.5722   27.9140   48.5462 H   0  0  0  0  0  0  0  0  0  0  0  0
   59.6662   27.7271   47.0064 H   0  0  0  0  0  0  0  0  0  0  0  0
   61.2870   28.5015   47.0064 H   0  0  0  0  0  0  0  0  0  0  0  0
   58.8280   29.8060   49.0540 C   0  0  0  0  0  0  0  0  0  0  0  0
   59.4720   29.7615   49.9446 H   0  0  0  0  0  0  0  0  0  0  0  0
   58.2563   30.7458   49.0614 H   0  0  0  0  0  0  0  0  0  0  0  0
   58.1326   28.9537   49.0614 H   0  0  0  0  0  0  0  0  0  0  0  0
   58.3250   29.6510   45.4870 C   0  0  0  0  0  0  0  0  0  0  0  0
   58.3880   28.3740   45.0700 C   0  0  0  0  0  0  0  0  0  0  0  0
   59.1719   28.1333   44.3368 H   0  0  0  0  0  0  0  0  0  0  0  0
   57.5160   27.2630   45.4930 C   0  0  0  0  0  0  0  0  0  0  0  0
   56.1270   27.4490   45.6250 C   0  0  0  0  0  0  0  0  0  0  0  0
   55.5290   28.6410   45.2360 O   0  0  0  0  0  0  0  0  0  0  0  0
   55.3530   26.4560   46.1390 N   0  0  0  0  0  0  0  0  0  0  0  0
   55.9040   25.2930   46.5700 C   0  0  0  0  0  0  0  0  0  0  0  0
   55.1640   24.3800   47.0280 O   0  0  0  0  0  0  0  0  0  0  0  0
   57.2510   25.1180   46.5150 N   0  0  0  0  0  0  0  0  0  0  0  0
   58.0680   26.0810   46.0100 C   0  0  0  0  0  0  0  0  0  0  0  0
   59.3160   25.9030   46.0040 O   0  0  0  0  0  0  0  0  0  0  0  0
   57.5170   30.5310   44.8540 N   0  0  0  0  0  0  0  0  0  0  0  0
   56.8930   30.3230   44.0390 H   0  0  0  0  0  0  0  0  0  0  0  0
  1  2  1  0
  2  3  1  0
  2  4  2  0
  4  5  1  0
  5  6  1  0
  6  7  2  0
  6  8  1  0
  8  9  1  0
  9 10  1  0
  9 11  1  0
  9 12  1  0
 12 13  1  0
 12 14  1  0
 12 15  1  0
 15 16  1  0
 16 17  1  0
 16 18  1  0
 18 19  1  0
 18 20  1  0
 18 21  1  0
 21 22  1  0
 21 23  1  0
 15 24  1  0
 24 25  1  0
 24 26  1  0
 24 27  1  0
 27 28  1  0
 27 29  1  0
  5 30  2  0
 30 31  1  0
 31 32  1  0
 31 33  1  0
 33 34  1  0
 33 35  1  0
 33 36  1  0
 31 37  1  0
 37 38  1  0
 37 39  1  0
 37 40  1  0
 30 41  1  0
 41 42  2  0
 42 43  1  0
 42 44  1  0
 44 45  2  0
 45 46  1  0
 45 47  1  0
 47 48  1  0
 48 49  2  0
 48 50  1  0
 50 51  1  0
 51 52  2  0
 41 53  1  0
 53 54  1  0
 53  4  1  0
 27  8  1  0
 51 44  1  0
 21 16  1  0
M  CHG  3  46  -1  47  -1  50  -1
M  END
>  <UniqueID>  (9) 
8

>  <SMILES>  (9) 
C=c1[nH]/c(=C/c2c([O-])[n-]c(=O)[n-]c2=O)c(C(C)C)c1C(=O)N1CCN(C2CC2)CC1

>  <Energy>  (9) 
389.50906076090956

>  <Genealogy>  (9) 
C=c1[nH]c(=Cc2c([O-])[n-]c(=O)[n-]c2=O)c(C(C)C)c1C(=O)N1CCN(C2CC2)CC1 (protonated)
C=c1[nH]/c(=C/c2c([O-])[n-]c(=O)[n-]c2=O)c(C(C)C)c1C(=O)N1CCN(C2CC2)CC1 (cis-trans isomerization)
C=c1[nH]/c(=C/c2c([O-])[n-]c(=O)[n-]c2=O)c(C(C)C)c1C(=O)N1CCN(C2CC2)CC1 (3D coordinates assigned)
C=c1[nH]/c(=C/c2c([O-])[n-]c(=O)[n-]c2=O)c(C(C)C)c1C(=O)N1CCN(C2CC2)CC1 (nonaromatic ring conformer: 389.50906076090956 kcal/mol)

>  <smiles>  (9) 
C=c1[nH]c(=Cc2c(O)[nH]c(=O)[nH]c2=O)c(C(C)C)c1C(=O)N1CCN(C2CC2)CC1

>  <score_type>  (9) 
oracle

>  <origin>  (9) 
adg

>  <m_score__min__energy>  (9) 
-16.48

>  <m_primary>  (9) 
energy

$$$$
9:0
     RDKit          3D

 37 40  0  0  0  0  0  0  0  0999 V2000
   60.9930   34.2230   46.9790 C   0  0  0  0  0  0  0  0  0  0  0  0
   59.7380   33.7270   46.3250 C   0  0  0  0  0  0  0  0  0  0  0  0
   58.8060   34.6200   45.7610 C   0  0  0  0  0  0  0  0  0  0  0  0
   57.6090   34.1420   45.1970 C   0  0  0  0  0  0  0  0  0  0  0  0
   57.3440   32.7670   45.2000 C   0  0  0  0  0  0  0  0  0  0  0  0
   58.2700   31.9350   45.7440 N   0  0  0  0  0  0  0  0  0  0  0  0
   58.2670   30.6010   45.9110 C   0  0  0  0  0  0  0  0  0  0  0  0
   57.1930   29.7280   45.5380 N   0  0  0  0  0  0  0  0  0  0  0  0
   57.3920   28.3870   45.0570 C   0  0  0  0  0  0  0  0  0  0  0  0
   57.9340   28.1860   43.7790 C   0  0  0  0  0  0  0  0  0  0  0  0
   58.1250   26.8920   43.2860 C   0  0  0  0  0  0  0  0  0  0  0  0
   57.7700   25.7870   44.0620 C   0  0  0  0  0  0  0  0  0  0  0  0
   57.2140   25.9740   45.3320 C   0  0  0  0  0  0  0  0  0  0  0  0
   56.7570   24.5860   46.3020 Cl  0  0  0  0  0  0  0  0  0  0  0  0
   57.0190   27.2680   45.8270 C   0  0  0  0  0  0  0  0  0  0  0  0
   59.4190   30.2530   46.6040 C   0  0  0  0  0  0  0  0  0  0  0  0
   59.8560   28.9020   47.0020 C   0  0  0  0  0  0  0  0  0  0  0  0
   60.4260   27.9620   46.1500 C   0  0  0  0  0  0  0  0  0  0  0  0
   60.7190   26.7470   46.7810 C   0  0  0  0  0  0  0  0  0  0  0  0
   60.3780   26.7180   48.1260 C   0  0  0  0  0  0  0  0  0  0  0  0
   59.7100   28.2080   48.5280 S   0  0  0  0  0  0  0  0  0  0  0  0
   60.1490   31.3680   46.8500 N   0  0  0  0  0  0  0  0  0  0  0  0
   59.4140   32.3650   46.3080 C   0  0  0  0  0  0  0  0  0  0  0  0
   60.8792   34.1780   48.0722 H   0  0  0  0  0  0  0  0  0  0  0  0
   61.8403   33.5921   46.6723 H   0  0  0  0  0  0  0  0  0  0  0  0
   61.1801   35.2627   46.6723 H   0  0  0  0  0  0  0  0  0  0  0  0
   59.0158   35.6998   45.7615 H   0  0  0  0  0  0  0  0  0  0  0  0
   56.8858   34.8440   44.7564 H   0  0  0  0  0  0  0  0  0  0  0  0
   56.4107   32.3710   44.7732 H   0  0  0  0  0  0  0  0  0  0  0  0
   56.2170   30.0860   45.6430 H   0  0  0  0  0  0  0  0  0  0  0  0
   58.2106   29.0526   43.1605 H   0  0  0  0  0  0  0  0  0  0  0  0
   58.5558   26.7440   42.2847 H   0  0  0  0  0  0  0  0  0  0  0  0
   57.9275   24.7695   43.6748 H   0  0  0  0  0  0  0  0  0  0  0  0
   56.5724   27.4122   46.8219 H   0  0  0  0  0  0  0  0  0  0  0  0
   60.6267   28.1541   45.0857 H   0  0  0  0  0  0  0  0  0  0  0  0
   61.1772   25.8941   46.2589 H   0  0  0  0  0  0  0  0  0  0  0  0
   60.5200   25.8683   48.8100 H   0  0  0  0  0  0  0  0  0  0  0  0
  1  2  1  0
  2  3  2  0
  3  4  1  0
  4  5  2  0
  5  6  1  0
  6  7  1  0
  7  8  1  0
  8  9  1  0
  9 10  2  0
 10 11  1  0
 11 12  2  0
 12 13  1  0
 13 14  1  0
 13 15  2  0
  7 16  2  0
 16 17  1  0
 17 18  2  0
 18 19  1  0
 19 20  2  0
 20 21  1  0
 16 22  1  0
 22 23  2  0
 23  2  1  0
 23  6  1  0
 15  9  1  0
 21 17  1  0
  1 24  1  0
  1 25  1  0
  1 26  1  0
  3 27  1  0
  4 28  1  0
  5 29  1  0
  8 30  1  0
 10 31  1  0
 11 32  1  0
 12 33  1  0
 15 34  1  0
 18 35  1  0
 19 36  1  0
 20 37  1  0
M  END
>  <UniqueID>  (10) 
9

>  <SMILES>  (10) 
Cc1cccn2c(Nc3cccc(Cl)c3)c(-c3cccs3)nc12

>  <Energy>  (10) 
108.53916960417057

>  <Genealogy>  (10) 
Cc1cccn2c(Nc3cccc(Cl)c3)c(-c3cccs3)nc12 (3D coordinates assigned)
Cc1cccn2c(Nc3cccc(Cl)c3)c(-c3cccs3)nc12 (optimized conformer: 108.53916960417057 kcal/mol)

>  <smiles>  (10) 
Cc1cccn2c(Nc3cccc(Cl)c3)c(-c3cccs3)nc12

>  <score_type>  (10) 
oracle

>  <origin>  (10) 
adg

>  <m_score__min__energy>  (10) 
-7.5499999999999998

>  <m_primary>  (10) 
energy

$$$$
10:0
     RDKit          3D

 56 59  0  0  0  0  0  0  0  0999 V2000
   59.8471   36.1450   46.6080 H   0  0  0  0  0  0  0  0  0  0  0  0
   59.4850   35.1280   46.8190 C   0  0  0  0  0  0  0  0  0  0  0  0
   59.5650   34.6280   48.0800 N   0  0  0  0  0  0  0  0  0  0  0  0
   59.1190   33.3790   48.3900 C   0  0  0  0  0  0  0  0  0  0  0  0
   59.2100   32.9000   49.5990 N   0  0  0  0  0  0  0  0  0  0  0  0
   59.6430   33.5520   50.8100 C   0  0  0  0  0  0  0  0  0  0  0  0
   58.5940   33.9570   52.0080 S   0  0  0  0  0  0  0  0  0  0  0  0
   61.0400   33.8170   51.0110 N   0  0  0  0  0  0  0  0  0  0  0  0
   61.3060   34.5160   51.7420 H   0  0  0  0  0  0  0  0  0  0  0  0
   62.0850   33.2910   50.1750 C   0  0  0  0  0  0  0  0  0  0  0  0
   63.0260   32.3710   50.6710 C   0  0  0  0  0  0  0  0  0  0  0  0
   62.9583   32.0265   51.7135 H   0  0  0  0  0  0  0  0  0  0  0  0
   64.0480   31.8920   49.8440 C   0  0  0  0  0  0  0  0  0  0  0  0
   64.7723   31.1614   50.2333 H   0  0  0  0  0  0  0  0  0  0  0  0
   64.1500   32.3400   48.5250 C   0  0  0  0  0  0  0  0  0  0  0  0
   64.9529   31.9607   47.8757 H   0  0  0  0  0  0  0  0  0  0  0  0
   63.2310   33.2710   48.0300 C   0  0  0  0  0  0  0  0  0  0  0  0
   63.3690   33.8440   46.3780 Cl  0  0  0  0  0  0  0  0  0  0  0  0
   62.2080   33.7530   48.8550 C   0  0  0  0  0  0  0  0  0  0  0  0
   61.4970   34.4974   48.4672 H   0  0  0  0  0  0  0  0  0  0  0  0
   58.5730   32.5740   47.3830 C   0  0  0  0  0  0  0  0  0  0  0  0
   58.2046   31.5658   47.6235 H   0  0  0  0  0  0  0  0  0  0  0  0
   58.4960   33.0540   46.0670 C   0  0  0  0  0  0  0  0  0  0  0  0
   57.9210   32.2200   44.9860 C   0  0  0  0  0  0  0  0  0  0  0  0
   57.4620   32.7850   43.9560 O   0  0  0  0  0  0  0  0  0  0  0  0
   57.8670   30.7840   45.0850 N   0  0  0  0  0  0  0  0  0  0  0  0
   56.7400   30.0720   44.4640 C   0  0  0  0  0  0  0  0  0  0  0  0
   55.7991   30.5468   44.7791 H   0  0  0  0  0  0  0  0  0  0  0  0
   56.8562   30.1247   43.3714 H   0  0  0  0  0  0  0  0  0  0  0  0
   56.7170   28.5960   44.8770 C   0  0  0  0  0  0  0  0  0  0  0  0
   56.5156   28.5293   45.9563 H   0  0  0  0  0  0  0  0  0  0  0  0
   55.9297   28.0872   44.3014 H   0  0  0  0  0  0  0  0  0  0  0  0
   58.0670   27.9050   44.5730 C   0  0  0  0  0  0  0  0  0  0  0  0
   58.1010   27.7386   43.4862 H   0  0  0  0  0  0  0  0  0  0  0  0
   58.1420   26.5730   45.2280 N   0  0  0  0  0  0  0  0  0  0  0  0
   57.4060   25.4620   44.5740 C   0  0  0  0  0  0  0  0  0  0  0  0
   57.1982   25.7519   43.5334 H   0  0  0  0  0  0  0  0  0  0  0  0
   58.0474   24.5716   44.6498 H   0  0  0  0  0  0  0  0  0  0  0  0
   56.0590   25.0990   45.2560 C   0  0  0  0  0  0  0  0  0  0  0  0
   55.2431   25.4897   44.6302 H   0  0  0  0  0  0  0  0  0  0  0  0
   56.0477   24.0033   45.3524 H   0  0  0  0  0  0  0  0  0  0  0  0
   55.8950   25.6140   46.5640 O   0  0  0  0  0  0  0  0  0  0  0  0
   57.1110   25.5570   47.2670 C   0  0  0  0  0  0  0  0  0  0  0  0
   56.9305   25.7448   48.3357 H   0  0  0  0  0  0  0  0  0  0  0  0
   57.5655   24.5619   47.1523 H   0  0  0  0  0  0  0  0  0  0  0  0
   58.0460   26.6250   46.7080 C   0  0  0  0  0  0  0  0  0  0  0  0
   57.6682   27.6151   47.0031 H   0  0  0  0  0  0  0  0  0  0  0  0
   59.0503   26.4392   47.1164 H   0  0  0  0  0  0  0  0  0  0  0  0
   59.3060   28.8000   44.8610 C   0  0  0  0  0  0  0  0  0  0  0  0
   60.0557   28.1999   45.3975 H   0  0  0  0  0  0  0  0  0  0  0  0
   59.6864   29.1594   43.8935 H   0  0  0  0  0  0  0  0  0  0  0  0
   58.9670   30.0300   45.7080 C   0  0  0  0  0  0  0  0  0  0  0  0
   58.6625   29.7064   46.7143 H   0  0  0  0  0  0  0  0  0  0  0  0
   59.8542   30.6767   45.7760 H   0  0  0  0  0  0  0  0  0  0  0  0
   58.9450   34.3550   45.7920 C   0  0  0  0  0  0  0  0  0  0  0  0
   58.8713   34.7622   44.7728 H   0  0  0  0  0  0  0  0  0  0  0  0
  1  2  1  0
  2  3  1  0
  3  4  1  0
  4  5  2  0
  5  6  1  0
  6  7  2  0
  6  8  1  0
  8  9  1  0
  8 10  1  0
 10 11  2  0
 11 12  1  0
 11 13  1  0
 13 14  1  0
 13 15  2  0
 15 16  1  0
 15 17  1  0
 17 18  1  0
 17 19  2  0
 19 20  1  0
  4 21  1  0
 21 22  1  0
 21 23  2  0
 23 24  1  0
 24 25  2  0
 24 26  1  0
 26 27  1  0
 27 28  1  0
 27 29  1  0
 27 30  1  0
 30 31  1  0
 30 32  1  0
 30 33  1  0
 33 34  1  0
 33 35  1  0
 35 36  1  0
 36 37  1  0
 36 38  1  0
 36 39  1  0
 39 40  1  0
 39 41  1  0
 39 42  1  0
 42 43  1  0
 43 44  1  0
 43 45  1  0
 43 46  1  0
 46 47  1  0
 46 48  1  0
 33 49  1  0
 49 50  1  0
 49 51  1  0
 49 52  1  0
 52 53  1  0
 52 54  1  0
 23 55  1  0
 55 56  1  0
 55  2  2  0
 19 10  1  0
 52 26  1  0
 46 35  1  0
M  CHG  1   3  -1
M  END
>  <UniqueID>  (11) 
10

>  <SMILES>  (11) 
O=C(c1cc[n-]/c(=N\C(=S)Nc2cccc(Cl)c2)c1)N1CCC(N2CCOCC2)CC1

>  <Energy>  (11) 
93.88608096671979

>  <Genealogy>  (11) 
O=C(c1cc[n-]c(=NC(=S)Nc2cccc(Cl)c2)c1)N1CCC(N2CCOCC2)CC1 (protonated)
O=C(c1cc[n-]/c(=N\C(=S)Nc2cccc(Cl)c2)c1)N1CCC(N2CCOCC2)CC1 (cis-trans isomerization)
O=C(c1cc[n-]/c(=N\C(=S)Nc2cccc(Cl)c2)c1)N1CCC(N2CCOCC2)CC1 (3D coordinates assigned)
O=C(c1cc[n-]/c(=N\C(=S)Nc2cccc(Cl)c2)c1)N1CCC(N2CCOCC2)CC1 (nonaromatic ring conformer: 93.88608096671979 kcal/mol)

>  <smiles>  (11) 
O=C(c1cc[nH]c(=NC(=S)Nc2cccc(Cl)c2)c1)N1CCC(N2CCOCC2)CC1

>  <score_type>  (11) 
oracle

>  <origin>  (11) 
adg

>  <m_score__min__energy>  (11) 
-10.789999999999999

>  <m_primary>  (11) 
energy

$$$$
11:0
     RDKit          3D

 31 32  0  0  0  0  0  0  0  0999 V2000
   53.0779   24.6343   46.3187 H   0  0  0  0  0  0  0  0  0  0  0  0
   53.7880   24.1960   45.6020 C   0  0  0  0  0  0  0  0  0  0  0  0
   53.4090   23.3530   44.8040 O   0  0  0  0  0  0  0  0  0  0  0  0
   55.2220   24.6330   45.6040 C   0  0  0  0  0  0  0  0  0  0  0  0
   55.7975   23.9785   46.2751 H   0  0  0  0  0  0  0  0  0  0  0  0
   55.6119   24.5671   44.5775 H   0  0  0  0  0  0  0  0  0  0  0  0
   55.3430   26.0150   46.0630 N   0  0  0  0  0  0  0  0  0  0  0  0
   56.2330   26.8650   45.6430 C   0  0  0  0  0  0  0  0  0  0  0  0
   55.9060   28.1120   45.2470 N   0  0  0  0  0  0  0  0  0  0  0  0
   56.9990   28.8200   44.8450 C   0  0  0  0  0  0  0  0  0  0  0  0
   56.8700   30.2180   44.3840 C   0  0  0  0  0  0  0  0  0  0  0  0
   55.7760   30.8170   44.5680 O   0  0  0  0  0  0  0  0  0  0  0  0
   57.9540   30.8960   43.7280 N   0  0  0  0  0  0  0  0  0  0  0  0
   58.8010   30.3650   43.4300 H   0  0  0  0  0  0  0  0  0  0  0  0
   57.9010   32.3220   43.4120 C   0  0  0  0  0  0  0  0  0  0  0  0
   58.5966   32.5377   42.5876 H   0  0  0  0  0  0  0  0  0  0  0  0
   56.8750   32.5865   43.1162 H   0  0  0  0  0  0  0  0  0  0  0  0
   58.2900   33.1350   44.6160 C   0  0  0  0  0  0  0  0  0  0  0  0
   57.7050   32.8650   45.8650 C   0  0  0  0  0  0  0  0  0  0  0  0
   56.9772   32.0461   45.9638 H   0  0  0  0  0  0  0  0  0  0  0  0
   58.0450   33.6340   46.9830 C   0  0  0  0  0  0  0  0  0  0  0  0
   57.5862   33.4175   47.9590 H   0  0  0  0  0  0  0  0  0  0  0  0
   58.9670   34.6770   46.8610 C   0  0  0  0  0  0  0  0  0  0  0  0
   59.2354   35.2789   47.7417 H   0  0  0  0  0  0  0  0  0  0  0  0
   59.5480   34.9560   45.6220 C   0  0  0  0  0  0  0  0  0  0  0  0
   60.2715   35.7791   45.5275 H   0  0  0  0  0  0  0  0  0  0  0  0
   59.2110   34.1900   44.5010 C   0  0  0  0  0  0  0  0  0  0  0  0
   59.6686   34.4143   43.5262 H   0  0  0  0  0  0  0  0  0  0  0  0
   58.2090   28.1250   44.9280 C   0  0  0  0  0  0  0  0  0  0  0  0
   59.1993   28.5191   44.6558 H   0  0  0  0  0  0  0  0  0  0  0  0
   57.8890   26.5820   45.5160 S   0  0  0  0  0  0  0  0  0  0  0  0
  1  2  1  0
  2  3  2  0
  2  4  1  0
  4  5  1  0
  4  6  1  0
  4  7  1  0
  7  8  2  0
  8  9  1  0
  9 10  1  0
 10 11  1  0
 11 12  2  0
 11 13  1  0
 13 14  1  0
 13 15  1  0
 15 16  1  0
 15 17  1  0
 15 18  1  0
 18 19  2  0
 19 20  1  0
 19 21  1  0
 21 22  1  0
 21 23  2  0
 23 24  1  0
 23 25  1  0
 25 26  1  0
 25 27  2  0
 27 28  1  0
 10 29  2  0
 29 30  1  0
 29 31  1  0
 31  8  1  0
 27 18  1  0
M  CHG  1   9  -1
M  END
>  <UniqueID>  (12) 
11

>  <SMILES>  (12) 
O=CC/N=c1/[n-]c(C(=O)NCc2ccccc2)cs1

>  <Energy>  (12) 
57.57673009817806

>  <Genealogy>  (12) 
O=CCN=c1[n-]c(C(=O)NCc2ccccc2)cs1 (protonated)
O=CC/N=c1/[n-]c(C(=O)NCc2ccccc2)cs1 (cis-trans isomerization)
O=CC/N=c1/[n-]c(C(=O)NCc2ccccc2)cs1 (3D coordinates assigned)
O=CC/N=c1/[n-]c(C(=O)NCc2ccccc2)cs1 (optimized conformer: 57.57673009817806 kcal/mol)

>  <smiles>  (12) 
O=CCN=c1[nH]c(C(=O)NCc2ccccc2)cs1

>  <score_type>  (12) 
oracle

>  <origin>  (12) 
adg

>  <m_score__min__energy>  (12) 
-9.9299999999999997

>  <m_primary>  (12) 
energy

$$$$
12:0
     RDKit          3D

 85 89  0  0  0  0  0  0  0  0999 V2000
   59.2130   31.7010   54.8790 C   0  0  0  0  0  0  0  0  0  0  0  0
   58.2930   31.4270   53.7180 C   0  0  0  0  0  0  0  0  0  0  0  0
   57.3680   30.3730   53.8210 C   0  0  0  0  0  0  0  0  0  0  0  0
   56.4710   30.1080   52.7850 C   0  0  0  0  0  0  0  0  0  0  0  0
   56.4820   30.8940   51.6360 C   0  0  0  0  0  0  0  0  0  0  0  0
   57.3890   31.9480   51.5190 C   0  0  0  0  0  0  0  0  0  0  0  0
   58.3040   32.2280   52.5460 C   0  0  0  0  0  0  0  0  0  0  0  0
   59.4200   33.5930   52.3520 S   0  0  0  0  0  0  0  0  0  0  0  0
   59.4530   34.3970   53.6240 O   0  0  0  0  0  0  0  0  0  0  0  0
   58.9160   34.4910   51.2570 O   0  0  0  0  0  0  0  0  0  0  0  0
   61.0140   32.9630   51.9820 N   0  0  0  0  0  0  0  0  0  0  0  0
   61.7560   33.8620   51.0800 C   0  0  0  0  0  0  0  0  0  0  0  0
   63.0720   33.2070   50.6030 C   0  0  0  0  0  0  0  0  0  0  0  0
   63.4740   31.9740   51.4500 C   0  0  0  0  0  0  0  0  0  0  0  0
   62.7430   30.7110   51.0350 C   0  0  0  0  0  0  0  0  0  0  0  0
   63.3770   29.6310   50.8880 O   0  0  0  0  0  0  0  0  0  0  0  0
   61.3140   30.7150   50.8960 N   0  0  0  0  0  0  0  0  0  0  0  0
   60.5990   29.8330   50.0160 C   0  0  0  0  0  0  0  0  0  0  0  0
   59.3970   30.2640   49.4310 C   0  0  0  0  0  0  0  0  0  0  0  0
   58.6740   29.4110   48.5910 C   0  0  0  0  0  0  0  0  0  0  0  0
   59.1660   28.1300   48.2820 C   0  0  0  0  0  0  0  0  0  0  0  0
   58.3900   27.1930   47.3870 C   0  0  0  0  0  0  0  0  0  0  0  0
   59.1040   26.9390   46.0830 C   0  0  0  0  0  0  0  0  0  0  0  0
   59.5580   25.7840   45.8530 O   0  0  0  0  0  0  0  0  0  0  0  0
   59.1570   27.9090   45.0290 N   0  0  0  0  0  0  0  0  0  0  0  0
   58.3540   29.0870   44.8690 C   0  0  0  0  0  0  0  0  0  0  0  0
   57.4050   29.1060   43.8420 C   0  0  0  0  0  0  0  0  0  0  0  0
   56.6440   30.2500   43.6080 C   0  0  0  0  0  0  0  0  0  0  0  0
   56.8330   31.3890   44.3910 C   0  0  0  0  0  0  0  0  0  0  0  0
   57.7990   31.4050   45.4120 C   0  0  0  0  0  0  0  0  0  0  0  0
   58.0060   32.6310   46.2180 C   0  0  0  0  0  0  0  0  0  0  0  0
   57.7780   32.6140   47.4580 O   0  0  0  0  0  0  0  0  0  0  0  0
   58.4670   33.8390   45.6040 N   0  0  0  0  0  0  0  0  0  0  0  0
   59.8200   34.3430   45.8040 C   0  0  0  0  0  0  0  0  0  0  0  0
   60.1690   34.3390   47.2910 C   0  0  0  0  0  0  0  0  0  0  0  0
   61.3230   33.4490   47.5470 N   0  0  0  0  0  0  0  0  0  0  0  0
   62.5000   33.8440   46.7500 C   0  0  0  0  0  0  0  0  0  0  0  0
   63.6900   32.9120   47.0600 C   0  0  0  0  0  0  0  0  0  0  0  0
   63.3190   31.8270   47.8890 O   0  0  0  0  0  0  0  0  0  0  0  0
   62.2210   31.1450   47.3180 C   0  0  0  0  0  0  0  0  0  0  0  0
   60.9750   32.0470   47.2620 C   0  0  0  0  0  0  0  0  0  0  0  0
   58.5710   30.2500   45.6350 C   0  0  0  0  0  0  0  0  0  0  0  0
   60.3770   27.7090   48.8530 C   0  0  0  0  0  0  0  0  0  0  0  0
   61.0910   28.5570   49.7010 C   0  0  0  0  0  0  0  0  0  0  0  0
   63.2360   32.2970   52.9380 C   0  0  0  0  0  0  0  0  0  0  0  0
   61.7760   32.7070   53.2220 C   0  0  0  0  0  0  0  0  0  0  0  0
   58.6709   31.5395   55.8224 H   0  0  0  0  0  0  0  0  0  0  0  0
   60.0763   31.0210   54.8312 H   0  0  0  0  0  0  0  0  0  0  0  0
   59.5636   32.7425   54.8312 H   0  0  0  0  0  0  0  0  0  0  0  0
   57.3511   29.7506   54.7278 H   0  0  0  0  0  0  0  0  0  0  0  0
   55.7551   29.2778   52.8764 H   0  0  0  0  0  0  0  0  0  0  0  0
   55.7752   30.6840   50.8197 H   0  0  0  0  0  0  0  0  0  0  0  0
   57.3869   32.5675   50.6101 H   0  0  0  0  0  0  0  0  0  0  0  0
   61.1300   34.0899   50.2047 H   0  0  0  0  0  0  0  0  0  0  0  0
   62.0023   34.7830   51.6287 H   0  0  0  0  0  0  0  0  0  0  0  0
   62.9467   32.8887   49.5575 H   0  0  0  0  0  0  0  0  0  0  0  0
   63.8708   33.9556   50.7105 H   0  0  0  0  0  0  0  0  0  0  0  0
   64.5406   31.7679   51.2772 H   0  0  0  0  0  0  0  0  0  0  0  0
   60.7610   31.3550   51.5100 H   0  0  0  0  0  0  0  0  0  0  0  0
   59.0223   31.2780   49.6346 H   0  0  0  0  0  0  0  0  0  0  0  0
   57.7142   29.7441   48.1692 H   0  0  0  0  0  0  0  0  0  0  0  0
   58.2526   26.2348   47.9095 H   0  0  0  0  0  0  0  0  0  0  0  0
   57.4221   27.6634   47.1592 H   0  0  0  0  0  0  0  0  0  0  0  0
   57.2584   28.2136   43.2157 H   0  0  0  0  0  0  0  0  0  0  0  0
   55.8929   30.2548   42.8044 H   0  0  0  0  0  0  0  0  0  0  0  0
   56.2199   32.2837   44.2076 H   0  0  0  0  0  0  0  0  0  0  0  0
   60.5306   33.7016   45.2621 H   0  0  0  0  0  0  0  0  0  0  0  0
   59.8794   35.3735   45.4238 H   0  0  0  0  0  0  0  0  0  0  0  0
   60.4229   35.3617   47.6066 H   0  0  0  0  0  0  0  0  0  0  0  0
   59.3021   33.9723   47.8602 H   0  0  0  0  0  0  0  0  0  0  0  0
   62.2540   33.7757   45.6800 H   0  0  0  0  0  0  0  0  0  0  0  0
   62.7769   34.8773   47.0062 H   0  0  0  0  0  0  0  0  0  0  0  0
   64.0848   32.5151   46.1131 H   0  0  0  0  0  0  0  0  0  0  0  0
   64.4490   33.5012   47.5955 H   0  0  0  0  0  0  0  0  0  0  0  0
   62.4842   30.8325   46.2967 H   0  0  0  0  0  0  0  0  0  0  0  0
   61.9904   30.2700   47.9434 H   0  0  0  0  0  0  0  0  0  0  0  0
   60.5306   31.9840   46.2577 H   0  0  0  0  0  0  0  0  0  0  0  0
   60.2596   31.7026   48.0233 H   0  0  0  0  0  0  0  0  0  0  0  0
   59.3492   30.2548   46.4124 H   0  0  0  0  0  0  0  0  0  0  0  0
   60.7659   26.7043   48.6308 H   0  0  0  0  0  0  0  0  0  0  0  0
   62.0485   28.2220   50.1265 H   0  0  0  0  0  0  0  0  0  0  0  0
   63.4758   31.4056   53.5362 H   0  0  0  0  0  0  0  0  0  0  0  0
   63.8821   33.1461   53.2055 H   0  0  0  0  0  0  0  0  0  0  0  0
   61.2830   31.8967   53.7792 H   0  0  0  0  0  0  0  0  0  0  0  0
   61.7957   33.6404   53.8036 H   0  0  0  0  0  0  0  0  0  0  0  0
  1  2  1  0
  2  3  2  0
  3  4  1  0
  4  5  2  0
  5  6  1  0
  6  7  2  0
  7  8  1  0
  8  9  2  0
  8 10  2  0
  8 11  1  0
 11 12  1  0
 12 13  1  0
 13 14  1  0
 14 15  1  0
 15 16  2  0
 15 17  1  0
 17 18  1  0
 18 19  2  0
 19 20  1  0
 20 21  2  0
 21 22  1  0
 22 23  1  0
 23 24  2  0
 23 25  1  0
 25 26  1  0
 26 27  2  0
 27 28  1  0
 28 29  2  0
 29 30  1  0
 30 31  1  0
 31 32  2  0
 31 33  1  0
 33 34  1  0
 34 35  1  0
 35 36  1  0
 36 37  1  0
 37 38  1  0
 38 39  1  0
 39 40  1  0
 40 41  1  0
 30 42  2  0
 21 43  1  0
 43 44  2  0
 14 45  1  0
 45 46  1  0
  7  2  1  0
 46 11  1  0
 44 18  1  0
 42 26  1  0
 41 36  1  0
  1 47  1  0
  1 48  1  0
  1 49  1  0
  3 50  1  0
  4 51  1  0
  5 52  1  0
  6 53  1  0
 12 54  1  0
 12 55  1  0
 13 56  1  0
 13 57  1  0
 14 58  1  0
 17 59  1  0
 19 60  1  0
 20 61  1  0
 22 62  1  0
 22 63  1  0
 27 64  1  0
 28 65  1  0
 29 66  1  0
 34 67  1  0
 34 68  1  0
 35 69  1  0
 35 70  1  0
 37 71  1  0
 37 72  1  0
 38 73  1  0
 38 74  1  0
 40 75  1  0
 40 76  1  0
 41 77  1  0
 41 78  1  0
 42 79  1  0
 43 80  1  0
 44 81  1  0
 45 82  1  0
 45 83  1  0
 46 84  1  0
 46 85  1  0
M  CHG  2  25  -1  33  -1
M  END
>  <UniqueID>  (13) 
12

>  <SMILES>  (13) 
Cc1ccccc1S(=O)(=O)N1CCC(C(=O)Nc2ccc(CC(=O)[N-]c3cccc(C(=O)[N-]CCN4CCOCC4)c3)cc2)CC1

>  <Energy>  (13) 
107.3061684198191

>  <Genealogy>  (13) 
Cc1ccccc1S(=O)(=O)N1CCC(C(=O)Nc2ccc(CC(=O)[N-]c3cccc(C(=O)[N-]CCN4CCOCC4)c3)cc2)CC1 (protonated)
Cc1ccccc1S(=O)(=O)N1CCC(C(=O)Nc2ccc(CC(=O)[N-]c3cccc(C(=O)[N-]CCN4CCOCC4)c3)cc2)CC1 (3D coordinates assigned)
Cc1ccccc1S(=O)(=O)N1CCC(C(=O)Nc2ccc(CC(=O)[N-]c3cccc(C(=O)[N-]CCN4CCOCC4)c3)cc2)CC1 (nonaromatic ring conformer: 107.3061684198191 kcal/mol)

>  <smiles>  (13) 
Cc1ccccc1S(=O)(=O)N1CCC(C(=O)Nc2ccc(CC(=O)Nc3cccc(C(=O)NCCN4CCOCC4)c3)cc2)CC1

>  <score_type>  (13) 
oracle

>  <origin>  (13) 
adg

>  <m_score__min__energy>  (13) 
-15.02

>  <m_primary>  (13) 
energy

$$$$
13:0
     RDKit          3D

 49 51  0  0  0  0  0  0  0  0999 V2000
   66.3000   33.0480   50.1110 C   0  0  0  0  0  0  0  0  0  0  0  0
   65.3440   32.1710   49.8010 C   0  0  0  0  0  0  0  0  0  0  0  0
   64.0100   32.5580   49.2700 C   0  0  0  0  0  0  0  0  0  0  0  0
   63.8810   33.2190   48.0330 C   0  0  0  0  0  0  0  0  0  0  0  0
   62.6250   33.5830   47.5490 C   0  0  0  0  0  0  0  0  0  0  0  0
   61.4710   33.3160   48.2960 C   0  0  0  0  0  0  0  0  0  0  0  0
   60.1730   33.6650   47.7770 N   0  0  0  0  0  0  0  0  0  0  0  0
   60.0660   34.6920   46.7280 C   0  0  0  0  0  0  0  0  0  0  0  0
   58.6970   34.6370   46.0370 C   0  0  0  0  0  0  0  0  0  0  0  0
   58.3210   33.2340   45.7990 N   0  0  0  0  0  0  0  0  0  0  0  0
   58.1830   32.7430   44.4470 C   0  0  0  0  0  0  0  0  0  0  0  0
   58.7710   33.3400   43.5050 O   0  0  0  0  0  0  0  0  0  0  0  0
   57.3720   31.5490   44.1260 C   0  0  0  0  0  0  0  0  0  0  0  0
   57.2550   30.9900   42.8630 C   0  0  0  0  0  0  0  0  0  0  0  0
   56.3940   29.9240   42.9880 C   0  0  0  0  0  0  0  0  0  0  0  0
   56.0280   29.8970   44.3150 C   0  0  0  0  0  0  0  0  0  0  0  0
   55.1580   28.9720   44.8750 O   0  0  0  0  0  0  0  0  0  0  0  0
   56.6120   30.8830   45.0190 N   0  0  0  0  0  0  0  0  0  0  0  0
   58.3130   32.2990   46.9390 C   0  0  0  0  0  0  0  0  0  0  0  0
   58.9730   32.9160   48.1790 C   0  0  0  0  0  0  0  0  0  0  0  0
   61.5920   32.6700   49.5350 C   0  0  0  0  0  0  0  0  0  0  0  0
   62.8530   32.2820   50.0310 C   0  0  0  0  0  0  0  0  0  0  0  0
   63.0030   31.6200   51.2650 O   0  0  0  0  0  0  0  0  0  0  0  0
   63.2040   30.2190   51.4700 C   0  0  0  0  0  0  0  0  0  0  0  0
   64.4210   29.9540   52.3660 C   0  0  0  0  0  0  0  0  0  0  0  0
   65.5110   29.1430   51.6720 C   0  0  0  0  0  0  0  0  0  0  0  0
   67.2661   32.6939   50.5000 H   0  0  0  0  0  0  0  0  0  0  0  0
   66.1223   34.1253   49.9776 H   0  0  0  0  0  0  0  0  0  0  0  0
   65.5543   31.1011   49.9463 H   0  0  0  0  0  0  0  0  0  0  0  0
   64.7800   33.4504   47.4429 H   0  0  0  0  0  0  0  0  0  0  0  0
   62.5400   34.0836   46.5732 H   0  0  0  0  0  0  0  0  0  0  0  0
   60.1991   35.6848   47.1826 H   0  0  0  0  0  0  0  0  0  0  0  0
   60.8449   34.5036   45.9745 H   0  0  0  0  0  0  0  0  0  0  0  0
   57.9428   35.1143   46.6799 H   0  0  0  0  0  0  0  0  0  0  0  0
   58.7509   35.1692   45.0758 H   0  0  0  0  0  0  0  0  0  0  0  0
   57.7521   31.3311   41.9429 H   0  0  0  0  0  0  0  0  0  0  0  0
   56.0666   29.2370   42.1938 H   0  0  0  0  0  0  0  0  0  0  0  0
   57.2718   32.0393   47.1806 H   0  0  0  0  0  0  0  0  0  0  0  0
   58.8848   31.4035   46.6540 H   0  0  0  0  0  0  0  0  0  0  0  0
   58.2634   33.5977   48.6706 H   0  0  0  0  0  0  0  0  0  0  0  0
   59.2584   32.1158   48.8777 H   0  0  0  0  0  0  0  0  0  0  0  0
   60.6893   32.4630   50.1285 H   0  0  0  0  0  0  0  0  0  0  0  0
   62.3085   29.7950   51.9478 H   0  0  0  0  0  0  0  0  0  0  0  0
   63.3844   29.7481   50.4924 H   0  0  0  0  0  0  0  0  0  0  0  0
   64.8463   30.9207   52.6735 H   0  0  0  0  0  0  0  0  0  0  0  0
   64.0720   29.3646   53.2267 H   0  0  0  0  0  0  0  0  0  0  0  0
   66.1515   28.6665   52.4288 H   0  0  0  0  0  0  0  0  0  0  0  0
   65.0476   28.3683   51.0434 H   0  0  0  0  0  0  0  0  0  0  0  0
   66.1199   29.8095   51.0434 H   0  0  0  0  0  0  0  0  0  0  0  0
  1  2  2  0
  2  3  1  0
  3  4  2  0
  4  5  1  0
  5  6  2  0
  6  7  1  0
  7  8  1  0
  8  9  1  0
  9 10  1  0
 10 11  1  0
 11 12  2  0
 11 13  1  0
 13 14  2  0
 14 15  1  0
 15 16  2  0
 16 17  1  0
 16 18  1  0
 10 19  1  0
 19 20  1  0
  6 21  1  0
 21 22  2  0
 22 23  1  0
 23 24  1  0
 24 25  1  0
 25 26  1  0
 22  3  1  0
 20  7  1  0
 18 13  1  0
  1 27  1  0
  1 28  1  0
  2 29  1  0
  4 30  1  0
  5 31  1  0
  8 32  1  0
  8 33  1  0
  9 34  1  0
  9 35  1  0
 14 36  1  0
 15 37  1  0
 19 38  1  0
 19 39  1  0
 20 40  1  0
 20 41  1  0
 21 42  1  0
 24 43  1  0
 24 44  1  0
 25 45  1  0
 25 46  1  0
 26 47  1  0
 26 48  1  0
 26 49  1  0
M  CHG  2  17  -1  18  -1
M  END
>  <UniqueID>  (14) 
13

>  <SMILES>  (14) 
C=Cc1ccc(N2CCN(C(=O)c3ccc([O-])[n-]3)CC2)cc1OCCC

>  <Energy>  (14) 
82.33500931654106

>  <Genealogy>  (14) 
C=Cc1ccc(N2CCN(C(=O)c3ccc([O-])[n-]3)CC2)cc1OCCC (protonated)
C=Cc1ccc(N2CCN(C(=O)c3ccc([O-])[n-]3)CC2)cc1OCCC (3D coordinates assigned)
C=Cc1ccc(N2CCN(C(=O)c3ccc([O-])[n-]3)CC2)cc1OCCC (nonaromatic ring conformer: 82.33500931654106 kcal/mol)

>  <smiles>  (14) 
C=Cc1ccc(N2CCN(C(=O)c3ccc(O)[nH]3)CC2)cc1OCCC

>  <score_type>  (14) 
oracle

>  <origin>  (14) 
adg

>  <m_score__min__energy>  (14) 
-13.119999999999999

>  <m_primary>  (14) 
energy

$$$$
14:0
     RDKit          3D

 53 56  0  0  0  0  0  0  0  0999 V2000
   56.8660   25.3450   46.8070 C   0  0  0  0  0  0  0  0  0  0  0  0
   56.1400   26.4030   45.9860 C   0  0  0  0  0  0  0  0  0  0  0  0
   56.9930   27.5860   45.8190 N   0  0  0  0  0  0  0  0  0  0  0  0
   56.5760   28.6470   44.9470 C   0  0  0  0  0  0  0  0  0  0  0  0
   55.5440   29.3160   45.2170 O   0  0  0  0  0  0  0  0  0  0  0  0
   57.3430   28.9400   43.6910 C   0  0  0  0  0  0  0  0  0  0  0  0
   56.8850   30.5740   43.0120 S   0  0  0  0  0  0  0  0  0  0  0  0
   57.7920   31.5030   44.2450 C   0  0  0  0  0  0  0  0  0  0  0  0
   57.6370   32.8340   44.4310 N   0  0  0  0  0  0  0  0  0  0  0  0
   58.4290   33.2750   45.4400 C   0  0  0  0  0  0  0  0  0  0  0  0
   58.4910   34.5980   45.8730 C   0  0  0  0  0  0  0  0  0  0  0  0
   59.3470   34.9210   46.9400 C   0  0  0  0  0  0  0  0  0  0  0  0
   60.1330   33.9280   47.5700 C   0  0  0  0  0  0  0  0  0  0  0  0
   60.9760   34.2950   48.6750 N   0  0  0  0  0  0  0  0  0  0  0  0
   61.2800   33.2540   50.0300 S   0  0  0  0  0  0  0  0  0  0  0  0
   61.9430   34.0420   51.1270 O   0  0  0  0  0  0  0  0  0  0  0  0
   62.1990   32.1440   49.6020 O   0  0  0  0  0  0  0  0  0  0  0  0
   59.7560   32.6100   50.6350 C   0  0  0  0  0  0  0  0  0  0  0  0
   58.9810   33.3430   51.5490 C   0  0  0  0  0  0  0  0  0  0  0  0
   57.7940   32.8030   52.0560 C   0  0  0  0  0  0  0  0  0  0  0  0
   57.3780   31.5290   51.6570 C   0  0  0  0  0  0  0  0  0  0  0  0
   55.7640   30.7870   52.3620 Br  0  0  0  0  0  0  0  0  0  0  0  0
   58.1420   30.8010   50.7350 C   0  0  0  0  0  0  0  0  0  0  0  0
   59.3280   31.3390   50.2240 C   0  0  0  0  0  0  0  0  0  0  0  0
   60.0670   32.5950   47.1000 C   0  0  0  0  0  0  0  0  0  0  0  0
   59.2060   32.3040   46.0460 C   0  0  0  0  0  0  0  0  0  0  0  0
   58.9160   30.8240   45.3120 S   0  0  0  0  0  0  0  0  0  0  0  0
   58.2670   27.6660   46.4820 C   0  0  0  0  0  0  0  0  0  0  0  0
   59.3840   27.0100   45.9370 C   0  0  0  0  0  0  0  0  0  0  0  0
   60.6190   27.0530   46.5900 C   0  0  0  0  0  0  0  0  0  0  0  0
   60.7500   27.7540   47.7930 C   0  0  0  0  0  0  0  0  0  0  0  0
   59.6460   28.4120   48.3420 C   0  0  0  0  0  0  0  0  0  0  0  0
   58.4080   28.3700   47.6910 C   0  0  0  0  0  0  0  0  0  0  0  0
   56.7245   25.5512   47.8782 H   0  0  0  0  0  0  0  0  0  0  0  0
   56.4583   24.3517   46.5678 H   0  0  0  0  0  0  0  0  0  0  0  0
   57.9394   25.3681   46.5678 H   0  0  0  0  0  0  0  0  0  0  0  0
   55.8934   25.9898   44.9968 H   0  0  0  0  0  0  0  0  0  0  0  0
   55.2182   26.6953   46.5103 H   0  0  0  0  0  0  0  0  0  0  0  0
   58.4196   28.9329   43.9167 H   0  0  0  0  0  0  0  0  0  0  0  0
   57.1014   28.1693   42.9443 H   0  0  0  0  0  0  0  0  0  0  0  0
   57.8814   35.3751   45.3888 H   0  0  0  0  0  0  0  0  0  0  0  0
   59.4066   35.9620   47.2905 H   0  0  0  0  0  0  0  0  0  0  0  0
   61.3300   35.2750   48.7410 H   0  0  0  0  0  0  0  0  0  0  0  0
   59.3081   34.3440   51.8669 H   0  0  0  0  0  0  0  0  0  0  0  0
   57.1877   33.3810   52.7689 H   0  0  0  0  0  0  0  0  0  0  0  0
   57.8083   29.8038   50.4122 H   0  0  0  0  0  0  0  0  0  0  0  0
   59.9250   30.7652   49.4998 H   0  0  0  0  0  0  0  0  0  0  0  0
   60.6825   31.8064   47.5575 H   0  0  0  0  0  0  0  0  0  0  0  0
   59.2856   26.4590   44.9901 H   0  0  0  0  0  0  0  0  0  0  0  0
   61.4880   26.5354   46.1577 H   0  0  0  0  0  0  0  0  0  0  0  0
   61.7219   27.7875   48.3071 H   0  0  0  0  0  0  0  0  0  0  0  0
   59.7504   28.9640   49.2877 H   0  0  0  0  0  0  0  0  0  0  0  0
   57.5419   28.8897   48.1267 H   0  0  0  0  0  0  0  0  0  0  0  0
  1  2  1  0
  2  3  1  0
  3  4  1  0
  4  5  2  0
  4  6  1  0
  6  7  1  0
  7  8  1  0
  8  9  2  0
  9 10  1  0
 10 11  2  0
 11 12  1  0
 12 13  2  0
 13 14  1  0
 14 15  1  0
 15 16  2  0
 15 17  2  0
 15 18  1  0
 18 19  2  0
 19 20  1  0
 20 21  2  0
 21 22  1  0
 21 23  1  0
 23 24  2  0
 13 25  1  0
 25 26  2  0
 26 27  1  0
  3 28  1  0
 28 29  2  0
 29 30  1  0
 30 31  2  0
 31 32  1  0
 32 33  2  0
 27  8  1  0
 33 28  1  0
 26 10  1  0
 24 18  1  0
  1 34  1  0
  1 35  1  0
  1 36  1  0
  2 37  1  0
  2 38  1  0
  6 39  1  0
  6 40  1  0
 11 41  1  0
 12 42  1  0
 14 43  1  0
 19 44  1  0
 20 45  1  0
 23 46  1  0
 24 47  1  0
 25 48  1  0
 29 49  1  0
 30 50  1  0
 31 51  1  0
 32 52  1  0
 33 53  1  0
M  END
>  <UniqueID>  (15) 
14

>  <SMILES>  (15) 
CCN(C(=O)CSc1nc2ccc(NS(=O)(=O)c3ccc(Br)cc3)cc2s1)c1ccccc1

>  <Energy>  (15) 
95.29292763887

>  <Genealogy>  (15) 
CCN(C(=O)CSc1nc2ccc(NS(=O)(=O)c3ccc(Br)cc3)cc2s1)c1ccccc1 (3D coordinates assigned)
CCN(C(=O)CSc1nc2ccc(NS(=O)(=O)c3ccc(Br)cc3)cc2s1)c1ccccc1 (optimized conformer: 95.29292763887 kcal/mol)

>  <smiles>  (15) 
CCN(C(=O)CSc1nc2ccc(NS(=O)(=O)c3ccc(Br)cc3)cc2s1)c1ccccc1

>  <score_type>  (15) 
oracle

>  <origin>  (15) 
adg

>  <m_score__min__energy>  (15) 
-10.460000000000001

>  <m_primary>  (15) 
energy

$$$$
15:0
     RDKit          3D

 69 73  0  0  0  0  0  0  0  0999 V2000
   59.9534   30.4811   47.3059 H   0  0  0  0  0  0  0  0  0  0  0  0
   60.0750   29.5640   47.9010 C   0  0  0  0  0  0  0  0  0  0  0  0
   60.3730   28.3920   47.2830 N   0  0  0  0  0  0  0  0  0  0  0  0
   60.5410   27.2300   47.9730 C   0  0  0  0  0  0  0  0  0  0  0  0
   60.8160   26.1170   47.3560 N   0  0  0  0  0  0  0  0  0  0  0  0
   60.3600   25.7680   46.0100 C   0  0  0  0  0  0  0  0  0  0  0  0
   60.4815   26.6430   45.3545 H   0  0  0  0  0  0  0  0  0  0  0  0
   60.9635   24.9206   45.6528 H   0  0  0  0  0  0  0  0  0  0  0  0
   58.8760   25.3390   46.0020 C   0  0  0  0  0  0  0  0  0  0  0  0
   58.7821   24.4709   45.3329 H   0  0  0  0  0  0  0  0  0  0  0  0
   58.6256   25.1330   47.0531 H   0  0  0  0  0  0  0  0  0  0  0  0
   57.8520   26.4070   45.5360 C   0  0  0  0  0  0  0  0  0  0  0  0
   56.8944   25.8688   45.4780 H   0  0  0  0  0  0  0  0  0  0  0  0
   57.6690   27.5460   46.5660 C   0  0  0  0  0  0  0  0  0  0  0  0
   57.0137   27.1989   47.3785 H   0  0  0  0  0  0  0  0  0  0  0  0
   58.6534   27.8254   46.9696 H   0  0  0  0  0  0  0  0  0  0  0  0
   57.0390   28.7700   45.8970 C   0  0  0  0  0  0  0  0  0  0  0  0
   56.0907   28.4713   45.4263 H   0  0  0  0  0  0  0  0  0  0  0  0
   56.8700   29.5355   46.6687 H   0  0  0  0  0  0  0  0  0  0  0  0
   57.9290   29.3430   44.8630 N   0  0  0  0  0  0  0  0  0  0  0  0
   57.0090   30.3430   43.7640 S   0  0  0  0  0  0  0  0  0  0  0  0
   56.4710   29.4900   42.6490 O   0  0  0  0  0  0  0  0  0  0  0  0
   55.8620   30.9880   44.4890 O   0  0  0  0  0  0  0  0  0  0  0  0
   58.0420   31.6080   43.0540 C   0  0  0  0  0  0  0  0  0  0  0  0
   58.5162   32.1887   43.8589 H   0  0  0  0  0  0  0  0  0  0  0  0
   58.8196   31.1402   42.4323 H   0  0  0  0  0  0  0  0  0  0  0  0
   57.4283   32.2764   42.4323 H   0  0  0  0  0  0  0  0  0  0  0  0
   58.7400   28.3440   44.1210 C   0  0  0  0  0  0  0  0  0  0  0  0
   58.8567   28.6886   43.0829 H   0  0  0  0  0  0  0  0  0  0  0  0
   59.7079   28.2579   44.6365 H   0  0  0  0  0  0  0  0  0  0  0  0
   58.1020   26.9450   44.1040 C   0  0  0  0  0  0  0  0  0  0  0  0
   57.1411   26.9987   43.5714 H   0  0  0  0  0  0  0  0  0  0  0  0
   58.7975   26.2590   43.5984 H   0  0  0  0  0  0  0  0  0  0  0  0
   60.4160   27.2310   49.3630 C   0  0  0  0  0  0  0  0  0  0  0  0
   60.5613   26.3017   49.9333 H   0  0  0  0  0  0  0  0  0  0  0  0
   60.1050   28.4210   50.0240 C   0  0  0  0  0  0  0  0  0  0  0  0
   60.0033   28.4272   51.1193 H   0  0  0  0  0  0  0  0  0  0  0  0
   59.9210   29.6110   49.2990 C   0  0  0  0  0  0  0  0  0  0  0  0
   59.6060   30.8750   50.0140 C   0  0  0  0  0  0  0  0  0  0  0  0
   59.8950   32.0730   49.4070 N   0  0  0  0  0  0  0  0  0  0  0  0
   59.6310   33.2840   49.9860 C   0  0  0  0  0  0  0  0  0  0  0  0
   59.9050   34.4010   49.3790 N   0  0  0  0  0  0  0  0  0  0  0  0
   60.4440   34.4980   48.0220 C   0  0  0  0  0  0  0  0  0  0  0  0
   60.8944   35.4918   47.8822 H   0  0  0  0  0  0  0  0  0  0  0  0
   61.2027   33.7133   47.8852 H   0  0  0  0  0  0  0  0  0  0  0  0
   59.3520   34.3010   47.0010 C   0  0  0  0  0  0  0  0  0  0  0  0
   58.2020   33.5660   47.3340 C   0  0  0  0  0  0  0  0  0  0  0  0
   58.0901   33.1526   48.3472 H   0  0  0  0  0  0  0  0  0  0  0  0
   57.1990   33.3580   46.3820 C   0  0  0  0  0  0  0  0  0  0  0  0
   56.2997   32.7832   46.6481 H   0  0  0  0  0  0  0  0  0  0  0  0
   57.3380   33.8800   45.0920 C   0  0  0  0  0  0  0  0  0  0  0  0
   56.5489   33.7139   44.3439 H   0  0  0  0  0  0  0  0  0  0  0  0
   58.4780   34.6120   44.7530 C   0  0  0  0  0  0  0  0  0  0  0  0
   58.5860   35.0216   43.7378 H   0  0  0  0  0  0  0  0  0  0  0  0
   59.4830   34.8250   45.7030 C   0  0  0  0  0  0  0  0  0  0  0  0
   60.3784   35.4043   45.4334 H   0  0  0  0  0  0  0  0  0  0  0  0
   59.0510   33.2820   51.2490 C   0  0  0  0  0  0  0  0  0  0  0  0
   58.7610   32.1150   51.8860 C   0  0  0  0  0  0  0  0  0  0  0  0
   59.0230   30.8750   51.3060 C   0  0  0  0  0  0  0  0  0  0  0  0
   58.7873   29.9362   51.8287 H   0  0  0  0  0  0  0  0  0  0  0  0
   58.2170   32.3950   53.0830 N   0  0  0  0  0  0  0  0  0  0  0  0
   57.7340   31.4560   54.0900 C   0  0  0  0  0  0  0  0  0  0  0  0
   57.9400   31.8565   55.0936 H   0  0  0  0  0  0  0  0  0  0  0  0
   56.6503   31.3126   53.9678 H   0  0  0  0  0  0  0  0  0  0  0  0
   58.2476   30.4910   53.9678 H   0  0  0  0  0  0  0  0  0  0  0  0
   58.1830   33.7500   53.1400 C   0  0  0  0  0  0  0  0  0  0  0  0
   57.7869   34.3178   53.9948 H   0  0  0  0  0  0  0  0  0  0  0  0
   58.6930   34.3240   52.0230 N   0  0  0  0  0  0  0  0  0  0  0  0
   58.7850   35.3430   51.8150 H   0  0  0  0  0  0  0  0  0  0  0  0
  1  2  1  0
  2  3  1  0
  3  4  1  0
  4  5  2  3
  5  6  1  0
  6  7  1  0
  6  8  1  0
  6  9  1  0
  9 10  1  0
  9 11  1  0
  9 12  1  0
 12 13  1  0
 12 14  1  0
 14 15  1  0
 14 16  1  0
 14 17  1  0
 17 18  1  0
 17 19  1  0
 17 20  1  0
 20 21  1  0
 21 22  2  0
 21 23  2  0
 21 24  1  0
 24 25  1  0
 24 26  1  0
 24 27  1  0
 20 28  1  0
 28 29  1  0
 28 30  1  0
 28 31  1  0
 31 32  1  0
 31 33  1  0
  4 34  1  0
 34 35  1  0
 34 36  2  0
 36 37  1  0
 36 38  1  0
 38 39  1  0
 39 40  1  0
 40 41  1  0
 41 42  2  0
 42 43  1  0
 43 44  1  0
 43 45  1  0
 43 46  1  0
 46 47  2  0
 47 48  1  0
 47 49  1  0
 49 50  1  0
 49 51  2  0
 51 52  1  0
 51 53  1  0
 53 54  1  0
 53 55  2  0
 55 56  1  0
 41 57  1  0
 57 58  2  0
 58 59  1  0
 59 60  1  0
 58 61  1  0
 61 62  1  0
 62 63  1  0
 62 64  1  0
 62 65  1  0
 61 66  1  0
 66 67  1  0
 66 68  2  0
 68 69  1  0
 38  2  2  0
 59 39  2  0
 31 12  1  0
 55 46  1  0
 68 57  1  0
M  CHG  3   3  -1  40  -1  68   1
M  END
>  <UniqueID>  (16) 
15

>  <SMILES>  (16) 
Cn1c[nH+]c2/c(=N/Cc3ccccc3)[n-]c(-c3ccc(=NCCC4CCN(S(C)(=O)=O)CC4)[n-]c3)cc21

>  <Energy>  (16) 
117.91445976600237

>  <Genealogy>  (16) 
Cn1c[nH+]c2c(=NCc3ccccc3)[n-]c(-c3ccc(=NCCC4CCN(S(C)(=O)=O)CC4)[n-]c3)cc21 (protonated)
Cn1c[nH+]c2/c(=N/Cc3ccccc3)[n-]c(-c3ccc(=NCCC4CCN(S(C)(=O)=O)CC4)[n-]c3)cc21 (cis-trans isomerization)
Cn1c[nH+]c2/c(=N/Cc3ccccc3)[n-]c(-c3ccc(=NCCC4CCN(S(C)(=O)=O)CC4)[n-]c3)cc21 (3D coordinates assigned)
Cn1c[nH+]c2/c(=N/Cc3ccccc3)[n-]c(-c3ccc(=NCCC4CCN(S(C)(=O)=O)CC4)[n-]c3)cc21 (nonaromatic ring conformer: 117.91445976600237 kcal/mol)

>  <smiles>  (16) 
Cn1cnc2c(=NCc3ccccc3)[nH]c(-c3ccc(=NCCC4CCN(S(C)(=O)=O)CC4)[nH]c3)cc21

>  <score_type>  (16) 
oracle

>  <origin>  (16) 
adg

>  <m_score__min__energy>  (16) 
-10.9

>  <m_primary>  (16) 
energy

$$$$
16:0
     RDKit          3D

 52 54  0  0  0  0  0  0  0  0999 V2000
   57.0170   29.3300   43.7150 C   0  0  0  0  0  0  0  0  0  0  0  0
   57.7260   29.3840   44.8580 C   0  0  0  0  0  0  0  0  0  0  0  0
   58.1430   30.6550   45.2970 C   0  0  0  0  0  0  0  0  0  0  0  0
   58.6730   30.8460   46.5720 C   0  0  0  0  0  0  0  0  0  0  0  0
   59.0640   32.1380   46.9400 O   0  0  0  0  0  0  0  0  0  0  0  0
   58.7400   33.2760   46.1940 C   0  0  0  0  0  0  0  0  0  0  0  0
   57.5580   33.4720   45.7990 O   0  0  0  0  0  0  0  0  0  0  0  0
   59.8050   34.2790   45.8820 C   0  0  0  0  0  0  0  0  0  0  0  0
   60.9440   34.1590   46.8560 C   0  0  0  0  0  0  0  0  0  0  0  0
   60.7200   34.3280   48.2340 C   0  0  0  0  0  0  0  0  0  0  0  0
   61.7750   34.1890   49.1420 C   0  0  0  0  0  0  0  0  0  0  0  0
   63.0570   33.8730   48.6830 C   0  0  0  0  0  0  0  0  0  0  0  0
   63.2850   33.6910   47.3160 C   0  0  0  0  0  0  0  0  0  0  0  0
   62.2330   33.8270   46.4050 C   0  0  0  0  0  0  0  0  0  0  0  0
   58.7470   29.7630   47.4700 C   0  0  0  0  0  0  0  0  0  0  0  0
   59.1860   29.9460   48.9080 C   0  0  0  0  0  0  0  0  0  0  0  0
   60.6520   30.2880   49.0160 C   0  0  0  0  0  0  0  0  0  0  0  0
   61.3770   30.1930   50.1530 C   0  0  0  0  0  0  0  0  0  0  0  0
   62.6750   30.9490   50.2430 C   0  0  0  0  0  0  0  0  0  0  0  0
   60.9200   29.3560   51.3250 C   0  0  0  0  0  0  0  0  0  0  0  0
   58.4080   28.4790   47.0160 C   0  0  0  0  0  0  0  0  0  0  0  0
   57.9740   28.2470   45.6940 C   0  0  0  0  0  0  0  0  0  0  0  0
   57.8480   26.9490   45.3140 C   0  0  0  0  0  0  0  0  0  0  0  0
   57.2300   25.8610   46.0930 C   0  0  0  0  0  0  0  0  0  0  0  0
   57.9180   24.7960   46.5410 N   0  0  0  0  0  0  0  0  0  0  0  0
   56.9700   24.0340   47.1270 C   0  0  0  0  0  0  0  0  0  0  0  0
   57.2330   22.9380   47.6870 O   0  0  0  0  0  0  0  0  0  0  0  0
   55.7180   24.5330   47.0600 N   0  0  0  0  0  0  0  0  0  0  0  0
   55.8910   25.6840   46.3880 C   0  0  0  0  0  0  0  0  0  0  0  0
   54.8390   26.5200   46.0260 O   0  0  0  0  0  0  0  0  0  0  0  0
   56.6679   28.3607   43.3296 H   0  0  0  0  0  0  0  0  0  0  0  0
   56.7868   30.2552   43.1664 H   0  0  0  0  0  0  0  0  0  0  0  0
   58.0485   31.5161   44.6191 H   0  0  0  0  0  0  0  0  0  0  0  0
   60.1802   34.1033   44.8630 H   0  0  0  0  0  0  0  0  0  0  0  0
   59.3759   35.2889   45.9596 H   0  0  0  0  0  0  0  0  0  0  0  0
   59.7112   34.5705   48.5993 H   0  0  0  0  0  0  0  0  0  0  0  0
   61.5956   34.3285   50.2183 H   0  0  0  0  0  0  0  0  0  0  0  0
   63.8865   33.7675   49.3977 H   0  0  0  0  0  0  0  0  0  0  0  0
   64.2938   33.4403   46.9563 H   0  0  0  0  0  0  0  0  0  0  0  0
   62.4150   33.6735   45.3311 H   0  0  0  0  0  0  0  0  0  0  0  0
   58.5981   30.7599   49.3573 H   0  0  0  0  0  0  0  0  0  0  0  0
   59.0207   28.9951   49.4358 H   0  0  0  0  0  0  0  0  0  0  0  0
   61.1652   30.6382   48.1083 H   0  0  0  0  0  0  0  0  0  0  0  0
   62.9377   31.1020   51.3002 H   0  0  0  0  0  0  0  0  0  0  0  0
   63.4701   30.3727   49.7473 H   0  0  0  0  0  0  0  0  0  0  0  0
   62.5660   31.9249   49.7473 H   0  0  0  0  0  0  0  0  0  0  0  0
   61.1946   29.8589   52.2640 H   0  0  0  0  0  0  0  0  0  0  0  0
   59.8280   29.2303   51.2821 H   0  0  0  0  0  0  0  0  0  0  0  0
   61.4046   28.3695   51.2821 H   0  0  0  0  0  0  0  0  0  0  0  0
   58.4829   27.6295   47.7107 H   0  0  0  0  0  0  0  0  0  0  0  0
   58.2478   26.6828   44.3244 H   0  0  0  0  0  0  0  0  0  0  0  0
   54.7700   27.4700   46.3680 H   0  0  0  0  0  0  0  0  0  0  0  0
  1  2  2  0
  2  3  1  0
  3  4  2  0
  4  5  1  0
  5  6  1  0
  6  7  2  0
  6  8  1  0
  8  9  1  0
  9 10  2  0
 10 11  1  0
 11 12  2  0
 12 13  1  0
 13 14  2  0
  4 15  1  0
 15 16  1  0
 16 17  1  0
 17 18  2  3
 18 19  1  0
 18 20  1  0
 15 21  2  0
 21 22  1  0
 22 23  2  3
 23 24  1  0
 24 25  1  0
 25 26  1  0
 26 27  2  0
 26 28  1  0
 28 29  1  0
 29 30  1  0
 22  2  1  0
 29 24  2  0
 14  9  1  0
  1 31  1  0
  1 32  1  0
  3 33  1  0
  8 34  1  0
  8 35  1  0
 10 36  1  0
 11 37  1  0
 12 38  1  0
 13 39  1  0
 14 40  1  0
 16 41  1  0
 16 42  1  0
 17 43  1  0
 19 44  1  0
 19 45  1  0
 19 46  1  0
 20 47  1  0
 20 48  1  0
 20 49  1  0
 21 50  1  0
 23 51  1  0
 30 52  1  0
M  CHG  2  25  -1  28  -1
M  END
>  <UniqueID>  (17) 
16

>  <SMILES>  (17) 
C=c1cc(OC(=O)Cc2ccccc2)c(CC=C(C)C)cc1=Cc1[n-]c(=O)[n-]c1O

>  <Energy>  (17) 
105.15339261104846

>  <Genealogy>  (17) 
C=c1cc(OC(=O)Cc2ccccc2)c(CC=C(C)C)cc1=Cc1[n-]c(=O)[n-]c1O (protonated)
C=c1cc(OC(=O)Cc2ccccc2)c(CC=C(C)C)cc1=Cc1[n-]c(=O)[n-]c1O (3D coordinates assigned)
C=c1cc(OC(=O)Cc2ccccc2)c(CC=C(C)C)cc1=Cc1[n-]c(=O)[n-]c1O (optimized conformer: 105.15339261104846 kcal/mol)

>  <smiles>  (17) 
C=c1cc(OC(=O)Cc2ccccc2)c(CC=C(C)C)cc1=Cc1[nH]c(=O)[nH]c1O

>  <score_type>  (17) 
oracle

>  <origin>  (17) 
adg

>  <m_score__min__energy>  (17) 
-13.85

>  <m_primary>  (17) 
energy

$$$$
17:0
     RDKit          3D

 36 38  0  0  0  0  0  0  0  0999 V2000
   59.4480   26.8570   48.2410 O   0  0  0  0  0  0  0  0  0  0  0  0
   59.2430   27.8020   47.4340 C   0  0  0  0  0  0  0  0  0  0  0  0
   58.7110   27.5770   46.1750 C   0  0  0  0  0  0  0  0  0  0  0  0
   58.5220   28.6630   45.3600 C   0  0  0  0  0  0  0  0  0  0  0  0
   57.9500   28.4340   44.0020 C   0  0  0  0  0  0  0  0  0  0  0  0
   56.8520   29.7910   43.6750 S   0  0  0  0  0  0  0  0  0  0  0  0
   56.0270   30.0920   44.8870 O   0  0  0  0  0  0  0  0  0  0  0  0
   55.9310   29.3780   42.5620 O   0  0  0  0  0  0  0  0  0  0  0  0
   57.7180   31.2460   43.2070 C   0  0  0  0  0  0  0  0  0  0  0  0
   57.6120   32.2950   44.2580 C   0  0  0  0  0  0  0  0  0  0  0  0
   58.4450   33.4180   44.2510 C   0  0  0  0  0  0  0  0  0  0  0  0
   58.0910   34.1750   45.3410 C   0  0  0  0  0  0  0  0  0  0  0  0
   57.0620   33.4890   45.9670 C   0  0  0  0  0  0  0  0  0  0  0  0
   56.8240   32.3910   45.2840 O   0  0  0  0  0  0  0  0  0  0  0  0
   58.8530   29.9020   45.8040 N   0  0  0  0  0  0  0  0  0  0  0  0
   59.3660   30.1190   47.0190 C   0  0  0  0  0  0  0  0  0  0  0  0
   59.6870   31.4930   47.3910 C   0  0  0  0  0  0  0  0  0  0  0  0
   60.7140   32.2050   46.7570 C   0  0  0  0  0  0  0  0  0  0  0  0
   61.0180   33.5040   47.1070 C   0  0  0  0  0  0  0  0  0  0  0  0
   60.3270   34.1390   48.0850 N   0  0  0  0  0  0  0  0  0  0  0  0
   59.3310   33.4850   48.7140 C   0  0  0  0  0  0  0  0  0  0  0  0
   59.0120   32.1840   48.3770 C   0  0  0  0  0  0  0  0  0  0  0  0
   59.5530   29.0650   47.8170 N   0  0  0  0  0  0  0  0  0  0  0  0
   58.4493   26.5622   45.8408 H   0  0  0  0  0  0  0  0  0  0  0  0
   58.7539   28.4075   43.2516 H   0  0  0  0  0  0  0  0  0  0  0  0
   57.4166   27.4732   43.9543 H   0  0  0  0  0  0  0  0  0  0  0  0
   58.7786   30.9986   43.0522 H   0  0  0  0  0  0  0  0  0  0  0  0
   57.2720   31.6347   42.2796 H   0  0  0  0  0  0  0  0  0  0  0  0
   59.2302   33.6498   43.5163 H   0  0  0  0  0  0  0  0  0  0  0  0
   58.5343   35.1319   45.6538 H   0  0  0  0  0  0  0  0  0  0  0  0
   56.5352   33.8083   46.8783 H   0  0  0  0  0  0  0  0  0  0  0  0
   61.2925   31.7154   45.9598 H   0  0  0  0  0  0  0  0  0  0  0  0
   61.8310   34.0310   46.5862 H   0  0  0  0  0  0  0  0  0  0  0  0
   58.7639   33.9943   49.5071 H   0  0  0  0  0  0  0  0  0  0  0  0
   58.1927   31.6818   48.9123 H   0  0  0  0  0  0  0  0  0  0  0  0
   59.9430   29.1960   48.7510 H   0  0  0  0  0  0  0  0  0  0  0  0
  1  2  2  0
  2  3  1  0
  3  4  2  0
  4  5  1  0
  5  6  1  0
  6  7  2  0
  6  8  2  0
  6  9  1  0
  9 10  1  0
 10 11  2  0
 11 12  1  0
 12 13  2  0
 13 14  1  0
  4 15  1  0
 15 16  2  0
 16 17  1  0
 17 18  2  0
 18 19  1  0
 19 20  2  0
 20 21  1  0
 21 22  2  0
 16 23  1  0
 23  2  1  0
 14 10  1  0
 22 17  1  0
  3 24  1  0
  5 25  1  0
  5 26  1  0
  9 27  1  0
  9 28  1  0
 11 29  1  0
 12 30  1  0
 13 31  1  0
 18 32  1  0
 19 33  1  0
 21 34  1  0
 22 35  1  0
 23 36  1  0
M  END
>  <smiles>  (18) 
O=c1cc(CS(=O)(=O)Cc2ccco2)nc(-c2ccncc2)[nH]1

>  <score_type>  (18) 
oracle

>  <origin>  (18) 
adg

>  <m_score__min__energy>  (18) 
-7.9900000000000002

>  <m_primary>  (18) 
energy

$$$$
18:0
     RDKit          3D

 64 67  0  0  0  0  0  0  0  0999 V2000
   60.2940   28.5810   44.5010 C   0  0  0  0  0  0  0  0  0  0  0  0
   59.0320   27.9070   43.9730 C   0  0  0  0  0  0  0  0  0  0  0  0
   57.8920   28.1610   44.8720 N   0  0  0  0  0  0  0  0  0  0  0  0
   58.2430   28.1930   46.3090 C   0  0  0  0  0  0  0  0  0  0  0  0
   57.5710   27.1060   47.1750 C   0  0  0  0  0  0  0  0  0  0  0  0
   57.0720   25.9830   46.3770 N   0  0  0  0  0  0  0  0  0  0  0  0
   57.7540   24.8730   46.0160 C   0  0  0  0  0  0  0  0  0  0  0  0
   59.0880   24.6430   46.3270 O   0  0  0  0  0  0  0  0  0  0  0  0
   56.9530   23.9960   45.3090 C   0  0  0  0  0  0  0  0  0  0  0  0
   55.7090   24.6020   45.2580 C   0  0  0  0  0  0  0  0  0  0  0  0
   54.5210   24.0910   44.6390 N   0  0  0  0  0  0  0  0  0  0  0  0
   53.1770   24.3320   45.1640 C   0  0  0  0  0  0  0  0  0  0  0  0
   52.5080   23.0230   45.6110 C   0  0  0  0  0  0  0  0  0  0  0  0
   52.9010   22.5910   47.0330 C   0  0  0  0  0  0  0  0  0  0  0  0
   54.3150   22.0730   47.1000 C   0  0  0  0  0  0  0  0  0  0  0  0
   55.1900   22.5370   48.0950 C   0  0  0  0  0  0  0  0  0  0  0  0
   56.5100   22.0750   48.1450 C   0  0  0  0  0  0  0  0  0  0  0  0
   56.9630   21.1500   47.2000 C   0  0  0  0  0  0  0  0  0  0  0  0
   56.1000   20.6860   46.2050 C   0  0  0  0  0  0  0  0  0  0  0  0
   54.7800   21.1460   46.1520 C   0  0  0  0  0  0  0  0  0  0  0  0
   55.8140   25.8040   45.9250 C   0  0  0  0  0  0  0  0  0  0  0  0
   54.7730   26.7040   46.1300 O   0  0  0  0  0  0  0  0  0  0  0  0
   56.8490   29.4820   44.3620 S   0  0  0  0  0  0  0  0  0  0  0  0
   56.5590   29.3300   42.8960 O   0  0  0  0  0  0  0  0  0  0  0  0
   55.5360   29.3960   45.0910 O   0  0  0  0  0  0  0  0  0  0  0  0
   57.5380   31.0910   44.6220 C   0  0  0  0  0  0  0  0  0  0  0  0
   57.7570   31.9540   43.5370 C   0  0  0  0  0  0  0  0  0  0  0  0
   58.3160   33.2190   43.7360 C   0  0  0  0  0  0  0  0  0  0  0  0
   58.6810   33.6340   45.0240 C   0  0  0  0  0  0  0  0  0  0  0  0
   59.2370   34.9040   45.2380 C   0  0  0  0  0  0  0  0  0  0  0  0
   59.6010   35.3030   46.5270 C   0  0  0  0  0  0  0  0  0  0  0  0
   59.4160   34.4380   47.6090 C   0  0  0  0  0  0  0  0  0  0  0  0
   58.8630   33.1700   47.4090 C   0  0  0  0  0  0  0  0  0  0  0  0
   58.4910   32.7590   46.1200 C   0  0  0  0  0  0  0  0  0  0  0  0
   57.9330   31.4890   45.9080 C   0  0  0  0  0  0  0  0  0  0  0  0
   60.2807   28.5739   45.6009 H   0  0  0  0  0  0  0  0  0  0  0  0
   61.1789   28.0354   44.1415 H   0  0  0  0  0  0  0  0  0  0  0  0
   60.3327   29.6199   44.1415 H   0  0  0  0  0  0  0  0  0  0  0  0
   58.8003   28.3056   42.9743 H   0  0  0  0  0  0  0  0  0  0  0  0
   59.2059   26.8222   43.9194 H   0  0  0  0  0  0  0  0  0  0  0  0
   59.3328   28.0714   46.3957 H   0  0  0  0  0  0  0  0  0  0  0  0
   57.8762   29.1571   46.6910 H   0  0  0  0  0  0  0  0  0  0  0  0
   58.3075   26.7254   47.8980 H   0  0  0  0  0  0  0  0  0  0  0  0
   56.7092   27.5663   47.6805 H   0  0  0  0  0  0  0  0  0  0  0  0
   57.2417   23.0254   44.8793 H   0  0  0  0  0  0  0  0  0  0  0  0
   54.6190   23.4870   43.7910 H   0  0  0  0  0  0  0  0  0  0  0  0
   53.2459   25.0116   46.0262 H   0  0  0  0  0  0  0  0  0  0  0  0
   52.5671   24.7776   44.3643 H   0  0  0  0  0  0  0  0  0  0  0  0
   51.4171   23.1597   45.5771 H   0  0  0  0  0  0  0  0  0  0  0  0
   52.8496   22.2333   44.9257 H   0  0  0  0  0  0  0  0  0  0  0  0
   52.8088   23.4572   47.7047 H   0  0  0  0  0  0  0  0  0  0  0  0
   52.2278   21.7758   47.3366 H   0  0  0  0  0  0  0  0  0  0  0  0
   54.8366   23.2667   48.8384 H   0  0  0  0  0  0  0  0  0  0  0  0
   57.1911   22.4398   48.9280 H   0  0  0  0  0  0  0  0  0  0  0  0
   58.0006   20.7871   47.2402 H   0  0  0  0  0  0  0  0  0  0  0  0
   56.4585   19.9581   45.4623 H   0  0  0  0  0  0  0  0  0  0  0  0
   54.1036   20.7807   45.3653 H   0  0  0  0  0  0  0  0  0  0  0  0
   57.4861   31.6316   42.5208 H   0  0  0  0  0  0  0  0  0  0  0  0
   58.4701   33.8913   42.8791 H   0  0  0  0  0  0  0  0  0  0  0  0
   59.3868   35.5875   44.3892 H   0  0  0  0  0  0  0  0  0  0  0  0
   60.0344   36.3008   46.6904 H   0  0  0  0  0  0  0  0  0  0  0  0
   59.7065   34.7561   48.6212 H   0  0  0  0  0  0  0  0  0  0  0  0
   58.7191   32.4929   48.2639 H   0  0  0  0  0  0  0  0  0  0  0  0
   57.8044   30.8006   46.7563 H   0  0  0  0  0  0  0  0  0  0  0  0
  1  2  1  0
  2  3  1  0
  3  4  1  0
  4  5  1  0
  5  6  1  0
  6  7  1  0
  7  8  1  0
  7  9  2  0
  9 10  1  0
 10 11  1  0
 11 12  1  0
 12 13  1  0
 13 14  1  0
 14 15  1  0
 15 16  2  0
 16 17  1  0
 17 18  2  0
 18 19  1  0
 19 20  2  0
 10 21  2  0
 21 22  1  0
  3 23  1  0
 23 24  2  0
 23 25  2  0
 23 26  1  0
 26 27  2  0
 27 28  1  0
 28 29  2  0
 29 30  1  0
 30 31  2  0
 31 32  1  0
 32 33  2  0
 33 34  1  0
 34 35  2  0
 21  6  1  0
 35 26  1  0
 20 15  1  0
 34 29  1  0
  1 36  1  0
  1 37  1  0
  1 38  1  0
  2 39  1  0
  2 40  1  0
  4 41  1  0
  4 42  1  0
  5 43  1  0
  5 44  1  0
  9 45  1  0
 11 46  1  0
 12 47  1  0
 12 48  1  0
 13 49  1  0
 13 50  1  0
 14 51  1  0
 14 52  1  0
 16 53  1  0
 17 54  1  0
 18 55  1  0
 19 56  1  0
 20 57  1  0
 27 58  1  0
 28 59  1  0
 30 60  1  0
 31 61  1  0
 32 62  1  0
 33 63  1  0
 35 64  1  0
M  CHG  2   8  -1  22  -1
M  END
>  <UniqueID>  (19) 
17

>  <SMILES>  (19) 
CCN(CCn1c([O-])cc(NCCCc2ccccc2)c1[O-])S(=O)(=O)c1ccc2ccccc2c1

>  <Energy>  (19) 
95.18640120975533

>  <Genealogy>  (19) 
CCN(CCn1c([O-])cc(NCCCc2ccccc2)c1[O-])S(=O)(=O)c1ccc2ccccc2c1 (protonated)
CCN(CCn1c([O-])cc(NCCCc2ccccc2)c1[O-])S(=O)(=O)c1ccc2ccccc2c1 (3D coordinates assigned)
CCN(CCn1c([O-])cc(NCCCc2ccccc2)c1[O-])S(=O)(=O)c1ccc2ccccc2c1 (optimized conformer: 95.18640120975533 kcal/mol)

>  <smiles>  (19) 
CCN(CCn1c(O)cc(NCCCc2ccccc2)c1O)S(=O)(=O)c1ccc2ccccc2c1

>  <score_type>  (19) 
oracle

>  <origin>  (19) 
adg

>  <m_score__min__energy>  (19) 
-14.710000000000001

>  <m_primary>  (19) 
energy

$$$$
19:0
     RDKit          3D

 54 57  0  0  0  0  0  0  0  0999 V2000
   57.0280   31.1830   44.3870 C   0  0  0  0  0  0  0  0  0  0  0  0
   57.0770   32.2350   45.3260 O   0  0  0  0  0  0  0  0  0  0  0  0
   57.4210   33.4500   44.6860 C   0  0  0  0  0  0  0  0  0  0  0  0
   57.8520   34.5170   45.7100 C   0  0  0  0  0  0  0  0  0  0  0  0
   59.0550   34.0920   46.4950 C   0  0  0  0  0  0  0  0  0  0  0  0
   59.3100   34.5080   47.7520 N   0  0  0  0  0  0  0  0  0  0  0  0
   60.4070   33.9000   48.0870 O   0  0  0  0  0  0  0  0  0  0  0  0
   60.8080   33.1410   47.0970 C   0  0  0  0  0  0  0  0  0  0  0  0
   62.0410   32.2930   47.1350 C   0  0  0  0  0  0  0  0  0  0  0  0
   61.7150   30.9190   47.5760 N   0  0  0  0  0  0  0  0  0  0  0  0
   60.4130   30.4700   47.0080 C   0  0  0  0  0  0  0  0  0  0  0  0
   60.5940   29.2330   46.1180 C   0  0  0  0  0  0  0  0  0  0  0  0
   59.5000   28.2240   46.3410 C   0  0  0  0  0  0  0  0  0  0  0  0
   59.7650   27.0250   47.0530 C   0  0  0  0  0  0  0  0  0  0  0  0
   58.7520   26.0670   47.2460 C   0  0  0  0  0  0  0  0  0  0  0  0
   57.4950   26.3380   46.7160 C   0  0  0  0  0  0  0  0  0  0  0  0
   56.3990   25.5680   46.7720 N   0  0  0  0  0  0  0  0  0  0  0  0
   55.4930   26.3160   46.0930 C   0  0  0  0  0  0  0  0  0  0  0  0
   54.3060   25.9380   45.9120 O   0  0  0  0  0  0  0  0  0  0  0  0
   55.9570   27.5010   45.6210 N   0  0  0  0  0  0  0  0  0  0  0  0
   57.2330   27.4850   46.0310 C   0  0  0  0  0  0  0  0  0  0  0  0
   58.2080   28.4540   45.8130 C   0  0  0  0  0  0  0  0  0  0  0  0
   61.7160   30.8520   49.0570 C   0  0  0  0  0  0  0  0  0  0  0  0
   60.3130   30.8260   49.5940 C   0  0  0  0  0  0  0  0  0  0  0  0
   59.4850   31.8860   49.5270 N   0  0  0  0  0  0  0  0  0  0  0  0
   58.3480   31.4980   50.1330 C   0  0  0  0  0  0  0  0  0  0  0  0
   58.4980   30.1960   50.5620 C   0  0  0  0  0  0  0  0  0  0  0  0
   59.7300   29.7750   50.2150 N   0  0  0  0  0  0  0  0  0  0  0  0
   60.3040   28.4630   50.5050 C   0  0  0  0  0  0  0  0  0  0  0  0
   59.9760   33.2160   46.0410 N   0  0  0  0  0  0  0  0  0  0  0  0
   56.9832   30.2202   44.9171 H   0  0  0  0  0  0  0  0  0  0  0  0
   56.1342   31.2961   43.7559 H   0  0  0  0  0  0  0  0  0  0  0  0
   57.9285   31.2125   43.7559 H   0  0  0  0  0  0  0  0  0  0  0  0
   58.2517   33.2656   43.9889 H   0  0  0  0  0  0  0  0  0  0  0  0
   56.5372   33.8218   44.1469 H   0  0  0  0  0  0  0  0  0  0  0  0
   58.0892   35.4477   45.1738 H   0  0  0  0  0  0  0  0  0  0  0  0
   57.0214   34.6634   46.4162 H   0  0  0  0  0  0  0  0  0  0  0  0
   62.4841   32.2541   46.1289 H   0  0  0  0  0  0  0  0  0  0  0  0
   62.7530   32.7345   47.8478 H   0  0  0  0  0  0  0  0  0  0  0  0
   59.7281   30.2221   47.8323 H   0  0  0  0  0  0  0  0  0  0  0  0
   60.0011   31.2843   46.3938 H   0  0  0  0  0  0  0  0  0  0  0  0
   60.5804   29.5469   45.0638 H   0  0  0  0  0  0  0  0  0  0  0  0
   61.5539   28.7617   46.3758 H   0  0  0  0  0  0  0  0  0  0  0  0
   60.7715   26.8428   47.4577 H   0  0  0  0  0  0  0  0  0  0  0  0
   58.9479   25.1355   47.7973 H   0  0  0  0  0  0  0  0  0  0  0  0
   57.9810   29.3700   45.2478 H   0  0  0  0  0  0  0  0  0  0  0  0
   62.2405   29.9392   49.3758 H   0  0  0  0  0  0  0  0  0  0  0  0
   62.2255   31.7448   49.4486 H   0  0  0  0  0  0  0  0  0  0  0  0
   59.6820   32.8180   49.1000 H   0  0  0  0  0  0  0  0  0  0  0  0
   57.4481   32.1168   50.2644 H   0  0  0  0  0  0  0  0  0  0  0  0
   57.7413   29.6026   51.0961 H   0  0  0  0  0  0  0  0  0  0  0  0
   60.3655   28.3223   51.5942 H   0  0  0  0  0  0  0  0  0  0  0  0
   59.6665   27.6795   50.0695 H   0  0  0  0  0  0  0  0  0  0  0  0
   61.3121   28.3995   50.0695 H   0  0  0  0  0  0  0  0  0  0  0  0
  1  2  1  0
  2  3  1  0
  3  4  1  0
  4  5  1  0
  5  6  2  0
  6  7  1  0
  7  8  1  0
  8  9  1  0
  9 10  1  0
 10 11  1  0
 11 12  1  0
 12 13  1  0
 13 14  2  0
 14 15  1  0
 15 16  2  0
 16 17  1  0
 17 18  1  0
 18 19  2  0
 18 20  1  0
 20 21  1  0
 21 22  2  0
 10 23  1  0
 23 24  1  0
 24 25  2  0
 25 26  1  0
 26 27  2  0
 27 28  1  0
 28 29  1  0
  8 30  2  0
 30  5  1  0
 22 13  1  0
 28 24  1  0
 21 16  1  0
  1 31  1  0
  1 32  1  0
  1 33  1  0
  3 34  1  0
  3 35  1  0
  4 36  1  0
  4 37  1  0
  9 38  1  0
  9 39  1  0
 11 40  1  0
 11 41  1  0
 12 42  1  0
 12 43  1  0
 14 44  1  0
 15 45  1  0
 22 46  1  0
 23 47  1  0
 23 48  1  0
 25 49  1  0
 26 50  1  0
 27 51  1  0
 29 52  1  0
 29 53  1  0
 29 54  1  0
M  CHG  3  17  -1  20  -1  25   1
M  END
>  <UniqueID>  (20) 
18

>  <SMILES>  (20) 
COCCc1noc(CN(CCc2ccc3[n-]c(=O)[n-]c3c2)Cc2[nH+]ccn2C)n1

>  <Energy>  (20) 
151.07679136864905

>  <Genealogy>  (20) 
COCCc1noc(CN(CCc2ccc3[n-]c(=O)[n-]c3c2)Cc2[nH+]ccn2C)n1 (protonated)
COCCc1noc(CN(CCc2ccc3[n-]c(=O)[n-]c3c2)Cc2[nH+]ccn2C)n1 (3D coordinates assigned)
COCCc1noc(CN(CCc2ccc3[n-]c(=O)[n-]c3c2)Cc2[nH+]ccn2C)n1 (optimized conformer: 151.07679136864905 kcal/mol)

>  <smiles>  (20) 
COCCc1noc(CN(CCc2ccc3[nH]c(=O)[nH]c3c2)Cc2nccn2C)n1

>  <score_type>  (20) 
oracle

>  <origin>  (20) 
adg

>  <m_score__min__energy>  (20) 
-10.08

>  <m_primary>  (20) 
energy

$$$$
20:0
     RDKit          3D

 40 41  0  0  0  0  0  0  0  0999 V2000
   54.5410   24.8490   44.3760 H   0  0  0  0  0  0  0  0  0  0  0  0
   55.4870   24.4950   44.4530 O   0  0  0  0  0  0  0  0  0  0  0  0
   56.4560   25.1600   45.2050 C   0  0  0  0  0  0  0  0  0  0  0  0
   57.7860   24.7220   45.1960 C   0  0  0  0  0  0  0  0  0  0  0  0
   58.0710   23.8472   44.5930 H   0  0  0  0  0  0  0  0  0  0  0  0
   58.7530   25.3930   45.9510 C   0  0  0  0  0  0  0  0  0  0  0  0
   59.7944   25.0388   45.9481 H   0  0  0  0  0  0  0  0  0  0  0  0
   58.3980   26.5180   46.7130 C   0  0  0  0  0  0  0  0  0  0  0  0
   59.4270   27.2170   47.5530 C   0  0  0  0  0  0  0  0  0  0  0  0
   60.4195   26.7881   47.3506 H   0  0  0  0  0  0  0  0  0  0  0  0
   59.1836   27.0868   48.6178 H   0  0  0  0  0  0  0  0  0  0  0  0
   59.4340   28.6370   47.2240 N   0  0  0  0  0  0  0  0  0  0  0  0
   59.3080   29.1580   45.8960 C   0  0  0  0  0  0  0  0  0  0  0  0
   59.8320   28.5290   44.9400 O   0  0  0  0  0  0  0  0  0  0  0  0
   58.6130   30.4310   45.6240 C   0  0  0  0  0  0  0  0  0  0  0  0
   59.2750   31.6460   45.8280 C   0  0  0  0  0  0  0  0  0  0  0  0
   60.3153   31.6455   46.1854 H   0  0  0  0  0  0  0  0  0  0  0  0
   58.6430   32.8340   45.5880 N   0  0  0  0  0  0  0  0  0  0  0  0
   59.3740   34.0920   45.8020 C   0  0  0  0  0  0  0  0  0  0  0  0
   60.4523   33.9100   45.6834 H   0  0  0  0  0  0  0  0  0  0  0  0
   59.0343   34.8338   45.0643 H   0  0  0  0  0  0  0  0  0  0  0  0
   59.1080   34.6210   47.1890 C   0  0  0  0  0  0  0  0  0  0  0  0
   58.7763   35.6645   47.2940 H   0  0  0  0  0  0  0  0  0  0  0  0
   59.2550   33.8840   48.3040 C   0  0  0  0  0  0  0  0  0  0  0  0
   58.3516   33.4601   48.7667 H   0  0  0  0  0  0  0  0  0  0  0  0
   60.5850   33.6040   48.9580 C   0  0  0  0  0  0  0  0  0  0  0  0
   61.1511   34.5438   49.0375 H   0  0  0  0  0  0  0  0  0  0  0  0
   60.4009   33.1777   49.9552 H   0  0  0  0  0  0  0  0  0  0  0  0
   61.3620   32.6440   48.1800 N   0  0  0  0  0  0  0  0  0  0  0  0
   62.4190   32.9840   47.5550 C   0  0  0  0  0  0  0  0  0  0  0  0
   63.7550   33.4140   46.7670 S   0  0  0  0  0  0  0  0  0  0  0  0
   57.3600   32.8350   45.1010 C   0  0  0  0  0  0  0  0  0  0  0  0
   56.7670   33.9190   44.8480 O   0  0  0  0  0  0  0  0  0  0  0  0
   56.7130   31.6620   44.8760 N   0  0  0  0  0  0  0  0  0  0  0  0
   57.3060   30.4670   45.1210 C   0  0  0  0  0  0  0  0  0  0  0  0
   56.6810   29.4030   44.8710 O   0  0  0  0  0  0  0  0  0  0  0  0
   57.0610   26.9450   46.7310 C   0  0  0  0  0  0  0  0  0  0  0  0
   56.7714   27.8125   47.3421 H   0  0  0  0  0  0  0  0  0  0  0  0
   56.0950   26.2720   45.9750 C   0  0  0  0  0  0  0  0  0  0  0  0
   54.7760   26.7090   45.9950 O   0  0  0  0  0  0  0  0  0  0  0  0
  1  2  1  0
  2  3  1  0
  3  4  2  0
  4  5  1  0
  4  6  1  0
  6  7  1  0
  6  8  2  0
  8  9  1  0
  9 10  1  0
  9 11  1  0
  9 12  1  0
 12 13  1  0
 13 14  2  0
 13 15  1  0
 15 16  2  0
 16 17  1  0
 16 18  1  0
 18 19  1  0
 19 20  1  0
 19 21  1  0
 19 22  1  0
 22 23  1  0
 22 24  2  0
 24 25  1  0
 24 26  1  0
 26 27  1  0
 26 28  1  0
 26 29  1  0
 29 30  2  0
 30 31  2  0
 18 32  1  0
 32 33  2  0
 32 34  1  0
 34 35  1  0
 35 36  2  0
  8 37  1  0
 37 38  1  0
 37 39  2  0
 39 40  1  0
 39  3  1  0
 35 15  1  0
M  CHG  3  12  -1  34  -1  40  -1
M  END
>  <UniqueID>  (21) 
19

>  <SMILES>  (21) 
O=C([N-]Cc1ccc(O)c([O-])c1)c1cn(C/C=C\CN=C=S)c(=O)[n-]c1=O

>  <Energy>  (21) 
43.31452054813367

>  <Genealogy>  (21) 
O=C([N-]Cc1ccc(O)c([O-])c1)c1cn(CC=CCN=C=S)c(=O)[n-]c1=O (protonated)
O=C([N-]Cc1ccc(O)c([O-])c1)c1cn(C/C=C\CN=C=S)c(=O)[n-]c1=O (cis-trans isomerization)
O=C([N-]Cc1ccc(O)c([O-])c1)c1cn(C/C=C\CN=C=S)c(=O)[n-]c1=O (3D coordinates assigned)
O=C([N-]Cc1ccc(O)c([O-])c1)c1cn(C/C=C\CN=C=S)c(=O)[n-]c1=O (optimized conformer: 43.31452054813367 kcal/mol)

>  <smiles>  (21) 
O=C(NCc1ccc(O)c(O)c1)c1cn(CC=CCN=C=S)c(=O)[nH]c1=O

>  <score_type>  (21) 
oracle

>  <origin>  (21) 
adg

>  <m_score__min__energy>  (21) 
-13.34

>  <m_primary>  (21) 
energy

$$$$
21:0
     RDKit          3D

 64 67  0  0  0  0  0  0  0  0999 V2000
   58.3270   22.2080   44.1570 C   0  0  0  0  0  0  0  0  0  0  0  0
   56.8200   23.1100   43.8640 S   0  0  0  0  0  0  0  0  0  0  0  0
   55.8740   22.2490   43.0750 O   0  0  0  0  0  0  0  0  0  0  0  0
   57.1210   24.3590   43.0800 O   0  0  0  0  0  0  0  0  0  0  0  0
   56.0460   23.5590   45.4170 C   0  0  0  0  0  0  0  0  0  0  0  0
   56.0110   25.0490   45.6270 C   0  0  0  0  0  0  0  0  0  0  0  0
   54.9140   25.6180   45.8850 O   0  0  0  0  0  0  0  0  0  0  0  0
   57.2270   25.8150   45.6390 N   0  0  0  0  0  0  0  0  0  0  0  0
   58.4710   25.2300   46.1710 C   0  0  0  0  0  0  0  0  0  0  0  0
   59.4510   26.3210   46.6340 C   0  0  0  0  0  0  0  0  0  0  0  0
   58.6800   27.4530   47.3470 C   0  0  0  0  0  0  0  0  0  0  0  0
   59.6070   28.4740   47.9710 C   0  0  0  0  0  0  0  0  0  0  0  0
   60.0300   28.2680   49.2460 N   0  0  0  0  0  0  0  0  0  0  0  0
   60.8480   29.1420   49.8800 C   0  0  0  0  0  0  0  0  0  0  0  0
   61.2480   30.3050   49.2240 C   0  0  0  0  0  0  0  0  0  0  0  0
   62.0840   31.2920   49.9200 C   0  0  0  0  0  0  0  0  0  0  0  0
   62.0370   31.3550   51.1750 O   0  0  0  0  0  0  0  0  0  0  0  0
   62.9360   32.1940   49.2040 N   0  0  0  0  0  0  0  0  0  0  0  0
   62.4030   33.2720   47.9560 S   0  0  0  0  0  0  0  0  0  0  0  0
   63.5160   34.2370   47.6520 O   0  0  0  0  0  0  0  0  0  0  0  0
   62.0920   32.4930   46.7090 O   0  0  0  0  0  0  0  0  0  0  0  0
   60.9440   34.1650   48.4890 C   0  0  0  0  0  0  0  0  0  0  0  0
   59.8170   33.2560   48.9660 C   0  0  0  0  0  0  0  0  0  0  0  0
   58.9470   33.7360   47.8110 C   0  0  0  0  0  0  0  0  0  0  0  0
   60.0750   34.6420   47.3320 C   0  0  0  0  0  0  0  0  0  0  0  0
   60.8620   30.5140   47.9370 N   0  0  0  0  0  0  0  0  0  0  0  0
   60.0590   29.6200   47.2810 C   0  0  0  0  0  0  0  0  0  0  0  0
   59.6940   29.8110   45.9350 O   0  0  0  0  0  0  0  0  0  0  0  0
   58.8860   30.8790   45.4450 C   0  0  0  0  0  0  0  0  0  0  0  0
   58.2230   30.4750   44.1220 C   0  0  0  0  0  0  0  0  0  0  0  0
   57.5100   31.5850   43.3620 C   0  0  0  0  0  0  0  0  0  0  0  0
   56.7050   30.5520   44.1340 C   0  0  0  0  0  0  0  0  0  0  0  0
   57.6080   28.1150   46.4370 C   0  0  0  0  0  0  0  0  0  0  0  0
   57.2150   27.2290   45.2460 C   0  0  0  0  0  0  0  0  0  0  0  0
   58.4909   22.1099   45.2403 H   0  0  0  0  0  0  0  0  0  0  0  0
   58.2493   21.2078   43.7059 H   0  0  0  0  0  0  0  0  0  0  0  0
   59.1718   22.7491   43.7059 H   0  0  0  0  0  0  0  0  0  0  0  0
   55.0146   23.1766   45.4220 H   0  0  0  0  0  0  0  0  0  0  0  0
   56.6414   23.1181   46.2301 H   0  0  0  0  0  0  0  0  0  0  0  0
   58.2252   24.5834   47.0262 H   0  0  0  0  0  0  0  0  0  0  0  0
   58.9517   24.6506   45.3690 H   0  0  0  0  0  0  0  0  0  0  0  0
   60.1818   25.8832   47.3299 H   0  0  0  0  0  0  0  0  0  0  0  0
   59.9724   26.7344   45.7581 H   0  0  0  0  0  0  0  0  0  0  0  0
   58.1315   26.9755   48.1723 H   0  0  0  0  0  0  0  0  0  0  0  0
   61.1936   28.9357   50.9037 H   0  0  0  0  0  0  0  0  0  0  0  0
   61.4029   34.8891   49.1782 H   0  0  0  0  0  0  0  0  0  0  0  0
   60.0590   32.1835   48.9313 H   0  0  0  0  0  0  0  0  0  0  0  0
   59.4522   33.3158   50.0020 H   0  0  0  0  0  0  0  0  0  0  0  0
   58.6732   32.9452   47.0971 H   0  0  0  0  0  0  0  0  0  0  0  0
   57.9464   34.1500   48.0043 H   0  0  0  0  0  0  0  0  0  0  0  0
   60.4682   34.3832   46.3378 H   0  0  0  0  0  0  0  0  0  0  0  0
   59.8986   35.7160   47.1724 H   0  0  0  0  0  0  0  0  0  0  0  0
   61.1860   31.3840   47.4620 H   0  0  0  0  0  0  0  0  0  0  0  0
   58.1071   31.1149   46.1850 H   0  0  0  0  0  0  0  0  0  0  0  0
   59.5205   31.7613   45.2748 H   0  0  0  0  0  0  0  0  0  0  0  0
   58.9741   29.7179   43.8526 H   0  0  0  0  0  0  0  0  0  0  0  0
   57.5646   32.6224   43.7237 H   0  0  0  0  0  0  0  0  0  0  0  0
   57.5190   31.9469   42.3233 H   0  0  0  0  0  0  0  0  0  0  0  0
   56.1766   30.8424   45.0540 H   0  0  0  0  0  0  0  0  0  0  0  0
   55.8896   29.8572   43.8844 H   0  0  0  0  0  0  0  0  0  0  0  0
   56.7094   28.3145   47.0392 H   0  0  0  0  0  0  0  0  0  0  0  0
   58.0405   29.0425   46.0336 H   0  0  0  0  0  0  0  0  0  0  0  0
   56.2050   27.5032   44.9071 H   0  0  0  0  0  0  0  0  0  0  0  0
   57.9390   27.3809   44.4319 H   0  0  0  0  0  0  0  0  0  0  0  0
  1  2  1  0
  2  3  2  0
  2  4  2  0
  2  5  1  0
  5  6  1  0
  6  7  2  0
  6  8  1  0
  8  9  1  0
  9 10  1  0
 10 11  1  0
 11 12  1  0
 12 13  2  0
 13 14  1  0
 14 15  2  0
 15 16  1  0
 16 17  2  0
 16 18  1  0
 18 19  1  0
 19 20  2  0
 19 21  2  0
 19 22  1  0
 22 23  1  0
 23 24  1  0
 24 25  1  0
 15 26  1  0
 26 27  2  0
 27 28  1  0
 28 29  1  0
 29 30  1  0
 30 31  1  0
 31 32  1  0
 11 33  1  0
 33 34  1  0
 34  8  1  0
 27 12  1  0
 32 30  1  0
 25 22  1  0
  1 35  1  0
  1 36  1  0
  1 37  1  0
  5 38  1  0
  5 39  1  0
  9 40  1  0
  9 41  1  0
 10 42  1  0
 10 43  1  0
 11 44  1  0
 14 45  1  0
 22 46  1  0
 23 47  1  0
 23 48  1  0
 24 49  1  0
 24 50  1  0
 25 51  1  0
 25 52  1  0
 26 53  1  0
 29 54  1  0
 29 55  1  0
 30 56  1  0
 31 57  1  0
 31 58  1  0
 32 59  1  0
 32 60  1  0
 33 61  1  0
 33 62  1  0
 34 63  1  0
 34 64  1  0
M  CHG  2  18  -1  26   1
M  END
>  <UniqueID>  (22) 
20

>  <SMILES>  (22) 
CS(=O)(=O)CC(=O)N1CCC(c2ncc(C(=O)[N-]S(=O)(=O)C3CCC3)[nH+]c2OCC2CC2)CC1

>  <Energy>  (22) 
390.8503078752349

>  <Genealogy>  (22) 
CS(=O)(=O)CC(=O)N1CCC(c2ncc(C(=O)[N-]S(=O)(=O)C3CCC3)[nH+]c2OCC2CC2)CC1 (protonated)
CS(=O)(=O)CC(=O)N1CCC(c2ncc(C(=O)[N-]S(=O)(=O)C3CCC3)[nH+]c2OCC2CC2)CC1 (3D coordinates assigned)
CS(=O)(=O)CC(=O)N1CCC(c2ncc(C(=O)[N-]S(=O)(=O)C3CCC3)[nH+]c2OCC2CC2)CC1 (nonaromatic ring conformer: 390.8503078752349 kcal/mol)

>  <smiles>  (22) 
CS(=O)(=O)CC(=O)N1CCC(c2ncc(C(=O)NS(=O)(=O)C3CCC3)nc2OCC2CC2)CC1

>  <score_type>  (22) 
oracle

>  <origin>  (22) 
adg

>  <m_score__min__energy>  (22) 
-8.5099999999999998

>  <m_primary>  (22) 
energy

$$$$
22:0
     RDKit          3D

 50 53  0  0  0  0  0  0  0  0999 V2000
   54.9870   26.2590   45.4930 H   0  0  0  0  0  0  0  0  0  0  0  0
   54.0040   25.9380   45.6360 N   0  0  0  0  0  0  0  0  0  0  0  0
   53.9770   24.2320   45.3620 S   0  0  0  0  0  0  0  0  0  0  0  0
   53.5130   23.5440   46.6150 O   0  0  0  0  0  0  0  0  0  0  0  0
   53.0130   23.9110   44.2540 O   0  0  0  0  0  0  0  0  0  0  0  0
   55.5970   23.6740   44.9250 C   0  0  0  0  0  0  0  0  0  0  0  0
   55.7460   22.6780   43.9460 C   0  0  0  0  0  0  0  0  0  0  0  0
   54.8560   22.2559   43.4564 H   0  0  0  0  0  0  0  0  0  0  0  0
   57.0160   22.2200   43.5900 C   0  0  0  0  0  0  0  0  0  0  0  0
   57.1245   21.4476   42.8144 H   0  0  0  0  0  0  0  0  0  0  0  0
   58.1480   22.7420   44.2180 C   0  0  0  0  0  0  0  0  0  0  0  0
   59.1475   22.3754   43.9414 H   0  0  0  0  0  0  0  0  0  0  0  0
   58.0140   23.7280   45.1960 C   0  0  0  0  0  0  0  0  0  0  0  0
   58.9086   24.1227   45.6998 H   0  0  0  0  0  0  0  0  0  0  0  0
   56.7400   24.2220   45.5430 C   0  0  0  0  0  0  0  0  0  0  0  0
   56.5830   25.2110   46.5770 N   0  0  0  0  0  0  0  0  0  0  0  0
   57.2080   26.3470   46.6680 C   0  0  0  0  0  0  0  0  0  0  0  0
   56.7680   27.4510   46.0090 N   0  0  0  0  0  0  0  0  0  0  0  0
   57.4230   28.6360   46.1340 C   0  0  0  0  0  0  0  0  0  0  0  0
   57.0200   29.6920   45.4950 N   0  0  0  0  0  0  0  0  0  0  0  0
   57.8490   30.4400   44.5520 C   0  0  0  0  0  0  0  0  0  0  0  0
   58.8498   29.9860   44.5036 H   0  0  0  0  0  0  0  0  0  0  0  0
   57.3851   30.4129   43.5550 H   0  0  0  0  0  0  0  0  0  0  0  0
   57.9680   31.8690   45.0110 C   0  0  0  0  0  0  0  0  0  0  0  0
   57.7450   32.9090   44.0910 C   0  0  0  0  0  0  0  0  0  0  0  0
   57.4917   32.6686   43.0479 H   0  0  0  0  0  0  0  0  0  0  0  0
   57.8420   34.2440   44.4890 C   0  0  0  0  0  0  0  0  0  0  0  0
   57.6691   35.0491   43.7596 H   0  0  0  0  0  0  0  0  0  0  0  0
   58.1580   34.5570   45.8110 C   0  0  0  0  0  0  0  0  0  0  0  0
   58.2402   35.6090   46.1219 H   0  0  0  0  0  0  0  0  0  0  0  0
   58.3700   33.5370   46.7400 C   0  0  0  0  0  0  0  0  0  0  0  0
   58.6152   33.7904   47.7820 H   0  0  0  0  0  0  0  0  0  0  0  0
   58.2730   32.1930   46.3560 C   0  0  0  0  0  0  0  0  0  0  0  0
   58.4800   31.2140   47.3300 O   0  0  0  0  0  0  0  0  0  0  0  0
   58.1470   30.2630   47.2400 H   0  0  0  0  0  0  0  0  0  0  0  0
   58.5160   28.7150   46.9330 N   0  0  0  0  0  0  0  0  0  0  0  0
   58.9530   27.6250   47.6140 C   0  0  0  0  0  0  0  0  0  0  0  0
   60.0140   27.7250   48.3600 N   0  0  0  0  0  0  0  0  0  0  0  0
   60.6820   28.9370   48.7510 C   0  0  0  0  0  0  0  0  0  0  0  0
   61.0650   29.9160   47.8130 C   0  0  0  0  0  0  0  0  0  0  0  0
   60.8279   29.7770   46.7479 H   0  0  0  0  0  0  0  0  0  0  0  0
   61.7450   31.0630   48.2310 C   0  0  0  0  0  0  0  0  0  0  0  0
   62.0290   31.8311   47.4966 H   0  0  0  0  0  0  0  0  0  0  0  0
   62.0650   31.2360   49.5810 C   0  0  0  0  0  0  0  0  0  0  0  0
   62.5912   32.1442   49.9100 H   0  0  0  0  0  0  0  0  0  0  0  0
   61.7160   30.2550   50.5110 C   0  0  0  0  0  0  0  0  0  0  0  0
   61.9761   30.3870   51.5716 H   0  0  0  0  0  0  0  0  0  0  0  0
   61.0360   29.1040   50.0970 C   0  0  0  0  0  0  0  0  0  0  0  0
   60.7781   28.3267   50.8313 H   0  0  0  0  0  0  0  0  0  0  0  0
   58.2980   26.4410   47.4700 N   0  0  0  0  0  0  0  0  0  0  0  0
  1  2  1  0
  2  3  1  0
  3  4  2  0
  3  5  2  0
  3  6  1  0
  6  7  2  0
  7  8  1  0
  7  9  1  0
  9 10  1  0
  9 11  2  0
 11 12  1  0
 11 13  1  0
 13 14  1  0
 13 15  2  0
 15 16  1  0
 16 17  2  3
 17 18  1  0
 18 19  1  0
 19 20  2  3
 20 21  1  0
 21 22  1  0
 21 23  1  0
 21 24  1  0
 24 25  2  0
 25 26  1  0
 25 27  1  0
 27 28  1  0
 27 29  2  0
 29 30  1  0
 29 31  1  0
 31 32  1  0
 31 33  2  0
 33 34  1  0
 34 35  1  0
 19 36  1  0
 36 37  1  0
 37 38  2  0
 38 39  1  0
 39 40  2  0
 40 41  1  0
 40 42  1  0
 42 43  1  0
 42 44  2  0
 44 45  1  0
 44 46  1  0
 46 47  1  0
 46 48  2  0
 48 49  1  0
 37 50  1  0
 15  6  1  0
 50 17  1  0
 33 24  1  0
 48 39  1  0
M  CHG  4   2  -1  18  -1  36  -1  50  -1
M  END
>  <UniqueID>  (23) 
21

>  <SMILES>  (23) 
[NH-]S(=O)(=O)c1ccccc1N=c1[n-]c(=NCc2ccccc2O)[n-]/c(=N/c2ccccc2)[n-]1

>  <Energy>  (23) 
68.02264883025867

>  <Genealogy>  (23) 
[NH-]S(=O)(=O)c1ccccc1N=c1[n-]c(=NCc2ccccc2O)[n-]c(=Nc2ccccc2)[n-]1 (protonated)
[NH-]S(=O)(=O)c1ccccc1N=c1[n-]c(=NCc2ccccc2O)[n-]/c(=N/c2ccccc2)[n-]1 (cis-trans isomerization)
[NH-]S(=O)(=O)c1ccccc1N=c1[n-]c(=NCc2ccccc2O)[n-]/c(=N/c2ccccc2)[n-]1 (3D coordinates assigned)
[NH-]S(=O)(=O)c1ccccc1N=c1[n-]c(=NCc2ccccc2O)[n-]/c(=N/c2ccccc2)[n-]1 (optimized conformer: 68.02264883025867 kcal/mol)

>  <smiles>  (23) 
NS(=O)(=O)c1ccccc1N=c1[nH]c(=NCc2ccccc2O)[nH]c(=Nc2ccccc2)[nH]1

>  <score_type>  (23) 
oracle

>  <origin>  (23) 
adg

>  <m_score__min__energy>  (23) 
-15.460000000000001

>  <m_primary>  (23) 
energy

$$$$
23:0
     RDKit          3D

 59 61  0  0  0  0  0  0  0  0999 V2000
   60.2441   28.2489   47.8621 H   0  0  0  0  0  0  0  0  0  0  0  0
   59.6530   27.7660   47.0700 C   0  0  0  0  0  0  0  0  0  0  0  0
   59.6619   26.6708   46.9672 H   0  0  0  0  0  0  0  0  0  0  0  0
   58.9210   28.5130   46.2290 C   0  0  0  0  0  0  0  0  0  0  0  0
   58.1190   28.0470   45.1740 C   0  0  0  0  0  0  0  0  0  0  0  0
   57.7370   26.8020   44.8310 C   0  0  0  0  0  0  0  0  0  0  0  0
   57.8437   26.5181   43.7736 H   0  0  0  0  0  0  0  0  0  0  0  0
   57.1900   25.7890   45.7450 C   0  0  0  0  0  0  0  0  0  0  0  0
   57.9110   24.8020   46.3110 N   0  0  0  0  0  0  0  0  0  0  0  0
   57.0350   24.2380   47.1720 C   0  0  0  0  0  0  0  0  0  0  0  0
   57.3400   23.2650   47.9080 O   0  0  0  0  0  0  0  0  0  0  0  0
   55.8130   24.8160   47.2030 N   0  0  0  0  0  0  0  0  0  0  0  0
   55.9370   25.8040   46.3030 C   0  0  0  0  0  0  0  0  0  0  0  0
   54.9230   26.7060   46.0010 O   0  0  0  0  0  0  0  0  0  0  0  0
   57.7430   29.1640   44.4530 C   0  0  0  0  0  0  0  0  0  0  0  0
   57.1433   29.1758   43.5309 H   0  0  0  0  0  0  0  0  0  0  0  0
   58.2610   30.2600   45.1070 C   0  0  0  0  0  0  0  0  0  0  0  0
   58.1220   31.6680   44.6170 C   0  0  0  0  0  0  0  0  0  0  0  0
   58.0546   32.3505   45.4770 H   0  0  0  0  0  0  0  0  0  0  0  0
   58.9984   31.9322   44.0070 H   0  0  0  0  0  0  0  0  0  0  0  0
   57.2108   31.7557   44.0070 H   0  0  0  0  0  0  0  0  0  0  0  0
   58.9690   29.8720   46.1980 N   0  0  0  0  0  0  0  0  0  0  0  0
   59.7060   30.7670   47.1110 C   0  0  0  0  0  0  0  0  0  0  0  0
   59.4302   31.8078   46.8861 H   0  0  0  0  0  0  0  0  0  0  0  0
   59.4354   30.4953   48.1420 H   0  0  0  0  0  0  0  0  0  0  0  0
   61.2310   30.6160   46.9670 C   0  0  0  0  0  0  0  0  0  0  0  0
   61.5367   29.6601   47.4173 H   0  0  0  0  0  0  0  0  0  0  0  0
   61.4744   30.6487   45.8948 H   0  0  0  0  0  0  0  0  0  0  0  0
   61.9830   31.7400   47.6500 C   0  0  0  0  0  0  0  0  0  0  0  0
   62.6630   32.6650   46.8380 C   0  0  0  0  0  0  0  0  0  0  0  0
   62.6644   32.5307   45.7462 H   0  0  0  0  0  0  0  0  0  0  0  0
   63.3360   33.7510   47.3990 C   0  0  0  0  0  0  0  0  0  0  0  0
   63.8526   34.4720   46.7485 H   0  0  0  0  0  0  0  0  0  0  0  0
   63.3550   33.9240   48.7810 C   0  0  0  0  0  0  0  0  0  0  0  0
   63.8800   34.7851   49.2201 H   0  0  0  0  0  0  0  0  0  0  0  0
   62.7080   33.0050   49.6090 C   0  0  0  0  0  0  0  0  0  0  0  0
   62.7444   33.1371   50.7004 H   0  0  0  0  0  0  0  0  0  0  0  0
   62.0100   31.9120   49.0640 C   0  0  0  0  0  0  0  0  0  0  0  0
   61.4300   30.8960   50.0170 C   0  0  0  0  0  0  0  0  0  0  0  0
   61.2948   29.9364   49.4966 H   0  0  0  0  0  0  0  0  0  0  0  0
   62.1120   30.7504   50.8677 H   0  0  0  0  0  0  0  0  0  0  0  0
   60.1410   31.3800   50.4940 N   0  0  0  0  0  0  0  0  0  0  0  0
   59.6170   32.6960   50.2750 C   0  0  0  0  0  0  0  0  0  0  0  0
   59.6750   33.5350   51.2110 O   0  0  0  0  0  0  0  0  0  0  0  0
   58.9520   33.0910   48.9870 C   0  0  0  0  0  0  0  0  0  0  0  0
   59.0378   32.2649   48.2657 H   0  0  0  0  0  0  0  0  0  0  0  0
   57.8921   33.3103   49.1833 H   0  0  0  0  0  0  0  0  0  0  0  0
   59.6230   34.3440   48.4050 C   0  0  0  0  0  0  0  0  0  0  0  0
   59.5110   35.1737   49.1184 H   0  0  0  0  0  0  0  0  0  0  0  0
   60.6855   34.1181   48.2316 H   0  0  0  0  0  0  0  0  0  0  0  0
   59.0140   34.7340   47.1140 N   0  0  0  0  0  0  0  0  0  0  0  0
   57.8350   33.9020   46.8070 C   0  0  0  0  0  0  0  0  0  0  0  0
   57.3657   33.5708   47.7451 H   0  0  0  0  0  0  0  0  0  0  0  0
   57.1123   34.4913   46.2235 H   0  0  0  0  0  0  0  0  0  0  0  0
   58.1480   33.0236   46.2235 H   0  0  0  0  0  0  0  0  0  0  0  0
   59.9980   34.5870   46.0300 C   0  0  0  0  0  0  0  0  0  0  0  0
   60.9989   34.4375   46.4611 H   0  0  0  0  0  0  0  0  0  0  0  0
   59.7327   33.7185   45.4092 H   0  0  0  0  0  0  0  0  0  0  0  0
   59.9981   35.4951   45.4092 H   0  0  0  0  0  0  0  0  0  0  0  0
  1  2  1  0
  2  3  1  0
  2  4  2  0
  4  5  1  0
  5  6  2  0
  6  7  1  0
  6  8  1  0
  8  9  1  0
  9 10  1  0
 10 11  2  0
 10 12  1  0
 12 13  1  0
 13 14  1  0
  5 15  1  0
 15 16  1  0
 15 17  2  0
 17 18  1  0
 18 19  1  0
 18 20  1  0
 18 21  1  0
 17 22  1  0
 22 23  1  0
 23 24  1  0
 23 25  1  0
 23 26  1  0
 26 27  1  0
 26 28  1  0
 26 29  1  0
 29 30  2  0
 30 31  1  0
 30 32  1  0
 32 33  1  0
 32 34  2  0
 34 35  1  0
 34 36  1  0
 36 37  1  0
 36 38  2  0
 38 39  1  0
 39 40  1  0
 39 41  1  0
 39 42  1  0
 42 43  1  0
 43 44  2  0
 43 45  1  0
 45 46  1  0
 45 47  1  0
 45 48  1  0
 48 49  1  0
 48 50  1  0
 48 51  1  0
 51 52  1  0
 52 53  1  0
 52 54  1  0
 52 55  1  0
 51 56  1  0
 56 57  1  0
 56 58  1  0
 56 59  1  0
 22  4  1  0
 38 29  1  0
 13  8  2  0
M  CHG  4   9  -1  12  -1  14  -1  42  -1
M  END
>  <UniqueID>  (24) 
22

>  <SMILES>  (24) 
C=c1/c(=C\c2[n-]c(=O)[n-]c2[O-])cc(C)n1CCc1ccccc1C[N-]C(=O)CCN(C)C

>  <Energy>  (24) 
119.78912630047478

>  <Genealogy>  (24) 
C=c1c(=Cc2[n-]c(=O)[n-]c2[O-])cc(C)n1CCc1ccccc1C[N-]C(=O)CCN(C)C (protonated)
C=c1/c(=C\c2[n-]c(=O)[n-]c2[O-])cc(C)n1CCc1ccccc1C[N-]C(=O)CCN(C)C (cis-trans isomerization)
C=c1/c(=C\c2[n-]c(=O)[n-]c2[O-])cc(C)n1CCc1ccccc1C[N-]C(=O)CCN(C)C (3D coordinates assigned)
C=c1/c(=C\c2[n-]c(=O)[n-]c2[O-])cc(C)n1CCc1ccccc1C[N-]C(=O)CCN(C)C (optimized conformer: 119.78912630047478 kcal/mol)

>  <smiles>  (24) 
C=c1c(=Cc2[nH]c(=O)[nH]c2O)cc(C)n1CCc1ccccc1CNC(=O)CCN(C)C

>  <score_type>  (24) 
oracle

>  <origin>  (24) 
adg

>  <m_score__min__energy>  (24) 
-17.969999999999999

>  <m_primary>  (24) 
energy

$$$$
24:0
     RDKit          3D

 58 61  0  0  1  0  0  0  0  0999 V2000
   58.9210   34.6020   47.2140 C   0  0  0  0  0  0  0  0  0  0  0  0
   60.1650   34.7450   46.3500 C   0  0  0  0  0  0  0  0  0  0  0  0
   61.3410   34.1480   46.9990 C   0  0  0  0  0  0  0  0  0  0  0  0
   62.5270   33.8480   46.3760 C   0  0  0  0  0  0  0  0  0  0  0  0
   63.3310   33.3350   47.2630 O   0  0  0  0  0  0  0  0  0  0  0  0
   62.7510   33.2790   48.4260 C   0  0  0  0  0  0  0  0  0  0  0  0
   63.2040   32.8000   49.7400 C   0  0  0  0  0  0  0  0  0  0  0  0
   63.2230   31.3420   49.9590 C   0  0  0  0  0  0  0  0  0  0  0  0
   61.9780   30.5960   49.8350 C   0  0  0  0  0  0  0  0  0  0  0  0
   61.5860   29.5480   50.6660 C   0  0  0  0  0  0  0  0  0  0  0  0
   60.3700   28.9110   50.5330 C   0  0  0  0  0  0  0  0  0  0  0  0
   59.4780   29.3180   49.5320 C   0  0  0  0  0  0  0  0  0  0  0  0
   59.9030   30.3720   48.7190 C   0  0  0  0  0  0  0  0  0  0  0  0
   59.1370   30.8140   47.8370 N   0  0  0  0  0  0  0  0  0  0  0  0
   59.3290   31.2890   46.5260 C   0  0  0  0  0  0  0  0  0  0  0  0
   58.3060   30.7760   45.5750 C   0  0  0  0  0  0  0  0  0  0  0  0
   57.8150   29.4940   45.8500 C   0  0  0  0  0  0  0  0  0  0  0  0
   56.7750   28.9310   45.1540 C   0  0  0  0  0  0  0  0  0  0  0  0
   56.1920   27.6720   45.4120 N   0  0  0  0  0  0  0  0  0  0  0  0
   56.8740   26.5000   45.8030 C   0  0  0  0  0  0  0  0  0  0  0  0
   58.1060   26.4460   45.9430 O   0  0  0  0  0  0  0  0  0  0  0  0
   56.0950   25.2870   46.0580 C   0  0  0  0  0  0  0  0  0  0  0  0
   56.6200   24.0530   46.4300 C   0  0  0  0  0  0  0  0  0  0  0  0
   55.6060   23.1460   46.5680 C   0  0  0  0  0  0  0  0  0  0  0  0
   55.7760   21.7170   46.9440 C   0  0  0  0  0  0  0  0  0  0  0  0
   54.4770   23.8310   46.2820 N   0  0  0  0  0  0  0  0  0  0  0  0
   54.7680   25.0910   45.9830 N   0  0  0  0  0  0  0  0  0  0  0  0
   56.2140   29.6880   44.1430 C   0  0  0  0  0  0  0  0  0  0  0  0
   56.6530   30.9480   43.8260 C   0  0  0  0  0  0  0  0  0  0  0  0
   57.7170   31.4730   44.5700 C   0  0  0  0  0  0  0  0  0  0  0  0
   58.2540   33.0670   44.0380 Cl  0  0  0  0  0  0  0  0  0  0  0  0
   61.0980   30.9550   48.8890 N   0  0  0  0  0  0  0  0  0  0  0  0
   61.4830   33.7930   48.2800 N   0  0  0  0  0  0  0  0  0  0  0  0
   59.2063   34.6348   48.2758 H   0  0  0  0  0  0  0  0  0  0  0  0
   58.2260   35.4262   46.9954 H   0  0  0  0  0  0  0  0  0  0  0  0
   58.4312   33.6416   46.9954 H   0  0  0  0  0  0  0  0  0  0  0  0
   59.9924   34.2402   45.3880 H   0  0  0  0  0  0  0  0  0  0  0  0
   60.3601   35.8170   46.1992 H   0  0  0  0  0  0  0  0  0  0  0  0
   62.7580   34.0122   45.3131 H   0  0  0  0  0  0  0  0  0  0  0  0
   64.2288   33.1701   49.8912 H   0  0  0  0  0  0  0  0  0  0  0  0
   62.4582   33.1827   50.4523 H   0  0  0  0  0  0  0  0  0  0  0  0
   63.9290   30.9153   49.2314 H   0  0  0  0  0  0  0  0  0  0  0  0
   63.4907   31.2367   51.0207 H   0  0  0  0  0  0  0  0  0  0  0  0
   62.2729   29.2162   51.4585 H   0  0  0  0  0  0  0  0  0  0  0  0
   60.1015   28.0867   51.2101 H   0  0  0  0  0  0  0  0  0  0  0  0
   58.4992   28.8354   49.3941 H   0  0  0  0  0  0  0  0  0  0  0  0
   59.2784   32.3878   46.5386 H   0  0  0  0  0  0  0  0  0  0  0  0
   60.3111   30.9315   46.1830 H   0  0  0  0  0  0  0  0  0  0  0  0
   58.2829   28.9133   46.6586 H   0  0  0  0  0  0  0  0  0  0  0  0
   55.1540   27.5840   45.2990 H   0  0  0  0  0  0  0  0  0  0  0  0
   57.6874   23.8398   46.5887 H   0  0  0  0  0  0  0  0  0  0  0  0
   55.7869   21.6251   48.0401 H   0  0  0  0  0  0  0  0  0  0  0  0
   54.9415   21.1285   46.5350 H   0  0  0  0  0  0  0  0  0  0  0  0
   56.7253   21.3407   46.5350 H   0  0  0  0  0  0  0  0  0  0  0  0
   53.5430   23.3710   46.3100 H   0  0  0  0  0  0  0  0  0  0  0  0
   55.3792   29.2614   43.5676 H   0  0  0  0  0  0  0  0  0  0  0  0
   56.1855   31.5263   43.0154 H   0  0  0  0  0  0  0  0  0  0  0  0
   61.3530   31.6990   48.2290 H   0  0  0  0  0  0  0  0  0  0  0  0
  1  2  1  0
  2  3  1  0
  3  4  2  0
  4  5  1  0
  5  6  1  0
  6  7  1  0
  7  8  1  0
  8  9  1  0
  9 10  2  0
 10 11  1  0
 11 12  2  0
 12 13  1  0
 13 14  2  0
 14 15  1  0
 15 16  1  0
 16 17  2  0
 17 18  1  0
 18 19  1  0
 19 20  1  0
 20 21  2  0
 20 22  1  0
 22 23  1  0
 23 24  2  0
 24 25  1  0
 24 26  1  0
 26 27  1  0
 18 28  2  0
 28 29  1  0
 29 30  2  0
 30 31  1  0
 13 32  1  0
  6 33  2  0
 33  3  1  0
 32  9  1  0
 30 16  1  0
 27 22  2  0
  1 34  1  0
  1 35  1  0
  1 36  1  0
  2 37  1  0
  2 38  1  0
  4 39  1  0
  7 40  1  0
  7 41  1  0
  8 42  1  0
  8 43  1  0
 10 44  1  0
 11 45  1  0
 12 46  1  0
 15 47  1  0
 15 48  1  0
 17 49  1  0
 19 50  1  0
 23 51  1  0
 25 52  1  0
 25 53  1  0
 25 54  1  0
 26 55  1  0
 28 56  1  0
 29 57  1  0
 32 58  1  0
M  END
>  <smiles>  (25) 
CCc1coc(CCc2cccc(=NCc3cc(NC(=O)c4cc(C)[nH]n4)ccc3Cl)[nH]2)n1

>  <score_type>  (25) 
oracle

>  <origin>  (25) 
adg

>  <m_score__min__energy>  (25) 
-9.0500000000000007

>  <m_primary>  (25) 
energy

$$$$
25:0
     RDKit          3D

 51 53  0  0  0  0  0  0  0  0999 V2000
   54.7760   26.3360   45.9930 N   0  0  0  0  0  0  0  0  0  0  0  0
   56.3390   25.6640   46.2880 S   0  0  0  0  0  0  0  0  0  0  0  0
   56.2760   24.7600   47.4880 O   0  0  0  0  0  0  0  0  0  0  0  0
   56.7720   24.8560   45.0970 O   0  0  0  0  0  0  0  0  0  0  0  0
   57.4930   26.9620   46.5790 C   0  0  0  0  0  0  0  0  0  0  0  0
   58.4800   26.8220   47.5610 C   0  0  0  0  0  0  0  0  0  0  0  0
   59.3890   27.8580   47.7980 C   0  0  0  0  0  0  0  0  0  0  0  0
   59.3250   29.0520   47.0580 C   0  0  0  0  0  0  0  0  0  0  0  0
   60.3080   30.1370   47.3260 C   0  0  0  0  0  0  0  0  0  0  0  0
   61.1830   30.3870   46.4510 O   0  0  0  0  0  0  0  0  0  0  0  0
   60.2680   30.9190   48.5510 N   0  0  1  0  0  0  0  0  0  0  0  0
   58.9230   30.8740   49.1820 C   0  0  0  0  0  0  0  0  0  0  0  0
   58.3320   32.2430   49.5720 C   0  0  0  0  0  0  0  0  0  0  0  0
   59.0460   33.2940   48.9270 O   0  0  0  0  0  0  0  0  0  0  0  0
   58.8520   33.6860   47.5950 C   0  0  0  0  0  0  0  0  0  0  0  0
   57.7790   33.2110   46.8140 C   0  0  0  0  0  0  0  0  0  0  0  0
   57.6310   33.6370   45.4900 C   0  0  0  0  0  0  0  0  0  0  0  0
   58.5450   34.5350   44.9360 C   0  0  0  0  0  0  0  0  0  0  0  0
   59.6130   35.0090   45.7030 C   0  0  0  0  0  0  0  0  0  0  0  0
   59.7640   34.5870   47.0280 C   0  0  0  0  0  0  0  0  0  0  0  0
   61.3590   30.5450   49.4840 C   0  0  0  0  0  0  0  0  0  0  0  0
   62.5650   31.4410   49.3140 C   0  0  0  0  0  0  0  0  0  0  0  0
   63.5750   31.4560   50.2910 C   0  0  0  0  0  0  0  0  0  0  0  0
   64.6700   32.3150   50.1580 C   0  0  0  0  0  0  0  0  0  0  0  0
   64.7630   33.1670   49.0560 C   0  0  0  0  0  0  0  0  0  0  0  0
   63.7590   33.1650   48.0830 C   0  0  0  0  0  0  0  0  0  0  0  0
   62.6630   32.3070   48.2110 C   0  0  0  0  0  0  0  0  0  0  0  0
   58.3170   29.1910   46.0850 C   0  0  0  0  0  0  0  0  0  0  0  0
   57.4100   28.1530   45.8500 C   0  0  0  0  0  0  0  0  0  0  0  0
   54.6170   27.0700   46.7190 H   0  0  0  0  0  0  0  0  0  0  0  0
   58.5411   25.8940   48.1485 H   0  0  0  0  0  0  0  0  0  0  0  0
   60.1620   27.7376   48.5713 H   0  0  0  0  0  0  0  0  0  0  0  0
   60.4350   31.9240   48.3070 H   0  0  0  0  0  0  0  0  0  0  0  0
   58.2313   30.3946   48.4737 H   0  0  0  0  0  0  0  0  0  0  0  0
   59.0469   30.3172   50.1226 H   0  0  0  0  0  0  0  0  0  0  0  0
   57.2758   32.2820   49.2671 H   0  0  0  0  0  0  0  0  0  0  0  0
   58.4158   32.3707   50.6613 H   0  0  0  0  0  0  0  0  0  0  0  0
   57.0563   32.5036   47.2468 H   0  0  0  0  0  0  0  0  0  0  0  0
   56.7924   33.2636   44.8839 H   0  0  0  0  0  0  0  0  0  0  0  0
   58.4246   34.8698   43.8951 H   0  0  0  0  0  0  0  0  0  0  0  0
   60.3348   35.7139   45.2646 H   0  0  0  0  0  0  0  0  0  0  0  0
   60.6042   34.9647   47.6292 H   0  0  0  0  0  0  0  0  0  0  0  0
   60.9915   30.6325   50.5171 H   0  0  0  0  0  0  0  0  0  0  0  0
   61.6631   29.5113   49.2628 H   0  0  0  0  0  0  0  0  0  0  0  0
   63.5038   30.7897   51.1633 H   0  0  0  0  0  0  0  0  0  0  0  0
   65.4600   32.3195   50.9234 H   0  0  0  0  0  0  0  0  0  0  0  0
   65.6267   33.8403   48.9532 H   0  0  0  0  0  0  0  0  0  0  0  0
   63.8316   33.8388   47.2166 H   0  0  0  0  0  0  0  0  0  0  0  0
   61.8735   32.3094   47.4451 H   0  0  0  0  0  0  0  0  0  0  0  0
   58.2424   30.1229   45.5054 H   0  0  0  0  0  0  0  0  0  0  0  0
   56.6266   28.2737   45.0873 H   0  0  0  0  0  0  0  0  0  0  0  0
  1  2  1  0
  2  3  2  0
  2  4  2  0
  2  5  1  0
  5  6  2  0
  6  7  1  0
  7  8  2  0
  8  9  1  0
  9 10  2  0
  9 11  1  0
 11 12  1  0
 12 13  1  0
 13 14  1  0
 14 15  1  0
 15 16  2  0
 16 17  1  0
 17 18  2  0
 18 19  1  0
 19 20  2  0
 11 21  1  0
 21 22  1  0
 22 23  2  0
 23 24  1  0
 24 25  2  0
 25 26  1  0
 26 27  2  0
  8 28  1  0
 28 29  2  0
 29  5  1  0
 20 15  1  0
 27 22  1  0
  1 30  1  0
  6 31  1  0
  7 32  1  0
 11 33  1  6
 12 34  1  0
 12 35  1  0
 13 36  1  0
 13 37  1  0
 16 38  1  0
 17 39  1  0
 18 40  1  0
 19 41  1  0
 20 42  1  0
 21 43  1  0
 21 44  1  0
 23 45  1  0
 24 46  1  0
 25 47  1  0
 26 48  1  0
 27 49  1  0
 28 50  1  0
 29 51  1  0
M  CHG  2   1  -1  11   1
M  END
>  <UniqueID>  (26) 
23

>  <SMILES>  (26) 
[NH-]S(=O)(=O)c1ccc(C(=O)[N@@H+](CCOc2ccccc2)Cc2ccccc2)cc1

>  <Energy>  (26) 
60.37868287678725

>  <Genealogy>  (26) 
[NH-]S(=O)(=O)c1ccc(C(=O)[NH+](CCOc2ccccc2)Cc2ccccc2)cc1 (protonated)
[NH-]S(=O)(=O)c1ccc(C(=O)[N@@H+](CCOc2ccccc2)Cc2ccccc2)cc1 (chirality)
[NH-]S(=O)(=O)c1ccc(C(=O)[N@@H+](CCOc2ccccc2)Cc2ccccc2)cc1 (3D coordinates assigned)
[NH-]S(=O)(=O)c1ccc(C(=O)[N@@H+](CCOc2ccccc2)Cc2ccccc2)cc1 (optimized conformer: 60.37868287678725 kcal/mol)

>  <smiles>  (26) 
NS(=O)(=O)c1ccc(C(=O)N(CCOc2ccccc2)Cc2ccccc2)cc1

>  <score_type>  (26) 
oracle

>  <origin>  (26) 
adg

>  <m_score__min__energy>  (26) 
-9.9600000000000009

>  <m_primary>  (26) 
energy

$$$$
26:0
     RDKit          3D

 68 72  0  0  0  0  0  0  0  0999 V2000
   56.6510   20.7790   42.7580 C   0  0  0  0  0  0  0  0  0  0  0  0
   56.4380   21.9300   43.6470 N   0  0  0  0  0  0  0  0  0  0  0  0
   57.3010   21.8280   44.8370 C   0  0  0  0  0  0  0  0  0  0  0  0
   57.0130   22.9860   45.8160 C   0  0  0  0  0  0  0  0  0  0  0  0
   56.1750   24.0280   45.1930 N   0  0  0  0  0  0  0  0  0  0  0  0
   56.1140   25.4340   46.2250 S   0  0  0  0  0  0  0  0  0  0  0  0
   54.8590   26.2170   45.9540 O   0  0  0  0  0  0  0  0  0  0  0  0
   56.1090   25.0070   47.6660 O   0  0  0  0  0  0  0  0  0  0  0  0
   57.5320   26.4460   45.9440 C   0  0  0  0  0  0  0  0  0  0  0  0
   57.3830   27.7880   45.5660 C   0  0  0  0  0  0  0  0  0  0  0  0
   58.5090   28.6000   45.3740 C   0  0  0  0  0  0  0  0  0  0  0  0
   58.3010   30.3080   44.9990 S   0  0  0  0  0  0  0  0  0  0  0  0
   58.2320   30.5170   43.5120 O   0  0  0  0  0  0  0  0  0  0  0  0
   57.0200   30.7980   45.6130 O   0  0  0  0  0  0  0  0  0  0  0  0
   59.6280   31.2060   45.6480 N   0  0  0  0  0  0  0  0  0  0  0  0
   59.8960   31.1970   47.0500 C   0  0  0  0  0  0  0  0  0  0  0  0
   61.0210   30.5210   47.5250 C   0  0  0  0  0  0  0  0  0  0  0  0
   61.2870   30.4770   48.8900 C   0  0  0  0  0  0  0  0  0  0  0  0
   60.4320   31.1140   49.7890 C   0  0  0  0  0  0  0  0  0  0  0  0
   59.3020   31.8230   49.3390 C   0  0  0  0  0  0  0  0  0  0  0  0
   58.4180   32.4760   50.3840 C   0  0  0  0  0  0  0  0  0  0  0  0
   58.0300   31.5050   51.4740 C   0  0  0  0  0  0  0  0  0  0  0  0
   57.3830   30.3650   51.1100 N   0  0  0  0  0  0  0  0  0  0  0  0
   56.9880   29.4580   52.0000 N   0  0  0  0  0  0  0  0  0  0  0  0
   57.1990   29.6270   53.3280 C   0  0  0  0  0  0  0  0  0  0  0  0
   56.8110   28.7380   54.1310 O   0  0  0  0  0  0  0  0  0  0  0  0
   57.8460   30.7840   53.7900 C   0  0  0  0  0  0  0  0  0  0  0  0
   58.3120   31.7290   52.8440 C   0  0  0  0  0  0  0  0  0  0  0  0
   59.0000   33.0060   53.2920 C   0  0  0  0  0  0  0  0  0  0  0  0
   59.5010   32.9560   54.7380 C   0  0  0  0  0  0  0  0  0  0  0  0
   58.4230   32.3950   55.6580 C   0  0  0  0  0  0  0  0  0  0  0  0
   58.1110   30.9490   55.2730 C   0  0  0  0  0  0  0  0  0  0  0  0
   59.0280   31.8540   47.9420 C   0  0  0  0  0  0  0  0  0  0  0  0
   57.9210   32.5100   47.3950 O   0  0  0  0  0  0  0  0  0  0  0  0
   59.7900   28.0640   45.5550 C   0  0  0  0  0  0  0  0  0  0  0  0
   59.9430   26.7230   45.9130 C   0  0  0  0  0  0  0  0  0  0  0  0
   58.8200   25.9130   46.1080 C   0  0  0  0  0  0  0  0  0  0  0  0
   58.9880   24.6130   46.4600 F   0  0  0  0  0  0  0  0  0  0  0  0
   56.7180   24.4030   43.8780 C   0  0  0  0  0  0  0  0  0  0  0  0
   56.7040   23.1910   42.9230 C   0  0  0  0  0  0  0  0  0  0  0  0
   56.8183   19.8751   43.3621 H   0  0  0  0  0  0  0  0  0  0  0  0
   55.7639   20.6368   42.1233 H   0  0  0  0  0  0  0  0  0  0  0  0
   57.5302   20.9637   42.1233 H   0  0  0  0  0  0  0  0  0  0  0  0
   57.1082   20.8703   45.3427 H   0  0  0  0  0  0  0  0  0  0  0  0
   58.3525   21.8847   44.5192 H   0  0  0  0  0  0  0  0  0  0  0  0
   56.4897   22.5866   46.6973 H   0  0  0  0  0  0  0  0  0  0  0  0
   57.9725   23.4415   46.1019 H   0  0  0  0  0  0  0  0  0  0  0  0
   56.3762   28.2060   45.4193 H   0  0  0  0  0  0  0  0  0  0  0  0
   61.6995   30.0214   46.8179 H   0  0  0  0  0  0  0  0  0  0  0  0
   62.1723   29.9394   49.2604 H   0  0  0  0  0  0  0  0  0  0  0  0
   60.6440   31.0616   50.8671 H   0  0  0  0  0  0  0  0  0  0  0  0
   58.9622   33.3190   50.8348 H   0  0  0  0  0  0  0  0  0  0  0  0
   57.4983   32.8201   49.8883 H   0  0  0  0  0  0  0  0  0  0  0  0
   59.8607   33.1877   52.6316 H   0  0  0  0  0  0  0  0  0  0  0  0
   58.2534   33.8119   53.2364 H   0  0  0  0  0  0  0  0  0  0  0  0
   60.3919   32.3130   54.7903 H   0  0  0  0  0  0  0  0  0  0  0  0
   59.7501   33.9768   55.0634 H   0  0  0  0  0  0  0  0  0  0  0  0
   58.7788   32.4267   56.6984 H   0  0  0  0  0  0  0  0  0  0  0  0
   57.5105   33.0012   55.5583 H   0  0  0  0  0  0  0  0  0  0  0  0
   58.9685   30.3180   55.5498 H   0  0  0  0  0  0  0  0  0  0  0  0
   57.1979   30.6515   55.8093 H   0  0  0  0  0  0  0  0  0  0  0  0
   57.6430   32.4730   46.4260 H   0  0  0  0  0  0  0  0  0  0  0  0
   60.6766   28.6999   45.4150 H   0  0  0  0  0  0  0  0  0  0  0  0
   60.9511   26.3021   46.0421 H   0  0  0  0  0  0  0  0  0  0  0  0
   56.1044   25.2090   43.4493 H   0  0  0  0  0  0  0  0  0  0  0  0
   57.7560   24.7441   44.0054 H   0  0  0  0  0  0  0  0  0  0  0  0
   55.9188   23.3411   42.1674 H   0  0  0  0  0  0  0  0  0  0  0  0
   57.6945   23.1139   42.4508 H   0  0  0  0  0  0  0  0  0  0  0  0
  1  2  1  0
  2  3  1  0
  3  4  1  0
  4  5  1  0
  5  6  1  0
  6  7  2  0
  6  8  2  0
  6  9  1  0
  9 10  2  0
 10 11  1  0
 11 12  1  0
 12 13  2  0
 12 14  2  0
 12 15  1  0
 15 16  1  0
 16 17  2  0
 17 18  1  0
 18 19  2  0
 19 20  1  0
 20 21  1  0
 21 22  1  0
 22 23  2  0
 23 24  1  0
 24 25  1  0
 25 26  2  0
 25 27  1  0
 27 28  2  0
 28 29  1  0
 29 30  1  0
 30 31  1  0
 31 32  1  0
 20 33  2  0
 33 34  1  0
 11 35  2  0
 35 36  1  0
 36 37  2  0
 37 38  1  0
  5 39  1  0
 39 40  1  0
 40  2  1  0
 37  9  1  0
 33 16  1  0
 28 22  1  0
 32 27  1  0
  1 41  1  0
  1 42  1  0
  1 43  1  0
  3 44  1  0
  3 45  1  0
  4 46  1  0
  4 47  1  0
 10 48  1  0
 17 49  1  0
 18 50  1  0
 19 51  1  0
 21 52  1  0
 21 53  1  0
 29 54  1  0
 29 55  1  0
 30 56  1  0
 30 57  1  0
 31 58  1  0
 31 59  1  0
 32 60  1  0
 32 61  1  0
 34 62  1  0
 35 63  1  0
 36 64  1  0
 39 65  1  0
 39 66  1  0
 40 67  1  0
 40 68  1  0
M  CHG  2  15  -1  24  -1
M  END
>  <UniqueID>  (27) 
24

>  <SMILES>  (27) 
CN1CCN(S(=O)(=O)c2cc(S(=O)(=O)[N-]c3cccc(Cc4n[n-]c(=O)c5c4CCCC5)c3O)ccc2F)CC1

>  <Energy>  (27) 
93.19503137429264

>  <Genealogy>  (27) 
CN1CCN(S(=O)(=O)c2cc(S(=O)(=O)[N-]c3cccc(Cc4n[n-]c(=O)c5c4CCCC5)c3O)ccc2F)CC1 (protonated)
CN1CCN(S(=O)(=O)c2cc(S(=O)(=O)[N-]c3cccc(Cc4n[n-]c(=O)c5c4CCCC5)c3O)ccc2F)CC1 (3D coordinates assigned)
CN1CCN(S(=O)(=O)c2cc(S(=O)(=O)[N-]c3cccc(Cc4n[n-]c(=O)c5c4CCCC5)c3O)ccc2F)CC1 (nonaromatic ring conformer: 93.19503137429264 kcal/mol)

>  <smiles>  (27) 
CN1CCN(S(=O)(=O)c2cc(S(=O)(=O)Nc3cccc(Cc4n[nH]c(=O)c5c4CCCC5)c3O)ccc2F)CC1

>  <score_type>  (27) 
oracle

>  <origin>  (27) 
adg

>  <m_score__min__energy>  (27) 
-15.58

>  <m_primary>  (27) 
energy

$$$$
27:0
     RDKit          3D

 71 74  0  0  0  0  0  0  0  0999 V2000
   63.3920   31.9460   47.5860 C   0  0  0  0  0  0  0  0  0  0  0  0
   62.6450   32.7080   48.6910 C   0  0  0  0  0  0  0  0  0  0  0  0
   61.6140   33.6370   48.1760 N   0  0  0  0  0  0  0  0  0  0  0  0
   61.6670   33.8120   46.6950 C   0  0  0  0  0  0  0  0  0  0  0  0
   60.2870   33.8870   46.0200 C   0  0  0  0  0  0  0  0  0  0  0  0
   59.4390   32.8060   46.5140 N   0  0  0  0  0  0  0  0  0  0  0  0
   58.7140   31.9600   45.6100 C   0  0  0  0  0  0  0  0  0  0  0  0
   59.0380   30.5990   45.5420 C   0  0  0  0  0  0  0  0  0  0  0  0
   58.3550   29.7390   44.6640 C   0  0  0  0  0  0  0  0  0  0  0  0
   58.7130   28.3020   44.5680 C   0  0  0  0  0  0  0  0  0  0  0  0
   59.8910   27.9360   44.8360 O   0  0  0  0  0  0  0  0  0  0  0  0
   57.7500   27.3250   44.1400 N   0  0  0  0  0  0  0  0  0  0  0  0
   57.8080   25.9360   44.5120 C   0  0  0  0  0  0  0  0  0  0  0  0
   58.6520   25.5380   45.5510 C   0  0  0  0  0  0  0  0  0  0  0  0
   58.7500   24.1950   45.9080 C   0  0  0  0  0  0  0  0  0  0  0  0
   58.0220   23.2080   45.2210 C   0  0  0  0  0  0  0  0  0  0  0  0
   58.1950   21.7690   45.6730 C   0  0  0  0  0  0  0  0  0  0  0  0
   57.3750   21.4800   46.8700 N   0  0  0  0  0  0  0  0  0  0  0  0
   56.5050   20.2980   46.6540 C   0  0  0  0  0  0  0  0  0  0  0  0
   55.3580   20.2570   47.6730 C   0  0  0  0  0  0  0  0  0  0  0  0
   54.4810   21.4520   47.5790 N   0  0  0  0  0  0  0  0  0  0  0  0
   53.2240   21.1420   46.8790 C   0  0  0  0  0  0  0  0  0  0  0  0
   55.1390   22.6220   46.9560 C   0  0  0  0  0  0  0  0  0  0  0  0
   56.6290   22.6830   47.3240 C   0  0  0  0  0  0  0  0  0  0  0  0
   57.1480   23.5980   44.1660 C   0  0  0  0  0  0  0  0  0  0  0  0
   56.3040   22.5890   43.4070 C   0  0  0  0  0  0  0  0  0  0  0  0
   55.6130   21.7910   44.3010 F   0  0  0  0  0  0  0  0  0  0  0  0
   57.1160   21.8020   42.6120 F   0  0  0  0  0  0  0  0  0  0  0  0
   55.3720   23.2050   42.5870 F   0  0  0  0  0  0  0  0  0  0  0  0
   57.0750   24.9620   43.8140 C   0  0  0  0  0  0  0  0  0  0  0  0
   57.3450   30.2720   43.8440 C   0  0  0  0  0  0  0  0  0  0  0  0
   57.0180   31.6290   43.9090 C   0  0  0  0  0  0  0  0  0  0  0  0
   57.6880   32.4820   44.7980 C   0  0  0  0  0  0  0  0  0  0  0  0
   57.3330   33.9420   44.8420 C   0  0  0  0  0  0  0  0  0  0  0  0
   59.4000   32.5930   47.9250 C   0  0  0  0  0  0  0  0  0  0  0  0
   58.6290   31.7360   48.4350 O   0  0  0  0  0  0  0  0  0  0  0  0
   60.2770   33.4440   48.7890 C   0  0  0  0  0  0  0  0  0  0  0  0
   64.0926   31.2314   48.0427 H   0  0  0  0  0  0  0  0  0  0  0  0
   62.6678   31.4017   46.9620 H   0  0  0  0  0  0  0  0  0  0  0  0
   63.9505   32.6592   46.9620 H   0  0  0  0  0  0  0  0  0  0  0  0
   62.1554   31.9751   49.3491 H   0  0  0  0  0  0  0  0  0  0  0  0
   63.3903   33.3162   49.2244 H   0  0  0  0  0  0  0  0  0  0  0  0
   62.2090   34.7440   46.4768 H   0  0  0  0  0  0  0  0  0  0  0  0
   62.1699   32.9219   46.2890 H   0  0  0  0  0  0  0  0  0  0  0  0
   59.8184   34.8547   46.2521 H   0  0  0  0  0  0  0  0  0  0  0  0
   60.4078   33.7872   44.9312 H   0  0  0  0  0  0  0  0  0  0  0  0
   59.8366   30.1980   46.1834 H   0  0  0  0  0  0  0  0  0  0  0  0
   57.0080   27.6210   43.4640 H   0  0  0  0  0  0  0  0  0  0  0  0
   59.2441   26.2909   46.0918 H   0  0  0  0  0  0  0  0  0  0  0  0
   59.4071   23.9024   46.7402 H   0  0  0  0  0  0  0  0  0  0  0  0
   57.8878   21.0977   44.8575 H   0  0  0  0  0  0  0  0  0  0  0  0
   59.2528   21.6102   45.9298 H   0  0  0  0  0  0  0  0  0  0  0  0
   56.0819   20.3449   45.6397 H   0  0  0  0  0  0  0  0  0  0  0  0
   57.1140   19.3906   46.7796 H   0  0  0  0  0  0  0  0  0  0  0  0
   54.7522   19.3576   47.4885 H   0  0  0  0  0  0  0  0  0  0  0  0
   55.8011   20.2417   48.6797 H   0  0  0  0  0  0  0  0  0  0  0  0
   52.4319   20.9467   47.6169 H   0  0  0  0  0  0  0  0  0  0  0  0
   52.9352   21.9958   46.2485 H   0  0  0  0  0  0  0  0  0  0  0  0
   53.3653   20.2518   46.2485 H   0  0  0  0  0  0  0  0  0  0  0  0
   55.0422   22.5480   45.8628 H   0  0  0  0  0  0  0  0  0  0  0  0
   54.6509   23.5349   47.3279 H   0  0  0  0  0  0  0  0  0  0  0  0
   57.0730   23.5725   46.8531 H   0  0  0  0  0  0  0  0  0  0  0  0
   56.7018   22.7285   48.4206 H   0  0  0  0  0  0  0  0  0  0  0  0
   56.4314   25.2690   42.9764 H   0  0  0  0  0  0  0  0  0  0  0  0
   56.8072   29.6148   43.1448 H   0  0  0  0  0  0  0  0  0  0  0  0
   56.2285   32.0316   43.2574 H   0  0  0  0  0  0  0  0  0  0  0  0
   57.2536   34.2686   45.8894 H   0  0  0  0  0  0  0  0  0  0  0  0
   58.1155   34.5251   44.3344 H   0  0  0  0  0  0  0  0  0  0  0  0
   56.3701   34.1007   44.3344 H   0  0  0  0  0  0  0  0  0  0  0  0
   59.8006   34.4260   48.9260 H   0  0  0  0  0  0  0  0  0  0  0  0
   60.4086   32.9368   49.7562 H   0  0  0  0  0  0  0  0  0  0  0  0
  1  2  1  0
  2  3  1  0
  3  4  1  0
  4  5  1  0
  5  6  1  0
  6  7  1  0
  7  8  2  0
  8  9  1  0
  9 10  1  0
 10 11  2  0
 10 12  1  0
 12 13  1  0
 13 14  2  0
 14 15  1  0
 15 16  2  0
 16 17  1  0
 17 18  1  0
 18 19  1  0
 19 20  1  0
 20 21  1  0
 21 22  1  0
 21 23  1  0
 23 24  1  0
 16 25  1  0
 25 26  1  0
 26 27  1  0
 26 28  1  0
 26 29  1  0
 25 30  2  0
  9 31  2  0
 31 32  1  0
 32 33  2  0
 33 34  1  0
  6 35  1  0
 35 36  2  0
 35 37  1  0
 37  3  1  0
 33  7  1  0
 30 13  1  0
 24 18  1  0
  1 38  1  0
  1 39  1  0
  1 40  1  0
  2 41  1  0
  2 42  1  0
  4 43  1  0
  4 44  1  0
  5 45  1  0
  5 46  1  0
  8 47  1  0
 12 48  1  0
 14 49  1  0
 15 50  1  0
 17 51  1  0
 17 52  1  0
 19 53  1  0
 19 54  1  0
 20 55  1  0
 20 56  1  0
 22 57  1  0
 22 58  1  0
 22 59  1  0
 23 60  1  0
 23 61  1  0
 24 62  1  0
 24 63  1  0
 30 64  1  0
 31 65  1  0
 32 66  1  0
 34 67  1  0
 34 68  1  0
 34 69  1  0
 37 70  1  0
 37 71  1  0
M  END
>  <UniqueID>  (28) 
25

>  <SMILES>  (28) 
CCN1CCN(c2cc(C(=O)Nc3ccc(CN4CCN(C)CC4)c(C(F)(F)F)c3)ccc2C)C(=O)C1

>  <Energy>  (28) 
110.25787537537025

>  <Genealogy>  (28) 
CCN1CCN(c2cc(C(=O)Nc3ccc(CN4CCN(C)CC4)c(C(F)(F)F)c3)ccc2C)C(=O)C1 (3D coordinates assigned)
CCN1CCN(c2cc(C(=O)Nc3ccc(CN4CCN(C)CC4)c(C(F)(F)F)c3)ccc2C)C(=O)C1 (nonaromatic ring conformer: 110.25787537537025 kcal/mol)

>  <smiles>  (28) 
CCN1CCN(c2cc(C(=O)Nc3ccc(CN4CCN(C)CC4)c(C(F)(F)F)c3)ccc2C)C(=O)C1

>  <score_type>  (28) 
oracle

>  <origin>  (28) 
adg

>  <m_score__min__energy>  (28) 
-9.3399999999999999

>  <m_primary>  (28) 
energy

$$$$
28:0
     RDKit          3D

 38 40  0  0  0  0  0  0  0  0999 V2000
   62.8110   33.8150   46.4730 C   0  0  0  0  0  0  0  0  0  0  0  0
   61.4570   33.7950   46.0390 O   0  0  0  0  0  0  0  0  0  0  0  0
   60.3650   33.4460   46.8510 C   0  0  0  0  0  0  0  0  0  0  0  0
   60.4630   33.4070   48.2570 C   0  0  0  0  0  0  0  0  0  0  0  0
   59.3570   33.0480   49.0310 C   0  0  0  0  0  0  0  0  0  0  0  0
   58.1500   32.7120   48.4150 C   0  0  0  0  0  0  0  0  0  0  0  0
   58.0430   32.7440   47.0230 C   0  0  0  0  0  0  0  0  0  0  0  0
   59.1400   33.1370   46.2360 C   0  0  0  0  0  0  0  0  0  0  0  0
   59.0570   33.1480   44.8000 N   0  0  0  0  0  0  0  0  0  0  0  0
   58.4080   32.3070   44.0410 C   0  0  0  0  0  0  0  0  0  0  0  0
   58.1450   32.6950   42.6190 C   0  0  0  0  0  0  0  0  0  0  0  0
   57.8990   31.0040   44.5420 C   0  0  0  0  0  0  0  0  0  0  0  0
   56.6350   30.6370   44.2800 C   0  0  0  0  0  0  0  0  0  0  0  0
   56.0900   29.3530   44.7510 C   0  0  0  0  0  0  0  0  0  0  0  0
   54.8900   29.0700   44.4880 O   0  0  0  0  0  0  0  0  0  0  0  0
   56.9500   28.4170   45.5210 C   0  0  0  0  0  0  0  0  0  0  0  0
   56.4720   27.1720   45.9880 C   0  0  0  0  0  0  0  0  0  0  0  0
   55.1650   26.7640   45.7460 O   0  0  0  0  0  0  0  0  0  0  0  0
   57.3190   26.3220   46.7070 C   0  0  0  0  0  0  0  0  0  0  0  0
   58.6360   26.6960   46.9690 C   0  0  0  0  0  0  0  0  0  0  0  0
   59.1200   27.9230   46.5140 C   0  0  0  0  0  0  0  0  0  0  0  0
   58.2850   28.7920   45.7890 C   0  0  0  0  0  0  0  0  0  0  0  0
   58.7910   30.0990   45.3070 C   0  0  0  0  0  0  0  0  0  0  0  0
   59.9740   30.4530   45.5620 O   0  0  0  0  0  0  0  0  0  0  0  0
   62.8436   33.8155   47.5725 H   0  0  0  0  0  0  0  0  0  0  0  0
   63.3316   32.9244   46.0911 H   0  0  0  0  0  0  0  0  0  0  0  0
   63.3051   34.7205   46.0911 H   0  0  0  0  0  0  0  0  0  0  0  0
   61.4148   33.6605   48.7467 H   0  0  0  0  0  0  0  0  0  0  0  0
   59.4372   33.0300   50.1279 H   0  0  0  0  0  0  0  0  0  0  0  0
   57.2828   32.4219   49.0265 H   0  0  0  0  0  0  0  0  0  0  0  0
   57.0963   32.4605   46.5400 H   0  0  0  0  0  0  0  0  0  0  0  0
   57.5279   33.6053   42.5954 H   0  0  0  0  0  0  0  0  0  0  0  0
   59.1004   32.8863   42.1084 H   0  0  0  0  0  0  0  0  0  0  0  0
   57.6135   31.8784   42.1084 H   0  0  0  0  0  0  0  0  0  0  0  0
   55.9900   31.3124   43.6988 H   0  0  0  0  0  0  0  0  0  0  0  0
   56.9436   25.3530   47.0677 H   0  0  0  0  0  0  0  0  0  0  0  0
   59.2953   26.0222   47.5358 H   0  0  0  0  0  0  0  0  0  0  0  0
   60.1604   28.2123   46.7235 H   0  0  0  0  0  0  0  0  0  0  0  0
  1  2  1  0
  2  3  1  0
  3  4  2  0
  4  5  1  0
  5  6  2  0
  6  7  1  0
  7  8  2  0
  8  9  1  0
  9 10  2  3
 10 11  1  0
 10 12  1  0
 12 13  2  0
 13 14  1  0
 14 15  2  0
 14 16  1  0
 16 17  2  0
 17 18  1  0
 17 19  1  0
 19 20  2  0
 20 21  1  0
 21 22  2  0
 22 23  1  0
 23 24  2  0
  8  3  1  0
 23 12  1  0
 22 16  1  0
  1 25  1  0
  1 26  1  0
  1 27  1  0
  4 28  1  0
  5 29  1  0
  6 30  1  0
  7 31  1  0
 11 32  1  0
 11 33  1  0
 11 34  1  0
 13 35  1  0
 19 36  1  0
 20 37  1  0
 21 38  1  0
M  CHG  1  18  -1
M  END
>  <UniqueID>  (29) 
26

>  <SMILES>  (29) 
COc1ccccc1N=C(C)C1=CC(=O)c2c([O-])cccc2C1=O

>  <Energy>  (29) 
53.85200068783456

>  <Genealogy>  (29) 
COc1ccccc1N=C(C)C1=CC(=O)c2c([O-])cccc2C1=O (protonated)
COc1ccccc1N=C(C)C1=CC(=O)c2c([O-])cccc2C1=O (3D coordinates assigned)
COc1ccccc1N=C(C)C1=CC(=O)c2c([O-])cccc2C1=O (nonaromatic ring conformer: 53.85200068783456 kcal/mol)

>  <smiles>  (29) 
COc1ccccc1N=C(C)C1=CC(=O)c2c(O)cccc2C1=O

>  <score_type>  (29) 
oracle

>  <origin>  (29) 
adg

>  <m_score__min__energy>  (29) 
-11.529999999999999

>  <m_primary>  (29) 
energy

$$$$
29:0
     RDKit          3D

 45 48  0  0  0  0  0  0  0  0999 V2000
   56.7860   30.8650   45.0270 N   0  0  0  0  0  0  0  0  0  0  0  0
   57.4500   32.4420   44.7860 S   0  0  0  0  0  0  0  0  0  0  0  0
   57.6770   32.6770   43.3200 O   0  0  0  0  0  0  0  0  0  0  0  0
   56.4780   33.4610   45.3130 O   0  0  0  0  0  0  0  0  0  0  0  0
   58.9800   32.5750   45.6460 C   0  0  0  0  0  0  0  0  0  0  0  0
   59.6920   33.7810   45.6460 C   0  0  0  0  0  0  0  0  0  0  0  0
   60.8900   33.8890   46.3580 C   0  0  0  0  0  0  0  0  0  0  0  0
   61.3770   32.7970   47.0820 C   0  0  0  0  0  0  0  0  0  0  0  0
   60.6730   31.5820   47.0900 C   0  0  0  0  0  0  0  0  0  0  0  0
   61.1630   30.4210   47.9220 C   0  0  0  0  0  0  0  0  0  0  0  0
   60.6240   29.1590   47.4120 N   0  0  0  0  0  0  0  0  0  0  0  0
   60.5610   28.7880   46.0310 C   0  0  0  0  0  0  0  0  0  0  0  0
   61.3110   29.2610   45.1360 O   0  0  0  0  0  0  0  0  0  0  0  0
   59.4680   27.8490   45.8070 C   0  0  0  0  0  0  0  0  0  0  0  0
   58.9710   27.3010   44.6270 C   0  0  0  0  0  0  0  0  0  0  0  0
   57.7940   26.5340   44.6990 C   0  0  0  0  0  0  0  0  0  0  0  0
   57.1210   26.3580   45.9350 C   0  0  0  0  0  0  0  0  0  0  0  0
   55.8200   25.6550   45.9750 C   0  0  0  0  0  0  0  0  0  0  0  0
   54.7540   26.3210   45.9220 O   0  0  0  0  0  0  0  0  0  0  0  0
   55.7410   24.2230   46.0420 N   0  0  0  0  0  0  0  0  0  0  0  0
   56.0410   23.3140   44.9710 C   0  0  0  0  0  0  0  0  0  0  0  0
   56.2780   23.8220   43.6890 C   0  0  0  0  0  0  0  0  0  0  0  0
   56.5780   22.9520   42.6390 C   0  0  0  0  0  0  0  0  0  0  0  0
   56.6200   21.5770   42.8780 C   0  0  0  0  0  0  0  0  0  0  0  0
   56.3590   21.0960   44.1220 N   0  0  0  0  0  0  0  0  0  0  0  0
   56.0670   21.9220   45.1610 C   0  0  0  0  0  0  0  0  0  0  0  0
   57.6720   26.9020   47.1160 C   0  0  0  0  0  0  0  0  0  0  0  0
   58.8480   27.6380   47.0160 C   0  0  0  0  0  0  0  0  0  0  0  0
   59.5530   28.4270   48.0180 C   0  0  0  0  0  0  0  0  0  0  0  0
   59.2350   28.5160   49.2340 O   0  0  0  0  0  0  0  0  0  0  0  0
   59.4860   31.4720   46.3460 C   0  0  0  0  0  0  0  0  0  0  0  0
   57.2660   30.4540   45.8580 H   0  0  0  0  0  0  0  0  0  0  0  0
   59.3076   34.6452   45.0844 H   0  0  0  0  0  0  0  0  0  0  0  0
   61.4507   34.8353   46.3485 H   0  0  0  0  0  0  0  0  0  0  0  0
   62.3157   32.8898   47.6479 H   0  0  0  0  0  0  0  0  0  0  0  0
   62.2618   30.3868   47.8836 H   0  0  0  0  0  0  0  0  0  0  0  0
   60.8231   30.5589   48.9590 H   0  0  0  0  0  0  0  0  0  0  0  0
   59.4836   27.4631   43.6673 H   0  0  0  0  0  0  0  0  0  0  0  0
   57.3918   26.0664   43.7882 H   0  0  0  0  0  0  0  0  0  0  0  0
   56.2280   24.9059   43.5085 H   0  0  0  0  0  0  0  0  0  0  0  0
   56.7795   23.3464   41.6321 H   0  0  0  0  0  0  0  0  0  0  0  0
   56.8642   20.8834   42.0599 H   0  0  0  0  0  0  0  0  0  0  0  0
   55.8504   21.4997   46.1534 H   0  0  0  0  0  0  0  0  0  0  0  0
   57.1839   26.7477   48.0896 H   0  0  0  0  0  0  0  0  0  0  0  0
   58.9498   30.5121   46.3130 H   0  0  0  0  0  0  0  0  0  0  0  0
  1  2  1  0
  2  3  2  0
  2  4  2  0
  2  5  1  0
  5  6  2  0
  6  7  1  0
  7  8  2  0
  8  9  1  0
  9 10  1  0
 10 11  1  0
 11 12  1  0
 12 13  2  0
 12 14  1  0
 14 15  2  0
 15 16  1  0
 16 17  2  0
 17 18  1  0
 18 19  2  0
 18 20  1  0
 20 21  1  0
 21 22  2  0
 22 23  1  0
 23 24  2  0
 24 25  1  0
 25 26  2  0
 17 27  1  0
 27 28  2  0
 28 29  1  0
 29 30  2  0
  9 31  2  0
 31  5  1  0
 29 11  1  0
 28 14  1  0
 26 21  1  0
  1 32  1  0
  6 33  1  0
  7 34  1  0
  8 35  1  0
 10 36  1  0
 10 37  1  0
 15 38  1  0
 16 39  1  0
 22 40  1  0
 23 41  1  0
 24 42  1  0
 26 43  1  0
 27 44  1  0
 31 45  1  0
M  CHG  2   1  -1  20  -1
M  END
>  <UniqueID>  (30) 
27

>  <SMILES>  (30) 
[NH-]S(=O)(=O)c1cccc(CN2C(=O)c3ccc(C(=O)[N-]c4cccnc4)cc3C2=O)c1

>  <Energy>  (30) 
87.51671484065545

>  <Genealogy>  (30) 
[NH-]S(=O)(=O)c1cccc(CN2C(=O)c3ccc(C(=O)[N-]c4cccnc4)cc3C2=O)c1 (protonated)
[NH-]S(=O)(=O)c1cccc(CN2C(=O)c3ccc(C(=O)[N-]c4cccnc4)cc3C2=O)c1 (3D coordinates assigned)
[NH-]S(=O)(=O)c1cccc(CN2C(=O)c3ccc(C(=O)[N-]c4cccnc4)cc3C2=O)c1 (nonaromatic ring conformer: 87.51671484065545 kcal/mol)

>  <smiles>  (30) 
NS(=O)(=O)c1cccc(CN2C(=O)c3ccc(C(=O)Nc4cccnc4)cc3C2=O)c1

>  <score_type>  (30) 
oracle

>  <origin>  (30) 
adg

>  <m_score__min__energy>  (30) 
-13.17

>  <m_primary>  (30) 
energy

$$$$
30:0
     RDKit          3D

 59 63  0  0  0  0  0  0  0  0999 V2000
   64.5250   32.4540   47.1120 H   0  0  0  0  0  0  0  0  0  0  0  0
   63.8790   31.7900   46.7580 O   0  0  0  0  0  0  0  0  0  0  0  0
   62.6300   32.1130   47.3140 C   0  0  2  0  0  0  0  0  0  0  0  0
   61.9150   31.3711   46.9287 H   0  0  0  0  0  0  0  0  0  0  0  0
   62.2100   33.5360   46.9400 C   0  0  0  0  0  0  0  0  0  0  0  0
   63.0689   34.0804   46.5206 H   0  0  0  0  0  0  0  0  0  0  0  0
   61.4092   33.5118   46.1862 H   0  0  0  0  0  0  0  0  0  0  0  0
   61.7430   34.2060   48.1560 N   0  0  0  0  0  0  0  0  0  0  0  0
   60.2680   34.2820   48.2810 C   0  0  0  0  0  0  0  0  0  0  0  0
   60.0024   35.3065   48.5809 H   0  0  0  0  0  0  0  0  0  0  0  0
   59.9810   33.5236   49.0243 H   0  0  0  0  0  0  0  0  0  0  0  0
   59.5030   33.9480   47.0130 C   0  0  0  0  0  0  0  0  0  0  0  0
   59.2490   34.9460   46.0550 C   0  0  0  0  0  0  0  0  0  0  0  0
   59.5855   35.9771   46.2380 H   0  0  0  0  0  0  0  0  0  0  0  0
   58.5730   34.6370   44.8740 C   0  0  0  0  0  0  0  0  0  0  0  0
   58.3702   35.4264   44.1353 H   0  0  0  0  0  0  0  0  0  0  0  0
   58.1540   33.3300   44.6280 C   0  0  0  0  0  0  0  0  0  0  0  0
   57.6169   33.0944   43.6974 H   0  0  0  0  0  0  0  0  0  0  0  0
   58.4130   32.3130   45.5600 C   0  0  0  0  0  0  0  0  0  0  0  0
   58.0220   30.9140   45.2640 C   0  0  0  0  0  0  0  0  0  0  0  0
   56.8050   30.6110   45.1210 O   0  0  0  0  0  0  0  0  0  0  0  0
   59.0120   29.8940   45.1000 N   0  0  0  0  0  0  0  0  0  0  0  0
   59.0940   28.8400   45.8510 C   0  0  0  0  0  0  0  0  0  0  0  0
   58.0810   27.9260   45.8940 N   0  0  0  0  0  0  0  0  0  0  0  0
   58.1870   26.7870   46.6340 C   0  0  0  0  0  0  0  0  0  0  0  0
   57.1130   25.8310   46.6350 N   0  0  0  0  0  0  0  0  0  0  0  0
   57.0390   24.6850   47.5490 C   0  0  0  0  0  0  0  0  0  0  0  0
   57.9572   24.0812   47.5005 H   0  0  0  0  0  0  0  0  0  0  0  0
   56.9357   24.9789   48.6040 H   0  0  0  0  0  0  0  0  0  0  0  0
   55.8740   23.9240   47.0390 C   0  0  0  0  0  0  0  0  0  0  0  0
   55.3420   22.7390   47.5470 C   0  0  0  0  0  0  0  0  0  0  0  0
   55.8082   22.2336   48.4056 H   0  0  0  0  0  0  0  0  0  0  0  0
   54.1940   22.2070   46.9330 C   0  0  0  0  0  0  0  0  0  0  0  0
   53.7583   21.2711   47.3129 H   0  0  0  0  0  0  0  0  0  0  0  0
   53.5930   22.8620   45.8320 C   0  0  0  0  0  0  0  0  0  0  0  0
   52.4380   22.2960   45.2680 O   0  0  0  0  0  0  0  0  0  0  0  0
   51.1190   22.7840   45.4810 C   0  0  0  0  0  0  0  0  0  0  0  0
   50.9246   22.8559   46.5613 H   0  0  0  0  0  0  0  0  0  0  0  0
   51.0178   23.7791   45.0232 H   0  0  0  0  0  0  0  0  0  0  0  0
   50.3945   22.0944   45.0232 H   0  0  0  0  0  0  0  0  0  0  0  0
   54.1630   24.0620   45.3440 C   0  0  0  0  0  0  0  0  0  0  0  0
   53.7098   24.5898   44.4919 H   0  0  0  0  0  0  0  0  0  0  0  0
   55.3070   24.5640   45.9600 C   0  0  0  0  0  0  0  0  0  0  0  0
   56.0590   25.7960   45.6230 C   0  0  0  0  0  0  0  0  0  0  0  0
   56.4857   25.7334   44.6111 H   0  0  0  0  0  0  0  0  0  0  0  0
   55.4305   26.6988   45.6232 H   0  0  0  0  0  0  0  0  0  0  0  0
   59.3550   26.5580   47.3750 C   0  0  0  0  0  0  0  0  0  0  0  0
   59.4669   25.6442   47.9770 H   0  0  0  0  0  0  0  0  0  0  0  0
   60.3730   27.5120   47.3340 C   0  0  0  0  0  0  0  0  0  0  0  0
   61.2923   27.3621   47.9192 H   0  0  0  0  0  0  0  0  0  0  0  0
   60.2270   28.6250   46.5710 N   0  0  0  0  0  0  0  0  0  0  0  0
   59.0900   32.6310   46.7520 C   0  0  0  0  0  0  0  0  0  0  0  0
   59.2980   31.8397   47.4873 H   0  0  0  0  0  0  0  0  0  0  0  0
   62.4030   33.5230   49.2730 C   0  0  0  0  0  0  0  0  0  0  0  0
   63.3379   34.0429   49.5294 H   0  0  0  0  0  0  0  0  0  0  0  0
   61.7523   33.5208   50.1599 H   0  0  0  0  0  0  0  0  0  0  0  0
   62.7070   32.0980   48.8340 C   0  0  0  0  0  0  0  0  0  0  0  0
   63.7131   31.8007   49.1646 H   0  0  0  0  0  0  0  0  0  0  0  0
   61.9993   31.3778   49.2704 H   0  0  0  0  0  0  0  0  0  0  0  0
  1  2  1  0
  2  3  1  0
  3  4  1  1
  3  5  1  0
  5  6  1  0
  5  7  1  0
  5  8  1  0
  8  9  1  0
  9 10  1  0
  9 11  1  0
  9 12  1  0
 12 13  2  0
 13 14  1  0
 13 15  1  0
 15 16  1  0
 15 17  2  0
 17 18  1  0
 17 19  1  0
 19 20  1  0
 20 21  2  0
 20 22  1  0
 22 23  2  0
 23 24  1  0
 24 25  2  0
 25 26  1  0
 26 27  1  0
 27 28  1  0
 27 29  1  0
 27 30  1  0
 30 31  2  0
 31 32  1  0
 31 33  1  0
 33 34  1  0
 33 35  2  0
 35 36  1  0
 36 37  1  0
 37 38  1  0
 37 39  1  0
 37 40  1  0
 35 41  1  0
 41 42  1  0
 41 43  2  0
 43 44  1  0
 44 45  1  0
 44 46  1  0
 25 47  1  0
 47 48  1  0
 47 49  2  0
 49 50  1  0
 49 51  1  0
 19 52  2  0
 52 53  1  0
  8 54  1  0
 54 55  1  0
 54 56  1  0
 54 57  1  0
 57 58  1  0
 57 59  1  0
 57  3  1  0
 52 12  1  0
 51 23  1  0
 44 26  1  0
 43 30  1  0
M  CHG  1  51  -1
M  END
>  <UniqueID>  (31) 
28

>  <SMILES>  (31) 
COc1ccc2c(c1)CN(c1cc[n-]/c(=N/C(=O)c3cccc(CN4CC[C@H](O)C4)c3)n1)C2

>  <Energy>  (31) 
87.45534562420224

>  <Genealogy>  (31) 
COc1ccc2c(c1)CN(c1cc[n-]c(=NC(=O)c3cccc(CN4CCC(O)C4)c3)n1)C2 (protonated)
COc1ccc2c(c1)CN(c1cc[n-]c(=NC(=O)c3cccc(CN4CC[C@H](O)C4)c3)n1)C2 (chirality)
COc1ccc2c(c1)CN(c1cc[n-]/c(=N/C(=O)c3cccc(CN4CC[C@H](O)C4)c3)n1)C2 (cis-trans isomerization)
COc1ccc2c(c1)CN(c1cc[n-]/c(=N/C(=O)c3cccc(CN4CC[C@H](O)C4)c3)n1)C2 (3D coordinates assigned)
COc1ccc2c(c1)CN(c1cc[n-]/c(=N/C(=O)c3cccc(CN4CC[C@H](O)C4)c3)n1)C2 (nonaromatic ring conformer: 87.45534562420224 kcal/mol)

>  <smiles>  (31) 
COc1ccc2c(c1)CN(c1cc[nH]c(=NC(=O)c3cccc(CN4CCC(O)C4)c3)n1)C2

>  <score_type>  (31) 
oracle

>  <origin>  (31) 
adg

>  <m_score__min__energy>  (31) 
-11.48

>  <m_primary>  (31) 
energy

$$$$
31:0
     RDKit          3D

 63 66  0  0  0  0  0  0  0  0999 V2000
   51.3750   32.3100   51.5820 C   0  0  0  0  0  0  0  0  0  0  0  0
   52.4510   31.5510   52.2030 N   0  0  0  0  0  0  0  0  0  0  0  0
   53.3730   30.7150   51.4890 C   0  0  0  0  0  0  0  0  0  0  0  0
   52.9730   30.1100   50.4550 O   0  0  0  0  0  0  0  0  0  0  0  0
   54.7470   30.4690   51.9720 C   0  0  0  0  0  0  0  0  0  0  0  0
   55.6730   31.5200   52.0040 C   0  0  0  0  0  0  0  0  0  0  0  0
   56.9760   31.3060   52.4670 C   0  0  0  0  0  0  0  0  0  0  0  0
   57.3690   30.0340   52.9210 C   0  0  0  0  0  0  0  0  0  0  0  0
   58.7770   29.8100   53.4360 C   0  0  0  0  0  0  0  0  0  0  0  0
   59.8980   30.0430   52.3870 C   0  0  0  0  0  0  0  0  0  0  0  0
   60.2960   31.5260   52.2150 C   0  0  0  0  0  0  0  0  0  0  0  0
   59.6230   32.2150   51.0110 C   0  0  0  0  0  0  0  0  0  0  0  0
   59.6410   31.4340   49.7350 N   0  0  0  0  0  0  0  0  0  0  0  0
   60.1750   32.2360   48.5890 C   0  0  0  0  0  0  0  0  0  0  0  0
   60.9860   31.4050   47.5700 C   0  0  0  0  0  0  0  0  0  0  0  0
   60.1400   30.2870   46.9480 C   0  0  0  0  0  0  0  0  0  0  0  0
   58.8210   30.7640   46.4970 N   0  0  0  0  0  0  0  0  0  0  0  0
   58.0730   29.9420   45.5850 C   0  0  0  0  0  0  0  0  0  0  0  0
   57.5780   30.4700   44.5480 O   0  0  0  0  0  0  0  0  0  0  0  0
   57.8910   28.4870   45.8240 C   0  0  0  0  0  0  0  0  0  0  0  0
   58.9990   27.7040   46.1910 C   0  0  0  0  0  0  0  0  0  0  0  0
   58.8560   26.3320   46.4190 C   0  0  0  0  0  0  0  0  0  0  0  0
   59.9570   25.5710   46.7930 O   0  0  0  0  0  0  0  0  0  0  0  0
   57.6070   25.7260   46.2770 C   0  0  0  0  0  0  0  0  0  0  0  0
   56.5020   26.4870   45.8910 C   0  0  0  0  0  0  0  0  0  0  0  0
   56.6370   27.8590   45.6540 C   0  0  0  0  0  0  0  0  0  0  0  0
   55.5260   28.5770   45.2310 O   0  0  0  0  0  0  0  0  0  0  0  0
   58.0900   31.8380   47.1850 C   0  0  0  0  0  0  0  0  0  0  0  0
   59.0280   32.8910   47.7820 C   0  0  0  0  0  0  0  0  0  0  0  0
   60.2750   30.1000   49.8830 C   0  0  0  0  0  0  0  0  0  0  0  0
   59.6180   29.3470   51.0390 C   0  0  0  0  0  0  0  0  0  0  0  0
   56.4210   28.9930   52.9380 C   0  0  0  0  0  0  0  0  0  0  0  0
   55.1250   29.2080   52.4560 C   0  0  0  0  0  0  0  0  0  0  0  0
   50.7425   32.7562   52.3636 H   0  0  0  0  0  0  0  0  0  0  0  0
   51.8024   33.1076   50.9566 H   0  0  0  0  0  0  0  0  0  0  0  0
   50.7670   31.6397   50.9566 H   0  0  0  0  0  0  0  0  0  0  0  0
   55.3732   32.5217   51.6623 H   0  0  0  0  0  0  0  0  0  0  0  0
   57.6968   32.1369   52.4760 H   0  0  0  0  0  0  0  0  0  0  0  0
   58.9472   30.4978   54.2774 H   0  0  0  0  0  0  0  0  0  0  0  0
   58.8369   28.7499   53.7235 H   0  0  0  0  0  0  0  0  0  0  0  0
   60.7849   29.5505   52.8122 H   0  0  0  0  0  0  0  0  0  0  0  0
   60.0127   32.0694   53.1285 H   0  0  0  0  0  0  0  0  0  0  0  0
   61.3804   31.5476   52.0317 H   0  0  0  0  0  0  0  0  0  0  0  0
   58.5732   32.4108   51.2747 H   0  0  0  0  0  0  0  0  0  0  0  0
   60.2065   33.1272   50.8175 H   0  0  0  0  0  0  0  0  0  0  0  0
   60.8305   32.9804   49.0646 H   0  0  0  0  0  0  0  0  0  0  0  0
   61.3412   32.0706   46.7695 H   0  0  0  0  0  0  0  0  0  0  0  0
   61.8304   30.9410   48.1007 H   0  0  0  0  0  0  0  0  0  0  0  0
   60.6808   29.8744   46.0835 H   0  0  0  0  0  0  0  0  0  0  0  0
   59.9733   29.5232   47.7218 H   0  0  0  0  0  0  0  0  0  0  0  0
   59.9872   28.1747   46.2998 H   0  0  0  0  0  0  0  0  0  0  0  0
   57.4931   24.6489   46.4692 H   0  0  0  0  0  0  0  0  0  0  0  0
   55.5202   26.0053   45.7726 H   0  0  0  0  0  0  0  0  0  0  0  0
   57.4210   32.3291   46.4630 H   0  0  0  0  0  0  0  0  0  0  0  0
   57.5251   31.3835   48.0122 H   0  0  0  0  0  0  0  0  0  0  0  0
   59.4608   33.4882   46.9658 H   0  0  0  0  0  0  0  0  0  0  0  0
   58.4444   33.5261   48.4647 H   0  0  0  0  0  0  0  0  0  0  0  0
   60.1457   29.5277   48.9525 H   0  0  0  0  0  0  0  0  0  0  0  0
   61.3478   30.2259   50.0911 H   0  0  0  0  0  0  0  0  0  0  0  0
   58.5313   29.3108   50.8725 H   0  0  0  0  0  0  0  0  0  0  0  0
   60.0378   28.3310   51.0770 H   0  0  0  0  0  0  0  0  0  0  0  0
   56.7008   28.0050   53.3325 H   0  0  0  0  0  0  0  0  0  0  0  0
   54.3979   28.3826   52.4567 H   0  0  0  0  0  0  0  0  0  0  0  0
  1  2  1  0
  2  3  1  0
  3  4  2  0
  3  5  1  0
  5  6  2  0
  6  7  1  0
  7  8  2  0
  8  9  1  0
  9 10  1  0
 10 11  1  0
 11 12  1  0
 12 13  1  0
 13 14  1  0
 14 15  1  0
 15 16  1  0
 16 17  1  0
 17 18  1  0
 18 19  2  0
 18 20  1  0
 20 21  2  0
 21 22  1  0
 22 23  1  0
 22 24  2  0
 24 25  1  0
 25 26  2  0
 26 27  1  0
 17 28  1  0
 28 29  1  0
 13 30  1  0
 30 31  1  0
  8 32  1  0
 32 33  2  0
 33  5  1  0
 31 10  1  0
 29 14  1  0
 26 20  1  0
  1 34  1  0
  1 35  1  0
  1 36  1  0
  6 37  1  0
  7 38  1  0
  9 39  1  0
  9 40  1  0
 10 41  1  0
 11 42  1  0
 11 43  1  0
 12 44  1  0
 12 45  1  0
 14 46  1  0
 15 47  1  0
 15 48  1  0
 16 49  1  0
 16 50  1  0
 21 51  1  0
 24 52  1  0
 25 53  1  0
 28 54  1  0
 28 55  1  0
 29 56  1  0
 29 57  1  0
 30 58  1  0
 30 59  1  0
 31 60  1  0
 31 61  1  0
 32 62  1  0
 33 63  1  0
M  CHG  3   2  -1  23  -1  27  -1
M  END
>  <UniqueID>  (32) 
29

>  <SMILES>  (32) 
C[N-]C(=O)c1ccc(CC2CCN(C3CCN(C(=O)c4cc([O-])ccc4[O-])CC3)CC2)cc1

>  <Energy>  (32) 
88.27811039232472

>  <Genealogy>  (32) 
C[N-]C(=O)c1ccc(CC2CCN(C3CCN(C(=O)c4cc([O-])ccc4[O-])CC3)CC2)cc1 (protonated)
C[N-]C(=O)c1ccc(CC2CCN(C3CCN(C(=O)c4cc([O-])ccc4[O-])CC3)CC2)cc1 (3D coordinates assigned)
C[N-]C(=O)c1ccc(CC2CCN(C3CCN(C(=O)c4cc([O-])ccc4[O-])CC3)CC2)cc1 (nonaromatic ring conformer: 88.27811039232472 kcal/mol)

>  <smiles>  (32) 
CNC(=O)c1ccc(CC2CCN(C3CCN(C(=O)c4cc(O)ccc4O)CC3)CC2)cc1

>  <score_type>  (32) 
oracle

>  <origin>  (32) 
adg

>  <m_score__min__energy>  (32) 
-16.469999999999999

>  <m_primary>  (32) 
energy

$$$$
32:0
     RDKit          3D

 37 40  0  0  0  0  0  0  0  0999 V2000
   57.4087   25.6519   42.7279 H   0  0  0  0  0  0  0  0  0  0  0  0
   57.7870   26.6790   42.8370 C   0  0  0  0  0  0  0  0  0  0  0  0
   57.9440   27.3048   41.9461 H   0  0  0  0  0  0  0  0  0  0  0  0
   58.0560   27.1670   44.0530 C   0  0  0  0  0  0  0  0  0  0  0  0
   58.0610   26.4870   45.2800 C   0  0  0  0  0  0  0  0  0  0  0  0
   57.6460   25.2480   45.6070 C   0  0  0  0  0  0  0  0  0  0  0  0
   58.4191   24.5092   45.8650 H   0  0  0  0  0  0  0  0  0  0  0  0
   56.2450   24.8000   45.6480 C   0  0  0  0  0  0  0  0  0  0  0  0
   55.1360   25.6050   45.7690 C   0  0  0  0  0  0  0  0  0  0  0  0
   55.1520   26.9750   46.0020 O   0  0  0  0  0  0  0  0  0  0  0  0
   54.0080   24.8850   45.6200 N   0  0  0  0  0  0  0  0  0  0  0  0
   54.4770   23.6410   45.3840 C   0  0  0  0  0  0  0  0  0  0  0  0
   53.7240   22.6540   45.1740 O   0  0  0  0  0  0  0  0  0  0  0  0
   55.8220   23.5520   45.3780 N   0  0  0  0  0  0  0  0  0  0  0  0
   56.4030   22.7090   45.1710 H   0  0  0  0  0  0  0  0  0  0  0  0
   58.6150   27.3640   46.2010 C   0  0  0  0  0  0  0  0  0  0  0  0
   58.8209   27.1602   47.2621 H   0  0  0  0  0  0  0  0  0  0  0  0
   58.8570   28.5420   45.5250 C   0  0  0  0  0  0  0  0  0  0  0  0
   59.5120   29.7570   46.1050 C   0  0  0  0  0  0  0  0  0  0  0  0
   59.6103   29.6333   47.1936 H   0  0  0  0  0  0  0  0  0  0  0  0
   60.5068   29.8818   45.6525 H   0  0  0  0  0  0  0  0  0  0  0  0
   58.6830   30.9740   45.8160 C   0  0  0  0  0  0  0  0  0  0  0  0
   59.0260   32.2510   45.9270 C   0  0  0  0  0  0  0  0  0  0  0  0
   60.2080   32.8110   46.4210 C   0  0  0  0  0  0  0  0  0  0  0  0
   61.0211   32.1725   46.7967 H   0  0  0  0  0  0  0  0  0  0  0  0
   60.3300   34.2100   46.4250 C   0  0  0  0  0  0  0  0  0  0  0  0
   61.2477   34.6768   46.8121 H   0  0  0  0  0  0  0  0  0  0  0  0
   59.2860   35.0200   45.9370 C   0  0  0  0  0  0  0  0  0  0  0  0
   59.3942   36.1146   45.9480 H   0  0  0  0  0  0  0  0  0  0  0  0
   58.1070   34.4410   45.4360 C   0  0  0  0  0  0  0  0  0  0  0  0
   57.2894   35.0689   45.0521 H   0  0  0  0  0  0  0  0  0  0  0  0
   58.0000   33.0500   45.4380 C   0  0  0  0  0  0  0  0  0  0  0  0
   56.9830   32.3830   44.9880 N   0  0  0  0  0  0  0  0  0  0  0  0
   57.3690   31.0280   45.1960 C   0  0  0  0  0  0  0  0  0  0  0  0
   56.6630   30.0380   44.8710 O   0  0  0  0  0  0  0  0  0  0  0  0
   58.5210   28.4210   44.2280 N   0  0  0  0  0  0  0  0  0  0  0  0
   58.6610   29.1460   43.4880 H   0  0  0  0  0  0  0  0  0  0  0  0
  1  2  1  0
  2  3  1  0
  2  4  2  0
  4  5  1  0
  5  6  2  0
  6  7  1  0
  6  8  1  0
  8  9  2  0
  9 10  1  0
  9 11  1  0
 11 12  1  0
 12 13  2  0
 12 14  1  0
 14 15  1  0
  5 16  1  0
 16 17  1  0
 16 18  2  0
 18 19  1  0
 19 20  1  0
 19 21  1  0
 19 22  1  0
 22 23  2  0
 23 24  1  0
 24 25  1  0
 24 26  2  0
 26 27  1  0
 26 28  1  0
 28 29  1  0
 28 30  2  0
 30 31  1  0
 30 32  1  0
 32 33  2  0
 33 34  1  0
 34 35  2  0
 18 36  1  0
 36 37  1  0
 36  4  1  0
 14  8  1  0
 34 22  1  0
 32 23  1  0
M  CHG  2  10  -1  11  -1
M  END
>  <UniqueID>  (33) 
30

>  <SMILES>  (33) 
C=c1[nH]c(CC2=c3ccccc3=NC2=O)c/c1=C/c1[nH]c(=O)[n-]c1[O-]

>  <Energy>  (33) 
139.24314981665142

>  <Genealogy>  (33) 
C=c1[nH]c(CC2=c3ccccc3=NC2=O)cc1=Cc1[nH]c(=O)[n-]c1[O-] (protonated)
C=c1[nH]c(CC2=c3ccccc3=NC2=O)c/c1=C/c1[nH]c(=O)[n-]c1[O-] (cis-trans isomerization)
C=c1[nH]c(CC2=c3ccccc3=NC2=O)c/c1=C/c1[nH]c(=O)[n-]c1[O-] (3D coordinates assigned)
C=c1[nH]c(CC2=c3ccccc3=NC2=O)c/c1=C/c1[nH]c(=O)[n-]c1[O-] (nonaromatic ring conformer: 139.24314981665142 kcal/mol)

>  <smiles>  (33) 
C=c1[nH]c(CC2=c3ccccc3=NC2=O)cc1=Cc1[nH]c(=O)[nH]c1O

>  <score_type>  (33) 
oracle

>  <origin>  (33) 
adg

>  <m_score__min__energy>  (33) 
-14.970000000000001

>  <m_primary>  (33) 
energy

$$$$
33:0
     RDKit          3D

 52 55  0  0  0  0  0  0  0  0999 V2000
   62.6590   34.5800   50.1810 C   0  0  0  0  0  0  0  0  0  0  0  0
   61.6260   33.5650   50.4020 N   0  0  0  0  0  0  0  0  0  0  0  0
   61.8830   32.4740   51.3560 C   0  0  0  0  0  0  0  0  0  0  0  0
   61.7480   31.1360   50.6880 C   0  0  0  0  0  0  0  0  0  0  0  0
   62.7770   30.4380   50.4730 O   0  0  0  0  0  0  0  0  0  0  0  0
   60.4390   30.6090   50.4120 N   0  0  0  0  0  0  0  0  0  0  0  0
   60.2020   29.3810   49.7040 C   0  0  0  0  0  0  0  0  0  0  0  0
   60.9300   28.2130   50.0020 C   0  0  0  0  0  0  0  0  0  0  0  0
   60.7080   27.0390   49.2770 C   0  0  0  0  0  0  0  0  0  0  0  0
   59.7640   27.0200   48.2480 C   0  0  0  0  0  0  0  0  0  0  0  0
   59.0460   28.1750   47.9360 C   0  0  0  0  0  0  0  0  0  0  0  0
   59.2700   29.3560   48.6520 C   0  0  0  0  0  0  0  0  0  0  0  0
   58.5690   30.4740   48.3270 F   0  0  0  0  0  0  0  0  0  0  0  0
   60.3050   33.7840   49.8590 C   0  0  0  0  0  0  0  0  0  0  0  0
   59.4510   34.4090   50.5440 O   0  0  0  0  0  0  0  0  0  0  0  0
   59.9230   33.2890   48.5200 C   0  0  0  0  0  0  0  0  0  0  0  0
   60.8760   32.6670   47.7000 C   0  0  0  0  0  0  0  0  0  0  0  0
   60.5200   32.2040   46.4300 C   0  0  0  0  0  0  0  0  0  0  0  0
   59.2080   32.3410   45.9640 C   0  0  0  0  0  0  0  0  0  0  0  0
   58.8930   31.8610   44.6500 N   0  0  0  0  0  0  0  0  0  0  0  0
   57.4070   31.0890   44.1960 S   0  0  0  0  0  0  0  0  0  0  0  0
   56.2570   31.8140   44.8370 O   0  0  0  0  0  0  0  0  0  0  0  0
   57.2500   31.1580   42.7030 O   0  0  0  0  0  0  0  0  0  0  0  0
   57.4390   29.3990   44.6840 C   0  0  0  0  0  0  0  0  0  0  0  0
   58.6280   28.6330   44.5630 C   0  0  0  0  0  0  0  0  0  0  0  0
   58.6490   27.2800   44.9500 C   0  0  0  0  0  0  0  0  0  0  0  0
   57.4710   26.7350   45.4560 C   0  0  0  0  0  0  0  0  0  0  0  0
   57.2680   25.4800   45.8840 N   0  0  0  0  0  0  0  0  0  0  0  0
   55.9630   25.5170   46.2580 C   0  0  0  0  0  0  0  0  0  0  0  0
   55.3700   24.5140   46.7300 O   0  0  0  0  0  0  0  0  0  0  0  0
   55.3430   26.7130   46.0880 N   0  0  0  0  0  0  0  0  0  0  0  0
   56.3290   27.4670   45.5760 C   0  0  0  0  0  0  0  0  0  0  0  0
   56.2670   28.8050   45.1980 C   0  0  0  0  0  0  0  0  0  0  0  0
   58.2460   32.9500   46.7910 C   0  0  0  0  0  0  0  0  0  0  0  0
   58.6010   33.4110   48.0620 C   0  0  0  0  0  0  0  0  0  0  0  0
   63.0291   34.9437   51.1509 H   0  0  0  0  0  0  0  0  0  0  0  0
   63.4912   34.1386   49.6131 H   0  0  0  0  0  0  0  0  0  0  0  0
   62.2323   35.4199   49.6131 H   0  0  0  0  0  0  0  0  0  0  0  0
   62.9032   32.5765   51.7542 H   0  0  0  0  0  0  0  0  0  0  0  0
   61.1452   32.5370   52.1695 H   0  0  0  0  0  0  0  0  0  0  0  0
   59.6190   31.1010   50.8350 H   0  0  0  0  0  0  0  0  0  0  0  0
   61.6770   28.2247   50.8093 H   0  0  0  0  0  0  0  0  0  0  0  0
   61.2774   26.1290   49.5171 H   0  0  0  0  0  0  0  0  0  0  0  0
   59.5863   26.0933   47.6827 H   0  0  0  0  0  0  0  0  0  0  0  0
   58.3024   28.1570   47.1256 H   0  0  0  0  0  0  0  0  0  0  0  0
   61.9086   32.5429   48.0581 H   0  0  0  0  0  0  0  0  0  0  0  0
   61.2783   31.7276   45.7912 H   0  0  0  0  0  0  0  0  0  0  0  0
   59.5401   29.1006   44.1636 H   0  0  0  0  0  0  0  0  0  0  0  0
   59.5627   26.6747   44.8563 H   0  0  0  0  0  0  0  0  0  0  0  0
   55.3348   29.3805   45.2967 H   0  0  0  0  0  0  0  0  0  0  0  0
   57.2111   33.0637   46.4360 H   0  0  0  0  0  0  0  0  0  0  0  0
   57.8396   33.8725   48.7079 H   0  0  0  0  0  0  0  0  0  0  0  0
  1  2  1  0
  2  3  1  0
  3  4  1  0
  4  5  2  0
  4  6  1  0
  6  7  1  0
  7  8  2  0
  8  9  1  0
  9 10  2  0
 10 11  1  0
 11 12  2  0
 12 13  1  0
  2 14  1  0
 14 15  2  0
 14 16  1  0
 16 17  2  0
 17 18  1  0
 18 19  2  0
 19 20  1  0
 20 21  1  0
 21 22  2  0
 21 23  2  0
 21 24  1  0
 24 25  2  0
 25 26  1  0
 26 27  2  0
 27 28  1  0
 28 29  1  0
 29 30  2  0
 29 31  1  0
 31 32  1  0
 32 33  2  0
 19 34  1  0
 34 35  2  0
 12  7  1  0
 35 16  1  0
 33 24  1  0
 32 27  1  0
  1 36  1  0
  1 37  1  0
  1 38  1  0
  3 39  1  0
  3 40  1  0
  6 41  1  0
  8 42  1  0
  9 43  1  0
 10 44  1  0
 11 45  1  0
 17 46  1  0
 18 47  1  0
 25 48  1  0
 26 49  1  0
 33 50  1  0
 34 51  1  0
 35 52  1  0
M  CHG  3  20  -1  28  -1  31  -1
M  END
>  <UniqueID>  (34) 
31

>  <SMILES>  (34) 
CN(CC(=O)Nc1ccccc1F)C(=O)c1ccc([N-]S(=O)(=O)c2ccc3[n-]c(=O)[n-]c3c2)cc1

>  <Energy>  (34) 
102.00627968061858

>  <Genealogy>  (34) 
CN(CC(=O)Nc1ccccc1F)C(=O)c1ccc([N-]S(=O)(=O)c2ccc3[n-]c(=O)[n-]c3c2)cc1 (protonated)
CN(CC(=O)Nc1ccccc1F)C(=O)c1ccc([N-]S(=O)(=O)c2ccc3[n-]c(=O)[n-]c3c2)cc1 (3D coordinates assigned)
CN(CC(=O)Nc1ccccc1F)C(=O)c1ccc([N-]S(=O)(=O)c2ccc3[n-]c(=O)[n-]c3c2)cc1 (optimized conformer: 102.00627968061858 kcal/mol)

>  <smiles>  (34) 
CN(CC(=O)Nc1ccccc1F)C(=O)c1ccc(NS(=O)(=O)c2ccc3[nH]c(=O)[nH]c3c2)cc1

>  <score_type>  (34) 
oracle

>  <origin>  (34) 
adg

>  <m_score__min__energy>  (34) 
-14.119999999999999

>  <m_primary>  (34) 
energy

$$$$
34:0
     RDKit          3D

 46 48  0  0  0  0  0  0  0  0999 V2000
   57.4420   28.7000   43.7420 C   0  0  0  0  0  0  0  0  0  0  0  0
   56.7390   29.8800   44.3470 C   0  0  0  0  0  0  0  0  0  0  0  0
   55.5980   29.7010   44.8550 O   0  0  0  0  0  0  0  0  0  0  0  0
   57.3480   31.2370   44.3620 C   0  0  0  0  0  0  0  0  0  0  0  0
   57.8840   31.7830   43.1800 C   0  0  0  0  0  0  0  0  0  0  0  0
   58.4790   33.0470   43.1860 C   0  0  0  0  0  0  0  0  0  0  0  0
   58.5490   33.7850   44.3680 C   0  0  0  0  0  0  0  0  0  0  0  0
   58.0080   33.2700   45.5550 C   0  0  0  0  0  0  0  0  0  0  0  0
   58.1320   34.0420   46.8440 C   0  0  0  0  0  0  0  0  0  0  0  0
   59.2540   33.4840   47.7290 C   0  0  0  0  0  0  0  0  0  0  0  0
   59.7220   32.1880   47.2390 N   0  0  0  0  0  0  0  0  0  0  0  0
   59.3420   30.9480   47.8530 C   0  0  0  0  0  0  0  0  0  0  0  0
   58.8030   30.9440   48.9920 O   0  0  0  0  0  0  0  0  0  0  0  0
   59.5570   29.6770   47.1470 C   0  0  0  0  0  0  0  0  0  0  0  0
   59.3560   28.4090   47.6500 C   0  0  0  0  0  0  0  0  0  0  0  0
   59.6400   27.5650   46.6440 N   0  0  0  0  0  0  0  0  0  0  0  0
   59.6360   26.1090   46.7010 C   0  0  0  0  0  0  0  0  0  0  0  0
   58.3000   25.5840   46.2550 C   0  0  0  0  0  0  0  0  0  0  0  0
   58.1990   24.3140   45.6650 C   0  0  0  0  0  0  0  0  0  0  0  0
   56.9610   23.8450   45.2130 C   0  0  0  0  0  0  0  0  0  0  0  0
   55.8200   24.6420   45.3390 C   0  0  0  0  0  0  0  0  0  0  0  0
   55.9160   25.9140   45.9110 C   0  0  0  0  0  0  0  0  0  0  0  0
   54.7840   26.7100   46.0280 O   0  0  0  0  0  0  0  0  0  0  0  0
   57.1530   26.3880   46.3640 C   0  0  0  0  0  0  0  0  0  0  0  0
   60.0100   28.2720   45.5880 N   0  0  0  0  0  0  0  0  0  0  0  0
   59.9610   29.5680   45.8650 N   0  0  0  0  0  0  0  0  0  0  0  0
   57.4110   31.9970   45.5470 C   0  0  0  0  0  0  0  0  0  0  0  0
   57.8277   28.0526   44.5433 H   0  0  0  0  0  0  0  0  0  0  0  0
   56.7352   28.1316   43.1196 H   0  0  0  0  0  0  0  0  0  0  0  0
   58.2784   29.0510   43.1196 H   0  0  0  0  0  0  0  0  0  0  0  0
   57.8338   31.2089   42.2430 H   0  0  0  0  0  0  0  0  0  0  0  0
   58.8938   33.4619   42.2555 H   0  0  0  0  0  0  0  0  0  0  0  0
   59.0302   34.7742   44.3689 H   0  0  0  0  0  0  0  0  0  0  0  0
   58.3511   35.0944   46.6105 H   0  0  0  0  0  0  0  0  0  0  0  0
   57.1829   33.9515   47.3927 H   0  0  0  0  0  0  0  0  0  0  0  0
   60.0957   34.1922   47.7296 H   0  0  0  0  0  0  0  0  0  0  0  0
   58.8589   33.3485   48.7466 H   0  0  0  0  0  0  0  0  0  0  0  0
   60.3220   32.1720   46.3840 H   0  0  0  0  0  0  0  0  0  0  0  0
   59.0300   28.1430   48.6664 H   0  0  0  0  0  0  0  0  0  0  0  0
   60.4219   25.7158   46.0394 H   0  0  0  0  0  0  0  0  0  0  0  0
   59.8254   25.7862   47.7354 H   0  0  0  0  0  0  0  0  0  0  0  0
   59.0958   23.6861   45.5579 H   0  0  0  0  0  0  0  0  0  0  0  0
   56.8855   22.8466   44.7574 H   0  0  0  0  0  0  0  0  0  0  0  0
   54.8466   24.2686   44.9882 H   0  0  0  0  0  0  0  0  0  0  0  0
   57.2271   27.3924   46.8064 H   0  0  0  0  0  0  0  0  0  0  0  0
   56.9880   31.5894   46.4770 H   0  0  0  0  0  0  0  0  0  0  0  0
  1  2  1  0
  2  3  2  0
  2  4  1  0
  4  5  2  0
  5  6  1  0
  6  7  2  0
  7  8  1  0
  8  9  1  0
  9 10  1  0
 10 11  1  0
 11 12  1  0
 12 13  2  0
 12 14  1  0
 14 15  2  0
 15 16  1  0
 16 17  1  0
 17 18  1  0
 18 19  2  0
 19 20  1  0
 20 21  2  0
 21 22  1  0
 22 23  1  0
 22 24  2  0
 16 25  1  0
 25 26  2  0
  8 27  2  0
 27  4  1  0
 26 14  1  0
 24 18  1  0
  1 28  1  0
  1 29  1  0
  1 30  1  0
  5 31  1  0
  6 32  1  0
  7 33  1  0
  9 34  1  0
  9 35  1  0
 10 36  1  0
 10 37  1  0
 11 38  1  0
 15 39  1  0
 17 40  1  0
 17 41  1  0
 19 42  1  0
 20 43  1  0
 21 44  1  0
 24 45  1  0
 27 46  1  0
M  CHG  1  23  -1
M  END
>  <UniqueID>  (35) 
32

>  <SMILES>  (35) 
CC(=O)c1cccc(CCNC(=O)c2cn(Cc3cccc([O-])c3)nn2)c1

>  <Energy>  (35) 
74.60304421824334

>  <Genealogy>  (35) 
CC(=O)c1cccc(CCNC(=O)c2cn(Cc3cccc([O-])c3)nn2)c1 (protonated)
CC(=O)c1cccc(CCNC(=O)c2cn(Cc3cccc([O-])c3)nn2)c1 (3D coordinates assigned)
CC(=O)c1cccc(CCNC(=O)c2cn(Cc3cccc([O-])c3)nn2)c1 (optimized conformer: 74.60304421824334 kcal/mol)

>  <smiles>  (35) 
CC(=O)c1cccc(CCNC(=O)c2cn(Cc3cccc(O)c3)nn2)c1

>  <score_type>  (35) 
oracle

>  <origin>  (35) 
adg

>  <m_score__min__energy>  (35) 
-14.449999999999999

>  <m_primary>  (35) 
energy

$$$$
35:0
     RDKit          3D

 53 55  0  0  0  0  0  0  0  0999 V2000
   54.3910   28.2960   53.2510 C   0  0  0  0  0  0  0  0  0  0  0  0
   54.9310   29.4420   52.8060 C   0  0  0  0  0  0  0  0  0  0  0  0
   54.2530   30.6460   52.5540 C   0  0  0  0  0  0  0  0  0  0  0  0
   52.9360   30.9290   52.4990 C   0  0  0  0  0  0  0  0  0  0  0  0
   52.1190   30.9730   51.2760 C   0  0  0  0  0  0  0  0  0  0  0  0
   52.2100   30.0910   50.2610 N   0  0  0  0  0  0  0  0  0  0  0  0
   51.4000   30.6190   49.3160 C   0  0  0  0  0  0  0  0  0  0  0  0
   51.2070   30.0650   48.2030 O   0  0  0  0  0  0  0  0  0  0  0  0
   50.8270   31.7970   49.6520 N   0  0  0  0  0  0  0  0  0  0  0  0
   51.3080   32.0130   50.8880 C   0  0  0  0  0  0  0  0  0  0  0  0
   51.0250   33.1460   51.6390 O   0  0  0  0  0  0  0  0  0  0  0  0
   55.2280   31.5960   52.3130 C   0  0  0  0  0  0  0  0  0  0  0  0
   56.4420   30.9440   52.3430 C   0  0  0  0  0  0  0  0  0  0  0  0
   57.7620   31.6250   52.1120 C   0  0  0  0  0  0  0  0  0  0  0  0
   58.3970   31.1370   50.8420 C   0  0  0  0  0  0  0  0  0  0  0  0
   57.8460   30.2170   50.1810 O   0  0  0  0  0  0  0  0  0  0  0  0
   59.6060   31.7410   50.3640 N   0  0  0  0  0  0  0  0  0  0  0  0
   60.2930   31.2760   49.1590 C   0  0  0  0  0  0  0  0  0  0  0  0
   59.8970   32.1390   47.9540 C   0  0  0  0  0  0  0  0  0  0  0  0
   58.6360   31.6490   47.3570 N   0  0  0  0  0  0  0  0  0  0  0  0
   57.7810   32.7590   46.8440 C   0  0  0  0  0  0  0  0  0  0  0  0
   57.5920   32.7230   45.3210 C   0  0  0  0  0  0  0  0  0  0  0  0
   57.0450   31.4330   44.8800 N   0  0  0  0  0  0  0  0  0  0  0  0
   57.6450   30.2610   45.5550 C   0  0  0  0  0  0  0  0  0  0  0  0
   58.9130   30.6050   46.3470 C   0  0  0  0  0  0  0  0  0  0  0  0
   56.2690   29.6370   52.6620 N   0  0  0  0  0  0  0  0  0  0  0  0
   57.3380   28.6350   52.8070 C   0  0  0  0  0  0  0  0  0  0  0  0
   58.0160   28.7770   54.1630 C   0  0  0  0  0  0  0  0  0  0  0  0
   55.0280   27.4137   53.4114 H   0  0  0  0  0  0  0  0  0  0  0  0
   53.3116   28.2395   53.4551 H   0  0  0  0  0  0  0  0  0  0  0  0
   52.4284   31.1457   53.4505 H   0  0  0  0  0  0  0  0  0  0  0  0
   55.0657   32.6688   52.1317 H   0  0  0  0  0  0  0  0  0  0  0  0
   57.6004   32.7107   52.0407 H   0  0  0  0  0  0  0  0  0  0  0  0
   58.4313   31.3927   52.9535 H   0  0  0  0  0  0  0  0  0  0  0  0
   59.9870   32.5820   50.8540 H   0  0  0  0  0  0  0  0  0  0  0  0
   61.3802   31.3436   49.3122 H   0  0  0  0  0  0  0  0  0  0  0  0
   60.0043   30.2329   48.9625 H   0  0  0  0  0  0  0  0  0  0  0  0
   59.7610   33.1797   48.2834 H   0  0  0  0  0  0  0  0  0  0  0  0
   60.6941   32.0811   47.1981 H   0  0  0  0  0  0  0  0  0  0  0  0
   56.7922   32.6875   47.3207 H   0  0  0  0  0  0  0  0  0  0  0  0
   58.2902   33.7031   47.0878 H   0  0  0  0  0  0  0  0  0  0  0  0
   56.8989   33.5251   45.0271 H   0  0  0  0  0  0  0  0  0  0  0  0
   58.5744   32.8633   44.8464 H   0  0  0  0  0  0  0  0  0  0  0  0
   57.2120   31.3530   43.8500 H   0  0  0  0  0  0  0  0  0  0  0  0
   56.9029   29.8390   46.2487 H   0  0  0  0  0  0  0  0  0  0  0  0
   57.9324   29.5438   44.7720 H   0  0  0  0  0  0  0  0  0  0  0  0
   59.2773   29.6998   46.8549 H   0  0  0  0  0  0  0  0  0  0  0  0
   59.6726   30.9845   45.6477 H   0  0  0  0  0  0  0  0  0  0  0  0
   56.9048   27.6275   52.7218 H   0  0  0  0  0  0  0  0  0  0  0  0
   58.0854   28.7924   52.0154 H   0  0  0  0  0  0  0  0  0  0  0  0
   57.2753   28.6219   54.9613 H   0  0  0  0  0  0  0  0  0  0  0  0
   58.8154   28.0268   54.2536 H   0  0  0  0  0  0  0  0  0  0  0  0
   58.4471   29.7849   54.2536 H   0  0  0  0  0  0  0  0  0  0  0  0
  1  2  2  0
  2  3  1  0
  3  4  2  3
  4  5  1  0
  5  6  1  0
  6  7  1  0
  7  8  2  0
  7  9  1  0
  9 10  1  0
 10 11  1  0
  3 12  1  0
 12 13  2  0
 13 14  1  0
 14 15  1  0
 15 16  2  0
 15 17  1  0
 17 18  1  0
 18 19  1  0
 19 20  1  0
 20 21  1  0
 21 22  1  0
 22 23  1  0
 23 24  1  0
 24 25  1  0
 13 26  1  0
 26 27  1  0
 27 28  1  0
 26  2  1  0
 10  5  2  0
 25 20  1  0
  1 29  1  0
  1 30  1  0
  4 31  1  0
 12 32  1  0
 14 33  1  0
 14 34  1  0
 17 35  1  0
 18 36  1  0
 18 37  1  0
 19 38  1  0
 19 39  1  0
 21 40  1  0
 21 41  1  0
 22 42  1  0
 22 43  1  0
 23 44  1  0
 24 45  1  0
 24 46  1  0
 25 47  1  0
 25 48  1  0
 27 49  1  0
 27 50  1  0
 28 51  1  0
 28 52  1  0
 28 53  1  0
M  CHG  3   6  -1   9  -1  11  -1
M  END
>  <UniqueID>  (36) 
33

>  <SMILES>  (36) 
C=c1c(=Cc2[n-]c(=O)[n-]c2[O-])cc(CC(=O)NCCN2CCNCC2)n1CC

>  <Energy>  (36) 
125.88915908910178

>  <Genealogy>  (36) 
C=c1c(=Cc2[n-]c(=O)[n-]c2[O-])cc(CC(=O)NCCN2CCNCC2)n1CC (protonated)
C=c1c(=Cc2[n-]c(=O)[n-]c2[O-])cc(CC(=O)NCCN2CCNCC2)n1CC (3D coordinates assigned)
C=c1c(=Cc2[n-]c(=O)[n-]c2[O-])cc(CC(=O)NCCN2CCNCC2)n1CC (nonaromatic ring conformer: 125.88915908910178 kcal/mol)

>  <smiles>  (36) 
C=c1c(=Cc2[nH]c(=O)[nH]c2O)cc(CC(=O)NCCN2CCNCC2)n1CC

>  <score_type>  (36) 
oracle

>  <origin>  (36) 
adg

>  <m_score__min__energy>  (36) 
-16.969999999999999

>  <m_primary>  (36) 
energy

$$$$
37:0
     RDKit          3D

 58 61  0  0  0  0  0  0  0  0999 V2000
   58.9280   35.3270   47.0120 O   0  0  0  0  0  0  0  0  0  0  0  0
   58.8000   34.2690   46.3370 C   0  0  0  0  0  0  0  0  0  0  0  0
   57.4300   33.8050   45.9440 C   0  0  0  0  0  0  0  0  0  0  0  0
   57.4970   32.9680   44.6680 C   0  0  0  0  0  0  0  0  0  0  0  0
   57.7230   31.5250   44.9930 C   0  0  0  0  0  0  0  0  0  0  0  0
   56.7090   30.6230   45.0740 N   0  0  0  0  0  0  0  0  0  0  0  0
   57.3570   29.4850   45.3610 C   0  0  0  0  0  0  0  0  0  0  0  0
   56.8110   28.2200   45.5570 C   0  0  0  0  0  0  0  0  0  0  0  0
   57.6970   27.1600   45.8520 C   0  0  0  0  0  0  0  0  0  0  0  0
   57.0880   25.5230   46.0800 S   0  0  0  0  0  0  0  0  0  0  0  0
   57.4950   25.0530   47.4480 O   0  0  0  0  0  0  0  0  0  0  0  0
   55.5880   25.5170   46.0040 O   0  0  0  0  0  0  0  0  0  0  0  0
   57.7610   24.4470   44.8750 N   0  0  0  0  0  0  0  0  0  0  0  0
   56.9550   24.4220   43.6370 C   0  0  0  0  0  0  0  0  0  0  0  0
   55.6380   23.6380   43.7960 C   0  0  0  0  0  0  0  0  0  0  0  0
   55.7910   22.3610   44.6420 C   0  0  0  0  0  0  0  0  0  0  0  0
   57.2560   21.9580   44.8080 C   0  0  0  0  0  0  0  0  0  0  0  0
   58.0660   23.1060   45.4390 C   0  0  0  0  0  0  0  0  0  0  0  0
   59.0900   27.4030   45.9330 C   0  0  0  0  0  0  0  0  0  0  0  0
   59.6030   28.6970   45.7250 C   0  0  0  0  0  0  0  0  0  0  0  0
   58.6960   29.7140   45.4400 C   0  0  0  0  0  0  0  0  0  0  0  0
   58.9620   31.0070   45.2060 N   0  0  0  0  0  0  0  0  0  0  0  0
   59.9530   33.4890   45.9840 N   0  0  0  0  0  0  0  0  0  0  0  0
   61.3080   33.8640   46.3840 C   0  0  0  0  0  0  0  0  0  0  0  0
   61.8280   32.9080   47.4610 C   0  0  0  0  0  0  0  0  0  0  0  0
   60.6870   32.3450   48.2670 C   0  0  0  0  0  0  0  0  0  0  0  0
   59.9990   33.1540   49.1860 C   0  0  0  0  0  0  0  0  0  0  0  0
   58.9550   32.6220   49.9470 C   0  0  0  0  0  0  0  0  0  0  0  0
   58.5980   31.2770   49.8060 C   0  0  0  0  0  0  0  0  0  0  0  0
   59.2890   30.4620   48.9060 C   0  0  0  0  0  0  0  0  0  0  0  0
   60.3330   30.9920   48.1410 C   0  0  0  0  0  0  0  0  0  0  0  0
   57.0072   33.1950   46.7558 H   0  0  0  0  0  0  0  0  0  0  0  0
   56.7943   34.6839   45.7612 H   0  0  0  0  0  0  0  0  0  0  0  0
   56.5493   33.0703   44.1189 H   0  0  0  0  0  0  0  0  0  0  0  0
   58.3352   33.3274   44.0530 H   0  0  0  0  0  0  0  0  0  0  0  0
   55.7264   28.0513   45.4847 H   0  0  0  0  0  0  0  0  0  0  0  0
   56.7153   25.4573   43.3530 H   0  0  0  0  0  0  0  0  0  0  0  0
   57.5511   23.9138   42.8647 H   0  0  0  0  0  0  0  0  0  0  0  0
   54.8981   24.2920   44.2807 H   0  0  0  0  0  0  0  0  0  0  0  0
   55.3188   23.3276   42.7901 H   0  0  0  0  0  0  0  0  0  0  0  0
   55.3566   22.5395   45.6367 H   0  0  0  0  0  0  0  0  0  0  0  0
   55.2700   21.5437   44.1219 H   0  0  0  0  0  0  0  0  0  0  0  0
   57.3160   21.0731   45.4586 H   0  0  0  0  0  0  0  0  0  0  0  0
   57.6758   21.7309   43.8169 H   0  0  0  0  0  0  0  0  0  0  0  0
   57.8509   23.1281   46.5175 H   0  0  0  0  0  0  0  0  0  0  0  0
   59.1249   22.9039   45.2203 H   0  0  0  0  0  0  0  0  0  0  0  0
   59.7763   26.5739   46.1602 H   0  0  0  0  0  0  0  0  0  0  0  0
   60.6828   28.8978   45.7855 H   0  0  0  0  0  0  0  0  0  0  0  0
   59.8300   32.6530   45.3690 H   0  0  0  0  0  0  0  0  0  0  0  0
   61.9709   33.8181   45.5074 H   0  0  0  0  0  0  0  0  0  0  0  0
   61.2911   34.8859   46.7907 H   0  0  0  0  0  0  0  0  0  0  0  0
   62.3720   32.0823   46.9791 H   0  0  0  0  0  0  0  0  0  0  0  0
   62.4973   33.4634   48.1345 H   0  0  0  0  0  0  0  0  0  0  0  0
   60.2830   34.2098   49.3070 H   0  0  0  0  0  0  0  0  0  0  0  0
   58.4127   33.2622   50.6584 H   0  0  0  0  0  0  0  0  0  0  0  0
   57.7734   30.8611   50.4036 H   0  0  0  0  0  0  0  0  0  0  0  0
   59.0118   29.4029   48.7990 H   0  0  0  0  0  0  0  0  0  0  0  0
   60.8791   30.3462   47.4376 H   0  0  0  0  0  0  0  0  0  0  0  0
  1  2  2  0
  2  3  1  0
  3  4  1  0
  4  5  1  0
  5  6  2  0
  6  7  1  0
  7  8  2  0
  8  9  1  0
  9 10  1  0
 10 11  2  0
 10 12  2  0
 10 13  1  0
 13 14  1  0
 14 15  1  0
 15 16  1  0
 16 17  1  0
 17 18  1  0
  9 19  2  0
 19 20  1  0
 20 21  2  0
 21 22  1  0
  2 23  1  0
 23 24  1  0
 24 25  1  0
 25 26  1  0
 26 27  2  0
 27 28  1  0
 28 29  2  0
 29 30  1  0
 30 31  2  0
 22  5  1  0
 31 26  1  0
 21  7  1  0
 18 13  1  0
  3 32  1  0
  3 33  1  0
  4 34  1  0
  4 35  1  0
  8 36  1  0
 14 37  1  0
 14 38  1  0
 15 39  1  0
 15 40  1  0
 16 41  1  0
 16 42  1  0
 17 43  1  0
 17 44  1  0
 18 45  1  0
 18 46  1  0
 19 47  1  0
 20 48  1  0
 23 49  1  0
 24 50  1  0
 24 51  1  0
 25 52  1  0
 25 53  1  0
 27 54  1  0
 28 55  1  0
 29 56  1  0
 30 57  1  0
 31 58  1  0
M  CHG  1  22  -1
M  END
>  <UniqueID>  (37) 
34

>  <SMILES>  (37) 
O=C(CCc1nc2cc(S(=O)(=O)N3CCCCC3)ccc2[n-]1)NCCc1ccccc1

>  <Energy>  (37) 
92.63485631186843

>  <Genealogy>  (37) 
O=C(CCc1nc2cc(S(=O)(=O)N3CCCCC3)ccc2[n-]1)NCCc1ccccc1 (protonated)
O=C(CCc1nc2cc(S(=O)(=O)N3CCCCC3)ccc2[n-]1)NCCc1ccccc1 (3D coordinates assigned)
O=C(CCc1nc2cc(S(=O)(=O)N3CCCCC3)ccc2[n-]1)NCCc1ccccc1 (nonaromatic ring conformer: 92.63485631186843 kcal/mol)

>  <smiles>  (37) 
O=C(CCc1nc2cc(S(=O)(=O)N3CCCCC3)ccc2[nH]1)NCCc1ccccc1

>  <score_type>  (37) 
oracle

>  <origin>  (37) 
adg

>  <m_score__min__energy>  (37) 
-10.76

>  <m_primary>  (37) 
energy

$$$$
38:0
     RDKit          3D

 39 41  0  0  0  0  0  0  0  0999 V2000
   55.4420   29.3230   45.1090 O   0  0  0  0  0  0  0  0  0  0  0  0
   56.1400   28.2840   45.2510 C   0  0  0  0  0  0  0  0  0  0  0  0
   55.5160   27.1040   45.6380 O   0  0  0  0  0  0  0  0  0  0  0  0
   57.6110   28.3240   45.0790 C   0  0  0  0  0  0  0  0  0  0  0  0
   58.3490   27.2010   45.4940 C   0  0  0  0  0  0  0  0  0  0  0  0
   59.7430   27.1930   45.4150 C   0  0  0  0  0  0  0  0  0  0  0  0
   60.4200   28.3050   44.9220 C   0  0  0  0  0  0  0  0  0  0  0  0
   59.7060   29.4210   44.4870 C   0  0  0  0  0  0  0  0  0  0  0  0
   58.3020   29.4420   44.5360 C   0  0  0  0  0  0  0  0  0  0  0  0
   57.4640   30.8460   43.8510 S   0  0  0  0  0  0  0  0  0  0  0  0
   56.2290   30.3790   43.1340 O   0  0  0  0  0  0  0  0  0  0  0  0
   58.3520   31.5790   42.8820 O   0  0  0  0  0  0  0  0  0  0  0  0
   56.9900   31.9520   45.1020 N   0  0  0  0  0  0  0  0  0  0  0  0
   57.8880   32.6110   46.0060 C   0  0  0  0  0  0  0  0  0  0  0  0
   58.2440   32.0540   47.2480 C   0  0  0  0  0  0  0  0  0  0  0  0
   59.1130   32.7380   48.1030 C   0  0  0  0  0  0  0  0  0  0  0  0
   59.6270   33.9870   47.7420 C   0  0  0  0  0  0  0  0  0  0  0  0
   60.5070   34.6340   48.6230 O   0  0  0  0  0  0  0  0  0  0  0  0
   61.8010   34.1990   48.9450 C   0  0  0  0  0  0  0  0  0  0  0  0
   62.7160   33.7860   47.9600 C   0  0  0  0  0  0  0  0  0  0  0  0
   64.0020   33.3740   48.3210 C   0  0  0  0  0  0  0  0  0  0  0  0
   64.3900   33.3830   49.6650 C   0  0  0  0  0  0  0  0  0  0  0  0
   66.0040   32.8670   50.1160 Cl  0  0  0  0  0  0  0  0  0  0  0  0
   63.4910   33.8110   50.6460 C   0  0  0  0  0  0  0  0  0  0  0  0
   62.2040   34.2230   50.2860 C   0  0  0  0  0  0  0  0  0  0  0  0
   59.2880   34.5350   46.4930 C   0  0  0  0  0  0  0  0  0  0  0  0
   58.4190   33.8520   45.6370 C   0  0  0  0  0  0  0  0  0  0  0  0
   57.8217   26.3185   45.8855 H   0  0  0  0  0  0  0  0  0  0  0  0
   60.3068   26.3071   45.7426 H   0  0  0  0  0  0  0  0  0  0  0  0
   61.5190   28.3033   44.8756 H   0  0  0  0  0  0  0  0  0  0  0  0
   60.2489   30.2961   44.1005 H   0  0  0  0  0  0  0  0  0  0  0  0
   57.8371   31.0768   47.5473 H   0  0  0  0  0  0  0  0  0  0  0  0
   59.3946   32.2900   49.0674 H   0  0  0  0  0  0  0  0  0  0  0  0
   62.4184   33.7872   46.9010 H   0  0  0  0  0  0  0  0  0  0  0  0
   64.7099   33.0422   47.5472 H   0  0  0  0  0  0  0  0  0  0  0  0
   63.7963   33.8238   51.7027 H   0  0  0  0  0  0  0  0  0  0  0  0
   61.5038   34.5681   51.0610 H   0  0  0  0  0  0  0  0  0  0  0  0
   59.7079   35.5048   46.1879 H   0  0  0  0  0  0  0  0  0  0  0  0
   58.1506   34.2935   44.6659 H   0  0  0  0  0  0  0  0  0  0  0  0
  1  2  2  0
  2  3  1  0
  2  4  1  0
  4  5  2  0
  5  6  1  0
  6  7  2  0
  7  8  1  0
  8  9  2  0
  9 10  1  0
 10 11  2  0
 10 12  2  0
 10 13  1  0
 13 14  1  0
 14 15  2  0
 15 16  1  0
 16 17  2  0
 17 18  1  0
 18 19  1  0
 19 20  2  0
 20 21  1  0
 21 22  2  0
 22 23  1  0
 22 24  1  0
 24 25  2  0
 17 26  1  0
 26 27  2  0
  9  4  1  0
 27 14  1  0
 25 19  1  0
  5 28  1  0
  6 29  1  0
  7 30  1  0
  8 31  1  0
 15 32  1  0
 16 33  1  0
 20 34  1  0
 21 35  1  0
 24 36  1  0
 25 37  1  0
 26 38  1  0
 27 39  1  0
M  CHG  2   3  -1  13  -1
M  END
>  <UniqueID>  (38) 
35

>  <SMILES>  (38) 
O=C([O-])c1ccccc1S(=O)(=O)[N-]c1ccc(Oc2ccc(Cl)cc2)cc1

>  <Energy>  (38) 
57.98817632836648

>  <Genealogy>  (38) 
O=C([O-])c1ccccc1S(=O)(=O)[N-]c1ccc(Oc2ccc(Cl)cc2)cc1 (protonated)
O=C([O-])c1ccccc1S(=O)(=O)[N-]c1ccc(Oc2ccc(Cl)cc2)cc1 (3D coordinates assigned)
O=C([O-])c1ccccc1S(=O)(=O)[N-]c1ccc(Oc2ccc(Cl)cc2)cc1 (optimized conformer: 57.98817632836648 kcal/mol)

>  <smiles>  (38) 
O=C(O)c1ccccc1S(=O)(=O)Nc1ccc(Oc2ccc(Cl)cc2)cc1

>  <score_type>  (38) 
oracle

>  <origin>  (38) 
adg

>  <m_score__min__energy>  (38) 
-13.199999999999999

>  <m_primary>  (38) 
energy

$$$$
39:0
     RDKit          3D

 60 63  0  0  0  0  0  0  0  0999 V2000
   54.1490   29.4620   53.2950 C   0  0  0  0  0  0  0  0  0  0  0  0
   54.8040   30.6600   52.8900 O   0  0  0  0  0  0  0  0  0  0  0  0
   56.1340   30.7270   52.4510 C   0  0  0  0  0  0  0  0  0  0  0  0
   56.6260   31.9580   52.0020 C   0  0  0  0  0  0  0  0  0  0  0  0
   57.9450   32.0770   51.5570 C   0  0  0  0  0  0  0  0  0  0  0  0
   58.8000   30.9610   51.5560 C   0  0  0  0  0  0  0  0  0  0  0  0
   60.2040   31.0590   51.0940 C   0  0  0  0  0  0  0  0  0  0  0  0
   60.8180   30.2090   50.2460 N   0  0  0  0  0  0  0  0  0  0  0  0
   62.0590   30.6370   50.0790 N   0  0  0  0  0  0  0  0  0  0  0  0
   62.1620   31.7420   50.8430 C   0  0  0  0  0  0  0  0  0  0  0  0
   63.3920   32.5860   50.9420 C   0  0  0  0  0  0  0  0  0  0  0  0
   63.7280   33.1770   49.6010 C   0  0  0  0  0  0  0  0  0  0  0  0
   64.9390   33.3270   49.2820 O   0  0  0  0  0  0  0  0  0  0  0  0
   62.6990   33.5540   48.6690 N   0  0  0  0  0  0  0  0  0  0  0  0
   61.4770   34.2380   49.1110 C   0  0  0  0  0  0  0  0  0  0  0  0
   60.2570   33.5400   48.5080 C   0  0  0  0  0  0  0  0  0  0  0  0
   60.4480   33.2920   47.0740 N   0  0  0  0  0  0  0  0  0  0  0  0
   59.3970   32.6660   46.3300 C   0  0  0  0  0  0  0  0  0  0  0  0
   58.4330   33.4650   45.7030 C   0  0  0  0  0  0  0  0  0  0  0  0
   57.4070   32.8770   44.9660 C   0  0  0  0  0  0  0  0  0  0  0  0
   57.3590   31.4850   44.8480 C   0  0  0  0  0  0  0  0  0  0  0  0
   56.2490   30.8270   44.0920 C   0  0  0  0  0  0  0  0  0  0  0  0
   58.3000   30.7220   45.4670 N   0  0  0  0  0  0  0  0  0  0  0  0
   59.3150   31.2640   46.1970 C   0  0  0  0  0  0  0  0  0  0  0  0
   60.3030   30.3360   46.8480 C   0  0  0  0  0  0  0  0  0  0  0  0
   59.4650   29.0940   47.8200 S   0  0  0  0  0  0  0  0  0  0  0  0
   60.6180   28.1650   48.7150 N   0  0  0  0  0  0  0  0  0  0  0  0
   58.5320   29.7730   48.7830 O   0  0  0  0  0  0  0  0  0  0  0  0
   58.6730   28.1820   46.9260 O   0  0  0  0  0  0  0  0  0  0  0  0
   61.6900   33.6850   46.3970 C   0  0  0  0  0  0  0  0  0  0  0  0
   62.9060   33.2770   47.2390 C   0  0  0  0  0  0  0  0  0  0  0  0
   61.0330   32.0080   51.4610 O   0  0  0  0  0  0  0  0  0  0  0  0
   58.3050   29.7260   52.0080 C   0  0  0  0  0  0  0  0  0  0  0  0
   56.9850   29.6080   52.4510 C   0  0  0  0  0  0  0  0  0  0  0  0
   54.1218   29.4123   54.3935 H   0  0  0  0  0  0  0  0  0  0  0  0
   53.1216   29.4550   52.9021 H   0  0  0  0  0  0  0  0  0  0  0  0
   54.6977   28.5933   52.9021 H   0  0  0  0  0  0  0  0  0  0  0  0
   55.9683   32.8397   51.9995 H   0  0  0  0  0  0  0  0  0  0  0  0
   58.3170   33.0505   51.2050 H   0  0  0  0  0  0  0  0  0  0  0  0
   60.4270   29.3600   49.7840 H   0  0  0  0  0  0  0  0  0  0  0  0
   63.2179   33.3981   51.6632 H   0  0  0  0  0  0  0  0  0  0  0  0
   64.2309   31.9583   51.2770 H   0  0  0  0  0  0  0  0  0  0  0  0
   61.4140   34.2038   50.2087 H   0  0  0  0  0  0  0  0  0  0  0  0
   61.5021   35.2862   48.7782 H   0  0  0  0  0  0  0  0  0  0  0  0
   60.1017   32.5797   49.0215 H   0  0  0  0  0  0  0  0  0  0  0  0
   59.3808   34.1923   48.6371 H   0  0  0  0  0  0  0  0  0  0  0  0
   58.4858   34.5601   45.7925 H   0  0  0  0  0  0  0  0  0  0  0  0
   56.6423   33.5021   44.4818 H   0  0  0  0  0  0  0  0  0  0  0  0
   55.5259   30.3983   44.8015 H   0  0  0  0  0  0  0  0  0  0  0  0
   55.7444   31.5719   43.4592 H   0  0  0  0  0  0  0  0  0  0  0  0
   56.6603   30.0267   43.4592 H   0  0  0  0  0  0  0  0  0  0  0  0
   60.9000   29.8408   46.0681 H   0  0  0  0  0  0  0  0  0  0  0  0
   60.9524   30.9241   47.5132 H   0  0  0  0  0  0  0  0  0  0  0  0
   61.3460   28.8280   49.0630 H   0  0  0  0  0  0  0  0  0  0  0  0
   61.7429   33.1870   45.4176 H   0  0  0  0  0  0  0  0  0  0  0  0
   61.6959   34.7770   46.2646 H   0  0  0  0  0  0  0  0  0  0  0  0
   63.0847   32.1996   47.1074 H   0  0  0  0  0  0  0  0  0  0  0  0
   63.7704   33.8660   46.8986 H   0  0  0  0  0  0  0  0  0  0  0  0
   58.9625   28.8442   52.0131 H   0  0  0  0  0  0  0  0  0  0  0  0
   56.6100   28.6350   52.8014 H   0  0  0  0  0  0  0  0  0  0  0  0
  1  2  1  0
  2  3  1  0
  3  4  2  0
  4  5  1  0
  5  6  2  0
  6  7  1  0
  7  8  2  0
  8  9  1  0
  9 10  2  0
 10 11  1  0
 11 12  1  0
 12 13  2  0
 12 14  1  0
 14 15  1  0
 15 16  1  0
 16 17  1  0
 17 18  1  0
 18 19  2  0
 19 20  1  0
 20 21  2  0
 21 22  1  0
 21 23  1  0
 23 24  2  0
 24 25  1  0
 25 26  1  0
 26 27  1  0
 26 28  2  0
 26 29  2  0
 17 30  1  0
 30 31  1  0
 10 32  1  0
  6 33  1  0
 33 34  2  0
 34  3  1  0
 32  7  1  0
 31 14  1  0
 24 18  1  0
  1 35  1  0
  1 36  1  0
  1 37  1  0
  4 38  1  0
  5 39  1  0
  8 40  1  0
 11 41  1  0
 11 42  1  0
 15 43  1  0
 15 44  1  0
 16 45  1  0
 16 46  1  0
 19 47  1  0
 20 48  1  0
 22 49  1  0
 22 50  1  0
 22 51  1  0
 25 52  1  0
 25 53  1  0
 27 54  1  0
 30 55  1  0
 30 56  1  0
 31 57  1  0
 31 58  1  0
 33 59  1  0
 34 60  1  0
M  CHG  2   8   1  27  -1
M  END
>  <UniqueID>  (39) 
36

>  <SMILES>  (39) 
COc1ccc(-c2[nH+]nc(CC(=O)N3CCN(c4ccc(C)nc4CS([NH-])(=O)=O)CC3)o2)cc1

>  <Energy>  (39) 
98.55924950131545

>  <Genealogy>  (39) 
COc1ccc(-c2[nH+]nc(CC(=O)N3CCN(c4ccc(C)nc4CS([NH-])(=O)=O)CC3)o2)cc1 (protonated)
COc1ccc(-c2[nH+]nc(CC(=O)N3CCN(c4ccc(C)nc4CS([NH-])(=O)=O)CC3)o2)cc1 (3D coordinates assigned)
COc1ccc(-c2[nH+]nc(CC(=O)N3CCN(c4ccc(C)nc4CS([NH-])(=O)=O)CC3)o2)cc1 (nonaromatic ring conformer: 98.55924950131545 kcal/mol)

>  <smiles>  (39) 
COc1ccc(-c2nnc(CC(=O)N3CCN(c4ccc(C)nc4CS(N)(=O)=O)CC3)o2)cc1

>  <score_type>  (39) 
oracle

>  <origin>  (39) 
adg

>  <m_score__min__energy>  (39) 
-9.4700000000000006

>  <m_primary>  (39) 
energy

$$$$
40:0
     RDKit          3D

 58 61  0  0  0  0  0  0  0  0999 V2000
   57.0730   31.9650   52.1600 C   0  0  0  0  0  0  0  0  0  0  0  0
   58.4270   32.6170   51.8640 C   0  0  0  0  0  0  0  0  0  0  0  0
   58.5180   34.0050   52.5020 C   0  0  0  0  0  0  0  0  0  0  0  0
   58.6560   32.7070   50.3800 C   0  0  0  0  0  0  0  0  0  0  0  0
   58.0690   31.8950   49.6140 O   0  0  0  0  0  0  0  0  0  0  0  0
   59.5500   33.7080   49.8610 N   0  0  0  0  0  0  0  0  0  0  0  0
   59.9970   33.8070   48.6400 C   0  0  0  0  0  0  0  0  0  0  0  0
   59.1430   34.0280   47.6030 N   0  0  0  0  0  0  0  0  0  0  0  0
   59.5580   34.1310   46.3120 C   0  0  0  0  0  0  0  0  0  0  0  0
   58.5400   34.3480   45.2320 C   0  0  0  0  0  0  0  0  0  0  0  0
   58.0980   33.0290   44.6760 C   0  0  0  0  0  0  0  0  0  0  0  0
   57.7200   32.8500   43.3930 N   0  0  0  0  0  0  0  0  0  0  0  0
   57.3150   31.5910   43.2770 N   0  0  0  0  0  0  0  0  0  0  0  0
   57.4460   31.0210   44.4910 C   0  0  0  0  0  0  0  0  0  0  0  0
   56.9980   29.3210   44.8480 S   0  0  0  0  0  0  0  0  0  0  0  0
   58.7130   28.6990   44.7750 C   0  0  0  0  0  0  0  0  0  0  0  0
   59.4940   29.1310   45.9780 C   0  0  0  0  0  0  0  0  0  0  0  0
   60.3530   30.0450   45.8610 O   0  0  0  0  0  0  0  0  0  0  0  0
   59.2190   28.5460   47.2610 N   0  0  0  0  0  0  0  0  0  0  0  0
   59.9930   28.8120   48.4420 C   0  0  0  0  0  0  0  0  0  0  0  0
   60.3020   30.1410   48.7720 C   0  0  0  0  0  0  0  0  0  0  0  0
   61.0400   30.4320   49.9220 C   0  0  0  0  0  0  0  0  0  0  0  0
   61.4620   29.4000   50.7630 C   0  0  0  0  0  0  0  0  0  0  0  0
   61.1370   28.0740   50.4590 C   0  0  0  0  0  0  0  0  0  0  0  0
   60.3980   27.7770   49.3090 C   0  0  0  0  0  0  0  0  0  0  0  0
   60.0410   26.4900   49.0760 F   0  0  0  0  0  0  0  0  0  0  0  0
   57.9260   31.9000   45.3860 N   0  0  0  0  0  0  0  0  0  0  0  0
   58.1670   31.6860   46.7520 N   0  0  0  0  0  0  0  0  0  0  0  0
   60.9180   34.0110   46.0110 C   0  0  0  0  0  0  0  0  0  0  0  0
   61.8370   33.7850   47.0430 C   0  0  0  0  0  0  0  0  0  0  0  0
   63.2060   33.6600   46.7600 C   0  0  0  0  0  0  0  0  0  0  0  0
   64.1190   33.4340   47.7910 C   0  0  0  0  0  0  0  0  0  0  0  0
   63.6760   33.3290   49.1120 C   0  0  0  0  0  0  0  0  0  0  0  0
   62.3170   33.4510   49.4090 C   0  0  0  0  0  0  0  0  0  0  0  0
   61.3800   33.6800   48.3800 C   0  0  0  0  0  0  0  0  0  0  0  0
   56.9294   31.8959   53.2484 H   0  0  0  0  0  0  0  0  0  0  0  0
   56.2689   32.5747   51.7221 H   0  0  0  0  0  0  0  0  0  0  0  0
   57.0482   30.9562   51.7221 H   0  0  0  0  0  0  0  0  0  0  0  0
   59.2124   31.9848   52.3037 H   0  0  0  0  0  0  0  0  0  0  0  0
   58.5115   33.9061   53.5975 H   0  0  0  0  0  0  0  0  0  0  0  0
   59.4502   34.4945   52.1835 H   0  0  0  0  0  0  0  0  0  0  0  0
   57.6577   34.6121   52.1835 H   0  0  0  0  0  0  0  0  0  0  0  0
   57.6712   34.8770   45.6506 H   0  0  0  0  0  0  0  0  0  0  0  0
   58.9883   34.9486   44.4269 H   0  0  0  0  0  0  0  0  0  0  0  0
   58.6953   27.5999   44.7336 H   0  0  0  0  0  0  0  0  0  0  0  0
   59.1968   29.1114   43.8773 H   0  0  0  0  0  0  0  0  0  0  0  0
   58.3270   28.0140   47.3690 H   0  0  0  0  0  0  0  0  0  0  0  0
   59.9607   30.9590   48.1206 H   0  0  0  0  0  0  0  0  0  0  0  0
   61.2890   31.4754   50.1654 H   0  0  0  0  0  0  0  0  0  0  0  0
   62.0497   29.6299   51.6640 H   0  0  0  0  0  0  0  0  0  0  0  0
   61.4634   27.2625   51.1260 H   0  0  0  0  0  0  0  0  0  0  0  0
   57.7950   32.3440   47.4710 H   0  0  0  0  0  0  0  0  0  0  0  0
   58.7420   30.8750   47.0710 H   0  0  0  0  0  0  0  0  0  0  0  0
   61.2639   34.0936   44.9701 H   0  0  0  0  0  0  0  0  0  0  0  0
   63.5606   33.7405   45.7218 H   0  0  0  0  0  0  0  0  0  0  0  0
   65.1908   33.3382   47.5629 H   0  0  0  0  0  0  0  0  0  0  0  0
   64.4000   33.1497   49.9205 H   0  0  0  0  0  0  0  0  0  0  0  0
   61.9754   33.3680   50.4513 H   0  0  0  0  0  0  0  0  0  0  0  0
  1  2  1  0
  2  3  1  0
  2  4  1  0
  4  5  2  0
  4  6  1  0
  6  7  2  3
  7  8  1  0
  8  9  1  0
  9 10  1  0
 10 11  1  0
 11 12  2  0
 12 13  1  0
 13 14  2  0
 14 15  1  0
 15 16  1  0
 16 17  1  0
 17 18  2  0
 17 19  1  0
 19 20  1  0
 20 21  2  0
 21 22  1  0
 22 23  2  0
 23 24  1  0
 24 25  2  0
 25 26  1  0
 14 27  1  0
 27 28  1  0
  9 29  2  0
 29 30  1  0
 30 31  2  0
 31 32  1  0
 32 33  2  0
 33 34  1  0
 34 35  2  0
 35  7  1  0
 27 11  1  0
 35 30  1  0
 25 20  1  0
  1 36  1  0
  1 37  1  0
  1 38  1  0
  2 39  1  0
  3 40  1  0
  3 41  1  0
  3 42  1  0
 10 43  1  0
 10 44  1  0
 16 45  1  0
 16 46  1  0
 19 47  1  0
 21 48  1  0
 22 49  1  0
 23 50  1  0
 24 51  1  0
 28 52  1  0
 28 53  1  0
 29 54  1  0
 31 55  1  0
 32 56  1  0
 33 57  1  0
 34 58  1  0
M  CHG  1   8  -1
M  END
>  <UniqueID>  (40) 
37

>  <SMILES>  (40) 
CC(C)C(=O)N=c1[n-]c(Cc2nnc(SCC(=O)Nc3ccccc3F)n2N)cc2ccccc12

>  <Energy>  (40) 
97.11127375086345

>  <Genealogy>  (40) 
CC(C)C(=O)N=c1[n-]c(Cc2nnc(SCC(=O)Nc3ccccc3F)n2N)cc2ccccc12 (protonated)
CC(C)C(=O)N=c1[n-]c(Cc2nnc(SCC(=O)Nc3ccccc3F)n2N)cc2ccccc12 (3D coordinates assigned)
CC(C)C(=O)N=c1[n-]c(Cc2nnc(SCC(=O)Nc3ccccc3F)n2N)cc2ccccc12 (optimized conformer: 97.11127375086345 kcal/mol)

>  <smiles>  (40) 
CC(C)C(=O)N=c1[nH]c(Cc2nnc(SCC(=O)Nc3ccccc3F)n2N)cc2ccccc12

>  <score_type>  (40) 
oracle

>  <origin>  (40) 
adg

>  <m_score__min__energy>  (40) 
-10.49

>  <m_primary>  (40) 
energy

$$$$
41:0
     RDKit          3D

 59 61  0  0  0  0  0  0  0  0999 V2000
   60.4020   34.5720   47.8230 C   0  0  0  0  0  0  0  0  0  0  0  0
   59.4070   33.8180   46.9900 C   0  0  0  0  0  0  0  0  0  0  0  0
   58.9230   34.3770   45.8000 C   0  0  0  0  0  0  0  0  0  0  0  0
   58.0290   33.6640   44.9960 C   0  0  0  0  0  0  0  0  0  0  0  0
   57.5890   32.3840   45.3800 C   0  0  0  0  0  0  0  0  0  0  0  0
   56.6580   31.5850   44.4920 C   0  0  0  0  0  0  0  0  0  0  0  0
   57.2340   30.3330   43.9400 N   0  0  0  0  0  0  0  0  0  0  0  0
   56.5500   29.8210   42.7430 C   0  0  0  0  0  0  0  0  0  0  0  0
   57.7180   29.2640   44.8560 C   0  0  2  0  0  0  0  0  0  0  0  0
   58.9680   28.5070   44.3710 C   0  0  0  0  0  0  0  0  0  0  0  0
   59.5250   27.5660   45.4640 C   0  0  0  0  0  0  0  0  0  0  0  0
   58.5280   27.2390   46.5930 C   0  0  0  0  0  0  0  0  0  0  0  0
   57.1400   27.2010   46.1040 N   0  0  0  0  0  0  0  0  0  0  0  0
   56.2470   26.1600   46.5330 C   0  0  0  0  0  0  0  0  0  0  0  0
   56.5750   25.4260   47.5010 O   0  0  0  0  0  0  0  0  0  0  0  0
   55.0070   25.9100   45.8610 N   0  0  0  0  0  0  0  0  0  0  0  0
   54.4510   24.5840   45.6270 C   0  0  0  0  0  0  0  0  0  0  0  0
   55.3710   23.8110   44.7260 C   0  0  0  0  0  0  0  0  0  0  0  0
   54.9460   23.4260   43.4440 C   0  0  0  0  0  0  0  0  0  0  0  0
   55.7850   22.6720   42.6200 C   0  0  0  0  0  0  0  0  0  0  0  0
   57.0520   22.2900   43.0720 C   0  0  0  0  0  0  0  0  0  0  0  0
   57.4870   22.6680   44.3500 C   0  0  0  0  0  0  0  0  0  0  0  0
   59.0800   22.1760   44.9170 S   0  0  0  0  0  0  0  0  0  0  0  0
   58.9220   20.8380   46.0030 N   0  0  0  0  0  0  0  0  0  0  0  0
   59.7490   23.3190   45.6270 O   0  0  0  0  0  0  0  0  0  0  0  0
   59.9300   21.7780   43.7430 O   0  0  0  0  0  0  0  0  0  0  0  0
   56.6400   23.4180   45.1800 C   0  0  0  0  0  0  0  0  0  0  0  0
   56.6220   28.2420   45.2050 C   0  0  0  0  0  0  0  0  0  0  0  0
   58.1200   31.8060   46.5450 C   0  0  0  0  0  0  0  0  0  0  0  0
   59.0160   32.5190   47.3470 C   0  0  0  0  0  0  0  0  0  0  0  0
   60.1863   34.4086   48.8892 H   0  0  0  0  0  0  0  0  0  0  0  0
   61.4169   34.2142   47.5952 H   0  0  0  0  0  0  0  0  0  0  0  0
   60.3320   35.6459   47.5952 H   0  0  0  0  0  0  0  0  0  0  0  0
   59.2484   35.3830   45.4965 H   0  0  0  0  0  0  0  0  0  0  0  0
   57.6669   34.1068   44.0564 H   0  0  0  0  0  0  0  0  0  0  0  0
   55.7686   31.3195   45.0823 H   0  0  0  0  0  0  0  0  0  0  0  0
   56.4344   32.2266   43.6269 H   0  0  0  0  0  0  0  0  0  0  0  0
   55.7037   29.1875   43.0471 H   0  0  0  0  0  0  0  0  0  0  0  0
   56.1791   30.6653   42.1433 H   0  0  0  0  0  0  0  0  0  0  0  0
   57.2556   29.2272   42.1433 H   0  0  0  0  0  0  0  0  0  0  0  0
   58.0070   29.8247   45.7571 H   0  0  0  0  0  0  0  0  0  0  0  0
   58.7022   27.9089   43.4869 H   0  0  0  0  0  0  0  0  0  0  0  0
   59.7444   29.2470   44.1266 H   0  0  0  0  0  0  0  0  0  0  0  0
   59.8239   26.6219   44.9852 H   0  0  0  0  0  0  0  0  0  0  0  0
   60.3675   28.0951   45.9334 H   0  0  0  0  0  0  0  0  0  0  0  0
   58.7822   26.2572   47.0190 H   0  0  0  0  0  0  0  0  0  0  0  0
   58.6008   28.0311   47.3528 H   0  0  0  0  0  0  0  0  0  0  0  0
   54.3462   24.0552   46.5859 H   0  0  0  0  0  0  0  0  0  0  0  0
   53.4633   24.6775   45.1519 H   0  0  0  0  0  0  0  0  0  0  0  0
   53.9478   23.7196   43.0871 H   0  0  0  0  0  0  0  0  0  0  0  0
   55.4487   22.3785   41.6146 H   0  0  0  0  0  0  0  0  0  0  0  0
   57.7087   21.6916   42.4234 H   0  0  0  0  0  0  0  0  0  0  0  0
   58.2900   20.1470   45.5440 H   0  0  0  0  0  0  0  0  0  0  0  0
   59.8630   20.3900   46.0740 H   0  0  0  0  0  0  0  0  0  0  0  0
   56.9716   23.6992   46.1904 H   0  0  0  0  0  0  0  0  0  0  0  0
   56.2615   27.7707   44.2788 H   0  0  0  0  0  0  0  0  0  0  0  0
   55.8012   28.7683   45.7142 H   0  0  0  0  0  0  0  0  0  0  0  0
   57.8284   30.7840   46.8286 H   0  0  0  0  0  0  0  0  0  0  0  0
   59.4164   32.0591   48.2625 H   0  0  0  0  0  0  0  0  0  0  0  0
  1  2  1  0
  2  3  2  0
  3  4  1  0
  4  5  2  0
  5  6  1  0
  6  7  1  0
  7  8  1  0
  7  9  1  0
  9 10  1  0
 10 11  1  0
 11 12  1  0
 12 13  1  0
 13 14  1  0
 14 15  2  0
 14 16  1  0
 16 17  1  0
 17 18  1  0
 18 19  2  0
 19 20  1  0
 20 21  2  0
 21 22  1  0
 22 23  1  0
 23 24  1  0
 23 25  2  0
 23 26  2  0
 22 27  2  0
 13 28  1  0
  5 29  1  0
 29 30  2  0
 30  2  1  0
 28  9  1  0
 27 18  1  0
  1 31  1  0
  1 32  1  0
  1 33  1  0
  3 34  1  0
  4 35  1  0
  6 36  1  0
  6 37  1  0
  8 38  1  0
  8 39  1  0
  8 40  1  0
  9 41  1  1
 10 42  1  0
 10 43  1  0
 11 44  1  0
 11 45  1  0
 12 46  1  0
 12 47  1  0
 17 48  1  0
 17 49  1  0
 19 50  1  0
 20 51  1  0
 21 52  1  0
 24 53  1  0
 24 54  1  0
 27 55  1  0
 28 56  1  0
 28 57  1  0
 29 58  1  0
 30 59  1  0
M  CHG  1  16  -1
M  END
>  <UniqueID>  (41) 
38

>  <SMILES>  (41) 
Cc1ccc(CN(C)[C@@H]2CCCN(C(=O)[N-]Cc3cccc(S(N)(=O)=O)c3)C2)cc1

>  <Energy>  (41) 
74.8002783952083

>  <Genealogy>  (41) 
Cc1ccc(CN(C)C2CCCN(C(=O)[N-]Cc3cccc(S(N)(=O)=O)c3)C2)cc1 (protonated)
Cc1ccc(CN(C)[C@@H]2CCCN(C(=O)[N-]Cc3cccc(S(N)(=O)=O)c3)C2)cc1 (chirality)
Cc1ccc(CN(C)[C@@H]2CCCN(C(=O)[N-]Cc3cccc(S(N)(=O)=O)c3)C2)cc1 (3D coordinates assigned)
Cc1ccc(CN(C)[C@@H]2CCCN(C(=O)[N-]Cc3cccc(S(N)(=O)=O)c3)C2)cc1 (nonaromatic ring conformer: 74.8002783952083 kcal/mol)

>  <smiles>  (41) 
Cc1ccc(CN(C)C2CCCN(C(=O)NCc3cccc(S(N)(=O)=O)c3)C2)cc1

>  <score_type>  (41) 
oracle

>  <origin>  (41) 
adg

>  <m_score__min__energy>  (41) 
-11.710000000000001

>  <m_primary>  (41) 
energy

$$$$
42:0
     RDKit          3D

 62 66  0  0  0  0  0  0  0  0999 V2000
   68.6140   33.9950   50.1310 C   0  0  0  0  0  0  0  0  0  0  0  0
   68.2270   33.9730   51.5530 N   0  0  0  0  0  0  0  0  0  0  0  0
   67.0320   34.8170   51.8140 C   0  0  0  0  0  0  0  0  0  0  0  0
   65.7290   34.0160   51.9950 C   0  0  0  0  0  0  0  0  0  0  0  0
   65.7760   32.7770   51.2160 N   0  0  0  0  0  0  0  0  0  0  0  0
   64.7540   32.4620   50.2510 C   0  0  0  0  0  0  0  0  0  0  0  0
   64.7360   33.1020   49.0010 C   0  0  0  0  0  0  0  0  0  0  0  0
   63.7330   32.8110   48.0720 C   0  0  0  0  0  0  0  0  0  0  0  0
   62.7340   31.8700   48.3750 C   0  0  0  0  0  0  0  0  0  0  0  0
   61.6780   31.5620   47.4480 N   0  0  0  0  0  0  0  0  0  0  0  0
   60.3350   32.0710   47.5430 C   0  0  0  0  0  0  0  0  0  0  0  0
   60.0010   32.8270   48.4940 O   0  0  0  0  0  0  0  0  0  0  0  0
   59.3280   31.7190   46.5200 C   0  0  0  0  0  0  0  0  0  0  0  0
   58.3130   32.6340   46.2120 C   0  0  0  0  0  0  0  0  0  0  0  0
   57.3440   32.3120   45.3150 N   0  0  0  0  0  0  0  0  0  0  0  0
   57.3240   31.1110   44.6810 C   0  0  0  0  0  0  0  0  0  0  0  0
   56.3010   30.8190   43.7710 C   0  0  0  0  0  0  0  0  0  0  0  0
   56.2810   29.5890   43.1090 C   0  0  0  0  0  0  0  0  0  0  0  0
   57.2820   28.6440   43.3530 C   0  0  0  0  0  0  0  0  0  0  0  0
   58.3080   28.9250   44.2610 C   0  0  0  0  0  0  0  0  0  0  0  0
   58.3370   30.1580   44.9360 C   0  0  0  0  0  0  0  0  0  0  0  0
   59.3580   30.4780   45.8490 C   0  0  0  0  0  0  0  0  0  0  0  0
   60.4040   29.5770   46.0680 O   0  0  0  0  0  0  0  0  0  0  0  0
   60.3940   28.6830   47.1750 C   0  0  0  0  0  0  0  0  0  0  0  0
   59.5380   27.4970   46.8460 C   0  0  0  0  0  0  0  0  0  0  0  0
   60.0990   26.3460   46.2690 C   0  0  0  0  0  0  0  0  0  0  0  0
   59.2980   25.2310   46.0010 C   0  0  0  0  0  0  0  0  0  0  0  0
   57.9340   25.2590   46.3050 C   0  0  0  0  0  0  0  0  0  0  0  0
   57.3700   26.4010   46.8790 C   0  0  0  0  0  0  0  0  0  0  0  0
   58.1690   27.5150   47.1530 C   0  0  0  0  0  0  0  0  0  0  0  0
   62.7280   31.2680   49.6410 C   0  0  0  0  0  0  0  0  0  0  0  0
   63.7350   31.5510   50.5670 C   0  0  0  0  0  0  0  0  0  0  0  0
   66.9020   31.8590   51.4230 C   0  0  0  0  0  0  0  0  0  0  0  0
   68.0900   32.5940   52.0670 C   0  0  0  0  0  0  0  0  0  0  0  0
   69.7092   34.0573   50.0500 H   0  0  0  0  0  0  0  0  0  0  0  0
   68.2618   33.0754   49.6409 H   0  0  0  0  0  0  0  0  0  0  0  0
   68.1598   34.8688   49.6409 H   0  0  0  0  0  0  0  0  0  0  0  0
   67.2117   35.3976   52.7309 H   0  0  0  0  0  0  0  0  0  0  0  0
   66.8934   35.4561   50.9295 H   0  0  0  0  0  0  0  0  0  0  0  0
   65.6004   33.7697   53.0593 H   0  0  0  0  0  0  0  0  0  0  0  0
   64.8845   34.6262   51.6421 H   0  0  0  0  0  0  0  0  0  0  0  0
   65.5158   33.8366   48.7516 H   0  0  0  0  0  0  0  0  0  0  0  0
   63.7255   33.3216   47.0977 H   0  0  0  0  0  0  0  0  0  0  0  0
   61.9310   30.9920   46.6100 H   0  0  0  0  0  0  0  0  0  0  0  0
   58.3001   33.6200   46.6995 H   0  0  0  0  0  0  0  0  0  0  0  0
   55.5112   31.5597   43.5768 H   0  0  0  0  0  0  0  0  0  0  0  0
   55.4759   29.3635   42.3942 H   0  0  0  0  0  0  0  0  0  0  0  0
   57.2626   27.6768   42.8294 H   0  0  0  0  0  0  0  0  0  0  0  0
   59.0946   28.1791   44.4476 H   0  0  0  0  0  0  0  0  0  0  0  0
   61.4203   28.3482   47.3863 H   0  0  0  0  0  0  0  0  0  0  0  0
   59.9887   29.1961   48.0595 H   0  0  0  0  0  0  0  0  0  0  0  0
   61.1718   26.3212   46.0270 H   0  0  0  0  0  0  0  0  0  0  0  0
   59.7421   24.3311   45.5505 H   0  0  0  0  0  0  0  0  0  0  0  0
   57.3048   24.3821   46.0924 H   0  0  0  0  0  0  0  0  0  0  0  0
   56.2960   26.4237   47.1156 H   0  0  0  0  0  0  0  0  0  0  0  0
   57.7224   28.4097   47.6113 H   0  0  0  0  0  0  0  0  0  0  0  0
   61.9235   30.5668   49.9075 H   0  0  0  0  0  0  0  0  0  0  0  0
   63.7289   31.0566   51.5496 H   0  0  0  0  0  0  0  0  0  0  0  0
   66.5832   31.0393   52.0837 H   0  0  0  0  0  0  0  0  0  0  0  0
   67.2184   31.4611   50.4475 H   0  0  0  0  0  0  0  0  0  0  0  0
   67.9364   32.6335   53.1555 H   0  0  0  0  0  0  0  0  0  0  0  0
   69.0087   32.0433   51.8168 H   0  0  0  0  0  0  0  0  0  0  0  0
  1  2  1  0
  2  3  1  0
  3  4  1  0
  4  5  1  0
  5  6  1  0
  6  7  2  0
  7  8  1  0
  8  9  2  0
  9 10  1  0
 10 11  1  0
 11 12  2  0
 11 13  1  0
 13 14  2  0
 14 15  1  0
 15 16  2  0
 16 17  1  0
 17 18  2  0
 18 19  1  0
 19 20  2  0
 20 21  1  0
 21 22  2  0
 22 23  1  0
 23 24  1  0
 24 25  1  0
 25 26  2  0
 26 27  1  0
 27 28  2  0
 28 29  1  0
 29 30  2  0
  9 31  1  0
 31 32  2  0
  5 33  1  0
 33 34  1  0
 34  2  1  0
 32  6  1  0
 22 13  1  0
 30 25  1  0
 21 16  1  0
  1 35  1  0
  1 36  1  0
  1 37  1  0
  3 38  1  0
  3 39  1  0
  4 40  1  0
  4 41  1  0
  7 42  1  0
  8 43  1  0
 10 44  1  0
 14 45  1  0
 17 46  1  0
 18 47  1  0
 19 48  1  0
 20 49  1  0
 24 50  1  0
 24 51  1  0
 26 52  1  0
 27 53  1  0
 28 54  1  0
 29 55  1  0
 30 56  1  0
 31 57  1  0
 32 58  1  0
 33 59  1  0
 33 60  1  0
 34 61  1  0
 34 62  1  0
M  END
>  <UniqueID>  (42) 
39

>  <SMILES>  (42) 
CN1CCN(c2ccc(NC(=O)c3cnc4ccccc4c3OCc3ccccc3)cc2)CC1

>  <Energy>  (42) 
93.97341885780503

>  <Genealogy>  (42) 
CN1CCN(c2ccc(NC(=O)c3cnc4ccccc4c3OCc3ccccc3)cc2)CC1 (3D coordinates assigned)
CN1CCN(c2ccc(NC(=O)c3cnc4ccccc4c3OCc3ccccc3)cc2)CC1 (nonaromatic ring conformer: 93.97341885780503 kcal/mol)

>  <smiles>  (42) 
CN1CCN(c2ccc(NC(=O)c3cnc4ccccc4c3OCc3ccccc3)cc2)CC1

>  <score_type>  (42) 
oracle

>  <origin>  (42) 
adg

>  <m_score__min__energy>  (42) 
-9.0399999999999991

>  <m_primary>  (42) 
energy

$$$$
43:0
     RDKit          3D

 30 32  0  0  0  0  0  0  0  0999 V2000
   54.6650   26.0130   45.9660 N   0  0  0  0  0  0  0  0  0  0  0  0
   55.4690   24.8370   46.0220 C   0  0  0  0  0  0  0  0  0  0  0  0
   55.1220   23.8750   46.7590 O   0  0  0  0  0  0  0  0  0  0  0  0
   56.7050   24.7350   45.1890 C   0  0  0  0  0  0  0  0  0  0  0  0
   58.1800   25.1690   46.1740 S   0  0  0  0  0  0  0  0  0  0  0  0
   57.9920   26.9350   45.9500 C   0  0  0  0  0  0  0  0  0  0  0  0
   56.8280   27.4360   45.4330 N   0  0  0  0  0  0  0  0  0  0  0  0
   56.6500   28.7750   45.2530 C   0  0  0  0  0  0  0  0  0  0  0  0
   55.5680   29.2100   44.7760 O   0  0  0  0  0  0  0  0  0  0  0  0
   57.6840   29.6430   45.6060 C   0  0  0  0  0  0  0  0  0  0  0  0
   57.7120   31.0390   45.5050 C   0  0  0  0  0  0  0  0  0  0  0  0
   58.9240   31.5870   45.9530 C   0  0  0  0  0  0  0  0  0  0  0  0
   59.2810   33.0290   45.9810 C   0  0  0  0  0  0  0  0  0  0  0  0
   58.9390   33.8840   44.9140 C   0  0  0  0  0  0  0  0  0  0  0  0
   59.2800   35.2390   44.9530 C   0  0  0  0  0  0  0  0  0  0  0  0
   59.9630   35.7610   46.0540 C   0  0  0  0  0  0  0  0  0  0  0  0
   60.3050   34.9270   47.1190 C   0  0  0  0  0  0  0  0  0  0  0  0
   59.9660   33.5700   47.0870 C   0  0  0  0  0  0  0  0  0  0  0  0
   59.9400   30.3210   46.4640 S   0  0  0  0  0  0  0  0  0  0  0  0
   58.8430   29.1070   46.1180 C   0  0  0  0  0  0  0  0  0  0  0  0
   59.0110   27.7750   46.2930 N   0  0  0  0  0  0  0  0  0  0  0  0
   54.8220   26.7340   45.2280 H   0  0  0  0  0  0  0  0  0  0  0  0
   56.8077   23.7042   44.8189 H   0  0  0  0  0  0  0  0  0  0  0  0
   56.6231   25.4355   44.3448 H   0  0  0  0  0  0  0  0  0  0  0  0
   56.8763   31.6401   45.1173 H   0  0  0  0  0  0  0  0  0  0  0  0
   58.3995   33.4818   44.0438 H   0  0  0  0  0  0  0  0  0  0  0  0
   59.0095   35.8966   44.1137 H   0  0  0  0  0  0  0  0  0  0  0  0
   60.2307   36.8276   46.0813 H   0  0  0  0  0  0  0  0  0  0  0  0
   60.8427   35.3376   47.9863 H   0  0  0  0  0  0  0  0  0  0  0  0
   60.2365   32.9201   47.9323 H   0  0  0  0  0  0  0  0  0  0  0  0
  1  2  1  0
  2  3  2  0
  2  4  1  0
  4  5  1  0
  5  6  1  0
  6  7  2  0
  7  8  1  0
  8  9  2  0
  8 10  1  0
 10 11  1  0
 11 12  2  0
 12 13  1  0
 13 14  2  0
 14 15  1  0
 15 16  2  0
 16 17  1  0
 17 18  2  0
 12 19  1  0
 19 20  1  0
 20 21  1  0
 21  6  1  0
 20 10  2  0
 18 13  1  0
  1 22  1  0
  4 23  1  0
  4 24  1  0
 11 25  1  0
 14 26  1  0
 15 27  1  0
 16 28  1  0
 17 29  1  0
 18 30  1  0
M  CHG  2   1  -1  21  -1
M  END
>  <UniqueID>  (43) 
40

>  <SMILES>  (43) 
[NH-]C(=O)CSc1nc(=O)c2cc(-c3ccccc3)sc2[n-]1

>  <Energy>  (43) 
63.619197882830925

>  <Genealogy>  (43) 
[NH-]C(=O)CSc1nc(=O)c2cc(-c3ccccc3)sc2[n-]1 (protonated)
[NH-]C(=O)CSc1nc(=O)c2cc(-c3ccccc3)sc2[n-]1 (3D coordinates assigned)
[NH-]C(=O)CSc1nc(=O)c2cc(-c3ccccc3)sc2[n-]1 (optimized conformer: 63.619197882830925 kcal/mol)

>  <smiles>  (43) 
NC(=O)CSc1nc(=O)c2cc(-c3ccccc3)sc2[nH]1

>  <score_type>  (43) 
oracle

>  <origin>  (43) 
adg

>  <m_score__min__energy>  (43) 
-12.44

>  <m_primary>  (43) 
energy

$$$$
44:0
     RDKit          3D

 37 39  0  0  0  0  0  0  0  0999 V2000
   56.6890   24.5750   43.6060 C   0  0  0  0  0  0  0  0  0  0  0  0
   56.4870   23.7680   44.8700 C   0  0  0  0  0  0  0  0  0  0  0  0
   56.1410   24.3950   46.1000 C   0  0  0  0  0  0  0  0  0  0  0  0
   55.9030   25.8460   46.2220 C   0  0  0  0  0  0  0  0  0  0  0  0
   54.7670   26.3220   45.9570 O   0  0  0  0  0  0  0  0  0  0  0  0
   56.9340   26.6830   46.7600 N   0  0  0  0  0  0  0  0  0  0  0  0
   57.7580   27.5960   46.0200 C   0  0  0  0  0  0  0  0  0  0  0  0
   58.7830   27.0790   45.2220 C   0  0  0  0  0  0  0  0  0  0  0  0
   59.5960   27.9330   44.4760 C   0  0  0  0  0  0  0  0  0  0  0  0
   59.3820   29.3120   44.5060 C   0  0  0  0  0  0  0  0  0  0  0  0
   58.3400   29.8530   45.2800 C   0  0  0  0  0  0  0  0  0  0  0  0
   58.1000   31.3190   45.2940 C   0  0  0  0  0  0  0  0  0  0  0  0
   57.6670   32.0400   44.1750 C   0  0  0  0  0  0  0  0  0  0  0  0
   57.5250   33.6630   44.6080 S   0  0  0  0  0  0  0  0  0  0  0  0
   58.0120   33.3830   46.1870 C   0  0  0  0  0  0  0  0  0  0  0  0
   58.1090   34.2720   47.0720 O   0  0  0  0  0  0  0  0  0  0  0  0
   58.2880   32.0810   46.4100 N   0  0  0  0  0  0  0  0  0  0  0  0
   57.5250   28.9840   46.0300 C   0  0  0  0  0  0  0  0  0  0  0  0
   56.0170   23.6210   47.2640 C   0  0  0  0  0  0  0  0  0  0  0  0
   56.2030   22.2430   47.2250 C   0  0  0  0  0  0  0  0  0  0  0  0
   56.5450   21.6180   46.0300 C   0  0  0  0  0  0  0  0  0  0  0  0
   56.7190   22.3650   44.8540 C   0  0  0  0  0  0  0  0  0  0  0  0
   57.1460   21.6830   43.6600 N   0  0  0  0  0  0  0  0  0  0  0  0
   58.3610   21.4840   43.4550 O   0  0  0  0  0  0  0  0  0  0  0  0
   56.2530   21.4400   42.6410 O   0  0  0  0  0  0  0  0  0  0  0  0
   56.9483   25.6109   43.8699 H   0  0  0  0  0  0  0  0  0  0  0  0
   57.5040   24.1323   43.0146 H   0  0  0  0  0  0  0  0  0  0  0  0
   55.7615   24.5684   43.0146 H   0  0  0  0  0  0  0  0  0  0  0  0
   58.9495   25.9924   45.1820 H   0  0  0  0  0  0  0  0  0  0  0  0
   60.4087   27.5179   43.8619 H   0  0  0  0  0  0  0  0  0  0  0  0
   60.0320   29.9792   43.9210 H   0  0  0  0  0  0  0  0  0  0  0  0
   57.4552   31.6188   43.1812 H   0  0  0  0  0  0  0  0  0  0  0  0
   58.5860   31.7120   47.3390 H   0  0  0  0  0  0  0  0  0  0  0  0
   56.6985   29.3935   46.6293 H   0  0  0  0  0  0  0  0  0  0  0  0
   55.7699   24.1095   48.2181 H   0  0  0  0  0  0  0  0  0  0  0  0
   56.0794   21.6463   48.1408 H   0  0  0  0  0  0  0  0  0  0  0  0
   56.6806   20.5266   46.0063 H   0  0  0  0  0  0  0  0  0  0  0  0
  1  2  1  0
  2  3  2  0
  3  4  1  0
  4  5  2  0
  4  6  1  0
  6  7  1  0
  7  8  2  0
  8  9  1  0
  9 10  2  0
 10 11  1  0
 11 12  1  0
 12 13  2  0
 13 14  1  0
 14 15  1  0
 15 16  2  0
 15 17  1  0
 11 18  2  0
  3 19  1  0
 19 20  2  0
 20 21  1  0
 21 22  2  0
 22 23  1  0
 23 24  2  0
 23 25  1  0
 22  2  1  0
 18  7  1  0
 17 12  1  0
  1 26  1  0
  1 27  1  0
  1 28  1  0
  8 29  1  0
  9 30  1  0
 10 31  1  0
 13 32  1  0
 17 33  1  0
 18 34  1  0
 19 35  1  0
 20 36  1  0
 21 37  1  0
M  CHG  3   6  -1  23   1  25  -1
M  END
>  <UniqueID>  (44) 
41

>  <SMILES>  (44) 
Cc1c(C(=O)[N-]c2cccc(-c3csc(=O)[nH]3)c2)cccc1[N+](=O)[O-]

>  <Energy>  (44) 
90.59502753786902

>  <Genealogy>  (44) 
Cc1c(C(=O)[N-]c2cccc(-c3csc(=O)[nH]3)c2)cccc1[N+](=O)[O-] (protonated)
Cc1c(C(=O)[N-]c2cccc(-c3csc(=O)[nH]3)c2)cccc1[N+](=O)[O-] (3D coordinates assigned)
Cc1c(C(=O)[N-]c2cccc(-c3csc(=O)[nH]3)c2)cccc1[N+](=O)[O-] (optimized conformer: 90.59502753786902 kcal/mol)

>  <smiles>  (44) 
Cc1c(C(=O)Nc2cccc(-c3csc(=O)[nH]3)c2)cccc1[N+](=O)[O-]

>  <score_type>  (44) 
oracle

>  <origin>  (44) 
adg

>  <m_score__min__energy>  (44) 
-10.539999999999999

>  <m_primary>  (44) 
energy

$$$$
45:0
     RDKit          3D

 54 56  0  0  0  0  0  0  0  0999 V2000
   56.3290   25.1100   47.1930 O   0  0  0  0  0  0  0  0  0  0  0  0
   56.0480   26.0280   46.3790 C   0  0  0  0  0  0  0  0  0  0  0  0
   56.9960   27.1770   46.2000 C   0  0  0  0  0  0  0  0  0  0  0  0
   56.8260   27.7990   44.8890 N   0  0  0  0  0  0  0  0  0  0  0  0
   56.3810   29.1470   44.6810 C   0  0  0  0  0  0  0  0  0  0  0  0
   55.3450   29.3760   44.0000 O   0  0  0  0  0  0  0  0  0  0  0  0
   57.1620   30.2720   45.2260 C   0  0  0  0  0  0  0  0  0  0  0  0
   57.0560   31.5510   44.6500 C   0  0  0  0  0  0  0  0  0  0  0  0
   57.8480   32.6000   45.1160 C   0  0  0  0  0  0  0  0  0  0  0  0
   58.7600   32.3910   46.1590 C   0  0  0  0  0  0  0  0  0  0  0  0
   59.8780   33.6750   46.6340 S   0  0  0  0  0  0  0  0  0  0  0  0
   59.2110   34.5810   47.6320 O   0  0  0  0  0  0  0  0  0  0  0  0
   60.2030   34.4860   45.4110 O   0  0  0  0  0  0  0  0  0  0  0  0
   61.3640   33.0340   47.3130 N   0  0  0  0  0  0  0  0  0  0  0  0
   61.2980   33.0300   48.7940 C   0  0  0  0  0  0  0  0  0  0  0  0
   62.0660   34.2220   49.3640 C   0  0  0  0  0  0  0  0  0  0  0  0
   63.5470   33.9210   49.6080 C   0  0  0  0  0  0  0  0  0  0  0  0
   64.1060   32.8640   48.6400 C   0  0  0  0  0  0  0  0  0  0  0  0
   63.8910   33.2570   47.1740 C   0  0  0  0  0  0  0  0  0  0  0  0
   62.5000   33.8360   46.8180 C   0  0  0  0  0  0  0  0  0  0  0  0
   58.8500   31.1270   46.7560 C   0  0  0  0  0  0  0  0  0  0  0  0
   58.0610   30.0710   46.2880 C   0  0  0  0  0  0  0  0  0  0  0  0
   54.7730   26.0210   45.7340 N   0  0  0  0  0  0  0  0  0  0  0  0
   53.9840   24.8110   45.5390 C   0  0  0  0  0  0  0  0  0  0  0  0
   54.8570   23.7440   44.9460 C   0  0  0  0  0  0  0  0  0  0  0  0
   55.4630   23.9440   43.6980 C   0  0  0  0  0  0  0  0  0  0  0  0
   56.2200   22.9150   43.1310 C   0  0  0  0  0  0  0  0  0  0  0  0
   56.3760   21.7370   43.7930 N   0  0  0  0  0  0  0  0  0  0  0  0
   55.8120   21.5220   45.0100 C   0  0  0  0  0  0  0  0  0  0  0  0
   55.0320   22.5190   45.6050 C   0  0  0  0  0  0  0  0  0  0  0  0
   56.8033   27.9270   46.9813 H   0  0  0  0  0  0  0  0  0  0  0  0
   58.0252   26.7962   46.2755 H   0  0  0  0  0  0  0  0  0  0  0  0
   56.3453   31.7245   43.8285 H   0  0  0  0  0  0  0  0  0  0  0  0
   57.7562   33.5977   44.6619 H   0  0  0  0  0  0  0  0  0  0  0  0
   60.2462   33.0916   49.1102 H   0  0  0  0  0  0  0  0  0  0  0  0
   61.7514   32.1006   49.1692 H   0  0  0  0  0  0  0  0  0  0  0  0
   61.9912   35.0587   48.6538 H   0  0  0  0  0  0  0  0  0  0  0  0
   61.6163   34.4667   50.3376 H   0  0  0  0  0  0  0  0  0  0  0  0
   64.1204   34.8513   49.4824 H   0  0  0  0  0  0  0  0  0  0  0  0
   63.6405   33.5196   50.6279 H   0  0  0  0  0  0  0  0  0  0  0  0
   65.1848   32.7504   48.8227 H   0  0  0  0  0  0  0  0  0  0  0  0
   63.5702   31.9205   48.8209 H   0  0  0  0  0  0  0  0  0  0  0  0
   64.6458   34.0143   46.9155 H   0  0  0  0  0  0  0  0  0  0  0  0
   63.9747   32.3205   46.6031 H   0  0  0  0  0  0  0  0  0  0  0  0
   62.4251   34.8441   47.2518 H   0  0  0  0  0  0  0  0  0  0  0  0
   62.4305   33.8370   45.7202 H   0  0  0  0  0  0  0  0  0  0  0  0
   59.5428   30.9644   47.5948 H   0  0  0  0  0  0  0  0  0  0  0  0
   58.1444   29.0778   46.7535 H   0  0  0  0  0  0  0  0  0  0  0  0
   53.5902   24.4684   46.5072 H   0  0  0  0  0  0  0  0  0  0  0  0
   53.1447   25.0220   44.8600 H   0  0  0  0  0  0  0  0  0  0  0  0
   55.3439   24.9016   43.1700 H   0  0  0  0  0  0  0  0  0  0  0  0
   56.6907   23.0581   42.1472 H   0  0  0  0  0  0  0  0  0  0  0  0
   55.9687   20.5640   45.5274 H   0  0  0  0  0  0  0  0  0  0  0  0
   54.5594   22.3432   46.5826 H   0  0  0  0  0  0  0  0  0  0  0  0
  1  2  2  0
  2  3  1  0
  3  4  1  0
  4  5  1  0
  5  6  2  0
  5  7  1  0
  7  8  2  0
  8  9  1  0
  9 10  2  0
 10 11  1  0
 11 12  2  0
 11 13  2  0
 11 14  1  0
 14 15  1  0
 15 16  1  0
 16 17  1  0
 17 18  1  0
 18 19  1  0
 19 20  1  0
 10 21  1  0
 21 22  2  0
  2 23  1  0
 23 24  1  0
 24 25  1  0
 25 26  2  0
 26 27  1  0
 27 28  2  0
 28 29  1  0
 29 30  2  0
 22  7  1  0
 30 25  1  0
 20 14  1  0
  3 31  1  0
  3 32  1  0
  8 33  1  0
  9 34  1  0
 15 35  1  0
 15 36  1  0
 16 37  1  0
 16 38  1  0
 17 39  1  0
 17 40  1  0
 18 41  1  0
 18 42  1  0
 19 43  1  0
 19 44  1  0
 20 45  1  0
 20 46  1  0
 21 47  1  0
 22 48  1  0
 24 49  1  0
 24 50  1  0
 26 51  1  0
 27 52  1  0
 29 53  1  0
 30 54  1  0
M  CHG  2   4  -1  23  -1
M  END
>  <UniqueID>  (45) 
42

>  <SMILES>  (45) 
O=C(C[N-]C(=O)c1ccc(S(=O)(=O)N2CCCCCC2)cc1)[N-]Cc1ccncc1

>  <Energy>  (45) 
64.21964060789176

>  <Genealogy>  (45) 
O=C(C[N-]C(=O)c1ccc(S(=O)(=O)N2CCCCCC2)cc1)[N-]Cc1ccncc1 (protonated)
O=C(C[N-]C(=O)c1ccc(S(=O)(=O)N2CCCCCC2)cc1)[N-]Cc1ccncc1 (3D coordinates assigned)
O=C(C[N-]C(=O)c1ccc(S(=O)(=O)N2CCCCCC2)cc1)[N-]Cc1ccncc1 (nonaromatic ring conformer: 64.21964060789176 kcal/mol)

>  <smiles>  (45) 
O=C(CNC(=O)c1ccc(S(=O)(=O)N2CCCCCC2)cc1)NCc1ccncc1

>  <score_type>  (45) 
oracle

>  <origin>  (45) 
adg

>  <m_score__min__energy>  (45) 
-11.99

>  <m_primary>  (45) 
energy

$$$$
46:0
     RDKit          3D

 56 59  0  0  0  0  0  0  0  0999 V2000
   58.9270   29.8358   44.3128 H   0  0  0  0  0  0  0  0  0  0  0  0
   58.5820   30.7180   44.8720 C   0  0  0  0  0  0  0  0  0  0  0  0
   59.4830   31.5960   45.9890 S   0  0  0  0  0  0  0  0  0  0  0  0
   58.2340   32.6920   46.2870 C   0  0  0  0  0  0  0  0  0  0  0  0
   58.2690   33.6880   47.1220 N   0  0  0  0  0  0  0  0  0  0  0  0
   59.3790   34.5780   47.3100 C   0  0  0  0  0  0  0  0  0  0  0  0
   59.3340   35.7180   46.7730 O   0  0  0  0  0  0  0  0  0  0  0  0
   60.5970   34.1660   48.0500 C   0  0  0  0  0  0  0  0  0  0  0  0
   61.7750   33.8210   47.3620 C   0  0  0  0  0  0  0  0  0  0  0  0
   61.7938   33.8483   46.2625 H   0  0  0  0  0  0  0  0  0  0  0  0
   62.9210   33.4440   48.0670 C   0  0  0  0  0  0  0  0  0  0  0  0
   63.8353   33.1711   47.5197 H   0  0  0  0  0  0  0  0  0  0  0  0
   62.9110   33.4120   49.4670 C   0  0  0  0  0  0  0  0  0  0  0  0
   64.3710   32.9530   50.3410 S   0  0  0  0  0  0  0  0  0  0  0  0
   65.5060   32.7520   49.3730 O   0  0  0  0  0  0  0  0  0  0  0  0
   64.7370   34.0650   51.2840 O   0  0  0  0  0  0  0  0  0  0  0  0
   64.0870   31.4820   51.2390 N   0  0  0  0  0  0  0  0  0  0  0  0
   63.7550   31.7660   52.1910 H   0  0  0  0  0  0  0  0  0  0  0  0
   65.3530   30.7210   51.3690 C   0  0  0  0  0  0  0  0  0  0  0  0
   65.8909   30.7701   50.4107 H   0  0  0  0  0  0  0  0  0  0  0  0
   65.9277   31.1781   52.1880 H   0  0  0  0  0  0  0  0  0  0  0  0
   65.1330   29.2350   51.7340 C   0  0  0  0  0  0  0  0  0  0  0  0
   65.2045   28.6294   50.8185 H   0  0  0  0  0  0  0  0  0  0  0  0
   65.9046   28.9445   52.4622 H   0  0  0  0  0  0  0  0  0  0  0  0
   63.7640   29.0030   52.3750 C   0  0  0  0  0  0  0  0  0  0  0  0
   63.6412   27.9296   52.5818 H   0  0  0  0  0  0  0  0  0  0  0  0
   63.7112   29.5844   53.3073 H   0  0  0  0  0  0  0  0  0  0  0  0
   62.6320   29.4680   51.4440 C   0  0  0  0  0  0  0  0  0  0  0  0
   62.3604   28.6366   50.7770 H   0  0  0  0  0  0  0  0  0  0  0  0
   61.7852   29.7741   52.0759 H   0  0  0  0  0  0  0  0  0  0  0  0
   63.0350   30.6830   50.5810 C   0  0  0  0  0  0  0  0  0  0  0  0
   63.4107   30.3249   49.6111 H   0  0  0  0  0  0  0  0  0  0  0  0
   62.1493   31.3206   50.4435 H   0  0  0  0  0  0  0  0  0  0  0  0
   61.7480   33.7740   50.1580 C   0  0  0  0  0  0  0  0  0  0  0  0
   61.7380   33.7618   51.2579 H   0  0  0  0  0  0  0  0  0  0  0  0
   60.5990   34.1510   49.4550 C   0  0  0  0  0  0  0  0  0  0  0  0
   59.6910   34.4376   50.0057 H   0  0  0  0  0  0  0  0  0  0  0  0
   57.1330   32.4010   45.5640 N   0  0  0  0  0  0  0  0  0  0  0  0
   57.3220   31.3050   44.7800 C   0  0  0  0  0  0  0  0  0  0  0  0
   56.2750   30.8390   43.8160 C   0  0  0  0  0  0  0  0  0  0  0  0
   56.4919   31.2438   42.8164 H   0  0  0  0  0  0  0  0  0  0  0  0
   55.2883   31.1917   44.1507 H   0  0  0  0  0  0  0  0  0  0  0  0
   56.2740   29.3450   43.7580 C   0  0  0  0  0  0  0  0  0  0  0  0
   56.6680   28.7580   42.7130 O   0  0  0  0  0  0  0  0  0  0  0  0
   55.8560   28.5970   44.9060 N   0  0  0  0  0  0  0  0  0  0  0  0
   56.6660   27.6990   45.6780 C   0  0  0  0  0  0  0  0  0  0  0  0
   56.3570   26.3320   45.6630 C   0  0  0  0  0  0  0  0  0  0  0  0
   55.4871   25.9751   45.0921 H   0  0  0  0  0  0  0  0  0  0  0  0
   57.1460   25.4190   46.3680 C   0  0  0  0  0  0  0  0  0  0  0  0
   56.8897   24.3493   46.3589 H   0  0  0  0  0  0  0  0  0  0  0  0
   58.2610   25.8640   47.0850 C   0  0  0  0  0  0  0  0  0  0  0  0
   58.8774   25.1458   47.6455 H   0  0  0  0  0  0  0  0  0  0  0  0
   58.5920   27.2230   47.0890 C   0  0  0  0  0  0  0  0  0  0  0  0
   60.1340   27.8260   48.0420 Br  0  0  0  0  0  0  0  0  0  0  0  0
   57.8030   28.1390   46.3830 C   0  0  0  0  0  0  0  0  0  0  0  0
   58.0720   29.2056   46.3789 H   0  0  0  0  0  0  0  0  0  0  0  0
  1  2  1  0
  2  3  1  0
  3  4  1  0
  4  5  2  0
  5  6  1  0
  6  7  2  0
  6  8  1  0
  8  9  2  0
  9 10  1  0
  9 11  1  0
 11 12  1  0
 11 13  2  0
 13 14  1  0
 14 15  2  0
 14 16  2  0
 14 17  1  0
 17 18  1  0
 17 19  1  0
 19 20  1  0
 19 21  1  0
 19 22  1  0
 22 23  1  0
 22 24  1  0
 22 25  1  0
 25 26  1  0
 25 27  1  0
 25 28  1  0
 28 29  1  0
 28 30  1  0
 28 31  1  0
 31 32  1  0
 31 33  1  0
 13 34  1  0
 34 35  1  0
 34 36  2  0
 36 37  1  0
  4 38  1  0
 38 39  1  0
 39 40  1  0
 40 41  1  0
 40 42  1  0
 40 43  1  0
 43 44  2  0
 43 45  1  0
 45 46  1  0
 46 47  2  0
 47 48  1  0
 47 49  1  0
 49 50  1  0
 49 51  2  0
 51 52  1  0
 51 53  1  0
 53 54  1  0
 53 55  2  0
 55 56  1  0
 39  2  2  0
 55 46  1  0
 36  8  1  0
 31 17  1  0
M  CHG  3  17   1  38  -1  45  -1
M  END
>  <UniqueID>  (46) 
43

>  <SMILES>  (46) 
O=C(Cc1cs/c(=N\C(=O)c2ccc(S(=O)(=O)[NH+]3CCCCC3)cc2)[n-]1)[N-]c1cccc(Br)c1

>  <Energy>  (46) 
101.05548534545025

>  <Genealogy>  (46) 
O=C(Cc1csc(=NC(=O)c2ccc(S(=O)(=O)[NH+]3CCCCC3)cc2)[n-]1)[N-]c1cccc(Br)c1 (protonated)
O=C(Cc1cs/c(=N\C(=O)c2ccc(S(=O)(=O)[NH+]3CCCCC3)cc2)[n-]1)[N-]c1cccc(Br)c1 (cis-trans isomerization)
O=C(Cc1cs/c(=N\C(=O)c2ccc(S(=O)(=O)[NH+]3CCCCC3)cc2)[n-]1)[N-]c1cccc(Br)c1 (3D coordinates assigned)
O=C(Cc1cs/c(=N\C(=O)c2ccc(S(=O)(=O)[NH+]3CCCCC3)cc2)[n-]1)[N-]c1cccc(Br)c1 (nonaromatic ring conformer: 101.05548534545025 kcal/mol)

>  <smiles>  (46) 
O=C(Cc1csc(=NC(=O)c2ccc(S(=O)(=O)N3CCCCC3)cc2)[nH]1)Nc1cccc(Br)c1

>  <score_type>  (46) 
oracle

>  <origin>  (46) 
adg

>  <m_score__min__energy>  (46) 
-11.300000000000001

>  <m_primary>  (46) 
energy

$$$$
47:0
     RDKit          3D

 42 44  0  0  0  0  0  0  0  0999 V2000
   57.5207   30.5602   42.8727 H   0  0  0  0  0  0  0  0  0  0  0  0
   57.7600   31.2680   43.6800 C   0  0  0  0  0  0  0  0  0  0  0  0
   58.0580   30.7960   44.9700 C   0  0  0  0  0  0  0  0  0  0  0  0
   58.0380   29.3480   45.2910 C   0  0  0  0  0  0  0  0  0  0  0  0
   59.2290   28.6130   45.4350 C   0  0  0  0  0  0  0  0  0  0  0  0
   60.1998   29.1118   45.2981 H   0  0  0  0  0  0  0  0  0  0  0  0
   59.1850   27.2530   45.7510 C   0  0  0  0  0  0  0  0  0  0  0  0
   60.1211   26.6855   45.8592 H   0  0  0  0  0  0  0  0  0  0  0  0
   57.9590   26.6110   45.9300 C   0  0  0  0  0  0  0  0  0  0  0  0
   57.9323   25.5396   46.1776 H   0  0  0  0  0  0  0  0  0  0  0  0
   56.7580   27.3290   45.7950 C   0  0  0  0  0  0  0  0  0  0  0  0
   55.4730   26.7170   45.9680 N   0  0  0  0  0  0  0  0  0  0  0  0
   55.1310   25.0200   45.8510 S   0  0  0  0  0  0  0  0  0  0  0  0
   55.5160   24.3280   47.1280 O   0  0  0  0  0  0  0  0  0  0  0  0
   53.6550   24.8410   45.6300 O   0  0  0  0  0  0  0  0  0  0  0  0
   56.0050   24.3130   44.4700 C   0  0  0  0  0  0  0  0  0  0  0  0
   56.8103   23.6616   44.8404 H   0  0  0  0  0  0  0  0  0  0  0  0
   55.3074   23.7221   43.8583 H   0  0  0  0  0  0  0  0  0  0  0  0
   56.4372   25.1186   43.8583 H   0  0  0  0  0  0  0  0  0  0  0  0
   56.8090   28.6920   45.4800 C   0  0  0  0  0  0  0  0  0  0  0  0
   55.8719   29.2592   45.3787 H   0  0  0  0  0  0  0  0  0  0  0  0
   58.3460   31.6940   45.9520 N   0  0  0  0  0  0  0  0  0  0  0  0
   58.3630   33.0400   45.7340 C   0  0  0  0  0  0  0  0  0  0  0  0
   58.6440   33.8700   46.6950 N   0  0  0  0  0  0  0  0  0  0  0  0
   59.9470   34.5040   46.9010 C   0  0  0  0  0  0  0  0  0  0  0  0
   60.1964   35.1088   46.0167 H   0  0  0  0  0  0  0  0  0  0  0  0
   59.8900   35.1378   47.7983 H   0  0  0  0  0  0  0  0  0  0  0  0
   61.0240   33.4710   47.1110 C   0  0  0  0  0  0  0  0  0  0  0  0
   62.3590   33.8720   47.2730 C   0  0  0  0  0  0  0  0  0  0  0  0
   62.6252   34.9389   47.2426 H   0  0  0  0  0  0  0  0  0  0  0  0
   63.3460   32.9060   47.4730 C   0  0  0  0  0  0  0  0  0  0  0  0
   64.3954   33.2089   47.6035 H   0  0  0  0  0  0  0  0  0  0  0  0
   62.9990   31.5560   47.5070 C   0  0  0  0  0  0  0  0  0  0  0  0
   63.7699   30.7880   47.6677 H   0  0  0  0  0  0  0  0  0  0  0  0
   61.6630   31.1890   47.3350 C   0  0  0  0  0  0  0  0  0  0  0  0
   61.3791   30.1265   47.3579 H   0  0  0  0  0  0  0  0  0  0  0  0
   60.7100   32.1420   47.1390 N   0  0  0  0  0  0  0  0  0  0  0  0
   59.7190   31.8350   47.0160 H   0  0  0  0  0  0  0  0  0  0  0  0
   58.0710   33.5340   44.4580 C   0  0  0  0  0  0  0  0  0  0  0  0
   58.0789   34.6173   44.2670 H   0  0  0  0  0  0  0  0  0  0  0  0
   57.7700   32.6410   43.4310 C   0  0  0  0  0  0  0  0  0  0  0  0
   57.5402   33.0187   42.4238 H   0  0  0  0  0  0  0  0  0  0  0  0
  1  2  1  0
  2  3  2  0
  3  4  1  0
  4  5  2  0
  5  6  1  0
  5  7  1  0
  7  8  1  0
  7  9  2  0
  9 10  1  0
  9 11  1  0
 11 12  1  0
 12 13  1  0
 13 14  2  0
 13 15  2  0
 13 16  1  0
 16 17  1  0
 16 18  1  0
 16 19  1  0
 11 20  2  0
 20 21  1  0
  3 22  1  0
 22 23  1  0
 23 24  2  0
 24 25  1  0
 25 26  1  0
 25 27  1  0
 25 28  1  0
 28 29  2  0
 29 30  1  0
 29 31  1  0
 31 32  1  0
 31 33  2  0
 33 34  1  0
 33 35  1  0
 35 36  1  0
 35 37  2  0
 37 38  1  0
 23 39  1  0
 39 40  1  0
 39 41  2  0
 41 42  1  0
 41  2  1  0
 20  4  1  0
 37 28  1  0
M  CHG  3  12  -1  22  -1  37   1
M  END
>  <UniqueID>  (47) 
44

>  <SMILES>  (47) 
CS(=O)(=O)[N-]c1cccc(-c2ccc/c(=N/Cc3cccc[nH+]3)[n-]2)c1

>  <Energy>  (47) 
45.71944290422116

>  <Genealogy>  (47) 
CS(=O)(=O)[N-]c1cccc(-c2cccc(=NCc3cccc[nH+]3)[n-]2)c1 (protonated)
CS(=O)(=O)[N-]c1cccc(-c2ccc/c(=N/Cc3cccc[nH+]3)[n-]2)c1 (cis-trans isomerization)
CS(=O)(=O)[N-]c1cccc(-c2ccc/c(=N/Cc3cccc[nH+]3)[n-]2)c1 (3D coordinates assigned)
CS(=O)(=O)[N-]c1cccc(-c2ccc/c(=N/Cc3cccc[nH+]3)[n-]2)c1 (optimized conformer: 45.71944290422116 kcal/mol)

>  <smiles>  (47) 
CS(=O)(=O)Nc1cccc(-c2cccc(=NCc3ccccn3)[nH]2)c1

>  <score_type>  (47) 
oracle

>  <origin>  (47) 
adg

>  <m_score__min__energy>  (47) 
-10.26

>  <m_primary>  (47) 
energy

$$$$
48:0
     RDKit          3D

 57 59  0  0  0  0  0  0  0  0999 V2000
   57.7360   32.2420   42.3670 C   0  0  0  0  0  0  0  0  0  0  0  0
   57.9580   32.4610   43.7930 N   0  0  0  0  0  0  0  0  0  0  0  0
   58.8990   33.2860   44.2290 N   0  0  0  0  0  0  0  0  0  0  0  0
   58.8180   33.3490   45.5760 C   0  0  0  0  0  0  0  0  0  0  0  0
   59.6990   34.2240   46.4510 C   0  0  0  0  0  0  0  0  0  0  0  0
   59.1920   34.1820   47.9050 C   0  0  0  0  0  0  0  0  0  0  0  0
   59.6510   35.6720   45.9280 C   0  0  0  0  0  0  0  0  0  0  0  0
   61.1590   33.7270   46.4190 C   0  0  0  0  0  0  0  0  0  0  0  0
   57.7740   32.5490   46.0140 C   0  0  0  0  0  0  0  0  0  0  0  0
   57.2710   31.9860   44.8630 C   0  0  0  0  0  0  0  0  0  0  0  0
   56.2520   31.1730   44.8560 N   0  0  0  0  0  0  0  0  0  0  0  0
   56.1740   29.8470   44.3300 C   0  0  0  0  0  0  0  0  0  0  0  0
   56.2430   29.6780   43.0840 O   0  0  0  0  0  0  0  0  0  0  0  0
   55.8790   28.7430   45.1930 N   0  0  0  0  0  0  0  0  0  0  0  0
   56.8730   27.7600   45.6180 C   0  0  0  0  0  0  0  0  0  0  0  0
   58.2170   28.4180   45.7880 C   0  0  0  0  0  0  0  0  0  0  0  0
   58.5670   28.9960   47.0180 C   0  0  0  0  0  0  0  0  0  0  0  0
   59.8330   29.5700   47.2010 C   0  0  0  0  0  0  0  0  0  0  0  0
   60.2600   30.2940   48.7530 S   0  0  0  0  0  0  0  0  0  0  0  0
   60.7030   31.7140   48.5320 O   0  0  0  0  0  0  0  0  0  0  0  0
   61.4140   29.5360   49.3480 O   0  0  0  0  0  0  0  0  0  0  0  0
   58.9190   30.2740   49.8710 N   0  0  0  0  0  0  0  0  0  0  0  0
   59.2390   29.4450   51.0460 C   0  0  0  0  0  0  0  0  0  0  0  0
   58.1690   29.6220   52.1440 C   0  0  0  0  0  0  0  0  0  0  0  0
   57.0270   30.2830   51.6390 O   0  0  0  0  0  0  0  0  0  0  0  0
   57.3660   31.6030   51.2490 C   0  0  0  0  0  0  0  0  0  0  0  0
   58.5760   31.6400   50.2910 C   0  0  0  0  0  0  0  0  0  0  0  0
   60.7570   29.5580   46.1480 C   0  0  0  0  0  0  0  0  0  0  0  0
   60.4170   28.9810   44.9220 C   0  0  0  0  0  0  0  0  0  0  0  0
   59.1550   28.4090   44.7390 C   0  0  0  0  0  0  0  0  0  0  0  0
   58.8520   27.8430   43.5440 F   0  0  0  0  0  0  0  0  0  0  0  0
   56.9590   31.4755   42.2304 H   0  0  0  0  0  0  0  0  0  0  0  0
   57.4101   33.1821   41.8980 H   0  0  0  0  0  0  0  0  0  0  0  0
   58.6716   31.9034   41.8980 H   0  0  0  0  0  0  0  0  0  0  0  0
   60.0469   34.2528   48.5936 H   0  0  0  0  0  0  0  0  0  0  0  0
   58.5094   35.0267   48.0798 H   0  0  0  0  0  0  0  0  0  0  0  0
   58.6577   33.2365   48.0798 H   0  0  0  0  0  0  0  0  0  0  0  0
   59.6279   36.3686   46.7790 H   0  0  0  0  0  0  0  0  0  0  0  0
   60.5431   35.8705   45.3158 H   0  0  0  0  0  0  0  0  0  0  0  0
   58.7478   35.8110   45.3158 H   0  0  0  0  0  0  0  0  0  0  0  0
   61.5264   33.6019   47.4483 H   0  0  0  0  0  0  0  0  0  0  0  0
   61.2064   32.7621   45.8930 H   0  0  0  0  0  0  0  0  0  0  0  0
   61.7853   34.4626   45.8930 H   0  0  0  0  0  0  0  0  0  0  0  0
   57.4265   32.3983   47.0467 H   0  0  0  0  0  0  0  0  0  0  0  0
   56.5609   27.3188   46.5761 H   0  0  0  0  0  0  0  0  0  0  0  0
   56.9523   26.9756   44.8509 H   0  0  0  0  0  0  0  0  0  0  0  0
   57.8421   28.9987   47.8453 H   0  0  0  0  0  0  0  0  0  0  0  0
   59.2751   28.3880   50.7436 H   0  0  0  0  0  0  0  0  0  0  0  0
   60.2137   29.7598   51.4470 H   0  0  0  0  0  0  0  0  0  0  0  0
   57.8737   28.6317   52.5209 H   0  0  0  0  0  0  0  0  0  0  0  0
   58.5964   30.2319   52.9535 H   0  0  0  0  0  0  0  0  0  0  0  0
   56.5004   32.0553   50.7428 H   0  0  0  0  0  0  0  0  0  0  0  0
   57.6388   32.1617   52.1564 H   0  0  0  0  0  0  0  0  0  0  0  0
   58.3228   32.2418   49.4057 H   0  0  0  0  0  0  0  0  0  0  0  0
   59.4366   32.0880   50.8093 H   0  0  0  0  0  0  0  0  0  0  0  0
   61.7528   30.0041   46.2869 H   0  0  0  0  0  0  0  0  0  0  0  0
   61.1453   28.9769   44.0976 H   0  0  0  0  0  0  0  0  0  0  0  0
  1  2  1  0
  2  3  1  0
  3  4  1  0
  4  5  1  0
  5  6  1  0
  5  7  1  0
  5  8  1  0
  4  9  2  0
  9 10  1  0
 10 11  2  3
 11 12  1  0
 12 13  2  0
 12 14  1  0
 14 15  1  0
 15 16  1  0
 16 17  2  0
 17 18  1  0
 18 19  1  0
 19 20  2  0
 19 21  2  0
 19 22  1  0
 22 23  1  0
 23 24  1  0
 24 25  1  0
 25 26  1  0
 26 27  1  0
 18 28  2  0
 28 29  1  0
 29 30  2  0
 30 31  1  0
 10  2  1  0
 30 16  1  0
 27 22  1  0
  1 32  1  0
  1 33  1  0
  1 34  1  0
  6 35  1  0
  6 36  1  0
  6 37  1  0
  7 38  1  0
  7 39  1  0
  7 40  1  0
  8 41  1  0
  8 42  1  0
  8 43  1  0
  9 44  1  0
 15 45  1  0
 15 46  1  0
 17 47  1  0
 23 48  1  0
 23 49  1  0
 24 50  1  0
 24 51  1  0
 26 52  1  0
 26 53  1  0
 27 54  1  0
 27 55  1  0
 28 56  1  0
 29 57  1  0
M  CHG  2   3  -1  14  -1
M  END
>  <UniqueID>  (48) 
45

>  <SMILES>  (48) 
Cn1[n-]c(C(C)(C)C)cc1=NC(=O)[N-]Cc1cc(S(=O)(=O)N2CCOCC2)ccc1F

>  <Energy>  (48) 
99.17796456343565

>  <Genealogy>  (48) 
Cn1[n-]c(C(C)(C)C)cc1=NC(=O)[N-]Cc1cc(S(=O)(=O)N2CCOCC2)ccc1F (protonated)
Cn1[n-]c(C(C)(C)C)cc1=NC(=O)[N-]Cc1cc(S(=O)(=O)N2CCOCC2)ccc1F (3D coordinates assigned)
Cn1[n-]c(C(C)(C)C)cc1=NC(=O)[N-]Cc1cc(S(=O)(=O)N2CCOCC2)ccc1F (nonaromatic ring conformer: 99.17796456343565 kcal/mol)

>  <smiles>  (48) 
Cn1[nH]c(C(C)(C)C)cc1=NC(=O)NCc1cc(S(=O)(=O)N2CCOCC2)ccc1F

>  <score_type>  (48) 
oracle

>  <origin>  (48) 
adg

>  <m_score__min__energy>  (48) 
-12.84

>  <m_primary>  (48) 
energy

$$$$
49:0
     RDKit          3D

 44 45  0  0  0  0  0  0  0  0999 V2000
   58.1350   31.9470   43.1160 C   0  0  0  0  0  0  0  0  0  0  0  0
   57.6120   32.5110   44.1870 C   0  0  0  0  0  0  0  0  0  0  0  0
   57.7940   31.9170   45.5600 C   0  0  0  0  0  0  0  0  0  0  0  0
   57.7450   30.4460   45.5100 C   0  0  0  0  0  0  0  0  0  0  0  0
   58.8350   29.7610   46.0350 C   0  0  0  0  0  0  0  0  0  0  0  0
   59.9530   30.5050   46.5970 C   0  0  0  0  0  0  0  0  0  0  0  0
   60.8750   31.1340   47.0570 C   0  0  0  0  0  0  0  0  0  0  0  0
   61.9860   31.8850   47.5840 C   0  0  0  0  0  0  0  0  0  0  0  0
   62.9470   31.3480   48.3960 C   0  0  0  0  0  0  0  0  0  0  0  0
   63.9640   32.1870   48.8300 C   0  0  0  0  0  0  0  0  0  0  0  0
   64.0400   33.5010   48.4840 C   0  0  0  0  0  0  0  0  0  0  0  0
   63.0660   34.0510   47.6590 C   0  0  0  0  0  0  0  0  0  0  0  0
   62.0480   33.2320   47.2190 C   0  0  0  0  0  0  0  0  0  0  0  0
   61.0570   33.8210   46.3700 C   0  0  0  0  0  0  0  0  0  0  0  0
   60.2700   34.3060   45.6790 N   0  0  0  0  0  0  0  0  0  0  0  0
   58.8460   28.4160   46.0200 N   0  0  0  0  0  0  0  0  0  0  0  0
   57.8320   27.6970   45.5080 C   0  0  0  0  0  0  0  0  0  0  0  0
   57.9540   26.2220   45.5440 C   0  0  0  0  0  0  0  0  0  0  0  0
   56.8680   25.6600   46.4330 C   0  0  0  0  0  0  0  0  0  0  0  0
   59.3130   25.7710   45.9980 C   0  0  0  0  0  0  0  0  0  0  0  0
   57.7690   25.7310   44.1110 C   0  0  0  0  0  0  0  0  0  0  0  0
   56.7740   28.3510   44.9980 N   0  0  0  0  0  0  0  0  0  0  0  0
   56.7050   29.7160   44.9870 C   0  0  0  0  0  0  0  0  0  0  0  0
   55.6440   30.2170   44.4780 N   0  0  0  0  0  0  0  0  0  0  0  0
   57.9860   32.4028   42.1260 H   0  0  0  0  0  0  0  0  0  0  0  0
   58.7203   31.0207   43.2125 H   0  0  0  0  0  0  0  0  0  0  0  0
   57.0290   33.4371   44.0756 H   0  0  0  0  0  0  0  0  0  0  0  0
   58.7689   32.2309   45.9613 H   0  0  0  0  0  0  0  0  0  0  0  0
   56.9782   32.2728   46.2064 H   0  0  0  0  0  0  0  0  0  0  0  0
   62.9150   30.2897   48.6942 H   0  0  0  0  0  0  0  0  0  0  0  0
   64.7445   31.7706   49.4838 H   0  0  0  0  0  0  0  0  0  0  0  0
   64.8672   34.1240   48.8550 H   0  0  0  0  0  0  0  0  0  0  0  0
   63.1063   35.1103   47.3653 H   0  0  0  0  0  0  0  0  0  0  0  0
   57.1462   25.8040   47.4874 H   0  0  0  0  0  0  0  0  0  0  0  0
   55.9210   26.1812   46.2292 H   0  0  0  0  0  0  0  0  0  0  0  0
   56.7466   24.5859   46.2292 H   0  0  0  0  0  0  0  0  0  0  0  0
   59.3472   25.7596   47.0974 H   0  0  0  0  0  0  0  0  0  0  0  0
   59.5106   24.7591   45.6145 H   0  0  0  0  0  0  0  0  0  0  0  0
   60.0764   26.4640   45.6145 H   0  0  0  0  0  0  0  0  0  0  0  0
   57.3812   24.7017   44.1233 H   0  0  0  0  0  0  0  0  0  0  0  0
   57.0558   26.3854   43.5884 H   0  0  0  0  0  0  0  0  0  0  0  0
   58.7367   25.7520   43.5884 H   0  0  0  0  0  0  0  0  0  0  0  0
   55.9780   27.7900   44.5970 H   0  0  0  0  0  0  0  0  0  0  0  0
   54.8420   30.4780   45.0690 H   0  0  0  0  0  0  0  0  0  0  0  0
  1  2  2  0
  2  3  1  0
  3  4  1  0
  4  5  2  0
  5  6  1  0
  6  7  3  0
  7  8  1  0
  8  9  2  0
  9 10  1  0
 10 11  2  0
 11 12  1  0
 12 13  2  0
 13 14  1  0
 14 15  3  0
  5 16  1  0
 16 17  2  0
 17 18  1  0
 18 19  1  0
 18 20  1  0
 18 21  1  0
 17 22  1  0
 22 23  1  0
 23 24  2  3
 23  4  1  0
 13  8  1  0
  1 25  1  0
  1 26  1  0
  2 27  1  0
  3 28  1  0
  3 29  1  0
  9 30  1  0
 10 31  1  0
 11 32  1  0
 12 33  1  0
 19 34  1  0
 19 35  1  0
 19 36  1  0
 20 37  1  0
 20 38  1  0
 20 39  1  0
 21 40  1  0
 21 41  1  0
 21 42  1  0
 22 43  1  0
 24 44  1  0
M  END
>  <smiles>  (49) 
C=CCc1c(C#Cc2ccccc2C#N)nc(C(C)(C)C)[nH]c1=N

>  <score_type>  (49) 
oracle

>  <origin>  (49) 
adg

>  <m_score__min__energy>  (49) 
-7.6200000000000001

>  <m_primary>  (49) 
energy

$$$$
50:0
     RDKit          3D

 65 69  0  0  0  0  0  0  0  0999 V2000
   56.5810   24.9630   47.2360 O   0  0  0  0  0  0  0  0  0  0  0  0
   57.0950   25.9520   46.6490 C   0  0  0  0  0  0  0  0  0  0  0  0
   56.2360   26.8150   45.7630 C   0  0  0  0  0  0  0  0  0  0  0  0
   57.0340   27.8730   45.1480 N   0  0  0  0  0  0  0  0  0  0  0  0
   56.4710   29.1160   44.7130 C   0  0  0  0  0  0  0  0  0  0  0  0
   55.2320   29.3230   44.8240 O   0  0  0  0  0  0  0  0  0  0  0  0
   57.3670   30.1580   44.1050 C   0  0  0  0  0  0  0  0  0  0  0  0
   58.5180   30.4760   44.9820 N   0  0  0  0  0  0  0  0  0  0  0  0
   59.5410   29.5620   45.0950 C   0  0  0  0  0  0  0  0  0  0  0  0
   59.4780   28.4470   44.5100 O   0  0  0  0  0  0  0  0  0  0  0  0
   60.6400   29.8420   45.8360 N   0  0  0  0  0  0  0  0  0  0  0  0
   60.7740   31.0070   46.5070 C   0  0  0  0  0  0  0  0  0  0  0  0
   61.8250   31.2170   47.1710 O   0  0  0  0  0  0  0  0  0  0  0  0
   59.7440   31.9540   46.4610 C   0  0  0  0  0  0  0  0  0  0  0  0
   59.8420   33.1700   47.1660 C   0  0  0  0  0  0  0  0  0  0  0  0
   58.7940   34.0880   47.1330 C   0  0  0  0  0  0  0  0  0  0  0  0
   57.6400   33.8030   46.4060 C   0  0  0  0  0  0  0  0  0  0  0  0
   57.5320   32.6060   45.6940 C   0  0  0  0  0  0  0  0  0  0  0  0
   58.5880   31.6620   45.6930 C   0  0  0  0  0  0  0  0  0  0  0  0
   58.4820   26.2420   46.8720 N   0  0  0  0  0  0  0  0  0  0  0  0
   59.0150   27.1500   47.8440 C   0  0  0  0  0  0  0  0  0  0  0  0
   58.5170   28.4570   47.9820 C   0  0  0  0  0  0  0  0  0  0  0  0
   59.0640   29.3220   48.9330 C   0  0  0  0  0  0  0  0  0  0  0  0
   60.1240   28.8980   49.7440 C   0  0  0  0  0  0  0  0  0  0  0  0
   60.7570   29.9670   50.9910 S   0  0  0  0  0  0  0  0  0  0  0  0
   59.9570   29.8270   52.2560 O   0  0  0  0  0  0  0  0  0  0  0  0
   62.1800   29.5870   51.2890 O   0  0  0  0  0  0  0  0  0  0  0  0
   60.6730   31.6150   50.4400 N   0  0  0  0  0  0  0  0  0  0  0  0
   59.4160   32.3560   50.5770 C   0  0  0  0  0  0  0  0  0  0  0  0
   59.1740   32.7140   52.0520 C   0  0  0  0  0  0  0  0  0  0  0  0
   58.5710   34.0860   52.3150 C   0  0  0  0  0  0  0  0  0  0  0  0
   57.7090   32.8380   52.4450 C   0  0  0  0  0  0  0  0  0  0  0  0
   61.8450   32.2510   49.9040 C   0  0  0  0  0  0  0  0  0  0  0  0
   63.0080   31.5030   49.6670 C   0  0  0  0  0  0  0  0  0  0  0  0
   64.1440   32.1170   49.1290 C   0  0  0  0  0  0  0  0  0  0  0  0
   64.1260   33.4810   48.8260 C   0  0  0  0  0  0  0  0  0  0  0  0
   62.9670   34.2320   49.0510 C   0  0  0  0  0  0  0  0  0  0  0  0
   61.8280   33.6180   49.5820 C   0  0  0  0  0  0  0  0  0  0  0  0
   60.6460   27.6070   49.5830 C   0  0  0  0  0  0  0  0  0  0  0  0
   60.0990   26.7430   48.6300 C   0  0  0  0  0  0  0  0  0  0  0  0
   55.7908   26.1922   44.9732 H   0  0  0  0  0  0  0  0  0  0  0  0
   55.4459   27.2757   46.3741 H   0  0  0  0  0  0  0  0  0  0  0  0
   58.0610   27.7160   45.0290 H   0  0  0  0  0  0  0  0  0  0  0  0
   57.7459   29.7836   43.1425 H   0  0  0  0  0  0  0  0  0  0  0  0
   56.7779   31.0769   43.9686 H   0  0  0  0  0  0  0  0  0  0  0  0
   60.7497   33.3957   47.7450 H   0  0  0  0  0  0  0  0  0  0  0  0
   58.8779   35.0380   47.6811 H   0  0  0  0  0  0  0  0  0  0  0  0
   56.8097   34.5244   46.3926 H   0  0  0  0  0  0  0  0  0  0  0  0
   56.6141   32.3936   45.1262 H   0  0  0  0  0  0  0  0  0  0  0  0
   57.6933   28.8002   47.3387 H   0  0  0  0  0  0  0  0  0  0  0  0
   58.6608   30.3393   49.0451 H   0  0  0  0  0  0  0  0  0  0  0  0
   59.4712   33.2798   49.9824 H   0  0  0  0  0  0  0  0  0  0  0  0
   58.5867   31.7293   50.2171 H   0  0  0  0  0  0  0  0  0  0  0  0
   60.0482   32.1681   52.4366 H   0  0  0  0  0  0  0  0  0  0  0  0
   58.8601   34.6508   53.2136 H   0  0  0  0  0  0  0  0  0  0  0  0
   58.4987   35.0256   51.7477 H   0  0  0  0  0  0  0  0  0  0  0  0
   57.3753   32.5009   53.4375 H   0  0  0  0  0  0  0  0  0  0  0  0
   56.7559   32.5021   52.0105 H   0  0  0  0  0  0  0  0  0  0  0  0
   63.0267   30.4293   49.9052 H   0  0  0  0  0  0  0  0  0  0  0  0
   65.0527   31.5253   48.9442 H   0  0  0  0  0  0  0  0  0  0  0  0
   65.0227   33.9642   48.4107 H   0  0  0  0  0  0  0  0  0  0  0  0
   62.9516   35.3052   48.8103 H   0  0  0  0  0  0  0  0  0  0  0  0
   60.9148   34.2084   49.7482 H   0  0  0  0  0  0  0  0  0  0  0  0
   61.4876   27.2733   50.2078 H   0  0  0  0  0  0  0  0  0  0  0  0
   60.5233   25.7369   48.4970 H   0  0  0  0  0  0  0  0  0  0  0  0
  1  2  2  0
  2  3  1  0
  3  4  1  0
  4  5  1  0
  5  6  2  0
  5  7  1  0
  7  8  1  0
  8  9  1  0
  9 10  2  0
  9 11  1  0
 11 12  1  0
 12 13  2  0
 12 14  1  0
 14 15  2  0
 15 16  1  0
 16 17  2  0
 17 18  1  0
 18 19  2  0
  2 20  1  0
 20 21  1  0
 21 22  2  0
 22 23  1  0
 23 24  2  0
 24 25  1  0
 25 26  2  0
 25 27  2  0
 25 28  1  0
 28 29  1  0
 29 30  1  0
 30 31  1  0
 31 32  1  0
 28 33  1  0
 33 34  2  0
 34 35  1  0
 35 36  2  0
 36 37  1  0
 37 38  2  0
 24 39  1  0
 39 40  2  0
 19  8  1  0
 40 21  1  0
 19 14  1  0
 32 30  1  0
 38 33  1  0
  3 41  1  0
  3 42  1  0
  4 43  1  0
  7 44  1  0
  7 45  1  0
 15 46  1  0
 16 47  1  0
 17 48  1  0
 18 49  1  0
 22 50  1  0
 23 51  1  0
 29 52  1  0
 29 53  1  0
 30 54  1  0
 31 55  1  0
 31 56  1  0
 32 57  1  0
 32 58  1  0
 34 59  1  0
 35 60  1  0
 36 61  1  0
 37 62  1  0
 38 63  1  0
 39 64  1  0
 40 65  1  0
M  CHG  2  11  -1  20  -1
M  END
>  <UniqueID>  (50) 
46

>  <SMILES>  (50) 
O=C(CNC(=O)Cn1c(=O)[n-]c(=O)c2ccccc21)[N-]c1ccc(S(=O)(=O)N(CC2CC2)c2ccccc2)cc1

>  <Energy>  (50) 
350.40862494738093

>  <Genealogy>  (50) 
O=C(CNC(=O)Cn1c(=O)[n-]c(=O)c2ccccc21)[N-]c1ccc(S(=O)(=O)N(CC2CC2)c2ccccc2)cc1 (protonated)
O=C(CNC(=O)Cn1c(=O)[n-]c(=O)c2ccccc21)[N-]c1ccc(S(=O)(=O)N(CC2CC2)c2ccccc2)cc1 (3D coordinates assigned)
O=C(CNC(=O)Cn1c(=O)[n-]c(=O)c2ccccc21)[N-]c1ccc(S(=O)(=O)N(CC2CC2)c2ccccc2)cc1 (nonaromatic ring conformer: 350.40862494738093 kcal/mol)

>  <smiles>  (50) 
O=C(Cn1c(=O)[nH]c(=O)c2ccccc21)NCC(=O)Nc1ccc(S(=O)(=O)N(CC2CC2)c2ccccc2)cc1

>  <score_type>  (50) 
oracle

>  <origin>  (50) 
adg

>  <m_score__min__energy>  (50) 
-14.68

>  <m_primary>  (50) 
energy

$$$$
51:0
     RDKit          3D

 41 43  0  0  0  0  0  0  0  0999 V2000
   61.7773   30.4508   46.1106 H   0  0  0  0  0  0  0  0  0  0  0  0
   60.9050   29.7930   45.9830 C   0  0  0  0  0  0  0  0  0  0  0  0
   60.6323   29.4293   44.9813 H   0  0  0  0  0  0  0  0  0  0  0  0
   60.1730   29.4340   47.0500 C   0  0  0  0  0  0  0  0  0  0  0  0
   59.0440   28.6070   47.0330 C   0  0  0  0  0  0  0  0  0  0  0  0
   58.4340   28.0780   45.9550 C   0  0  0  0  0  0  0  0  0  0  0  0
   58.8318   28.3307   44.9611 H   0  0  0  0  0  0  0  0  0  0  0  0
   57.2670   27.1820   46.0250 C   0  0  0  0  0  0  0  0  0  0  0  0
   57.2950   25.9780   46.6240 N   0  0  0  0  0  0  0  0  0  0  0  0
   56.0180   25.5500   46.5290 C   0  0  0  0  0  0  0  0  0  0  0  0
   55.6430   24.4340   46.9740 O   0  0  0  0  0  0  0  0  0  0  0  0
   55.1720   26.4150   45.9300 N   0  0  0  0  0  0  0  0  0  0  0  0
   55.9740   27.4480   45.6270 C   0  0  0  0  0  0  0  0  0  0  0  0
   55.5210   28.6260   45.0450 O   0  0  0  0  0  0  0  0  0  0  0  0
   58.6340   28.4810   48.3520 C   0  0  0  0  0  0  0  0  0  0  0  0
   57.7684   27.9097   48.7184 H   0  0  0  0  0  0  0  0  0  0  0  0
   59.5220   29.2110   49.1160 C   0  0  0  0  0  0  0  0  0  0  0  0
   59.4040   29.3820   50.6050 C   0  0  0  0  0  0  0  0  0  0  0  0
   59.4452   28.3950   51.0888 H   0  0  0  0  0  0  0  0  0  0  0  0
   60.2342   30.0092   50.9618 H   0  0  0  0  0  0  0  0  0  0  0  0
   58.1080   30.0460   50.9460 C   0  0  0  0  0  0  0  0  0  0  0  0
   57.7680   31.0990   50.3430 O   0  0  0  0  0  0  0  0  0  0  0  0
   57.2950   29.5070   51.9970 N   0  0  0  0  0  0  0  0  0  0  0  0
   55.9220   29.8320   52.2620 C   0  0  0  0  0  0  0  0  0  0  0  0
   55.2990   30.9540   51.6900 C   0  0  0  0  0  0  0  0  0  0  0  0
   55.8719   31.6268   51.0349 H   0  0  0  0  0  0  0  0  0  0  0  0
   53.9530   31.2150   51.9530 C   0  0  0  0  0  0  0  0  0  0  0  0
   53.4633   32.0980   51.5166 H   0  0  0  0  0  0  0  0  0  0  0  0
   53.2340   30.3450   52.7750 C   0  0  0  0  0  0  0  0  0  0  0  0
   51.8950   30.5910   53.0490 O   0  0  0  0  0  0  0  0  0  0  0  0
   53.8440   29.2520   53.3040 N   0  0  0  0  0  0  0  0  0  0  0  0
   55.1540   28.9730   53.0640 C   0  0  0  0  0  0  0  0  0  0  0  0
   55.6710   27.9430   53.5710 O   0  0  0  0  0  0  0  0  0  0  0  0
   60.4460   29.8120   48.3280 N   0  0  0  0  0  0  0  0  0  0  0  0
   61.5570   30.6580   48.7880 C   0  0  0  0  0  0  0  0  0  0  0  0
   61.6914   30.5220   49.8713 H   0  0  0  0  0  0  0  0  0  0  0  0
   62.4727   30.3655   48.2533 H   0  0  0  0  0  0  0  0  0  0  0  0
   61.2640   32.1250   48.4990 C   0  0  0  0  0  0  0  0  0  0  0  0
   61.1550   32.6709   49.4477 H   0  0  0  0  0  0  0  0  0  0  0  0
   62.0935   32.5575   47.9203 H   0  0  0  0  0  0  0  0  0  0  0  0
   60.3320   32.2057   47.9203 H   0  0  0  0  0  0  0  0  0  0  0  0
  1  2  1  0
  2  3  1  0
  2  4  2  0
  4  5  1  0
  5  6  2  0
  6  7  1  0
  6  8  1  0
  8  9  1  0
  9 10  1  0
 10 11  2  0
 10 12  1  0
 12 13  1  0
 13 14  1  0
  5 15  1  0
 15 16  1  0
 15 17  2  0
 17 18  1  0
 18 19  1  0
 18 20  1  0
 18 21  1  0
 21 22  2  0
 21 23  1  0
 23 24  1  0
 24 25  2  0
 25 26  1  0
 25 27  1  0
 27 28  1  0
 27 29  2  0
 29 30  1  0
 29 31  1  0
 31 32  1  0
 32 33  2  0
 17 34  1  0
 34 35  1  0
 35 36  1  0
 35 37  1  0
 35 38  1  0
 38 39  1  0
 38 40  1  0
 38 41  1  0
 34  4  1  0
 13  8  2  0
 32 24  1  0
M  CHG  6   9  -1  12  -1  14  -1  23  -1  30  -1  31  -1
M  END
>  <UniqueID>  (51) 
47

>  <SMILES>  (51) 
C=c1/c(=C/c2[n-]c(=O)[n-]c2[O-])cc(CC(=O)[N-]c2ccc([O-])[n-]c2=O)n1CC

>  <Energy>  (51) 
108.13349495612239

>  <Genealogy>  (51) 
C=c1c(=Cc2[n-]c(=O)[n-]c2[O-])cc(CC(=O)[N-]c2ccc([O-])[n-]c2=O)n1CC (protonated)
C=c1/c(=C/c2[n-]c(=O)[n-]c2[O-])cc(CC(=O)[N-]c2ccc([O-])[n-]c2=O)n1CC (cis-trans isomerization)
C=c1/c(=C/c2[n-]c(=O)[n-]c2[O-])cc(CC(=O)[N-]c2ccc([O-])[n-]c2=O)n1CC (3D coordinates assigned)
C=c1/c(=C/c2[n-]c(=O)[n-]c2[O-])cc(CC(=O)[N-]c2ccc([O-])[n-]c2=O)n1CC (optimized conformer: 108.13349495612239 kcal/mol)

>  <smiles>  (51) 
C=c1c(=Cc2[nH]c(=O)[nH]c2O)cc(CC(=O)Nc2ccc(O)[nH]c2=O)n1CC

>  <score_type>  (51) 
oracle

>  <origin>  (51) 
adg

>  <m_score__min__energy>  (51) 
-18.780000000000001

>  <m_primary>  (51) 
energy

$$$$
52:0
     RDKit          3D

 54 56  0  0  0  0  0  0  0  0999 V2000
   58.3950   27.8900   43.6970 C   0  0  0  0  0  0  0  0  0  0  0  0
   58.6790   28.3300   44.9370 C   0  0  0  0  0  0  0  0  0  0  0  0
   58.9950   29.7050   45.1230 C   0  0  0  0  0  0  0  0  0  0  0  0
   58.9530   30.6410   44.0770 O   0  0  0  0  0  0  0  0  0  0  0  0
   57.7800   31.3450   43.6460 C   0  0  0  0  0  0  0  0  0  0  0  0
   57.0530   32.0880   44.7820 C   0  0  0  0  0  0  0  0  0  0  0  0
   57.8420   33.2140   45.2900 N   0  0  0  0  0  0  0  0  0  0  0  0
   58.9450   33.8230   44.5680 C   0  0  0  0  0  0  0  0  0  0  0  0
   59.4400   34.9760   45.4580 C   0  0  0  0  0  0  0  0  0  0  0  0
   58.8840   34.7170   46.8640 C   0  0  0  0  0  0  0  0  0  0  0  0
   57.8820   33.6570   46.6350 C   0  0  0  0  0  0  0  0  0  0  0  0
   57.1720   33.1620   47.5490 O   0  0  0  0  0  0  0  0  0  0  0  0
   59.3770   30.1800   46.3820 C   0  0  0  0  0  0  0  0  0  0  0  0
   59.6100   31.5430   46.5520 O   0  0  0  0  0  0  0  0  0  0  0  0
   59.5690   29.2970   47.4510 C   0  0  0  0  0  0  0  0  0  0  0  0
   60.0610   29.8000   48.7880 C   0  0  0  0  0  0  0  0  0  0  0  0
   61.4310   30.4220   48.6660 C   0  0  0  0  0  0  0  0  0  0  0  0
   61.6620   31.7420   48.4980 C   0  0  0  0  0  0  0  0  0  0  0  0
   60.8190   32.7220   49.2720 C   0  0  0  0  0  0  0  0  0  0  0  0
   62.7290   32.2560   47.5620 C   0  0  0  0  0  0  0  0  0  0  0  0
   59.2950   27.9380   47.2720 C   0  0  0  0  0  0  0  0  0  0  0  0
   58.7620   27.4430   46.0660 C   0  0  0  0  0  0  0  0  0  0  0  0
   58.3250   26.1550   46.0910 C   0  0  0  0  0  0  0  0  0  0  0  0
   56.9190   25.7130   46.1880 C   0  0  0  0  0  0  0  0  0  0  0  0
   56.5250   24.4460   46.4170 N   0  0  0  0  0  0  0  0  0  0  0  0
   55.1810   24.5120   46.2980 C   0  0  0  0  0  0  0  0  0  0  0  0
   54.4370   23.5110   46.4580 O   0  0  0  0  0  0  0  0  0  0  0  0
   54.6990   25.7330   45.9810 N   0  0  0  0  0  0  0  0  0  0  0  0
   55.8150   26.4780   45.9040 C   0  0  0  0  0  0  0  0  0  0  0  0
   55.8270   27.8300   45.5790 O   0  0  0  0  0  0  0  0  0  0  0  0
   58.1483   26.8308   43.5323 H   0  0  0  0  0  0  0  0  0  0  0  0
   58.4097   28.5897   42.8483 H   0  0  0  0  0  0  0  0  0  0  0  0
   58.0766   32.0805   42.8837 H   0  0  0  0  0  0  0  0  0  0  0  0
   57.0796   30.5933   43.2530 H   0  0  0  0  0  0  0  0  0  0  0  0
   56.0937   32.4687   44.4014 H   0  0  0  0  0  0  0  0  0  0  0  0
   56.8978   31.3793   45.6089 H   0  0  0  0  0  0  0  0  0  0  0  0
   59.7494   33.0901   44.4075 H   0  0  0  0  0  0  0  0  0  0  0  0
   58.6320   34.1816   43.5763 H   0  0  0  0  0  0  0  0  0  0  0  0
   60.5396   34.9913   45.4820 H   0  0  0  0  0  0  0  0  0  0  0  0
   59.1009   35.9483   45.0712 H   0  0  0  0  0  0  0  0  0  0  0  0
   59.6760   34.3719   47.5449 H   0  0  0  0  0  0  0  0  0  0  0  0
   58.4628   35.6169   47.3361 H   0  0  0  0  0  0  0  0  0  0  0  0
   59.3569   30.5545   49.1688 H   0  0  0  0  0  0  0  0  0  0  0  0
   60.1259   28.9467   49.4791 H   0  0  0  0  0  0  0  0  0  0  0  0
   62.3026   29.7530   48.7176 H   0  0  0  0  0  0  0  0  0  0  0  0
   60.9613   32.5566   50.3501 H   0  0  0  0  0  0  0  0  0  0  0  0
   61.1210   33.7481   49.0155 H   0  0  0  0  0  0  0  0  0  0  0  0
   59.7592   32.5767   49.0155 H   0  0  0  0  0  0  0  0  0  0  0  0
   63.5675   32.6599   48.1483 H   0  0  0  0  0  0  0  0  0  0  0  0
   63.0883   31.4322   46.9278 H   0  0  0  0  0  0  0  0  0  0  0  0
   62.3087   33.0505   46.9278 H   0  0  0  0  0  0  0  0  0  0  0  0
   59.5010   27.2371   48.0943 H   0  0  0  0  0  0  0  0  0  0  0  0
   59.0914   25.3680   46.0335 H   0  0  0  0  0  0  0  0  0  0  0  0
   55.1460   28.2110   44.9340 H   0  0  0  0  0  0  0  0  0  0  0  0
  1  2  2  0
  2  3  1  0
  3  4  1  0
  4  5  1  0
  5  6  1  0
  6  7  1  0
  7  8  1  0
  8  9  1  0
  9 10  1  0
 10 11  1  0
 11 12  2  0
  3 13  2  0
 13 14  1  0
 13 15  1  0
 15 16  1  0
 16 17  1  0
 17 18  2  3
 18 19  1  0
 18 20  1  0
 15 21  2  0
 21 22  1  0
 22 23  2  3
 23 24  1  0
 24 25  1  0
 25 26  1  0
 26 27  2  0
 26 28  1  0
 28 29  1  0
 29 30  1  0
 22  2  1  0
 29 24  2  0
 11  7  1  0
  1 31  1  0
  1 32  1  0
  5 33  1  0
  5 34  1  0
  6 35  1  0
  6 36  1  0
  8 37  1  0
  8 38  1  0
  9 39  1  0
  9 40  1  0
 10 41  1  0
 10 42  1  0
 16 43  1  0
 16 44  1  0
 17 45  1  0
 19 46  1  0
 19 47  1  0
 19 48  1  0
 20 49  1  0
 20 50  1  0
 20 51  1  0
 21 52  1  0
 23 53  1  0
 30 54  1  0
M  CHG  3  14  -1  25  -1  28  -1
M  END
>  <UniqueID>  (52) 
48

>  <SMILES>  (52) 
C=c1c(OCCN2CCCC2=O)c([O-])c(CC=C(C)C)cc1=Cc1[n-]c(=O)[n-]c1O

>  <Energy>  (52) 
109.04449759509443

>  <Genealogy>  (52) 
C=c1c(OCCN2CCCC2=O)c([O-])c(CC=C(C)C)cc1=Cc1[n-]c(=O)[n-]c1O (protonated)
C=c1c(OCCN2CCCC2=O)c([O-])c(CC=C(C)C)cc1=Cc1[n-]c(=O)[n-]c1O (3D coordinates assigned)
C=c1c(OCCN2CCCC2=O)c([O-])c(CC=C(C)C)cc1=Cc1[n-]c(=O)[n-]c1O (nonaromatic ring conformer: 109.04449759509443 kcal/mol)

>  <smiles>  (52) 
C=c1c(OCCN2CCCC2=O)c(O)c(CC=C(C)C)cc1=Cc1[nH]c(=O)[nH]c1O

>  <score_type>  (52) 
oracle

>  <origin>  (52) 
adg

>  <m_score__min__energy>  (52) 
-13.859999999999999

>  <m_primary>  (52) 
energy

$$$$
53:0
     RDKit          3D

 30 31  0  0  0  0  0  0  0  0999 V2000
   55.9660   28.3420   45.2440 O   0  0  0  0  0  0  0  0  0  0  0  0
   56.5470   29.3810   44.8320 C   0  0  0  0  0  0  0  0  0  0  0  0
   55.9520   30.6580   44.8630 N   0  0  0  0  0  0  0  0  0  0  0  0
   56.9280   31.5930   44.3130 C   0  0  0  0  0  0  0  0  0  0  0  0
   58.2000   30.7710   43.9960 C   0  0  0  0  0  0  0  0  0  0  0  0
   57.8550   29.3900   44.3010 N   0  0  0  0  0  0  0  0  0  0  0  0
   58.8060   28.2790   44.3380 C   0  0  0  0  0  0  0  0  0  0  0  0
   58.2040   27.0600   43.6900 C   0  0  0  0  0  0  0  0  0  0  0  0
   58.4430   26.8370   42.5100 O   0  0  0  0  0  0  0  0  0  0  0  0
   57.3790   26.1460   44.4560 N   0  0  0  0  0  0  0  0  0  0  0  0
   57.3160   24.8310   43.7850 C   0  0  0  0  0  0  0  0  0  0  0  0
   56.1680   23.9610   44.3370 C   0  0  0  0  0  0  0  0  0  0  0  0
   55.7180   24.3340   46.0770 S   0  0  0  0  0  0  0  0  0  0  0  0
   57.4000   24.7950   46.5940 C   0  0  0  0  0  0  0  0  0  0  0  0
   57.8970   26.0450   45.8440 C   0  0  0  0  0  0  0  0  0  0  0  0
   56.5357   32.0541   43.3946 H   0  0  0  0  0  0  0  0  0  0  0  0
   57.1466   32.4021   45.0255 H   0  0  0  0  0  0  0  0  0  0  0  0
   58.4704   30.8746   42.9348 H   0  0  0  0  0  0  0  0  0  0  0  0
   59.0653   31.1149   44.5816 H   0  0  0  0  0  0  0  0  0  0  0  0
   59.7202   28.5646   43.7969 H   0  0  0  0  0  0  0  0  0  0  0  0
   59.0479   28.0471   45.3857 H   0  0  0  0  0  0  0  0  0  0  0  0
   56.4090   26.5420   44.4930 H   0  0  0  0  0  0  0  0  0  0  0  0
   57.1576   24.9881   42.7079 H   0  0  0  0  0  0  0  0  0  0  0  0
   58.2640   24.3055   43.9725 H   0  0  0  0  0  0  0  0  0  0  0  0
   55.2797   24.1210   43.7082 H   0  0  0  0  0  0  0  0  0  0  0  0
   56.5201   22.9191   44.3159 H   0  0  0  0  0  0  0  0  0  0  0  0
   57.3977   25.0033   47.6741 H   0  0  0  0  0  0  0  0  0  0  0  0
   58.0753   23.9593   46.3584 H   0  0  0  0  0  0  0  0  0  0  0  0
   57.5754   26.9369   46.4018 H   0  0  0  0  0  0  0  0  0  0  0  0
   58.9923   25.9686   45.7766 H   0  0  0  0  0  0  0  0  0  0  0  0
  1  2  2  0
  2  3  1  0
  3  4  1  0
  4  5  1  0
  5  6  1  0
  6  7  1  0
  7  8  1  0
  8  9  2  0
  8 10  1  0
 10 11  1  0
 11 12  1  0
 12 13  1  0
 13 14  1  0
 14 15  1  0
  6  2  1  0
 15 10  1  0
  4 16  1  0
  4 17  1  0
  5 18  1  0
  5 19  1  0
  7 20  1  0
  7 21  1  0
 10 22  1  0
 11 23  1  0
 11 24  1  0
 12 25  1  0
 12 26  1  0
 14 27  1  0
 14 28  1  0
 15 29  1  0
 15 30  1  0
M  CHG  2   3  -1  10   1
M  END
>  <UniqueID>  (53) 
49

>  <SMILES>  (53) 
O=C1[N-]CCN1CC(=O)[NH+]1CCSCC1

>  <Energy>  (53) 
44.24858147535345

>  <Genealogy>  (53) 
O=C1[N-]CCN1CC(=O)[NH+]1CCSCC1 (protonated)
O=C1[N-]CCN1CC(=O)[NH+]1CCSCC1 (3D coordinates assigned)
O=C1[N-]CCN1CC(=O)[NH+]1CCSCC1 (nonaromatic ring conformer: 44.24858147535345 kcal/mol)

>  <smiles>  (53) 
O=C(CN1CCNC1=O)N1CCSCC1

>  <score_type>  (53) 
oracle

>  <origin>  (53) 
adg

>  <m_score__min__energy>  (53) 
-5.6200000000000001

>  <m_primary>  (53) 
energy

$$$$
54:0
     RDKit          3D

 65 67  0  0  0  0  0  0  0  0999 V2000
   60.9890   31.2610   50.6260 N   0  0  0  0  0  0  0  0  0  0  0  0
   59.7080   31.3690   51.2600 C   0  0  0  0  0  0  0  0  0  0  0  0
   59.0880   30.2150   51.7620 C   0  0  0  0  0  0  0  0  0  0  0  0
   57.8270   30.2910   52.3570 C   0  0  0  0  0  0  0  0  0  0  0  0
   57.1760   31.5210   52.4590 C   0  0  0  0  0  0  0  0  0  0  0  0
   57.7830   32.6770   51.9640 C   0  0  0  0  0  0  0  0  0  0  0  0
   59.0480   32.6110   51.3550 C   0  0  0  0  0  0  0  0  0  0  0  0
   59.6980   33.8000   50.8810 N   0  0  0  0  0  0  0  0  0  0  0  0
   60.3640   33.9310   49.6190 C   0  0  0  0  0  0  0  0  0  0  0  0
   61.5910   34.2240   49.5820 O   0  0  0  0  0  0  0  0  0  0  0  0
   59.6000   33.7950   48.3610 C   0  0  0  0  0  0  0  0  0  0  0  0
   59.9310   34.5680   47.2340 C   0  0  0  0  0  0  0  0  0  0  0  0
   59.2140   34.4260   46.0430 C   0  0  0  0  0  0  0  0  0  0  0  0
   58.1660   33.4980   45.9540 C   0  0  0  0  0  0  0  0  0  0  0  0
   57.4660   33.2610   44.6460 C   0  0  0  0  0  0  0  0  0  0  0  0
   56.9100   31.9130   44.6290 N   0  0  0  0  0  0  0  0  0  0  0  0
   56.9830   31.0400   43.4980 C   0  0  0  0  0  0  0  0  0  0  0  0
   57.3560   31.4760   42.3770 O   0  0  0  0  0  0  0  0  0  0  0  0
   56.6230   29.5970   43.6530 C   0  0  0  0  0  0  0  0  0  0  0  0
   57.3360   28.9480   44.8530 C   0  0  0  0  0  0  0  0  0  0  0  0
   56.6590   27.6520   45.3450 C   0  0  0  0  0  0  0  0  0  0  0  0
   57.1580   27.2150   46.7300 C   0  0  0  0  0  0  0  0  0  0  0  0
   56.9010   25.7250   46.9590 C   0  0  0  0  0  0  0  0  0  0  0  0
   58.1500   25.0640   47.3330 N   0  0  0  0  0  0  0  0  0  0  0  0
   59.2640   25.0640   45.9960 S   0  0  0  0  0  0  0  0  0  0  0  0
   59.6600   23.6480   45.6870 O   0  0  0  0  0  0  0  0  0  0  0  0
   58.6400   25.6720   44.7680 O   0  0  0  0  0  0  0  0  0  0  0  0
   60.7330   25.9810   46.4290 C   0  0  0  0  0  0  0  0  0  0  0  0
   60.4010   27.4220   46.6990 C   0  0  0  0  0  0  0  0  0  0  0  0
   60.0410   27.8340   47.9910 C   0  0  0  0  0  0  0  0  0  0  0  0
   59.7800   29.1830   48.2520 C   0  0  0  0  0  0  0  0  0  0  0  0
   59.8730   30.1270   47.2240 C   0  0  0  0  0  0  0  0  0  0  0  0
   60.2280   29.7220   45.9360 C   0  0  0  0  0  0  0  0  0  0  0  0
   60.5020   28.3760   45.6740 C   0  0  0  0  0  0  0  0  0  0  0  0
   57.8360   32.7230   47.0750 C   0  0  0  0  0  0  0  0  0  0  0  0
   58.5360   32.8800   48.2740 C   0  0  0  0  0  0  0  0  0  0  0  0
   61.4660   32.1090   50.2450 H   0  0  0  0  0  0  0  0  0  0  0  0
   61.4800   30.3440   50.5360 H   0  0  0  0  0  0  0  0  0  0  0  0
   59.5987   29.2437   51.6864 H   0  0  0  0  0  0  0  0  0  0  0  0
   57.3466   29.3809   52.7455 H   0  0  0  0  0  0  0  0  0  0  0  0
   56.1836   31.5800   52.9298 H   0  0  0  0  0  0  0  0  0  0  0  0
   57.2681   33.6451   52.0512 H   0  0  0  0  0  0  0  0  0  0  0  0
   60.7597   35.2892   47.2903 H   0  0  0  0  0  0  0  0  0  0  0  0
   59.4727   35.0449   45.1712 H   0  0  0  0  0  0  0  0  0  0  0  0
   56.6544   33.9938   44.5265 H   0  0  0  0  0  0  0  0  0  0  0  0
   58.1846   33.3715   43.8205 H   0  0  0  0  0  0  0  0  0  0  0  0
   55.5359   29.5165   43.8004 H   0  0  0  0  0  0  0  0  0  0  0  0
   56.9426   29.0685   42.7428 H   0  0  0  0  0  0  0  0  0  0  0  0
   58.3686   28.7106   44.5575 H   0  0  0  0  0  0  0  0  0  0  0  0
   57.2942   29.6693   45.6824 H   0  0  0  0  0  0  0  0  0  0  0  0
   55.5732   27.8199   45.3984 H   0  0  0  0  0  0  0  0  0  0  0  0
   56.9110   26.8529   44.6323 H   0  0  0  0  0  0  0  0  0  0  0  0
   58.2384   27.4089   46.8010 H   0  0  0  0  0  0  0  0  0  0  0  0
   56.6132   27.7868   47.4957 H   0  0  0  0  0  0  0  0  0  0  0  0
   56.1647   25.6004   47.7667 H   0  0  0  0  0  0  0  0  0  0  0  0
   56.5122   25.2748   46.0337 H   0  0  0  0  0  0  0  0  0  0  0  0
   61.1816   25.5389   47.3308 H   0  0  0  0  0  0  0  0  0  0  0  0
   61.4400   25.9332   45.5876 H   0  0  0  0  0  0  0  0  0  0  0  0
   59.9638   27.0938   48.8010 H   0  0  0  0  0  0  0  0  0  0  0  0
   59.5012   29.5021   49.2671 H   0  0  0  0  0  0  0  0  0  0  0  0
   59.6666   31.1876   47.4303 H   0  0  0  0  0  0  0  0  0  0  0  0
   60.2923   30.4631   45.1257 H   0  0  0  0  0  0  0  0  0  0  0  0
   60.7976   28.0637   44.6615 H   0  0  0  0  0  0  0  0  0  0  0  0
   57.0211   31.9870   47.0101 H   0  0  0  0  0  0  0  0  0  0  0  0
   58.2532   32.2846   49.1546 H   0  0  0  0  0  0  0  0  0  0  0  0
  1  2  1  0
  2  3  2  0
  3  4  1  0
  4  5  2  0
  5  6  1  0
  6  7  2  0
  7  8  1  0
  8  9  1  0
  9 10  2  0
  9 11  1  0
 11 12  2  0
 12 13  1  0
 13 14  2  0
 14 15  1  0
 15 16  1  0
 16 17  1  0
 17 18  2  0
 17 19  1  0
 19 20  1  0
 20 21  1  0
 21 22  1  0
 22 23  1  0
 23 24  1  0
 24 25  1  0
 25 26  2  0
 25 27  2  0
 25 28  1  0
 28 29  1  0
 29 30  2  0
 30 31  1  0
 31 32  2  0
 32 33  1  0
 33 34  2  0
 14 35  1  0
 35 36  2  0
  7  2  1  0
 36 11  1  0
 34 29  1  0
  1 37  1  0
  1 38  1  0
  3 39  1  0
  4 40  1  0
  5 41  1  0
  6 42  1  0
 12 43  1  0
 13 44  1  0
 15 45  1  0
 15 46  1  0
 19 47  1  0
 19 48  1  0
 20 49  1  0
 20 50  1  0
 21 51  1  0
 21 52  1  0
 22 53  1  0
 22 54  1  0
 23 55  1  0
 23 56  1  0
 28 57  1  0
 28 58  1  0
 30 59  1  0
 31 60  1  0
 32 61  1  0
 33 62  1  0
 34 63  1  0
 35 64  1  0
 36 65  1  0
M  CHG  3   8  -1  16  -1  24  -1
M  END
>  <UniqueID>  (54) 
50

>  <SMILES>  (54) 
Nc1ccccc1[N-]C(=O)c1ccc(C[N-]C(=O)CCCCC[N-]S(=O)(=O)Cc2ccccc2)cc1

>  <Energy>  (54) 
49.70890035941696

>  <Genealogy>  (54) 
Nc1ccccc1[N-]C(=O)c1ccc(C[N-]C(=O)CCCCC[N-]S(=O)(=O)Cc2ccccc2)cc1 (protonated)
Nc1ccccc1[N-]C(=O)c1ccc(C[N-]C(=O)CCCCC[N-]S(=O)(=O)Cc2ccccc2)cc1 (3D coordinates assigned)
Nc1ccccc1[N-]C(=O)c1ccc(C[N-]C(=O)CCCCC[N-]S(=O)(=O)Cc2ccccc2)cc1 (optimized conformer: 49.70890035941696 kcal/mol)

>  <smiles>  (54) 
Nc1ccccc1NC(=O)c1ccc(CNC(=O)CCCCCNS(=O)(=O)Cc2ccccc2)cc1

>  <score_type>  (54) 
oracle

>  <origin>  (54) 
adg

>  <m_score__min__energy>  (54) 
-13.42

>  <m_primary>  (54) 
energy

$$$$
55:0
     RDKit          3D

 40 42  0  0  0  0  0  0  0  0999 V2000
   58.9430   30.4805   50.5149 H   0  0  0  0  0  0  0  0  0  0  0  0
   58.9690   30.4400   49.4160 C   0  0  0  0  0  0  0  0  0  0  0  0
   58.9380   31.6220   48.6750 C   0  0  0  0  0  0  0  0  0  0  0  0
   58.9016   32.5911   49.1941 H   0  0  0  0  0  0  0  0  0  0  0  0
   58.9530   31.5830   47.2700 C   0  0  0  0  0  0  0  0  0  0  0  0
   58.8920   32.8020   46.4960 N   0  0  0  0  0  0  0  0  0  0  0  0
   57.7850   33.2640   45.7390 C   0  0  0  0  0  0  0  0  0  0  0  0
   56.7370   32.5870   45.5590 O   0  0  0  0  0  0  0  0  0  0  0  0
   58.0190   34.5790   45.1080 C   0  0  0  0  0  0  0  0  0  0  0  0
   57.2613   35.3097   45.4274 H   0  0  0  0  0  0  0  0  0  0  0  0
   57.9559   34.5468   44.0103 H   0  0  0  0  0  0  0  0  0  0  0  0
   59.4120   34.9730   45.6180 C   0  0  0  0  0  0  0  0  0  0  0  0
   59.3330   35.8203   46.3151 H   0  0  0  0  0  0  0  0  0  0  0  0
   60.0619   35.2795   44.7851 H   0  0  0  0  0  0  0  0  0  0  0  0
   59.9930   33.7430   46.3440 C   0  0  0  0  0  0  0  0  0  0  0  0
   60.3857   34.0326   47.3299 H   0  0  0  0  0  0  0  0  0  0  0  0
   60.8240   33.2987   45.7766 H   0  0  0  0  0  0  0  0  0  0  0  0
   59.0440   30.3360   46.6260 C   0  0  0  0  0  0  0  0  0  0  0  0
   59.0733   30.2937   45.5272 H   0  0  0  0  0  0  0  0  0  0  0  0
   59.0980   29.1420   47.3680 C   0  0  0  0  0  0  0  0  0  0  0  0
   59.1360   27.8040   46.6680 C   0  0  0  0  0  0  0  0  0  0  0  0
   59.8771   27.1631   47.1680 H   0  0  0  0  0  0  0  0  0  0  0  0
   59.4051   27.9798   45.6160 H   0  0  0  0  0  0  0  0  0  0  0  0
   57.7950   27.1100   46.6950 C   0  0  0  0  0  0  0  0  0  0  0  0
   57.6390   26.1430   47.4920 O   0  0  0  0  0  0  0  0  0  0  0  0
   56.7010   27.4610   45.8290 N   0  0  0  0  0  0  0  0  0  0  0  0
   56.5710   28.5100   45.0720 C   0  0  0  0  0  0  0  0  0  0  0  0
   55.5940   29.4350   45.1980 N   0  0  0  0  0  0  0  0  0  0  0  0
   55.6640   30.3970   44.2800 N   0  0  0  0  0  0  0  0  0  0  0  0
   56.6890   30.2310   43.4100 C   0  0  0  0  0  0  0  0  0  0  0  0
   57.0130   31.2010   42.3210 C   0  0  0  0  0  0  0  0  0  0  0  0
   56.1139   31.7871   42.0797 H   0  0  0  0  0  0  0  0  0  0  0  0
   57.3512   30.6410   41.4366 H   0  0  0  0  0  0  0  0  0  0  0  0
   58.1250   32.1470   42.7580 C   0  0  0  0  0  0  0  0  0  0  0  0
   58.1660   32.1819   43.8567 H   0  0  0  0  0  0  0  0  0  0  0  0
   59.0878   31.7869   42.3664 H   0  0  0  0  0  0  0  0  0  0  0  0
   57.9238   33.1550   42.3664 H   0  0  0  0  0  0  0  0  0  0  0  0
   57.5860   28.8490   43.7740 S   0  0  0  0  0  0  0  0  0  0  0  0
   59.0330   29.2060   48.7660 C   0  0  0  0  0  0  0  0  0  0  0  0
   59.0324   28.2774   49.3557 H   0  0  0  0  0  0  0  0  0  0  0  0
  1  2  1  0
  2  3  2  0
  3  4  1  0
  3  5  1  0
  5  6  1  0
  6  7  1  0
  7  8  2  0
  7  9  1  0
  9 10  1  0
  9 11  1  0
  9 12  1  0
 12 13  1  0
 12 14  1  0
 12 15  1  0
 15 16  1  0
 15 17  1  0
  5 18  2  0
 18 19  1  0
 18 20  1  0
 20 21  1  0
 21 22  1  0
 21 23  1  0
 21 24  1  0
 24 25  2  0
 24 26  1  0
 26 27  2  0
 27 28  1  0
 28 29  1  0
 29 30  2  0
 30 31  1  0
 31 32  1  0
 31 33  1  0
 31 34  1  0
 34 35  1  0
 34 36  1  0
 34 37  1  0
 30 38  1  0
 20 39  2  0
 39 40  1  0
 39  2  1  0
 15  6  1  0
 38 27  1  0
M  CHG  1  28  -1
M  END
>  <UniqueID>  (55) 
51

>  <SMILES>  (55) 
CCc1n[n-]/c(=N\C(=O)Cc2cccc(N3CCCC3=O)c2)s1

>  <Energy>  (55) 
85.21186286161682

>  <Genealogy>  (55) 
CCc1n[n-]c(=NC(=O)Cc2cccc(N3CCCC3=O)c2)s1 (protonated)
CCc1n[n-]/c(=N\C(=O)Cc2cccc(N3CCCC3=O)c2)s1 (cis-trans isomerization)
CCc1n[n-]/c(=N\C(=O)Cc2cccc(N3CCCC3=O)c2)s1 (3D coordinates assigned)
CCc1n[n-]/c(=N\C(=O)Cc2cccc(N3CCCC3=O)c2)s1 (nonaromatic ring conformer: 85.21186286161682 kcal/mol)

>  <smiles>  (55) 
CCc1n[nH]c(=NC(=O)Cc2cccc(N3CCCC3=O)c2)s1

>  <score_type>  (55) 
oracle

>  <origin>  (55) 
adg

>  <m_score__min__energy>  (55) 
-10.77

>  <m_primary>  (55) 
energy

$$$$
56:0
     RDKit          3D

 46 48  0  0  0  0  0  0  0  0999 V2000
   64.2851   31.4995   47.3484 H   0  0  0  0  0  0  0  0  0  0  0  0
   63.2760   31.9120   47.4950 C   0  0  0  0  0  0  0  0  0  0  0  0
   62.3180   31.3400   48.1920 O   0  0  0  0  0  0  0  0  0  0  0  0
   61.2570   32.1130   48.1540 C   0  0  0  0  0  0  0  0  0  0  0  0
   59.9660   31.7820   48.8290 C   0  0  0  0  0  0  0  0  0  0  0  0
   59.1481   32.3417   48.3517 H   0  0  0  0  0  0  0  0  0  0  0  0
   60.0257   32.0576   49.8922 H   0  0  0  0  0  0  0  0  0  0  0  0
   59.7110   30.3520   48.7100 N   0  0  0  0  0  0  0  0  0  0  0  0
   59.8930   29.6380   47.4820 C   0  0  0  0  0  0  0  0  0  0  0  0
   60.7220   28.6870   47.4260 O   0  0  0  0  0  0  0  0  0  0  0  0
   59.1150   30.0280   46.2890 C   0  0  0  0  0  0  0  0  0  0  0  0
   58.4420   31.1440   46.3370 N   0  0  0  0  0  0  0  0  0  0  0  0
   57.6900   31.7300   45.2690 C   0  0  0  0  0  0  0  0  0  0  0  0
   56.6680   31.1320   44.8360 O   0  0  0  0  0  0  0  0  0  0  0  0
   58.0890   33.0570   44.6780 C   0  0  1  0  0  0  0  0  0  0  0  0
   58.6535   32.6221   43.8400 H   0  0  0  0  0  0  0  0  0  0  0  0
   57.0380   34.1560   44.8790 C   0  0  0  0  0  0  0  0  0  0  0  0
   56.1059   33.9325   45.4186 H   0  0  0  0  0  0  0  0  0  0  0  0
   56.4896   34.8371   44.2116 H   0  0  0  0  0  0  0  0  0  0  0  0
   58.3600   34.2250   45.6380 C   0  0  0  0  0  0  0  0  0  0  0  0
   59.3490   35.2860   45.1430 C   0  0  0  0  0  0  0  0  0  0  0  0
   59.8140   35.7849   46.0061 H   0  0  0  0  0  0  0  0  0  0  0  0
   60.1284   34.8049   44.5338 H   0  0  0  0  0  0  0  0  0  0  0  0
   58.8144   36.0297   44.5338 H   0  0  0  0  0  0  0  0  0  0  0  0
   58.2680   34.0020   47.1570 C   0  0  0  0  0  0  0  0  0  0  0  0
   58.6367   34.8957   47.6818 H   0  0  0  0  0  0  0  0  0  0  0  0
   57.2205   33.8179   47.4378 H   0  0  0  0  0  0  0  0  0  0  0  0
   58.8810   33.1329   47.4378 H   0  0  0  0  0  0  0  0  0  0  0  0
   59.0290   29.0870   45.1010 C   0  0  0  0  0  0  0  0  0  0  0  0
   58.5045   29.5944   44.2779 H   0  0  0  0  0  0  0  0  0  0  0  0
   60.0502   28.8128   44.7977 H   0  0  0  0  0  0  0  0  0  0  0  0
   58.2820   27.8290   45.4590 C   0  0  0  0  0  0  0  0  0  0  0  0
   58.9690   26.6170   45.6520 C   0  0  0  0  0  0  0  0  0  0  0  0
   60.0653   26.5899   45.5664 H   0  0  0  0  0  0  0  0  0  0  0  0
   58.2660   25.4470   45.9520 C   0  0  0  0  0  0  0  0  0  0  0  0
   58.8088   24.5004   46.0907 H   0  0  0  0  0  0  0  0  0  0  0  0
   56.8740   25.4780   46.0760 C   0  0  0  0  0  0  0  0  0  0  0  0
   56.3225   24.5569   46.3158 H   0  0  0  0  0  0  0  0  0  0  0  0
   56.1820   26.6810   45.8950 C   0  0  0  0  0  0  0  0  0  0  0  0
   54.7980   26.7090   46.0060 O   0  0  0  0  0  0  0  0  0  0  0  0
   56.8820   27.8540   45.5920 C   0  0  0  0  0  0  0  0  0  0  0  0
   56.3355   28.7991   45.4573 H   0  0  0  0  0  0  0  0  0  0  0  0
   61.5170   33.2390   47.3980 C   0  0  0  0  0  0  0  0  0  0  0  0
   60.8265   34.0668   47.1790 H   0  0  0  0  0  0  0  0  0  0  0  0
   62.8230   33.1090   46.9750 C   0  0  0  0  0  0  0  0  0  0  0  0
   63.3893   33.8153   46.3501 H   0  0  0  0  0  0  0  0  0  0  0  0
  1  2  1  0
  2  3  1  0
  3  4  1  0
  4  5  1  0
  5  6  1  0
  5  7  1  0
  5  8  1  0
  8  9  1  0
  9 10  2  0
  9 11  1  0
 11 12  2  0
 12 13  1  0
 13 14  2  0
 13 15  1  0
 15 16  1  6
 15 17  1  0
 17 18  1  0
 17 19  1  0
 17 20  1  0
 20 21  1  0
 21 22  1  0
 21 23  1  0
 21 24  1  0
 20 25  1  0
 25 26  1  0
 25 27  1  0
 25 28  1  0
 11 29  1  0
 29 30  1  0
 29 31  1  0
 29 32  1  0
 32 33  2  0
 33 34  1  0
 33 35  1  0
 35 36  1  0
 35 37  2  0
 37 38  1  0
 37 39  1  0
 39 40  1  0
 39 41  2  0
 41 42  1  0
  4 43  2  0
 43 44  1  0
 43 45  1  0
 45 46  1  0
 45  2  2  0
 20 15  1  0
 41 32  1  0
M  CHG  2   8  -1  40  -1
M  END
>  <UniqueID>  (56) 
52

>  <SMILES>  (56) 
CC1(C)C[C@@H]1C(=O)/N=C(\Cc1cccc([O-])c1)C(=O)[N-]Cc1ccco1

>  <Energy>  (56) 
342.63699562645604

>  <Genealogy>  (56) 
CC1(C)CC1C(=O)N=C(Cc1cccc([O-])c1)C(=O)[N-]Cc1ccco1 (protonated)
CC1(C)C[C@@H]1C(=O)N=C(Cc1cccc([O-])c1)C(=O)[N-]Cc1ccco1 (chirality)
CC1(C)C[C@@H]1C(=O)/N=C(\Cc1cccc([O-])c1)C(=O)[N-]Cc1ccco1 (cis-trans isomerization)
CC1(C)C[C@@H]1C(=O)/N=C(\Cc1cccc([O-])c1)C(=O)[N-]Cc1ccco1 (3D coordinates assigned)
CC1(C)C[C@@H]1C(=O)/N=C(\Cc1cccc([O-])c1)C(=O)[N-]Cc1ccco1 (nonaromatic ring conformer: 342.63699562645604 kcal/mol)

>  <smiles>  (56) 
CC1(C)CC1C(=O)N=C(Cc1cccc(O)c1)C(=O)NCc1ccco1

>  <score_type>  (56) 
oracle

>  <origin>  (56) 
adg

>  <m_score__min__energy>  (56) 
-13.35

>  <m_primary>  (56) 
energy

$$$$
57:0
     RDKit          3D

 48 51  0  0  0  0  0  0  0  0999 V2000
   55.8180   29.9720   54.7520 O   0  0  0  0  0  0  0  0  0  0  0  0
   55.3960   29.9540   53.5630 C   0  0  0  0  0  0  0  0  0  0  0  0
   54.3130   29.0920   53.2070 N   0  0  0  0  0  0  0  0  0  0  0  0
   52.9130   29.4110   53.4380 C   0  0  0  0  0  0  0  0  0  0  0  0
   52.4320   30.3160   52.3430 C   0  0  0  0  0  0  0  0  0  0  0  0
   52.4500   29.8960   51.0030 C   0  0  0  0  0  0  0  0  0  0  0  0
   51.8670   30.6940   50.0140 C   0  0  0  0  0  0  0  0  0  0  0  0
   51.2600   31.9090   50.3570 C   0  0  0  0  0  0  0  0  0  0  0  0
   50.6690   32.6860   49.3730 O   0  0  0  0  0  0  0  0  0  0  0  0
   51.2530   32.3380   51.6890 C   0  0  0  0  0  0  0  0  0  0  0  0
   50.6460   33.5440   52.0360 O   0  0  0  0  0  0  0  0  0  0  0  0
   51.8460   31.5490   52.6760 C   0  0  0  0  0  0  0  0  0  0  0  0
   56.0520   30.7690   52.5140 C   0  0  0  0  0  0  0  0  0  0  0  0
   55.3390   31.2290   51.5730 O   0  0  0  0  0  0  0  0  0  0  0  0
   57.5090   31.0610   52.5170 C   0  0  0  0  0  0  0  0  0  0  0  0
   58.1370   31.6540   53.6370 C   0  0  0  0  0  0  0  0  0  0  0  0
   57.4060   32.0070   54.7700 O   0  0  0  0  0  0  0  0  0  0  0  0
   59.4640   31.9380   53.6050 N   0  0  0  0  0  0  0  0  0  0  0  0
   60.2280   31.7120   52.5050 C   0  0  0  0  0  0  0  0  0  0  0  0
   61.5820   32.0630   52.5190 C   0  0  0  0  0  0  0  0  0  0  0  0
   62.3560   31.9170   51.3660 C   0  0  0  0  0  0  0  0  0  0  0  0
   61.7870   31.3980   50.1920 C   0  0  0  0  0  0  0  0  0  0  0  0
   62.5370   31.3040   48.9720 N   0  0  0  0  0  0  0  0  0  0  0  0
   62.4390   32.1890   47.8490 C   0  0  0  0  0  0  0  0  0  0  0  0
   63.4890   32.4670   47.2100 O   0  0  0  0  0  0  0  0  0  0  0  0
   61.1560   32.8220   47.4560 C   0  0  0  0  0  0  0  0  0  0  0  0
   60.8970   34.1680   47.7670 C   0  0  0  0  0  0  0  0  0  0  0  0
   59.6860   34.7570   47.3930 C   0  0  0  0  0  0  0  0  0  0  0  0
   58.7240   34.0110   46.7020 C   0  0  0  0  0  0  0  0  0  0  0  0
   58.9770   32.6780   46.3770 C   0  0  0  0  0  0  0  0  0  0  0  0
   60.1900   32.0870   46.7450 C   0  0  0  0  0  0  0  0  0  0  0  0
   60.4340   31.0320   50.1830 C   0  0  0  0  0  0  0  0  0  0  0  0
   59.6450   31.1800   51.3370 C   0  0  0  0  0  0  0  0  0  0  0  0
   58.2780   30.8400   51.3570 C   0  0  0  0  0  0  0  0  0  0  0  0
   57.7400   30.3330   50.3400 O   0  0  0  0  0  0  0  0  0  0  0  0
   52.3190   28.4852   53.4391 H   0  0  0  0  0  0  0  0  0  0  0  0
   52.8014   29.9123   54.4108 H   0  0  0  0  0  0  0  0  0  0  0  0
   52.9223   28.9403   50.7318 H   0  0  0  0  0  0  0  0  0  0  0  0
   51.8850   30.3669   48.9639 H   0  0  0  0  0  0  0  0  0  0  0  0
   51.8546   31.8944   53.7203 H   0  0  0  0  0  0  0  0  0  0  0  0
   62.0380   32.4548   53.4402 H   0  0  0  0  0  0  0  0  0  0  0  0
   63.4162   32.2099   51.3775 H   0  0  0  0  0  0  0  0  0  0  0  0
   61.6505   34.7602   48.3069 H   0  0  0  0  0  0  0  0  0  0  0  0
   59.4882   35.8099   47.6424 H   0  0  0  0  0  0  0  0  0  0  0  0
   57.7690   34.4755   46.4154 H   0  0  0  0  0  0  0  0  0  0  0  0
   58.2227   32.0920   45.8315 H   0  0  0  0  0  0  0  0  0  0  0  0
   60.3902   31.0393   46.4764 H   0  0  0  0  0  0  0  0  0  0  0  0
   59.9855   30.6253   49.2646 H   0  0  0  0  0  0  0  0  0  0  0  0
  1  2  2  0
  2  3  1  0
  3  4  1  0
  4  5  1  0
  5  6  2  0
  6  7  1  0
  7  8  2  0
  8  9  1  0
  8 10  1  0
 10 11  1  0
 10 12  2  0
  2 13  1  0
 13 14  2  0
 13 15  1  0
 15 16  2  0
 16 17  1  0
 16 18  1  0
 18 19  1  0
 19 20  2  0
 20 21  1  0
 21 22  2  0
 22 23  1  0
 23 24  1  0
 24 25  2  0
 24 26  1  0
 26 27  2  0
 27 28  1  0
 28 29  2  0
 29 30  1  0
 30 31  2  0
 22 32  1  0
 32 33  2  0
 33 34  1  0
 34 35  2  0
 12  5  1  0
 34 15  1  0
 33 19  1  0
 31 26  1  0
  4 36  1  0
  4 37  1  0
  6 38  1  0
  7 39  1  0
 12 40  1  0
 20 41  1  0
 21 42  1  0
 27 43  1  0
 28 44  1  0
 29 45  1  0
 30 46  1  0
 31 47  1  0
 32 48  1  0
M  CHG  6   3  -1   9  -1  11  -1  17  -1  18  -1  23  -1
M  END
>  <UniqueID>  (57) 
53

>  <SMILES>  (57) 
O=C([N-]Cc1ccc([O-])c([O-])c1)C(=O)c1c([O-])[n-]c2ccc([N-]C(=O)c3ccccc3)cc2c1=O

>  <Energy>  (57) 
72.3586867423553

>  <Genealogy>  (57) 
O=C([N-]Cc1ccc([O-])c([O-])c1)C(=O)c1c([O-])[n-]c2ccc([N-]C(=O)c3ccccc3)cc2c1=O (protonated)
O=C([N-]Cc1ccc([O-])c([O-])c1)C(=O)c1c([O-])[n-]c2ccc([N-]C(=O)c3ccccc3)cc2c1=O (3D coordinates assigned)
O=C([N-]Cc1ccc([O-])c([O-])c1)C(=O)c1c([O-])[n-]c2ccc([N-]C(=O)c3ccccc3)cc2c1=O (optimized conformer: 72.3586867423553 kcal/mol)

>  <smiles>  (57) 
O=C(NCc1ccc(O)c(O)c1)C(=O)c1c(O)[nH]c2ccc(NC(=O)c3ccccc3)cc2c1=O

>  <score_type>  (57) 
oracle

>  <origin>  (57) 
adg

>  <m_score__min__energy>  (57) 
-21.050000000000001

>  <m_primary>  (57) 
energy

$$$$
58:0
     RDKit          3D

 53 56  0  0  0  0  0  0  0  0999 V2000
   59.5100   30.6460   49.8460 N   0  0  0  0  0  0  0  0  0  0  0  0
   60.6340   29.6680   48.9710 S   0  0  0  0  0  0  0  0  0  0  0  0
   61.7750   30.5220   48.4950 O   0  0  0  0  0  0  0  0  0  0  0  0
   61.1770   28.5960   49.8730 O   0  0  0  0  0  0  0  0  0  0  0  0
   59.8210   28.9260   47.5970 C   0  0  0  0  0  0  0  0  0  0  0  0
   58.5640   28.3310   47.7670 C   0  0  0  0  0  0  0  0  0  0  0  0
   57.9080   27.7470   46.6790 C   0  0  0  0  0  0  0  0  0  0  0  0
   58.5060   27.7460   45.4090 C   0  0  0  0  0  0  0  0  0  0  0  0
   57.7890   27.1480   44.2340 C   0  0  0  0  0  0  0  0  0  0  0  0
   57.5030   28.2000   43.2610 N   0  0  0  0  0  0  0  0  0  0  0  0
   56.4670   29.3970   43.9770 S   0  0  0  0  0  0  0  0  0  0  0  0
   55.3850   29.7610   42.9990 O   0  0  0  0  0  0  0  0  0  0  0  0
   55.8230   28.8400   45.2160 O   0  0  0  0  0  0  0  0  0  0  0  0
   57.3980   30.8410   44.3650 C   0  0  0  0  0  0  0  0  0  0  0  0
   57.4330   31.9270   43.4800 C   0  0  0  0  0  0  0  0  0  0  0  0
   58.1390   33.0830   43.8180 C   0  0  0  0  0  0  0  0  0  0  0  0
   58.8200   33.1590   45.0360 C   0  0  0  0  0  0  0  0  0  0  0  0
   58.8100   32.0740   45.9240 C   0  0  0  0  0  0  0  0  0  0  0  0
   59.5000   32.1810   47.1820 N   0  0  0  0  0  0  0  0  0  0  0  0
   59.9130   33.4330   47.7560 C   0  0  0  0  0  0  0  0  0  0  0  0
   59.3510   34.5030   47.3950 O   0  0  0  0  0  0  0  0  0  0  0  0
   60.9590   33.4770   48.8080 C   0  0  0  0  0  0  0  0  0  0  0  0
   60.6210   33.7150   50.1520 C   0  0  0  0  0  0  0  0  0  0  0  0
   61.6070   33.7490   51.1400 C   0  0  0  0  0  0  0  0  0  0  0  0
   62.9510   33.5400   50.8050 C   0  0  0  0  0  0  0  0  0  0  0  0
   63.9500   33.5730   51.7920 C   0  0  0  0  0  0  0  0  0  0  0  0
   65.2860   33.3590   51.4440 C   0  0  0  0  0  0  0  0  0  0  0  0
   65.6360   33.1120   50.1140 C   0  0  0  0  0  0  0  0  0  0  0  0
   64.6520   33.0780   49.1220 C   0  0  0  0  0  0  0  0  0  0  0  0
   63.3050   33.2900   49.4580 C   0  0  0  0  0  0  0  0  0  0  0  0
   62.3080   33.2590   48.4710 C   0  0  0  0  0  0  0  0  0  0  0  0
   58.0770   30.9200   45.5890 C   0  0  0  0  0  0  0  0  0  0  0  0
   59.7540   28.3640   45.2360 C   0  0  0  0  0  0  0  0  0  0  0  0
   60.4090   28.9490   46.3240 C   0  0  0  0  0  0  0  0  0  0  0  0
   58.7130   30.8470   49.2020 H   0  0  0  0  0  0  0  0  0  0  0  0
   58.0913   28.3233   48.7602 H   0  0  0  0  0  0  0  0  0  0  0  0
   56.9190   27.2863   46.8189 H   0  0  0  0  0  0  0  0  0  0  0  0
   58.4226   26.3786   43.7687 H   0  0  0  0  0  0  0  0  0  0  0  0
   56.8476   26.6884   44.5696 H   0  0  0  0  0  0  0  0  0  0  0  0
   56.9034   31.8685   42.5176 H   0  0  0  0  0  0  0  0  0  0  0  0
   58.1593   33.9361   43.1239 H   0  0  0  0  0  0  0  0  0  0  0  0
   59.3674   34.0760   45.2997 H   0  0  0  0  0  0  0  0  0  0  0  0
   59.6000   31.3160   47.7590 H   0  0  0  0  0  0  0  0  0  0  0  0
   59.5684   33.8761   50.4280 H   0  0  0  0  0  0  0  0  0  0  0  0
   61.3271   33.9408   52.1864 H   0  0  0  0  0  0  0  0  0  0  0  0
   63.6800   33.7676   52.8404 H   0  0  0  0  0  0  0  0  0  0  0  0
   66.0653   33.3851   52.2199 H   0  0  0  0  0  0  0  0  0  0  0  0
   66.6897   32.9437   49.8468 H   0  0  0  0  0  0  0  0  0  0  0  0
   64.9331   32.8848   48.0762 H   0  0  0  0  0  0  0  0  0  0  0  0
   62.5833   33.0625   47.4243 H   0  0  0  0  0  0  0  0  0  0  0  0
   58.0367   30.0749   46.2920 H   0  0  0  0  0  0  0  0  0  0  0  0
   60.2192   28.3883   44.2395 H   0  0  0  0  0  0  0  0  0  0  0  0
   61.3885   29.4287   46.1810 H   0  0  0  0  0  0  0  0  0  0  0  0
  1  2  1  0
  2  3  2  0
  2  4  2  0
  2  5  1  0
  5  6  2  0
  6  7  1  0
  7  8  2  0
  8  9  1  0
  9 10  1  0
 10 11  1  0
 11 12  2  0
 11 13  2  0
 11 14  1  0
 14 15  2  0
 15 16  1  0
 16 17  2  0
 17 18  1  0
 18 19  1  0
 19 20  1  0
 20 21  2  0
 20 22  1  0
 22 23  2  0
 23 24  1  0
 24 25  2  0
 25 26  1  0
 26 27  2  0
 27 28  1  0
 28 29  2  0
 29 30  1  0
 30 31  2  0
 18 32  2  0
  8 33  1  0
 33 34  2  0
 34  5  1  0
 32 14  1  0
 31 22  1  0
 30 25  1  0
  1 35  1  0
  6 36  1  0
  7 37  1  0
  9 38  1  0
  9 39  1  0
 15 40  1  0
 16 41  1  0
 17 42  1  0
 19 43  1  0
 23 44  1  0
 24 45  1  0
 26 46  1  0
 27 47  1  0
 28 48  1  0
 29 49  1  0
 31 50  1  0
 32 51  1  0
 33 52  1  0
 34 53  1  0
M  CHG  2   1  -1  10  -1
M  END
>  <UniqueID>  (58) 
54

>  <SMILES>  (58) 
[NH-]S(=O)(=O)c1ccc(C[N-]S(=O)(=O)c2cccc(NC(=O)c3ccc4ccccc4c3)c2)cc1

>  <Energy>  (58) 
63.58043847779192

>  <Genealogy>  (58) 
[NH-]S(=O)(=O)c1ccc(C[N-]S(=O)(=O)c2cccc(NC(=O)c3ccc4ccccc4c3)c2)cc1 (protonated)
[NH-]S(=O)(=O)c1ccc(C[N-]S(=O)(=O)c2cccc(NC(=O)c3ccc4ccccc4c3)c2)cc1 (3D coordinates assigned)
[NH-]S(=O)(=O)c1ccc(C[N-]S(=O)(=O)c2cccc(NC(=O)c3ccc4ccccc4c3)c2)cc1 (optimized conformer: 63.58043847779192 kcal/mol)

>  <smiles>  (58) 
NS(=O)(=O)c1ccc(CNS(=O)(=O)c2cccc(NC(=O)c3ccc4ccccc4c3)c2)cc1

>  <score_type>  (58) 
oracle

>  <origin>  (58) 
adg

>  <m_score__min__energy>  (58) 
-13.41

>  <m_primary>  (58) 
energy

$$$$
59:0
     RDKit          3D

 53 54  0  0  0  0  0  0  0  0999 V2000
   57.7966   29.2827   47.5705 H   0  0  0  0  0  0  0  0  0  0  0  0
   58.7010   29.0990   46.9720 C   0  0  0  0  0  0  0  0  0  0  0  0
   59.7440   28.5070   47.5830 C   0  0  0  0  0  0  0  0  0  0  0  0
   59.9250   27.0380   47.5780 C   0  0  0  0  0  0  0  0  0  0  0  0
   60.3000   26.5625   48.4963 H   0  0  0  0  0  0  0  0  0  0  0  0
   59.6610   26.2490   46.5250 C   0  0  0  0  0  0  0  0  0  0  0  0
   60.4908   26.0168   45.8413 H   0  0  0  0  0  0  0  0  0  0  0  0
   58.3340   25.6680   46.2160 C   0  0  0  0  0  0  0  0  0  0  0  0
   57.1710   26.4590   46.2420 C   0  0  0  0  0  0  0  0  0  0  0  0
   57.2454   27.5324   46.4708 H   0  0  0  0  0  0  0  0  0  0  0  0
   55.9210   25.8900   45.9790 C   0  0  0  0  0  0  0  0  0  0  0  0
   54.7800   26.6830   45.9930 O   0  0  0  0  0  0  0  0  0  0  0  0
   55.8180   24.5230   45.7080 C   0  0  0  0  0  0  0  0  0  0  0  0
   54.8352   24.0773   45.4946 H   0  0  0  0  0  0  0  0  0  0  0  0
   56.9630   23.7220   45.7080 C   0  0  0  0  0  0  0  0  0  0  0  0
   56.8787   22.6444   45.5038 H   0  0  0  0  0  0  0  0  0  0  0  0
   58.2160   24.2870   45.9670 C   0  0  0  0  0  0  0  0  0  0  0  0
   59.3420   23.4680   45.9660 O   0  0  0  0  0  0  0  0  0  0  0  0
   60.7570   29.3680   48.2880 C   0  0  0  0  0  0  0  0  0  0  0  0
   60.6336   29.2631   49.3760 H   0  0  0  0  0  0  0  0  0  0  0  0
   61.7706   29.0508   48.0017 H   0  0  0  0  0  0  0  0  0  0  0  0
   60.6073   30.4195   48.0017 H   0  0  0  0  0  0  0  0  0  0  0  0
   58.6820   29.5290   45.5260 C   0  0  0  0  0  0  0  0  0  0  0  0
   58.3912   28.6693   44.9045 H   0  0  0  0  0  0  0  0  0  0  0  0
   59.6891   29.8876   45.2668 H   0  0  0  0  0  0  0  0  0  0  0  0
   57.7100   30.6580   45.2800 C   0  0  0  0  0  0  0  0  0  0  0  0
   57.2482   31.1178   46.1662 H   0  0  0  0  0  0  0  0  0  0  0  0
   57.3520   31.1590   44.0750 C   0  0  0  0  0  0  0  0  0  0  0  0
   56.7620   30.1990   43.0690 C   0  0  0  0  0  0  0  0  0  0  0  0
   56.2571   29.3775   43.5984 H   0  0  0  0  0  0  0  0  0  0  0  0
   56.0344   30.7305   42.4380 H   0  0  0  0  0  0  0  0  0  0  0  0
   57.5648   29.7899   42.4380 H   0  0  0  0  0  0  0  0  0  0  0  0
   57.5690   32.6080   43.6590 C   0  0  0  0  0  0  0  0  0  0  0  0
   58.5815   32.7001   43.2391 H   0  0  0  0  0  0  0  0  0  0  0  0
   56.7851   32.8514   42.9267 H   0  0  0  0  0  0  0  0  0  0  0  0
   57.4300   33.6140   44.8140 C   0  0  0  0  0  0  0  0  0  0  0  0
   56.9086   34.5070   44.4390 H   0  0  0  0  0  0  0  0  0  0  0  0
   56.8682   33.1144   45.6170 H   0  0  0  0  0  0  0  0  0  0  0  0
   58.7540   34.0400   45.3920 C   0  0  0  0  0  0  0  0  0  0  0  0
   59.6360   34.5280   44.6320 O   0  0  0  0  0  0  0  0  0  0  0  0
   59.0470   33.8550   46.7870 N   0  0  0  0  0  0  0  0  0  0  0  0
   58.4740   32.8030   47.6100 C   0  0  0  0  0  0  0  0  0  0  0  0
   57.4063   32.9957   47.7914 H   0  0  0  0  0  0  0  0  0  0  0  0
   58.5444   31.8197   47.1219 H   0  0  0  0  0  0  0  0  0  0  0  0
   59.2510   32.8400   48.9190 C   0  0  0  0  0  0  0  0  0  0  0  0
   58.5657   32.7440   49.7740 H   0  0  0  0  0  0  0  0  0  0  0  0
   59.9709   32.0110   48.9859 H   0  0  0  0  0  0  0  0  0  0  0  0
   59.9520   34.1970   48.9490 C   0  0  0  0  0  0  0  0  0  0  0  0
   59.3706   34.9158   49.5451 H   0  0  0  0  0  0  0  0  0  0  0  0
   60.9492   34.1284   49.4082 H   0  0  0  0  0  0  0  0  0  0  0  0
   60.0320   34.6530   47.4970 C   0  0  0  0  0  0  0  0  0  0  0  0
   59.7911   35.7232   47.4159 H   0  0  0  0  0  0  0  0  0  0  0  0
   61.0420   34.5206   47.0817 H   0  0  0  0  0  0  0  0  0  0  0  0
  1  2  1  0
  2  3  2  0
  3  4  1  0
  4  5  1  0
  4  6  2  0
  6  7  1  0
  6  8  1  0
  8  9  2  0
  9 10  1  0
  9 11  1  0
 11 12  1  0
 11 13  2  0
 13 14  1  0
 13 15  1  0
 15 16  1  0
 15 17  2  0
 17 18  1  0
  3 19  1  0
 19 20  1  0
 19 21  1  0
 19 22  1  0
  2 23  1  0
 23 24  1  0
 23 25  1  0
 23 26  1  0
 26 27  1  0
 26 28  2  3
 28 29  1  0
 29 30  1  0
 29 31  1  0
 29 32  1  0
 28 33  1  0
 33 34  1  0
 33 35  1  0
 33 36  1  0
 36 37  1  0
 36 38  1  0
 36 39  1  0
 39 40  2  0
 39 41  1  0
 41 42  1  0
 42 43  1  0
 42 44  1  0
 42 45  1  0
 45 46  1  0
 45 47  1  0
 45 48  1  0
 48 49  1  0
 48 50  1  0
 48 51  1  0
 51 52  1  0
 51 53  1  0
 17  8  1  0
 51 41  1  0
M  CHG  2  12  -1  18  -1
M  END
>  <UniqueID>  (59) 
55

>  <SMILES>  (59) 
CC(=CCC=C(C)CCC(=O)N1CCCC1)/C=C\c1cc([O-])ccc1[O-]

>  <Energy>  (59) 
55.43153555415288

>  <Genealogy>  (59) 
CC(C=Cc1cc([O-])ccc1[O-])=CCC=C(C)CCC(=O)N1CCCC1 (protonated)
CC(=CCC=C(C)CCC(=O)N1CCCC1)/C=C\c1cc([O-])ccc1[O-] (cis-trans isomerization)
CC(=CCC=C(C)CCC(=O)N1CCCC1)/C=C\c1cc([O-])ccc1[O-] (3D coordinates assigned)
CC(=CCC=C(C)CCC(=O)N1CCCC1)/C=C\c1cc([O-])ccc1[O-] (nonaromatic ring conformer: 55.43153555415288 kcal/mol)

>  <smiles>  (59) 
CC(C=Cc1cc(O)ccc1O)=CCC=C(C)CCC(=O)N1CCCC1

>  <score_type>  (59) 
oracle

>  <origin>  (59) 
adg

>  <m_score__min__energy>  (59) 
-13.59

>  <m_primary>  (59) 
energy

$$$$
60:0
     RDKit          3D

 43 45  0  0  0  0  0  0  0  0999 V2000
   59.2380   32.7720   51.1340 C   0  0  0  0  0  0  0  0  0  0  0  0
   59.5510   32.8750   49.7030 N   0  0  0  0  0  0  0  0  0  0  0  0
   59.8240   34.2100   49.1530 C   0  0  0  0  0  0  0  0  0  0  0  0
   59.8360   31.6900   48.9110 C   0  0  0  0  0  0  0  0  0  0  0  0
   60.9670   31.7690   47.7180 S   0  0  0  0  0  0  0  0  0  0  0  0
   59.1650   30.3860   49.1400 C   0  0  0  0  0  0  0  0  0  0  0  0
   58.1430   30.3360   49.8800 O   0  0  0  0  0  0  0  0  0  0  0  0
   59.6560   29.1250   48.5670 C   0  0  0  0  0  0  0  0  0  0  0  0
   60.3840   28.1390   49.2230 C   0  0  0  0  0  0  0  0  0  0  0  0
   60.5360   27.0580   48.4180 N   0  0  0  0  0  0  0  0  0  0  0  0
   59.8910   27.3530   47.2730 C   0  0  0  0  0  0  0  0  0  0  0  0
   59.7920   26.5590   46.1320 C   0  0  0  0  0  0  0  0  0  0  0  0
   59.1330   27.0950   45.0130 C   0  0  0  0  0  0  0  0  0  0  0  0
   58.5860   28.4010   45.0540 C   0  0  0  0  0  0  0  0  0  0  0  0
   57.9740   28.9760   43.8940 N   0  0  0  0  0  0  0  0  0  0  0  0
   56.7720   30.2180   44.0310 S   0  0  0  0  0  0  0  0  0  0  0  0
   55.7290   29.7790   45.0220 O   0  0  0  0  0  0  0  0  0  0  0  0
   56.0870   30.4200   42.7110 O   0  0  0  0  0  0  0  0  0  0  0  0
   57.4630   31.7450   44.5770 C   0  0  0  0  0  0  0  0  0  0  0  0
   58.1220   32.5860   43.6670 C   0  0  0  0  0  0  0  0  0  0  0  0
   58.7840   33.7330   44.1200 C   0  0  0  0  0  0  0  0  0  0  0  0
   58.7880   34.0500   45.4820 C   0  0  0  0  0  0  0  0  0  0  0  0
   59.6490   35.4670   46.0550 Cl  0  0  0  0  0  0  0  0  0  0  0  0
   58.1090   33.2270   46.3890 C   0  0  0  0  0  0  0  0  0  0  0  0
   57.4520   32.0780   45.9400 C   0  0  0  0  0  0  0  0  0  0  0  0
   58.6860   29.1680   46.2350 C   0  0  0  0  0  0  0  0  0  0  0  0
   59.3370   28.6040   47.3280 C   0  0  0  0  0  0  0  0  0  0  0  0
   60.1198   33.0622   51.7240 H   0  0  0  0  0  0  0  0  0  0  0  0
   58.3991   33.4415   51.3750 H   0  0  0  0  0  0  0  0  0  0  0  0
   58.9606   31.7352   51.3750 H   0  0  0  0  0  0  0  0  0  0  0  0
   59.9699   34.9234   49.9775 H   0  0  0  0  0  0  0  0  0  0  0  0
   60.7332   34.1730   48.5349 H   0  0  0  0  0  0  0  0  0  0  0  0
   58.9733   34.5329   48.5349 H   0  0  0  0  0  0  0  0  0  0  0  0
   60.7793   28.2232   50.2461 H   0  0  0  0  0  0  0  0  0  0  0  0
   61.0510   26.1770   48.6430 H   0  0  0  0  0  0  0  0  0  0  0  0
   60.2165   25.5445   46.1083 H   0  0  0  0  0  0  0  0  0  0  0  0
   59.0409   26.4946   44.0959 H   0  0  0  0  0  0  0  0  0  0  0  0
   58.5020   28.9450   42.9900 H   0  0  0  0  0  0  0  0  0  0  0  0
   58.1182   32.3429   42.5942 H   0  0  0  0  0  0  0  0  0  0  0  0
   59.3023   34.3866   43.4030 H   0  0  0  0  0  0  0  0  0  0  0  0
   58.0927   33.4856   47.4580 H   0  0  0  0  0  0  0  0  0  0  0  0
   56.9245   31.4325   46.6577 H   0  0  0  0  0  0  0  0  0  0  0  0
   58.2619   30.1815   46.2896 H   0  0  0  0  0  0  0  0  0  0  0  0
  1  2  1  0
  2  3  1  0
  2  4  1  0
  4  5  2  0
  4  6  1  0
  6  7  2  0
  6  8  1  0
  8  9  2  0
  9 10  1  0
 10 11  1  0
 11 12  2  0
 12 13  1  0
 13 14  2  0
 14 15  1  0
 15 16  1  0
 16 17  2  0
 16 18  2  0
 16 19  1  0
 19 20  2  0
 20 21  1  0
 21 22  2  0
 22 23  1  0
 22 24  1  0
 24 25  2  0
 14 26  1  0
 26 27  2  0
 27  8  1  0
 27 11  1  0
 25 19  1  0
  1 28  1  0
  1 29  1  0
  1 30  1  0
  3 31  1  0
  3 32  1  0
  3 33  1  0
  9 34  1  0
 10 35  1  0
 12 36  1  0
 13 37  1  0
 15 38  1  0
 20 39  1  0
 21 40  1  0
 24 41  1  0
 25 42  1  0
 26 43  1  0
M  END
>  <UniqueID>  (60) 
56

>  <SMILES>  (60) 
CN(C)C(=S)C(=O)c1c[nH]c2ccc(NS(=O)(=O)c3ccc(Cl)cc3)cc12

>  <Energy>  (60) 
94.20972136792517

>  <Genealogy>  (60) 
CN(C)C(=S)C(=O)c1c[nH]c2ccc(NS(=O)(=O)c3ccc(Cl)cc3)cc12 (3D coordinates assigned)
CN(C)C(=S)C(=O)c1c[nH]c2ccc(NS(=O)(=O)c3ccc(Cl)cc3)cc12 (optimized conformer: 94.20972136792517 kcal/mol)

>  <smiles>  (60) 
CN(C)C(=S)C(=O)c1c[nH]c2ccc(NS(=O)(=O)c3ccc(Cl)cc3)cc12

>  <score_type>  (60) 
oracle

>  <origin>  (60) 
adg

>  <m_score__min__energy>  (60) 
-9.5800000000000001

>  <m_primary>  (60) 
energy

$$$$
61:0
     RDKit          3D

 52 55  0  0  0  0  0  0  0  0999 V2000
   61.7660   33.7860   46.3700 C   0  0  0  0  0  0  0  0  0  0  0  0
   60.5250   33.1610   46.9410 C   0  0  0  0  0  0  0  0  0  0  0  0
   59.2140   33.3900   46.5240 C   0  0  0  0  0  0  0  0  0  0  0  0
   58.6970   34.1990   45.3940 C   0  0  0  0  0  0  0  0  0  0  0  0
   59.1830   35.3460   45.2040 O   0  0  0  0  0  0  0  0  0  0  0  0
   57.5600   33.7550   44.5180 C   0  0  0  0  0  0  0  0  0  0  0  0
   58.1430   32.6940   43.1480 S   0  0  0  0  0  0  0  0  0  0  0  0
   57.8190   31.1330   43.9750 C   0  0  0  0  0  0  0  0  0  0  0  0
   56.5520   30.5420   43.8870 C   0  0  0  0  0  0  0  0  0  0  0  0
   56.3030   29.3220   44.5210 C   0  0  0  0  0  0  0  0  0  0  0  0
   57.3220   28.6840   45.2390 C   0  0  0  0  0  0  0  0  0  0  0  0
   57.0090   27.1520   46.0340 Cl  0  0  0  0  0  0  0  0  0  0  0  0
   58.5910   29.2680   45.3160 C   0  0  0  0  0  0  0  0  0  0  0  0
   58.8400   30.4890   44.6820 C   0  0  0  0  0  0  0  0  0  0  0  0
   58.4010   32.6970   47.4020 C   0  0  0  0  0  0  0  0  0  0  0  0
   59.2300   32.0650   48.3050 C   0  0  0  0  0  0  0  0  0  0  0  0
   58.7330   31.2640   49.4450 C   0  0  0  0  0  0  0  0  0  0  0  0
   58.8210   30.0060   49.3750 O   0  0  0  0  0  0  0  0  0  0  0  0
   58.0110   31.8810   50.5390 N   0  0  0  0  0  0  0  0  0  0  0  0
   57.5820   30.8470   51.5050 C   0  0  0  0  0  0  0  0  0  0  0  0
   57.1220   31.4780   52.8370 C   0  0  0  0  0  0  0  0  0  0  0  0
   56.8450   32.8550   52.6770 O   0  0  0  0  0  0  0  0  0  0  0  0
   58.0400   33.5550   52.3720 C   0  0  0  0  0  0  0  0  0  0  0  0
   58.8310   32.9060   51.2130 C   0  0  0  0  0  0  0  0  0  0  0  0
   60.5270   32.3110   47.9990 N   0  0  0  0  0  0  0  0  0  0  0  0
   61.7150   31.7890   48.6860 C   0  0  0  0  0  0  0  0  0  0  0  0
   62.7030   32.8540   49.1450 C   0  0  0  0  0  0  0  0  0  0  0  0
   61.7960   32.1830   50.1570 C   0  0  0  0  0  0  0  0  0  0  0  0
   62.4210   34.1159   47.1899 H   0  0  0  0  0  0  0  0  0  0  0  0
   62.2969   33.0477   45.7510 H   0  0  0  0  0  0  0  0  0  0  0  0
   61.4889   34.6521   45.7510 H   0  0  0  0  0  0  0  0  0  0  0  0
   56.8399   33.1887   45.1269 H   0  0  0  0  0  0  0  0  0  0  0  0
   57.0889   34.6496   44.0847 H   0  0  0  0  0  0  0  0  0  0  0  0
   55.7523   31.0389   43.3182 H   0  0  0  0  0  0  0  0  0  0  0  0
   55.3057   28.8624   44.4561 H   0  0  0  0  0  0  0  0  0  0  0  0
   59.3937   28.7660   45.8760 H   0  0  0  0  0  0  0  0  0  0  0  0
   59.8399   30.9438   44.7392 H   0  0  0  0  0  0  0  0  0  0  0  0
   57.3019   32.6573   47.3837 H   0  0  0  0  0  0  0  0  0  0  0  0
   57.1510   32.3460   50.1660 H   0  0  0  0  0  0  0  0  0  0  0  0
   56.7471   30.2767   51.0718 H   0  0  0  0  0  0  0  0  0  0  0  0
   58.4386   30.1884   51.7111 H   0  0  0  0  0  0  0  0  0  0  0  0
   56.2117   30.9658   53.1821 H   0  0  0  0  0  0  0  0  0  0  0  0
   57.9303   31.3668   53.5747 H   0  0  0  0  0  0  0  0  0  0  0  0
   57.7816   34.5858   52.0881 H   0  0  0  0  0  0  0  0  0  0  0  0
   58.6790   33.5282   53.2670 H   0  0  0  0  0  0  0  0  0  0  0  0
   59.1100   33.6825   50.4855 H   0  0  0  0  0  0  0  0  0  0  0  0
   59.7335   32.4279   51.6216 H   0  0  0  0  0  0  0  0  0  0  0  0
   61.7918   30.8513   48.1161 H   0  0  0  0  0  0  0  0  0  0  0  0
   63.7817   32.6386   49.1462 H   0  0  0  0  0  0  0  0  0  0  0  0
   62.9104   33.8957   48.8587 H   0  0  0  0  0  0  0  0  0  0  0  0
   62.2168   31.4808   50.8917 H   0  0  0  0  0  0  0  0  0  0  0  0
   61.0737   32.5364   50.9077 H   0  0  0  0  0  0  0  0  0  0  0  0
  1  2  1  0
  2  3  2  0
  3  4  1  0
  4  5  2  0
  4  6  1  0
  6  7  1  0
  7  8  1  0
  8  9  2  0
  9 10  1  0
 10 11  2  0
 11 12  1  0
 11 13  1  0
 13 14  2  0
  3 15  1  0
 15 16  2  0
 16 17  1  0
 17 18  2  0
 17 19  1  0
 19 20  1  0
 20 21  1  0
 21 22  1  0
 22 23  1  0
 23 24  1  0
 16 25  1  0
 25 26  1  0
 26 27  1  0
 27 28  1  0
 25  2  1  0
 28 26  1  0
 14  8  1  0
 24 19  1  0
  1 29  1  0
  1 30  1  0
  1 31  1  0
  6 32  1  0
  6 33  1  0
  9 34  1  0
 10 35  1  0
 13 36  1  0
 14 37  1  0
 15 38  1  0
 19 39  1  0
 20 40  1  0
 20 41  1  0
 21 42  1  0
 21 43  1  0
 23 44  1  0
 23 45  1  0
 24 46  1  0
 24 47  1  0
 26 48  1  0
 27 49  1  0
 27 50  1  0
 28 51  1  0
 28 52  1  0
M  CHG  1  19   1
M  END
>  <UniqueID>  (61) 
57

>  <SMILES>  (61) 
Cc1c(C(=O)CSc2ccc(Cl)cc2)cc(C(=O)[NH+]2CCOCC2)n1C1CC1

>  <Energy>  (61) 
359.30917444217613

>  <Genealogy>  (61) 
Cc1c(C(=O)CSc2ccc(Cl)cc2)cc(C(=O)[NH+]2CCOCC2)n1C1CC1 (protonated)
Cc1c(C(=O)CSc2ccc(Cl)cc2)cc(C(=O)[NH+]2CCOCC2)n1C1CC1 (3D coordinates assigned)
Cc1c(C(=O)CSc2ccc(Cl)cc2)cc(C(=O)[NH+]2CCOCC2)n1C1CC1 (nonaromatic ring conformer: 359.30917444217613 kcal/mol)

>  <smiles>  (61) 
Cc1c(C(=O)CSc2ccc(Cl)cc2)cc(C(=O)N2CCOCC2)n1C1CC1

>  <score_type>  (61) 
oracle

>  <origin>  (61) 
adg

>  <m_score__min__energy>  (61) 
-7.5700000000000003

>  <m_primary>  (61) 
energy

$$$$
62:0
     RDKit          3D

 50 53  0  0  0  0  0  0  0  0999 V2000
   63.6640   33.8440   47.9870 C   0  0  0  0  0  0  0  0  0  0  0  0
   62.3570   33.7740   47.3330 C   0  0  0  0  0  0  0  0  0  0  0  0
   61.2810   33.7160   46.7920 C   0  0  0  0  0  0  0  0  0  0  0  0
   59.9950   33.6460   46.1450 C   0  0  0  0  0  0  0  0  0  0  0  0
   59.3590   32.4050   46.0000 C   0  0  0  0  0  0  0  0  0  0  0  0
   58.1040   32.3170   45.3710 C   0  0  0  0  0  0  0  0  0  0  0  0
   57.4320   31.0080   45.2190 C   0  0  0  0  0  0  0  0  0  0  0  0
   56.1450   30.8640   44.8470 N   0  0  0  0  0  0  0  0  0  0  0  0
   55.9410   29.5820   44.8310 O   0  0  0  0  0  0  0  0  0  0  0  0
   57.0410   28.9570   45.1720 C   0  0  0  0  0  0  0  0  0  0  0  0
   57.1740   27.4650   45.2720 C   0  0  0  0  0  0  0  0  0  0  0  0
   58.5340   26.9900   44.6960 C   0  0  0  0  0  0  0  0  0  0  0  0
   59.2300   25.9150   45.5490 C   0  0  0  0  0  0  0  0  0  0  0  0
   58.2530   24.9710   46.1150 N   0  0  0  0  0  0  0  0  0  0  0  0
   58.5170   23.5540   46.1280 C   0  0  0  0  0  0  0  0  0  0  0  0
   59.5780   23.1000   45.6190 O   0  0  0  0  0  0  0  0  0  0  0  0
   57.5470   22.6520   46.6780 N   0  0  0  0  0  0  0  0  0  0  0  0
   56.1270   22.7370   46.4970 C   0  0  0  0  0  0  0  0  0  0  0  0
   55.6330   23.1390   45.2480 C   0  0  0  0  0  0  0  0  0  0  0  0
   54.2560   23.2500   45.0340 C   0  0  0  0  0  0  0  0  0  0  0  0
   53.3630   22.9770   46.0720 C   0  0  0  0  0  0  0  0  0  0  0  0
   53.8450   22.6060   47.3300 C   0  0  0  0  0  0  0  0  0  0  0  0
   55.2220   22.4930   47.5500 C   0  0  0  0  0  0  0  0  0  0  0  0
   55.6640   22.2070   48.8000 F   0  0  0  0  0  0  0  0  0  0  0  0
   57.0620   25.4800   46.8120 C   0  0  0  0  0  0  0  0  0  0  0  0
   56.9590   27.0070   46.7230 C   0  0  0  0  0  0  0  0  0  0  0  0
   58.0400   29.8220   45.4370 N   0  0  0  0  0  0  0  0  0  0  0  0
   57.4960   33.4890   44.8910 C   0  0  0  0  0  0  0  0  0  0  0  0
   58.1300   34.7260   45.0360 C   0  0  0  0  0  0  0  0  0  0  0  0
   59.3770   34.8090   45.6610 C   0  0  0  0  0  0  0  0  0  0  0  0
   59.9950   36.0480   45.7960 O   0  0  0  0  0  0  0  0  0  0  0  0
   63.5286   33.8368   49.0786 H   0  0  0  0  0  0  0  0  0  0  0  0
   64.2710   32.9771   47.6870 H   0  0  0  0  0  0  0  0  0  0  0  0
   64.1749   34.7708   47.6870 H   0  0  0  0  0  0  0  0  0  0  0  0
   59.8446   31.4943   46.3806 H   0  0  0  0  0  0  0  0  0  0  0  0
   56.3907   26.9941   44.6600 H   0  0  0  0  0  0  0  0  0  0  0  0
   58.3595   26.5762   43.6918 H   0  0  0  0  0  0  0  0  0  0  0  0
   59.1986   27.8664   44.6815 H   0  0  0  0  0  0  0  0  0  0  0  0
   59.9407   25.3609   44.9183 H   0  0  0  0  0  0  0  0  0  0  0  0
   59.7543   26.4130   46.3779 H   0  0  0  0  0  0  0  0  0  0  0  0
   56.3333   23.3685   44.4314 H   0  0  0  0  0  0  0  0  0  0  0  0
   53.8758   23.5526   44.0472 H   0  0  0  0  0  0  0  0  0  0  0  0
   52.2794   23.0540   45.8994 H   0  0  0  0  0  0  0  0  0  0  0  0
   53.1400   22.4023   48.1494 H   0  0  0  0  0  0  0  0  0  0  0  0
   56.1653   25.0355   46.3556 H   0  0  0  0  0  0  0  0  0  0  0  0
   57.1435   25.2043   47.8738 H   0  0  0  0  0  0  0  0  0  0  0  0
   55.9618   27.3251   47.0614 H   0  0  0  0  0  0  0  0  0  0  0  0
   57.7318   27.4587   47.3623 H   0  0  0  0  0  0  0  0  0  0  0  0
   56.5144   33.4327   44.3978 H   0  0  0  0  0  0  0  0  0  0  0  0
   57.6455   35.6378   44.6567 H   0  0  0  0  0  0  0  0  0  0  0  0
  1  2  1  0
  2  3  3  0
  3  4  1  0
  4  5  2  0
  5  6  1  0
  6  7  1  0
  7  8  2  0
  8  9  1  0
  9 10  1  0
 10 11  1  0
 11 12  1  0
 12 13  1  0
 13 14  1  0
 14 15  1  0
 15 16  2  0
 15 17  1  0
 17 18  1  0
 18 19  2  0
 19 20  1  0
 20 21  2  0
 21 22  1  0
 22 23  2  0
 23 24  1  0
 14 25  1  0
 25 26  1  0
 10 27  2  0
  6 28  2  0
 28 29  1  0
 29 30  2  0
 30 31  1  0
 30  4  1  0
 27  7  1  0
 26 11  1  0
 23 18  1  0
  1 32  1  0
  1 33  1  0
  1 34  1  0
  5 35  1  0
 11 36  1  0
 12 37  1  0
 12 38  1  0
 13 39  1  0
 13 40  1  0
 19 41  1  0
 20 42  1  0
 21 43  1  0
 22 44  1  0
 25 45  1  0
 25 46  1  0
 26 47  1  0
 26 48  1  0
 28 49  1  0
 29 50  1  0
M  CHG  2  17  -1  31  -1
M  END
>  <UniqueID>  (62) 
58

>  <SMILES>  (62) 
CC#Cc1cc(-c2noc(C3CCN(C(=O)[N-]c4ccccc4F)CC3)n2)ccc1[O-]

>  <Energy>  (62) 
88.5317908832041

>  <Genealogy>  (62) 
CC#Cc1cc(-c2noc(C3CCN(C(=O)[N-]c4ccccc4F)CC3)n2)ccc1[O-] (protonated)
CC#Cc1cc(-c2noc(C3CCN(C(=O)[N-]c4ccccc4F)CC3)n2)ccc1[O-] (3D coordinates assigned)
CC#Cc1cc(-c2noc(C3CCN(C(=O)[N-]c4ccccc4F)CC3)n2)ccc1[O-] (nonaromatic ring conformer: 88.5317908832041 kcal/mol)

>  <smiles>  (62) 
CC#Cc1cc(-c2noc(C3CCN(C(=O)Nc4ccccc4F)CC3)n2)ccc1O

>  <score_type>  (62) 
oracle

>  <origin>  (62) 
adg

>  <m_score__min__energy>  (62) 
-11.25

>  <m_primary>  (62) 
energy

$$$$
63:0
     RDKit          3D

 51 53  0  0  0  0  0  0  0  0999 V2000
   57.7660   32.3150   41.6620 C   0  0  0  0  0  0  0  0  0  0  0  0
   57.5590   31.4260   42.8890 C   0  0  0  0  0  0  0  0  0  0  0  0
   56.5470   30.2930   42.6360 C   0  0  0  0  0  0  0  0  0  0  0  0
   56.2640   29.4360   43.8810 C   0  0  0  0  0  0  0  0  0  0  0  0
   57.4520   29.3000   44.7310 N   0  0  0  0  0  0  0  0  0  0  0  0
   57.5160   30.0270   45.8510 N   0  0  0  0  0  0  0  0  0  0  0  0
   58.5700   29.9580   46.7070 C   0  0  0  0  0  0  0  0  0  0  0  0
   58.5580   30.7770   47.9360 C   0  0  0  0  0  0  0  0  0  0  0  0
   58.9520   30.2650   49.0170 O   0  0  0  0  0  0  0  0  0  0  0  0
   58.1510   32.1520   47.9350 N   0  0  0  0  0  0  0  0  0  0  0  0
   58.3980   33.1080   46.8920 C   0  0  0  0  0  0  0  0  0  0  0  0
   57.5790   33.1510   45.7480 C   0  0  0  0  0  0  0  0  0  0  0  0
   57.8010   34.1070   44.7550 C   0  0  0  0  0  0  0  0  0  0  0  0
   58.8300   35.0360   44.8950 C   0  0  0  0  0  0  0  0  0  0  0  0
   59.6380   35.0180   46.0330 C   0  0  0  0  0  0  0  0  0  0  0  0
   59.4230   34.0680   47.0470 C   0  0  0  0  0  0  0  0  0  0  0  0
   60.3080   34.0570   48.2350 C   0  0  0  0  0  0  0  0  0  0  0  0
   59.9500   34.6880   49.2660 O   0  0  0  0  0  0  0  0  0  0  0  0
   61.5600   33.3380   48.2380 N   0  0  0  0  0  0  0  0  0  0  0  0
   62.2820   33.0600   46.9920 C   0  0  0  0  0  0  0  0  0  0  0  0
   63.7910   33.1120   47.2480 C   0  0  0  0  0  0  0  0  0  0  0  0
   64.1460   32.2770   48.3330 O   0  0  0  0  0  0  0  0  0  0  0  0
   63.5700   32.7740   49.5260 C   0  0  0  0  0  0  0  0  0  0  0  0
   62.0410   32.6980   49.4680 C   0  0  0  0  0  0  0  0  0  0  0  0
   59.6160   29.0750   46.4200 C   0  0  0  0  0  0  0  0  0  0  0  0
   59.5670   28.3170   45.2560 C   0  0  0  0  0  0  0  0  0  0  0  0
   58.4680   28.4400   44.4050 C   0  0  0  0  0  0  0  0  0  0  0  0
   58.4230   27.7530   43.3480 O   0  0  0  0  0  0  0  0  0  0  0  0
   58.0043   33.3386   41.9868 H   0  0  0  0  0  0  0  0  0  0  0  0
   58.5960   31.9193   41.0583 H   0  0  0  0  0  0  0  0  0  0  0  0
   56.8465   32.3266   41.0583 H   0  0  0  0  0  0  0  0  0  0  0  0
   58.5250   30.9797   43.1676 H   0  0  0  0  0  0  0  0  0  0  0  0
   57.1566   32.0582   43.6942 H   0  0  0  0  0  0  0  0  0  0  0  0
   55.6004   30.7402   42.2983 H   0  0  0  0  0  0  0  0  0  0  0  0
   56.9873   29.6283   41.8781 H   0  0  0  0  0  0  0  0  0  0  0  0
   55.4612   29.9102   44.4646 H   0  0  0  0  0  0  0  0  0  0  0  0
   55.9680   28.4315   43.5443 H   0  0  0  0  0  0  0  0  0  0  0  0
   56.7588   32.4267   45.6356 H   0  0  0  0  0  0  0  0  0  0  0  0
   57.1620   34.1269   43.8599 H   0  0  0  0  0  0  0  0  0  0  0  0
   59.0057   35.7842   44.1080 H   0  0  0  0  0  0  0  0  0  0  0  0
   60.4496   35.7531   46.1374 H   0  0  0  0  0  0  0  0  0  0  0  0
   62.0074   32.0599   46.6255 H   0  0  0  0  0  0  0  0  0  0  0  0
   62.0138   33.8155   46.2389 H   0  0  0  0  0  0  0  0  0  0  0  0
   64.3216   32.7752   46.3452 H   0  0  0  0  0  0  0  0  0  0  0  0
   64.0712   34.1470   47.4935 H   0  0  0  0  0  0  0  0  0  0  0  0
   63.9284   32.1746   50.3759 H   0  0  0  0  0  0  0  0  0  0  0  0
   63.8652   33.8268   49.6467 H   0  0  0  0  0  0  0  0  0  0  0  0
   61.7267   31.6439   49.4787 H   0  0  0  0  0  0  0  0  0  0  0  0
   61.6172   33.2188   50.3393 H   0  0  0  0  0  0  0  0  0  0  0  0
   60.4688   28.9814   47.1085 H   0  0  0  0  0  0  0  0  0  0  0  0
   60.3868   27.6267   45.0080 H   0  0  0  0  0  0  0  0  0  0  0  0
  1  2  1  0
  2  3  1  0
  3  4  1  0
  4  5  1  0
  5  6  1  0
  6  7  2  0
  7  8  1  0
  8  9  2  0
  8 10  1  0
 10 11  1  0
 11 12  2  0
 12 13  1  0
 13 14  2  0
 14 15  1  0
 15 16  2  0
 16 17  1  0
 17 18  2  0
 17 19  1  0
 19 20  1  0
 20 21  1  0
 21 22  1  0
 22 23  1  0
 23 24  1  0
  7 25  1  0
 25 26  2  0
 26 27  1  0
 27 28  2  0
 27  5  1  0
 16 11  1  0
 24 19  1  0
  1 29  1  0
  1 30  1  0
  1 31  1  0
  2 32  1  0
  2 33  1  0
  3 34  1  0
  3 35  1  0
  4 36  1  0
  4 37  1  0
 12 38  1  0
 13 39  1  0
 14 40  1  0
 15 41  1  0
 20 42  1  0
 20 43  1  0
 21 44  1  0
 21 45  1  0
 23 46  1  0
 23 47  1  0
 24 48  1  0
 24 49  1  0
 25 50  1  0
 26 51  1  0
M  CHG  1  10  -1
M  END
>  <UniqueID>  (63) 
59

>  <SMILES>  (63) 
CCCCn1nc(C(=O)[N-]c2ccccc2C(=O)N2CCOCC2)ccc1=O

>  <Energy>  (63) 
62.578107381245495

>  <Genealogy>  (63) 
CCCCn1nc(C(=O)[N-]c2ccccc2C(=O)N2CCOCC2)ccc1=O (protonated)
CCCCn1nc(C(=O)[N-]c2ccccc2C(=O)N2CCOCC2)ccc1=O (3D coordinates assigned)
CCCCn1nc(C(=O)[N-]c2ccccc2C(=O)N2CCOCC2)ccc1=O (nonaromatic ring conformer: 62.578107381245495 kcal/mol)

>  <smiles>  (63) 
CCCCn1nc(C(=O)Nc2ccccc2C(=O)N2CCOCC2)ccc1=O

>  <score_type>  (63) 
oracle

>  <origin>  (63) 
adg

>  <m_score__min__energy>  (63) 
-11.44

>  <m_primary>  (63) 
energy

$$$$
64:0
     RDKit          3D

 63 66  0  0  0  0  0  0  0  0999 V2000
   63.6370   33.0430   46.7390 C   0  0  0  0  0  0  0  0  0  0  0  0
   63.4000   31.6500   47.3020 C   0  0  0  0  0  0  0  0  0  0  0  0
   62.9540   31.7530   48.6510 O   0  0  0  0  0  0  0  0  0  0  0  0
   63.4970   32.6280   49.6070 C   0  0  0  0  0  0  0  0  0  0  0  0
   64.8630   32.9690   49.6200 C   0  0  0  0  0  0  0  0  0  0  0  0
   65.3770   33.7950   50.6230 C   0  0  0  0  0  0  0  0  0  0  0  0
   64.5400   34.2850   51.6330 C   0  0  0  0  0  0  0  0  0  0  0  0
   65.0970   35.1740   52.7140 C   0  0  0  0  0  0  0  0  0  0  0  0
   64.3490   35.0030   54.0020 C   0  0  0  0  0  0  0  0  0  0  0  0
   64.2580   33.8690   54.5430 O   0  0  0  0  0  0  0  0  0  0  0  0
   63.6850   36.0890   54.5640 O   0  0  0  0  0  0  0  0  0  0  0  0
   63.1730   33.9740   51.6070 C   0  0  0  0  0  0  0  0  0  0  0  0
   62.6470   33.1680   50.5880 C   0  0  0  0  0  0  0  0  0  0  0  0
   61.2000   32.8600   50.5620 C   0  0  0  0  0  0  0  0  0  0  0  0
   60.6410   32.2160   51.6740 C   0  0  0  0  0  0  0  0  0  0  0  0
   59.3070   31.8090   51.6590 C   0  0  0  0  0  0  0  0  0  0  0  0
   58.5290   32.0050   50.5180 C   0  0  0  0  0  0  0  0  0  0  0  0
   57.2460   31.5600   50.5120 F   0  0  0  0  0  0  0  0  0  0  0  0
   59.0670   32.6470   49.3880 C   0  0  0  0  0  0  0  0  0  0  0  0
   60.3990   33.1270   49.4200 C   0  0  0  0  0  0  0  0  0  0  0  0
   60.9850   33.8210   48.2090 C   0  0  0  0  0  0  0  0  0  0  0  0
   59.9090   34.4570   47.3290 C   0  0  0  0  0  0  0  0  0  0  0  0
   58.8470   33.4920   47.0520 N   0  0  0  0  0  0  0  0  0  0  0  0
   58.1040   33.6190   45.8320 C   0  0  0  0  0  0  0  0  0  0  0  0
   57.7660   34.7660   45.4300 O   0  0  0  0  0  0  0  0  0  0  0  0
   57.6300   32.4340   45.0920 C   0  0  0  0  0  0  0  0  0  0  0  0
   58.3960   31.3880   44.7540 C   0  0  0  0  0  0  0  0  0  0  0  0
   58.8930   30.3750   45.7070 C   0  0  0  0  0  0  0  0  0  0  0  0
   60.0030   30.6970   46.5050 C   0  0  0  0  0  0  0  0  0  0  0  0
   60.4610   29.8030   47.4770 C   0  0  0  0  0  0  0  0  0  0  0  0
   59.8060   28.5860   47.6730 C   0  0  0  0  0  0  0  0  0  0  0  0
   58.6880   28.2590   46.9000 C   0  0  0  0  0  0  0  0  0  0  0  0
   58.2070   29.1500   45.9220 C   0  0  0  0  0  0  0  0  0  0  0  0
   56.7440   28.7110   45.0170 S   0  0  0  0  0  0  0  0  0  0  0  0
   56.0880   27.2330   45.6250 N   0  0  0  0  0  0  0  0  0  0  0  0
   55.7180   29.8060   45.1450 O   0  0  0  0  0  0  0  0  0  0  0  0
   57.0800   28.5230   43.5630 O   0  0  0  0  0  0  0  0  0  0  0  0
   58.1980   32.7730   48.1560 C   0  0  0  0  0  0  0  0  0  0  0  0
   63.7585   33.7572   47.5667 H   0  0  0  0  0  0  0  0  0  0  0  0
   64.5474   33.0389   46.1216 H   0  0  0  0  0  0  0  0  0  0  0  0
   62.7765   33.3402   46.1216 H   0  0  0  0  0  0  0  0  0  0  0  0
   62.6349   31.1368   46.7010 H   0  0  0  0  0  0  0  0  0  0  0  0
   64.3380   31.0763   47.2685 H   0  0  0  0  0  0  0  0  0  0  0  0
   65.5300   32.5826   48.8353 H   0  0  0  0  0  0  0  0  0  0  0  0
   66.4442   34.0616   50.6192 H   0  0  0  0  0  0  0  0  0  0  0  0
   66.1545   34.9190   52.8776 H   0  0  0  0  0  0  0  0  0  0  0  0
   64.9935   36.2200   52.3897 H   0  0  0  0  0  0  0  0  0  0  0  0
   62.5088   34.3653   52.3917 H   0  0  0  0  0  0  0  0  0  0  0  0
   61.2587   32.0301   52.5650 H   0  0  0  0  0  0  0  0  0  0  0  0
   58.8679   31.3329   52.5481 H   0  0  0  0  0  0  0  0  0  0  0  0
   61.6735   34.6079   48.5507 H   0  0  0  0  0  0  0  0  0  0  0  0
   61.5084   33.0636   47.6070 H   0  0  0  0  0  0  0  0  0  0  0  0
   59.4823   35.3274   47.8489 H   0  0  0  0  0  0  0  0  0  0  0  0
   60.3636   34.7726   46.3784 H   0  0  0  0  0  0  0  0  0  0  0  0
   56.5708   32.4073   44.7963 H   0  0  0  0  0  0  0  0  0  0  0  0
   58.6734   31.2762   43.6955 H   0  0  0  0  0  0  0  0  0  0  0  0
   60.5157   31.6599   46.3640 H   0  0  0  0  0  0  0  0  0  0  0  0
   61.3389   30.0589   48.0884 H   0  0  0  0  0  0  0  0  0  0  0  0
   60.1701   27.8832   48.4369 H   0  0  0  0  0  0  0  0  0  0  0  0
   58.1794   27.2964   47.0575 H   0  0  0  0  0  0  0  0  0  0  0  0
   55.1720   27.4630   46.0730 H   0  0  0  0  0  0  0  0  0  0  0  0
   57.2801   33.3131   48.4312 H   0  0  0  0  0  0  0  0  0  0  0  0
   57.9913   31.7528   47.8003 H   0  0  0  0  0  0  0  0  0  0  0  0
  1  2  1  0
  2  3  1  0
  3  4  1  0
  4  5  2  0
  5  6  1  0
  6  7  2  0
  7  8  1  0
  8  9  1  0
  9 10  2  0
  9 11  1  0
  7 12  1  0
 12 13  2  0
 13 14  1  0
 14 15  2  0
 15 16  1  0
 16 17  2  0
 17 18  1  0
 17 19  1  0
 19 20  2  0
 20 21  1  0
 21 22  1  0
 22 23  1  0
 23 24  1  0
 24 25  2  0
 24 26  1  0
 26 27  2  3
 27 28  1  0
 28 29  2  0
 29 30  1  0
 30 31  2  0
 31 32  1  0
 32 33  2  0
 33 34  1  0
 34 35  1  0
 34 36  2  0
 34 37  2  0
 23 38  1  0
 13  4  1  0
 20 14  1  0
 33 28  1  0
 38 19  1  0
  1 39  1  0
  1 40  1  0
  1 41  1  0
  2 42  1  0
  2 43  1  0
  5 44  1  0
  6 45  1  0
  8 46  1  0
  8 47  1  0
 12 48  1  0
 15 49  1  0
 16 50  1  0
 21 51  1  0
 21 52  1  0
 22 53  1  0
 22 54  1  0
 26 55  1  0
 27 56  1  0
 29 57  1  0
 30 58  1  0
 31 59  1  0
 32 60  1  0
 35 61  1  0
 38 62  1  0
 38 63  1  0
M  CHG  2  11  -1  35  -1
M  END
>  <UniqueID>  (64) 
60

>  <SMILES>  (64) 
CCOc1ccc(CC(=O)[O-])cc1-c1ccc(F)c2c1CCN(C(=O)C=Cc1ccccc1S([NH-])(=O)=O)C2

>  <Energy>  (64) 
83.71466524480645

>  <Genealogy>  (64) 
CCOc1ccc(CC(=O)[O-])cc1-c1ccc(F)c2c1CCN(C(=O)C=Cc1ccccc1S([NH-])(=O)=O)C2 (protonated)
CCOc1ccc(CC(=O)[O-])cc1-c1ccc(F)c2c1CCN(C(=O)C=Cc1ccccc1S([NH-])(=O)=O)C2 (3D coordinates assigned)
CCOc1ccc(CC(=O)[O-])cc1-c1ccc(F)c2c1CCN(C(=O)C=Cc1ccccc1S([NH-])(=O)=O)C2 (nonaromatic ring conformer: 83.71466524480645 kcal/mol)

>  <smiles>  (64) 
CCOc1ccc(CC(=O)O)cc1-c1ccc(F)c2c1CCN(C(=O)C=Cc1ccccc1S(N)(=O)=O)C2

>  <score_type>  (64) 
oracle

>  <origin>  (64) 
adg

>  <m_score__min__energy>  (64) 
-15.890000000000001

>  <m_primary>  (64) 
energy

$$$$
65:0
     RDKit          3D

 51 54  0  0  0  0  0  0  0  0999 V2000
   57.3570   22.3910   47.8890 O   0  0  0  0  0  0  0  0  0  0  0  0
   57.0050   23.2610   47.0510 C   0  0  0  0  0  0  0  0  0  0  0  0
   55.9680   23.0420   46.0240 C   0  0  0  0  0  0  0  0  0  0  0  0
   55.7670   24.4480   45.4500 C   0  0  0  0  0  0  0  0  0  0  0  0
   57.0130   25.2790   45.8800 C   0  0  1  0  0  0  0  0  0  0  0  0
   58.0700   25.3350   44.7410 C   0  0  0  0  0  0  0  0  0  0  0  0
   57.9100   26.6120   43.9070 C   0  0  0  0  0  0  0  0  0  0  0  0
   58.1500   27.8430   44.7130 N   0  0  1  0  0  0  0  0  0  0  0  0
   57.4850   29.0200   44.1010 C   0  0  0  0  0  0  0  0  0  0  0  0
   58.0050   30.3230   44.6630 C   0  0  0  0  0  0  0  0  0  0  0  0
   59.1280   30.3380   45.5070 C   0  0  0  0  0  0  0  0  0  0  0  0
   59.5890   31.5430   46.0460 C   0  0  0  0  0  0  0  0  0  0  0  0
   58.9360   32.7460   45.7440 C   0  0  0  0  0  0  0  0  0  0  0  0
   59.4990   34.2610   46.4390 S   0  0  0  0  0  0  0  0  0  0  0  0
   58.5130   34.7380   47.4690 O   0  0  0  0  0  0  0  0  0  0  0  0
   59.6070   35.3140   45.3720 O   0  0  0  0  0  0  0  0  0  0  0  0
   61.0770   34.0040   47.1720 C   0  0  0  0  0  0  0  0  0  0  0  0
   62.2190   33.8440   46.3730 C   0  0  0  0  0  0  0  0  0  0  0  0
   63.4720   33.6550   46.9680 C   0  0  0  0  0  0  0  0  0  0  0  0
   63.5890   33.6320   48.3610 C   0  0  0  0  0  0  0  0  0  0  0  0
   62.4550   33.7980   49.1610 C   0  0  0  0  0  0  0  0  0  0  0  0
   61.2020   33.9860   48.5700 C   0  0  0  0  0  0  0  0  0  0  0  0
   57.8100   32.7320   44.9130 C   0  0  0  0  0  0  0  0  0  0  0  0
   57.3460   31.5280   44.3760 C   0  0  0  0  0  0  0  0  0  0  0  0
   57.7520   27.7000   46.1450 C   0  0  0  0  0  0  0  0  0  0  0  0
   56.6010   26.7040   46.3380 C   0  0  0  0  0  0  0  0  0  0  0  0
   57.5840   24.5480   47.0030 N   0  0  0  0  0  0  0  0  0  0  0  0
   56.3168   22.3428   45.2498 H   0  0  0  0  0  0  0  0  0  0  0  0
   55.0450   22.5948   46.4215 H   0  0  0  0  0  0  0  0  0  0  0  0
   55.6980   24.4051   44.3530 H   0  0  0  0  0  0  0  0  0  0  0  0
   54.8364   24.9019   45.8215 H   0  0  0  0  0  0  0  0  0  0  0  0
   59.0770   25.3177   45.1833 H   0  0  0  0  0  0  0  0  0  0  0  0
   57.9237   24.4655   44.0833 H   0  0  0  0  0  0  0  0  0  0  0  0
   58.6310   26.5858   43.0766 H   0  0  0  0  0  0  0  0  0  0  0  0
   56.8749   26.6466   43.5365 H   0  0  0  0  0  0  0  0  0  0  0  0
   59.1830   28.0280   44.7070 H   0  0  0  0  0  0  0  0  0  0  0  0
   57.6651   29.0047   43.0160 H   0  0  0  0  0  0  0  0  0  0  0  0
   56.4105   28.9580   44.3282 H   0  0  0  0  0  0  0  0  0  0  0  0
   59.6469   29.3977   45.7448 H   0  0  0  0  0  0  0  0  0  0  0  0
   60.4667   31.5469   46.7090 H   0  0  0  0  0  0  0  0  0  0  0  0
   62.1297   33.8671   45.2769 H   0  0  0  0  0  0  0  0  0  0  0  0
   64.3650   33.5245   46.3392 H   0  0  0  0  0  0  0  0  0  0  0  0
   64.5740   33.4832   48.8276 H   0  0  0  0  0  0  0  0  0  0  0  0
   62.5485   33.7807   50.2569 H   0  0  0  0  0  0  0  0  0  0  0  0
   60.3118   34.1202   49.2022 H   0  0  0  0  0  0  0  0  0  0  0  0
   57.2881   33.6723   44.6816 H   0  0  0  0  0  0  0  0  0  0  0  0
   56.4594   31.5251   43.7249 H   0  0  0  0  0  0  0  0  0  0  0  0
   58.6220   27.3495   46.7197 H   0  0  0  0  0  0  0  0  0  0  0  0
   57.4055   28.6834   46.4955 H   0  0  0  0  0  0  0  0  0  0  0  0
   56.3266   26.6739   47.4028 H   0  0  0  0  0  0  0  0  0  0  0  0
   55.7471   27.0340   45.7281 H   0  0  0  0  0  0  0  0  0  0  0  0
  1  2  2  0
  2  3  1  0
  3  4  1  0
  4  5  1  0
  5  6  1  0
  6  7  1  0
  7  8  1  0
  8  9  1  0
  9 10  1  0
 10 11  2  0
 11 12  1  0
 12 13  2  0
 13 14  1  0
 14 15  2  0
 14 16  2  0
 14 17  1  0
 17 18  2  0
 18 19  1  0
 19 20  2  0
 20 21  1  0
 21 22  2  0
 13 23  1  0
 23 24  2  0
  8 25  1  0
 25 26  1  0
  5 27  1  1
 27  2  1  0
 26  5  1  0
 24 10  1  0
 22 17  1  0
  3 28  1  0
  3 29  1  0
  4 30  1  0
  4 31  1  0
  6 32  1  0
  6 33  1  0
  7 34  1  0
  7 35  1  0
  8 36  1  1
  9 37  1  0
  9 38  1  0
 11 39  1  0
 12 40  1  0
 18 41  1  0
 19 42  1  0
 20 43  1  0
 21 44  1  0
 22 45  1  0
 23 46  1  0
 24 47  1  0
 25 48  1  0
 25 49  1  0
 26 50  1  0
 26 51  1  0
M  CHG  2   8   1  27  -1
M  END
>  <UniqueID>  (65) 
61

>  <SMILES>  (65) 
O=C1CCC2(CC[NH+](Cc3ccc(S(=O)(=O)c4ccccc4)cc3)CC2)[N-]1

>  <Energy>  (65) 
73.59249803947132

>  <Genealogy>  (65) 
O=C1CCC2(CC[NH+](Cc3ccc(S(=O)(=O)c4ccccc4)cc3)CC2)[N-]1 (protonated)
O=C1CCC2(CC[NH+](Cc3ccc(S(=O)(=O)c4ccccc4)cc3)CC2)[N-]1 (3D coordinates assigned)
O=C1CCC2(CC[NH+](Cc3ccc(S(=O)(=O)c4ccccc4)cc3)CC2)[N-]1 (nonaromatic ring conformer: 73.59249803947132 kcal/mol)

>  <smiles>  (65) 
O=C1CCC2(CCN(Cc3ccc(S(=O)(=O)c4ccccc4)cc3)CC2)N1

>  <score_type>  (65) 
oracle

>  <origin>  (65) 
adg

>  <m_score__min__energy>  (65) 
-9.4000000000000004

>  <m_primary>  (65) 
energy

$$$$
66:0
     RDKit          3D

 46 48  0  0  0  0  0  0  0  0999 V2000
   51.0710   32.2780   51.5820 N   0  0  0  0  0  0  0  0  0  0  0  0
   51.5940   30.6320   51.6090 S   0  0  0  0  0  0  0  0  0  0  0  0
   51.5550   30.0720   50.2160 O   0  0  0  0  0  0  0  0  0  0  0  0
   50.6680   29.8260   52.4780 O   0  0  0  0  0  0  0  0  0  0  0  0
   53.2350   30.5470   52.2420 C   0  0  0  0  0  0  0  0  0  0  0  0
   53.4910   29.8920   53.4520 C   0  0  0  0  0  0  0  0  0  0  0  0
   54.7940   29.8210   53.9500 C   0  0  0  0  0  0  0  0  0  0  0  0
   55.8470   30.4140   53.2490 C   0  0  0  0  0  0  0  0  0  0  0  0
   55.6030   31.1000   52.0490 C   0  0  0  0  0  0  0  0  0  0  0  0
   56.7040   31.6900   51.3370 N   0  0  0  0  0  0  0  0  0  0  0  0
   57.9570   31.0240   51.1090 C   0  0  0  0  0  0  0  0  0  0  0  0
   58.0120   29.7640   51.1480 O   0  0  0  0  0  0  0  0  0  0  0  0
   59.1740   31.7960   50.7640 C   0  0  0  0  0  0  0  0  0  0  0  0
   59.7150   31.6980   49.4680 C   0  0  0  0  0  0  0  0  0  0  0  0
   60.8720   32.4080   49.1200 C   0  0  0  0  0  0  0  0  0  0  0  0
   61.5500   32.2620   47.4950 S   0  0  0  0  0  0  0  0  0  0  0  0
   62.9050   32.9140   47.4640 O   0  0  0  0  0  0  0  0  0  0  0  0
   61.7280   30.8080   47.1610 O   0  0  0  0  0  0  0  0  0  0  0  0
   60.5200   33.0110   46.2970 N   0  0  0  0  0  0  0  0  0  0  0  0
   59.2720   32.2410   46.1350 C   0  0  0  0  0  0  0  0  0  0  0  0
   58.1730   33.1150   45.5100 C   0  0  0  0  0  0  0  0  0  0  0  0
   57.8380   34.2650   46.2790 O   0  0  0  0  0  0  0  0  0  0  0  0
   58.8730   34.6910   47.1540 C   0  0  0  0  0  0  0  0  0  0  0  0
   60.2850   34.4420   46.5930 C   0  0  0  0  0  0  0  0  0  0  0  0
   61.4900   33.2300   50.0700 C   0  0  0  0  0  0  0  0  0  0  0  0
   60.9690   33.3250   51.3610 C   0  0  0  0  0  0  0  0  0  0  0  0
   59.8210   32.6100   51.7140 C   0  0  0  0  0  0  0  0  0  0  0  0
   59.3750   32.6860   52.9940 F   0  0  0  0  0  0  0  0  0  0  0  0
   54.2900   31.1490   51.5420 C   0  0  0  0  0  0  0  0  0  0  0  0
   50.3000   32.3420   50.8800 H   0  0  0  0  0  0  0  0  0  0  0  0
   52.6638   29.4319   54.0124 H   0  0  0  0  0  0  0  0  0  0  0  0
   54.9916   29.2968   54.8967 H   0  0  0  0  0  0  0  0  0  0  0  0
   56.8729   30.3429   53.6396 H   0  0  0  0  0  0  0  0  0  0  0  0
   56.5470   32.6100   50.8640 H   0  0  0  0  0  0  0  0  0  0  0  0
   59.2243   31.0573   48.7205 H   0  0  0  0  0  0  0  0  0  0  0  0
   59.4626   31.3775   45.4808 H   0  0  0  0  0  0  0  0  0  0  0  0
   58.9342   31.9016   47.1253 H   0  0  0  0  0  0  0  0  0  0  0  0
   58.5184   33.4495   44.5207 H   0  0  0  0  0  0  0  0  0  0  0  0
   57.2664   32.4944   45.4557 H   0  0  0  0  0  0  0  0  0  0  0  0
   58.7547   35.7694   47.3360 H   0  0  0  0  0  0  0  0  0  0  0  0
   58.7811   34.1023   48.0787 H   0  0  0  0  0  0  0  0  0  0  0  0
   60.4057   35.0209   45.6655 H   0  0  0  0  0  0  0  0  0  0  0  0
   61.0134   34.7552   47.3554 H   0  0  0  0  0  0  0  0  0  0  0  0
   62.3889   33.8026   49.7979 H   0  0  0  0  0  0  0  0  0  0  0  0
   61.4645   33.9661   52.1050 H   0  0  0  0  0  0  0  0  0  0  0  0
   54.0909   31.6632   50.5902 H   0  0  0  0  0  0  0  0  0  0  0  0
  1  2  1  0
  2  3  2  0
  2  4  2  0
  2  5  1  0
  5  6  2  0
  6  7  1  0
  7  8  2  0
  8  9  1  0
  9 10  1  0
 10 11  1  0
 11 12  2  0
 11 13  1  0
 13 14  2  0
 14 15  1  0
 15 16  1  0
 16 17  2  0
 16 18  2  0
 16 19  1  0
 19 20  1  0
 20 21  1  0
 21 22  1  0
 22 23  1  0
 23 24  1  0
 15 25  2  0
 25 26  1  0
 26 27  2  0
 27 28  1  0
  9 29  2  0
 29  5  1  0
 27 13  1  0
 24 19  1  0
  1 30  1  0
  6 31  1  0
  7 32  1  0
  8 33  1  0
 10 34  1  0
 14 35  1  0
 20 36  1  0
 20 37  1  0
 21 38  1  0
 21 39  1  0
 23 40  1  0
 23 41  1  0
 24 42  1  0
 24 43  1  0
 25 44  1  0
 26 45  1  0
 29 46  1  0
M  CHG  1   1  -1
M  END
>  <UniqueID>  (66) 
62

>  <SMILES>  (66) 
[NH-]S(=O)(=O)c1cccc(NC(=O)c2cc(S(=O)(=O)N3CCOCC3)ccc2F)c1

>  <Energy>  (66) 
65.62909781370435

>  <Genealogy>  (66) 
[NH-]S(=O)(=O)c1cccc(NC(=O)c2cc(S(=O)(=O)N3CCOCC3)ccc2F)c1 (protonated)
[NH-]S(=O)(=O)c1cccc(NC(=O)c2cc(S(=O)(=O)N3CCOCC3)ccc2F)c1 (3D coordinates assigned)
[NH-]S(=O)(=O)c1cccc(NC(=O)c2cc(S(=O)(=O)N3CCOCC3)ccc2F)c1 (nonaromatic ring conformer: 65.62909781370435 kcal/mol)

>  <smiles>  (66) 
NS(=O)(=O)c1cccc(NC(=O)c2cc(S(=O)(=O)N3CCOCC3)ccc2F)c1

>  <score_type>  (66) 
oracle

>  <origin>  (66) 
adg

>  <m_score__min__energy>  (66) 
-12.5

>  <m_primary>  (66) 
energy

$$$$
67:0
     RDKit          3D

 56 59  0  0  0  0  0  0  0  0999 V2000
   54.3750   26.7150   46.7400 H   0  0  0  0  0  0  0  0  0  0  0  0
   54.3400   26.3190   45.8090 O   0  0  0  0  0  0  0  0  0  0  0  0
   54.6240   24.9730   45.6000 C   0  0  0  0  0  0  0  0  0  0  0  0
   53.7220   23.9870   45.7340 N   0  0  0  0  0  0  0  0  0  0  0  0
   54.4290   22.8900   45.3860 C   0  0  0  0  0  0  0  0  0  0  0  0
   53.9270   21.7370   45.3740 O   0  0  0  0  0  0  0  0  0  0  0  0
   55.7130   23.1290   45.0400 N   0  0  0  0  0  0  0  0  0  0  0  0
   55.8380   24.4560   45.2090 C   0  0  0  0  0  0  0  0  0  0  0  0
   57.0440   25.2120   44.8360 C   0  0  0  0  0  0  0  0  0  0  0  0
   57.6285   24.8360   43.9833 H   0  0  0  0  0  0  0  0  0  0  0  0
   57.4950   26.3250   45.4480 C   0  0  0  0  0  0  0  0  0  0  0  0
   57.4110   27.5810   44.8720 C   0  0  0  0  0  0  0  0  0  0  0  0
   57.0195   27.8170   43.8715 H   0  0  0  0  0  0  0  0  0  0  0  0
   57.9110   28.4800   45.7900 C   0  0  0  0  0  0  0  0  0  0  0  0
   57.9770   29.9350   45.5600 C   0  0  0  0  0  0  0  0  0  0  0  0
   57.0210   30.4920   44.9550 O   0  0  0  0  0  0  0  0  0  0  0  0
   59.1100   30.7220   45.9820 N   0  0  0  0  0  0  0  0  0  0  0  0
   58.9070   32.1550   46.2590 C   0  0  0  0  0  0  0  0  0  0  0  0
   58.4004   32.6149   45.3977 H   0  0  0  0  0  0  0  0  0  0  0  0
   58.2987   32.2419   47.1713 H   0  0  0  0  0  0  0  0  0  0  0  0
   60.2320   32.8860   46.5020 C   0  0  0  0  0  0  0  0  0  0  0  0
   60.7348   33.0569   45.5387 H   0  0  0  0  0  0  0  0  0  0  0  0
   60.0265   33.8482   46.9938 H   0  0  0  0  0  0  0  0  0  0  0  0
   61.1000   32.0840   47.3650 N   0  0  0  0  0  0  0  0  0  0  0  0
   61.8660   32.7240   48.3960 C   0  0  0  0  0  0  0  0  0  0  0  0
   63.1440   33.2060   48.0880 C   0  0  0  0  0  0  0  0  0  0  0  0
   63.5537   33.0634   47.0772 H   0  0  0  0  0  0  0  0  0  0  0  0
   63.8990   33.8650   49.0550 C   0  0  0  0  0  0  0  0  0  0  0  0
   64.9068   34.2305   48.8085 H   0  0  0  0  0  0  0  0  0  0  0  0
   63.3820   34.0630   50.3340 C   0  0  0  0  0  0  0  0  0  0  0  0
   63.9843   34.5876   51.0904 H   0  0  0  0  0  0  0  0  0  0  0  0
   62.0970   33.5980   50.6660 C   0  0  0  0  0  0  0  0  0  0  0  0
   61.5740   33.8430   52.0570 C   0  0  0  0  0  0  0  0  0  0  0  0
   62.3140   33.4963   52.7933 H   0  0  0  0  0  0  0  0  0  0  0  0
   61.3940   34.9191   52.1968 H   0  0  0  0  0  0  0  0  0  0  0  0
   60.6320   33.2925   52.1968 H   0  0  0  0  0  0  0  0  0  0  0  0
   61.3410   32.8850   49.6990 C   0  0  0  0  0  0  0  0  0  0  0  0
   59.9650   32.3530   50.0300 C   0  0  0  0  0  0  0  0  0  0  0  0
   59.8431   32.3059   51.1222 H   0  0  0  0  0  0  0  0  0  0  0  0
   59.2015   33.0208   49.6043 H   0  0  0  0  0  0  0  0  0  0  0  0
   59.8493   31.3453   49.6043 H   0  0  0  0  0  0  0  0  0  0  0  0
   61.3120   30.6560   47.1020 C   0  0  0  0  0  0  0  0  0  0  0  0
   62.3760   30.4882   46.8789 H   0  0  0  0  0  0  0  0  0  0  0  0
   61.0043   30.0923   47.9950 H   0  0  0  0  0  0  0  0  0  0  0  0
   60.4720   30.1700   45.9150 C   0  0  0  0  0  0  0  0  0  0  0  0
   60.9480   30.4955   44.9783 H   0  0  0  0  0  0  0  0  0  0  0  0
   60.4111   29.0723   45.9504 H   0  0  0  0  0  0  0  0  0  0  0  0
   58.3020   27.8360   46.9160 N   0  0  0  0  0  0  0  0  0  0  0  0
   58.8290   28.4500   48.1400 C   0  0  0  0  0  0  0  0  0  0  0  0
   58.3972   27.9470   49.0178 H   0  0  0  0  0  0  0  0  0  0  0  0
   59.9240   28.3467   48.1599 H   0  0  0  0  0  0  0  0  0  0  0  0
   58.5609   29.5166   48.1599 H   0  0  0  0  0  0  0  0  0  0  0  0
   58.0950   26.5100   46.7050 C   0  0  0  0  0  0  0  0  0  0  0  0
   58.5320   25.5580   47.5430 C   0  0  0  0  0  0  0  0  0  0  0  0
   58.9863   25.8382   48.5048 H   0  0  0  0  0  0  0  0  0  0  0  0
   58.4360   24.4972   47.2683 H   0  0  0  0  0  0  0  0  0  0  0  0
  1  2  1  0
  2  3  1  0
  3  4  1  0
  4  5  1  0
  5  6  2  0
  5  7  1  0
  7  8  1  0
  8  9  1  0
  9 10  1  0
  9 11  2  0
 11 12  1  0
 12 13  1  0
 12 14  2  0
 14 15  1  0
 15 16  2  0
 15 17  1  0
 17 18  1  0
 18 19  1  0
 18 20  1  0
 18 21  1  0
 21 22  1  0
 21 23  1  0
 21 24  1  0
 24 25  1  0
 25 26  2  0
 26 27  1  0
 26 28  1  0
 28 29  1  0
 28 30  2  0
 30 31  1  0
 30 32  1  0
 32 33  1  0
 33 34  1  0
 33 35  1  0
 33 36  1  0
 32 37  2  0
 37 38  1  0
 38 39  1  0
 38 40  1  0
 38 41  1  0
 24 42  1  0
 42 43  1  0
 42 44  1  0
 42 45  1  0
 45 46  1  0
 45 47  1  0
 14 48  1  0
 48 49  1  0
 49 50  1  0
 49 51  1  0
 49 52  1  0
 48 53  1  0
 53 54  2  0
 54 55  1  0
 54 56  1  0
  8  3  2  0
 53 11  1  0
 45 17  1  0
 37 25  1  0
M  CHG  2   4  -1   7  -1
M  END
>  <UniqueID>  (67) 
63

>  <SMILES>  (67) 
C=c1/c(=C\c2[n-]c(=O)[n-]c2O)cc(C(=O)N2CCN(c3cccc(C)c3C)CC2)n1C

>  <Energy>  (67) 
139.6474604351643

>  <Genealogy>  (67) 
C=c1c(=Cc2[n-]c(=O)[n-]c2O)cc(C(=O)N2CCN(c3cccc(C)c3C)CC2)n1C (protonated)
C=c1/c(=C\c2[n-]c(=O)[n-]c2O)cc(C(=O)N2CCN(c3cccc(C)c3C)CC2)n1C (cis-trans isomerization)
C=c1/c(=C\c2[n-]c(=O)[n-]c2O)cc(C(=O)N2CCN(c3cccc(C)c3C)CC2)n1C (3D coordinates assigned)
C=c1/c(=C\c2[n-]c(=O)[n-]c2O)cc(C(=O)N2CCN(c3cccc(C)c3C)CC2)n1C (nonaromatic ring conformer: 139.6474604351643 kcal/mol)

>  <smiles>  (67) 
C=c1c(=Cc2[nH]c(=O)[nH]c2O)cc(C(=O)N2CCN(c3cccc(C)c3C)CC2)n1C

>  <score_type>  (67) 
oracle

>  <origin>  (67) 
adg

>  <m_score__min__energy>  (67) 
-13.640000000000001

>  <m_primary>  (67) 
energy

$$$$
68:0
     RDKit          3D

 53 56  0  0  0  0  0  0  0  0999 V2000
   57.2940   32.9780   46.0430 O   0  0  0  0  0  0  0  0  0  0  0  0
   58.4520   33.0850   46.5310 C   0  0  0  0  0  0  0  0  0  0  0  0
   59.1970   34.2950   46.3650 N   0  0  0  0  0  0  0  0  0  0  0  0
   59.9830   34.9100   47.4270 C   0  0  0  0  0  0  0  0  0  0  0  0
   61.1510   34.0360   47.7960 C   0  0  0  0  0  0  0  0  0  0  0  0
   61.9470   33.4600   46.7900 C   0  0  0  0  0  0  0  0  0  0  0  0
   63.0360   32.6520   47.1290 C   0  0  0  0  0  0  0  0  0  0  0  0
   63.3310   32.4060   48.4710 C   0  0  0  0  0  0  0  0  0  0  0  0
   62.5380   32.9650   49.4770 C   0  0  0  0  0  0  0  0  0  0  0  0
   61.4510   33.7760   49.1430 C   0  0  0  0  0  0  0  0  0  0  0  0
   59.0560   32.0030   47.1820 O   0  0  0  0  0  0  0  0  0  0  0  0
   58.8420   31.6620   48.5240 C   0  0  0  0  0  0  0  0  0  0  0  0
   58.1740   32.5460   49.3890 C   0  0  0  0  0  0  0  0  0  0  0  0
   58.0230   32.2360   50.7390 C   0  0  0  0  0  0  0  0  0  0  0  0
   58.5590   31.0560   51.2490 C   0  0  0  0  0  0  0  0  0  0  0  0
   59.2460   30.1720   50.4080 C   0  0  0  0  0  0  0  0  0  0  0  0
   59.3550   30.4440   49.0290 C   0  0  0  0  0  0  0  0  0  0  0  0
   60.0030   29.4730   48.1640 N   0  0  0  0  0  0  0  0  0  0  0  0
   59.5130   29.2730   46.8220 C   0  0  0  0  0  0  0  0  0  0  0  0
   60.3300   29.2440   45.8600 O   0  0  0  0  0  0  0  0  0  0  0  0
   58.0530   29.0340   46.5480 C   0  0  0  0  0  0  0  0  0  0  0  0
   57.6240   29.7420   45.2890 C   0  0  0  0  0  0  0  0  0  0  0  0
   58.5050   30.6450   44.6680 C   0  0  0  0  0  0  0  0  0  0  0  0
   58.1520   31.2660   43.4680 C   0  0  0  0  0  0  0  0  0  0  0  0
   56.9270   30.9750   42.8660 C   0  0  0  0  0  0  0  0  0  0  0  0
   56.0500   30.0640   43.4640 C   0  0  0  0  0  0  0  0  0  0  0  0
   56.3980   29.4390   44.6650 C   0  0  0  0  0  0  0  0  0  0  0  0
   55.5220   28.5240   45.2330 O   0  0  0  0  0  0  0  0  0  0  0  0
   60.8980   28.4360   48.7210 C   0  0  0  0  0  0  0  0  0  0  0  0
   61.1490   28.6080   50.2240 C   0  0  0  0  0  0  0  0  0  0  0  0
   59.8480   28.9120   50.9600 C   0  0  0  0  0  0  0  0  0  0  0  0
   60.3563   35.8854   47.0818 H   0  0  0  0  0  0  0  0  0  0  0  0
   59.3431   35.0389   48.3124 H   0  0  0  0  0  0  0  0  0  0  0  0
   61.7116   33.6461   45.7317 H   0  0  0  0  0  0  0  0  0  0  0  0
   63.6604   32.2101   46.3385 H   0  0  0  0  0  0  0  0  0  0  0  0
   64.1890   31.7712   48.7372 H   0  0  0  0  0  0  0  0  0  0  0  0
   62.7703   32.7659   50.5336 H   0  0  0  0  0  0  0  0  0  0  0  0
   60.8280   34.2124   49.9376 H   0  0  0  0  0  0  0  0  0  0  0  0
   57.7673   33.4899   48.9970 H   0  0  0  0  0  0  0  0  0  0  0  0
   57.4796   32.9243   51.4030 H   0  0  0  0  0  0  0  0  0  0  0  0
   58.4422   30.8176   52.3165 H   0  0  0  0  0  0  0  0  0  0  0  0
   57.8796   27.9540   46.4318 H   0  0  0  0  0  0  0  0  0  0  0  0
   57.4662   29.4264   47.3916 H   0  0  0  0  0  0  0  0  0  0  0  0
   59.4788   30.8637   45.1305 H   0  0  0  0  0  0  0  0  0  0  0  0
   58.8394   31.9844   42.9974 H   0  0  0  0  0  0  0  0  0  0  0  0
   56.6507   31.4629   41.9196 H   0  0  0  0  0  0  0  0  0  0  0  0
   55.0842   29.8389   42.9881 H   0  0  0  0  0  0  0  0  0  0  0  0
   60.4403   27.4501   48.5523 H   0  0  0  0  0  0  0  0  0  0  0  0
   61.8685   28.5298   48.2117 H   0  0  0  0  0  0  0  0  0  0  0  0
   61.5820   27.6800   50.6257 H   0  0  0  0  0  0  0  0  0  0  0  0
   61.8419   29.4495   50.3713 H   0  0  0  0  0  0  0  0  0  0  0  0
   59.1444   28.0778   50.8217 H   0  0  0  0  0  0  0  0  0  0  0  0
   60.0542   29.0423   52.0326 H   0  0  0  0  0  0  0  0  0  0  0  0
  1  2  2  0
  2  3  1  0
  3  4  1  0
  4  5  1  0
  5  6  2  0
  6  7  1  0
  7  8  2  0
  8  9  1  0
  9 10  2  0
  2 11  1  0
 11 12  1  0
 12 13  2  0
 13 14  1  0
 14 15  2  0
 15 16  1  0
 16 17  2  0
 17 18  1  0
 18 19  1  0
 19 20  2  0
 19 21  1  0
 21 22  1  0
 22 23  2  0
 23 24  1  0
 24 25  2  0
 25 26  1  0
 26 27  2  0
 27 28  1  0
 18 29  1  0
 29 30  1  0
 30 31  1  0
 10  5  1  0
 17 12  1  0
 27 22  1  0
 31 16  1  0
  4 32  1  0
  4 33  1  0
  6 34  1  0
  7 35  1  0
  8 36  1  0
  9 37  1  0
 10 38  1  0
 13 39  1  0
 14 40  1  0
 15 41  1  0
 21 42  1  0
 21 43  1  0
 23 44  1  0
 24 45  1  0
 25 46  1  0
 26 47  1  0
 29 48  1  0
 29 49  1  0
 30 50  1  0
 30 51  1  0
 31 52  1  0
 31 53  1  0
M  CHG  2   3  -1  28  -1
M  END
>  <UniqueID>  (68) 
64

>  <SMILES>  (68) 
O=C([N-]Cc1ccccc1)Oc1cccc2c1N(C(=O)Cc1ccccc1[O-])CCC2

>  <Energy>  (68) 
67.62101403120737

>  <Genealogy>  (68) 
O=C([N-]Cc1ccccc1)Oc1cccc2c1N(C(=O)Cc1ccccc1[O-])CCC2 (protonated)
O=C([N-]Cc1ccccc1)Oc1cccc2c1N(C(=O)Cc1ccccc1[O-])CCC2 (3D coordinates assigned)
O=C([N-]Cc1ccccc1)Oc1cccc2c1N(C(=O)Cc1ccccc1[O-])CCC2 (nonaromatic ring conformer: 67.62101403120737 kcal/mol)

>  <smiles>  (68) 
O=C(NCc1ccccc1)Oc1cccc2c1N(C(=O)Cc1ccccc1O)CCC2

>  <score_type>  (68) 
oracle

>  <origin>  (68) 
adg

>  <m_score__min__energy>  (68) 
-13.52

>  <m_primary>  (68) 
energy

$$$$
69:0
     RDKit          3D

 67 70  0  0  0  0  0  0  0  0999 V2000
   56.5110   24.4850   44.2460 C   0  0  0  0  0  0  0  0  0  0  0  0
   56.6090   25.0990   45.6110 C   0  0  0  0  0  0  0  0  0  0  0  0
   55.6110   25.0100   46.3790 O   0  0  0  0  0  0  0  0  0  0  0  0
   57.7990   25.7890   46.0590 N   0  0  0  0  0  0  0  0  0  0  0  0
   58.9260   26.0590   45.1480 C   0  0  0  0  0  0  0  0  0  0  0  0
   59.5130   27.4550   45.4130 C   0  0  0  0  0  0  0  0  0  0  0  0
   59.6500   27.7290   46.8490 N   0  0  0  0  0  0  0  0  0  0  0  0
   59.9350   29.0740   47.2770 C   0  0  0  0  0  0  0  0  0  0  0  0
   58.9940   29.7950   48.0280 C   0  0  0  0  0  0  0  0  0  0  0  0
   59.2280   31.1310   48.3630 C   0  0  0  0  0  0  0  0  0  0  0  0
   60.4190   31.7680   47.9710 C   0  0  0  0  0  0  0  0  0  0  0  0
   60.6360   33.2340   48.2730 C   0  0  0  0  0  0  0  0  0  0  0  0
   60.6240   34.0840   47.0090 C   0  0  0  0  0  0  0  0  0  0  0  0
   61.6680   34.1330   46.3690 O   0  0  0  0  0  0  0  0  0  0  0  0
   59.5190   34.9590   46.6100 N   0  0  0  0  0  0  0  0  0  0  0  0
   58.1650   34.5530   47.0110 C   0  0  0  0  0  0  0  0  0  0  0  0
   57.6930   33.2580   46.3310 C   0  0  0  0  0  0  0  0  0  0  0  0
   58.1880   33.0110   44.9490 N   0  0  0  0  0  0  0  0  0  0  0  0
   57.7070   31.7930   44.2530 C   0  0  0  0  0  0  0  0  0  0  0  0
   57.3880   30.6410   45.0340 C   0  0  0  0  0  0  0  0  0  0  0  0
   56.8770   29.4660   44.4770 C   0  0  0  0  0  0  0  0  0  0  0  0
   56.5650   28.2910   45.3630 C   0  0  0  0  0  0  0  0  0  0  0  0
   56.6380   29.4010   43.1110 C   0  0  0  0  0  0  0  0  0  0  0  0
   56.9460   30.4810   42.2990 C   0  0  0  0  0  0  0  0  0  0  0  0
   57.5080   31.6650   42.8200 C   0  0  0  0  0  0  0  0  0  0  0  0
   57.8390   32.7070   41.7780 C   0  0  0  0  0  0  0  0  0  0  0  0
   59.2330   33.8860   44.3750 C   0  0  0  0  0  0  0  0  0  0  0  0
   59.4930   35.1820   45.1560 C   0  0  0  0  0  0  0  0  0  0  0  0
   61.3610   31.0420   47.2230 C   0  0  0  0  0  0  0  0  0  0  0  0
   61.1190   29.7100   46.8750 C   0  0  0  0  0  0  0  0  0  0  0  0
   59.3000   26.6890   47.8240 C   0  0  0  0  0  0  0  0  0  0  0  0
   57.9190   26.1250   47.4890 C   0  0  0  0  0  0  0  0  0  0  0  0
   56.3383   23.4029   44.3422 H   0  0  0  0  0  0  0  0  0  0  0  0
   55.6745   24.9425   43.6974 H   0  0  0  0  0  0  0  0  0  0  0  0
   57.4483   24.6593   43.6974 H   0  0  0  0  0  0  0  0  0  0  0  0
   59.7082   25.3019   45.3061 H   0  0  0  0  0  0  0  0  0  0  0  0
   58.5615   26.0184   44.1109 H   0  0  0  0  0  0  0  0  0  0  0  0
   60.5054   27.5184   44.9428 H   0  0  0  0  0  0  0  0  0  0  0  0
   58.8241   28.2001   44.9885 H   0  0  0  0  0  0  0  0  0  0  0  0
   58.0653   29.3047   48.3553 H   0  0  0  0  0  0  0  0  0  0  0  0
   58.4745   31.6892   48.9381 H   0  0  0  0  0  0  0  0  0  0  0  0
   59.8351   33.5812   48.9423 H   0  0  0  0  0  0  0  0  0  0  0  0
   61.6234   33.3414   48.7457 H   0  0  0  0  0  0  0  0  0  0  0  0
   59.7070   35.8890   47.0570 H   0  0  0  0  0  0  0  0  0  0  0  0
   58.1546   34.3994   48.1002 H   0  0  0  0  0  0  0  0  0  0  0  0
   57.4786   35.3540   46.6992 H   0  0  0  0  0  0  0  0  0  0  0  0
   58.0185   32.4145   46.9576 H   0  0  0  0  0  0  0  0  0  0  0  0
   56.6024   33.3631   46.2335 H   0  0  0  0  0  0  0  0  0  0  0  0
   57.5516   30.6803   46.1211 H   0  0  0  0  0  0  0  0  0  0  0  0
   56.6457   28.5950   46.4171 H   0  0  0  0  0  0  0  0  0  0  0  0
   55.5425   27.9399   45.1599 H   0  0  0  0  0  0  0  0  0  0  0  0
   57.2786   27.4789   45.1599 H   0  0  0  0  0  0  0  0  0  0  0  0
   56.2034   28.4907   42.6724 H   0  0  0  0  0  0  0  0  0  0  0  0
   56.7468   30.4130   41.2193 H   0  0  0  0  0  0  0  0  0  0  0  0
   58.1360   33.6419   42.2758 H   0  0  0  0  0  0  0  0  0  0  0  0
   58.6670   32.3471   41.1497 H   0  0  0  0  0  0  0  0  0  0  0  0
   56.9551   32.8909   41.1497 H   0  0  0  0  0  0  0  0  0  0  0  0
   60.1729   33.3158   44.3370 H   0  0  0  0  0  0  0  0  0  0  0  0
   58.8682   34.1918   43.3833 H   0  0  0  0  0  0  0  0  0  0  0  0
   60.4634   35.5952   44.8436 H   0  0  0  0  0  0  0  0  0  0  0  0
   58.6713   35.8794   44.9360 H   0  0  0  0  0  0  0  0  0  0  0  0
   62.2973   31.5261   46.9084 H   0  0  0  0  0  0  0  0  0  0  0  0
   61.8620   29.1567   46.2819 H   0  0  0  0  0  0  0  0  0  0  0  0
   60.0461   25.8817   47.7836 H   0  0  0  0  0  0  0  0  0  0  0  0
   59.2853   27.1223   48.8350 H   0  0  0  0  0  0  0  0  0  0  0  0
   57.7517   25.2151   48.0841 H   0  0  0  0  0  0  0  0  0  0  0  0
   57.1685   26.8940   47.7245 H   0  0  0  0  0  0  0  0  0  0  0  0
  1  2  1  0
  2  3  2  0
  2  4  1  0
  4  5  1  0
  5  6  1  0
  6  7  1  0
  7  8  1  0
  8  9  2  0
  9 10  1  0
 10 11  2  0
 11 12  1  0
 12 13  1  0
 13 14  2  0
 13 15  1  0
 15 16  1  0
 16 17  1  0
 17 18  1  0
 18 19  1  0
 19 20  2  0
 20 21  1  0
 21 22  1  0
 21 23  2  0
 23 24  1  0
 24 25  2  0
 25 26  1  0
 18 27  1  0
 27 28  1  0
 11 29  1  0
 29 30  2  0
  7 31  1  0
 31 32  1  0
 32  4  1  0
 30  8  1  0
 28 15  1  0
 25 19  1  0
  1 33  1  0
  1 34  1  0
  1 35  1  0
  5 36  1  0
  5 37  1  0
  6 38  1  0
  6 39  1  0
  9 40  1  0
 10 41  1  0
 12 42  1  0
 12 43  1  0
 15 44  1  0
 16 45  1  0
 16 46  1  0
 17 47  1  0
 17 48  1  0
 20 49  1  0
 22 50  1  0
 22 51  1  0
 22 52  1  0
 23 53  1  0
 24 54  1  0
 26 55  1  0
 26 56  1  0
 26 57  1  0
 27 58  1  0
 27 59  1  0
 28 60  1  0
 28 61  1  0
 29 62  1  0
 30 63  1  0
 31 64  1  0
 31 65  1  0
 32 66  1  0
 32 67  1  0
M  CHG  1  15   1
M  END
>  <UniqueID>  (69) 
65

>  <SMILES>  (69) 
CC(=O)N1CCN(c2ccc(CC(=O)[NH+]3CCN(c4cc(C)ccc4C)CC3)cc2)CC1

>  <Energy>  (69) 
103.98789864309443

>  <Genealogy>  (69) 
CC(=O)N1CCN(c2ccc(CC(=O)[NH+]3CCN(c4cc(C)ccc4C)CC3)cc2)CC1 (protonated)
CC(=O)N1CCN(c2ccc(CC(=O)[NH+]3CCN(c4cc(C)ccc4C)CC3)cc2)CC1 (3D coordinates assigned)
CC(=O)N1CCN(c2ccc(CC(=O)[NH+]3CCN(c4cc(C)ccc4C)CC3)cc2)CC1 (nonaromatic ring conformer: 103.98789864309443 kcal/mol)

>  <smiles>  (69) 
CC(=O)N1CCN(c2ccc(CC(=O)N3CCN(c4cc(C)ccc4C)CC3)cc2)CC1

>  <score_type>  (69) 
oracle

>  <origin>  (69) 
adg

>  <m_score__min__energy>  (69) 
-8.2799999999999994

>  <m_primary>  (69) 
energy

$$$$
70:0
     RDKit          3D

 68 72  0  0  0  0  0  0  0  0999 V2000
   60.6810   28.7720   48.7810 C   0  0  0  0  0  0  0  0  0  0  0  0
   60.5180   28.8840   47.3330 N   0  0  0  0  0  0  0  0  0  0  0  0
   60.7780   29.9330   46.5160 C   0  0  0  0  0  0  0  0  0  0  0  0
   61.3730   31.2170   46.9270 C   0  0  0  0  0  0  0  0  0  0  0  0
   62.6920   31.2190   47.4060 C   0  0  0  0  0  0  0  0  0  0  0  0
   63.2990   32.4110   47.8040 C   0  0  0  0  0  0  0  0  0  0  0  0
   62.5930   33.6120   47.7410 C   0  0  0  0  0  0  0  0  0  0  0  0
   61.2740   33.6250   47.2840 C   0  0  0  0  0  0  0  0  0  0  0  0
   60.6460   32.4340   46.8750 C   0  0  0  0  0  0  0  0  0  0  0  0
   59.2600   32.4690   46.4800 N   0  0  0  0  0  0  0  0  0  0  0  0
   58.2210   32.7990   47.4640 C   0  0  0  0  0  0  0  0  0  0  0  0
   57.0360   33.4740   46.7670 C   0  0  0  0  0  0  0  0  0  0  0  0
   57.5170   34.3740   45.7890 O   0  0  0  0  0  0  0  0  0  0  0  0
   58.0600   33.6720   44.6780 C   0  0  0  0  0  0  0  0  0  0  0  0
   58.8850   32.4210   45.0620 C   0  0  0  0  0  0  0  0  0  0  0  0
   60.4190   29.6660   45.2410 N   0  0  0  0  0  0  0  0  0  0  0  0
   59.9440   28.4320   45.2400 N   0  0  0  0  0  0  0  0  0  0  0  0
   60.0030   27.9620   46.4980 C   0  0  0  0  0  0  0  0  0  0  0  0
   59.4270   26.3330   46.9830 S   0  0  0  0  0  0  0  0  0  0  0  0
   57.7300   26.9050   47.3260 C   0  0  0  0  0  0  0  0  0  0  0  0
   56.9700   27.0040   46.0470 C   0  0  0  0  0  0  0  0  0  0  0  0
   57.5560   27.4140   45.0100 O   0  0  0  0  0  0  0  0  0  0  0  0
   55.6050   26.5700   45.9940 N   0  0  0  0  0  0  0  0  0  0  0  0
   55.1500   25.2070   45.9810 C   0  0  0  0  0  0  0  0  0  0  0  0
   53.9020   24.8430   45.4420 C   0  0  0  0  0  0  0  0  0  0  0  0
   53.4890   23.5080   45.4630 C   0  0  0  0  0  0  0  0  0  0  0  0
   54.3070   22.5290   46.0340 C   0  0  0  0  0  0  0  0  0  0  0  0
   55.5420   22.8820   46.5940 C   0  0  0  0  0  0  0  0  0  0  0  0
   56.5630   21.6490   47.3370 S   0  0  0  0  0  0  0  0  0  0  0  0
   55.6880   20.6160   47.9940 O   0  0  0  0  0  0  0  0  0  0  0  0
   57.3920   22.2950   48.4140 O   0  0  0  0  0  0  0  0  0  0  0  0
   57.6160   20.8600   46.1790 N   0  0  0  0  0  0  0  0  0  0  0  0
   58.1210   21.7780   45.1360 C   0  0  0  0  0  0  0  0  0  0  0  0
   57.4250   21.5860   43.7800 C   0  0  0  0  0  0  0  0  0  0  0  0
   56.0870   21.1930   43.9730 O   0  0  0  0  0  0  0  0  0  0  0  0
   56.0450   19.8690   44.4700 C   0  0  0  0  0  0  0  0  0  0  0  0
   57.0270   19.6180   45.6420 C   0  0  0  0  0  0  0  0  0  0  0  0
   55.9530   24.2230   46.5740 C   0  0  0  0  0  0  0  0  0  0  0  0
   59.8750   29.3258   49.2846 H   0  0  0  0  0  0  0  0  0  0  0  0
   60.6367   27.7127   49.0741 H   0  0  0  0  0  0  0  0  0  0  0  0
   61.6540   29.1932   49.0741 H   0  0  0  0  0  0  0  0  0  0  0  0
   63.2516   30.2741   47.4682 H   0  0  0  0  0  0  0  0  0  0  0  0
   64.3369   32.4032   48.1683 H   0  0  0  0  0  0  0  0  0  0  0  0
   63.0760   34.5501   48.0518 H   0  0  0  0  0  0  0  0  0  0  0  0
   60.7206   34.5748   47.2432 H   0  0  0  0  0  0  0  0  0  0  0  0
   57.8777   31.8764   47.9548 H   0  0  0  0  0  0  0  0  0  0  0  0
   58.6388   33.4868   48.2139 H   0  0  0  0  0  0  0  0  0  0  0  0
   56.4093   32.7090   46.2852 H   0  0  0  0  0  0  0  0  0  0  0  0
   56.4376   34.0231   47.5089 H   0  0  0  0  0  0  0  0  0  0  0  0
   57.2291   33.3526   44.0318 H   0  0  0  0  0  0  0  0  0  0  0  0
   58.7501   34.3637   44.1728 H   0  0  0  0  0  0  0  0  0  0  0  0
   58.2828   31.5193   44.8770 H   0  0  0  0  0  0  0  0  0  0  0  0
   59.8002   32.3970   44.4522 H   0  0  0  0  0  0  0  0  0  0  0  0
   59.5800   27.9320   44.3990 H   0  0  0  0  0  0  0  0  0  0  0  0
   57.2301   26.1891   47.9949 H   0  0  0  0  0  0  0  0  0  0  0  0
   57.7668   27.8933   47.8077 H   0  0  0  0  0  0  0  0  0  0  0  0
   53.2494   25.6118   45.0027 H   0  0  0  0  0  0  0  0  0  0  0  0
   52.5180   23.2271   45.0292 H   0  0  0  0  0  0  0  0  0  0  0  0
   53.9804   21.4786   46.0438 H   0  0  0  0  0  0  0  0  0  0  0  0
   57.9573   22.8130   45.4707 H   0  0  0  0  0  0  0  0  0  0  0  0
   59.1890   21.5573   44.9921 H   0  0  0  0  0  0  0  0  0  0  0  0
   57.4487   22.5335   43.2217 H   0  0  0  0  0  0  0  0  0  0  0  0
   57.9513   20.8037   43.2134 H   0  0  0  0  0  0  0  0  0  0  0  0
   55.0234   19.6609   44.8209 H   0  0  0  0  0  0  0  0  0  0  0  0
   56.3465   19.2044   43.6469 H   0  0  0  0  0  0  0  0  0  0  0  0
   56.4832   19.1097   46.4518 H   0  0  0  0  0  0  0  0  0  0  0  0
   57.8529   19.0046   45.2526 H   0  0  0  0  0  0  0  0  0  0  0  0
   56.9145   24.5050   47.0279 H   0  0  0  0  0  0  0  0  0  0  0  0
  1  2  1  0
  2  3  1  0
  3  4  1  0
  4  5  2  0
  5  6  1  0
  6  7  2  0
  7  8  1  0
  8  9  2  0
  9 10  1  0
 10 11  1  0
 11 12  1  0
 12 13  1  0
 13 14  1  0
 14 15  1  0
  3 16  2  0
 16 17  1  0
 17 18  2  0
 18 19  1  0
 19 20  1  0
 20 21  1  0
 21 22  2  0
 21 23  1  0
 23 24  1  0
 24 25  2  0
 25 26  1  0
 26 27  2  0
 27 28  1  0
 28 29  1  0
 29 30  2  0
 29 31  2  0
 29 32  1  0
 32 33  1  0
 33 34  1  0
 34 35  1  0
 35 36  1  0
 36 37  1  0
 28 38  2  0
 18  2  1  0
 38 24  1  0
  9  4  1  0
 15 10  1  0
 37 32  1  0
  1 39  1  0
  1 40  1  0
  1 41  1  0
  5 42  1  0
  6 43  1  0
  7 44  1  0
  8 45  1  0
 11 46  1  0
 11 47  1  0
 12 48  1  0
 12 49  1  0
 14 50  1  0
 14 51  1  0
 15 52  1  0
 15 53  1  0
 17 54  1  0
 20 55  1  0
 20 56  1  0
 25 57  1  0
 26 58  1  0
 27 59  1  0
 33 60  1  0
 33 61  1  0
 34 62  1  0
 34 63  1  0
 36 64  1  0
 36 65  1  0
 37 66  1  0
 37 67  1  0
 38 68  1  0
M  CHG  2  17   1  23  -1
M  END
>  <UniqueID>  (70) 
66

>  <SMILES>  (70) 
Cn1c(-c2ccccc2N2CCOCC2)n[nH+]c1SCC(=O)[N-]c1cccc(S(=O)(=O)N2CCOCC2)c1

>  <Energy>  (70) 
133.799227999228

>  <Genealogy>  (70) 
Cn1c(-c2ccccc2N2CCOCC2)n[nH+]c1SCC(=O)[N-]c1cccc(S(=O)(=O)N2CCOCC2)c1 (protonated)
Cn1c(-c2ccccc2N2CCOCC2)n[nH+]c1SCC(=O)[N-]c1cccc(S(=O)(=O)N2CCOCC2)c1 (3D coordinates assigned)
Cn1c(-c2ccccc2N2CCOCC2)n[nH+]c1SCC(=O)[N-]c1cccc(S(=O)(=O)N2CCOCC2)c1 (nonaromatic ring conformer: 133.799227999228 kcal/mol)

>  <smiles>  (70) 
Cn1c(SCC(=O)Nc2cccc(S(=O)(=O)N3CCOCC3)c2)nnc1-c1ccccc1N1CCOCC1

>  <score_type>  (70) 
oracle

>  <origin>  (70) 
adg

>  <m_score__min__energy>  (70) 
-10.67

>  <m_primary>  (70) 
energy

$$$$
71:0
     RDKit          3D

 53 56  0  0  0  0  0  0  0  0999 V2000
   63.3030   34.0500   46.4150 C   0  0  0  0  0  0  0  0  0  0  0  0
   63.3470   32.6310   46.5070 O   0  0  0  0  0  0  0  0  0  0  0  0
   62.6990   31.8760   47.4980 C   0  0  0  0  0  0  0  0  0  0  0  0
   61.4930   31.1910   47.2510 C   0  0  0  0  0  0  0  0  0  0  0  0
   60.8710   30.4500   48.2680 C   0  0  0  0  0  0  0  0  0  0  0  0
   59.5640   29.7410   48.0100 C   0  0  0  0  0  0  0  0  0  0  0  0
   59.6290   28.9320   46.7730 N   0  0  0  0  0  0  0  0  0  0  0  0
   60.2300   27.6120   47.0500 C   0  0  0  0  0  0  0  0  0  0  0  0
   58.2700   28.7660   46.2130 C   0  0  0  0  0  0  0  0  0  0  0  0
   57.7730   30.0430   45.6080 C   0  0  0  0  0  0  0  0  0  0  0  0
   56.6430   30.1490   44.8860 N   0  0  0  0  0  0  0  0  0  0  0  0
   56.5250   31.4290   44.5700 N   0  0  0  0  0  0  0  0  0  0  0  0
   57.5870   32.0570   45.1160 C   0  0  0  0  0  0  0  0  0  0  0  0
   57.8230   33.5080   45.0110 C   0  0  0  0  0  0  0  0  0  0  0  0
   56.8300   34.2710   44.8760 O   0  0  0  0  0  0  0  0  0  0  0  0
   59.1320   34.0950   45.0620 N   0  0  0  0  0  0  0  0  0  0  0  0
   59.6630   34.9620   46.1100 C   0  0  0  0  0  0  0  0  0  0  0  0
   59.5710   34.3010   47.4540 C   0  0  0  0  0  0  0  0  0  0  0  0
   60.3730   34.5920   48.5550 C   0  0  0  0  0  0  0  0  0  0  0  0
   59.9240   33.7520   49.5510 C   0  0  0  0  0  0  0  0  0  0  0  0
   60.3360   33.6110   50.8730 C   0  0  0  0  0  0  0  0  0  0  0  0
   59.6690   32.6640   51.6720 C   0  0  0  0  0  0  0  0  0  0  0  0
   58.6150   31.8900   51.1340 C   0  0  0  0  0  0  0  0  0  0  0  0
   58.2210   32.0560   49.7930 C   0  0  0  0  0  0  0  0  0  0  0  0
   58.9050   32.9990   49.0270 C   0  0  0  0  0  0  0  0  0  0  0  0
   58.6860   33.3180   47.7420 N   0  0  0  0  0  0  0  0  0  0  0  0
   58.3560   31.2080   45.7510 O   0  0  0  0  0  0  0  0  0  0  0  0
   61.4620   30.3960   49.5390 C   0  0  0  0  0  0  0  0  0  0  0  0
   62.6580   31.0710   49.7890 C   0  0  0  0  0  0  0  0  0  0  0  0
   63.2770   31.8100   48.7730 C   0  0  0  0  0  0  0  0  0  0  0  0
   64.4720   32.4850   49.0240 O   0  0  0  0  0  0  0  0  0  0  0  0
   63.2896   34.4828   47.4262 H   0  0  0  0  0  0  0  0  0  0  0  0
   64.1904   34.4100   45.8738 H   0  0  0  0  0  0  0  0  0  0  0  0
   62.3950   34.3544   45.8738 H   0  0  0  0  0  0  0  0  0  0  0  0
   61.0346   31.2373   46.2521 H   0  0  0  0  0  0  0  0  0  0  0  0
   59.3408   29.0794   48.8600 H   0  0  0  0  0  0  0  0  0  0  0  0
   58.7750   30.4980   47.8899 H   0  0  0  0  0  0  0  0  0  0  0  0
   60.2986   27.4613   48.1375 H   0  0  0  0  0  0  0  0  0  0  0  0
   59.6021   26.8235   46.6094 H   0  0  0  0  0  0  0  0  0  0  0  0
   61.2370   27.5679   46.6094 H   0  0  0  0  0  0  0  0  0  0  0  0
   58.2946   27.9871   45.4367 H   0  0  0  0  0  0  0  0  0  0  0  0
   57.5900   28.4796   47.0288 H   0  0  0  0  0  0  0  0  0  0  0  0
   60.7174   35.1864   45.8911 H   0  0  0  0  0  0  0  0  0  0  0  0
   59.0685   35.8872   46.1335 H   0  0  0  0  0  0  0  0  0  0  0  0
   61.1862   35.3302   48.6161 H   0  0  0  0  0  0  0  0  0  0  0  0
   61.1565   34.2202   51.2800 H   0  0  0  0  0  0  0  0  0  0  0  0
   59.9692   32.5250   52.7211 H   0  0  0  0  0  0  0  0  0  0  0  0
   58.0996   31.1533   51.7677 H   0  0  0  0  0  0  0  0  0  0  0  0
   57.4009   31.4617   49.3637 H   0  0  0  0  0  0  0  0  0  0  0  0
   57.9700   32.9090   47.1030 H   0  0  0  0  0  0  0  0  0  0  0  0
   60.9807   29.8190   50.3424 H   0  0  0  0  0  0  0  0  0  0  0  0
   63.1161   31.0223   50.7879 H   0  0  0  0  0  0  0  0  0  0  0  0
   65.0600   32.8210   48.2700 H   0  0  0  0  0  0  0  0  0  0  0  0
  1  2  1  0
  2  3  1  0
  3  4  2  0
  4  5  1  0
  5  6  1  0
  6  7  1  0
  7  8  1  0
  7  9  1  0
  9 10  1  0
 10 11  2  0
 11 12  1  0
 12 13  2  0
 13 14  1  0
 14 15  2  0
 14 16  1  0
 16 17  1  0
 17 18  1  0
 18 19  2  0
 19 20  1  0
 20 21  2  0
 21 22  1  0
 22 23  2  0
 23 24  1  0
 24 25  2  0
 25 26  1  0
 13 27  1  0
  5 28  2  0
 28 29  1  0
 29 30  2  0
 30 31  1  0
 30  3  1  0
 27 10  1  0
 26 18  1  0
 25 20  1  0
  1 32  1  0
  1 33  1  0
  1 34  1  0
  4 35  1  0
  6 36  1  0
  6 37  1  0
  8 38  1  0
  8 39  1  0
  8 40  1  0
  9 41  1  0
  9 42  1  0
 17 43  1  0
 17 44  1  0
 19 45  1  0
 21 46  1  0
 22 47  1  0
 23 48  1  0
 24 49  1  0
 26 50  1  0
 28 51  1  0
 29 52  1  0
 31 53  1  0
M  CHG  1  16  -1
M  END
>  <UniqueID>  (71) 
67

>  <SMILES>  (71) 
COc1cc(CN(C)Cc2nnc(C(=O)[N-]Cc3cc4ccccc4[nH]3)o2)ccc1O

>  <Energy>  (71) 
118.3477162037978

>  <Genealogy>  (71) 
COc1cc(CN(C)Cc2nnc(C(=O)[N-]Cc3cc4ccccc4[nH]3)o2)ccc1O (protonated)
COc1cc(CN(C)Cc2nnc(C(=O)[N-]Cc3cc4ccccc4[nH]3)o2)ccc1O (3D coordinates assigned)
COc1cc(CN(C)Cc2nnc(C(=O)[N-]Cc3cc4ccccc4[nH]3)o2)ccc1O (optimized conformer: 118.3477162037978 kcal/mol)

>  <smiles>  (71) 
COc1cc(CN(C)Cc2nnc(C(=O)NCc3cc4ccccc4[nH]3)o2)ccc1O

>  <score_type>  (71) 
oracle

>  <origin>  (71) 
adg

>  <m_score__min__energy>  (71) 
-10.15

>  <m_primary>  (71) 
energy

$$$$
72:0
     RDKit          3D

 53 56  0  0  0  0  0  0  0  0999 V2000
   52.1279   21.9351   47.9253 H   0  0  0  0  0  0  0  0  0  0  0  0
   53.0020   22.2970   47.3640 C   0  0  0  0  0  0  0  0  0  0  0  0
   54.2110   22.5180   48.0280 C   0  0  0  0  0  0  0  0  0  0  0  0
   54.2858   22.3191   49.1073 H   0  0  0  0  0  0  0  0  0  0  0  0
   55.3330   22.9930   47.3260 C   0  0  0  0  0  0  0  0  0  0  0  0
   56.6220   23.2210   48.0210 C   0  0  0  0  0  0  0  0  0  0  0  0
   57.1270   22.2860   48.7000 O   0  0  0  0  0  0  0  0  0  0  0  0
   57.2960   24.4890   47.9940 N   0  0  0  0  0  0  0  0  0  0  0  0
   57.1150   25.4210   47.1070 C   0  0  0  0  0  0  0  0  0  0  0  0
   55.9080   25.9120   46.7500 N   0  0  0  0  0  0  0  0  0  0  0  0
   55.9870   26.8420   45.7990 N   0  0  0  0  0  0  0  0  0  0  0  0
   57.2520   27.0820   45.3820 C   0  0  0  0  0  0  0  0  0  0  0  0
   57.5820   28.1050   44.3750 C   0  0  0  0  0  0  0  0  0  0  0  0
   57.7600   27.7440   43.1800 O   0  0  0  0  0  0  0  0  0  0  0  0
   57.6950   29.4990   44.7140 N   0  0  0  0  0  0  0  0  0  0  0  0
   57.0960   30.5200   43.8520 C   0  0  0  0  0  0  0  0  0  0  0  0
   56.7836   30.0630   42.9014 H   0  0  0  0  0  0  0  0  0  0  0  0
   56.2171   30.9567   44.3489 H   0  0  0  0  0  0  0  0  0  0  0  0
   58.1310   31.6120   43.5800 C   0  0  0  0  0  0  0  0  0  0  0  0
   58.9663   31.1782   43.0107 H   0  0  0  0  0  0  0  0  0  0  0  0
   57.6416   32.4152   43.0095 H   0  0  0  0  0  0  0  0  0  0  0  0
   58.6560   32.1910   44.8370 N   0  0  0  0  0  0  0  0  0  0  0  0
   57.7160   33.0230   45.6540 C   0  0  0  0  0  0  0  0  0  0  0  0
   56.7231   32.6511   45.3609 H   0  0  0  0  0  0  0  0  0  0  0  0
   58.0930   32.9000   47.1350 C   0  0  0  0  0  0  0  0  0  0  0  0
   57.2066   33.0522   47.7684 H   0  0  0  0  0  0  0  0  0  0  0  0
   58.4931   31.9018   47.3661 H   0  0  0  0  0  0  0  0  0  0  0  0
   59.1280   33.9910   47.4010 C   0  0  0  0  0  0  0  0  0  0  0  0
   58.9187   34.4867   48.3604 H   0  0  0  0  0  0  0  0  0  0  0  0
   60.1425   33.5695   47.4579 H   0  0  0  0  0  0  0  0  0  0  0  0
   59.0120   34.9920   46.2550 C   0  0  0  0  0  0  0  0  0  0  0  0
   58.8464   36.0063   46.6470 H   0  0  0  0  0  0  0  0  0  0  0  0
   59.9305   35.0255   45.6507 H   0  0  0  0  0  0  0  0  0  0  0  0
   57.8170   34.5400   45.4340 C   0  0  0  0  0  0  0  0  0  0  0  0
   56.9010   35.0404   45.7812 H   0  0  0  0  0  0  0  0  0  0  0  0
   57.9359   34.7903   44.3695 H   0  0  0  0  0  0  0  0  0  0  0  0
   59.3060   31.1280   45.6450 C   0  0  0  0  0  0  0  0  0  0  0  0
   60.1842   30.7581   45.0956 H   0  0  0  0  0  0  0  0  0  0  0  0
   59.5832   31.5736   46.6117 H   0  0  0  0  0  0  0  0  0  0  0  0
   58.3730   29.9370   45.9380 C   0  0  0  0  0  0  0  0  0  0  0  0
   58.9668   29.1031   46.3404 H   0  0  0  0  0  0  0  0  0  0  0  0
   57.6147   30.2523   46.6699 H   0  0  0  0  0  0  0  0  0  0  0  0
   58.3600   26.1250   46.2260 S   0  0  0  0  0  0  0  0  0  0  0  0
   55.2290   23.2110   45.9420 C   0  0  0  0  0  0  0  0  0  0  0  0
   56.1055   23.5592   45.3759 H   0  0  0  0  0  0  0  0  0  0  0  0
   54.0180   22.9880   45.2800 C   0  0  0  0  0  0  0  0  0  0  0  0
   53.9474   23.1708   44.1976 H   0  0  0  0  0  0  0  0  0  0  0  0
   52.8960   22.5350   45.9800 C   0  0  0  0  0  0  0  0  0  0  0  0
   51.7030   22.3320   45.2700 O   0  0  0  0  0  0  0  0  0  0  0  0
   50.7140   23.3350   45.0590 C   0  0  0  0  0  0  0  0  0  0  0  0
   50.3515   23.7026   46.0303 H   0  0  0  0  0  0  0  0  0  0  0  0
   51.1529   24.1691   44.4919 H   0  0  0  0  0  0  0  0  0  0  0  0
   49.8738   22.9079   44.4919 H   0  0  0  0  0  0  0  0  0  0  0  0
  1  2  1  0
  2  3  2  0
  3  4  1  0
  3  5  1  0
  5  6  1  0
  6  7  2  0
  6  8  1  0
  8  9  2  0
  9 10  1  0
 10 11  1  0
 11 12  2  0
 12 13  1  0
 13 14  2  0
 13 15  1  0
 15 16  1  0
 16 17  1  0
 16 18  1  0
 16 19  1  0
 19 20  1  0
 19 21  1  0
 19 22  1  0
 22 23  1  0
 23 24  1  0
 23 25  1  0
 25 26  1  0
 25 27  1  0
 25 28  1  0
 28 29  1  0
 28 30  1  0
 28 31  1  0
 31 32  1  0
 31 33  1  0
 31 34  1  0
 34 35  1  0
 34 36  1  0
 22 37  1  0
 37 38  1  0
 37 39  1  0
 37 40  1  0
 40 41  1  0
 40 42  1  0
 12 43  1  0
  5 44  2  0
 44 45  1  0
 44 46  1  0
 46 47  1  0
 46 48  2  0
 48 49  1  0
 49 50  1  0
 50 51  1  0
 50 52  1  0
 50 53  1  0
 48  2  1  0
 43  9  1  0
 40 15  1  0
 34 23  1  0
M  CHG  1  10  -1
M  END
>  <UniqueID>  (72) 
68

>  <SMILES>  (72) 
COc1ccc(C(=O)/N=c2\[n-]nc(C(=O)N3CCN(C4CCCC4)CC3)s2)cc1

>  <Energy>  (72) 
111.74314094655945

>  <Genealogy>  (72) 
COc1ccc(C(=O)N=c2[n-]nc(C(=O)N3CCN(C4CCCC4)CC3)s2)cc1 (protonated)
COc1ccc(C(=O)/N=c2\[n-]nc(C(=O)N3CCN(C4CCCC4)CC3)s2)cc1 (cis-trans isomerization)
COc1ccc(C(=O)/N=c2\[n-]nc(C(=O)N3CCN(C4CCCC4)CC3)s2)cc1 (3D coordinates assigned)
COc1ccc(C(=O)/N=c2\[n-]nc(C(=O)N3CCN(C4CCCC4)CC3)s2)cc1 (nonaromatic ring conformer: 111.74314094655945 kcal/mol)

>  <smiles>  (72) 
COc1ccc(C(=O)N=c2[nH]nc(C(=O)N3CCN(C4CCCC4)CC3)s2)cc1

>  <score_type>  (72) 
oracle

>  <origin>  (72) 
adg

>  <m_score__min__energy>  (72) 
-10.49

>  <m_primary>  (72) 
energy

$$$$
73:0
     RDKit          3D

 45 48  0  0  0  0  0  0  0  0999 V2000
   55.7210   29.8330   43.0000 C   0  0  0  0  0  0  0  0  0  0  0  0
   56.5690   29.6700   44.0180 C   0  0  0  0  0  0  0  0  0  0  0  0
   56.6210   28.5460   44.7620 N   0  0  0  0  0  0  0  0  0  0  0  0
   57.6060   28.7280   45.6730 C   0  0  0  0  0  0  0  0  0  0  0  0
   58.0050   27.8450   46.6060 C   0  0  0  0  0  0  0  0  0  0  0  0
   57.4220   26.5070   46.8550 C   0  0  0  0  0  0  0  0  0  0  0  0
   58.0550   25.4520   47.3960 N   0  0  0  0  0  0  0  0  0  0  0  0
   57.1120   24.4860   47.4070 C   0  0  0  0  0  0  0  0  0  0  0  0
   57.3300   23.3290   47.8520 O   0  0  0  0  0  0  0  0  0  0  0  0
   55.9160   24.8580   46.9060 N   0  0  0  0  0  0  0  0  0  0  0  0
   56.1300   26.1390   46.5620 C   0  0  0  0  0  0  0  0  0  0  0  0
   55.1610   26.9540   45.9900 O   0  0  0  0  0  0  0  0  0  0  0  0
   58.1810   29.9780   45.5090 C   0  0  0  0  0  0  0  0  0  0  0  0
   57.5150   30.5850   44.4620 C   0  0  0  0  0  0  0  0  0  0  0  0
   57.8800   31.9120   43.8590 C   0  0  0  0  0  0  0  0  0  0  0  0
   58.2850   32.8630   44.9400 C   0  0  0  0  0  0  0  0  0  0  0  0
   59.2650   33.8460   44.8360 C   0  0  0  0  0  0  0  0  0  0  0  0
   59.5510   34.4860   45.9980 N   0  0  0  0  0  0  0  0  0  0  0  0
   58.8170   34.0060   47.0260 C   0  0  0  0  0  0  0  0  0  0  0  0
   58.8990   34.4300   48.2510 N   0  0  0  0  0  0  0  0  0  0  0  0
   59.5180   33.7600   49.3620 C   0  0  0  0  0  0  0  0  0  0  0  0
   59.3540   34.2350   50.5170 O   0  0  0  0  0  0  0  0  0  0  0  0
   60.2780   32.4640   49.2160 C   0  0  0  0  0  0  0  0  0  0  0  0
   61.5200   32.6400   48.3760 C   0  0  0  0  0  0  0  0  0  0  0  0
   62.5440   31.6800   48.4180 C   0  0  0  0  0  0  0  0  0  0  0  0
   63.6750   31.8460   47.6190 C   0  0  0  0  0  0  0  0  0  0  0  0
   63.7840   32.9650   46.7930 C   0  0  0  0  0  0  0  0  0  0  0  0
   62.7580   33.9120   46.7870 C   0  0  0  0  0  0  0  0  0  0  0  0
   61.6620   33.7410   47.5770 N   0  0  0  0  0  0  0  0  0  0  0  0
   57.7720   32.7830   46.5420 S   0  0  0  0  0  0  0  0  0  0  0  0
   55.7230   30.7723   42.4275 H   0  0  0  0  0  0  0  0  0  0  0  0
   55.0202   29.0280   42.7336 H   0  0  0  0  0  0  0  0  0  0  0  0
   56.0120   27.7120   44.6230 H   0  0  0  0  0  0  0  0  0  0  0  0
   58.8468   28.1465   47.2467 H   0  0  0  0  0  0  0  0  0  0  0  0
   59.0068   30.4039   46.0978 H   0  0  0  0  0  0  0  0  0  0  0  0
   58.7170   31.7772   43.1581 H   0  0  0  0  0  0  0  0  0  0  0  0
   57.0106   32.3196   43.3223 H   0  0  0  0  0  0  0  0  0  0  0  0
   59.7677   34.0851   43.8873 H   0  0  0  0  0  0  0  0  0  0  0  0
   60.5700   32.1069   50.2146 H   0  0  0  0  0  0  0  0  0  0  0  0
   59.6236   31.7359   48.7144 H   0  0  0  0  0  0  0  0  0  0  0  0
   62.4547   30.8033   49.0764 H   0  0  0  0  0  0  0  0  0  0  0  0
   64.4795   31.0961   47.6401 H   0  0  0  0  0  0  0  0  0  0  0  0
   64.6687   33.0998   46.1534 H   0  0  0  0  0  0  0  0  0  0  0  0
   62.8353   34.7995   46.1417 H   0  0  0  0  0  0  0  0  0  0  0  0
   60.9190   34.4750   47.5580 H   0  0  0  0  0  0  0  0  0  0  0  0
  1  2  2  0
  2  3  1  0
  3  4  1  0
  4  5  2  3
  5  6  1  0
  6  7  1  0
  7  8  1  0
  8  9  2  0
  8 10  1  0
 10 11  1  0
 11 12  1  0
  4 13  1  0
 13 14  2  0
 14 15  1  0
 15 16  1  0
 16 17  2  0
 17 18  1  0
 18 19  1  0
 19 20  2  3
 20 21  1  0
 21 22  2  0
 21 23  1  0
 23 24  1  0
 24 25  2  0
 25 26  1  0
 26 27  2  0
 27 28  1  0
 28 29  2  0
 19 30  1  0
 14  2  1  0
 30 16  1  0
 11  6  2  0
 29 24  1  0
  1 31  1  0
  1 32  1  0
  3 33  1  0
  5 34  1  0
 13 35  1  0
 15 36  1  0
 15 37  1  0
 17 38  1  0
 23 39  1  0
 23 40  1  0
 25 41  1  0
 26 42  1  0
 27 43  1  0
 28 44  1  0
 29 45  1  0
M  CHG  5   7  -1  10  -1  12  -1  18  -1  29   1
M  END
>  <UniqueID>  (73) 
69

>  <SMILES>  (73) 
C=c1[nH]c(=Cc2[n-]c(=O)[n-]c2[O-])cc1Cc1c[n-]c(=NC(=O)Cc2cccc[nH+]2)s1

>  <Energy>  (73) 
138.49923934602575

>  <Genealogy>  (73) 
C=c1[nH]c(=Cc2[n-]c(=O)[n-]c2[O-])cc1Cc1c[n-]c(=NC(=O)Cc2cccc[nH+]2)s1 (protonated)
C=c1[nH]c(=Cc2[n-]c(=O)[n-]c2[O-])cc1Cc1c[n-]c(=NC(=O)Cc2cccc[nH+]2)s1 (3D coordinates assigned)
C=c1[nH]c(=Cc2[n-]c(=O)[n-]c2[O-])cc1Cc1c[n-]c(=NC(=O)Cc2cccc[nH+]2)s1 (optimized conformer: 138.49923934602575 kcal/mol)

>  <smiles>  (73) 
C=c1[nH]c(=Cc2[nH]c(=O)[nH]c2O)cc1Cc1c[nH]c(=NC(=O)Cc2ccccn2)s1

>  <score_type>  (73) 
oracle

>  <origin>  (73) 
adg

>  <m_score__min__energy>  (73) 
-17.140000000000001

>  <m_primary>  (73) 
energy

$$$$
74:0
     RDKit          3D

 41 43  0  0  0  0  0  0  0  0999 V2000
   61.8870   30.9520   48.2240 C   0  0  0  0  0  0  0  0  0  0  0  0
   60.6480   30.7840   49.0700 C   0  0  0  0  0  0  0  0  0  0  0  0
   60.1860   31.8580   49.8660 C   0  0  0  0  0  0  0  0  0  0  0  0
   60.9670   33.4370   49.8410 Cl  0  0  0  0  0  0  0  0  0  0  0  0
   59.0800   31.6860   50.7040 C   0  0  0  0  0  0  0  0  0  0  0  0
   58.4210   30.4600   50.7600 C   0  0  0  0  0  0  0  0  0  0  0  0
   58.8440   29.4020   49.9570 C   0  0  0  0  0  0  0  0  0  0  0  0
   59.9290   29.5610   49.0850 C   0  0  0  0  0  0  0  0  0  0  0  0
   60.2930   28.4520   48.2540 N   0  0  0  0  0  0  0  0  0  0  0  0
   59.4890   27.9600   47.1770 C   0  0  0  0  0  0  0  0  0  0  0  0
   59.5210   26.7330   46.8810 O   0  0  0  0  0  0  0  0  0  0  0  0
   58.6110   28.8830   46.4140 C   0  0  0  0  0  0  0  0  0  0  0  0
   58.9410   30.1940   46.3900 C   0  0  0  0  0  0  0  0  0  0  0  0
   58.1990   31.2720   45.6730 C   0  0  0  0  0  0  0  0  0  0  0  0
   58.6180   32.6870   45.8360 C   0  0  0  0  0  0  0  0  0  0  0  0
   58.7800   33.2530   47.1160 C   0  0  0  0  0  0  0  0  0  0  0  0
   59.1670   34.5900   47.2570 C   0  0  0  0  0  0  0  0  0  0  0  0
   59.3920   35.3770   46.1250 C   0  0  0  0  0  0  0  0  0  0  0  0
   59.2250   34.8310   44.8510 C   0  0  0  0  0  0  0  0  0  0  0  0
   58.8370   33.4960   44.7040 C   0  0  0  0  0  0  0  0  0  0  0  0
   57.2100   31.0130   44.8730 N   0  0  0  0  0  0  0  0  0  0  0  0
   56.6320   29.4180   44.6010 S   0  0  0  0  0  0  0  0  0  0  0  0
   56.9390   28.9930   43.1930 O   0  0  0  0  0  0  0  0  0  0  0  0
   55.1500   29.3830   44.8490 O   0  0  0  0  0  0  0  0  0  0  0  0
   57.4460   28.3840   45.7190 N   0  0  0  0  0  0  0  0  0  0  0  0
   56.8780   27.0610   45.9920 C   0  0  0  0  0  0  0  0  0  0  0  0
   62.7638   31.0709   48.8775 H   0  0  0  0  0  0  0  0  0  0  0  0
   62.0207   30.0638   47.5890 H   0  0  0  0  0  0  0  0  0  0  0  0
   61.7793   31.8438   47.5890 H   0  0  0  0  0  0  0  0  0  0  0  0
   58.7280   32.5243   51.3231 H   0  0  0  0  0  0  0  0  0  0  0  0
   57.5657   30.3266   51.4388 H   0  0  0  0  0  0  0  0  0  0  0  0
   58.3221   28.4351   50.0084 H   0  0  0  0  0  0  0  0  0  0  0  0
   59.8389   30.4934   46.9505 H   0  0  0  0  0  0  0  0  0  0  0  0
   58.6009   32.6392   48.0111 H   0  0  0  0  0  0  0  0  0  0  0  0
   59.2943   35.0221   48.2605 H   0  0  0  0  0  0  0  0  0  0  0  0
   59.7007   36.4268   46.2374 H   0  0  0  0  0  0  0  0  0  0  0  0
   59.3992   35.4529   43.9605 H   0  0  0  0  0  0  0  0  0  0  0  0
   58.7018   33.0744   43.6971 H   0  0  0  0  0  0  0  0  0  0  0  0
   56.8121   26.9075   47.0792 H   0  0  0  0  0  0  0  0  0  0  0  0
   55.8725   26.9955   45.5508 H   0  0  0  0  0  0  0  0  0  0  0  0
   57.5231   26.2869   45.5508 H   0  0  0  0  0  0  0  0  0  0  0  0
  1  2  1  0
  2  3  2  0
  3  4  1  0
  3  5  1  0
  5  6  2  0
  6  7  1  0
  7  8  2  0
  8  9  1  0
  9 10  1  0
 10 11  2  0
 10 12  1  0
 12 13  2  0
 13 14  1  0
 14 15  1  0
 15 16  2  0
 16 17  1  0
 17 18  2  0
 18 19  1  0
 19 20  2  0
 14 21  2  0
 21 22  1  0
 22 23  2  0
 22 24  2  0
 22 25  1  0
 25 26  1  0
  8  2  1  0
 25 12  1  0
 20 15  1  0
  1 27  1  0
  1 28  1  0
  1 29  1  0
  5 30  1  0
  6 31  1  0
  7 32  1  0
 13 33  1  0
 16 34  1  0
 17 35  1  0
 18 36  1  0
 19 37  1  0
 20 38  1  0
 26 39  1  0
 26 40  1  0
 26 41  1  0
M  CHG  1   9  -1
M  END
>  <UniqueID>  (74) 
70

>  <SMILES>  (74) 
Cc1c(Cl)cccc1[N-]C(=O)C1=CC(c2ccccc2)=NS(=O)(=O)N1C

>  <Energy>  (74) 
63.88439730978669

>  <Genealogy>  (74) 
Cc1c(Cl)cccc1[N-]C(=O)C1=CC(c2ccccc2)=NS(=O)(=O)N1C (protonated)
Cc1c(Cl)cccc1[N-]C(=O)C1=CC(c2ccccc2)=NS(=O)(=O)N1C (3D coordinates assigned)
Cc1c(Cl)cccc1[N-]C(=O)C1=CC(c2ccccc2)=NS(=O)(=O)N1C (nonaromatic ring conformer: 63.88439730978669 kcal/mol)

>  <smiles>  (74) 
Cc1c(Cl)cccc1NC(=O)C1=CC(c2ccccc2)=NS(=O)(=O)N1C

>  <score_type>  (74) 
oracle

>  <origin>  (74) 
adg

>  <m_score__min__energy>  (74) 
-10.210000000000001

>  <m_primary>  (74) 
energy

$$$$
75:0
     RDKit          3D

 42 44  0  0  0  0  0  0  0  0999 V2000
   60.6480   33.4410   47.9290 C   0  0  0  0  0  0  0  0  0  0  0  0
   59.7620   32.7080   48.9100 C   0  0  0  0  0  0  0  0  0  0  0  0
   59.3590   33.3880   50.0650 C   0  0  0  0  0  0  0  0  0  0  0  0
   58.5400   32.7610   50.9920 C   0  0  0  0  0  0  0  0  0  0  0  0
   58.1040   31.4500   50.7820 C   0  0  0  0  0  0  0  0  0  0  0  0
   57.2250   30.8200   51.8090 C   0  0  0  0  0  0  0  0  0  0  0  0
   57.6950   29.9150   52.5510 O   0  0  0  0  0  0  0  0  0  0  0  0
   55.7900   31.2140   52.0020 C   0  0  0  0  0  0  0  0  0  0  0  0
   54.9470   30.1390   51.5990 O   0  0  0  0  0  0  0  0  0  0  0  0
   53.6220   30.0190   52.0230 C   0  0  0  0  0  0  0  0  0  0  0  0
   53.2870   29.1130   52.8350 O   0  0  0  0  0  0  0  0  0  0  0  0
   52.6120   30.9570   51.5220 C   0  0  0  0  0  0  0  0  0  0  0  0
   52.0140   31.9640   52.2460 C   0  0  0  0  0  0  0  0  0  0  0  0
   51.1390   32.6100   51.4560 N   0  0  0  0  0  0  0  0  0  0  0  0
   51.2420   31.9640   50.2770 C   0  0  0  0  0  0  0  0  0  0  0  0
   50.5660   32.2850   49.2660 O   0  0  0  0  0  0  0  0  0  0  0  0
   52.1270   30.9470   50.2680 N   0  0  0  0  0  0  0  0  0  0  0  0
   58.5370   30.7770   49.6160 C   0  0  0  0  0  0  0  0  0  0  0  0
   58.1940   29.5770   49.4310 O   0  0  0  0  0  0  0  0  0  0  0  0
   59.3470   31.4090   48.6940 N   0  0  0  0  0  0  0  0  0  0  0  0
   59.7900   30.6690   47.4880 C   0  0  0  0  0  0  0  0  0  0  0  0
   58.6270   30.3420   46.5820 C   0  0  0  0  0  0  0  0  0  0  0  0
   58.0970   29.0390   46.5540 C   0  0  0  0  0  0  0  0  0  0  0  0
   57.0350   28.7270   45.7000 C   0  0  0  0  0  0  0  0  0  0  0  0
   56.5010   29.7050   44.8580 C   0  0  0  0  0  0  0  0  0  0  0  0
   55.4450   29.3930   44.0100 O   0  0  0  0  0  0  0  0  0  0  0  0
   57.0310   30.9980   44.8650 C   0  0  0  0  0  0  0  0  0  0  0  0
   58.0940   31.3150   45.7180 C   0  0  0  0  0  0  0  0  0  0  0  0
   61.3815   34.0479   48.4800 H   0  0  0  0  0  0  0  0  0  0  0  0
   61.1761   32.7123   47.2965 H   0  0  0  0  0  0  0  0  0  0  0  0
   60.0311   34.0963   47.2965 H   0  0  0  0  0  0  0  0  0  0  0  0
   59.6926   34.4219   50.2378 H   0  0  0  0  0  0  0  0  0  0  0  0
   58.2311   33.2999   51.8998 H   0  0  0  0  0  0  0  0  0  0  0  0
   55.6115   31.4427   53.0631 H   0  0  0  0  0  0  0  0  0  0  0  0
   55.5678   32.1035   51.3942 H   0  0  0  0  0  0  0  0  0  0  0  0
   52.2191   32.2015   53.3003 H   0  0  0  0  0  0  0  0  0  0  0  0
   60.5119   31.2872   46.9342 H   0  0  0  0  0  0  0  0  0  0  0  0
   60.2515   29.7246   47.8123 H   0  0  0  0  0  0  0  0  0  0  0  0
   58.5203   28.2619   47.2073 H   0  0  0  0  0  0  0  0  0  0  0  0
   56.6190   27.7087   45.6912 H   0  0  0  0  0  0  0  0  0  0  0  0
   56.6122   31.7672   44.1994 H   0  0  0  0  0  0  0  0  0  0  0  0
   58.5151   32.3312   45.7126 H   0  0  0  0  0  0  0  0  0  0  0  0
  1  2  1  0
  2  3  2  0
  3  4  1  0
  4  5  2  0
  5  6  1  0
  6  7  2  0
  6  8  1  0
  8  9  1  0
  9 10  1  0
 10 11  2  0
 10 12  1  0
 12 13  2  0
 13 14  1  0
 14 15  1  0
 15 16  2  0
 15 17  1  0
  5 18  1  0
 18 19  2  0
 18 20  1  0
 20 21  1  0
 21 22  1  0
 22 23  2  0
 23 24  1  0
 24 25  2  0
 25 26  1  0
 25 27  1  0
 27 28  2  0
 20  2  1  0
 28 22  1  0
 17 12  1  0
  1 29  1  0
  1 30  1  0
  1 31  1  0
  3 32  1  0
  4 33  1  0
  8 34  1  0
  8 35  1  0
 13 36  1  0
 21 37  1  0
 21 38  1  0
 23 39  1  0
 24 40  1  0
 27 41  1  0
 28 42  1  0
M  CHG  3  14  -1  17  -1  26  -1
M  END
>  <UniqueID>  (75) 
71

>  <SMILES>  (75) 
Cc1ccc(C(=O)COC(=O)c2c[n-]c(=O)[n-]2)c(=O)n1Cc1ccc([O-])cc1

>  <Energy>  (75) 
78.52782078476477

>  <Genealogy>  (75) 
Cc1ccc(C(=O)COC(=O)c2c[n-]c(=O)[n-]2)c(=O)n1Cc1ccc([O-])cc1 (protonated)
Cc1ccc(C(=O)COC(=O)c2c[n-]c(=O)[n-]2)c(=O)n1Cc1ccc([O-])cc1 (3D coordinates assigned)
Cc1ccc(C(=O)COC(=O)c2c[n-]c(=O)[n-]2)c(=O)n1Cc1ccc([O-])cc1 (optimized conformer: 78.52782078476477 kcal/mol)

>  <smiles>  (75) 
Cc1ccc(C(=O)COC(=O)c2c[nH]c(=O)[nH]2)c(=O)n1Cc1ccc(O)cc1

>  <score_type>  (75) 
oracle

>  <origin>  (75) 
adg

>  <m_score__min__energy>  (75) 
-14.74

>  <m_primary>  (75) 
energy

$$$$
76:0
     RDKit          3D

 49 52  0  0  0  0  0  0  0  0999 V2000
   56.6400   32.2460   39.6360 H   0  0  0  0  0  0  0  0  0  0  0  0
   57.0090   32.7670   40.4230 O   0  0  0  0  0  0  0  0  0  0  0  0
   57.3060   32.1440   41.6340 C   0  0  0  0  0  0  0  0  0  0  0  0
   56.6820   30.9360   41.9590 C   0  0  0  0  0  0  0  0  0  0  0  0
   55.9620   30.4851   41.2603 H   0  0  0  0  0  0  0  0  0  0  0  0
   56.9710   30.2990   43.1710 C   0  0  0  0  0  0  0  0  0  0  0  0
   56.4700   29.3535   43.4260 H   0  0  0  0  0  0  0  0  0  0  0  0
   57.8980   30.8620   44.0630 C   0  0  0  0  0  0  0  0  0  0  0  0
   58.1920   30.2080   45.3580 C   0  0  0  0  0  0  0  0  0  0  0  0
   58.2190   28.8600   45.4650 C   0  0  0  0  0  0  0  0  0  0  0  0
   57.0670   27.9450   45.4370 C   0  0  0  0  0  0  0  0  0  0  0  0
   55.8690   28.2830   45.2500 O   0  0  0  0  0  0  0  0  0  0  0  0
   57.5440   26.5880   45.6700 C   0  0  0  0  0  0  0  0  0  0  0  0
   56.8490   25.3610   45.7860 C   0  0  0  0  0  0  0  0  0  0  0  0
   55.3950   25.2230   45.5560 C   0  0  0  0  0  0  0  0  0  0  0  0
   55.0215   24.3535   44.9952 H   0  0  0  0  0  0  0  0  0  0  0  0
   54.5740   26.0740   45.9850 O   0  0  0  0  0  0  0  0  0  0  0  0
   57.6020   24.2120   46.1290 C   0  0  0  0  0  0  0  0  0  0  0  0
   56.9790   22.9760   46.2710 O   0  0  0  0  0  0  0  0  0  0  0  0
   58.9910   24.2970   46.3190 C   0  0  0  0  0  0  0  0  0  0  0  0
   59.5611   23.3944   46.5842 H   0  0  0  0  0  0  0  0  0  0  0  0
   59.6560   25.5190   46.1740 C   0  0  0  0  0  0  0  0  0  0  0  0
   60.7457   25.5825   46.3104 H   0  0  0  0  0  0  0  0  0  0  0  0
   58.9150   26.6540   45.8540 C   0  0  0  0  0  0  0  0  0  0  0  0
   59.4620   28.0390   45.6970 C   0  0  0  0  0  0  0  0  0  0  0  0
   60.1449   28.1009   44.8369 H   0  0  0  0  0  0  0  0  0  0  0  0
   60.0536   28.3760   46.5610 H   0  0  0  0  0  0  0  0  0  0  0  0
   58.4990   31.0920   46.5040 C   0  0  0  0  0  0  0  0  0  0  0  0
   57.9780   32.3940   46.5600 C   0  0  0  0  0  0  0  0  0  0  0  0
   57.3603   32.7723   45.7322 H   0  0  0  0  0  0  0  0  0  0  0  0
   58.2400   33.2120   47.6620 C   0  0  0  0  0  0  0  0  0  0  0  0
   57.8400   34.2363   47.6910 H   0  0  0  0  0  0  0  0  0  0  0  0
   59.0140   32.7310   48.7360 C   0  0  0  0  0  0  0  0  0  0  0  0
   59.3120   33.5060   49.8680 O   0  0  0  0  0  0  0  0  0  0  0  0
   60.6220   33.8600   50.3110 C   0  0  0  0  0  0  0  0  0  0  0  0
   61.0608   33.0104   50.8548 H   0  0  0  0  0  0  0  0  0  0  0  0
   60.5465   34.7379   50.9694 H   0  0  0  0  0  0  0  0  0  0  0  0
   61.5170   34.2120   49.1270 C   0  0  0  0  0  0  0  0  0  0  0  0
   62.4813   34.5912   49.4963 H   0  0  0  0  0  0  0  0  0  0  0  0
   61.6863   33.3135   48.5155 H   0  0  0  0  0  0  0  0  0  0  0  0
   61.0288   34.9851   48.5155 H   0  0  0  0  0  0  0  0  0  0  0  0
   59.5180   31.4250   48.6800 C   0  0  0  0  0  0  0  0  0  0  0  0
   60.1249   31.0397   49.5126 H   0  0  0  0  0  0  0  0  0  0  0  0
   59.2580   30.6070   47.5780 C   0  0  0  0  0  0  0  0  0  0  0  0
   59.6499   29.5795   47.5529 H   0  0  0  0  0  0  0  0  0  0  0  0
   58.5110   32.0840   43.7390 C   0  0  0  0  0  0  0  0  0  0  0  0
   59.2228   32.5429   44.4410 H   0  0  0  0  0  0  0  0  0  0  0  0
   58.2200   32.7190   42.5280 C   0  0  0  0  0  0  0  0  0  0  0  0
   58.7091   33.6716   42.2762 H   0  0  0  0  0  0  0  0  0  0  0  0
  1  2  1  0
  2  3  1  0
  3  4  2  0
  4  5  1  0
  4  6  1  0
  6  7  1  0
  6  8  2  0
  8  9  1  0
  9 10  2  0
 10 11  1  0
 11 12  2  0
 11 13  1  0
 13 14  2  0
 14 15  1  0
 15 16  1  0
 15 17  2  0
 14 18  1  0
 18 19  1  0
 18 20  2  0
 20 21  1  0
 20 22  1  0
 22 23  1  0
 22 24  2  0
 24 25  1  0
 25 26  1  0
 25 27  1  0
  9 28  1  0
 28 29  2  0
 29 30  1  0
 29 31  1  0
 31 32  1  0
 31 33  2  0
 33 34  1  0
 34 35  1  0
 35 36  1  0
 35 37  1  0
 35 38  1  0
 38 39  1  0
 38 40  1  0
 38 41  1  0
 33 42  1  0
 42 43  1  0
 42 44  2  0
 44 45  1  0
  8 46  1  0
 46 47  1  0
 46 48  2  0
 48 49  1  0
 48  3  1  0
 25 10  1  0
 44 28  1  0
 24 13  1  0
M  CHG  1  19  -1
M  END
>  <UniqueID>  (76) 
72

>  <SMILES>  (76) 
CCOc1ccc(/C(=C2/Cc3ccc([O-])c(C=O)c3C2=O)c2ccc(O)cc2)cc1

>  <Energy>  (76) 
89.19222197076004

>  <Genealogy>  (76) 
CCOc1ccc(C(=C2Cc3ccc([O-])c(C=O)c3C2=O)c2ccc(O)cc2)cc1 (protonated)
CCOc1ccc(/C(=C2/Cc3ccc([O-])c(C=O)c3C2=O)c2ccc(O)cc2)cc1 (cis-trans isomerization)
CCOc1ccc(/C(=C2/Cc3ccc([O-])c(C=O)c3C2=O)c2ccc(O)cc2)cc1 (3D coordinates assigned)
CCOc1ccc(/C(=C2/Cc3ccc([O-])c(C=O)c3C2=O)c2ccc(O)cc2)cc1 (nonaromatic ring conformer: 89.19222197076004 kcal/mol)

>  <smiles>  (76) 
CCOc1ccc(C(=C2Cc3ccc(O)c(C=O)c3C2=O)c2ccc(O)cc2)cc1

>  <score_type>  (76) 
oracle

>  <origin>  (76) 
adg

>  <m_score__min__energy>  (76) 
-9.7699999999999996

>  <m_primary>  (76) 
energy

$$$$
77:0
     RDKit          3D

 25 26  0  0  0  0  0  0  0  0999 V2000
   57.7460   25.2470   47.5660 C   0  0  0  0  0  0  0  0  0  0  0  0
   57.3900   25.4070   46.2860 C   0  0  0  0  0  0  0  0  0  0  0  0
   57.1440   24.2190   45.4240 C   0  0  0  0  0  0  0  0  0  0  0  0
   55.9210   24.0840   44.7390 C   0  0  0  0  0  0  0  0  0  0  0  0
   55.6900   22.9830   43.9090 C   0  0  0  0  0  0  0  0  0  0  0  0
   56.6730   22.0030   43.7500 C   0  0  0  0  0  0  0  0  0  0  0  0
   56.4280   20.9130   42.9180 O   0  0  0  0  0  0  0  0  0  0  0  0
   57.8920   22.1270   44.4260 C   0  0  0  0  0  0  0  0  0  0  0  0
   58.1310   23.2240   45.2600 C   0  0  0  0  0  0  0  0  0  0  0  0
   59.3440   23.3060   45.9350 O   0  0  0  0  0  0  0  0  0  0  0  0
   57.2100   26.7780   45.7350 C   0  0  0  0  0  0  0  0  0  0  0  0
   55.9270   27.3440   45.6230 C   0  0  0  0  0  0  0  0  0  0  0  0
   54.8020   26.6470   46.0500 O   0  0  0  0  0  0  0  0  0  0  0  0
   55.7770   28.5910   45.1080 N   0  0  0  0  0  0  0  0  0  0  0  0
   56.8490   29.3120   44.6930 C   0  0  0  0  0  0  0  0  0  0  0  0
   56.6350   30.8100   44.0790 S   0  0  0  0  0  0  0  0  0  0  0  0
   58.0970   28.7900   44.7840 N   0  0  0  0  0  0  0  0  0  0  0  0
   58.3030   27.5460   45.2890 C   0  0  0  0  0  0  0  0  0  0  0  0
   59.4760   27.0880   45.3340 O   0  0  0  0  0  0  0  0  0  0  0  0
   57.9271   26.1270   48.2006 H   0  0  0  0  0  0  0  0  0  0  0  0
   57.8575   24.2355   47.9835 H   0  0  0  0  0  0  0  0  0  0  0  0
   55.1414   24.8508   44.8579 H   0  0  0  0  0  0  0  0  0  0  0  0
   54.7307   22.8879   43.3791 H   0  0  0  0  0  0  0  0  0  0  0  0
   56.9630   20.0560   42.9970 H   0  0  0  0  0  0  0  0  0  0  0  0
   58.6672   21.3567   44.3006 H   0  0  0  0  0  0  0  0  0  0  0  0
  1  2  2  0
  2  3  1  0
  3  4  2  0
  4  5  1  0
  5  6  2  0
  6  7  1  0
  6  8  1  0
  8  9  2  0
  9 10  1  0
  2 11  1  0
 11 12  2  0
 12 13  1  0
 12 14  1  0
 14 15  1  0
 15 16  2  0
 15 17  1  0
 17 18  1  0
 18 19  2  0
  9  3  1  0
 18 11  1  0
  1 20  1  0
  1 21  1  0
  4 22  1  0
  5 23  1  0
  7 24  1  0
  8 25  1  0
M  CHG  4  10  -1  13  -1  14  -1  17  -1
M  END
>  <UniqueID>  (77) 
73

>  <SMILES>  (77) 
C=C(c1ccc(O)cc1[O-])c1c([O-])[n-]c(=S)[n-]c1=O

>  <Energy>  (77) 
38.65394114606216

>  <Genealogy>  (77) 
C=C(c1ccc(O)cc1[O-])c1c([O-])[n-]c(=S)[n-]c1=O (protonated)
C=C(c1ccc(O)cc1[O-])c1c([O-])[n-]c(=S)[n-]c1=O (3D coordinates assigned)
C=C(c1ccc(O)cc1[O-])c1c([O-])[n-]c(=S)[n-]c1=O (optimized conformer: 38.65394114606216 kcal/mol)

>  <smiles>  (77) 
C=C(c1ccc(O)cc1O)c1c(O)[nH]c(=S)[nH]c1=O

>  <score_type>  (77) 
oracle

>  <origin>  (77) 
adg

>  <m_score__min__energy>  (77) 
-15.890000000000001

>  <m_primary>  (77) 
energy

$$$$
78:0
     RDKit          3D

 45 48  0  0  0  0  0  0  0  0999 V2000
   60.7530   28.8880   48.3490 O   0  0  0  0  0  0  0  0  0  0  0  0
   60.9620   29.9380   47.6850 C   0  0  0  0  0  0  0  0  0  0  0  0
   61.7310   31.0630   48.2990 C   0  0  0  0  0  0  0  0  0  0  0  0
   61.4240   32.3150   47.6030 N   0  0  0  0  0  0  0  0  0  0  0  0
   62.2870   33.1520   46.9630 C   0  0  0  0  0  0  0  0  0  0  0  0
   63.7780   32.9790   46.9510 C   0  0  0  0  0  0  0  0  0  0  0  0
   64.3590   33.5430   48.1270 O   0  0  0  0  0  0  0  0  0  0  0  0
   64.1180   33.1110   49.4410 C   0  0  0  0  0  0  0  0  0  0  0  0
   64.7920   32.0160   50.0170 C   0  0  0  0  0  0  0  0  0  0  0  0
   64.5170   31.6320   51.3330 C   0  0  0  0  0  0  0  0  0  0  0  0
   63.5670   32.3300   52.0820 C   0  0  0  0  0  0  0  0  0  0  0  0
   62.8900   33.4130   51.5170 C   0  0  0  0  0  0  0  0  0  0  0  0
   63.1630   33.8010   50.2010 C   0  0  0  0  0  0  0  0  0  0  0  0
   62.5010   34.8570   49.6640 F   0  0  0  0  0  0  0  0  0  0  0  0
   61.6690   34.1770   46.3210 N   0  0  0  0  0  0  0  0  0  0  0  0
   60.3660   33.9510   46.5720 C   0  0  0  0  0  0  0  0  0  0  0  0
   59.2770   34.6960   46.1260 C   0  0  0  0  0  0  0  0  0  0  0  0
   57.9910   34.2530   46.4840 C   0  0  0  0  0  0  0  0  0  0  0  0
   57.8260   33.0870   47.2650 C   0  0  0  0  0  0  0  0  0  0  0  0
   58.9480   32.3560   47.6990 C   0  0  0  0  0  0  0  0  0  0  0  0
   60.2120   32.8300   47.3330 C   0  0  0  0  0  0  0  0  0  0  0  0
   60.4450   30.0830   46.3570 N   0  0  0  0  0  0  0  0  0  0  0  0
   59.1010   29.8150   45.9330 C   0  0  0  0  0  0  0  0  0  0  0  0
   58.3840   30.7100   45.1170 C   0  0  0  0  0  0  0  0  0  0  0  0
   57.0650   30.4270   44.7510 C   0  0  0  0  0  0  0  0  0  0  0  0
   56.4470   29.2590   45.2060 C   0  0  0  0  0  0  0  0  0  0  0  0
   55.1360   28.9780   44.8400 O   0  0  0  0  0  0  0  0  0  0  0  0
   57.1460   28.3770   46.0350 C   0  0  0  0  0  0  0  0  0  0  0  0
   58.4650   28.6600   46.4030 C   0  0  0  0  0  0  0  0  0  0  0  0
   61.4544   31.1579   49.3594 H   0  0  0  0  0  0  0  0  0  0  0  0
   62.8078   30.8553   48.2127 H   0  0  0  0  0  0  0  0  0  0  0  0
   64.0171   31.9061   46.9085 H   0  0  0  0  0  0  0  0  0  0  0  0
   64.1878   33.4954   46.0704 H   0  0  0  0  0  0  0  0  0  0  0  0
   65.5377   31.4609   49.4289 H   0  0  0  0  0  0  0  0  0  0  0  0
   65.0495   30.7791   51.7790 H   0  0  0  0  0  0  0  0  0  0  0  0
   63.3520   32.0266   53.1172 H   0  0  0  0  0  0  0  0  0  0  0  0
   62.1413   33.9615   52.1074 H   0  0  0  0  0  0  0  0  0  0  0  0
   59.4178   35.5997   45.5148 H   0  0  0  0  0  0  0  0  0  0  0  0
   57.1072   34.8184   46.1536 H   0  0  0  0  0  0  0  0  0  0  0  0
   56.8149   32.7486   47.5354 H   0  0  0  0  0  0  0  0  0  0  0  0
   58.8347   31.4446   48.3044 H   0  0  0  0  0  0  0  0  0  0  0  0
   58.8634   31.6357   44.7660 H   0  0  0  0  0  0  0  0  0  0  0  0
   56.5127   31.1245   44.1040 H   0  0  0  0  0  0  0  0  0  0  0  0
   56.6584   27.4602   46.3979 H   0  0  0  0  0  0  0  0  0  0  0  0
   59.0067   27.9700   47.0666 H   0  0  0  0  0  0  0  0  0  0  0  0
  1  2  2  0
  2  3  1  0
  3  4  1  0
  4  5  1  0
  5  6  1  0
  6  7  1  0
  7  8  1  0
  8  9  2  0
  9 10  1  0
 10 11  2  0
 11 12  1  0
 12 13  2  0
 13 14  1  0
  5 15  2  0
 15 16  1  0
 16 17  2  0
 17 18  1  0
 18 19  2  0
 19 20  1  0
 20 21  2  0
  2 22  1  0
 22 23  1  0
 23 24  2  0
 24 25  1  0
 25 26  2  0
 26 27  1  0
 26 28  1  0
 28 29  2  0
 21  4  1  0
 29 23  1  0
 13  8  1  0
 21 16  1  0
  3 30  1  0
  3 31  1  0
  6 32  1  0
  6 33  1  0
  9 34  1  0
 10 35  1  0
 11 36  1  0
 12 37  1  0
 17 38  1  0
 18 39  1  0
 19 40  1  0
 20 41  1  0
 24 42  1  0
 25 43  1  0
 28 44  1  0
 29 45  1  0
M  CHG  2  22  -1  27  -1
M  END
>  <UniqueID>  (78) 
74

>  <SMILES>  (78) 
O=C(Cn1c(COc2ccccc2F)nc2ccccc21)[N-]c1ccc([O-])cc1

>  <Energy>  (78) 
87.72134834722877

>  <Genealogy>  (78) 
O=C(Cn1c(COc2ccccc2F)nc2ccccc21)[N-]c1ccc([O-])cc1 (protonated)
O=C(Cn1c(COc2ccccc2F)nc2ccccc21)[N-]c1ccc([O-])cc1 (3D coordinates assigned)
O=C(Cn1c(COc2ccccc2F)nc2ccccc21)[N-]c1ccc([O-])cc1 (optimized conformer: 87.72134834722877 kcal/mol)

>  <smiles>  (78) 
O=C(Cn1c(COc2ccccc2F)nc2ccccc21)Nc1ccc(O)cc1

>  <score_type>  (78) 
oracle

>  <origin>  (78) 
adg

>  <m_score__min__energy>  (78) 
-12.08

>  <m_primary>  (78) 
energy

$$$$
79:0
     RDKit          3D

 48 51  0  0  0  0  0  0  0  0999 V2000
   51.7930   32.8330   52.3260 H   0  0  0  0  0  0  0  0  0  0  0  0
   51.2280   32.7300   51.4920 O   0  0  0  0  0  0  0  0  0  0  0  0
   51.4330   31.6950   50.5760 C   0  0  0  0  0  0  0  0  0  0  0  0
   50.8080   31.7290   49.3160 C   0  0  0  0  0  0  0  0  0  0  0  0
   49.9710   32.7840   48.9720 O   0  0  0  0  0  0  0  0  0  0  0  0
   51.0240   30.6980   48.3970 C   0  0  0  0  0  0  0  0  0  0  0  0
   50.5345   30.7289   47.4124 H   0  0  0  0  0  0  0  0  0  0  0  0
   51.8590   29.6300   48.7260 C   0  0  0  0  0  0  0  0  0  0  0  0
   52.0276   28.8211   47.9999 H   0  0  0  0  0  0  0  0  0  0  0  0
   52.4810   29.5860   49.9750 C   0  0  0  0  0  0  0  0  0  0  0  0
   53.1313   28.7365   50.2309 H   0  0  0  0  0  0  0  0  0  0  0  0
   52.2830   30.6190   50.9090 C   0  0  0  0  0  0  0  0  0  0  0  0
   52.9400   30.5460   52.2380 C   0  0  0  0  0  0  0  0  0  0  0  0
   52.4000   31.1130   53.2240 O   0  0  0  0  0  0  0  0  0  0  0  0
   54.1380   29.7830   52.4580 N   0  0  0  0  0  0  0  0  0  0  0  0
   55.3600   30.2130   52.3290 C   0  0  0  0  0  0  0  0  0  0  0  0
   56.3860   29.3530   52.0690 N   0  0  0  0  0  0  0  0  0  0  0  0
   57.6670   29.7770   51.9180 C   0  0  0  0  0  0  0  0  0  0  0  0
   58.4662   29.0491   51.7145 H   0  0  0  0  0  0  0  0  0  0  0  0
   57.9720   31.1400   52.0210 C   0  0  0  0  0  0  0  0  0  0  0  0
   59.2880   31.6020   51.8710 C   0  0  0  0  0  0  0  0  0  0  0  0
   60.0983   30.8896   51.6565 H   0  0  0  0  0  0  0  0  0  0  0  0
   59.5740   32.9720   51.9940 C   0  0  0  0  0  0  0  0  0  0  0  0
   60.9040   33.4770   51.8180 N   0  0  0  0  0  0  0  0  0  0  0  0
   61.9330   32.9090   50.9950 C   0  0  0  0  0  0  0  0  0  0  0  0
   63.1120   32.8910   51.4380 O   0  0  0  0  0  0  0  0  0  0  0  0
   61.6160   32.2210   49.6790 C   0  0  0  0  0  0  0  0  0  0  0  0
   61.0202   31.3259   49.9108 H   0  0  0  0  0  0  0  0  0  0  0  0
   62.9080   31.7570   48.9630 C   0  0  0  0  0  0  0  0  0  0  0  0
   63.7157   31.6800   49.7058 H   0  0  0  0  0  0  0  0  0  0  0  0
   62.7007   30.7848   48.4921 H   0  0  0  0  0  0  0  0  0  0  0  0
   63.3450   32.7310   47.8570 C   0  0  0  0  0  0  0  0  0  0  0  0
   64.4355   32.6660   47.7281 H   0  0  0  0  0  0  0  0  0  0  0  0
   62.8345   32.4579   46.9217 H   0  0  0  0  0  0  0  0  0  0  0  0
   62.9960   34.0560   48.1960 O   0  0  0  0  0  0  0  0  0  0  0  0
   61.5950   34.2380   48.0860 C   0  0  0  0  0  0  0  0  0  0  0  0
   61.3321   35.1974   48.5555 H   0  0  0  0  0  0  0  0  0  0  0  0
   61.3522   34.2132   47.0134 H   0  0  0  0  0  0  0  0  0  0  0  0
   60.7640   33.1200   48.7620 C   0  0  0  0  0  0  0  0  0  0  0  0
   59.9702   33.5861   49.3642 H   0  0  0  0  0  0  0  0  0  0  0  0
   60.3488   32.4853   47.9653 H   0  0  0  0  0  0  0  0  0  0  0  0
   58.5300   33.8780   52.2160 C   0  0  0  0  0  0  0  0  0  0  0  0
   58.7458   34.9551   52.2729 H   0  0  0  0  0  0  0  0  0  0  0  0
   57.2160   33.4260   52.3660 C   0  0  0  0  0  0  0  0  0  0  0  0
   56.4061   34.1458   52.5558 H   0  0  0  0  0  0  0  0  0  0  0  0
   56.9280   32.0560   52.2750 C   0  0  0  0  0  0  0  0  0  0  0  0
   55.6160   31.5860   52.4250 C   0  0  0  0  0  0  0  0  0  0  0  0
   54.7935   32.2908   52.6167 H   0  0  0  0  0  0  0  0  0  0  0  0
  1  2  1  0
  2  3  1  0
  3  4  2  0
  4  5  1  0
  4  6  1  0
  6  7  1  0
  6  8  2  0
  8  9  1  0
  8 10  1  0
 10 11  1  0
 10 12  2  0
 12 13  1  0
 13 14  2  0
 13 15  1  0
 15 16  2  0
 16 17  1  0
 17 18  1  0
 18 19  1  0
 18 20  2  0
 20 21  1  0
 21 22  1  0
 21 23  2  0
 23 24  1  0
 24 25  1  0
 25 26  2  0
 25 27  1  0
 27 28  1  0
 27 29  1  0
 29 30  1  0
 29 31  1  0
 29 32  1  0
 32 33  1  0
 32 34  1  0
 32 35  1  0
 35 36  1  0
 36 37  1  0
 36 38  1  0
 36 39  1  0
 39 40  1  0
 39 41  1  0
 23 42  1  0
 42 43  1  0
 42 44  2  0
 44 45  1  0
 44 46  1  0
 46 47  2  0
 47 48  1  0
 12  3  1  0
 47 16  1  0
 46 20  1  0
 39 27  1  0
M  CHG  3   5  -1  17  -1  24  -1
M  END
>  <UniqueID>  (79) 
75

>  <SMILES>  (79) 
O=C(/N=c1/cc2ccc([N-]C(=O)C3CCOCC3)cc2c[n-]1)c1cccc([O-])c1O

>  <Energy>  (79) 
77.85879704411907

>  <Genealogy>  (79) 
O=C(N=c1cc2ccc([N-]C(=O)C3CCOCC3)cc2c[n-]1)c1cccc([O-])c1O (protonated)
O=C(/N=c1/cc2ccc([N-]C(=O)C3CCOCC3)cc2c[n-]1)c1cccc([O-])c1O (cis-trans isomerization)
O=C(/N=c1/cc2ccc([N-]C(=O)C3CCOCC3)cc2c[n-]1)c1cccc([O-])c1O (3D coordinates assigned)
O=C(/N=c1/cc2ccc([N-]C(=O)C3CCOCC3)cc2c[n-]1)c1cccc([O-])c1O (nonaromatic ring conformer: 77.85879704411907 kcal/mol)

>  <smiles>  (79) 
O=C(N=c1cc2ccc(NC(=O)C3CCOCC3)cc2c[nH]1)c1cccc(O)c1O

>  <score_type>  (79) 
oracle

>  <origin>  (79) 
adg

>  <m_score__min__energy>  (79) 
-14.42

>  <m_primary>  (79) 
energy

$$$$
80:0
     RDKit          3D

 52 55  0  0  0  0  0  0  0  0999 V2000
   62.5400   30.1280   50.8060 C   0  0  0  0  0  0  0  0  0  0  0  0
   61.5750   29.3210   51.5730 N   0  0  0  0  0  0  0  0  0  0  0  0
   60.2750   30.0250   51.7400 C   0  0  0  0  0  0  0  0  0  0  0  0
   59.1480   29.4760   50.8450 C   0  0  0  0  0  0  0  0  0  0  0  0
   59.7010   28.9770   49.5830 N   0  0  0  0  0  0  0  0  0  0  0  0
   59.2450   29.4840   48.3140 C   0  0  0  0  0  0  0  0  0  0  0  0
   59.6050   30.7670   47.8940 C   0  0  0  0  0  0  0  0  0  0  0  0
   59.1520   31.2720   46.6740 C   0  0  0  0  0  0  0  0  0  0  0  0
   58.3130   30.5030   45.8270 C   0  0  0  0  0  0  0  0  0  0  0  0
   57.9270   29.2140   46.2780 C   0  0  0  0  0  0  0  0  0  0  0  0
   58.3960   28.7160   47.5080 C   0  0  0  0  0  0  0  0  0  0  0  0
   57.0510   28.4610   45.4870 C   0  0  0  0  0  0  0  0  0  0  0  0
   56.6720   27.3130   45.8500 O   0  0  0  0  0  0  0  0  0  0  0  0
   56.5950   28.9690   44.3180 N   0  0  0  0  0  0  0  0  0  0  0  0
   56.9760   30.1950   43.8770 C   0  0  0  0  0  0  0  0  0  0  0  0
   56.5190   30.6070   42.7740 O   0  0  0  0  0  0  0  0  0  0  0  0
   57.8420   30.9740   44.6120 N   0  0  0  0  0  0  0  0  0  0  0  0
   58.2320   32.2900   44.0510 C   0  0  0  0  0  0  0  0  0  0  0  0
   57.7470   33.4530   44.9260 C   0  0  0  0  0  0  0  0  0  0  0  0
   58.8930   34.8810   44.8930 S   0  0  0  0  0  0  0  0  0  0  0  0
   59.8060   34.4120   46.3680 C   0  0  0  0  0  0  0  0  0  0  0  0
   59.2340   34.5910   47.6340 C   0  0  0  0  0  0  0  0  0  0  0  0
   59.9400   34.2160   48.7820 C   0  0  0  0  0  0  0  0  0  0  0  0
   61.2230   33.6690   48.6680 C   0  0  0  0  0  0  0  0  0  0  0  0
   61.8030   33.5080   47.4060 C   0  0  0  0  0  0  0  0  0  0  0  0
   61.0990   33.8840   46.2590 C   0  0  0  0  0  0  0  0  0  0  0  0
   60.7630   27.9660   49.6360 C   0  0  0  0  0  0  0  0  0  0  0  0
   61.4360   27.9560   51.0190 C   0  0  0  0  0  0  0  0  0  0  0  0
   63.1943   30.6752   51.5006 H   0  0  0  0  0  0  0  0  0  0  0  0
   63.1493   29.4667   50.1724 H   0  0  0  0  0  0  0  0  0  0  0  0
   61.9969   30.8446   50.1724 H   0  0  0  0  0  0  0  0  0  0  0  0
   59.9614   29.9286   52.7899 H   0  0  0  0  0  0  0  0  0  0  0  0
   60.4381   31.0712   51.4421 H   0  0  0  0  0  0  0  0  0  0  0  0
   58.6367   28.6542   51.3677 H   0  0  0  0  0  0  0  0  0  0  0  0
   58.4349   30.2853   50.6291 H   0  0  0  0  0  0  0  0  0  0  0  0
   60.2528   31.3862   48.5320 H   0  0  0  0  0  0  0  0  0  0  0  0
   59.4509   32.2842   46.3639 H   0  0  0  0  0  0  0  0  0  0  0  0
   58.0921   27.7122   47.8398 H   0  0  0  0  0  0  0  0  0  0  0  0
   55.9350   28.4000   43.7380 H   0  0  0  0  0  0  0  0  0  0  0  0
   59.3286   32.3340   43.9774 H   0  0  0  0  0  0  0  0  0  0  0  0
   57.7630   32.3904   43.0611 H   0  0  0  0  0  0  0  0  0  0  0  0
   56.7627   33.7821   44.5614 H   0  0  0  0  0  0  0  0  0  0  0  0
   57.6938   33.0911   45.9634 H   0  0  0  0  0  0  0  0  0  0  0  0
   58.2283   35.0270   47.7256 H   0  0  0  0  0  0  0  0  0  0  0  0
   59.4863   34.3512   49.7749 H   0  0  0  0  0  0  0  0  0  0  0  0
   61.7746   33.3660   49.5702 H   0  0  0  0  0  0  0  0  0  0  0  0
   62.8144   33.0850   47.3160 H   0  0  0  0  0  0  0  0  0  0  0  0
   61.5613   33.7651   45.2680 H   0  0  0  0  0  0  0  0  0  0  0  0
   60.3282   26.9750   49.4389 H   0  0  0  0  0  0  0  0  0  0  0  0
   61.5204   28.2087   48.8760 H   0  0  0  0  0  0  0  0  0  0  0  0
   60.8258   27.3529   51.7074 H   0  0  0  0  0  0  0  0  0  0  0  0
   62.4434   27.5291   50.9056 H   0  0  0  0  0  0  0  0  0  0  0  0
  1  2  1  0
  2  3  1  0
  3  4  1  0
  4  5  1  0
  5  6  1  0
  6  7  2  0
  7  8  1  0
  8  9  2  0
  9 10  1  0
 10 11  2  0
 10 12  1  0
 12 13  2  0
 12 14  1  0
 14 15  1  0
 15 16  2  0
 15 17  1  0
 17 18  1  0
 18 19  1  0
 19 20  1  0
 20 21  1  0
 21 22  2  0
 22 23  1  0
 23 24  2  0
 24 25  1  0
 25 26  2  0
  5 27  1  0
 27 28  1  0
 28  2  1  0
 11  6  1  0
 26 21  1  0
 17  9  1  0
  1 29  1  0
  1 30  1  0
  1 31  1  0
  3 32  1  0
  3 33  1  0
  4 34  1  0
  4 35  1  0
  7 36  1  0
  8 37  1  0
 11 38  1  0
 14 39  1  0
 18 40  1  0
 18 41  1  0
 19 42  1  0
 19 43  1  0
 22 44  1  0
 23 45  1  0
 24 46  1  0
 25 47  1  0
 26 48  1  0
 27 49  1  0
 27 50  1  0
 28 51  1  0
 28 52  1  0
M  END
>  <UniqueID>  (80) 
76

>  <SMILES>  (80) 
CN1CCN(c2ccc3c(c2)c(=O)[nH]c(=O)n3CCSc2ccccc2)CC1

>  <Energy>  (80) 
73.55024816440884

>  <Genealogy>  (80) 
CN1CCN(c2ccc3c(c2)c(=O)[nH]c(=O)n3CCSc2ccccc2)CC1 (3D coordinates assigned)
CN1CCN(c2ccc3c(c2)c(=O)[nH]c(=O)n3CCSc2ccccc2)CC1 (nonaromatic ring conformer: 73.55024816440884 kcal/mol)

>  <smiles>  (80) 
CN1CCN(c2ccc3c(c2)c(=O)[nH]c(=O)n3CCSc2ccccc2)CC1

>  <score_type>  (80) 
oracle

>  <origin>  (80) 
adg

>  <m_score__min__energy>  (80) 
-8.1199999999999992

>  <m_primary>  (80) 
energy

$$$$
81:0
     RDKit          3D

 54 57  0  0  0  0  0  0  0  0999 V2000
   64.1490   31.7220   52.6180 C   0  0  0  0  0  0  0  0  0  0  0  0
   63.8710   32.1720   51.2440 N   0  0  0  0  0  0  0  0  0  0  0  0
   62.9940   31.1970   50.5500 C   0  0  0  0  0  0  0  0  0  0  0  0
   62.9700   31.3800   49.0150 C   0  0  0  0  0  0  0  0  0  0  0  0
   63.5680   32.6590   48.6100 N   0  0  0  0  0  0  0  0  0  0  0  0
   63.0280   33.3770   47.4890 C   0  0  0  0  0  0  0  0  0  0  0  0
   63.7760   33.6460   46.5100 O   0  0  0  0  0  0  0  0  0  0  0  0
   61.6180   33.8340   47.4860 C   0  0  0  0  0  0  0  0  0  0  0  0
   60.9880   34.2080   48.6860 C   0  0  0  0  0  0  0  0  0  0  0  0
   59.6470   34.6030   48.6860 C   0  0  0  0  0  0  0  0  0  0  0  0
   58.9210   34.6250   47.4930 C   0  0  0  0  0  0  0  0  0  0  0  0
   59.5340   34.2660   46.2820 C   0  0  0  0  0  0  0  0  0  0  0  0
   58.7410   34.2530   44.9970 C   0  0  0  0  0  0  0  0  0  0  0  0
   57.6940   33.1700   44.9810 C   0  0  0  0  0  0  0  0  0  0  0  0
   56.5130   33.4500   45.3250 O   0  0  0  0  0  0  0  0  0  0  0  0
   57.9770   31.8570   44.4800 N   0  0  0  0  0  0  0  0  0  0  0  0
   58.3570   30.7370   45.2870 C   0  0  0  0  0  0  0  0  0  0  0  0
   59.5700   30.7690   45.9810 C   0  0  0  0  0  0  0  0  0  0  0  0
   59.9530   29.6850   46.7730 C   0  0  0  0  0  0  0  0  0  0  0  0
   59.1340   28.5560   46.8640 C   0  0  0  0  0  0  0  0  0  0  0  0
   57.9250   28.4930   46.1470 C   0  0  0  0  0  0  0  0  0  0  0  0
   57.0360   27.3070   46.2270 C   0  0  0  0  0  0  0  0  0  0  0  0
   57.2810   26.1210   46.8970 C   0  0  0  0  0  0  0  0  0  0  0  0
   56.2210   25.3050   46.7550 N   0  0  0  0  0  0  0  0  0  0  0  0
   55.3680   26.0260   46.0010 C   0  0  0  0  0  0  0  0  0  0  0  0
   54.2380   25.5930   45.6490 O   0  0  0  0  0  0  0  0  0  0  0  0
   55.8170   27.2480   45.6540 N   0  0  0  0  0  0  0  0  0  0  0  0
   57.5550   29.5880   45.3450 C   0  0  0  0  0  0  0  0  0  0  0  0
   60.8790   33.8560   46.2890 C   0  0  0  0  0  0  0  0  0  0  0  0
   64.8570   33.0790   49.1700 C   0  0  0  0  0  0  0  0  0  0  0  0
   65.1330   32.3700   50.5030 C   0  0  0  0  0  0  0  0  0  0  0  0
   63.7096   32.4333   53.3328 H   0  0  0  0  0  0  0  0  0  0  0  0
   63.7085   30.7262   52.7739 H   0  0  0  0  0  0  0  0  0  0  0  0
   65.2367   31.6703   52.7739 H   0  0  0  0  0  0  0  0  0  0  0  0
   63.3660   33.0890   51.3100 H   0  0  0  0  0  0  0  0  0  0  0  0
   63.3537   30.1821   50.7750 H   0  0  0  0  0  0  0  0  0  0  0  0
   61.9695   31.3640   50.9139 H   0  0  0  0  0  0  0  0  0  0  0  0
   63.5352   30.5591   48.5494 H   0  0  0  0  0  0  0  0  0  0  0  0
   61.9205   31.3731   48.6856 H   0  0  0  0  0  0  0  0  0  0  0  0
   61.5531   34.1897   49.6296 H   0  0  0  0  0  0  0  0  0  0  0  0
   59.1621   34.8974   49.6285 H   0  0  0  0  0  0  0  0  0  0  0  0
   57.8628   34.9253   47.5023 H   0  0  0  0  0  0  0  0  0  0  0  0
   58.2439   35.2271   44.8785 H   0  0  0  0  0  0  0  0  0  0  0  0
   59.4413   34.0557   44.1720 H   0  0  0  0  0  0  0  0  0  0  0  0
   60.2240   31.6500   45.9029 H   0  0  0  0  0  0  0  0  0  0  0  0
   60.9025   29.7195   47.3273 H   0  0  0  0  0  0  0  0  0  0  0  0
   59.4366   27.7113   47.5003 H   0  0  0  0  0  0  0  0  0  0  0  0
   58.1975   25.8833   47.4570 H   0  0  0  0  0  0  0  0  0  0  0  0
   56.6265   29.5425   44.7570 H   0  0  0  0  0  0  0  0  0  0  0  0
   61.3588   33.5490   45.3480 H   0  0  0  0  0  0  0  0  0  0  0  0
   65.6573   32.8302   48.4575 H   0  0  0  0  0  0  0  0  0  0  0  0
   64.8252   34.1638   49.3493 H   0  0  0  0  0  0  0  0  0  0  0  0
   65.5962   31.3920   50.3057 H   0  0  0  0  0  0  0  0  0  0  0  0
   65.8112   32.9907   51.1069 H   0  0  0  0  0  0  0  0  0  0  0  0
  1  2  1  0
  2  3  1  0
  3  4  1  0
  4  5  1  0
  5  6  1  0
  6  7  2  0
  6  8  1  0
  8  9  2  0
  9 10  1  0
 10 11  2  0
 11 12  1  0
 12 13  1  0
 13 14  1  0
 14 15  2  0
 14 16  1  0
 16 17  1  0
 17 18  2  0
 18 19  1  0
 19 20  2  0
 20 21  1  0
 21 22  1  0
 22 23  2  0
 23 24  1  0
 24 25  1  0
 25 26  2  0
 25 27  1  0
 21 28  2  0
 12 29  2  0
  5 30  1  0
 30 31  1  0
 31  2  1  0
 29  8  1  0
 28 17  1  0
 27 22  1  0
  1 32  1  0
  1 33  1  0
  1 34  1  0
  2 35  1  0
  3 36  1  0
  3 37  1  0
  4 38  1  0
  4 39  1  0
  9 40  1  0
 10 41  1  0
 11 42  1  0
 13 43  1  0
 13 44  1  0
 18 45  1  0
 19 46  1  0
 20 47  1  0
 23 48  1  0
 28 49  1  0
 29 50  1  0
 30 51  1  0
 30 52  1  0
 31 53  1  0
 31 54  1  0
M  CHG  4   2   1  16  -1  24  -1  27  -1
M  END
>  <UniqueID>  (81) 
77

>  <SMILES>  (81) 
C[NH+]1CCN(C(=O)c2cccc(CC(=O)[N-]c3cccc(-c4c[n-]c(=O)[n-]4)c3)c2)CC1

>  <Energy>  (81) 
98.87759933349962

>  <Genealogy>  (81) 
C[NH+]1CCN(C(=O)c2cccc(CC(=O)[N-]c3cccc(-c4c[n-]c(=O)[n-]4)c3)c2)CC1 (protonated)
C[NH+]1CCN(C(=O)c2cccc(CC(=O)[N-]c3cccc(-c4c[n-]c(=O)[n-]4)c3)c2)CC1 (3D coordinates assigned)
C[NH+]1CCN(C(=O)c2cccc(CC(=O)[N-]c3cccc(-c4c[n-]c(=O)[n-]4)c3)c2)CC1 (nonaromatic ring conformer: 98.87759933349962 kcal/mol)

>  <smiles>  (81) 
CN1CCN(C(=O)c2cccc(CC(=O)Nc3cccc(-c4c[nH]c(=O)[nH]4)c3)c2)CC1

>  <score_type>  (81) 
oracle

>  <origin>  (81) 
adg

>  <m_score__min__energy>  (81) 
-13.51

>  <m_primary>  (81) 
energy

$$$$
82:0
     RDKit          3D

 31 33  0  0  0  0  0  0  0  0999 V2000
   52.4270   28.3789   53.7197 H   0  0  0  0  0  0  0  0  0  0  0  0
   53.5100   28.2010   53.6460 C   0  0  0  0  0  0  0  0  0  0  0  0
   53.9334   27.2409   53.9761 H   0  0  0  0  0  0  0  0  0  0  0  0
   54.3120   29.1520   53.1550 C   0  0  0  0  0  0  0  0  0  0  0  0
   53.9550   30.3800   52.5790 C   0  0  0  0  0  0  0  0  0  0  0  0
   52.7660   31.0070   52.4940 C   0  0  0  0  0  0  0  0  0  0  0  0
   52.3670   31.4546   53.4162 H   0  0  0  0  0  0  0  0  0  0  0  0
   51.9550   31.1450   51.2750 C   0  0  0  0  0  0  0  0  0  0  0  0
   51.9740   30.2580   50.2650 N   0  0  0  0  0  0  0  0  0  0  0  0
   51.2020   30.8410   49.3230 C   0  0  0  0  0  0  0  0  0  0  0  0
   50.9610   30.2990   48.2140 O   0  0  0  0  0  0  0  0  0  0  0  0
   50.7180   32.0570   49.6580 N   0  0  0  0  0  0  0  0  0  0  0  0
   51.2170   32.2410   50.8910 C   0  0  0  0  0  0  0  0  0  0  0  0
   51.0240   33.3980   51.6370 O   0  0  0  0  0  0  0  0  0  0  0  0
   55.1260   30.9130   52.0650 C   0  0  0  0  0  0  0  0  0  0  0  0
   55.2292   31.8599   51.5149 H   0  0  0  0  0  0  0  0  0  0  0  0
   56.1390   30.0270   52.3760 C   0  0  0  0  0  0  0  0  0  0  0  0
   57.5690   30.2320   52.0630 C   0  0  0  0  0  0  0  0  0  0  0  0
   58.3330   29.2300   52.0290 O   0  0  0  0  0  0  0  0  0  0  0  0
   58.1300   31.5730   51.7830 C   0  0  0  0  0  0  0  0  0  0  0  0
   58.1270   32.5860   52.7590 C   0  0  0  0  0  0  0  0  0  0  0  0
   57.6849   32.3926   53.7475 H   0  0  0  0  0  0  0  0  0  0  0  0
   58.6680   33.8030   52.4860 N   0  0  0  0  0  0  0  0  0  0  0  0
   59.2310   34.0820   51.2820 C   0  0  0  0  0  0  0  0  0  0  0  0
   59.6525   35.0798   51.0901 H   0  0  0  0  0  0  0  0  0  0  0  0
   59.2750   33.1030   50.2880 C   0  0  0  0  0  0  0  0  0  0  0  0
   59.7355   33.3216   49.3132 H   0  0  0  0  0  0  0  0  0  0  0  0
   58.7290   31.8440   50.5430 C   0  0  0  0  0  0  0  0  0  0  0  0
   58.7683   31.0622   49.7702 H   0  0  0  0  0  0  0  0  0  0  0  0
   55.6450   28.9710   53.0490 N   0  0  0  0  0  0  0  0  0  0  0  0
   56.1880   28.1550   53.4120 H   0  0  0  0  0  0  0  0  0  0  0  0
  1  2  1  0
  2  3  1  0
  2  4  2  0
  4  5  1  0
  5  6  2  0
  6  7  1  0
  6  8  1  0
  8  9  1  0
  9 10  1  0
 10 11  2  0
 10 12  1  0
 12 13  1  0
 13 14  1  0
  5 15  1  0
 15 16  1  0
 15 17  2  0
 17 18  1  0
 18 19  2  0
 18 20  1  0
 20 21  2  0
 21 22  1  0
 21 23  1  0
 23 24  2  0
 24 25  1  0
 24 26  1  0
 26 27  1  0
 26 28  2  0
 28 29  1  0
 17 30  1  0
 30 31  1  0
 30  4  1  0
 13  8  2  0
 28 20  1  0
M  CHG  3   9  -1  12  -1  14  -1
M  END
>  <UniqueID>  (82) 
78

>  <SMILES>  (82) 
C=c1[nH]c(C(=O)c2cccnc2)c/c1=C/c1[n-]c(=O)[n-]c1[O-]

>  <Energy>  (82) 
106.86372834824601

>  <Genealogy>  (82) 
C=c1[nH]c(C(=O)c2cccnc2)cc1=Cc1[n-]c(=O)[n-]c1[O-] (protonated)
C=c1[nH]c(C(=O)c2cccnc2)c/c1=C/c1[n-]c(=O)[n-]c1[O-] (cis-trans isomerization)
C=c1[nH]c(C(=O)c2cccnc2)c/c1=C/c1[n-]c(=O)[n-]c1[O-] (3D coordinates assigned)
C=c1[nH]c(C(=O)c2cccnc2)c/c1=C/c1[n-]c(=O)[n-]c1[O-] (optimized conformer: 106.86372834824601 kcal/mol)

>  <smiles>  (82) 
C=c1[nH]c(C(=O)c2cccnc2)cc1=Cc1[nH]c(=O)[nH]c1O

>  <score_type>  (82) 
oracle

>  <origin>  (82) 
adg

>  <m_score__min__energy>  (82) 
-16.219999999999999

>  <m_primary>  (82) 
energy

$$$$
83:0
     RDKit          3D

 65 68  0  0  0  0  0  0  0  0999 V2000
   55.1420   23.3460   43.8220 C   0  0  0  0  0  0  0  0  0  0  0  0
   54.7790   23.4710   45.1010 C   0  0  0  0  0  0  0  0  0  0  0  0
   54.0860   24.7080   45.6160 C   0  0  0  0  0  0  0  0  0  0  0  0
   55.0180   25.8280   45.8340 N   0  0  0  0  0  0  0  0  0  0  0  0
   56.4240   25.3970   45.8530 C   0  0  0  0  0  0  0  0  0  0  0  0
   57.3310   26.5610   46.1510 C   0  0  0  0  0  0  0  0  0  0  0  0
   57.4650   27.6150   45.2350 C   0  0  0  0  0  0  0  0  0  0  0  0
   58.3140   28.6890   45.5140 C   0  0  0  0  0  0  0  0  0  0  0  0
   59.0390   28.7310   46.7190 C   0  0  0  0  0  0  0  0  0  0  0  0
   59.9470   29.8670   47.0110 C   0  0  0  0  0  0  0  0  0  0  0  0
   59.9320   31.0180   46.2030 C   0  0  0  0  0  0  0  0  0  0  0  0
   60.7680   32.0990   46.4960 C   0  0  0  0  0  0  0  0  0  0  0  0
   61.6280   32.0530   47.6040 C   0  0  0  0  0  0  0  0  0  0  0  0
   62.4440   33.2600   47.9850 C   0  0  0  0  0  0  0  0  0  0  0  0
   61.9640   33.8490   49.2450 N   0  0  0  0  0  0  0  0  0  0  0  0
   62.9280   34.2630   50.2800 C   0  0  0  0  0  0  0  0  0  0  0  0
   63.9590   33.1900   50.5240 C   0  0  0  0  0  0  0  0  0  0  0  0
   65.2990   33.3940   50.1630 C   0  0  0  0  0  0  0  0  0  0  0  0
   66.2330   32.3750   50.3720 C   0  0  0  0  0  0  0  0  0  0  0  0
   65.8480   31.1960   50.9300 N   0  0  0  0  0  0  0  0  0  0  0  0
   64.5580   30.9790   51.3050 C   0  0  0  0  0  0  0  0  0  0  0  0
   63.5940   31.9730   51.1190 C   0  0  0  0  0  0  0  0  0  0  0  0
   60.5520   34.0610   49.4380 C   0  0  0  0  0  0  0  0  0  0  0  0
   59.9450   33.4370   50.3480 O   0  0  0  0  0  0  0  0  0  0  0  0
   59.8040   34.9470   48.5950 N   0  0  0  0  0  0  0  0  0  0  0  0
   59.1470   34.5870   47.3720 C   0  0  0  0  0  0  0  0  0  0  0  0
   58.0630   33.6880   47.3500 C   0  0  0  0  0  0  0  0  0  0  0  0
   57.4510   33.3530   46.1380 C   0  0  0  0  0  0  0  0  0  0  0  0
   57.9240   33.8970   44.9410 C   0  0  0  0  0  0  0  0  0  0  0  0
   59.0130   34.7740   44.9540 C   0  0  0  0  0  0  0  0  0  0  0  0
   59.6270   35.1110   46.1640 C   0  0  0  0  0  0  0  0  0  0  0  0
   61.6630   30.8960   48.3950 C   0  0  0  0  0  0  0  0  0  0  0  0
   60.8310   29.8130   48.1030 C   0  0  0  0  0  0  0  0  0  0  0  0
   58.8890   27.6810   47.6410 C   0  0  0  0  0  0  0  0  0  0  0  0
   58.0430   26.6060   47.3580 C   0  0  0  0  0  0  0  0  0  0  0  0
   55.6458   22.4298   43.4803 H   0  0  0  0  0  0  0  0  0  0  0  0
   54.9372   24.1592   43.1102 H   0  0  0  0  0  0  0  0  0  0  0  0
   54.9915   22.6481   45.7993 H   0  0  0  0  0  0  0  0  0  0  0  0
   53.3272   25.0183   44.8826 H   0  0  0  0  0  0  0  0  0  0  0  0
   53.6324   24.4573   46.5862 H   0  0  0  0  0  0  0  0  0  0  0  0
   54.7950   26.2900   46.7450 H   0  0  0  0  0  0  0  0  0  0  0  0
   56.5560   24.6281   46.6285 H   0  0  0  0  0  0  0  0  0  0  0  0
   56.6833   24.9893   44.8648 H   0  0  0  0  0  0  0  0  0  0  0  0
   56.8987   27.5958   44.2922 H   0  0  0  0  0  0  0  0  0  0  0  0
   58.4163   29.5076   44.7863 H   0  0  0  0  0  0  0  0  0  0  0  0
   59.2581   31.0678   45.3350 H   0  0  0  0  0  0  0  0  0  0  0  0
   60.7518   32.9919   45.8538 H   0  0  0  0  0  0  0  0  0  0  0  0
   63.4950   32.9590   48.1068 H   0  0  0  0  0  0  0  0  0  0  0  0
   62.3466   34.0126   47.1887 H   0  0  0  0  0  0  0  0  0  0  0  0
   63.4364   35.1811   49.9504 H   0  0  0  0  0  0  0  0  0  0  0  0
   62.3794   34.4391   51.2171 H   0  0  0  0  0  0  0  0  0  0  0  0
   65.6130   34.3498   49.7182 H   0  0  0  0  0  0  0  0  0  0  0  0
   67.2836   32.5274   50.0840 H   0  0  0  0  0  0  0  0  0  0  0  0
   66.5580   30.4440   51.0770 H   0  0  0  0  0  0  0  0  0  0  0  0
   64.2731   30.0172   51.7564 H   0  0  0  0  0  0  0  0  0  0  0  0
   62.5549   31.8024   51.4372 H   0  0  0  0  0  0  0  0  0  0  0  0
   57.6966   33.2480   48.2892 H   0  0  0  0  0  0  0  0  0  0  0  0
   56.5964   32.6605   46.1270 H   0  0  0  0  0  0  0  0  0  0  0  0
   57.4397   33.6354   43.9886 H   0  0  0  0  0  0  0  0  0  0  0  0
   59.3871   35.1993   44.0110 H   0  0  0  0  0  0  0  0  0  0  0  0
   60.4915   35.7911   46.1679 H   0  0  0  0  0  0  0  0  0  0  0  0
   62.3507   30.8408   49.2517 H   0  0  0  0  0  0  0  0  0  0  0  0
   60.8676   28.9112   48.7319 H   0  0  0  0  0  0  0  0  0  0  0  0
   59.4415   27.7058   48.5919 H   0  0  0  0  0  0  0  0  0  0  0  0
   57.9347   25.7894   48.0870 H   0  0  0  0  0  0  0  0  0  0  0  0
  1  2  2  0
  2  3  1  0
  3  4  1  0
  4  5  1  0
  5  6  1  0
  6  7  2  0
  7  8  1  0
  8  9  2  0
  9 10  1  0
 10 11  2  0
 11 12  1  0
 12 13  2  0
 13 14  1  0
 14 15  1  0
 15 16  1  0
 16 17  1  0
 17 18  2  0
 18 19  1  0
 19 20  2  0
 20 21  1  0
 21 22  2  0
 15 23  1  0
 23 24  2  0
 23 25  1  0
 25 26  1  0
 26 27  2  0
 27 28  1  0
 28 29  2  0
 29 30  1  0
 30 31  2  0
 13 32  1  0
 32 33  2  0
  9 34  1  0
 34 35  2  0
 35  6  1  0
 33 10  1  0
 22 17  1  0
 31 26  1  0
  1 36  1  0
  1 37  1  0
  2 38  1  0
  3 39  1  0
  3 40  1  0
  4 41  1  0
  5 42  1  0
  5 43  1  0
  7 44  1  0
  8 45  1  0
 11 46  1  0
 12 47  1  0
 14 48  1  0
 14 49  1  0
 16 50  1  0
 16 51  1  0
 18 52  1  0
 19 53  1  0
 20 54  1  0
 21 55  1  0
 22 56  1  0
 27 57  1  0
 28 58  1  0
 29 59  1  0
 30 60  1  0
 31 61  1  0
 32 62  1  0
 33 63  1  0
 34 64  1  0
 35 65  1  0
M  CHG  2  20   1  25  -1
M  END
>  <UniqueID>  (83) 
79

>  <SMILES>  (83) 
C=CCNCc1ccc(-c2ccc(CN(Cc3cc[nH+]cc3)C(=O)[N-]c3ccccc3)cc2)cc1

>  <Energy>  (83) 
73.18713984003848

>  <Genealogy>  (83) 
C=CCNCc1ccc(-c2ccc(CN(Cc3cc[nH+]cc3)C(=O)[N-]c3ccccc3)cc2)cc1 (protonated)
C=CCNCc1ccc(-c2ccc(CN(Cc3cc[nH+]cc3)C(=O)[N-]c3ccccc3)cc2)cc1 (3D coordinates assigned)
C=CCNCc1ccc(-c2ccc(CN(Cc3cc[nH+]cc3)C(=O)[N-]c3ccccc3)cc2)cc1 (optimized conformer: 73.18713984003848 kcal/mol)

>  <smiles>  (83) 
C=CCNCc1ccc(-c2ccc(CN(Cc3ccncc3)C(=O)Nc3ccccc3)cc2)cc1

>  <score_type>  (83) 
oracle

>  <origin>  (83) 
adg

>  <m_score__min__energy>  (83) 
-9.6999999999999993

>  <m_primary>  (83) 
energy

$$$$
84:0
     RDKit          3D

 41 42  0  0  0  0  0  0  0  0999 V2000
   60.4500   27.8970   47.1170 C   0  0  0  0  0  0  0  0  0  0  0  0
   59.8170   29.3070   47.1190 C   0  0  0  0  0  0  0  0  0  0  0  0
   58.7340   29.3350   48.2210 C   0  0  0  0  0  0  0  0  0  0  0  0
   59.1910   29.5650   45.7180 C   0  0  0  0  0  0  0  0  0  0  0  0
   57.8170   28.9680   45.5370 C   0  0  0  0  0  0  0  0  0  0  0  0
   57.4830   27.7550   46.0160 N   0  0  0  0  0  0  0  0  0  0  0  0
   56.2040   27.5990   45.6210 C   0  0  0  0  0  0  0  0  0  0  0  0
   55.5320   26.5700   45.8890 O   0  0  0  0  0  0  0  0  0  0  0  0
   55.7060   28.6300   44.9150 N   0  0  0  0  0  0  0  0  0  0  0  0
   56.7310   29.5010   44.8530 C   0  0  0  0  0  0  0  0  0  0  0  0
   56.6390   30.8000   44.1490 C   0  0  0  0  0  0  0  0  0  0  0  0
   56.6450   30.8380   42.8910 O   0  0  0  0  0  0  0  0  0  0  0  0
   56.6220   32.0370   44.8700 N   0  0  0  0  0  0  0  0  0  0  0  0
   57.7180   32.6000   45.6040 C   0  0  0  0  0  0  0  0  0  0  0  0
   58.7740   33.2650   44.9560 C   0  0  0  0  0  0  0  0  0  0  0  0
   59.8410   33.7820   45.6970 C   0  0  0  0  0  0  0  0  0  0  0  0
   59.8800   33.6210   47.0900 C   0  0  0  0  0  0  0  0  0  0  0  0
   61.0090   34.2140   47.8920 C   0  0  0  0  0  0  0  0  0  0  0  0
   61.9430   33.1720   48.3180 N   0  0  0  0  0  0  0  0  0  0  0  0
   58.8300   32.9490   47.7340 C   0  0  0  0  0  0  0  0  0  0  0  0
   57.7640   32.4300   46.9930 C   0  0  0  0  0  0  0  0  0  0  0  0
   60.8820   30.3480   47.4220 C   0  0  0  0  0  0  0  0  0  0  0  0
   61.5210   30.9070   46.4900 O   0  0  0  0  0  0  0  0  0  0  0  0
   61.1190   30.7510   48.7320 O   0  0  0  0  0  0  0  0  0  0  0  0
   60.6007   27.5613   48.1536 H   0  0  0  0  0  0  0  0  0  0  0  0
   59.7805   27.1953   46.5980 H   0  0  0  0  0  0  0  0  0  0  0  0
   61.4193   27.9309   46.5980 H   0  0  0  0  0  0  0  0  0  0  0  0
   59.2164   29.3225   49.2095 H   0  0  0  0  0  0  0  0  0  0  0  0
   58.1306   30.2490   48.1189 H   0  0  0  0  0  0  0  0  0  0  0  0
   58.0842   28.4534   48.1189 H   0  0  0  0  0  0  0  0  0  0  0  0
   59.1177   30.6522   45.5674 H   0  0  0  0  0  0  0  0  0  0  0  0
   59.8478   29.0772   44.9827 H   0  0  0  0  0  0  0  0  0  0  0  0
   58.7606   33.3789   43.8620 H   0  0  0  0  0  0  0  0  0  0  0  0
   60.6540   34.3177   45.1851 H   0  0  0  0  0  0  0  0  0  0  0  0
   61.5450   34.9484   47.2728 H   0  0  0  0  0  0  0  0  0  0  0  0
   60.5908   34.7011   48.7852 H   0  0  0  0  0  0  0  0  0  0  0  0
   62.9070   33.5700   48.4090 H   0  0  0  0  0  0  0  0  0  0  0  0
   61.9560   32.4110   47.6020 H   0  0  0  0  0  0  0  0  0  0  0  0
   61.6380   32.7710   49.2360 H   0  0  0  0  0  0  0  0  0  0  0  0
   58.8456   32.8299   48.8274 H   0  0  0  0  0  0  0  0  0  0  0  0
   56.9568   31.8850   47.5042 H   0  0  0  0  0  0  0  0  0  0  0  0
  1  2  1  0
  2  3  1  0
  2  4  1  0
  4  5  1  0
  5  6  1  0
  6  7  1  0
  7  8  2  0
  7  9  1  0
  9 10  1  0
 10 11  1  0
 11 12  2  0
 11 13  1  0
 13 14  1  0
 14 15  2  0
 15 16  1  0
 16 17  2  0
 17 18  1  0
 18 19  1  0
 17 20  1  0
 20 21  2  0
  2 22  1  0
 22 23  2  0
 22 24  1  0
 10  5  2  0
 21 14  1  0
  1 25  1  0
  1 26  1  0
  1 27  1  0
  3 28  1  0
  3 29  1  0
  3 30  1  0
  4 31  1  0
  4 32  1  0
 15 33  1  0
 16 34  1  0
 18 35  1  0
 18 36  1  0
 19 37  1  0
 19 38  1  0
 19 39  1  0
 20 40  1  0
 21 41  1  0
M  CHG  5   6  -1   9  -1  13  -1  19   1  24  -1
M  END
>  <UniqueID>  (84) 
80

>  <SMILES>  (84) 
CC(C)(Cc1[n-]c(=O)[n-]c1C(=O)[N-]c1ccc(C[NH3+])cc1)C(=O)[O-]

>  <Energy>  (84) 
71.7739644061272

>  <Genealogy>  (84) 
CC(C)(Cc1[n-]c(=O)[n-]c1C(=O)[N-]c1ccc(C[NH3+])cc1)C(=O)[O-] (protonated)
CC(C)(Cc1[n-]c(=O)[n-]c1C(=O)[N-]c1ccc(C[NH3+])cc1)C(=O)[O-] (3D coordinates assigned)
CC(C)(Cc1[n-]c(=O)[n-]c1C(=O)[N-]c1ccc(C[NH3+])cc1)C(=O)[O-] (optimized conformer: 71.7739644061272 kcal/mol)

>  <smiles>  (84) 
CC(C)(Cc1[nH]c(=O)[nH]c1C(=O)Nc1ccc(CN)cc1)C(=O)O

>  <score_type>  (84) 
oracle

>  <origin>  (84) 
adg

>  <m_score__min__energy>  (84) 
-9.9299999999999997

>  <m_primary>  (84) 
energy

$$$$
85:0
     RDKit          3D

 50 52  0  0  0  0  0  0  0  0999 V2000
   56.6611   30.8942   44.1499 H   0  0  0  0  0  0  0  0  0  0  0  0
   57.1460   30.1700   44.8210 C   0  0  0  0  0  0  0  0  0  0  0  0
   58.0882   30.4321   45.3246 H   0  0  0  0  0  0  0  0  0  0  0  0
   56.5920   28.9750   45.0240 C   0  0  0  0  0  0  0  0  0  0  0  0
   55.6498   28.7437   44.5056 H   0  0  0  0  0  0  0  0  0  0  0  0
   57.1770   27.9400   45.9110 C   0  0  0  0  0  0  0  0  0  0  0  0
   58.5100   28.0210   46.3630 C   0  0  0  0  0  0  0  0  0  0  0  0
   59.1341   28.8758   46.0634 H   0  0  0  0  0  0  0  0  0  0  0  0
   59.0510   27.0240   47.1910 C   0  0  0  0  0  0  0  0  0  0  0  0
   60.4850   27.0980   47.6370 C   0  0  0  0  0  0  0  0  0  0  0  0
   60.7830   26.1307   48.0677 H   0  0  0  0  0  0  0  0  0  0  0  0
   61.1212   27.3322   46.7707 H   0  0  0  0  0  0  0  0  0  0  0  0
   60.6460   28.1770   48.6750 C   0  0  0  0  0  0  0  0  0  0  0  0
   60.6899   27.8652   49.7290 H   0  0  0  0  0  0  0  0  0  0  0  0
   60.7400   29.4890   48.4130 C   0  0  0  0  0  0  0  0  0  0  0  0
   61.6301   29.8371   47.8685 H   0  0  0  0  0  0  0  0  0  0  0  0
   59.7380   30.5000   48.8010 C   0  0  0  0  0  0  0  0  0  0  0  0
   59.3200   31.4920   47.8990 C   0  0  0  0  0  0  0  0  0  0  0  0
   59.7649   31.5422   46.8942 H   0  0  0  0  0  0  0  0  0  0  0  0
   58.3410   32.4150   48.2740 C   0  0  0  0  0  0  0  0  0  0  0  0
   58.0277   33.1992   47.5691 H   0  0  0  0  0  0  0  0  0  0  0  0
   57.7590   32.3450   49.5410 C   0  0  0  0  0  0  0  0  0  0  0  0
   56.9938   33.0788   49.8341 H   0  0  0  0  0  0  0  0  0  0  0  0
   58.1480   31.3390   50.4440 C   0  0  0  0  0  0  0  0  0  0  0  0
   57.5520   31.1980   51.7040 O   0  0  0  0  0  0  0  0  0  0  0  0
   57.2890   29.9760   52.3370 C   0  0  0  0  0  0  0  0  0  0  0  0
   57.8490   28.9170   51.9390 O   0  0  0  0  0  0  0  0  0  0  0  0
   56.2720   29.8920   53.4000 C   0  0  0  0  0  0  0  0  0  0  0  0
   56.5679   30.1963   54.4148 H   0  0  0  0  0  0  0  0  0  0  0  0
   55.0110   29.4710   53.2190 C   0  0  0  0  0  0  0  0  0  0  0  0
   54.8064   28.4011   53.3718 H   0  0  0  0  0  0  0  0  0  0  0  0
   53.8750   30.3340   52.8300 C   0  0  0  0  0  0  0  0  0  0  0  0
   53.8140   30.8470   51.5250 C   0  0  0  0  0  0  0  0  0  0  0  0
   54.6204   30.6240   50.8109 H   0  0  0  0  0  0  0  0  0  0  0  0
   52.7320   31.6410   51.1280 C   0  0  0  0  0  0  0  0  0  0  0  0
   52.6973   32.0523   50.1084 H   0  0  0  0  0  0  0  0  0  0  0  0
   51.6950   31.9120   52.0260 C   0  0  0  0  0  0  0  0  0  0  0  0
   50.6210   32.7000   51.6300 O   0  0  0  0  0  0  0  0  0  0  0  0
   51.7360   31.3840   53.3190 C   0  0  0  0  0  0  0  0  0  0  0  0
   50.9209   31.5993   54.0255 H   0  0  0  0  0  0  0  0  0  0  0  0
   52.8100   30.5830   53.7170 C   0  0  0  0  0  0  0  0  0  0  0  0
   52.8234   30.1457   54.7263 H   0  0  0  0  0  0  0  0  0  0  0  0
   59.1220   30.4100   50.0580 C   0  0  0  0  0  0  0  0  0  0  0  0
   59.4069   29.6016   50.7474 H   0  0  0  0  0  0  0  0  0  0  0  0
   58.2610   25.9210   47.5470 C   0  0  0  0  0  0  0  0  0  0  0  0
   58.6810   25.1294   48.1849 H   0  0  0  0  0  0  0  0  0  0  0  0
   56.9440   25.8240   47.0950 C   0  0  0  0  0  0  0  0  0  0  0  0
   56.3300   24.9572   47.3806 H   0  0  0  0  0  0  0  0  0  0  0  0
   56.4010   26.8230   46.2810 C   0  0  0  0  0  0  0  0  0  0  0  0
   55.0840   26.6990   45.8510 O   0  0  0  0  0  0  0  0  0  0  0  0
  1  2  1  0
  2  3  1  0
  2  4  2  0
  4  5  1  0
  4  6  1  0
  6  7  2  0
  7  8  1  0
  7  9  1  0
  9 10  1  0
 10 11  1  0
 10 12  1  0
 10 13  1  0
 13 14  1  0
 13 15  2  0
 15 16  1  0
 15 17  1  0
 17 18  2  0
 18 19  1  0
 18 20  1  0
 20 21  1  0
 20 22  2  0
 22 23  1  0
 22 24  1  0
 24 25  1  0
 25 26  1  0
 26 27  2  0
 26 28  1  0
 28 29  1  0
 28 30  2  3
 30 31  1  0
 30 32  1  0
 32 33  2  0
 33 34  1  0
 33 35  1  0
 35 36  1  0
 35 37  2  0
 37 38  1  0
 37 39  1  0
 39 40  1  0
 39 41  2  0
 41 42  1  0
 24 43  2  0
 43 44  1  0
  9 45  2  0
 45 46  1  0
 45 47  1  0
 47 48  1  0
 47 49  2  0
 49 50  1  0
 49  6  1  0
 43 17  1  0
 41 32  1  0
M  CHG  2  38  -1  50  -1
M  END
>  <UniqueID>  (85) 
81

>  <SMILES>  (85) 
C=Cc1cc(C/C=C\c2cccc(OC(=O)C=Cc3ccc([O-])cc3)c2)ccc1[O-]

>  <Energy>  (85) 
71.3457426518657

>  <Genealogy>  (85) 
C=Cc1cc(CC=Cc2cccc(OC(=O)C=Cc3ccc([O-])cc3)c2)ccc1[O-] (protonated)
C=Cc1cc(C/C=C\c2cccc(OC(=O)C=Cc3ccc([O-])cc3)c2)ccc1[O-] (cis-trans isomerization)
C=Cc1cc(C/C=C\c2cccc(OC(=O)C=Cc3ccc([O-])cc3)c2)ccc1[O-] (3D coordinates assigned)
C=Cc1cc(C/C=C\c2cccc(OC(=O)C=Cc3ccc([O-])cc3)c2)ccc1[O-] (optimized conformer: 71.3457426518657 kcal/mol)

>  <smiles>  (85) 
C=Cc1cc(CC=Cc2cccc(OC(=O)C=Cc3ccc(O)cc3)c2)ccc1O

>  <score_type>  (85) 
oracle

>  <origin>  (85) 
adg

>  <m_score__min__energy>  (85) 
-16.629999999999999

>  <m_primary>  (85) 
energy

$$$$
86:0
     RDKit          3D

 63 65  0  0  0  0  0  0  0  0999 V2000
   67.3340   32.7390   50.5330 C   0  0  0  0  0  0  0  0  0  0  0  0
   65.9030   33.0890   50.1250 C   0  0  0  0  0  0  0  0  0  0  0  0
   64.9300   31.9790   50.4350 C   0  0  0  0  0  0  0  0  0  0  0  0
   65.1720   31.1880   51.3870 O   0  0  0  0  0  0  0  0  0  0  0  0
   63.7450   31.7810   49.6370 N   0  0  0  0  0  0  0  0  0  0  0  0
   62.5600   31.1760   50.2690 C   0  0  0  0  0  0  0  0  0  0  0  0
   61.4220   30.9680   49.2630 C   0  0  0  0  0  0  0  0  0  0  0  0
   61.2690   32.1610   48.4200 N   0  0  0  0  0  0  0  0  0  0  0  0
   59.9840   32.7970   48.3010 C   0  0  0  0  0  0  0  0  0  0  0  0
   59.2710   32.9510   49.3300 O   0  0  0  0  0  0  0  0  0  0  0  0
   59.4830   33.2800   46.9940 C   0  0  0  0  0  0  0  0  0  0  0  0
   59.7360   34.5980   46.5830 C   0  0  0  0  0  0  0  0  0  0  0  0
   59.2660   35.0550   45.3500 C   0  0  0  0  0  0  0  0  0  0  0  0
   58.5270   34.2070   44.5220 C   0  0  0  0  0  0  0  0  0  0  0  0
   58.2460   32.8940   44.9260 C   0  0  0  0  0  0  0  0  0  0  0  0
   57.4400   31.9890   44.0350 C   0  0  0  0  0  0  0  0  0  0  0  0
   56.5680   31.1280   44.8260 N   0  0  0  0  0  0  0  0  0  0  0  0
   56.2580   29.7730   44.4800 C   0  0  0  0  0  0  0  0  0  0  0  0
   55.1170   29.2960   44.7300 O   0  0  0  0  0  0  0  0  0  0  0  0
   57.2800   28.9460   43.7610 C   0  0  0  0  0  0  0  0  0  0  0  0
   58.2470   28.3130   44.7270 C   0  0  0  0  0  0  0  0  0  0  0  0
   59.5610   28.7890   44.8330 C   0  0  0  0  0  0  0  0  0  0  0  0
   60.4540   28.1930   45.7250 C   0  0  0  0  0  0  0  0  0  0  0  0
   60.0510   27.1080   46.5070 C   0  0  0  0  0  0  0  0  0  0  0  0
   58.7440   26.6010   46.3970 C   0  0  0  0  0  0  0  0  0  0  0  0
   58.2920   25.4800   47.1830 N   0  0  0  0  0  0  0  0  0  0  0  0
   57.1060   24.3310   46.6520 S   0  0  0  0  0  0  0  0  0  0  0  0
   57.4410   23.8230   44.9770 C   0  0  0  0  0  0  0  0  0  0  0  0
   55.7530   24.9810   46.6880 O   0  0  0  0  0  0  0  0  0  0  0  0
   57.0960   23.1410   47.5670 O   0  0  0  0  0  0  0  0  0  0  0  0
   57.8480   27.2170   45.5090 C   0  0  0  0  0  0  0  0  0  0  0  0
   58.7200   32.4380   46.1670 C   0  0  0  0  0  0  0  0  0  0  0  0
   62.4500   32.7880   47.8050 C   0  0  0  0  0  0  0  0  0  0  0  0
   63.7380   32.0530   48.1920 C   0  0  0  0  0  0  0  0  0  0  0  0
   67.4084   32.7208   51.6303 H   0  0  0  0  0  0  0  0  0  0  0  0
   67.5983   31.7497   50.1311 H   0  0  0  0  0  0  0  0  0  0  0  0
   68.0251   33.4946   50.1311 H   0  0  0  0  0  0  0  0  0  0  0  0
   65.5919   33.9936   50.6680 H   0  0  0  0  0  0  0  0  0  0  0  0
   65.8938   33.2495   49.0368 H   0  0  0  0  0  0  0  0  0  0  0  0
   62.8418   30.2015   50.6943 H   0  0  0  0  0  0  0  0  0  0  0  0
   62.2030   31.8609   51.0523 H   0  0  0  0  0  0  0  0  0  0  0  0
   61.6525   30.1004   48.6272 H   0  0  0  0  0  0  0  0  0  0  0  0
   60.4847   30.7920   49.8111 H   0  0  0  0  0  0  0  0  0  0  0  0
   60.3075   35.2745   47.2355 H   0  0  0  0  0  0  0  0  0  0  0  0
   59.4784   36.0858   45.0299 H   0  0  0  0  0  0  0  0  0  0  0  0
   58.1641   34.5705   43.5493 H   0  0  0  0  0  0  0  0  0  0  0  0
   56.8254   32.6019   43.3592 H   0  0  0  0  0  0  0  0  0  0  0  0
   58.1300   31.3570   43.4566 H   0  0  0  0  0  0  0  0  0  0  0  0
   56.7672   28.1537   43.1959 H   0  0  0  0  0  0  0  0  0  0  0  0
   57.8449   29.6028   43.0832 H   0  0  0  0  0  0  0  0  0  0  0  0
   59.8896   29.6349   44.2113 H   0  0  0  0  0  0  0  0  0  0  0  0
   61.4801   28.5796   45.8126 H   0  0  0  0  0  0  0  0  0  0  0  0
   60.7592   26.6481   47.2120 H   0  0  0  0  0  0  0  0  0  0  0  0
   58.6100   25.3980   48.1750 H   0  0  0  0  0  0  0  0  0  0  0  0
   58.0466   22.9047   44.9865 H   0  0  0  0  0  0  0  0  0  0  0  0
   56.4918   23.6309   44.4553 H   0  0  0  0  0  0  0  0  0  0  0  0
   57.9914   24.6198   44.4553 H   0  0  0  0  0  0  0  0  0  0  0  0
   56.8195   26.8360   45.4246 H   0  0  0  0  0  0  0  0  0  0  0  0
   58.4920   31.4129   46.4945 H   0  0  0  0  0  0  0  0  0  0  0  0
   62.3391   32.7640   46.7109 H   0  0  0  0  0  0  0  0  0  0  0  0
   62.5203   33.8242   48.1674 H   0  0  0  0  0  0  0  0  0  0  0  0
   63.7946   31.1022   47.6418 H   0  0  0  0  0  0  0  0  0  0  0  0
   64.6039   32.6821   47.9381 H   0  0  0  0  0  0  0  0  0  0  0  0
  1  2  1  0
  2  3  1  0
  3  4  2  0
  3  5  1  0
  5  6  1  0
  6  7  1  0
  7  8  1  0
  8  9  1  0
  9 10  2  0
  9 11  1  0
 11 12  2  0
 12 13  1  0
 13 14  2  0
 14 15  1  0
 15 16  1  0
 16 17  1  0
 17 18  1  0
 18 19  2  0
 18 20  1  0
 20 21  1  0
 21 22  2  0
 22 23  1  0
 23 24  2  0
 24 25  1  0
 25 26  1  0
 26 27  1  0
 27 28  1  0
 27 29  2  0
 27 30  2  0
 25 31  2  0
 15 32  2  0
  8 33  1  0
 33 34  1  0
 34  5  1  0
 32 11  1  0
 31 21  1  0
  1 35  1  0
  1 36  1  0
  1 37  1  0
  2 38  1  0
  2 39  1  0
  6 40  1  0
  6 41  1  0
  7 42  1  0
  7 43  1  0
 12 44  1  0
 13 45  1  0
 14 46  1  0
 16 47  1  0
 16 48  1  0
 20 49  1  0
 20 50  1  0
 22 51  1  0
 23 52  1  0
 24 53  1  0
 26 54  1  0
 28 55  1  0
 28 56  1  0
 28 57  1  0
 31 58  1  0
 32 59  1  0
 33 60  1  0
 33 61  1  0
 34 62  1  0
 34 63  1  0
M  CHG  1  17  -1
M  END
>  <UniqueID>  (86) 
82

>  <SMILES>  (86) 
CCC(=O)N1CCN(C(=O)c2cccc(C[N-]C(=O)Cc3cccc(NS(C)(=O)=O)c3)c2)CC1

>  <Energy>  (86) 
64.21553834358293

>  <Genealogy>  (86) 
CCC(=O)N1CCN(C(=O)c2cccc(C[N-]C(=O)Cc3cccc(NS(C)(=O)=O)c3)c2)CC1 (protonated)
CCC(=O)N1CCN(C(=O)c2cccc(C[N-]C(=O)Cc3cccc(NS(C)(=O)=O)c3)c2)CC1 (3D coordinates assigned)
CCC(=O)N1CCN(C(=O)c2cccc(C[N-]C(=O)Cc3cccc(NS(C)(=O)=O)c3)c2)CC1 (nonaromatic ring conformer: 64.21553834358293 kcal/mol)

>  <smiles>  (86) 
CCC(=O)N1CCN(C(=O)c2cccc(CNC(=O)Cc3cccc(NS(C)(=O)=O)c3)c2)CC1

>  <score_type>  (86) 
oracle

>  <origin>  (86) 
adg

>  <m_score__min__energy>  (86) 
-12.390000000000001

>  <m_primary>  (86) 
energy

$$$$
87:0
     RDKit          3D

 44 46  0  0  0  0  0  0  0  0999 V2000
   56.2970   20.8540   44.1410 C   0  0  0  0  0  0  0  0  0  0  0  0
   56.9730   22.0480   44.7350 C   0  0  0  0  0  0  0  0  0  0  0  0
   58.3120   22.1900   44.8060 N   0  0  0  0  0  0  0  0  0  0  0  0
   58.4960   23.3900   45.4020 C   0  0  0  0  0  0  0  0  0  0  0  0
   59.6880   23.8440   45.6300 N   0  0  0  0  0  0  0  0  0  0  0  0
   57.3230   24.0170   45.7140 N   0  0  0  0  0  0  0  0  0  0  0  0
   56.9810   25.2080   46.3050 C   0  0  0  0  0  0  0  0  0  0  0  0
   57.9990   26.2090   46.8020 C   0  0  0  0  0  0  0  0  0  0  0  0
   57.7320   27.6090   46.3040 C   0  0  0  0  0  0  0  0  0  0  0  0
   58.6040   28.6580   46.6210 C   0  0  0  0  0  0  0  0  0  0  0  0
   58.3660   29.9430   46.1280 C   0  0  0  0  0  0  0  0  0  0  0  0
   57.2530   30.1720   45.2910 C   0  0  0  0  0  0  0  0  0  0  0  0
   56.9620   31.3450   44.8020 N   0  0  0  0  0  0  0  0  0  0  0  0
   57.8520   32.4040   44.4040 C   0  0  0  0  0  0  0  0  0  0  0  0
   58.4390   32.3520   43.2880 O   0  0  0  0  0  0  0  0  0  0  0  0
   57.9360   33.6650   45.2450 C   0  0  0  0  0  0  0  0  0  0  0  0
   59.2460   34.4180   44.9370 C   0  0  0  0  0  0  0  0  0  0  0  0
   57.9050   33.2740   46.7310 C   0  0  0  0  0  0  0  0  0  0  0  0
   56.7460   34.6010   44.9370 C   0  0  0  0  0  0  0  0  0  0  0  0
   56.4240   29.1330   45.0040 N   0  0  0  0  0  0  0  0  0  0  0  0
   56.6350   27.8750   45.4750 C   0  0  0  0  0  0  0  0  0  0  0  0
   55.6500   25.4900   46.4450 N   0  0  0  0  0  0  0  0  0  0  0  0
   54.7020   24.6460   46.0260 N   0  0  0  0  0  0  0  0  0  0  0  0
   55.0230   23.4650   45.4390 C   0  0  0  0  0  0  0  0  0  0  0  0
   54.1160   22.6830   45.0500 O   0  0  0  0  0  0  0  0  0  0  0  0
   56.3730   23.1620   45.2880 C   0  0  0  0  0  0  0  0  0  0  0  0
   55.9282   20.2026   44.9471 H   0  0  0  0  0  0  0  0  0  0  0  0
   55.4511   21.1830   43.5195 H   0  0  0  0  0  0  0  0  0  0  0  0
   57.0143   20.2980   43.5195 H   0  0  0  0  0  0  0  0  0  0  0  0
   60.5790   23.4470   45.2790 H   0  0  0  0  0  0  0  0  0  0  0  0
   57.9769   26.2167   47.9017 H   0  0  0  0  0  0  0  0  0  0  0  0
   58.9823   25.9015   46.4166 H   0  0  0  0  0  0  0  0  0  0  0  0
   59.4791   28.4694   47.2602 H   0  0  0  0  0  0  0  0  0  0  0  0
   59.0413   30.7707   46.3903 H   0  0  0  0  0  0  0  0  0  0  0  0
   59.7371   34.7003   45.8800 H   0  0  0  0  0  0  0  0  0  0  0  0
   59.9153   33.7668   44.3557 H   0  0  0  0  0  0  0  0  0  0  0  0
   59.0201   35.3241   44.3557 H   0  0  0  0  0  0  0  0  0  0  0  0
   57.9769   34.1803   47.3502 H   0  0  0  0  0  0  0  0  0  0  0  0
   56.9626   32.7519   46.9532 H   0  0  0  0  0  0  0  0  0  0  0  0
   58.7533   32.6099   46.9532 H   0  0  0  0  0  0  0  0  0  0  0  0
   56.3011   34.9509   45.8802 H   0  0  0  0  0  0  0  0  0  0  0  0
   57.1001   35.4652   44.3558 H   0  0  0  0  0  0  0  0  0  0  0  0
   55.9896   34.0533   44.3558 H   0  0  0  0  0  0  0  0  0  0  0  0
   55.9425   27.0644   45.2043 H   0  0  0  0  0  0  0  0  0  0  0  0
  1  2  1  0
  2  3  1  0
  3  4  1  0
  4  5  2  3
  4  6  1  0
  6  7  1  0
  7  8  1  0
  8  9  1  0
  9 10  1  0
 10 11  2  0
 11 12  1  0
 12 13  2  3
 13 14  1  0
 14 15  2  0
 14 16  1  0
 16 17  1  0
 16 18  1  0
 16 19  1  0
 12 20  1  0
 20 21  1  0
  7 22  2  0
 22 23  1  0
 23 24  1  0
 24 25  2  0
 24 26  1  0
 26  2  2  0
 26  6  1  0
 21  9  2  0
  1 27  1  0
  1 28  1  0
  1 29  1  0
  5 30  1  0
  8 31  1  0
  8 32  1  0
 10 33  1  0
 11 34  1  0
 17 35  1  0
 17 36  1  0
 17 37  1  0
 18 38  1  0
 18 39  1  0
 18 40  1  0
 19 41  1  0
 19 42  1  0
 19 43  1  0
 21 44  1  0
M  CHG  3   3  -1  20  -1  23  -1
M  END
>  <UniqueID>  (87) 
83

>  <SMILES>  (87) 
Cc1[n-]c(=N)n2c(Cc3ccc(=NC(=O)C(C)(C)C)[n-]c3)n[n-]c(=O)c12

>  <Energy>  (87) 
96.12589002728532

>  <Genealogy>  (87) 
Cc1[n-]c(=N)n2c(Cc3ccc(=NC(=O)C(C)(C)C)[n-]c3)n[n-]c(=O)c12 (protonated)
Cc1[n-]c(=N)n2c(Cc3ccc(=NC(=O)C(C)(C)C)[n-]c3)n[n-]c(=O)c12 (3D coordinates assigned)
Cc1[n-]c(=N)n2c(Cc3ccc(=NC(=O)C(C)(C)C)[n-]c3)n[n-]c(=O)c12 (optimized conformer: 96.12589002728532 kcal/mol)

>  <smiles>  (87) 
Cc1[nH]c(=N)n2c(Cc3ccc(=NC(=O)C(C)(C)C)[nH]c3)n[nH]c(=O)c12

>  <score_type>  (87) 
oracle

>  <origin>  (87) 
adg

>  <m_score__min__energy>  (87) 
-12.6

>  <m_primary>  (87) 
energy

$$$$
88:0
     RDKit          3D

 50 53  0  0  0  0  0  0  0  0999 V2000
   57.8338   26.7725   43.1444 H   0  0  0  0  0  0  0  0  0  0  0  0
   57.6980   26.1100   44.0120 C   0  0  0  0  0  0  0  0  0  0  0  0
   57.2427   25.1174   43.8801 H   0  0  0  0  0  0  0  0  0  0  0  0
   58.0880   26.5130   45.2320 C   0  0  0  0  0  0  0  0  0  0  0  0
   57.9800   25.7820   46.4270 C   0  0  0  0  0  0  0  0  0  0  0  0
   57.2850   24.6650   46.7180 C   0  0  0  0  0  0  0  0  0  0  0  0
   57.8034   23.8821   47.2910 H   0  0  0  0  0  0  0  0  0  0  0  0
   55.8870   24.4070   46.3310 C   0  0  0  0  0  0  0  0  0  0  0  0
   54.9540   25.3500   45.9690 C   0  0  0  0  0  0  0  0  0  0  0  0
   55.1380   26.7270   46.0010 O   0  0  0  0  0  0  0  0  0  0  0  0
   53.8150   24.7570   45.5620 N   0  0  0  0  0  0  0  0  0  0  0  0
   54.1070   23.4410   45.6720 C   0  0  0  0  0  0  0  0  0  0  0  0
   53.2880   22.5320   45.3740 O   0  0  0  0  0  0  0  0  0  0  0  0
   55.3530   23.1920   46.1220 N   0  0  0  0  0  0  0  0  0  0  0  0
   55.8080   22.2600   46.2450 H   0  0  0  0  0  0  0  0  0  0  0  0
   58.7700   26.4390   47.3530 C   0  0  0  0  0  0  0  0  0  0  0  0
   58.9659   26.1217   48.3879 H   0  0  0  0  0  0  0  0  0  0  0  0
   59.2660   27.5680   46.7330 C   0  0  0  0  0  0  0  0  0  0  0  0
   60.2280   28.5260   47.3740 C   0  0  0  0  0  0  0  0  0  0  0  0
   60.1492   28.4475   48.4684 H   0  0  0  0  0  0  0  0  0  0  0  0
   61.2536   28.2798   47.0616 H   0  0  0  0  0  0  0  0  0  0  0  0
   59.9861   29.5526   47.0616 H   0  0  0  0  0  0  0  0  0  0  0  0
   58.8280   27.6360   45.4500 N   0  0  0  0  0  0  0  0  0  0  0  0
   59.1460   28.6960   44.4770 C   0  0  0  0  0  0  0  0  0  0  0  0
   60.2015   28.9846   44.5898 H   0  0  0  0  0  0  0  0  0  0  0  0
   58.9612   28.3118   43.4630 H   0  0  0  0  0  0  0  0  0  0  0  0
   58.2770   29.9040   44.7020 C   0  0  0  0  0  0  0  0  0  0  0  0
   58.5780   30.8850   45.5730 N   0  0  0  0  0  0  0  0  0  0  0  0
   57.5690   31.7660   45.4240 C   0  0  0  0  0  0  0  0  0  0  0  0
   57.4960   32.8520   46.1390 N   0  0  0  0  0  0  0  0  0  0  0  0
   58.4460   33.2960   47.1260 C   0  0  0  0  0  0  0  0  0  0  0  0
   58.4660   32.7460   48.4210 C   0  0  0  0  0  0  0  0  0  0  0  0
   57.7593   31.9457   48.6858 H   0  0  0  0  0  0  0  0  0  0  0  0
   59.3780   33.2100   49.3730 C   0  0  0  0  0  0  0  0  0  0  0  0
   59.3944   32.7650   50.3788 H   0  0  0  0  0  0  0  0  0  0  0  0
   60.2680   34.2360   49.0520 C   0  0  0  0  0  0  0  0  0  0  0  0
   60.9909   34.5914   49.8011 H   0  0  0  0  0  0  0  0  0  0  0  0
   60.2410   34.8110   47.7810 C   0  0  0  0  0  0  0  0  0  0  0  0
   60.9385   35.6249   47.5336 H   0  0  0  0  0  0  0  0  0  0  0  0
   59.3260   34.3550   46.8140 C   0  0  0  0  0  0  0  0  0  0  0  0
   59.2970   34.9910   45.4530 C   0  0  0  0  0  0  0  0  0  0  0  0
   59.2471   36.0846   45.5603 H   0  0  0  0  0  0  0  0  0  0  0  0
   60.2085   34.7179   44.9012 H   0  0  0  0  0  0  0  0  0  0  0  0
   58.4141   34.6361   44.9012 H   0  0  0  0  0  0  0  0  0  0  0  0
   56.6400   31.3950   44.5150 N   0  0  0  0  0  0  0  0  0  0  0  0
   57.0950   30.2160   44.0590 C   0  0  0  0  0  0  0  0  0  0  0  0
   56.4170   29.4290   42.9850 C   0  0  0  0  0  0  0  0  0  0  0  0
   55.7641   28.6711   43.4425 H   0  0  0  0  0  0  0  0  0  0  0  0
   55.8134   30.1045   42.3609 H   0  0  0  0  0  0  0  0  0  0  0  0
   57.1743   28.9320   42.3609 H   0  0  0  0  0  0  0  0  0  0  0  0
  1  2  1  0
  2  3  1  0
  2  4  2  0
  4  5  1  0
  5  6  2  0
  6  7  1  0
  6  8  1  0
  8  9  2  0
  9 10  1  0
  9 11  1  0
 11 12  1  0
 12 13  2  0
 12 14  1  0
 14 15  1  0
  5 16  1  0
 16 17  1  0
 16 18  2  0
 18 19  1  0
 19 20  1  0
 19 21  1  0
 19 22  1  0
 18 23  1  0
 23 24  1  0
 24 25  1  0
 24 26  1  0
 24 27  1  0
 27 28  1  0
 28 29  1  0
 29 30  2  3
 30 31  1  0
 31 32  2  0
 32 33  1  0
 32 34  1  0
 34 35  1  0
 34 36  2  0
 36 37  1  0
 36 38  1  0
 38 39  1  0
 38 40  2  0
 40 41  1  0
 41 42  1  0
 41 43  1  0
 41 44  1  0
 29 45  1  0
 45 46  1  0
 46 47  1  0
 47 48  1  0
 47 49  1  0
 47 50  1  0
 23  4  1  0
 46 27  2  0
 14  8  1  0
 40 31  1  0
M  CHG  4  10  -1  11  -1  28  -1  45  -1
M  END
>  <UniqueID>  (88) 
84

>  <SMILES>  (88) 
C=c1/c(=C\c2[nH]c(=O)[n-]c2[O-])cc(C)n1Cc1[n-]c(=Nc2ccccc2C)[n-]c1C

>  <Energy>  (88) 
155.62750726401535

>  <Genealogy>  (88) 
C=c1c(=Cc2[nH]c(=O)[n-]c2[O-])cc(C)n1Cc1[n-]c(=Nc2ccccc2C)[n-]c1C (protonated)
C=c1/c(=C\c2[nH]c(=O)[n-]c2[O-])cc(C)n1Cc1[n-]c(=Nc2ccccc2C)[n-]c1C (cis-trans isomerization)
C=c1/c(=C\c2[nH]c(=O)[n-]c2[O-])cc(C)n1Cc1[n-]c(=Nc2ccccc2C)[n-]c1C (3D coordinates assigned)
C=c1/c(=C\c2[nH]c(=O)[n-]c2[O-])cc(C)n1Cc1[n-]c(=Nc2ccccc2C)[n-]c1C (optimized conformer: 155.62750726401535 kcal/mol)

>  <smiles>  (88) 
C=c1c(=Cc2[nH]c(=O)[nH]c2O)cc(C)n1Cc1[nH]c(=Nc2ccccc2C)[nH]c1C

>  <score_type>  (88) 
oracle

>  <origin>  (88) 
adg

>  <m_score__min__energy>  (88) 
-16.949999999999999

>  <m_primary>  (88) 
energy

$$$$
89:0
     RDKit          3D

 55 58  0  0  0  0  0  0  0  0999 V2000
   63.3860   32.0180   47.9280 C   0  0  0  0  0  0  0  0  0  0  0  0
   62.7300   33.6180   47.5160 S   0  0  0  0  0  0  0  0  0  0  0  0
   62.7160   34.4900   48.7440 O   0  0  0  0  0  0  0  0  0  0  0  0
   63.6030   34.2650   46.4770 O   0  0  0  0  0  0  0  0  0  0  0  0
   61.0910   33.4380   46.8970 C   0  0  0  0  0  0  0  0  0  0  0  0
   60.4180   34.5460   46.3590 C   0  0  0  0  0  0  0  0  0  0  0  0
   59.1130   34.4080   45.8770 C   0  0  0  0  0  0  0  0  0  0  0  0
   58.4610   33.1640   45.9380 C   0  0  0  0  0  0  0  0  0  0  0  0
   57.0700   33.0120   45.3890 C   0  0  0  0  0  0  0  0  0  0  0  0
   57.0040   31.8150   44.4950 C   0  0  0  0  0  0  0  0  0  0  0  0
   57.1350   31.9590   43.2510 O   0  0  0  0  0  0  0  0  0  0  0  0
   56.6810   30.5350   45.0520 N   0  0  0  0  0  0  0  0  0  0  0  0
   57.5710   29.4140   45.1490 C   0  0  0  0  0  0  0  0  0  0  0  0
   57.2080   28.3440   45.9730 C   0  0  0  0  0  0  0  0  0  0  0  0
   58.0570   27.2350   46.1260 C   0  0  0  0  0  0  0  0  0  0  0  0
   57.6480   26.0750   47.0010 C   0  0  0  0  0  0  0  0  0  0  0  0
   56.5440   25.2690   46.3670 C   0  0  0  0  0  0  0  0  0  0  0  0
   55.2990   25.8180   46.3190 N   0  0  0  0  0  0  0  0  0  0  0  0
   54.2650   25.1810   45.7710 N   0  0  0  0  0  0  0  0  0  0  0  0
   54.3980   23.9470   45.2220 C   0  0  0  0  0  0  0  0  0  0  0  0
   53.3900   23.3760   44.7290 O   0  0  0  0  0  0  0  0  0  0  0  0
   55.6560   23.3270   45.2150 C   0  0  0  0  0  0  0  0  0  0  0  0
   56.7480   23.9910   45.7960 C   0  0  0  0  0  0  0  0  0  0  0  0
   58.0700   23.2560   45.8300 C   0  0  0  0  0  0  0  0  0  0  0  0
   58.3720   22.6080   44.4680 C   0  0  0  0  0  0  0  0  0  0  0  0
   57.1590   21.8980   43.8130 C   0  0  0  0  0  0  0  0  0  0  0  0
   55.8700   21.9430   44.6510 C   0  0  0  0  0  0  0  0  0  0  0  0
   59.2780   27.2060   45.4320 C   0  0  0  0  0  0  0  0  0  0  0  0
   59.6590   28.2850   44.6320 C   0  0  0  0  0  0  0  0  0  0  0  0
   58.8190   29.3940   44.4960 C   0  0  0  0  0  0  0  0  0  0  0  0
   59.2520   30.4580   43.7740 F   0  0  0  0  0  0  0  0  0  0  0  0
   59.1390   32.0580   46.4750 C   0  0  0  0  0  0  0  0  0  0  0  0
   60.4440   32.1970   46.9590 C   0  0  0  0  0  0  0  0  0  0  0  0
   63.4301   31.9104   49.0218 H   0  0  0  0  0  0  0  0  0  0  0  0
   62.7359   31.2361   47.5086 H   0  0  0  0  0  0  0  0  0  0  0  0
   64.3979   31.9175   47.5086 H   0  0  0  0  0  0  0  0  0  0  0  0
   60.9183   35.5247   46.3165 H   0  0  0  0  0  0  0  0  0  0  0  0
   58.5936   35.2774   45.4477 H   0  0  0  0  0  0  0  0  0  0  0  0
   56.3613   32.8856   46.2208 H   0  0  0  0  0  0  0  0  0  0  0  0
   56.8084   33.9107   44.8111 H   0  0  0  0  0  0  0  0  0  0  0  0
   56.2469   28.3709   46.5074 H   0  0  0  0  0  0  0  0  0  0  0  0
   58.5196   25.4234   47.1616 H   0  0  0  0  0  0  0  0  0  0  0  0
   57.2784   26.4761   47.9562 H   0  0  0  0  0  0  0  0  0  0  0  0
   58.8718   23.9678   46.0760 H   0  0  0  0  0  0  0  0  0  0  0  0
   58.0128   22.4641   46.5914 H   0  0  0  0  0  0  0  0  0  0  0  0
   58.7214   23.3944   43.7828 H   0  0  0  0  0  0  0  0  0  0  0  0
   59.1290   21.8312   44.6511 H   0  0  0  0  0  0  0  0  0  0  0  0
   56.9580   22.3817   42.8457 H   0  0  0  0  0  0  0  0  0  0  0  0
   57.4320   20.8372   43.7124 H   0  0  0  0  0  0  0  0  0  0  0  0
   55.0142   21.6751   44.0140 H   0  0  0  0  0  0  0  0  0  0  0  0
   55.9606   21.2291   45.4830 H   0  0  0  0  0  0  0  0  0  0  0  0
   59.9368   26.3294   45.5192 H   0  0  0  0  0  0  0  0  0  0  0  0
   60.6249   28.2623   44.1062 H   0  0  0  0  0  0  0  0  0  0  0  0
   58.6417   31.0777   46.5153 H   0  0  0  0  0  0  0  0  0  0  0  0
   60.9641   31.3287   47.3899 H   0  0  0  0  0  0  0  0  0  0  0  0
  1  2  1  0
  2  3  2  0
  2  4  2  0
  2  5  1  0
  5  6  2  0
  6  7  1  0
  7  8  2  0
  8  9  1  0
  9 10  1  0
 10 11  2  0
 10 12  1  0
 12 13  1  0
 13 14  2  0
 14 15  1  0
 15 16  1  0
 16 17  1  0
 17 18  2  0
 18 19  1  0
 19 20  1  0
 20 21  2  0
 20 22  1  0
 22 23  2  0
 23 24  1  0
 24 25  1  0
 25 26  1  0
 26 27  1  0
 15 28  2  0
 28 29  1  0
 29 30  2  0
 30 31  1  0
  8 32  1  0
 32 33  2  0
 33  5  1  0
 30 13  1  0
 23 17  1  0
 27 22  1  0
  1 34  1  0
  1 35  1  0
  1 36  1  0
  6 37  1  0
  7 38  1  0
  9 39  1  0
  9 40  1  0
 14 41  1  0
 16 42  1  0
 16 43  1  0
 24 44  1  0
 24 45  1  0
 25 46  1  0
 25 47  1  0
 26 48  1  0
 26 49  1  0
 27 50  1  0
 27 51  1  0
 28 52  1  0
 29 53  1  0
 32 54  1  0
 33 55  1  0
M  CHG  2  12  -1  19  -1
M  END
>  <UniqueID>  (89) 
85

>  <SMILES>  (89) 
CS(=O)(=O)c1ccc(CC(=O)[N-]c2cc(Cc3n[n-]c(=O)c4c3CCCC4)ccc2F)cc1

>  <Energy>  (89) 
66.18729610428359

>  <Genealogy>  (89) 
CS(=O)(=O)c1ccc(CC(=O)[N-]c2cc(Cc3n[n-]c(=O)c4c3CCCC4)ccc2F)cc1 (protonated)
CS(=O)(=O)c1ccc(CC(=O)[N-]c2cc(Cc3n[n-]c(=O)c4c3CCCC4)ccc2F)cc1 (3D coordinates assigned)
CS(=O)(=O)c1ccc(CC(=O)[N-]c2cc(Cc3n[n-]c(=O)c4c3CCCC4)ccc2F)cc1 (nonaromatic ring conformer: 66.18729610428359 kcal/mol)

>  <smiles>  (89) 
CS(=O)(=O)c1ccc(CC(=O)Nc2cc(Cc3n[nH]c(=O)c4c3CCCC4)ccc2F)cc1

>  <score_type>  (89) 
oracle

>  <origin>  (89) 
adg

>  <m_score__min__energy>  (89) 
-14.4

>  <m_primary>  (89) 
energy

$$$$
90:0
     RDKit          3D

 57 60  0  0  0  0  0  0  0  0999 V2000
   58.8080   22.6720   44.9970 C   0  0  0  0  0  0  0  0  0  0  0  0
   58.5380   23.6200   46.0220 O   0  0  0  0  0  0  0  0  0  0  0  0
   57.9480   24.8750   45.8050 C   0  0  0  0  0  0  0  0  0  0  0  0
   56.8080   25.2110   46.5440 C   0  0  0  0  0  0  0  0  0  0  0  0
   56.1780   26.4460   46.3590 C   0  0  0  0  0  0  0  0  0  0  0  0
   56.6690   27.3560   45.4170 C   0  0  0  0  0  0  0  0  0  0  0  0
   55.9910   28.6100   45.2490 N   0  0  0  0  0  0  0  0  0  0  0  0
   55.8910   29.3640   44.0340 C   0  0  0  0  0  0  0  0  0  0  0  0
   54.7640   29.7100   43.5810 O   0  0  0  0  0  0  0  0  0  0  0  0
   57.1380   29.8420   43.3620 C   0  0  0  0  0  0  0  0  0  0  0  0
   57.5480   31.5310   43.9140 S   0  0  0  0  0  0  0  0  0  0  0  0
   58.1850   30.9790   45.5110 C   0  0  0  0  0  0  0  0  0  0  0  0
   58.7810   29.7570   45.5620 N   0  0  0  0  0  0  0  0  0  0  0  0
   59.2840   29.2630   46.7190 C   0  0  0  0  0  0  0  0  0  0  0  0
   59.8770   28.0370   46.7380 N   0  0  0  0  0  0  0  0  0  0  0  0
   60.3970   27.5100   47.8780 C   0  0  0  0  0  0  0  0  0  0  0  0
   60.3310   28.2280   49.0740 C   0  0  0  0  0  0  0  0  0  0  0  0
   59.7270   29.4880   49.0860 C   0  0  0  0  0  0  0  0  0  0  0  0
   59.1930   30.0180   47.8990 C   0  0  0  0  0  0  0  0  0  0  0  0
   58.5780   31.2770   47.8400 C   0  0  0  0  0  0  0  0  0  0  0  0
   58.4860   31.9720   48.8910 O   0  0  0  0  0  0  0  0  0  0  0  0
   58.0800   31.7520   46.6480 N   0  0  0  0  0  0  0  0  0  0  0  0
   57.4930   33.1100   46.5880 C   0  0  0  0  0  0  0  0  0  0  0  0
   58.3350   34.0320   45.6950 C   0  0  0  0  0  0  0  0  0  0  0  0
   59.5120   34.5420   46.4270 N   0  0  0  0  0  0  0  0  0  0  0  0
   60.7730   33.8780   46.0130 C   0  0  0  0  0  0  0  0  0  0  0  0
   61.3050   32.9150   47.0900 C   0  0  0  0  0  0  0  0  0  0  0  0
   61.5460   33.5480   48.3390 O   0  0  0  0  0  0  0  0  0  0  0  0
   60.6270   34.5920   48.6380 C   0  0  0  0  0  0  0  0  0  0  0  0
   59.2910   34.4880   47.8870 C   0  0  0  0  0  0  0  0  0  0  0  0
   57.8320   27.0370   44.6940 C   0  0  0  0  0  0  0  0  0  0  0  0
   58.4610   25.8020   44.8790 C   0  0  0  0  0  0  0  0  0  0  0  0
   59.0824   21.7086   45.4516 H   0  0  0  0  0  0  0  0  0  0  0  0
   57.9114   22.5410   44.3733 H   0  0  0  0  0  0  0  0  0  0  0  0
   59.6390   23.0330   44.3733 H   0  0  0  0  0  0  0  0  0  0  0  0
   56.4038   24.4973   47.2770 H   0  0  0  0  0  0  0  0  0  0  0  0
   55.2916   26.7030   46.9575 H   0  0  0  0  0  0  0  0  0  0  0  0
   57.9682   29.1662   43.6149 H   0  0  0  0  0  0  0  0  0  0  0  0
   56.9768   29.8508   42.2739 H   0  0  0  0  0  0  0  0  0  0  0  0
   58.8530   29.1840   44.6890 H   0  0  0  0  0  0  0  0  0  0  0  0
   60.8702   26.5172   47.8585 H   0  0  0  0  0  0  0  0  0  0  0  0
   60.7509   27.8053   49.9987 H   0  0  0  0  0  0  0  0  0  0  0  0
   59.6697   30.0634   50.0218 H   0  0  0  0  0  0  0  0  0  0  0  0
   56.4742   33.0442   46.1784 H   0  0  0  0  0  0  0  0  0  0  0  0
   57.4721   33.5290   47.6049 H   0  0  0  0  0  0  0  0  0  0  0  0
   58.6752   33.4680   44.8140 H   0  0  0  0  0  0  0  0  0  0  0  0
   57.7145   34.8866   45.3874 H   0  0  0  0  0  0  0  0  0  0  0  0
   60.5872   33.3092   45.0900 H   0  0  0  0  0  0  0  0  0  0  0  0
   61.5303   34.6602   45.8561 H   0  0  0  0  0  0  0  0  0  0  0  0
   60.5644   32.1158   47.2406 H   0  0  0  0  0  0  0  0  0  0  0  0
   62.2685   32.5242   46.7310 H   0  0  0  0  0  0  0  0  0  0  0  0
   60.4186   34.5695   49.7178 H   0  0  0  0  0  0  0  0  0  0  0  0
   61.0993   35.5315   48.3150 H   0  0  0  0  0  0  0  0  0  0  0  0
   58.8043   33.5357   48.1444 H   0  0  0  0  0  0  0  0  0  0  0  0
   58.6510   35.3329   48.1812 H   0  0  0  0  0  0  0  0  0  0  0  0
   58.2489   27.7622   43.9797 H   0  0  0  0  0  0  0  0  0  0  0  0
   59.3613   25.5539   44.2978 H   0  0  0  0  0  0  0  0  0  0  0  0
  1  2  1  0
  2  3  1  0
  3  4  2  0
  4  5  1  0
  5  6  2  0
  6  7  1  0
  7  8  1  0
  8  9  2  0
  8 10  1  0
 10 11  1  0
 11 12  1  0
 12 13  2  0
 13 14  1  0
 14 15  2  0
 15 16  1  0
 16 17  2  0
 17 18  1  0
 18 19  2  0
 19 20  1  0
 20 21  2  0
 20 22  1  0
 22 23  1  0
 23 24  1  0
 24 25  1  0
 25 26  1  0
 26 27  1  0
 27 28  1  0
 28 29  1  0
 29 30  1  0
  6 31  1  0
 31 32  2  0
 32  3  1  0
 22 12  1  0
 30 25  1  0
 19 14  1  0
  1 33  1  0
  1 34  1  0
  1 35  1  0
  4 36  1  0
  5 37  1  0
 10 38  1  0
 10 39  1  0
 13 40  1  0
 16 41  1  0
 17 42  1  0
 18 43  1  0
 23 44  1  0
 23 45  1  0
 24 46  1  0
 24 47  1  0
 26 48  1  0
 26 49  1  0
 27 50  1  0
 27 51  1  0
 29 52  1  0
 29 53  1  0
 30 54  1  0
 30 55  1  0
 31 56  1  0
 32 57  1  0
M  CHG  2   7  -1  13   1
M  END
>  <UniqueID>  (90) 
86

>  <SMILES>  (90) 
COc1ccc([N-]C(=O)CSc2[nH+]c3ncccc3c(=O)n2CCN2CCOCC2)cc1

>  <Energy>  (90) 
79.42444801022691

>  <Genealogy>  (90) 
COc1ccc([N-]C(=O)CSc2[nH+]c3ncccc3c(=O)n2CCN2CCOCC2)cc1 (protonated)
COc1ccc([N-]C(=O)CSc2[nH+]c3ncccc3c(=O)n2CCN2CCOCC2)cc1 (3D coordinates assigned)
COc1ccc([N-]C(=O)CSc2[nH+]c3ncccc3c(=O)n2CCN2CCOCC2)cc1 (nonaromatic ring conformer: 79.42444801022691 kcal/mol)

>  <smiles>  (90) 
COc1ccc(NC(=O)CSc2nc3ncccc3c(=O)n2CCN2CCOCC2)cc1

>  <score_type>  (90) 
oracle

>  <origin>  (90) 
adg

>  <m_score__min__energy>  (90) 
-8.1400000000000006

>  <m_primary>  (90) 
energy

$$$$
91:0
     RDKit          3D

 50 52  0  0  0  0  0  0  0  0999 V2000
   61.8260   32.6840   46.7760 C   0  0  0  0  0  0  0  0  0  0  0  0
   62.3040   32.8960   48.1820 C   0  0  0  0  0  0  0  0  0  0  0  0
   62.9410   33.9540   48.4460 O   0  0  0  0  0  0  0  0  0  0  0  0
   62.0420   31.9280   49.2220 N   0  0  0  0  0  0  0  0  0  0  0  0
   62.4780   32.1760   50.6020 C   0  0  0  0  0  0  0  0  0  0  0  0
   61.3940   31.7540   51.6160 C   0  0  0  0  0  0  0  0  0  0  0  0
   60.5560   30.6110   51.1780 N   0  0  0  0  0  0  0  0  0  0  0  0
   58.9470   31.1340   50.7240 S   0  0  0  0  0  0  0  0  0  0  0  0
   58.2120   31.6580   51.9280 O   0  0  0  0  0  0  0  0  0  0  0  0
   58.1840   29.9600   50.1800 O   0  0  0  0  0  0  0  0  0  0  0  0
   59.0150   32.3760   49.4730 C   0  0  0  0  0  0  0  0  0  0  0  0
   59.5790   33.6220   49.7670 C   0  0  0  0  0  0  0  0  0  0  0  0
   59.6490   34.6100   48.7830 C   0  0  0  0  0  0  0  0  0  0  0  0
   59.1480   34.3630   47.5030 C   0  0  0  0  0  0  0  0  0  0  0  0
   58.5520   33.1260   47.2000 C   0  0  0  0  0  0  0  0  0  0  0  0
   58.0140   32.8460   45.8480 C   0  0  0  0  0  0  0  0  0  0  0  0
   57.0200   33.5000   45.4350 O   0  0  0  0  0  0  0  0  0  0  0  0
   58.5770   31.8440   44.9880 N   0  0  0  0  0  0  0  0  0  0  0  0
   58.6760   30.4420   45.2760 C   0  0  0  0  0  0  0  0  0  0  0  0
   59.8350   29.9870   45.9210 C   0  0  0  0  0  0  0  0  0  0  0  0
   60.0360   28.6250   46.1420 C   0  0  0  0  0  0  0  0  0  0  0  0
   59.0750   27.7020   45.7310 C   0  0  0  0  0  0  0  0  0  0  0  0
   57.8960   28.1400   45.1240 C   0  0  0  0  0  0  0  0  0  0  0  0
   57.6660   29.5130   44.9100 C   0  0  0  0  0  0  0  0  0  0  0  0
   56.3480   29.9360   44.3780 C   0  0  0  0  0  0  0  0  0  0  0  0
   55.1520   29.3230   44.8540 N   0  0  0  0  0  0  0  0  0  0  0  0
   56.2670   30.8660   43.5320 O   0  0  0  0  0  0  0  0  0  0  0  0
   58.5020   32.1310   48.1920 C   0  0  0  0  0  0  0  0  0  0  0  0
   61.1930   29.7840   50.1350 C   0  0  0  0  0  0  0  0  0  0  0  0
   61.5160   30.6000   48.8770 C   0  0  0  0  0  0  0  0  0  0  0  0
   60.8206   32.2381   46.7938 H   0  0  0  0  0  0  0  0  0  0  0  0
   61.7893   33.6502   46.2516 H   0  0  0  0  0  0  0  0  0  0  0  0
   62.5176   32.0082   46.2516 H   0  0  0  0  0  0  0  0  0  0  0  0
   63.3949   31.6005   50.7972 H   0  0  0  0  0  0  0  0  0  0  0  0
   62.6631   33.2539   50.7196 H   0  0  0  0  0  0  0  0  0  0  0  0
   61.8924   31.4747   52.5560 H   0  0  0  0  0  0  0  0  0  0  0  0
   60.7175   32.6141   51.7280 H   0  0  0  0  0  0  0  0  0  0  0  0
   59.9683   33.8238   50.7758 H   0  0  0  0  0  0  0  0  0  0  0  0
   60.1000   35.5857   49.0166 H   0  0  0  0  0  0  0  0  0  0  0  0
   59.2200   35.1401   46.7279 H   0  0  0  0  0  0  0  0  0  0  0  0
   60.5924   30.7111   46.2557 H   0  0  0  0  0  0  0  0  0  0  0  0
   60.9531   28.2785   46.6408 H   0  0  0  0  0  0  0  0  0  0  0  0
   59.2460   26.6264   45.8852 H   0  0  0  0  0  0  0  0  0  0  0  0
   57.1397   27.4056   44.8100 H   0  0  0  0  0  0  0  0  0  0  0  0
   55.1780   28.6400   45.6430 H   0  0  0  0  0  0  0  0  0  0  0  0
   58.0566   31.1522   47.9608 H   0  0  0  0  0  0  0  0  0  0  0  0
   62.1271   29.3633   50.5357 H   0  0  0  0  0  0  0  0  0  0  0  0
   60.4884   28.9875   49.8535 H   0  0  0  0  0  0  0  0  0  0  0  0
   62.2681   30.0600   48.2830 H   0  0  0  0  0  0  0  0  0  0  0  0
   60.5878   30.7331   48.3019 H   0  0  0  0  0  0  0  0  0  0  0  0
  1  2  1  0
  2  3  2  0
  2  4  1  0
  4  5  1  0
  5  6  1  0
  6  7  1  0
  7  8  1  0
  8  9  2  0
  8 10  2  0
  8 11  1  0
 11 12  2  0
 12 13  1  0
 13 14  2  0
 14 15  1  0
 15 16  1  0
 16 17  2  0
 16 18  1  0
 18 19  1  0
 19 20  2  0
 20 21  1  0
 21 22  2  0
 22 23  1  0
 23 24  2  0
 24 25  1  0
 25 26  1  0
 25 27  2  0
 15 28  2  0
  7 29  1  0
 29 30  1  0
 30  4  1  0
 28 11  1  0
 24 19  1  0
  1 31  1  0
  1 32  1  0
  1 33  1  0
  5 34  1  0
  5 35  1  0
  6 36  1  0
  6 37  1  0
 12 38  1  0
 13 39  1  0
 14 40  1  0
 20 41  1  0
 21 42  1  0
 22 43  1  0
 23 44  1  0
 26 45  1  0
 28 46  1  0
 29 47  1  0
 29 48  1  0
 30 49  1  0
 30 50  1  0
M  CHG  2  18  -1  26  -1
M  END
>  <UniqueID>  (91) 
87

>  <SMILES>  (91) 
CC(=O)N1CCN(S(=O)(=O)c2cccc(C(=O)[N-]c3ccccc3C([NH-])=O)c2)CC1

>  <Energy>  (91) 
67.88935520816915

>  <Genealogy>  (91) 
CC(=O)N1CCN(S(=O)(=O)c2cccc(C(=O)[N-]c3ccccc3C([NH-])=O)c2)CC1 (protonated)
CC(=O)N1CCN(S(=O)(=O)c2cccc(C(=O)[N-]c3ccccc3C([NH-])=O)c2)CC1 (3D coordinates assigned)
CC(=O)N1CCN(S(=O)(=O)c2cccc(C(=O)[N-]c3ccccc3C([NH-])=O)c2)CC1 (nonaromatic ring conformer: 67.88935520816915 kcal/mol)

>  <smiles>  (91) 
CC(=O)N1CCN(S(=O)(=O)c2cccc(C(=O)Nc3ccccc3C(N)=O)c2)CC1

>  <score_type>  (91) 
oracle

>  <origin>  (91) 
adg

>  <m_score__min__energy>  (91) 
-15.529999999999999

>  <m_primary>  (91) 
energy

$$$$
