0:0
     RDKit          3D

 43 45  0  0  0  0  0  0  0  0999 V2000
   59.5810   33.6890   49.3200 C   0  0  0  0  0  0  0  0  0  0  0  0
   59.2280   33.1280   47.9740 C   0  0  0  0  0  0  0  0  0  0  0  0
   59.6880   31.8620   47.5970 C   0  0  0  0  0  0  0  0  0  0  0  0
   59.3950   31.3550   46.3310 C   0  0  0  0  0  0  0  0  0  0  0  0
   58.6500   32.1100   45.4080 C   0  0  0  0  0  0  0  0  0  0  0  0
   58.4020   31.5140   44.0380 C   0  0  0  0  0  0  0  0  0  0  0  0
   56.6690   30.9530   43.8650 S   0  0  0  0  0  0  0  0  0  0  0  0
   56.9610   29.3420   44.5880 C   0  0  0  0  0  0  0  0  0  0  0  0
   55.9160   28.6030   45.0390 N   0  0  0  0  0  0  0  0  0  0  0  0
   56.1100   27.3900   45.6160 C   0  0  0  0  0  0  0  0  0  0  0  0
   55.0080   26.6740   46.0690 O   0  0  0  0  0  0  0  0  0  0  0  0
   57.4120   26.8770   45.7530 C   0  0  0  0  0  0  0  0  0  0  0  0
   57.6510   25.5150   46.3630 C   0  0  0  0  0  0  0  0  0  0  0  0
   57.4860   24.4330   45.3280 C   0  0  0  0  0  0  0  0  0  0  0  0
   58.1160   23.1880   45.4930 C   0  0  0  0  0  0  0  0  0  0  0  0
   57.9360   22.1750   44.5470 C   0  0  0  0  0  0  0  0  0  0  0  0
   57.1220   22.3950   43.4320 C   0  0  0  0  0  0  0  0  0  0  0  0
   56.4880   23.6280   43.2620 C   0  0  0  0  0  0  0  0  0  0  0  0
   56.6650   24.6440   44.2060 C   0  0  0  0  0  0  0  0  0  0  0  0
   58.4760   27.6570   45.2610 C   0  0  0  0  0  0  0  0  0  0  0  0
   59.6650   27.2500   45.3430 O   0  0  0  0  0  0  0  0  0  0  0  0
   58.2270   28.8650   44.6970 N   0  0  0  0  0  0  0  0  0  0  0  0
   58.1860   33.3970   45.7820 C   0  0  0  0  0  0  0  0  0  0  0  0
   57.3620   34.2500   44.8510 C   0  0  0  0  0  0  0  0  0  0  0  0
   58.4910   33.8940   47.0620 C   0  0  0  0  0  0  0  0  0  0  0  0
   59.1718   33.0386   50.1071 H   0  0  0  0  0  0  0  0  0  0  0  0
   60.6752   33.7415   49.4199 H   0  0  0  0  0  0  0  0  0  0  0  0
   59.1548   34.6982   49.4199 H   0  0  0  0  0  0  0  0  0  0  0  0
   60.2835   31.2635   48.3021 H   0  0  0  0  0  0  0  0  0  0  0  0
   59.7510   30.3525   46.0514 H   0  0  0  0  0  0  0  0  0  0  0  0
   58.6109   32.2755   43.2722 H   0  0  0  0  0  0  0  0  0  0  0  0
   59.0641   30.6448   43.9110 H   0  0  0  0  0  0  0  0  0  0  0  0
   58.6729   25.4748   46.7680 H   0  0  0  0  0  0  0  0  0  0  0  0
   56.9164   25.3525   47.1655 H   0  0  0  0  0  0  0  0  0  0  0  0
   58.7541   23.0097   46.3711 H   0  0  0  0  0  0  0  0  0  0  0  0
   58.4352   21.2039   44.6799 H   0  0  0  0  0  0  0  0  0  0  0  0
   56.9807   21.5969   42.6883 H   0  0  0  0  0  0  0  0  0  0  0  0
   55.8483   23.7999   42.3838 H   0  0  0  0  0  0  0  0  0  0  0  0
   56.1602   25.6119   44.0706 H   0  0  0  0  0  0  0  0  0  0  0  0
   56.7167   34.9180   45.4404 H   0  0  0  0  0  0  0  0  0  0  0  0
   58.0300   34.8512   44.2167 H   0  0  0  0  0  0  0  0  0  0  0  0
   56.7381   33.6031   44.2167 H   0  0  0  0  0  0  0  0  0  0  0  0
   58.1460   34.8978   47.3506 H   0  0  0  0  0  0  0  0  0  0  0  0
  1  2  1  0
  2  3  2  0
  3  4  1  0
  4  5  2  0
  5  6  1  0
  6  7  1  0
  7  8  1  0
  8  9  2  0
  9 10  1  0
 10 11  1  0
 10 12  2  0
 12 13  1  0
 13 14  1  0
 14 15  2  0
 15 16  1  0
 16 17  2  0
 17 18  1  0
 18 19  2  0
 12 20  1  0
 20 21  2  0
 20 22  1  0
  5 23  1  0
 23 24  1  0
 23 25  2  0
 25  2  1  0
 22  8  1  0
 19 14  1  0
  1 26  1  0
  1 27  1  0
  1 28  1  0
  3 29  1  0
  4 30  1  0
  6 31  1  0
  6 32  1  0
 13 33  1  0
 13 34  1  0
 15 35  1  0
 16 36  1  0
 17 37  1  0
 18 38  1  0
 19 39  1  0
 24 40  1  0
 24 41  1  0
 24 42  1  0
 25 43  1  0
M  CHG  2  11  -1  22  -1
M  END
>  <UniqueID>  (1) 
1

>  <SMILES>  (1) 
Cc1ccc(CSc2nc([O-])c(Cc3ccccc3)c(=O)[n-]2)c(C)c1

>  <Energy>  (1) 
42.27874521496137

>  <Genealogy>  (1) 
Cc1ccc(CSc2nc([O-])c(Cc3ccccc3)c(=O)[n-]2)c(C)c1 (protonated)
Cc1ccc(CSc2nc([O-])c(Cc3ccccc3)c(=O)[n-]2)c(C)c1 (3D coordinates assigned)
Cc1ccc(CSc2nc([O-])c(Cc3ccccc3)c(=O)[n-]2)c(C)c1 (optimized conformer: 42.27874521496137 kcal/mol)

>  <smiles>  (1) 
Cc1ccc(CSc2nc(O)c(Cc3ccccc3)c(=O)[nH]2)c(C)c1

>  <score_type>  (1) 
oracle

>  <origin>  (1) 
adg

>  <m_score__min__energy>  (1) 
-13.58

>  <m_primary>  (1) 
energy

$$$$
1:0
     RDKit          3D

 80 85  0  0  0  0  0  0  0  0999 V2000
   65.6100   33.3820   50.6750 C   0  0  0  0  0  0  0  0  0  0  0  0
   64.8800   33.4030   49.4520 O   0  0  0  0  0  0  0  0  0  0  0  0
   63.8110   32.5460   49.1430 C   0  0  0  0  0  0  0  0  0  0  0  0
   63.1840   31.7520   50.1140 C   0  0  0  0  0  0  0  0  0  0  0  0
   62.0980   30.9120   49.7870 C   0  0  0  0  0  0  0  0  0  0  0  0
   61.4810   30.1010   50.7700 C   0  0  0  0  0  0  0  0  0  0  0  0
   60.5860   29.0900   50.3870 C   0  0  0  0  0  0  0  0  0  0  0  0
   60.0480   29.0780   49.0740 C   0  0  0  0  0  0  0  0  0  0  0  0
   58.9970   28.2040   48.7100 C   0  0  0  0  0  0  0  0  0  0  0  0
   58.4170   28.2390   47.4330 C   0  0  0  0  0  0  0  0  0  0  0  0
   57.4200   27.3220   47.0480 O   0  0  0  0  0  0  0  0  0  0  0  0
   57.6800   26.0450   46.4620 C   0  0  0  0  0  0  0  0  0  0  0  0
   56.6380   25.7180   45.3970 C   0  0  0  0  0  0  0  0  0  0  0  0
   56.0690   24.3710   45.6450 N   0  0  0  0  0  0  0  0  0  0  0  0
   54.9750   24.0280   44.7080 C   0  0  0  0  0  0  0  0  0  0  0  0
   55.4810   23.2790   43.4610 C   0  0  0  0  0  0  0  0  0  0  0  0
   56.8360   23.5860   43.2140 O   0  0  0  0  0  0  0  0  0  0  0  0
   57.6490   23.0380   44.2380 C   0  0  0  0  0  0  0  0  0  0  0  0
   57.1000   23.3150   45.6590 C   0  0  0  0  0  0  0  0  0  0  0  0
   58.8550   29.2030   46.5150 C   0  0  0  0  0  0  0  0  0  0  0  0
   58.2650   29.3290   45.2140 N   0  0  0  0  0  0  0  0  0  0  0  0
   57.0880   30.0850   44.9190 C   0  0  0  0  0  0  0  0  0  0  0  0
   55.9540   29.5400   44.9880 O   0  0  0  0  0  0  0  0  0  0  0  0
   57.2170   31.5050   44.5350 C   0  0  0  0  0  0  0  0  0  0  0  0
   57.4290   31.7920   43.3280 O   0  0  0  0  0  0  0  0  0  0  0  0
   57.0170   32.5750   45.4680 N   0  0  0  0  0  0  0  0  0  0  0  0
   58.0220   33.2030   46.2750 C   0  0  0  0  0  0  0  0  0  0  0  0
   58.8490   34.1750   45.6950 C   0  0  0  0  0  0  0  0  0  0  0  0
   59.8530   34.7890   46.4500 C   0  0  0  0  0  0  0  0  0  0  0  0
   60.0520   34.4190   47.7830 C   0  0  0  0  0  0  0  0  0  0  0  0
   59.2510   33.4290   48.3610 C   0  0  0  0  0  0  0  0  0  0  0  0
   58.2440   32.8150   47.6080 C   0  0  0  0  0  0  0  0  0  0  0  0
   59.9170   30.0450   46.8400 C   0  0  0  0  0  0  0  0  0  0  0  0
   60.5480   29.9970   48.1070 C   0  0  0  0  0  0  0  0  0  0  0  0
   61.6440   30.8510   48.4410 C   0  0  0  0  0  0  0  0  0  0  0  0
   62.3160   31.6350   47.4710 C   0  0  0  0  0  0  0  0  0  0  0  0
   63.3780   32.4860   47.8180 C   0  0  0  0  0  0  0  0  0  0  0  0
   64.0410   33.2820   46.8700 O   0  0  0  0  0  0  0  0  0  0  0  0
   63.4020   34.2080   45.9960 C   0  0  0  0  0  0  0  0  0  0  0  0
   60.2980   28.0460   51.4590 C   0  0  0  0  0  0  0  0  0  0  0  0
   59.8250   28.6600   52.7190 N   0  0  0  0  0  0  0  0  0  0  0  0
   58.3580   28.7740   52.7240 C   0  0  0  0  0  0  0  0  0  0  0  0
   60.4630   29.9630   53.0500 C   0  0  0  0  0  0  0  0  0  0  0  0
   61.7540   30.2400   52.2570 C   0  0  0  0  0  0  0  0  0  0  0  0
   64.9079   33.4022   51.5215 H   0  0  0  0  0  0  0  0  0  0  0  0
   66.2171   32.4660   50.7240 H   0  0  0  0  0  0  0  0  0  0  0  0
   66.2688   34.2616   50.7240 H   0  0  0  0  0  0  0  0  0  0  0  0
   63.5461   31.7845   51.1522 H   0  0  0  0  0  0  0  0  0  0  0  0
   58.6247   27.4778   49.4476 H   0  0  0  0  0  0  0  0  0  0  0  0
   58.6779   26.0565   45.9993 H   0  0  0  0  0  0  0  0  0  0  0  0
   57.6332   25.2785   47.2496 H   0  0  0  0  0  0  0  0  0  0  0  0
   55.8327   26.4664   45.4326 H   0  0  0  0  0  0  0  0  0  0  0  0
   57.1155   25.7328   44.4062 H   0  0  0  0  0  0  0  0  0  0  0  0
   54.2483   23.3900   45.2323 H   0  0  0  0  0  0  0  0  0  0  0  0
   54.5164   24.9690   44.3701 H   0  0  0  0  0  0  0  0  0  0  0  0
   55.3794   22.1958   43.6237 H   0  0  0  0  0  0  0  0  0  0  0  0
   54.8823   23.5907   42.5924 H   0  0  0  0  0  0  0  0  0  0  0  0
   57.7106   21.9495   44.0920 H   0  0  0  0  0  0  0  0  0  0  0  0
   58.6361   23.5181   44.1670 H   0  0  0  0  0  0  0  0  0  0  0  0
   56.6585   22.3899   46.0581 H   0  0  0  0  0  0  0  0  0  0  0  0
   57.9338   23.6556   46.2905 H   0  0  0  0  0  0  0  0  0  0  0  0
   58.7074   34.4560   44.6410 H   0  0  0  0  0  0  0  0  0  0  0  0
   60.4869   35.5640   45.9944 H   0  0  0  0  0  0  0  0  0  0  0  0
   60.8387   34.9065   48.3775 H   0  0  0  0  0  0  0  0  0  0  0  0
   59.4126   33.1329   49.4080 H   0  0  0  0  0  0  0  0  0  0  0  0
   57.6244   32.0266   48.0602 H   0  0  0  0  0  0  0  0  0  0  0  0
   60.2751   30.7671   46.0914 H   0  0  0  0  0  0  0  0  0  0  0  0
   61.9980   31.5757   46.4196 H   0  0  0  0  0  0  0  0  0  0  0  0
   62.8762   34.9700   46.5901 H   0  0  0  0  0  0  0  0  0  0  0  0
   64.1574   34.6946   45.3616 H   0  0  0  0  0  0  0  0  0  0  0  0
   62.6790   33.6744   45.3616 H   0  0  0  0  0  0  0  0  0  0  0  0
   59.5239   27.3589   51.0865 H   0  0  0  0  0  0  0  0  0  0  0  0
   61.2354   27.5117   51.6729 H   0  0  0  0  0  0  0  0  0  0  0  0
   57.9960   28.8021   53.7623 H   0  0  0  0  0  0  0  0  0  0  0  0
   58.0603   29.6980   52.2067 H   0  0  0  0  0  0  0  0  0  0  0  0
   57.9211   27.9071   52.2067 H   0  0  0  0  0  0  0  0  0  0  0  0
   59.7436   30.7666   52.8339 H   0  0  0  0  0  0  0  0  0  0  0  0
   60.7415   29.9234   54.1134 H   0  0  0  0  0  0  0  0  0  0  0  0
   62.1025   31.2612   52.4709 H   0  0  0  0  0  0  0  0  0  0  0  0
   62.5268   29.5160   52.5547 H   0  0  0  0  0  0  0  0  0  0  0  0
  1  2  1  0
  2  3  1  0
  3  4  2  0
  4  5  1  0
  5  6  2  0
  6  7  1  0
  7  8  2  0
  8  9  1  0
  9 10  2  0
 10 11  1  0
 11 12  1  0
 12 13  1  0
 13 14  1  0
 14 15  1  0
 15 16  1  0
 16 17  1  0
 17 18  1  0
 18 19  1  0
 10 20  1  0
 20 21  1  0
 21 22  1  0
 22 23  2  0
 22 24  1  0
 24 25  2  0
 24 26  1  0
 26 27  1  0
 27 28  2  0
 28 29  1  0
 29 30  2  0
 30 31  1  0
 31 32  2  0
 20 33  2  0
 33 34  1  0
 34 35  2  0
 35 36  1  0
 36 37  2  0
 37 38  1  0
 38 39  1  0
  7 40  1  0
 40 41  1  0
 41 42  1  0
 41 43  1  0
 43 44  1  0
 37  3  1  0
 35  5  1  0
 44  6  1  0
 34  8  1  0
 19 14  1  0
 32 27  1  0
  1 45  1  0
  1 46  1  0
  1 47  1  0
  4 48  1  0
  9 49  1  0
 12 50  1  0
 12 51  1  0
 13 52  1  0
 13 53  1  0
 15 54  1  0
 15 55  1  0
 16 56  1  0
 16 57  1  0
 18 58  1  0
 18 59  1  0
 19 60  1  0
 19 61  1  0
 28 62  1  0
 29 63  1  0
 30 64  1  0
 31 65  1  0
 32 66  1  0
 33 67  1  0
 36 68  1  0
 39 69  1  0
 39 70  1  0
 39 71  1  0
 40 72  1  0
 40 73  1  0
 42 74  1  0
 42 75  1  0
 42 76  1  0
 43 77  1  0
 43 78  1  0
 44 79  1  0
 44 80  1  0
M  CHG  2  21  -1  26  -1
M  END
>  <UniqueID>  (2) 
2

>  <SMILES>  (2) 
COc1cc2c3c(c4cc(OCCN5CCOCC5)c([N-]C(=O)C(=O)[N-]c5ccccc5)cc4c2cc1OC)CN(C)CC3

>  <Energy>  (2) 
138.26874139035482

>  <Genealogy>  (2) 
COc1cc2c3c(c4cc(OCCN5CCOCC5)c([N-]C(=O)C(=O)[N-]c5ccccc5)cc4c2cc1OC)CN(C)CC3 (protonated)
COc1cc2c3c(c4cc(OCCN5CCOCC5)c([N-]C(=O)C(=O)[N-]c5ccccc5)cc4c2cc1OC)CN(C)CC3 (3D coordinates assigned)
COc1cc2c3c(c4cc(OCCN5CCOCC5)c([N-]C(=O)C(=O)[N-]c5ccccc5)cc4c2cc1OC)CN(C)CC3 (nonaromatic ring conformer: 138.26874139035482 kcal/mol)

>  <smiles>  (2) 
COc1cc2c3c(c4cc(OCCN5CCOCC5)c(NC(=O)C(=O)Nc5ccccc5)cc4c2cc1OC)CN(C)CC3

>  <score_type>  (2) 
oracle

>  <origin>  (2) 
adg

>  <m_score__min__energy>  (2) 
-12.58

>  <m_primary>  (2) 
energy

$$$$
2:0
     RDKit          3D

 76 77  0  0  0  0  0  0  0  0999 V2000
   56.3380   22.3540   41.4660 H   0  0  0  0  0  0  0  0  0  0  0  0
   55.9300   21.9100   42.2800 O   0  0  0  0  0  0  0  0  0  0  0  0
   56.3630   22.2280   43.5630 C   0  0  0  0  0  0  0  0  0  0  0  0
   55.5220   22.5260   44.5680 N   0  0  0  0  0  0  0  0  0  0  0  0
   56.3220   22.7810   45.6270 C   0  0  0  0  0  0  0  0  0  0  0  0
   55.8300   23.2460   46.9770 C   0  0  1  0  0  0  0  0  0  0  0  0
   56.5053   22.7729   47.7051 H   0  0  0  0  0  0  0  0  0  0  0  0
   55.9240   24.7040   47.1020 N   0  0  0  0  0  0  0  0  0  0  0  0
   55.8520   25.7110   46.0800 C   0  0  0  0  0  0  0  0  0  0  0  0
   54.7630   26.3290   45.9350 O   0  0  0  0  0  0  0  0  0  0  0  0
   57.0520   26.1230   45.2600 C   0  0  0  0  0  0  0  0  0  0  0  0
   56.7709   26.1000   44.1968 H   0  0  0  0  0  0  0  0  0  0  0  0
   57.8609   25.4155   45.4948 H   0  0  0  0  0  0  0  0  0  0  0  0
   57.5730   27.5290   45.5940 C   0  0  0  0  0  0  0  0  0  0  0  0
   56.7894   28.0774   46.1374 H   0  0  0  0  0  0  0  0  0  0  0  0
   57.8280   28.0284   44.6477 H   0  0  0  0  0  0  0  0  0  0  0  0
   58.8420   27.4870   46.4630 C   0  0  0  0  0  0  0  0  0  0  0  0
   59.4801   26.6627   46.1120 H   0  0  0  0  0  0  0  0  0  0  0  0
   58.5223   27.3433   47.5057 H   0  0  0  0  0  0  0  0  0  0  0  0
   59.6540   28.7950   46.4060 C   0  0  0  0  0  0  0  0  0  0  0  0
   59.5840   29.1940   45.3833 H   0  0  0  0  0  0  0  0  0  0  0  0
   60.6783   28.5301   46.7070 H   0  0  0  0  0  0  0  0  0  0  0  0
   59.1950   29.9010   47.3820 C   0  0  0  0  0  0  0  0  0  0  0  0
   58.5817   29.4304   48.1645 H   0  0  0  0  0  0  0  0  0  0  0  0
   58.6465   30.6349   46.7733 H   0  0  0  0  0  0  0  0  0  0  0  0
   60.3300   30.6840   48.0730 C   0  0  0  0  0  0  0  0  0  0  0  0
   60.8565   30.0012   48.7561 H   0  0  0  0  0  0  0  0  0  0  0  0
   59.8620   31.5285   48.6000 H   0  0  0  0  0  0  0  0  0  0  0  0
   61.3580   31.2800   47.0950 C   0  0  0  0  0  0  0  0  0  0  0  0
   60.9140   31.2998   46.0888 H   0  0  0  0  0  0  0  0  0  0  0  0
   62.2562   30.6462   47.1352 H   0  0  0  0  0  0  0  0  0  0  0  0
   61.7760   32.6750   47.4610 C   0  0  0  0  0  0  0  0  0  0  0  0
   62.4744   32.8227   48.2979 H   0  0  0  0  0  0  0  0  0  0  0  0
   61.3200   33.7460   46.7940 C   0  0  0  0  0  0  0  0  0  0  0  0
   61.7801   34.0172   45.8323 H   0  0  0  0  0  0  0  0  0  0  0  0
   60.1930   34.5840   47.3330 C   0  0  0  0  0  0  0  0  0  0  0  0
   60.5732   35.5879   47.5731 H   0  0  0  0  0  0  0  0  0  0  0  0
   59.7942   34.0988   48.2361 H   0  0  0  0  0  0  0  0  0  0  0  0
   59.0870   34.7050   46.3240 C   0  0  0  0  0  0  0  0  0  0  0  0
   59.1996   35.3877   45.4689 H   0  0  0  0  0  0  0  0  0  0  0  0
   57.9630   33.9860   46.4590 C   0  0  0  0  0  0  0  0  0  0  0  0
   57.1987   34.3157   47.1782 H   0  0  0  0  0  0  0  0  0  0  0  0
   57.7210   32.7390   45.6510 C   0  0  0  0  0  0  0  0  0  0  0  0
   56.6584   32.4656   45.7294 H   0  0  0  0  0  0  0  0  0  0  0  0
   58.3669   31.9438   46.0516 H   0  0  0  0  0  0  0  0  0  0  0  0
   58.0740   32.9360   44.1710 C   0  0  0  0  0  0  0  0  0  0  0  0
   59.1416   33.1895   44.0942 H   0  0  0  0  0  0  0  0  0  0  0  0
   57.4363   33.7430   43.7809 H   0  0  0  0  0  0  0  0  0  0  0  0
   57.8040   31.6790   43.3260 C   0  0  0  0  0  0  0  0  0  0  0  0
   58.7674   31.2215   43.0567 H   0  0  0  0  0  0  0  0  0  0  0  0
   57.2406   31.9908   42.4341 H   0  0  0  0  0  0  0  0  0  0  0  0
   56.9560   30.6380   44.0730 C   0  0  0  0  0  0  0  0  0  0  0  0
   56.2337   31.1652   44.7135 H   0  0  0  0  0  0  0  0  0  0  0  0
   57.6398   30.0122   44.6653 H   0  0  0  0  0  0  0  0  0  0  0  0
   56.1890   29.7180   43.1230 C   0  0  0  0  0  0  0  0  0  0  0  0
   55.5924   29.0024   43.7077 H   0  0  0  0  0  0  0  0  0  0  0  0
   55.5215   30.3200   42.4889 H   0  0  0  0  0  0  0  0  0  0  0  0
   56.9012   29.1697   42.4889 H   0  0  0  0  0  0  0  0  0  0  0  0
   54.4140   22.7580   47.3460 C   0  0  0  0  0  0  0  0  0  0  0  0
   53.6964   23.5676   47.1470 H   0  0  0  0  0  0  0  0  0  0  0  0
   54.1915   21.8698   46.7364 H   0  0  0  0  0  0  0  0  0  0  0  0
   54.3120   22.3630   48.7990 C   0  0  0  0  0  0  0  0  0  0  0  0
   53.1070   22.5490   49.4960 C   0  0  0  0  0  0  0  0  0  0  0  0
   52.2298   22.9588   48.9740 H   0  0  0  0  0  0  0  0  0  0  0  0
   53.0180   22.2150   50.8520 C   0  0  0  0  0  0  0  0  0  0  0  0
   52.0717   22.3623   51.3932 H   0  0  0  0  0  0  0  0  0  0  0  0
   54.1310   21.6940   51.5200 C   0  0  0  0  0  0  0  0  0  0  0  0
   54.0608   21.4367   52.5872 H   0  0  0  0  0  0  0  0  0  0  0  0
   55.3330   21.5000   50.8320 C   0  0  0  0  0  0  0  0  0  0  0  0
   56.2072   21.0873   51.3569 H   0  0  0  0  0  0  0  0  0  0  0  0
   55.4230   21.8310   49.4760 C   0  0  0  0  0  0  0  0  0  0  0  0
   56.3686   21.6741   48.9363 H   0  0  0  0  0  0  0  0  0  0  0  0
   57.6550   22.6470   45.2880 C   0  0  0  0  0  0  0  0  0  0  0  0
   58.5215   22.7968   45.9488 H   0  0  0  0  0  0  0  0  0  0  0  0
   57.6830   22.2890   43.9600 C   0  0  0  0  0  0  0  0  0  0  0  0
   58.5723   22.0924   43.3432 H   0  0  0  0  0  0  0  0  0  0  0  0
  1  2  1  0
  2  3  1  0
  3  4  1  0
  4  5  1  0
  5  6  1  0
  6  7  1  1
  6  8  1  0
  8  9  1  0
  9 10  2  0
  9 11  1  0
 11 12  1  0
 11 13  1  0
 11 14  1  0
 14 15  1  0
 14 16  1  0
 14 17  1  0
 17 18  1  0
 17 19  1  0
 17 20  1  0
 20 21  1  0
 20 22  1  0
 20 23  1  0
 23 24  1  0
 23 25  1  0
 23 26  1  0
 26 27  1  0
 26 28  1  0
 26 29  1  0
 29 30  1  0
 29 31  1  0
 29 32  1  0
 32 33  1  0
 32 34  2  3
 34 35  1  0
 34 36  1  0
 36 37  1  0
 36 38  1  0
 36 39  1  0
 39 40  1  0
 39 41  2  0
 41 42  1  0
 41 43  1  0
 43 44  1  0
 43 45  1  0
 43 46  1  0
 46 47  1  0
 46 48  1  0
 46 49  1  0
 49 50  1  0
 49 51  1  0
 49 52  1  0
 52 53  1  0
 52 54  1  0
 52 55  1  0
 55 56  1  0
 55 57  1  0
 55 58  1  0
  6 59  1  0
 59 60  1  0
 59 61  1  0
 59 62  1  0
 62 63  2  0
 63 64  1  0
 63 65  1  0
 65 66  1  0
 65 67  2  0
 67 68  1  0
 67 69  1  0
 69 70  1  0
 69 71  2  0
 71 72  1  0
  5 73  2  0
 73 74  1  0
 73 75  1  0
 75 76  1  0
 75  3  2  0
 71 62  1  0
M  CHG  2   4  -1   8  -1
M  END
>  <UniqueID>  (3) 
3

>  <SMILES>  (3) 
CCCCC/C=C/CC=CCCCCCCCC(=O)[N-][C@@H](Cc1ccccc1)c1ccc(O)[n-]1

>  <Energy>  (3) 
71.33789075348695

>  <Genealogy>  (3) 
CCCCCC=CCC=CCCCCCCCC(=O)[N-]C(Cc1ccccc1)c1ccc(O)[n-]1 (protonated)
CCCCCC=CCC=CCCCCCCCC(=O)[N-][C@@H](Cc1ccccc1)c1ccc(O)[n-]1 (chirality)
CCCCC/C=C/CC=CCCCCCCCC(=O)[N-][C@@H](Cc1ccccc1)c1ccc(O)[n-]1 (cis-trans isomerization)
CCCCC/C=C/CC=CCCCCCCCC(=O)[N-][C@@H](Cc1ccccc1)c1ccc(O)[n-]1 (3D coordinates assigned)
CCCCC/C=C/CC=CCCCCCCCC(=O)[N-][C@@H](Cc1ccccc1)c1ccc(O)[n-]1 (optimized conformer: 71.33789075348695 kcal/mol)

>  <smiles>  (3) 
CCCCCC=CCC=CCCCCCCCC(=O)NC(Cc1ccccc1)c1ccc(O)[nH]1

>  <score_type>  (3) 
oracle

>  <origin>  (3) 
adg

>  <m_score__min__energy>  (3) 
-12.49

>  <m_primary>  (3) 
energy

$$$$
3:0
     RDKit          3D

 37 38  0  0  0  0  0  0  0  0999 V2000
   64.3100   33.0670   47.0760 N   0  0  0  0  0  0  0  0  0  0  0  0
   63.0320   32.9100   48.2310 S   0  0  0  0  0  0  0  0  0  0  0  0
   63.1500   31.5820   48.9250 O   0  0  0  0  0  0  0  0  0  0  0  0
   63.1390   34.0030   49.2570 O   0  0  0  0  0  0  0  0  0  0  0  0
   61.4820   33.0230   47.4040 C   0  0  0  0  0  0  0  0  0  0  0  0
   60.5690   31.9630   47.4570 C   0  0  0  0  0  0  0  0  0  0  0  0
   59.3470   32.0510   46.7820 C   0  0  0  0  0  0  0  0  0  0  0  0
   59.0320   33.1980   46.0350 C   0  0  0  0  0  0  0  0  0  0  0  0
   57.7040   33.3020   45.3310 C   0  0  0  0  0  0  0  0  0  0  0  0
   57.4890   32.1200   44.3870 C   0  0  0  0  0  0  0  0  0  0  0  0
   56.3420   31.3250   44.8360 N   0  0  0  0  0  0  0  0  0  0  0  0
   56.4150   29.7120   44.1970 S   0  0  0  0  0  0  0  0  0  0  0  0
   55.1490   28.9840   44.5510 O   0  0  0  0  0  0  0  0  0  0  0  0
   56.5390   29.7540   42.7000 O   0  0  0  0  0  0  0  0  0  0  0  0
   57.7890   28.8620   44.9020 C   0  0  0  0  0  0  0  0  0  0  0  0
   59.0940   29.2300   44.5470 C   0  0  0  0  0  0  0  0  0  0  0  0
   60.1880   28.5580   45.1000 C   0  0  0  0  0  0  0  0  0  0  0  0
   59.9840   27.5070   45.9990 C   0  0  0  0  0  0  0  0  0  0  0  0
   61.0450   26.8550   46.5320 F   0  0  0  0  0  0  0  0  0  0  0  0
   58.6830   27.1270   46.3440 C   0  0  0  0  0  0  0  0  0  0  0  0
   57.5880   27.8030   45.7980 C   0  0  0  0  0  0  0  0  0  0  0  0
   59.9440   34.2650   45.9960 C   0  0  0  0  0  0  0  0  0  0  0  0
   61.1640   34.1740   46.6720 C   0  0  0  0  0  0  0  0  0  0  0  0
   64.4810   32.1160   46.6790 H   0  0  0  0  0  0  0  0  0  0  0  0
   65.1690   33.3320   47.6070 H   0  0  0  0  0  0  0  0  0  0  0  0
   60.8135   31.0575   48.0317 H   0  0  0  0  0  0  0  0  0  0  0  0
   58.6299   31.2186   46.8364 H   0  0  0  0  0  0  0  0  0  0  0  0
   56.8995   33.3139   46.0811 H   0  0  0  0  0  0  0  0  0  0  0  0
   57.6936   34.2290   44.7389 H   0  0  0  0  0  0  0  0  0  0  0  0
   57.2975   32.4950   43.3708 H   0  0  0  0  0  0  0  0  0  0  0  0
   58.3896   31.4883   44.3867 H   0  0  0  0  0  0  0  0  0  0  0  0
   59.2577   30.0494   43.8316 H   0  0  0  0  0  0  0  0  0  0  0  0
   61.2110   28.8567   44.8273 H   0  0  0  0  0  0  0  0  0  0  0  0
   58.5212   26.2954   47.0456 H   0  0  0  0  0  0  0  0  0  0  0  0
   56.5658   27.5031   46.0723 H   0  0  0  0  0  0  0  0  0  0  0  0
   59.6973   35.1761   45.4312 H   0  0  0  0  0  0  0  0  0  0  0  0
   61.8776   35.0101   46.6289 H   0  0  0  0  0  0  0  0  0  0  0  0
  1  2  1  0
  2  3  2  0
  2  4  2  0
  2  5  1  0
  5  6  2  0
  6  7  1  0
  7  8  2  0
  8  9  1  0
  9 10  1  0
 10 11  1  0
 11 12  1  0
 12 13  2  0
 12 14  2  0
 12 15  1  0
 15 16  2  0
 16 17  1  0
 17 18  2  0
 18 19  1  0
 18 20  1  0
 20 21  2  0
  8 22  1  0
 22 23  2  0
 23  5  1  0
 21 15  1  0
  1 24  1  0
  1 25  1  0
  6 26  1  0
  7 27  1  0
  9 28  1  0
  9 29  1  0
 10 30  1  0
 10 31  1  0
 16 32  1  0
 17 33  1  0
 20 34  1  0
 21 35  1  0
 22 36  1  0
 23 37  1  0
M  CHG  1  11  -1
M  END
>  <UniqueID>  (4) 
4

>  <SMILES>  (4) 
NS(=O)(=O)c1ccc(CC[N-]S(=O)(=O)c2ccc(F)cc2)cc1

>  <Energy>  (4) 
27.83714316023029

>  <Genealogy>  (4) 
NS(=O)(=O)c1ccc(CC[N-]S(=O)(=O)c2ccc(F)cc2)cc1 (protonated)
NS(=O)(=O)c1ccc(CC[N-]S(=O)(=O)c2ccc(F)cc2)cc1 (3D coordinates assigned)
NS(=O)(=O)c1ccc(CC[N-]S(=O)(=O)c2ccc(F)cc2)cc1 (optimized conformer: 27.83714316023029 kcal/mol)

>  <smiles>  (4) 
NS(=O)(=O)c1ccc(CCNS(=O)(=O)c2ccc(F)cc2)cc1

>  <score_type>  (4) 
oracle

>  <origin>  (4) 
adg

>  <m_score__min__energy>  (4) 
-9.9700000000000006

>  <m_primary>  (4) 
energy

$$$$
4:0
     RDKit          3D

 40 42  0  0  0  0  0  0  0  0999 V2000
   55.7208   22.2461   41.8167 H   0  0  0  0  0  0  0  0  0  0  0  0
   56.0690   22.5780   42.8060 C   0  0  0  0  0  0  0  0  0  0  0  0
   57.3000   22.1430   43.2910 C   0  0  0  0  0  0  0  0  0  0  0  0
   57.9135   21.4533   42.6927 H   0  0  0  0  0  0  0  0  0  0  0  0
   57.7560   22.5810   44.5350 C   0  0  0  0  0  0  0  0  0  0  0  0
   58.7295   22.2331   44.9109 H   0  0  0  0  0  0  0  0  0  0  0  0
   56.9840   23.4630   45.3140 C   0  0  0  0  0  0  0  0  0  0  0  0
   57.5770   23.9830   46.5660 C   0  0  0  0  0  0  0  0  0  0  0  0
   57.4170   23.3460   47.6420 O   0  0  0  0  0  0  0  0  0  0  0  0
   58.3410   25.1970   46.5480 N   0  0  0  0  0  0  0  0  0  0  0  0
   58.0170   26.4050   45.8460 C   0  0  0  0  0  0  0  0  0  0  0  0
   58.1310   26.5090   44.4470 C   0  0  0  0  0  0  0  0  0  0  0  0
   58.4961   25.6522   43.8616 H   0  0  0  0  0  0  0  0  0  0  0  0
   57.7820   27.6970   43.7990 C   0  0  0  0  0  0  0  0  0  0  0  0
   57.8807   27.7746   42.7062 H   0  0  0  0  0  0  0  0  0  0  0  0
   57.3070   28.7890   44.5360 C   0  0  0  0  0  0  0  0  0  0  0  0
   56.8710   30.2940   43.7310 S   0  0  0  0  0  0  0  0  0  0  0  0
   56.6700   30.0710   42.2580 O   0  0  0  0  0  0  0  0  0  0  0  0
   55.5920   30.8110   44.3250 O   0  0  0  0  0  0  0  0  0  0  0  0
   58.1240   31.4740   43.9600 N   0  0  0  0  0  0  0  0  0  0  0  0
   58.2260   32.2370   45.0050 C   0  0  0  0  0  0  0  0  0  0  0  0
   57.6310   31.9810   46.1440 O   0  0  0  0  0  0  0  0  0  0  0  0
   57.9010   32.9020   47.0240 N   0  0  0  0  0  0  0  0  0  0  0  0
   58.7030   33.8000   46.4160 C   0  0  0  0  0  0  0  0  0  0  0  0
   59.2960   34.9880   47.0980 C   0  0  0  0  0  0  0  0  0  0  0  0
   59.2300   34.8559   48.1880 H   0  0  0  0  0  0  0  0  0  0  0  0
   60.3511   35.0907   46.8043 H   0  0  0  0  0  0  0  0  0  0  0  0
   58.7439   35.8929   46.8043 H   0  0  0  0  0  0  0  0  0  0  0  0
   58.9500   33.4100   45.1150 C   0  0  0  0  0  0  0  0  0  0  0  0
   59.5691   33.9086   44.3546 H   0  0  0  0  0  0  0  0  0  0  0  0
   57.1680   28.6790   45.9250 C   0  0  0  0  0  0  0  0  0  0  0  0
   56.7849   29.5301   46.5071 H   0  0  0  0  0  0  0  0  0  0  0  0
   57.5150   27.4900   46.5740 C   0  0  0  0  0  0  0  0  0  0  0  0
   57.3926   27.4068   47.6640 H   0  0  0  0  0  0  0  0  0  0  0  0
   55.7070   23.8710   44.8390 C   0  0  0  0  0  0  0  0  0  0  0  0
   54.7720   24.6800   45.6560 C   0  0  0  0  0  0  0  0  0  0  0  0
   53.9400   24.1140   46.4120 O   0  0  0  0  0  0  0  0  0  0  0  0
   54.8420   26.0690   45.6480 O   0  0  0  0  0  0  0  0  0  0  0  0
   55.2760   23.4340   43.5720 C   0  0  0  0  0  0  0  0  0  0  0  0
   54.3042   23.7706   43.1817 H   0  0  0  0  0  0  0  0  0  0  0  0
  1  2  1  0
  2  3  2  0
  3  4  1  0
  3  5  1  0
  5  6  1  0
  5  7  2  0
  7  8  1  0
  8  9  2  0
  8 10  1  0
 10 11  1  0
 11 12  2  0
 12 13  1  0
 12 14  1  0
 14 15  1  0
 14 16  2  0
 16 17  1  0
 17 18  2  0
 17 19  2  0
 17 20  1  0
 20 21  2  0
 21 22  1  0
 22 23  1  0
 23 24  1  0
 24 25  1  0
 25 26  1  0
 25 27  1  0
 25 28  1  0
 24 29  2  0
 29 30  1  0
 16 31  1  0
 31 32  1  0
 31 33  2  0
 33 34  1  0
  7 35  1  0
 35 36  1  0
 36 37  2  0
 36 38  1  0
 35 39  2  0
 39 40  1  0
 39  2  1  0
 33 11  1  0
 29 21  1  0
M  CHG  3  10  -1  23  -1  38  -1
M  END
>  <UniqueID>  (5) 
5

>  <SMILES>  (5) 
Cc1c/c(=N\S(=O)(=O)c2ccc([N-]C(=O)c3ccccc3C(=O)[O-])cc2)o[n-]1

>  <Energy>  (5) 
88.68665572188193

>  <Genealogy>  (5) 
Cc1cc(=NS(=O)(=O)c2ccc([N-]C(=O)c3ccccc3C(=O)[O-])cc2)o[n-]1 (protonated)
Cc1c/c(=N\S(=O)(=O)c2ccc([N-]C(=O)c3ccccc3C(=O)[O-])cc2)o[n-]1 (cis-trans isomerization)
Cc1c/c(=N\S(=O)(=O)c2ccc([N-]C(=O)c3ccccc3C(=O)[O-])cc2)o[n-]1 (3D coordinates assigned)
Cc1c/c(=N\S(=O)(=O)c2ccc([N-]C(=O)c3ccccc3C(=O)[O-])cc2)o[n-]1 (optimized conformer: 88.68665572188193 kcal/mol)

>  <smiles>  (5) 
Cc1cc(=NS(=O)(=O)c2ccc(NC(=O)c3ccccc3C(=O)O)cc2)o[nH]1

>  <score_type>  (5) 
oracle

>  <origin>  (5) 
adg

>  <m_score__min__energy>  (5) 
-13.58

>  <m_primary>  (5) 
energy

$$$$
5:0
     RDKit          3D

 64 68  0  0  0  0  0  0  0  0999 V2000
   57.3024   28.2910   43.7071 H   0  0  0  0  0  0  0  0  0  0  0  0
   57.3040   28.9820   44.5630 C   0  0  0  0  0  0  0  0  0  0  0  0
   57.1650   28.5060   45.7630 N   0  0  0  0  0  0  0  0  0  0  0  0
   57.2290   27.1350   46.0790 N   0  0  0  0  0  0  0  0  0  0  0  0
   56.1570   26.2920   46.1930 C   0  0  0  0  0  0  0  0  0  0  0  0
   54.8430   26.7080   46.0130 O   0  0  0  0  0  0  0  0  0  0  0  0
   56.4770   24.9640   46.4560 C   0  0  0  0  0  0  0  0  0  0  0  0
   55.7610   24.1423   46.6048 H   0  0  0  0  0  0  0  0  0  0  0  0
   58.1560   24.8380   46.5060 S   0  0  0  0  0  0  0  0  0  0  0  0
   58.4060   26.4820   46.2150 C   0  0  0  0  0  0  0  0  0  0  0  0
   59.5580   27.0740   46.0690 N   0  0  0  0  0  0  0  0  0  0  0  0
   60.0060   28.2560   46.7510 C   0  0  0  0  0  0  0  0  0  0  0  0
   60.4720   29.3380   45.9910 C   0  0  0  0  0  0  0  0  0  0  0  0
   60.5232   29.2550   44.8953 H   0  0  0  0  0  0  0  0  0  0  0  0
   60.8720   30.5220   46.6180 C   0  0  0  0  0  0  0  0  0  0  0  0
   61.2522   31.3611   46.0168 H   0  0  0  0  0  0  0  0  0  0  0  0
   60.7890   30.6400   48.0080 C   0  0  0  0  0  0  0  0  0  0  0  0
   61.1143   31.5677   48.5015 H   0  0  0  0  0  0  0  0  0  0  0  0
   60.2930   29.5800   48.7710 C   0  0  0  0  0  0  0  0  0  0  0  0
   60.2176   29.6778   49.8640 H   0  0  0  0  0  0  0  0  0  0  0  0
   59.8920   28.3940   48.1460 C   0  0  0  0  0  0  0  0  0  0  0  0
   59.4864   27.5672   48.7475 H   0  0  0  0  0  0  0  0  0  0  0  0
   57.4650   30.4370   44.3200 C   0  0  0  0  0  0  0  0  0  0  0  0
   57.5860   30.8790   42.9980 C   0  0  0  0  0  0  0  0  0  0  0  0
   57.5598   30.1511   42.1737 H   0  0  0  0  0  0  0  0  0  0  0  0
   57.7390   32.2310   42.7200 C   0  0  0  0  0  0  0  0  0  0  0  0
   57.8343   32.5750   41.6795 H   0  0  0  0  0  0  0  0  0  0  0  0
   57.7710   33.1480   43.7670 C   0  0  0  0  0  0  0  0  0  0  0  0
   57.8959   34.2188   43.5483 H   0  0  0  0  0  0  0  0  0  0  0  0
   57.6490   32.7330   45.0640 N   0  0  0  0  0  0  0  0  0  0  0  0
   57.7290   33.7390   46.1370 C   0  0  0  0  0  0  0  0  0  0  0  0
   57.0213   33.4741   46.9364 H   0  0  0  0  0  0  0  0  0  0  0  0
   57.4762   34.7259   45.7221 H   0  0  0  0  0  0  0  0  0  0  0  0
   59.1240   33.7880   46.7040 C   0  0  0  0  0  0  0  0  0  0  0  0
   60.2370   33.7800   45.8530 C   0  0  0  0  0  0  0  0  0  0  0  0
   60.0932   33.7047   44.7650 H   0  0  0  0  0  0  0  0  0  0  0  0
   61.5270   33.8670   46.3780 C   0  0  0  0  0  0  0  0  0  0  0  0
   62.3941   33.8582   45.7012 H   0  0  0  0  0  0  0  0  0  0  0  0
   61.7260   33.9660   47.7680 C   0  0  0  0  0  0  0  0  0  0  0  0
   63.0080   34.0510   48.3390 O   0  0  0  0  0  0  0  0  0  0  0  0
   64.0740   33.1230   48.1240 C   0  0  0  0  0  0  0  0  0  0  0  0
   63.7893   32.4271   47.3211 H   0  0  0  0  0  0  0  0  0  0  0  0
   64.9775   33.6842   47.8434 H   0  0  0  0  0  0  0  0  0  0  0  0
   64.3640   32.3390   49.3760 C   0  0  0  0  0  0  0  0  0  0  0  0
   65.6420   32.3840   49.9580 C   0  0  0  0  0  0  0  0  0  0  0  0
   66.4294   33.0035   49.5038 H   0  0  0  0  0  0  0  0  0  0  0  0
   65.9170   31.6440   51.1130 C   0  0  0  0  0  0  0  0  0  0  0  0
   66.9164   31.6901   51.5701 H   0  0  0  0  0  0  0  0  0  0  0  0
   64.9240   30.8470   51.6860 C   0  0  0  0  0  0  0  0  0  0  0  0
   65.1416   30.2672   52.5951 H   0  0  0  0  0  0  0  0  0  0  0  0
   63.6540   30.7850   51.1060 C   0  0  0  0  0  0  0  0  0  0  0  0
   62.8740   30.1541   51.5572 H   0  0  0  0  0  0  0  0  0  0  0  0
   63.3740   31.5240   49.9530 C   0  0  0  0  0  0  0  0  0  0  0  0
   62.3753   31.4678   49.4953 H   0  0  0  0  0  0  0  0  0  0  0  0
   60.6160   33.9840   48.6270 C   0  0  0  0  0  0  0  0  0  0  0  0
   60.8450   34.0920   50.0070 O   0  0  0  0  0  0  0  0  0  0  0  0
   60.3360   33.1860   50.9820 C   0  0  0  0  0  0  0  0  0  0  0  0
   60.5526   33.5715   51.9892 H   0  0  0  0  0  0  0  0  0  0  0  0
   59.2482   33.0835   50.8547 H   0  0  0  0  0  0  0  0  0  0  0  0
   60.8143   32.2036   50.8547 H   0  0  0  0  0  0  0  0  0  0  0  0
   59.3180   33.8980   48.0880 C   0  0  0  0  0  0  0  0  0  0  0  0
   58.4472   33.9173   48.7599 H   0  0  0  0  0  0  0  0  0  0  0  0
   57.5070   31.3970   45.3590 C   0  0  0  0  0  0  0  0  0  0  0  0
   57.4130   31.0280   46.5620 O   0  0  0  0  0  0  0  0  0  0  0  0
  1  2  1  0
  2  3  2  0
  3  4  1  0
  4  5  1  0
  5  6  1  0
  5  7  2  0
  7  8  1  0
  7  9  1  0
  9 10  1  0
 10 11  2  3
 11 12  1  0
 12 13  2  0
 13 14  1  0
 13 15  1  0
 15 16  1  0
 15 17  2  0
 17 18  1  0
 17 19  1  0
 19 20  1  0
 19 21  2  0
 21 22  1  0
  2 23  1  0
 23 24  2  0
 24 25  1  0
 24 26  1  0
 26 27  1  0
 26 28  2  0
 28 29  1  0
 28 30  1  0
 30 31  1  0
 31 32  1  0
 31 33  1  0
 31 34  1  0
 34 35  2  0
 35 36  1  0
 35 37  1  0
 37 38  1  0
 37 39  2  0
 39 40  1  0
 40 41  1  0
 41 42  1  0
 41 43  1  0
 41 44  1  0
 44 45  2  0
 45 46  1  0
 45 47  1  0
 47 48  1  0
 47 49  2  0
 49 50  1  0
 49 51  1  0
 51 52  1  0
 51 53  2  0
 53 54  1  0
 39 55  1  0
 55 56  1  0
 56 57  1  0
 57 58  1  0
 57 59  1  0
 57 60  1  0
 55 61  2  0
 61 62  1  0
 30 63  1  0
 63 64  2  0
 10  4  1  0
 21 12  1  0
 63 23  1  0
 61 34  1  0
 53 44  1  0
M  CHG  1   6  -1
M  END
>  <UniqueID>  (6) 
6

>  <SMILES>  (6) 
COc1cc(Cn2cccc(/C=N/n3c([O-])csc3=Nc3ccccc3)c2=O)ccc1OCc1ccccc1

>  <Energy>  (6) 
115.93237086669497

>  <Genealogy>  (6) 
COc1cc(Cn2cccc(C=Nn3c([O-])csc3=Nc3ccccc3)c2=O)ccc1OCc1ccccc1 (protonated)
COc1cc(Cn2cccc(/C=N/n3c([O-])csc3=Nc3ccccc3)c2=O)ccc1OCc1ccccc1 (cis-trans isomerization)
COc1cc(Cn2cccc(/C=N/n3c([O-])csc3=Nc3ccccc3)c2=O)ccc1OCc1ccccc1 (3D coordinates assigned)
COc1cc(Cn2cccc(/C=N/n3c([O-])csc3=Nc3ccccc3)c2=O)ccc1OCc1ccccc1 (optimized conformer: 115.93237086669497 kcal/mol)

>  <smiles>  (6) 
COc1cc(Cn2cccc(C=Nn3c(O)csc3=Nc3ccccc3)c2=O)ccc1OCc1ccccc1

>  <score_type>  (6) 
oracle

>  <origin>  (6) 
adg

>  <m_score__min__energy>  (6) 
-13.74

>  <m_primary>  (6) 
energy

$$$$
6:0
     RDKit          3D

 51 53  0  0  0  0  0  0  0  0999 V2000
   60.4130   31.6010   49.6330 C   0  0  0  0  0  0  0  0  0  0  0  0
   61.4930   32.1230   48.7200 C   0  0  0  0  0  0  0  0  0  0  0  0
   62.2540   31.2110   47.9680 C   0  0  0  0  0  0  0  0  0  0  0  0
   63.2600   31.6610   47.1130 C   0  0  0  0  0  0  0  0  0  0  0  0
   63.5200   33.0270   46.9960 C   0  0  0  0  0  0  0  0  0  0  0  0
   62.7680   33.9470   47.7270 C   0  0  0  0  0  0  0  0  0  0  0  0
   61.7380   33.5140   48.5800 C   0  0  0  0  0  0  0  0  0  0  0  0
   60.9660   34.5430   49.3700 C   0  0  0  0  0  0  0  0  0  0  0  0
   59.6330   34.7190   48.7790 N   0  0  0  0  0  0  0  0  0  0  0  0
   59.7030   35.0130   47.3400 C   0  0  0  0  0  0  0  0  0  0  0  0
   59.0450   33.9390   46.5080 C   0  0  0  0  0  0  0  0  0  0  0  0
   58.7740   34.1660   45.1500 C   0  0  0  0  0  0  0  0  0  0  0  0
   58.1860   33.1650   44.3710 C   0  0  0  0  0  0  0  0  0  0  0  0
   57.8600   31.9270   44.9400 C   0  0  0  0  0  0  0  0  0  0  0  0
   57.0960   30.6700   43.9620 S   0  0  0  0  0  0  0  0  0  0  0  0
   55.8200   30.2340   44.6270 O   0  0  0  0  0  0  0  0  0  0  0  0
   56.7450   31.2400   42.6150 O   0  0  0  0  0  0  0  0  0  0  0  0
   58.1460   29.2860   43.7500 N   0  0  0  0  0  0  0  0  0  0  0  0
   58.8130   28.9110   45.0240 C   0  0  0  0  0  0  0  0  0  0  0  0
   58.1670   27.6810   45.6860 C   0  0  0  0  0  0  0  0  0  0  0  0
   58.1880   26.5030   44.7990 N   0  0  0  0  0  0  0  0  0  0  0  0
   58.1070   26.8320   43.3620 C   0  0  0  0  0  0  0  0  0  0  0  0
   57.4010   28.1720   43.1200 C   0  0  0  0  0  0  0  0  0  0  0  0
   58.1450   31.6920   46.2920 C   0  0  0  0  0  0  0  0  0  0  0  0
   58.7330   32.6920   47.0720 C   0  0  0  0  0  0  0  0  0  0  0  0
   60.7158   31.7474   50.6803 H   0  0  0  0  0  0  0  0  0  0  0  0
   59.4767   32.1460   49.4424 H   0  0  0  0  0  0  0  0  0  0  0  0
   60.2584   30.5287   49.4424 H   0  0  0  0  0  0  0  0  0  0  0  0
   62.0543   30.1328   48.0547 H   0  0  0  0  0  0  0  0  0  0  0  0
   63.8493   30.9379   46.5300 H   0  0  0  0  0  0  0  0  0  0  0  0
   64.3188   33.3788   46.3266 H   0  0  0  0  0  0  0  0  0  0  0  0
   62.9832   35.0218   47.6350 H   0  0  0  0  0  0  0  0  0  0  0  0
   60.8630   34.2035   50.4112 H   0  0  0  0  0  0  0  0  0  0  0  0
   61.5054   35.5014   49.3470 H   0  0  0  0  0  0  0  0  0  0  0  0
   59.1450   35.5060   49.2700 H   0  0  0  0  0  0  0  0  0  0  0  0
   59.1961   35.9703   47.1486 H   0  0  0  0  0  0  0  0  0  0  0  0
   60.7645   35.0593   47.0551 H   0  0  0  0  0  0  0  0  0  0  0  0
   59.0254   35.1360   44.6963 H   0  0  0  0  0  0  0  0  0  0  0  0
   57.9784   33.3503   43.3068 H   0  0  0  0  0  0  0  0  0  0  0  0
   58.8910   29.5880   43.0790 H   0  0  0  0  0  0  0  0  0  0  0  0
   59.8696   28.6861   44.8164 H   0  0  0  0  0  0  0  0  0  0  0  0
   58.7094   29.7580   45.7182 H   0  0  0  0  0  0  0  0  0  0  0  0
   58.7189   27.4422   46.6071 H   0  0  0  0  0  0  0  0  0  0  0  0
   57.1166   27.9242   45.9041 H   0  0  0  0  0  0  0  0  0  0  0  0
   59.0800   25.9790   44.9620 H   0  0  0  0  0  0  0  0  0  0  0  0
   59.1263   26.8881   42.9522 H   0  0  0  0  0  0  0  0  0  0  0  0
   57.5220   26.0442   42.8648 H   0  0  0  0  0  0  0  0  0  0  0  0
   57.3326   28.3521   42.0370 H   0  0  0  0  0  0  0  0  0  0  0  0
   56.3971   28.1248   43.5671 H   0  0  0  0  0  0  0  0  0  0  0  0
   57.9051   30.7169   46.7411 H   0  0  0  0  0  0  0  0  0  0  0  0
   58.9523   32.5008   48.1328 H   0  0  0  0  0  0  0  0  0  0  0  0
  1  2  1  0
  2  3  2  0
  3  4  1  0
  4  5  2  0
  5  6  1  0
  6  7  2  0
  7  8  1  0
  8  9  1  0
  9 10  1  0
 10 11  1  0
 11 12  2  0
 12 13  1  0
 13 14  2  0
 14 15  1  0
 15 16  2  0
 15 17  2  0
 15 18  1  0
 18 19  1  0
 19 20  1  0
 20 21  1  0
 21 22  1  0
 22 23  1  0
 14 24  1  0
 24 25  2  0
  7  2  1  0
 25 11  1  0
 23 18  1  0
  1 26  1  0
  1 27  1  0
  1 28  1  0
  3 29  1  0
  4 30  1  0
  5 31  1  0
  6 32  1  0
  8 33  1  0
  8 34  1  0
  9 35  1  0
 10 36  1  0
 10 37  1  0
 12 38  1  0
 13 39  1  0
 18 40  1  0
 19 41  1  0
 19 42  1  0
 20 43  1  0
 20 44  1  0
 21 45  1  0
 22 46  1  0
 22 47  1  0
 23 48  1  0
 23 49  1  0
 24 50  1  0
 25 51  1  0
M  CHG  1  18   1
M  END
>  <UniqueID>  (7) 
7

>  <SMILES>  (7) 
Cc1ccccc1CNCc1ccc(S(=O)(=O)[NH+]2CCNCC2)cc1

>  <Energy>  (7) 
59.438602290177855

>  <Genealogy>  (7) 
Cc1ccccc1CNCc1ccc(S(=O)(=O)[NH+]2CCNCC2)cc1 (protonated)
Cc1ccccc1CNCc1ccc(S(=O)(=O)[NH+]2CCNCC2)cc1 (3D coordinates assigned)
Cc1ccccc1CNCc1ccc(S(=O)(=O)[NH+]2CCNCC2)cc1 (nonaromatic ring conformer: 59.438602290177855 kcal/mol)

>  <smiles>  (7) 
Cc1ccccc1CNCc1ccc(S(=O)(=O)N2CCNCC2)cc1

>  <score_type>  (7) 
oracle

>  <origin>  (7) 
adg

>  <m_score__min__energy>  (7) 
-7.5

>  <m_primary>  (7) 
energy

$$$$
7:0
     RDKit          3D

 31 33  0  0  0  0  0  0  0  0999 V2000
   56.5689   33.7521   44.9043 H   0  0  0  0  0  0  0  0  0  0  0  0
   57.3140   32.9850   45.1620 C   0  0  0  0  0  0  0  0  0  0  0  0
   57.3630   31.8840   44.3940 C   0  0  0  0  0  0  0  0  0  0  0  0
   57.1056   31.9962   43.3305 H   0  0  0  0  0  0  0  0  0  0  0  0
   57.7360   30.5320   44.8660 C   0  0  0  0  0  0  0  0  0  0  0  0
   59.0640   30.2720   45.1990 C   0  0  0  0  0  0  0  0  0  0  0  0
   59.8159   31.0689   45.1006 H   0  0  0  0  0  0  0  0  0  0  0  0
   59.4490   29.0140   45.6550 C   0  0  0  0  0  0  0  0  0  0  0  0
   60.5058   28.8298   45.8983 H   0  0  0  0  0  0  0  0  0  0  0  0
   58.5100   27.9680   45.8120 C   0  0  0  0  0  0  0  0  0  0  0  0
   58.9420   26.6970   46.2690 C   0  0  0  0  0  0  0  0  0  0  0  0
   60.5010   26.3280   46.6340 S   0  0  0  0  0  0  0  0  0  0  0  0
   57.7910   25.4870   46.4510 S   0  0  0  0  0  0  0  0  0  0  0  0
   56.2630   26.0350   46.0360 C   0  0  0  0  0  0  0  0  0  0  0  0
   55.2700   25.2620   46.1100 O   0  0  0  0  0  0  0  0  0  0  0  0
   56.1130   27.3170   45.6200 N   0  0  0  0  0  0  0  0  0  0  0  0
   55.1390   27.6090   45.3720 H   0  0  0  0  0  0  0  0  0  0  0  0
   57.1270   28.2410   45.5010 C   0  0  0  0  0  0  0  0  0  0  0  0
   56.7760   29.5280   45.0480 C   0  0  0  0  0  0  0  0  0  0  0  0
   55.7207   29.7504   44.8316 H   0  0  0  0  0  0  0  0  0  0  0  0
   58.1880   33.2440   46.3300 C   0  0  0  0  0  0  0  0  0  0  0  0
   58.0800   32.4530   47.4900 C   0  0  0  0  0  0  0  0  0  0  0  0
   57.3514   31.6296   47.5239 H   0  0  0  0  0  0  0  0  0  0  0  0
   58.8920   32.7070   48.5980 C   0  0  0  0  0  0  0  0  0  0  0  0
   58.8116   32.0746   49.4944 H   0  0  0  0  0  0  0  0  0  0  0  0
   59.8050   33.7620   48.5690 C   0  0  0  0  0  0  0  0  0  0  0  0
   60.4471   33.9574   49.4405 H   0  0  0  0  0  0  0  0  0  0  0  0
   59.9040   34.5700   47.4340 C   0  0  0  0  0  0  0  0  0  0  0  0
   60.6199   35.4050   47.4172 H   0  0  0  0  0  0  0  0  0  0  0  0
   59.0960   34.3220   46.3170 C   0  0  0  0  0  0  0  0  0  0  0  0
   59.2740   35.3590   44.9050 Cl  0  0  0  0  0  0  0  0  0  0  0  0
  1  2  1  0
  2  3  2  0
  3  4  1  0
  3  5  1  0
  5  6  2  0
  6  7  1  0
  6  8  1  0
  8  9  1  0
  8 10  2  0
 10 11  1  0
 11 12  2  0
 11 13  1  0
 13 14  1  0
 14 15  2  0
 14 16  1  0
 16 17  1  0
 16 18  1  0
 18 19  2  0
 19 20  1  0
  2 21  1  0
 21 22  2  0
 22 23  1  0
 22 24  1  0
 24 25  1  0
 24 26  2  0
 26 27  1  0
 26 28  1  0
 28 29  1  0
 28 30  2  0
 30 31  1  0
 19  5  1  0
 30 21  1  0
 18 10  1  0
M  END
>  <UniqueID>  (8) 
8

>  <SMILES>  (8) 
O=c1[nH]c2cc(/C=C\c3ccccc3Cl)ccc2c(=S)s1

>  <Energy>  (8) 
56.048751847963075

>  <Genealogy>  (8) 
O=c1[nH]c2cc(/C=C\c3ccccc3Cl)ccc2c(=S)s1 (cis-trans isomerization)
O=c1[nH]c2cc(/C=C\c3ccccc3Cl)ccc2c(=S)s1 (3D coordinates assigned)
O=c1[nH]c2cc(/C=C\c3ccccc3Cl)ccc2c(=S)s1 (optimized conformer: 56.048751847963075 kcal/mol)

>  <smiles>  (8) 
O=c1[nH]c2cc(C=Cc3ccccc3Cl)ccc2c(=S)s1

>  <score_type>  (8) 
oracle

>  <origin>  (8) 
adg

>  <m_score__min__energy>  (8) 
-9.1600000000000001

>  <m_primary>  (8) 
energy

$$$$
8:0
     RDKit          3D

 46 49  0  0  0  0  0  0  0  0999 V2000
   56.0890   21.8200   42.4850 O   0  0  0  0  0  0  0  0  0  0  0  0
   56.1230   22.5880   43.4790 C   0  0  0  0  0  0  0  0  0  0  0  0
   55.0160   22.9710   44.1510 N   0  0  0  0  0  0  0  0  0  0  0  0
   55.3270   23.8030   45.1800 C   0  0  0  0  0  0  0  0  0  0  0  0
   54.3300   24.3240   46.0020 O   0  0  0  0  0  0  0  0  0  0  0  0
   56.6930   24.0750   45.3300 C   0  0  0  0  0  0  0  0  0  0  0  0
   57.3370   25.0120   46.3110 C   0  0  0  0  0  0  0  0  0  0  0  0
   57.4030   26.4050   45.7410 C   0  0  0  0  0  0  0  0  0  0  0  0
   58.6360   26.9360   45.3290 C   0  0  0  0  0  0  0  0  0  0  0  0
   58.7160   28.2410   44.8340 C   0  0  0  0  0  0  0  0  0  0  0  0
   57.5650   29.0450   44.7640 C   0  0  0  0  0  0  0  0  0  0  0  0
   57.6030   30.3530   44.2620 O   0  0  0  0  0  0  0  0  0  0  0  0
   58.2270   31.4450   44.8830 C   0  0  0  0  0  0  0  0  0  0  0  0
   59.1090   31.2030   45.9400 C   0  0  0  0  0  0  0  0  0  0  0  0
   59.7570   32.2630   46.5810 C   0  0  0  0  0  0  0  0  0  0  0  0
   59.5320   33.5850   46.1650 C   0  0  0  0  0  0  0  0  0  0  0  0
   60.2470   34.7270   46.8350 C   0  0  0  0  0  0  0  0  0  0  0  0
   61.4870   34.2320   47.5280 C   0  0  0  0  0  0  0  0  0  0  0  0
   61.5570   34.2080   48.9310 C   0  0  0  0  0  0  0  0  0  0  0  0
   62.7230   33.7830   49.5720 C   0  0  0  0  0  0  0  0  0  0  0  0
   63.8320   33.3870   48.8170 C   0  0  0  0  0  0  0  0  0  0  0  0
   63.7740   33.4150   47.4220 C   0  0  0  0  0  0  0  0  0  0  0  0
   62.6070   33.8380   46.7770 C   0  0  0  0  0  0  0  0  0  0  0  0
   58.6720   33.8280   45.0820 C   0  0  0  0  0  0  0  0  0  0  0  0
   58.0250   32.7660   44.4430 C   0  0  0  0  0  0  0  0  0  0  0  0
   56.3340   28.5130   45.1580 C   0  0  0  0  0  0  0  0  0  0  0  0
   56.2470   27.2060   45.6480 C   0  0  0  0  0  0  0  0  0  0  0  0
   55.0080   26.7100   46.0390 O   0  0  0  0  0  0  0  0  0  0  0  0
   57.5260   23.2540   44.1140 S   0  0  0  0  0  0  0  0  0  0  0  0
   54.3650   25.2680   46.3650 H   0  0  0  0  0  0  0  0  0  0  0  0
   56.7462   25.0276   47.2388 H   0  0  0  0  0  0  0  0  0  0  0  0
   58.3591   24.6630   46.5196 H   0  0  0  0  0  0  0  0  0  0  0  0
   59.5454   26.3208   45.3962 H   0  0  0  0  0  0  0  0  0  0  0  0
   59.6841   28.6405   44.4977 H   0  0  0  0  0  0  0  0  0  0  0  0
   59.2947   30.1703   46.2701 H   0  0  0  0  0  0  0  0  0  0  0  0
   60.4458   32.0606   47.4144 H   0  0  0  0  0  0  0  0  0  0  0  0
   60.5281   35.4735   46.0776 H   0  0  0  0  0  0  0  0  0  0  0  0
   59.5772   35.1804   47.5806 H   0  0  0  0  0  0  0  0  0  0  0  0
   60.6892   34.5255   49.5277 H   0  0  0  0  0  0  0  0  0  0  0  0
   62.7692   33.7597   50.6708 H   0  0  0  0  0  0  0  0  0  0  0  0
   64.7503   33.0534   49.3224 H   0  0  0  0  0  0  0  0  0  0  0  0
   64.6471   33.1040   46.8296 H   0  0  0  0  0  0  0  0  0  0  0  0
   62.5661   33.8622   45.6780 H   0  0  0  0  0  0  0  0  0  0  0  0
   58.5066   34.8586   44.7347 H   0  0  0  0  0  0  0  0  0  0  0  0
   57.3555   32.9640   43.5930 H   0  0  0  0  0  0  0  0  0  0  0  0
   55.4252   29.1280   45.0820 H   0  0  0  0  0  0  0  0  0  0  0  0
  1  2  2  0
  2  3  1  0
  3  4  1  0
  4  5  1  0
  4  6  2  0
  6  7  1  0
  7  8  1  0
  8  9  2  0
  9 10  1  0
 10 11  2  0
 11 12  1  0
 12 13  1  0
 13 14  2  0
 14 15  1  0
 15 16  2  0
 16 17  1  0
 17 18  1  0
 18 19  2  0
 19 20  1  0
 20 21  2  0
 21 22  1  0
 22 23  2  0
 16 24  1  0
 24 25  2  0
 11 26  1  0
 26 27  2  0
 27 28  1  0
  6 29  1  0
 29  2  1  0
 27  8  1  0
 25 13  1  0
 23 18  1  0
  5 30  1  0
  7 31  1  0
  7 32  1  0
  9 33  1  0
 10 34  1  0
 14 35  1  0
 15 36  1  0
 17 37  1  0
 17 38  1  0
 19 39  1  0
 20 40  1  0
 21 41  1  0
 22 42  1  0
 23 43  1  0
 24 44  1  0
 25 45  1  0
 26 46  1  0
M  CHG  2   3  -1  28  -1
M  END
>  <UniqueID>  (9) 
9

>  <SMILES>  (9) 
O=c1[n-]c(O)c(Cc2ccc(Oc3ccc(Cc4ccccc4)cc3)cc2[O-])s1

>  <Energy>  (9) 
85.82491875317041

>  <Genealogy>  (9) 
O=c1[n-]c(O)c(Cc2ccc(Oc3ccc(Cc4ccccc4)cc3)cc2[O-])s1 (protonated)
O=c1[n-]c(O)c(Cc2ccc(Oc3ccc(Cc4ccccc4)cc3)cc2[O-])s1 (3D coordinates assigned)
O=c1[n-]c(O)c(Cc2ccc(Oc3ccc(Cc4ccccc4)cc3)cc2[O-])s1 (optimized conformer: 85.82491875317041 kcal/mol)

>  <smiles>  (9) 
O=c1[nH]c(O)c(Cc2ccc(Oc3ccc(Cc4ccccc4)cc3)cc2O)s1

>  <score_type>  (9) 
oracle

>  <origin>  (9) 
adg

>  <m_score__min__energy>  (9) 
-15.300000000000001

>  <m_primary>  (9) 
energy

$$$$
9:0
     RDKit          3D

 48 50  0  0  0  0  0  0  0  0999 V2000
   60.5081   36.3963   46.6921 H   0  0  0  0  0  0  0  0  0  0  0  0
   60.0090   35.4180   46.6300 C   0  0  0  0  0  0  0  0  0  0  0  0
   59.2360   35.0900   45.4180 C   0  0  0  0  0  0  0  0  0  0  0  0
   59.1220   35.9630   44.5170 O   0  0  0  0  0  0  0  0  0  0  0  0
   58.6190   33.8040   45.2410 N   0  0  0  0  0  0  0  0  0  0  0  0
   58.8070   33.0970   43.9660 C   0  0  0  0  0  0  0  0  0  0  0  0
   59.8734   32.8552   43.8464 H   0  0  0  0  0  0  0  0  0  0  0  0
   58.4581   33.7536   43.1554 H   0  0  0  0  0  0  0  0  0  0  0  0
   57.9940   31.7980   43.9120 C   0  0  0  0  0  0  0  0  0  0  0  0
   58.3932   31.1524   43.1159 H   0  0  0  0  0  0  0  0  0  0  0  0
   56.9414   32.0418   43.7055 H   0  0  0  0  0  0  0  0  0  0  0  0
   58.0790   31.0930   45.1960 N   0  0  0  0  0  0  0  0  0  0  0  0
   58.2520   29.6660   45.2170 C   0  0  0  0  0  0  0  0  0  0  0  0
   57.1820   28.8150   44.8560 C   0  0  0  0  0  0  0  0  0  0  0  0
   55.8580   29.3740   44.4090 C   0  0  0  0  0  0  0  0  0  0  0  0
   55.2517   29.6300   45.2904 H   0  0  0  0  0  0  0  0  0  0  0  0
   56.0267   30.2777   43.8050 H   0  0  0  0  0  0  0  0  0  0  0  0
   55.3280   28.6229   43.8050 H   0  0  0  0  0  0  0  0  0  0  0  0
   57.3690   27.4240   44.8700 C   0  0  0  0  0  0  0  0  0  0  0  0
   56.5468   26.7592   44.5665 H   0  0  0  0  0  0  0  0  0  0  0  0
   58.5900   26.8790   45.2660 C   0  0  0  0  0  0  0  0  0  0  0  0
   58.7211   25.7871   45.2889 H   0  0  0  0  0  0  0  0  0  0  0  0
   59.6450   27.7130   45.6330 C   0  0  0  0  0  0  0  0  0  0  0  0
   60.6010   27.2747   45.9554 H   0  0  0  0  0  0  0  0  0  0  0  0
   59.4960   29.1080   45.5940 C   0  0  0  0  0  0  0  0  0  0  0  0
   60.6550   29.9770   46.0060 C   0  0  0  0  0  0  0  0  0  0  0  0
   60.7102   30.0184   47.1038 H   0  0  0  0  0  0  0  0  0  0  0  0
   61.5895   29.5551   45.6075 H   0  0  0  0  0  0  0  0  0  0  0  0
   60.5119   30.9923   45.6075 H   0  0  0  0  0  0  0  0  0  0  0  0
   57.8640   31.8060   46.4620 C   0  0  0  0  0  0  0  0  0  0  0  0
   58.7429   31.6617   47.1075 H   0  0  0  0  0  0  0  0  0  0  0  0
   56.9588   31.4005   46.9375 H   0  0  0  0  0  0  0  0  0  0  0  0
   57.6560   33.3060   46.2320 C   0  0  0  0  0  0  0  0  0  0  0  0
   57.8004   33.8429   47.1811 H   0  0  0  0  0  0  0  0  0  0  0  0
   56.6354   33.4743   45.8578 H   0  0  0  0  0  0  0  0  0  0  0  0
   60.1250   34.5690   47.6560 C   0  0  0  0  0  0  0  0  0  0  0  0
   59.3916   34.6235   48.4740 H   0  0  0  0  0  0  0  0  0  0  0  0
   61.2020   33.5600   47.7320 C   0  0  0  0  0  0  0  0  0  0  0  0
   62.4050   33.8280   47.0600 C   0  0  0  0  0  0  0  0  0  0  0  0
   62.5212   34.7702   46.5044 H   0  0  0  0  0  0  0  0  0  0  0  0
   63.4560   32.9080   47.0910 C   0  0  0  0  0  0  0  0  0  0  0  0
   64.3897   33.1216   46.5500 H   0  0  0  0  0  0  0  0  0  0  0  0
   63.3220   31.7180   47.8080 C   0  0  0  0  0  0  0  0  0  0  0  0
   64.1460   30.9894   47.8230 H   0  0  0  0  0  0  0  0  0  0  0  0
   62.1430   31.4520   48.5060 C   0  0  0  0  0  0  0  0  0  0  0  0
   62.0464   30.5180   49.0790 H   0  0  0  0  0  0  0  0  0  0  0  0
   61.0820   32.3660   48.4820 C   0  0  0  0  0  0  0  0  0  0  0  0
   59.6720   32.0170   49.4790 Cl  0  0  0  0  0  0  0  0  0  0  0  0
  1  2  1  0
  2  3  1  0
  3  4  2  0
  3  5  1  0
  5  6  1  0
  6  7  1  0
  6  8  1  0
  6  9  1  0
  9 10  1  0
  9 11  1  0
  9 12  1  0
 12 13  1  0
 13 14  2  0
 14 15  1  0
 15 16  1  0
 15 17  1  0
 15 18  1  0
 14 19  1  0
 19 20  1  0
 19 21  2  0
 21 22  1  0
 21 23  1  0
 23 24  1  0
 23 25  2  0
 25 26  1  0
 26 27  1  0
 26 28  1  0
 26 29  1  0
 12 30  1  0
 30 31  1  0
 30 32  1  0
 30 33  1  0
 33 34  1  0
 33 35  1  0
  2 36  2  0
 36 37  1  0
 36 38  1  0
 38 39  2  0
 39 40  1  0
 39 41  1  0
 41 42  1  0
 41 43  2  0
 43 44  1  0
 43 45  1  0
 45 46  1  0
 45 47  2  0
 47 48  1  0
 33  5  1  0
 47 38  1  0
 25 13  1  0
M  END
>  <UniqueID>  (10) 
10

>  <SMILES>  (10) 
Cc1cccc(C)c1N1CCN(C(=O)/C=C/c2ccccc2Cl)CC1

>  <Energy>  (10) 
63.01477681064249

>  <Genealogy>  (10) 
Cc1cccc(C)c1N1CCN(C(=O)/C=C/c2ccccc2Cl)CC1 (cis-trans isomerization)
Cc1cccc(C)c1N1CCN(C(=O)/C=C/c2ccccc2Cl)CC1 (3D coordinates assigned)
Cc1cccc(C)c1N1CCN(C(=O)/C=C/c2ccccc2Cl)CC1 (nonaromatic ring conformer: 63.01477681064249 kcal/mol)

>  <smiles>  (10) 
Cc1cccc(C)c1N1CCN(C(=O)C=Cc2ccccc2Cl)CC1

>  <score_type>  (10) 
oracle

>  <origin>  (10) 
adg

>  <m_score__min__energy>  (10) 
-7.9800000000000004

>  <m_primary>  (10) 
energy

$$$$
10:0
     RDKit          3D

 31 32  0  0  0  0  0  0  0  0999 V2000
   55.8190   26.8290   45.7790 N   0  0  0  0  0  0  0  0  0  0  0  0
   57.3770   27.5310   46.0410 S   0  0  0  0  0  0  0  0  0  0  0  0
   58.3950   26.7750   45.2330 O   0  0  0  0  0  0  0  0  0  0  0  0
   57.7390   27.4350   47.4960 O   0  0  0  0  0  0  0  0  0  0  0  0
   57.3430   29.2260   45.5550 C   0  0  0  0  0  0  0  0  0  0  0  0
   58.4250   30.0690   45.8520 C   0  0  0  0  0  0  0  0  0  0  0  0
   58.4010   31.4230   45.4830 C   0  0  0  0  0  0  0  0  0  0  0  0
   59.5360   32.2520   45.7810 N   0  0  0  0  0  0  0  0  0  0  0  0
   59.4590   33.6710   46.0120 C   0  0  0  0  0  0  0  0  0  0  0  0
   58.3640   34.2790   45.8980 O   0  0  0  0  0  0  0  0  0  0  0  0
   60.6320   34.4230   46.3450 N   0  0  0  0  0  0  0  0  0  0  0  0
   61.7310   33.9590   47.1410 C   0  0  0  0  0  0  0  0  0  0  0  0
   62.9580   33.6050   46.5500 C   0  0  0  0  0  0  0  0  0  0  0  0
   64.0080   33.1230   47.3370 C   0  0  0  0  0  0  0  0  0  0  0  0
   63.8370   32.9730   48.7160 C   0  0  0  0  0  0  0  0  0  0  0  0
   62.6140   33.2960   49.3080 C   0  0  0  0  0  0  0  0  0  0  0  0
   61.5580   33.7800   48.5250 C   0  0  0  0  0  0  0  0  0  0  0  0
   60.0290   34.1710   49.2980 Cl  0  0  0  0  0  0  0  0  0  0  0  0
   57.2950   31.9210   44.7730 C   0  0  0  0  0  0  0  0  0  0  0  0
   56.2160   31.0850   44.4740 C   0  0  0  0  0  0  0  0  0  0  0  0
   56.2340   29.7430   44.8650 C   0  0  0  0  0  0  0  0  0  0  0  0
   55.1480   28.9300   44.5580 O   0  0  0  0  0  0  0  0  0  0  0  0
   55.1190   27.4720   46.2140 H   0  0  0  0  0  0  0  0  0  0  0  0
   59.3013   29.6643   46.3796 H   0  0  0  0  0  0  0  0  0  0  0  0
   60.4550   31.7750   45.9080 H   0  0  0  0  0  0  0  0  0  0  0  0
   63.0916   33.7081   45.4630 H   0  0  0  0  0  0  0  0  0  0  0  0
   64.9694   32.8616   46.8707 H   0  0  0  0  0  0  0  0  0  0  0  0
   64.6661   32.6003   49.3354 H   0  0  0  0  0  0  0  0  0  0  0  0
   62.4795   33.1700   50.3924 H   0  0  0  0  0  0  0  0  0  0  0  0
   57.2787   32.9728   44.4515 H   0  0  0  0  0  0  0  0  0  0  0  0
   55.3485   31.4847   43.9285 H   0  0  0  0  0  0  0  0  0  0  0  0
  1  2  1  0
  2  3  2  0
  2  4  2  0
  2  5  1  0
  5  6  2  0
  6  7  1  0
  7  8  1  0
  8  9  1  0
  9 10  2  0
  9 11  1  0
 11 12  1  0
 12 13  2  0
 13 14  1  0
 14 15  2  0
 15 16  1  0
 16 17  2  0
 17 18  1  0
  7 19  2  0
 19 20  1  0
 20 21  2  0
 21 22  1  0
 21  5  1  0
 17 12  1  0
  1 23  1  0
  6 24  1  0
  8 25  1  0
 13 26  1  0
 14 27  1  0
 15 28  1  0
 16 29  1  0
 19 30  1  0
 20 31  1  0
M  CHG  3   1  -1  11  -1  22  -1
M  END
>  <UniqueID>  (11) 
11

>  <SMILES>  (11) 
[NH-]S(=O)(=O)c1cc(NC(=O)[N-]c2ccccc2Cl)ccc1[O-]

>  <Energy>  (11) 
41.250700768601284

>  <Genealogy>  (11) 
[NH-]S(=O)(=O)c1cc(NC(=O)[N-]c2ccccc2Cl)ccc1[O-] (protonated)
[NH-]S(=O)(=O)c1cc(NC(=O)[N-]c2ccccc2Cl)ccc1[O-] (3D coordinates assigned)
[NH-]S(=O)(=O)c1cc(NC(=O)[N-]c2ccccc2Cl)ccc1[O-] (optimized conformer: 41.250700768601284 kcal/mol)

>  <smiles>  (11) 
NS(=O)(=O)c1cc(NC(=O)Nc2ccccc2Cl)ccc1O

>  <score_type>  (11) 
oracle

>  <origin>  (11) 
adg

>  <m_score__min__energy>  (11) 
-14.35

>  <m_primary>  (11) 
energy

$$$$
11:0
     RDKit          3D

 45 47  0  0  0  0  0  0  0  0999 V2000
   55.4583   26.3318   45.5574 H   0  0  0  0  0  0  0  0  0  0  0  0
   56.2430   27.0970   45.6510 C   0  0  0  0  0  0  0  0  0  0  0  0
   56.0090   28.3640   45.2190 N   0  0  0  0  0  0  0  0  0  0  0  0
   56.9490   29.3420   45.3130 C   0  0  0  0  0  0  0  0  0  0  0  0
   56.6290   30.6300   44.8600 O   0  0  0  0  0  0  0  0  0  0  0  0
   57.4220   31.7750   45.0370 C   0  0  0  0  0  0  0  0  0  0  0  0
   57.8160   32.2030   46.3180 C   0  0  0  0  0  0  0  0  0  0  0  0
   57.4988   31.6331   47.2038 H   0  0  0  0  0  0  0  0  0  0  0  0
   58.6120   33.3530   46.4780 C   0  0  0  0  0  0  0  0  0  0  0  0
   59.0170   33.8200   47.8250 C   0  0  0  0  0  0  0  0  0  0  0  0
   59.5000   34.9780   47.9600 O   0  0  0  0  0  0  0  0  0  0  0  0
   58.8490   32.9850   48.9820 N   0  0  0  0  0  0  0  0  0  0  0  0
   58.3060   32.0960   48.9160 H   0  0  0  0  0  0  0  0  0  0  0  0
   59.3670   33.3760   50.2880 C   0  0  0  0  0  0  0  0  0  0  0  0
   58.7560   32.9148   51.0779 H   0  0  0  0  0  0  0  0  0  0  0  0
   60.4090   33.0372   50.3856 H   0  0  0  0  0  0  0  0  0  0  0  0
   59.3268   34.4709   50.3856 H   0  0  0  0  0  0  0  0  0  0  0  0
   59.0440   34.0440   45.3340 C   0  0  0  0  0  0  0  0  0  0  0  0
   59.6780   34.9364   45.4424 H   0  0  0  0  0  0  0  0  0  0  0  0
   58.6750   33.6070   44.0600 C   0  0  0  0  0  0  0  0  0  0  0  0
   59.0205   34.1558   43.1715 H   0  0  0  0  0  0  0  0  0  0  0  0
   57.8690   32.4760   43.9090 C   0  0  0  0  0  0  0  0  0  0  0  0
   57.4150   31.9500   42.2950 Cl  0  0  0  0  0  0  0  0  0  0  0  0
   58.1940   29.0500   45.8960 C   0  0  0  0  0  0  0  0  0  0  0  0
   58.9468   29.8436   46.0123 H   0  0  0  0  0  0  0  0  0  0  0  0
   58.4760   27.7480   46.3290 C   0  0  0  0  0  0  0  0  0  0  0  0
   59.6420   27.5040   46.8590 N   0  0  0  0  0  0  0  0  0  0  0  0
   60.0250   27.7140   48.2250 C   0  0  0  0  0  0  0  0  0  0  0  0
   60.5080   26.7500   48.8760 O   0  0  0  0  0  0  0  0  0  0  0  0
   59.6670   28.9940   48.9350 C   0  0  0  0  0  0  0  0  0  0  0  0
   58.6714   29.3194   48.5989 H   0  0  0  0  0  0  0  0  0  0  0  0
   59.6783   28.7954   50.0169 H   0  0  0  0  0  0  0  0  0  0  0  0
   60.6590   30.0960   48.6550 C   0  0  0  0  0  0  0  0  0  0  0  0
   60.7580   30.6620   47.3720 C   0  0  0  0  0  0  0  0  0  0  0  0
   60.1062   30.3008   46.5629 H   0  0  0  0  0  0  0  0  0  0  0  0
   61.6810   31.6820   47.1190 C   0  0  0  0  0  0  0  0  0  0  0  0
   61.7558   32.1178   46.1118 H   0  0  0  0  0  0  0  0  0  0  0  0
   62.5080   32.1480   48.1440 C   0  0  0  0  0  0  0  0  0  0  0  0
   63.2365   32.9471   47.9423 H   0  0  0  0  0  0  0  0  0  0  0  0
   62.4100   31.5990   49.4260 C   0  0  0  0  0  0  0  0  0  0  0  0
   63.0586   31.9696   50.2334 H   0  0  0  0  0  0  0  0  0  0  0  0
   61.4880   30.5790   49.6830 C   0  0  0  0  0  0  0  0  0  0  0  0
   61.4111   30.1527   50.6941 H   0  0  0  0  0  0  0  0  0  0  0  0
   57.4760   26.7640   46.2130 C   0  0  0  0  0  0  0  0  0  0  0  0
   57.6655   25.7386   46.5633 H   0  0  0  0  0  0  0  0  0  0  0  0
  1  2  1  0
  2  3  1  0
  3  4  1  0
  4  5  1  0
  5  6  1  0
  6  7  2  0
  7  8  1  0
  7  9  1  0
  9 10  1  0
 10 11  2  0
 10 12  1  0
 12 13  1  0
 12 14  1  0
 14 15  1  0
 14 16  1  0
 14 17  1  0
  9 18  2  0
 18 19  1  0
 18 20  1  0
 20 21  1  0
 20 22  2  0
 22 23  1  0
  4 24  2  0
 24 25  1  0
 24 26  1  0
 26 27  2  0
 27 28  1  0
 28 29  2  0
 28 30  1  0
 30 31  1  0
 30 32  1  0
 30 33  1  0
 33 34  2  0
 34 35  1  0
 34 36  1  0
 36 37  1  0
 36 38  2  0
 38 39  1  0
 38 40  1  0
 40 41  1  0
 40 42  2  0
 42 43  1  0
 26 44  1  0
 44 45  1  0
 44  2  2  0
 22  6  1  0
 42 33  1  0
M  CHG  1   3  -1
M  END
>  <UniqueID>  (12) 
12

>  <SMILES>  (12) 
CNC(=O)c1ccc(Cl)c(Oc2c/c(=N/C(=O)Cc3ccccc3)cc[n-]2)c1

>  <Energy>  (12) 
63.4727686960282

>  <Genealogy>  (12) 
CNC(=O)c1ccc(Cl)c(Oc2cc(=NC(=O)Cc3ccccc3)cc[n-]2)c1 (protonated)
CNC(=O)c1ccc(Cl)c(Oc2c/c(=N/C(=O)Cc3ccccc3)cc[n-]2)c1 (cis-trans isomerization)
CNC(=O)c1ccc(Cl)c(Oc2c/c(=N/C(=O)Cc3ccccc3)cc[n-]2)c1 (3D coordinates assigned)
CNC(=O)c1ccc(Cl)c(Oc2c/c(=N/C(=O)Cc3ccccc3)cc[n-]2)c1 (optimized conformer: 63.4727686960282 kcal/mol)

>  <smiles>  (12) 
CNC(=O)c1ccc(Cl)c(Oc2cc(=NC(=O)Cc3ccccc3)cc[nH]2)c1

>  <score_type>  (12) 
oracle

>  <origin>  (12) 
adg

>  <m_score__min__energy>  (12) 
-10.31

>  <m_primary>  (12) 
energy

$$$$
12:0
     RDKit          3D

 45 47  0  0  0  0  0  0  0  0999 V2000
   62.0790   34.1730   50.6000 C   0  0  0  0  0  0  0  0  0  0  0  0
   62.3500   33.9930   49.1370 C   0  0  0  0  0  0  0  0  0  0  0  0
   63.6430   33.6740   48.6980 C   0  0  0  0  0  0  0  0  0  0  0  0
   63.8870   33.4440   47.3420 C   0  0  0  0  0  0  0  0  0  0  0  0
   62.8420   33.5170   46.4190 C   0  0  0  0  0  0  0  0  0  0  0  0
   61.5430   33.8270   46.8400 C   0  0  0  0  0  0  0  0  0  0  0  0
   60.5000   33.8660   45.8560 N   0  0  0  0  0  0  0  0  0  0  0  0
   58.8170   33.5480   46.1350 S   0  0  0  0  0  0  0  0  0  0  0  0
   58.1170   34.8710   46.2750 O   0  0  0  0  0  0  0  0  0  0  0  0
   58.6470   32.7760   47.4130 O   0  0  0  0  0  0  0  0  0  0  0  0
   58.0920   32.6720   44.7890 C   0  0  0  0  0  0  0  0  0  0  0  0
   58.4930   32.9640   43.4800 C   0  0  0  0  0  0  0  0  0  0  0  0
   57.9610   32.2500   42.4050 C   0  0  0  0  0  0  0  0  0  0  0  0
   57.0410   31.2240   42.6310 C   0  0  0  0  0  0  0  0  0  0  0  0
   56.6490   30.9010   43.9400 C   0  0  0  0  0  0  0  0  0  0  0  0
   55.7080   29.7860   44.1720 C   0  0  0  0  0  0  0  0  0  0  0  0
   54.7230   29.6510   43.3990 O   0  0  0  0  0  0  0  0  0  0  0  0
   55.8730   28.8400   45.2360 N   0  0  0  0  0  0  0  0  0  0  0  0
   57.2280   27.7760   45.4720 S   0  0  0  0  0  0  0  0  0  0  0  0
   56.7420   26.4850   46.0700 O   0  0  0  0  0  0  0  0  0  0  0  0
   57.8580   27.4850   44.1390 O   0  0  0  0  0  0  0  0  0  0  0  0
   58.4500   28.5170   46.5040 C   0  0  0  0  0  0  0  0  0  0  0  0
   58.5150   28.2050   47.8710 C   0  0  0  0  0  0  0  0  0  0  0  0
   59.4390   28.8550   48.6950 C   0  0  0  0  0  0  0  0  0  0  0  0
   60.3120   29.8080   48.1570 C   0  0  0  0  0  0  0  0  0  0  0  0
   61.5600   30.7060   49.2880 Br  0  0  0  0  0  0  0  0  0  0  0  0
   60.2640   30.1050   46.7900 C   0  0  0  0  0  0  0  0  0  0  0  0
   59.3380   29.4580   45.9660 C   0  0  0  0  0  0  0  0  0  0  0  0
   57.1530   31.6530   45.0130 C   0  0  0  0  0  0  0  0  0  0  0  0
   61.3010   34.0590   48.2060 C   0  0  0  0  0  0  0  0  0  0  0  0
   62.8560   33.6569   51.1830 H   0  0  0  0  0  0  0  0  0  0  0  0
   62.0880   35.2452   50.8454 H   0  0  0  0  0  0  0  0  0  0  0  0
   61.0941   33.7489   50.8454 H   0  0  0  0  0  0  0  0  0  0  0  0
   64.4672   33.6047   49.4232 H   0  0  0  0  0  0  0  0  0  0  0  0
   64.9049   33.2048   47.0005 H   0  0  0  0  0  0  0  0  0  0  0  0
   63.0405   33.3296   45.3534 H   0  0  0  0  0  0  0  0  0  0  0  0
   59.2305   33.7595   43.2977 H   0  0  0  0  0  0  0  0  0  0  0  0
   58.2671   32.4961   41.3775 H   0  0  0  0  0  0  0  0  0  0  0  0
   56.6218   30.6667   41.7803 H   0  0  0  0  0  0  0  0  0  0  0  0
   57.8383   27.4483   48.2946 H   0  0  0  0  0  0  0  0  0  0  0  0
   59.4800   28.6170   49.7682 H   0  0  0  0  0  0  0  0  0  0  0  0
   60.9548   30.8475   46.3639 H   0  0  0  0  0  0  0  0  0  0  0  0
   59.3065   29.6887   44.8909 H   0  0  0  0  0  0  0  0  0  0  0  0
   56.8096   31.4422   46.0365 H   0  0  0  0  0  0  0  0  0  0  0  0
   60.2821   34.2939   48.5476 H   0  0  0  0  0  0  0  0  0  0  0  0
  1  2  1  0
  2  3  2  0
  3  4  1  0
  4  5  2  0
  5  6  1  0
  6  7  1  0
  7  8  1  0
  8  9  2  0
  8 10  2  0
  8 11  1  0
 11 12  2  0
 12 13  1  0
 13 14  2  0
 14 15  1  0
 15 16  1  0
 16 17  2  0
 16 18  1  0
 18 19  1  0
 19 20  2  0
 19 21  2  0
 19 22  1  0
 22 23  2  0
 23 24  1  0
 24 25  2  0
 25 26  1  0
 25 27  1  0
 27 28  2  0
 15 29  2  0
  6 30  2  0
 30  2  1  0
 29 11  1  0
 28 22  1  0
  1 31  1  0
  1 32  1  0
  1 33  1  0
  3 34  1  0
  4 35  1  0
  5 36  1  0
 12 37  1  0
 13 38  1  0
 14 39  1  0
 23 40  1  0
 24 41  1  0
 27 42  1  0
 28 43  1  0
 29 44  1  0
 30 45  1  0
M  CHG  2   7  -1  18  -1
M  END
>  <UniqueID>  (13) 
13

>  <SMILES>  (13) 
Cc1cccc([N-]S(=O)(=O)c2cccc(C(=O)[N-]S(=O)(=O)c3ccc(Br)cc3)c2)c1

>  <Energy>  (13) 
53.86547188926145

>  <Genealogy>  (13) 
Cc1cccc([N-]S(=O)(=O)c2cccc(C(=O)[N-]S(=O)(=O)c3ccc(Br)cc3)c2)c1 (protonated)
Cc1cccc([N-]S(=O)(=O)c2cccc(C(=O)[N-]S(=O)(=O)c3ccc(Br)cc3)c2)c1 (3D coordinates assigned)
Cc1cccc([N-]S(=O)(=O)c2cccc(C(=O)[N-]S(=O)(=O)c3ccc(Br)cc3)c2)c1 (optimized conformer: 53.86547188926145 kcal/mol)

>  <smiles>  (13) 
Cc1cccc(NS(=O)(=O)c2cccc(C(=O)NS(=O)(=O)c3ccc(Br)cc3)c2)c1

>  <score_type>  (13) 
oracle

>  <origin>  (13) 
adg

>  <m_score__min__energy>  (13) 
-12.68

>  <m_primary>  (13) 
energy

$$$$
13:0
     RDKit          3D

 19 20  0  0  0  0  0  0  0  0999 V2000
   51.6285   32.0421   53.6664 H   0  0  0  0  0  0  0  0  0  0  0  0
   51.6130   31.9140   52.5740 C   0  0  0  0  0  0  0  0  0  0  0  0
   50.6590   32.4060   51.7590 N   0  0  0  0  0  0  0  0  0  0  0  0
   51.0190   32.0150   50.5210 C   0  0  0  0  0  0  0  0  0  0  0  0
   50.2850   32.3200   49.3830 O   0  0  0  0  0  0  0  0  0  0  0  0
   52.1850   31.2840   50.5260 C   0  0  0  0  0  0  0  0  0  0  0  0
   52.6996   30.8411   49.6606 H   0  0  0  0  0  0  0  0  0  0  0  0
   52.5700   31.2260   51.8500 C   0  0  0  0  0  0  0  0  0  0  0  0
   53.7450   30.5250   52.4030 C   0  0  0  0  0  0  0  0  0  0  0  0
   53.6330   29.3230   52.7630 O   0  0  0  0  0  0  0  0  0  0  0  0
   55.0340   31.1490   52.4670 N   0  0  0  0  0  0  0  0  0  0  0  0
   56.1730   30.5450   52.2990 C   0  0  0  0  0  0  0  0  0  0  0  0
   57.3520   31.1740   51.9690 C   0  0  0  0  0  0  0  0  0  0  0  0
   57.5332   32.2493   51.8248 H   0  0  0  0  0  0  0  0  0  0  0  0
   58.2540   30.1320   51.8620 C   0  0  0  0  0  0  0  0  0  0  0  0
   59.3215   30.2325   51.6164 H   0  0  0  0  0  0  0  0  0  0  0  0
   57.6270   29.0000   52.1020 O   0  0  0  0  0  0  0  0  0  0  0  0
   56.3720   29.2150   52.3660 N   0  0  0  0  0  0  0  0  0  0  0  0
   55.6720   28.4650   52.5560 H   0  0  0  0  0  0  0  0  0  0  0  0
  1  2  1  0
  2  3  1  0
  3  4  1  0
  4  5  1  0
  4  6  2  0
  6  7  1  0
  6  8  1  0
  8  9  1  0
  9 10  2  0
  9 11  1  0
 11 12  2  0
 12 13  1  0
 13 14  1  0
 13 15  2  0
 15 16  1  0
 15 17  1  0
 17 18  1  0
 18 19  1  0
  8  2  2  0
 18 12  1  0
M  CHG  2   3  -1   5  -1
M  END
>  <UniqueID>  (14) 
14

>  <SMILES>  (14) 
O=C(/N=c1/cco[nH]1)c1c[n-]c([O-])c1

>  <Energy>  (14) 
83.39068167868777

>  <Genealogy>  (14) 
O=C(N=c1cco[nH]1)c1c[n-]c([O-])c1 (protonated)
O=C(/N=c1/cco[nH]1)c1c[n-]c([O-])c1 (cis-trans isomerization)
O=C(/N=c1/cco[nH]1)c1c[n-]c([O-])c1 (3D coordinates assigned)
O=C(/N=c1/cco[nH]1)c1c[n-]c([O-])c1 (optimized conformer: 83.39068167868777 kcal/mol)

>  <smiles>  (14) 
O=C(N=c1cco[nH]1)c1c[nH]c(O)c1

>  <score_type>  (14) 
oracle

>  <origin>  (14) 
adg

>  <m_score__min__energy>  (14) 
-12.67

>  <m_primary>  (14) 
energy

$$$$
14:0
     RDKit          3D

 24 26  0  0  0  0  0  0  0  0999 V2000
   54.7560   27.4710   46.3480 H   0  0  0  0  0  0  0  0  0  0  0  0
   54.8000   26.5210   46.0000 O   0  0  0  0  0  0  0  0  0  0  0  0
   55.8750   25.6810   46.2820 C   0  0  0  0  0  0  0  0  0  0  0  0
   55.7740   24.6100   47.0880 N   0  0  0  0  0  0  0  0  0  0  0  0
   57.0250   24.1060   47.0740 C   0  0  0  0  0  0  0  0  0  0  0  0
   57.3480   23.0760   47.7220 O   0  0  0  0  0  0  0  0  0  0  0  0
   57.9020   24.7910   46.3120 N   0  0  0  0  0  0  0  0  0  0  0  0
   57.1670   25.8000   45.8090 C   0  0  0  0  0  0  0  0  0  0  0  0
   57.6660   26.8330   44.8750 C   0  0  0  0  0  0  0  0  0  0  0  0
   58.2260   26.4921   43.9917 H   0  0  0  0  0  0  0  0  0  0  0  0
   57.4870   28.1540   45.0240 C   0  0  0  0  0  0  0  0  0  0  0  0
   56.3730   29.0200   44.5860 C   0  0  0  0  0  0  0  0  0  0  0  0
   55.4829   28.6545   44.0529 H   0  0  0  0  0  0  0  0  0  0  0  0
   56.5690   30.2650   44.9050 N   0  0  0  0  0  0  0  0  0  0  0  0
   57.8220   30.3200   45.5750 C   0  0  0  0  0  0  0  0  0  0  0  0
   58.4400   31.4560   46.0950 C   0  0  0  0  0  0  0  0  0  0  0  0
   57.9641   32.4446   46.0164 H   0  0  0  0  0  0  0  0  0  0  0  0
   59.6890   31.3030   46.7230 C   0  0  0  0  0  0  0  0  0  0  0  0
   60.2015   32.1813   47.1425 H   0  0  0  0  0  0  0  0  0  0  0  0
   60.2890   30.0280   46.8180 C   0  0  0  0  0  0  0  0  0  0  0  0
   61.2654   29.9182   47.3125 H   0  0  0  0  0  0  0  0  0  0  0  0
   59.6450   28.8990   46.2840 C   0  0  0  0  0  0  0  0  0  0  0  0
   60.1023   27.9008   46.3513 H   0  0  0  0  0  0  0  0  0  0  0  0
   58.4060   29.0830   45.6650 C   0  0  0  0  0  0  0  0  0  0  0  0
  1  2  1  0
  2  3  1  0
  3  4  1  0
  4  5  1  0
  5  6  2  0
  5  7  1  0
  7  8  1  0
  8  9  1  0
  9 10  1  0
  9 11  2  0
 11 12  1  0
 12 13  1  0
 12 14  2  0
 14 15  1  0
 15 16  2  0
 16 17  1  0
 16 18  1  0
 18 19  1  0
 18 20  2  0
 20 21  1  0
 20 22  1  0
 22 23  1  0
 22 24  2  0
  8  3  2  0
 24 11  1  0
 24 15  1  0
M  CHG  2   4  -1   7  -1
M  END
>  <UniqueID>  (15) 
15

>  <SMILES>  (15) 
O=c1[n-]c(O)c(/C=C2\C=Nc3ccccc32)[n-]1

>  <Energy>  (15) 
88.2263902602829

>  <Genealogy>  (15) 
O=c1[n-]c(O)c(C=C2C=Nc3ccccc32)[n-]1 (protonated)
O=c1[n-]c(O)c(/C=C2\C=Nc3ccccc32)[n-]1 (cis-trans isomerization)
O=c1[n-]c(O)c(/C=C2\C=Nc3ccccc32)[n-]1 (3D coordinates assigned)
O=c1[n-]c(O)c(/C=C2\C=Nc3ccccc32)[n-]1 (nonaromatic ring conformer: 88.2263902602829 kcal/mol)

>  <smiles>  (15) 
O=c1[nH]c(O)c(C=C2C=Nc3ccccc32)[nH]1

>  <score_type>  (15) 
oracle

>  <origin>  (15) 
adg

>  <m_score__min__energy>  (15) 
-11.109999999999999

>  <m_primary>  (15) 
energy

$$$$
15:0
     RDKit          3D

 27 28  0  0  0  0  0  0  0  0999 V2000
   54.0170   26.3160   46.3820 H   0  0  0  0  0  0  0  0  0  0  0  0
   54.7760   26.3370   45.7110 O   0  0  0  0  0  0  0  0  0  0  0  0
   56.1010   26.3730   46.1350 C   0  0  0  0  0  0  0  0  0  0  0  0
   56.7870   25.3510   46.7520 C   0  0  0  0  0  0  0  0  0  0  0  0
   56.3723   24.3641   47.0051 H   0  0  0  0  0  0  0  0  0  0  0  0
   58.0520   25.7570   46.9960 N   0  0  0  0  0  0  0  0  0  0  0  0
   58.0880   27.0190   46.5160 C   0  0  0  0  0  0  0  0  0  0  0  0
   59.1240   27.7360   46.5560 O   0  0  0  0  0  0  0  0  0  0  0  0
   56.9160   27.4310   45.9910 N   0  0  0  0  0  0  0  0  0  0  0  0
   56.6130   28.7060   45.3410 C   0  0  0  0  0  0  0  0  0  0  0  0
   55.5655   28.7017   45.0052 H   0  0  0  0  0  0  0  0  0  0  0  0
   56.7757   29.5213   46.0613 H   0  0  0  0  0  0  0  0  0  0  0  0
   57.5110   28.9160   44.1570 C   0  0  0  0  0  0  0  0  0  0  0  0
   57.4288   28.2435   43.2904 H   0  0  0  0  0  0  0  0  0  0  0  0
   58.4100   29.9070   44.1370 C   0  0  0  0  0  0  0  0  0  0  0  0
   59.3692   29.7246   43.6304 H   0  0  0  0  0  0  0  0  0  0  0  0
   58.1910   31.2370   44.7570 C   0  0  0  0  0  0  0  0  0  0  0  0
   58.4240   31.4860   46.1250 C   0  0  0  0  0  0  0  0  0  0  0  0
   58.7759   30.6728   46.7769 H   0  0  0  0  0  0  0  0  0  0  0  0
   58.2100   32.7620   46.6580 C   0  0  0  0  0  0  0  0  0  0  0  0
   58.3882   32.9467   47.7276 H   0  0  0  0  0  0  0  0  0  0  0  0
   57.7710   33.8010   45.8360 C   0  0  0  0  0  0  0  0  0  0  0  0
   57.5984   34.8017   46.2589 H   0  0  0  0  0  0  0  0  0  0  0  0
   57.5510   33.5700   44.4770 C   0  0  0  0  0  0  0  0  0  0  0  0
   57.2102   34.3908   43.8288 H   0  0  0  0  0  0  0  0  0  0  0  0
   57.7630   32.2970   43.9380 C   0  0  0  0  0  0  0  0  0  0  0  0
   57.5936   32.1236   42.8650 H   0  0  0  0  0  0  0  0  0  0  0  0
  1  2  1  0
  2  3  1  0
  3  4  2  0
  4  5  1  0
  4  6  1  0
  6  7  1  0
  7  8  2  0
  7  9  1  0
  9 10  1  0
 10 11  1  0
 10 12  1  0
 10 13  1  0
 13 14  1  0
 13 15  2  0
 15 16  1  0
 15 17  1  0
 17 18  2  0
 18 19  1  0
 18 20  1  0
 20 21  1  0
 20 22  2  0
 22 23  1  0
 22 24  1  0
 24 25  1  0
 24 26  2  0
 26 27  1  0
  9  3  1  0
 26 17  1  0
M  CHG  1   6  -1
M  END
>  <UniqueID>  (16) 
16

>  <SMILES>  (16) 
O=c1[n-]cc(O)n1C/C=C/c1ccccc1

>  <Energy>  (16) 
58.170370890110185

>  <Genealogy>  (16) 
O=c1[n-]cc(O)n1CC=Cc1ccccc1 (protonated)
O=c1[n-]cc(O)n1C/C=C/c1ccccc1 (cis-trans isomerization)
O=c1[n-]cc(O)n1C/C=C/c1ccccc1 (3D coordinates assigned)
O=c1[n-]cc(O)n1C/C=C/c1ccccc1 (optimized conformer: 58.170370890110185 kcal/mol)

>  <smiles>  (16) 
O=c1[nH]cc(O)n1CC=Cc1ccccc1

>  <score_type>  (16) 
oracle

>  <origin>  (16) 
adg

>  <m_score__min__energy>  (16) 
-8.4299999999999997

>  <m_primary>  (16) 
energy

$$$$
16:0
     RDKit          3D

 60 63  0  0  0  0  0  0  0  0999 V2000
   56.4910   23.5280   43.4870 C   0  0  0  0  0  0  0  0  0  0  0  0
   56.0440   24.0690   44.8390 C   0  0  0  0  0  0  0  0  0  0  0  0
   56.9990   23.6860   45.8810 N   0  0  0  0  0  0  0  0  0  0  0  0
   58.1030   24.9840   46.2360 S   0  0  0  0  0  0  0  0  0  0  0  0
   58.0550   25.2830   47.7070 O   0  0  0  0  0  0  0  0  0  0  0  0
   59.5050   24.5670   45.8820 O   0  0  0  0  0  0  0  0  0  0  0  0
   57.6620   26.4350   45.3400 C   0  0  0  0  0  0  0  0  0  0  0  0
   58.1290   26.6180   44.0320 C   0  0  0  0  0  0  0  0  0  0  0  0
   57.8120   27.7830   43.3280 C   0  0  0  0  0  0  0  0  0  0  0  0
   57.0310   28.7830   43.9270 C   0  0  0  0  0  0  0  0  0  0  0  0
   56.6940   30.0390   43.1660 C   0  0  0  0  0  0  0  0  0  0  0  0
   57.7750   31.0200   43.2640 N   0  0  0  0  0  0  0  0  0  0  0  0
   57.8160   32.0280   44.2880 C   0  0  0  0  0  0  0  0  0  0  0  0
   57.1090   31.9040   45.3220 O   0  0  0  0  0  0  0  0  0  0  0  0
   58.6970   33.1540   44.1840 N   0  0  0  0  0  0  0  0  0  0  0  0
   59.1380   33.8480   45.1870 C   0  0  0  0  0  0  0  0  0  0  0  0
   59.1490   35.1970   45.1880 N   0  0  0  0  0  0  0  0  0  0  0  0
   59.7060   35.4990   46.3780 C   0  0  0  0  0  0  0  0  0  0  0  0
   60.0140   34.3270   47.0350 C   0  0  0  0  0  0  0  0  0  0  0  0
   60.6310   34.1930   48.3900 C   0  0  0  0  0  0  0  0  0  0  0  0
   59.8900   33.1650   49.1990 C   0  0  0  0  0  0  0  0  0  0  0  0
   59.4340   33.4690   50.4920 C   0  0  0  0  0  0  0  0  0  0  0  0
   58.7460   32.5090   51.2380 C   0  0  0  0  0  0  0  0  0  0  0  0
   58.4910   31.2480   50.6940 C   0  0  0  0  0  0  0  0  0  0  0  0
   58.9040   30.9430   49.3920 C   0  0  0  0  0  0  0  0  0  0  0  0
   58.6220   29.6730   48.8710 O   0  0  0  0  0  0  0  0  0  0  0  0
   59.2860   29.0820   47.7860 C   0  0  0  0  0  0  0  0  0  0  0  0
   59.3730   29.7930   46.5820 C   0  0  0  0  0  0  0  0  0  0  0  0
   60.0540   29.2500   45.4880 C   0  0  0  0  0  0  0  0  0  0  0  0
   60.6690   28.0000   45.5970 C   0  0  0  0  0  0  0  0  0  0  0  0
   60.5980   27.2880   46.7990 C   0  0  0  0  0  0  0  0  0  0  0  0
   59.9110   27.8240   47.8910 C   0  0  0  0  0  0  0  0  0  0  0  0
   59.6190   31.9010   48.6520 C   0  0  0  0  0  0  0  0  0  0  0  0
   59.6490   33.3230   46.2800 O   0  0  0  0  0  0  0  0  0  0  0  0
   56.5610   28.5960   45.2370 C   0  0  0  0  0  0  0  0  0  0  0  0
   56.8770   27.4300   45.9400 C   0  0  0  0  0  0  0  0  0  0  0  0
   57.1849   22.6882   43.6394 H   0  0  0  0  0  0  0  0  0  0  0  0
   55.6131   23.1805   42.9227 H   0  0  0  0  0  0  0  0  0  0  0  0
   56.9978   24.3247   42.9227 H   0  0  0  0  0  0  0  0  0  0  0  0
   55.9828   25.1661   44.7885 H   0  0  0  0  0  0  0  0  0  0  0  0
   55.0582   23.6473   45.0848 H   0  0  0  0  0  0  0  0  0  0  0  0
   58.7474   25.8420   43.5573 H   0  0  0  0  0  0  0  0  0  0  0  0
   58.1767   27.9167   42.2989 H   0  0  0  0  0  0  0  0  0  0  0  0
   56.5335   29.7857   42.1077 H   0  0  0  0  0  0  0  0  0  0  0  0
   55.7837   30.4775   43.6008 H   0  0  0  0  0  0  0  0  0  0  0  0
   58.5290   30.9910   42.5440 H   0  0  0  0  0  0  0  0  0  0  0  0
   59.8853   36.5142   46.7617 H   0  0  0  0  0  0  0  0  0  0  0  0
   61.6808   33.8827   48.2821 H   0  0  0  0  0  0  0  0  0  0  0  0
   60.5771   35.1628   48.9063 H   0  0  0  0  0  0  0  0  0  0  0  0
   59.6191   34.4659   50.9186 H   0  0  0  0  0  0  0  0  0  0  0  0
   58.4043   32.7467   52.2562 H   0  0  0  0  0  0  0  0  0  0  0  0
   57.9629   30.4907   51.2920 H   0  0  0  0  0  0  0  0  0  0  0  0
   58.9030   30.7839   46.4968 H   0  0  0  0  0  0  0  0  0  0  0  0
   60.1056   29.8072   44.5410 H   0  0  0  0  0  0  0  0  0  0  0  0
   61.2090   27.5759   44.7376 H   0  0  0  0  0  0  0  0  0  0  0  0
   61.0837   26.3048   46.8845 H   0  0  0  0  0  0  0  0  0  0  0  0
   59.8580   27.2622   48.8352 H   0  0  0  0  0  0  0  0  0  0  0  0
   59.9684   31.6584   47.6376 H   0  0  0  0  0  0  0  0  0  0  0  0
   55.9413   29.3707   45.7121 H   0  0  0  0  0  0  0  0  0  0  0  0
   56.5087   27.2925   46.9673 H   0  0  0  0  0  0  0  0  0  0  0  0
  1  2  1  0
  2  3  1  0
  3  4  1  0
  4  5  2  0
  4  6  2  0
  4  7  1  0
  7  8  2  0
  8  9  1  0
  9 10  2  0
 10 11  1  0
 11 12  1  0
 12 13  1  0
 13 14  2  0
 13 15  1  0
 15 16  2  3
 16 17  1  0
 17 18  1  0
 18 19  2  0
 19 20  1  0
 20 21  1  0
 21 22  2  0
 22 23  1  0
 23 24  2  0
 24 25  1  0
 25 26  1  0
 26 27  1  0
 27 28  2  0
 28 29  1  0
 29 30  2  0
 30 31  1  0
 31 32  2  0
 25 33  2  0
 19 34  1  0
 10 35  1  0
 35 36  2  0
 36  7  1  0
 34 16  1  0
 33 21  1  0
 32 27  1  0
  1 37  1  0
  1 38  1  0
  1 39  1  0
  2 40  1  0
  2 41  1  0
  8 42  1  0
  9 43  1  0
 11 44  1  0
 11 45  1  0
 12 46  1  0
 18 47  1  0
 20 48  1  0
 20 49  1  0
 22 50  1  0
 23 51  1  0
 24 52  1  0
 28 53  1  0
 29 54  1  0
 30 55  1  0
 31 56  1  0
 32 57  1  0
 33 58  1  0
 35 59  1  0
 36 60  1  0
M  CHG  2   3  -1  17  -1
M  END
>  <UniqueID>  (17) 
17

>  <SMILES>  (17) 
CC[N-]S(=O)(=O)c1ccc(CNC(=O)N=c2[n-]cc(Cc3cccc(Oc4ccccc4)c3)o2)cc1

>  <Energy>  (17) 
93.54907036524737

>  <Genealogy>  (17) 
CC[N-]S(=O)(=O)c1ccc(CNC(=O)N=c2[n-]cc(Cc3cccc(Oc4ccccc4)c3)o2)cc1 (protonated)
CC[N-]S(=O)(=O)c1ccc(CNC(=O)N=c2[n-]cc(Cc3cccc(Oc4ccccc4)c3)o2)cc1 (3D coordinates assigned)
CC[N-]S(=O)(=O)c1ccc(CNC(=O)N=c2[n-]cc(Cc3cccc(Oc4ccccc4)c3)o2)cc1 (optimized conformer: 93.54907036524737 kcal/mol)

>  <smiles>  (17) 
CCNS(=O)(=O)c1ccc(CNC(=O)N=c2[nH]cc(Cc3cccc(Oc4ccccc4)c3)o2)cc1

>  <score_type>  (17) 
oracle

>  <origin>  (17) 
adg

>  <m_score__min__energy>  (17) 
-11.51

>  <m_primary>  (17) 
energy

$$$$
17:0
     RDKit          3D

 49 52  0  0  0  0  0  0  0  0999 V2000
   59.4893   31.2301   51.4773 H   0  0  0  0  0  0  0  0  0  0  0  0
   59.3670   31.1270   50.3890 C   0  0  0  0  0  0  0  0  0  0  0  0
   58.7770   32.1220   49.6760 N   0  0  0  0  0  0  0  0  0  0  0  0
   58.5960   32.0420   48.3300 C   0  0  0  0  0  0  0  0  0  0  0  0
   58.0100   33.0360   47.7190 N   0  0  0  0  0  0  0  0  0  0  0  0
   58.3560   33.5810   46.4370 C   0  0  0  0  0  0  0  0  0  0  0  0
   58.8960   34.7180   46.3890 O   0  0  0  0  0  0  0  0  0  0  0  0
   58.0290   32.8700   45.1760 C   0  0  0  0  0  0  0  0  0  0  0  0
   58.4410   33.3950   43.9400 C   0  0  0  0  0  0  0  0  0  0  0  0
   58.9911   34.3469   43.9061 H   0  0  0  0  0  0  0  0  0  0  0  0
   58.1560   32.7150   42.7540 C   0  0  0  0  0  0  0  0  0  0  0  0
   58.4918   33.1282   41.7914 H   0  0  0  0  0  0  0  0  0  0  0  0
   57.4460   31.5120   42.7850 C   0  0  0  0  0  0  0  0  0  0  0  0
   57.2319   30.9780   41.8474 H   0  0  0  0  0  0  0  0  0  0  0  0
   57.0040   30.9810   44.0100 C   0  0  0  0  0  0  0  0  0  0  0  0
   56.2320   29.6870   44.0770 C   0  0  0  0  0  0  0  0  0  0  0  0
   54.8820   29.9520   43.9380 F   0  0  0  0  0  0  0  0  0  0  0  0
   56.6350   28.8530   43.0480 F   0  0  0  0  0  0  0  0  0  0  0  0
   56.4360   29.0290   45.2770 F   0  0  0  0  0  0  0  0  0  0  0  0
   57.3060   31.6630   45.2000 C   0  0  0  0  0  0  0  0  0  0  0  0
   56.9732   31.2484   46.1630 H   0  0  0  0  0  0  0  0  0  0  0  0
   59.0680   30.9030   47.6430 C   0  0  0  0  0  0  0  0  0  0  0  0
   58.9499   30.8273   46.5520 H   0  0  0  0  0  0  0  0  0  0  0  0
   59.6890   29.8670   48.3590 C   0  0  0  0  0  0  0  0  0  0  0  0
   60.1460   28.7040   47.7210 O   0  0  0  0  0  0  0  0  0  0  0  0
   59.5600   28.1370   46.5810 C   0  0  0  0  0  0  0  0  0  0  0  0
   59.8610   28.6050   45.2900 C   0  0  0  0  0  0  0  0  0  0  0  0
   60.5504   29.4523   45.1607 H   0  0  0  0  0  0  0  0  0  0  0  0
   59.2870   27.9970   44.1710 C   0  0  0  0  0  0  0  0  0  0  0  0
   59.5305   28.3619   43.1623 H   0  0  0  0  0  0  0  0  0  0  0  0
   58.4040   26.9260   44.3310 C   0  0  0  0  0  0  0  0  0  0  0  0
   57.9629   26.4436   43.4463 H   0  0  0  0  0  0  0  0  0  0  0  0
   58.0780   26.4640   45.6110 C   0  0  0  0  0  0  0  0  0  0  0  0
   57.1600   25.3710   45.7420 N   0  0  0  0  0  0  0  0  0  0  0  0
   55.8190   25.4770   46.2280 C   0  0  0  0  0  0  0  0  0  0  0  0
   55.1700   26.5300   45.9950 O   0  0  0  0  0  0  0  0  0  0  0  0
   55.2740   24.4410   47.0610 N   0  0  0  0  0  0  0  0  0  0  0  0
   55.8590   23.3570   47.4800 C   0  0  0  0  0  0  0  0  0  0  0  0
   55.2870   22.4590   48.3500 C   0  0  0  0  0  0  0  0  0  0  0  0
   54.2817   22.4901   48.7954 H   0  0  0  0  0  0  0  0  0  0  0  0
   56.2730   21.5080   48.5330 C   0  0  0  0  0  0  0  0  0  0  0  0
   56.1910   20.6134   49.1678 H   0  0  0  0  0  0  0  0  0  0  0  0
   57.3260   21.8500   47.8220 O   0  0  0  0  0  0  0  0  0  0  0  0
   57.1110   22.9580   47.1770 N   0  0  0  0  0  0  0  0  0  0  0  0
   57.8230   23.4290   46.5780 H   0  0  0  0  0  0  0  0  0  0  0  0
   58.6870   27.0530   46.7340 C   0  0  0  0  0  0  0  0  0  0  0  0
   58.4759   26.6593   47.7392 H   0  0  0  0  0  0  0  0  0  0  0  0
   59.8180   29.9750   49.7440 C   0  0  0  0  0  0  0  0  0  0  0  0
   60.2721   29.1576   50.3234 H   0  0  0  0  0  0  0  0  0  0  0  0
  1  2  1  0
  2  3  1  0
  3  4  1  0
  4  5  2  0
  5  6  1  0
  6  7  2  0
  6  8  1  0
  8  9  2  0
  9 10  1  0
  9 11  1  0
 11 12  1  0
 11 13  2  0
 13 14  1  0
 13 15  1  0
 15 16  1  0
 16 17  1  0
 16 18  1  0
 16 19  1  0
 15 20  2  0
 20 21  1  0
  4 22  1  0
 22 23  1  0
 22 24  2  0
 24 25  1  0
 25 26  1  0
 26 27  2  0
 27 28  1  0
 27 29  1  0
 29 30  1  0
 29 31  2  0
 31 32  1  0
 31 33  1  0
 33 34  1  0
 34 35  1  0
 35 36  2  0
 35 37  1  0
 37 38  2  3
 38 39  1  0
 39 40  1  0
 39 41  2  0
 41 42  1  0
 41 43  1  0
 43 44  1  0
 44 45  1  0
 33 46  2  0
 46 47  1  0
 24 48  1  0
 48 49  1  0
 48  2  2  0
 20  8  1  0
 46 26  1  0
 44 38  1  0
M  CHG  2   3  -1  34  -1
M  END
>  <UniqueID>  (18) 
18

>  <SMILES>  (18) 
O=C(N=c1cco[nH]1)[N-]c1cccc(Oc2cc[n-]/c(=N/C(=O)c3cccc(C(F)(F)F)c3)c2)c1

>  <Energy>  (18) 
108.75788661381733

>  <Genealogy>  (18) 
O=C(N=c1cco[nH]1)[N-]c1cccc(Oc2cc[n-]c(=NC(=O)c3cccc(C(F)(F)F)c3)c2)c1 (protonated)
O=C(N=c1cco[nH]1)[N-]c1cccc(Oc2cc[n-]/c(=N/C(=O)c3cccc(C(F)(F)F)c3)c2)c1 (cis-trans isomerization)
O=C(N=c1cco[nH]1)[N-]c1cccc(Oc2cc[n-]/c(=N/C(=O)c3cccc(C(F)(F)F)c3)c2)c1 (3D coordinates assigned)
O=C(N=c1cco[nH]1)[N-]c1cccc(Oc2cc[n-]/c(=N/C(=O)c3cccc(C(F)(F)F)c3)c2)c1 (optimized conformer: 108.75788661381733 kcal/mol)

>  <smiles>  (18) 
O=C(N=c1cco[nH]1)Nc1cccc(Oc2cc[nH]c(=NC(=O)c3cccc(C(F)(F)F)c3)c2)c1

>  <score_type>  (18) 
oracle

>  <origin>  (18) 
adg

>  <m_score__min__energy>  (18) 
-12.119999999999999

>  <m_primary>  (18) 
energy

$$$$
18:0
     RDKit          3D

 45 47  0  0  0  0  0  0  0  0999 V2000
   55.6070   29.2440   44.4490 H   0  0  0  0  0  0  0  0  0  0  0  0
   55.5200   28.5890   45.2160 O   0  0  0  0  0  0  0  0  0  0  0  0
   56.5570   27.7330   45.5810 C   0  0  0  0  0  0  0  0  0  0  0  0
   56.3310   26.6670   46.3910 N   0  0  0  0  0  0  0  0  0  0  0  0
   57.4720   25.9810   46.6340 C   0  0  0  0  0  0  0  0  0  0  0  0
   57.5360   24.9240   47.3830 N   0  0  0  0  0  0  0  0  0  0  0  0
   56.6890   23.7510   47.1980 C   0  0  0  0  0  0  0  0  0  0  0  0
   57.0947   22.9096   47.7789 H   0  0  0  0  0  0  0  0  0  0  0  0
   55.6691   23.9751   47.5438 H   0  0  0  0  0  0  0  0  0  0  0  0
   56.6570   23.3850   45.7390 C   0  0  0  0  0  0  0  0  0  0  0  0
   57.7500   22.7050   45.1740 C   0  0  0  0  0  0  0  0  0  0  0  0
   58.6280   22.4710   45.7940 H   0  0  0  0  0  0  0  0  0  0  0  0
   57.7280   22.3240   43.8280 C   0  0  0  0  0  0  0  0  0  0  0  0
   58.5899   21.7974   43.3922 H   0  0  0  0  0  0  0  0  0  0  0  0
   56.6140   22.6110   43.0370 C   0  0  0  0  0  0  0  0  0  0  0  0
   56.6007   22.3156   41.9775 H   0  0  0  0  0  0  0  0  0  0  0  0
   55.5170   23.2730   43.5910 C   0  0  0  0  0  0  0  0  0  0  0  0
   54.6396   23.4946   42.9656 H   0  0  0  0  0  0  0  0  0  0  0  0
   55.5260   23.6570   44.9380 C   0  0  0  0  0  0  0  0  0  0  0  0
   54.1020   24.4620   45.5880 Cl  0  0  0  0  0  0  0  0  0  0  0  0
   58.8020   26.6600   45.8660 S   0  0  0  0  0  0  0  0  0  0  0  0
   57.8840   27.8890   45.1650 C   0  0  0  0  0  0  0  0  0  0  0  0
   58.4530   29.0030   44.3420 C   0  0  0  0  0  0  0  0  0  0  0  0
   58.9195   28.5865   43.4371 H   0  0  0  0  0  0  0  0  0  0  0  0
   59.2069   29.5423   44.9343 H   0  0  0  0  0  0  0  0  0  0  0  0
   57.3660   29.9510   43.9480 C   0  0  0  0  0  0  0  0  0  0  0  0
   56.8970   29.9100   42.7780 O   0  0  0  0  0  0  0  0  0  0  0  0
   56.9530   30.9640   44.8720 N   0  0  0  0  0  0  0  0  0  0  0  0
   57.6810   32.1480   45.2360 C   0  0  0  0  0  0  0  0  0  0  0  0
   57.5010   33.3590   44.5430 C   0  0  0  0  0  0  0  0  0  0  0  0
   56.8146   33.4004   43.6844 H   0  0  0  0  0  0  0  0  0  0  0  0
   58.1880   34.5090   44.9380 C   0  0  0  0  0  0  0  0  0  0  0  0
   58.0508   35.4481   44.3819 H   0  0  0  0  0  0  0  0  0  0  0  0
   59.0470   34.4700   46.0350 C   0  0  0  0  0  0  0  0  0  0  0  0
   59.5877   35.3774   46.3419 H   0  0  0  0  0  0  0  0  0  0  0  0
   59.2220   33.2800   46.7450 C   0  0  0  0  0  0  0  0  0  0  0  0
   59.8925   33.2575   47.6167 H   0  0  0  0  0  0  0  0  0  0  0  0
   58.5470   32.1110   46.3530 C   0  0  0  0  0  0  0  0  0  0  0  0
   58.7320   30.8450   47.1560 C   0  0  0  0  0  0  0  0  0  0  0  0
   58.0251   30.0830   46.7960 H   0  0  0  0  0  0  0  0  0  0  0  0
   58.5454   31.0695   48.2166 H   0  0  0  0  0  0  0  0  0  0  0  0
   60.1560   30.3150   47.0110 C   0  0  0  0  0  0  0  0  0  0  0  0
   60.5904   30.1533   48.0086 H   0  0  0  0  0  0  0  0  0  0  0  0
   60.1386   29.3631   46.4600 H   0  0  0  0  0  0  0  0  0  0  0  0
   60.7652   31.0466   46.4600 H   0  0  0  0  0  0  0  0  0  0  0  0
  1  2  1  0
  2  3  1  0
  3  4  1  0
  4  5  1  0
  5  6  2  0
  6  7  1  0
  7  8  1  0
  7  9  1  0
  7 10  1  0
 10 11  2  0
 11 12  1  0
 11 13  1  0
 13 14  1  0
 13 15  2  0
 15 16  1  0
 15 17  1  0
 17 18  1  0
 17 19  2  0
 19 20  1  0
  5 21  1  0
 21 22  1  0
 22 23  1  0
 23 24  1  0
 23 25  1  0
 23 26  1  0
 26 27  2  0
 26 28  1  0
 28 29  1  0
 29 30  2  0
 30 31  1  0
 30 32  1  0
 32 33  1  0
 32 34  2  0
 34 35  1  0
 34 36  1  0
 36 37  1  0
 36 38  2  0
 38 39  1  0
 39 40  1  0
 39 41  1  0
 39 42  1  0
 42 43  1  0
 42 44  1  0
 42 45  1  0
 22  3  2  0
 38 29  1  0
 19 10  1  0
M  CHG  2   4  -1  28  -1
M  END
>  <UniqueID>  (19) 
19

>  <SMILES>  (19) 
CCc1ccccc1[N-]C(=O)Cc1s/c(=N/Cc2ccccc2Cl)[n-]c1O

>  <Energy>  (19) 
74.77127681736997

>  <Genealogy>  (19) 
CCc1ccccc1[N-]C(=O)Cc1sc(=NCc2ccccc2Cl)[n-]c1O (protonated)
CCc1ccccc1[N-]C(=O)Cc1s/c(=N/Cc2ccccc2Cl)[n-]c1O (cis-trans isomerization)
CCc1ccccc1[N-]C(=O)Cc1s/c(=N/Cc2ccccc2Cl)[n-]c1O (3D coordinates assigned)
CCc1ccccc1[N-]C(=O)Cc1s/c(=N/Cc2ccccc2Cl)[n-]c1O (optimized conformer: 74.77127681736997 kcal/mol)

>  <smiles>  (19) 
CCc1ccccc1NC(=O)Cc1sc(=NCc2ccccc2Cl)[nH]c1O

>  <score_type>  (19) 
oracle

>  <origin>  (19) 
adg

>  <m_score__min__energy>  (19) 
-12.23

>  <m_primary>  (19) 
energy

$$$$
19:0
     RDKit          3D

 68 72  0  0  0  0  0  0  0  0999 V2000
   65.3440   33.8140   51.1810 C   0  0  0  0  0  0  0  0  0  0  0  0
   64.3060   33.4340   50.1680 C   0  0  0  0  0  0  0  0  0  0  0  0
   64.6720   32.6870   49.0390 C   0  0  0  0  0  0  0  0  0  0  0  0
   63.7070   32.3130   48.1010 C   0  0  0  0  0  0  0  0  0  0  0  0
   62.3680   32.6730   48.2870 C   0  0  0  0  0  0  0  0  0  0  0  0
   61.9830   33.4060   49.4260 C   0  0  0  0  0  0  0  0  0  0  0  0
   60.6530   33.7900   49.6670 O   0  0  0  0  0  0  0  0  0  0  0  0
   59.8580   34.6060   48.8080 C   0  0  0  0  0  0  0  0  0  0  0  0
   59.3140   33.8080   47.6590 C   0  0  0  0  0  0  0  0  0  0  0  0
   59.1960   34.2960   46.3990 N   0  0  0  0  0  0  0  0  0  0  0  0
   58.6170   33.3210   45.6770 C   0  0  0  0  0  0  0  0  0  0  0  0
   58.3080   33.3470   44.3190 C   0  0  0  0  0  0  0  0  0  0  0  0
   57.7210   32.1980   43.7550 C   0  0  0  0  0  0  0  0  0  0  0  0
   57.4540   31.0590   44.5540 C   0  0  0  0  0  0  0  0  0  0  0  0
   56.7500   29.6090   43.8480 S   0  0  0  0  0  0  0  0  0  0  0  0
   55.5250   28.9930   44.9000 N   0  0  0  0  0  0  0  0  0  0  0  0
   57.8220   28.5740   43.6680 O   0  0  0  0  0  0  0  0  0  0  0  0
   56.1390   29.9210   42.5100 O   0  0  0  0  0  0  0  0  0  0  0  0
   57.7700   31.0720   45.9260 C   0  0  0  0  0  0  0  0  0  0  0  0
   58.3510   32.2240   46.4530 C   0  0  0  0  0  0  0  0  0  0  0  0
   58.7930   32.5140   47.7280 C   0  0  0  0  0  0  0  0  0  0  0  0
   58.6880   31.6340   48.8980 C   0  0  0  0  0  0  0  0  0  0  0  0
   58.7020   30.3840   48.7280 O   0  0  0  0  0  0  0  0  0  0  0  0
   58.6570   32.1860   50.2210 N   0  0  0  0  0  0  0  0  0  0  0  0
   58.9460   31.3790   51.4040 C   0  0  0  0  0  0  0  0  0  0  0  0
   60.4130   31.0440   51.4420 C   0  0  0  0  0  0  0  0  0  0  0  0
   61.2430   31.6150   52.4190 C   0  0  0  0  0  0  0  0  0  0  0  0
   62.5910   31.2570   52.4980 C   0  0  0  0  0  0  0  0  0  0  0  0
   63.1330   30.3210   51.6020 C   0  0  0  0  0  0  0  0  0  0  0  0
   64.5660   29.9680   51.6770 C   0  0  0  0  0  0  0  0  0  0  0  0
   65.4200   30.8920   51.7430 O   0  0  0  0  0  0  0  0  0  0  0  0
   65.0070   28.5990   51.6840 N   0  0  0  0  0  0  0  0  0  0  0  0
   66.3430   28.2050   51.2710 C   0  0  0  0  0  0  0  0  0  0  0  0
   66.5400   26.7860   51.7890 C   0  0  0  0  0  0  0  0  0  0  0  0
   65.1550   26.2850   52.1890 C   0  0  0  0  0  0  0  0  0  0  0  0
   64.2950   27.5290   52.3660 C   0  0  0  0  0  0  0  0  0  0  0  0
   62.3070   29.7710   50.6090 C   0  0  0  0  0  0  0  0  0  0  0  0
   60.9540   30.1150   50.5410 C   0  0  0  0  0  0  0  0  0  0  0  0
   62.9570   33.7770   50.3620 C   0  0  0  0  0  0  0  0  0  0  0  0
   64.9399   33.6660   52.1933 H   0  0  0  0  0  0  0  0  0  0  0  0
   66.2356   33.1840   51.0464 H   0  0  0  0  0  0  0  0  0  0  0  0
   65.6181   34.8708   51.0464 H   0  0  0  0  0  0  0  0  0  0  0  0
   65.7222   32.3947   48.8917 H   0  0  0  0  0  0  0  0  0  0  0  0
   64.0008   31.7336   47.2133 H   0  0  0  0  0  0  0  0  0  0  0  0
   61.6135   32.3825   47.5411 H   0  0  0  0  0  0  0  0  0  0  0  0
   59.0196   35.0244   49.3841 H   0  0  0  0  0  0  0  0  0  0  0  0
   60.4902   35.4117   48.4066 H   0  0  0  0  0  0  0  0  0  0  0  0
   59.4820   35.2410   46.0590 H   0  0  0  0  0  0  0  0  0  0  0  0
   58.5159   34.2368   43.7066 H   0  0  0  0  0  0  0  0  0  0  0  0
   57.4676   32.1847   42.6847 H   0  0  0  0  0  0  0  0  0  0  0  0
   54.6290   29.4600   44.6310 H   0  0  0  0  0  0  0  0  0  0  0  0
   57.5645   30.1990   46.5629 H   0  0  0  0  0  0  0  0  0  0  0  0
   58.6920   33.2230   50.3310 H   0  0  0  0  0  0  0  0  0  0  0  0
   58.6764   31.9451   52.3078 H   0  0  0  0  0  0  0  0  0  0  0  0
   58.3603   30.4488   51.3631 H   0  0  0  0  0  0  0  0  0  0  0  0
   60.8297   32.3487   53.1267 H   0  0  0  0  0  0  0  0  0  0  0  0
   63.2325   31.7114   53.2674 H   0  0  0  0  0  0  0  0  0  0  0  0
   66.4263   28.2268   50.1744 H   0  0  0  0  0  0  0  0  0  0  0  0
   67.1066   28.8894   51.6692 H   0  0  0  0  0  0  0  0  0  0  0  0
   66.9639   26.1471   51.0002 H   0  0  0  0  0  0  0  0  0  0  0  0
   67.2370   26.7620   52.6396 H   0  0  0  0  0  0  0  0  0  0  0  0
   64.7386   25.6413   51.4001 H   0  0  0  0  0  0  0  0  0  0  0  0
   65.1933   25.6865   53.1111 H   0  0  0  0  0  0  0  0  0  0  0  0
   63.3040   27.3780   51.9131 H   0  0  0  0  0  0  0  0  0  0  0  0
   64.1316   27.7623   53.4285 H   0  0  0  0  0  0  0  0  0  0  0  0
   62.7278   29.0640   49.8789 H   0  0  0  0  0  0  0  0  0  0  0  0
   60.3101   29.6548   49.7770 H   0  0  0  0  0  0  0  0  0  0  0  0
   62.6628   34.3428   51.2583 H   0  0  0  0  0  0  0  0  0  0  0  0
  1  2  1  0
  2  3  2  0
  3  4  1  0
  4  5  2  0
  5  6  1  0
  6  7  1  0
  7  8  1  0
  8  9  1  0
  9 10  1  0
 10 11  1  0
 11 12  2  0
 12 13  1  0
 13 14  2  0
 14 15  1  0
 15 16  1  0
 15 17  2  0
 15 18  2  0
 14 19  1  0
 19 20  2  0
 20 21  1  0
 21 22  1  0
 22 23  2  0
 22 24  1  0
 24 25  1  0
 25 26  1  0
 26 27  2  0
 27 28  1  0
 28 29  2  0
 29 30  1  0
 30 31  2  0
 30 32  1  0
 32 33  1  0
 33 34  1  0
 34 35  1  0
 35 36  1  0
 29 37  1  0
 37 38  2  0
  6 39  2  0
 39  2  1  0
 21  9  2  0
 38 26  1  0
 20 11  1  0
 36 32  1  0
  1 40  1  0
  1 41  1  0
  1 42  1  0
  3 43  1  0
  4 44  1  0
  5 45  1  0
  8 46  1  0
  8 47  1  0
 10 48  1  0
 12 49  1  0
 13 50  1  0
 16 51  1  0
 19 52  1  0
 24 53  1  0
 25 54  1  0
 25 55  1  0
 27 56  1  0
 28 57  1  0
 33 58  1  0
 33 59  1  0
 34 60  1  0
 34 61  1  0
 35 62  1  0
 35 63  1  0
 36 64  1  0
 36 65  1  0
 37 66  1  0
 38 67  1  0
 39 68  1  0
M  CHG  1  16  -1
M  END
>  <UniqueID>  (20) 
20

>  <SMILES>  (20) 
Cc1cccc(OCc2[nH]c3ccc(S([NH-])(=O)=O)cc3c2C(=O)NCc2ccc(C(=O)N3CCCC3)cc2)c1

>  <Energy>  (20) 
111.09941832476679

>  <Genealogy>  (20) 
Cc1cccc(OCc2[nH]c3ccc(S([NH-])(=O)=O)cc3c2C(=O)NCc2ccc(C(=O)N3CCCC3)cc2)c1 (protonated)
Cc1cccc(OCc2[nH]c3ccc(S([NH-])(=O)=O)cc3c2C(=O)NCc2ccc(C(=O)N3CCCC3)cc2)c1 (3D coordinates assigned)
Cc1cccc(OCc2[nH]c3ccc(S([NH-])(=O)=O)cc3c2C(=O)NCc2ccc(C(=O)N3CCCC3)cc2)c1 (nonaromatic ring conformer: 111.09941832476679 kcal/mol)

>  <smiles>  (20) 
Cc1cccc(OCc2[nH]c3ccc(S(N)(=O)=O)cc3c2C(=O)NCc2ccc(C(=O)N3CCCC3)cc2)c1

>  <score_type>  (20) 
oracle

>  <origin>  (20) 
adg

>  <m_score__min__energy>  (20) 
-12.76

>  <m_primary>  (20) 
energy

$$$$
20:0
     RDKit          3D

 52 55  0  0  0  0  0  0  0  0999 V2000
   58.0010   32.7940   52.3760 C   0  0  0  0  0  0  0  0  0  0  0  0
   58.7710   31.8890   51.5350 N   0  0  0  0  0  0  0  0  0  0  0  0
   58.2720   30.5940   51.1720 C   0  0  0  0  0  0  0  0  0  0  0  0
   57.2000   30.1770   51.6910 O   0  0  0  0  0  0  0  0  0  0  0  0
   58.9990   29.7250   50.2090 C   0  0  0  0  0  0  0  0  0  0  0  0
   60.1160   28.9870   50.6420 C   0  0  0  0  0  0  0  0  0  0  0  0
   60.8220   28.1760   49.7480 C   0  0  0  0  0  0  0  0  0  0  0  0
   60.4040   28.0650   48.4210 C   0  0  0  0  0  0  0  0  0  0  0  0
   59.2590   28.7420   47.9870 C   0  0  0  0  0  0  0  0  0  0  0  0
   58.8700   28.6520   46.6120 N   0  0  0  0  0  0  0  0  0  0  0  0
   57.9460   29.3170   45.9660 C   0  0  0  0  0  0  0  0  0  0  0  0
   56.7970   28.6220   45.4840 C   0  0  0  0  0  0  0  0  0  0  0  0
   56.5730   27.1700   45.7410 C   0  0  0  0  0  0  0  0  0  0  0  0
   55.2570   26.6760   45.9890 N   0  0  0  0  0  0  0  0  0  0  0  0
   57.5340   26.3560   45.7480 O   0  0  0  0  0  0  0  0  0  0  0  0
   55.8430   29.3280   44.7140 C   0  0  0  0  0  0  0  0  0  0  0  0
   56.0070   30.6500   44.4560 N   0  0  0  0  0  0  0  0  0  0  0  0
   57.0650   31.2900   44.9420 N   0  0  0  0  0  0  0  0  0  0  0  0
   57.3300   32.5990   44.8210 C   0  0  0  0  0  0  0  0  0  0  0  0
   58.4940   32.8720   45.5160 C   0  0  0  0  0  0  0  0  0  0  0  0
   59.1250   34.2000   45.6420 C   0  0  0  0  0  0  0  0  0  0  0  0
   59.5360   34.7770   44.6010 O   0  0  0  0  0  0  0  0  0  0  0  0
   59.3470   34.8310   46.9110 N   0  0  0  0  0  0  0  0  0  0  0  0
   59.6690   34.1300   48.1490 C   0  0  0  0  0  0  0  0  0  0  0  0
   60.9510   33.3720   47.9790 C   0  0  0  0  0  0  0  0  0  0  0  0
   61.1060   32.1040   48.5680 C   0  0  0  0  0  0  0  0  0  0  0  0
   62.3030   31.3980   48.4100 C   0  0  0  0  0  0  0  0  0  0  0  0
   63.3520   31.9550   47.6720 C   0  0  0  0  0  0  0  0  0  0  0  0
   63.1940   33.2030   47.0620 C   0  0  0  0  0  0  0  0  0  0  0  0
   61.9960   33.9080   47.2080 C   0  0  0  0  0  0  0  0  0  0  0  0
   58.9170   31.6820   46.1020 C   0  0  0  0  0  0  0  0  0  0  0  0
   58.0180   30.7050   45.6880 C   0  0  0  0  0  0  0  0  0  0  0  0
   58.5760   29.5960   48.8710 C   0  0  0  0  0  0  0  0  0  0  0  0
   58.1953   32.5656   53.4343 H   0  0  0  0  0  0  0  0  0  0  0  0
   58.2970   33.8321   52.1646 H   0  0  0  0  0  0  0  0  0  0  0  0
   56.9289   32.6681   52.1646 H   0  0  0  0  0  0  0  0  0  0  0  0
   59.7210   32.1950   51.2390 H   0  0  0  0  0  0  0  0  0  0  0  0
   60.4365   29.0485   51.6925 H   0  0  0  0  0  0  0  0  0  0  0  0
   61.7093   27.6240   50.0916 H   0  0  0  0  0  0  0  0  0  0  0  0
   60.9756   27.4443   47.7153 H   0  0  0  0  0  0  0  0  0  0  0  0
   54.6680   27.0830   46.7490 H   0  0  0  0  0  0  0  0  0  0  0  0
   54.9610   28.8009   44.3212 H   0  0  0  0  0  0  0  0  0  0  0  0
   56.7253   33.3301   44.2644 H   0  0  0  0  0  0  0  0  0  0  0  0
   59.7806   34.8597   48.9645 H   0  0  0  0  0  0  0  0  0  0  0  0
   58.8586   33.4271   48.3921 H   0  0  0  0  0  0  0  0  0  0  0  0
   60.2841   31.6668   49.1540 H   0  0  0  0  0  0  0  0  0  0  0  0
   62.4193   30.4040   48.8666 H   0  0  0  0  0  0  0  0  0  0  0  0
   64.3025   31.4106   47.5713 H   0  0  0  0  0  0  0  0  0  0  0  0
   64.0138   33.6308   46.4662 H   0  0  0  0  0  0  0  0  0  0  0  0
   61.8711   34.8849   46.7180 H   0  0  0  0  0  0  0  0  0  0  0  0
   59.7873   31.5426   46.7601 H   0  0  0  0  0  0  0  0  0  0  0  0
   57.7057   30.1672   48.5157 H   0  0  0  0  0  0  0  0  0  0  0  0
  1  2  1  0
  2  3  1  0
  3  4  2  0
  3  5  1  0
  5  6  2  0
  6  7  1  0
  7  8  2  0
  8  9  1  0
  9 10  1  0
 10 11  2  3
 11 12  1  0
 12 13  1  0
 13 14  1  0
 13 15  2  0
 12 16  2  0
 16 17  1  0
 17 18  1  0
 18 19  1  0
 19 20  2  0
 20 21  1  0
 21 22  2  0
 21 23  1  0
 23 24  1  0
 24 25  1  0
 25 26  2  0
 26 27  1  0
 27 28  2  0
 28 29  1  0
 29 30  2  0
 20 31  1  0
 31 32  2  0
  9 33  2  0
 33  5  1  0
 32 11  1  0
 32 18  1  0
 30 25  1  0
  1 34  1  0
  1 35  1  0
  1 36  1  0
  2 37  1  0
  6 38  1  0
  7 39  1  0
  8 40  1  0
 14 41  1  0
 16 42  1  0
 19 43  1  0
 24 44  1  0
 24 45  1  0
 26 46  1  0
 27 47  1  0
 28 48  1  0
 29 49  1  0
 30 50  1  0
 31 51  1  0
 33 52  1  0
M  CHG  3  14  -1  17  -1  23  -1
M  END
>  <UniqueID>  (21) 
21

>  <SMILES>  (21) 
CNC(=O)c1cccc(N=c2c(C([NH-])=O)c[n-]n3cc(C(=O)[N-]Cc4ccccc4)cc23)c1

>  <Energy>  (21) 
102.91918894562093

>  <Genealogy>  (21) 
CNC(=O)c1cccc(N=c2c(C([NH-])=O)c[n-]n3cc(C(=O)[N-]Cc4ccccc4)cc23)c1 (protonated)
CNC(=O)c1cccc(N=c2c(C([NH-])=O)c[n-]n3cc(C(=O)[N-]Cc4ccccc4)cc23)c1 (3D coordinates assigned)
CNC(=O)c1cccc(N=c2c(C([NH-])=O)c[n-]n3cc(C(=O)[N-]Cc4ccccc4)cc23)c1 (optimized conformer: 102.91918894562093 kcal/mol)

>  <smiles>  (21) 
CNC(=O)c1cccc(N=c2c(C(N)=O)c[nH]n3cc(C(=O)NCc4ccccc4)cc23)c1

>  <score_type>  (21) 
oracle

>  <origin>  (21) 
adg

>  <m_score__min__energy>  (21) 
-14.699999999999999

>  <m_primary>  (21) 
energy

$$$$
21:0
     RDKit          3D

 48 51  0  0  0  0  0  0  0  0999 V2000
   57.4440   31.2160   54.4680 C   0  0  0  0  0  0  0  0  0  0  0  0
   57.1170   32.1240   53.4220 O   0  0  0  0  0  0  0  0  0  0  0  0
   57.8510   32.2680   52.2340 C   0  0  0  0  0  0  0  0  0  0  0  0
   58.6420   33.4010   51.9800 C   0  0  0  0  0  0  0  0  0  0  0  0
   59.3560   33.5150   50.7860 C   0  0  0  0  0  0  0  0  0  0  0  0
   59.2800   32.5180   49.7890 C   0  0  0  0  0  0  0  0  0  0  0  0
   60.1200   32.6170   48.4900 C   0  0  2  0  0  0  0  0  0  0  0  0
   61.6220   32.4600   48.8070 C   0  0  0  0  0  0  0  0  0  0  0  0
   62.0830   31.6510   49.8720 C   0  0  0  0  0  0  0  0  0  0  0  0
   63.4450   31.5750   50.1740 C   0  0  0  0  0  0  0  0  0  0  0  0
   64.3700   32.3250   49.4450 C   0  0  0  0  0  0  0  0  0  0  0  0
   65.7240   32.2460   49.7460 O   0  0  0  0  0  0  0  0  0  0  0  0
   63.9300   33.1660   48.4220 C   0  0  0  0  0  0  0  0  0  0  0  0
   62.5690   33.2470   48.1160 C   0  0  0  0  0  0  0  0  0  0  0  0
   59.8830   33.9800   47.7520 C   0  0  0  0  0  0  0  0  0  0  0  0
   58.8570   33.6690   46.7310 C   0  0  0  0  0  0  0  0  0  0  0  0
   58.1360   34.5810   45.9590 C   0  0  0  0  0  0  0  0  0  0  0  0
   57.2080   34.0910   45.0300 C   0  0  0  0  0  0  0  0  0  0  0  0
   57.0220   32.7060   44.8760 C   0  0  0  0  0  0  0  0  0  0  0  0
   57.7680   31.7950   45.6590 C   0  0  0  0  0  0  0  0  0  0  0  0
   57.6350   30.4040   45.5380 O   0  0  0  0  0  0  0  0  0  0  0  0
   58.3960   29.6030   44.6420 C   0  0  0  0  0  0  0  0  0  0  0  0
   58.6760   32.3170   46.5890 C   0  0  0  0  0  0  0  0  0  0  0  0
   59.5900   31.5540   47.4720 C   0  0  0  0  0  0  0  0  0  0  0  0
   58.5140   31.3650   50.0790 C   0  0  0  0  0  0  0  0  0  0  0  0
   57.7990   31.2460   51.2740 C   0  0  0  0  0  0  0  0  0  0  0  0
   57.0430   30.0940   51.4930 O   0  0  0  0  0  0  0  0  0  0  0  0
   57.2700   31.6992   55.4407 H   0  0  0  0  0  0  0  0  0  0  0  0
   56.8124   30.3192   54.3859 H   0  0  0  0  0  0  0  0  0  0  0  0
   58.5024   30.9278   54.3859 H   0  0  0  0  0  0  0  0  0  0  0  0
   58.6991   34.2051   52.7284 H   0  0  0  0  0  0  0  0  0  0  0  0
   59.9899   34.3983   50.6186 H   0  0  0  0  0  0  0  0  0  0  0  0
   61.3608   31.0751   50.4693 H   0  0  0  0  0  0  0  0  0  0  0  0
   63.7899   30.9219   50.9891 H   0  0  0  0  0  0  0  0  0  0  0  0
   64.6564   33.7667   47.8550 H   0  0  0  0  0  0  0  0  0  0  0  0
   62.2307   33.9334   47.3258 H   0  0  0  0  0  0  0  0  0  0  0  0
   59.5161   34.7442   48.4530 H   0  0  0  0  0  0  0  0  0  0  0  0
   60.8056   34.3854   47.3111 H   0  0  0  0  0  0  0  0  0  0  0  0
   58.2930   35.6633   46.0773 H   0  0  0  0  0  0  0  0  0  0  0  0
   56.6225   34.7933   44.4185 H   0  0  0  0  0  0  0  0  0  0  0  0
   56.2931   32.3294   44.1433 H   0  0  0  0  0  0  0  0  0  0  0  0
   59.0421   28.9230   45.2166 H   0  0  0  0  0  0  0  0  0  0  0  0
   57.7161   29.0147   44.0083 H   0  0  0  0  0  0  0  0  0  0  0  0
   59.0183   30.2519   44.0083 H   0  0  0  0  0  0  0  0  0  0  0  0
   59.0481   30.7512   47.9935 H   0  0  0  0  0  0  0  0  0  0  0  0
   60.4020   31.0645   46.9143 H   0  0  0  0  0  0  0  0  0  0  0  0
   58.4802   30.5438   49.3479 H   0  0  0  0  0  0  0  0  0  0  0  0
   56.5080   29.9520   52.3410 H   0  0  0  0  0  0  0  0  0  0  0  0
  1  2  1  0
  2  3  1  0
  3  4  2  0
  4  5  1  0
  5  6  2  0
  7  6  1  1
  7  8  1  0
  8  9  2  0
  9 10  1  0
 10 11  2  0
 11 12  1  0
 11 13  1  0
 13 14  2  0
  7 15  1  0
 15 16  1  0
 16 17  2  0
 17 18  1  0
 18 19  2  0
 19 20  1  0
 20 21  1  0
 21 22  1  0
 20 23  2  0
 23 24  1  0
  6 25  1  0
 25 26  2  0
 26 27  1  0
 26  3  1  0
 24  7  1  0
 14  8  1  0
 23 16  1  0
  1 28  1  0
  1 29  1  0
  1 30  1  0
  4 31  1  0
  5 32  1  0
  9 33  1  0
 10 34  1  0
 13 35  1  0
 14 36  1  0
 15 37  1  0
 15 38  1  0
 17 39  1  0
 18 40  1  0
 19 41  1  0
 22 42  1  0
 22 43  1  0
 22 44  1  0
 24 45  1  0
 24 46  1  0
 25 47  1  0
 27 48  1  0
M  CHG  1  12  -1
M  END
>  <UniqueID>  (22) 
22

>  <SMILES>  (22) 
COc1ccc([C@]2(c3ccc([O-])cc3)Cc3cccc(OC)c3C2)cc1O

>  <Energy>  (22) 
71.8789911146736

>  <Genealogy>  (22) 
COc1ccc(C2(c3ccc([O-])cc3)Cc3cccc(OC)c3C2)cc1O (protonated)
COc1ccc([C@]2(c3ccc([O-])cc3)Cc3cccc(OC)c3C2)cc1O (chirality)
COc1ccc([C@]2(c3ccc([O-])cc3)Cc3cccc(OC)c3C2)cc1O (3D coordinates assigned)
COc1ccc([C@]2(c3ccc([O-])cc3)Cc3cccc(OC)c3C2)cc1O (nonaromatic ring conformer: 71.8789911146736 kcal/mol)

>  <smiles>  (22) 
COc1ccc(C2(c3ccc(O)cc3)Cc3cccc(OC)c3C2)cc1O

>  <score_type>  (22) 
oracle

>  <origin>  (22) 
adg

>  <m_score__min__energy>  (22) 
-8.4199999999999999

>  <m_primary>  (22) 
energy

$$$$
22:0
     RDKit          3D

 42 45  0  0  0  0  0  0  0  0999 V2000
   64.7750   30.7960   51.0010 C   0  0  0  0  0  0  0  0  0  0  0  0
   63.9790   31.6860   50.0950 C   0  0  0  0  0  0  0  0  0  0  0  0
   64.4050   33.0070   49.8330 C   0  0  0  0  0  0  0  0  0  0  0  0
   63.6400   33.8520   49.0150 C   0  0  0  0  0  0  0  0  0  0  0  0
   62.4570   33.3460   48.4850 C   0  0  0  0  0  0  0  0  0  0  0  0
   61.5960   34.0280   47.7030 N   0  0  0  0  0  0  0  0  0  0  0  0
   60.6020   33.1400   47.4540 C   0  0  0  0  0  0  0  0  0  0  0  0
   59.4120   33.5100   46.6640 C   0  0  0  0  0  0  0  0  0  0  0  0
   58.0730   33.3940   47.0240 C   0  0  0  0  0  0  0  0  0  0  0  0
   57.1870   33.7940   46.0160 C   0  0  0  0  0  0  0  0  0  0  0  0
   57.8150   34.2160   44.8540 C   0  0  0  0  0  0  0  0  0  0  0  0
   59.4750   34.0840   45.0830 S   0  0  0  0  0  0  0  0  0  0  0  0
   60.8850   31.9370   48.1070 C   0  0  0  0  0  0  0  0  0  0  0  0
   60.0470   30.7640   48.2050 N   0  0  0  0  0  0  0  0  0  0  0  0
   59.7960   30.1450   46.9210 C   0  0  0  0  0  0  0  0  0  0  0  0
   60.7330   29.2820   46.3110 C   0  0  0  0  0  0  0  0  0  0  0  0
   60.4330   28.6490   45.1020 C   0  0  0  0  0  0  0  0  0  0  0  0
   59.1920   28.8450   44.4940 C   0  0  0  0  0  0  0  0  0  0  0  0
   58.2380   29.6720   45.0980 C   0  0  0  0  0  0  0  0  0  0  0  0
   56.6590   29.8980   44.3520 S   0  0  0  0  0  0  0  0  0  0  0  0
   55.5230   28.8070   45.0630 N   0  0  0  0  0  0  0  0  0  0  0  0
   56.7470   29.6340   42.8750 O   0  0  0  0  0  0  0  0  0  0  0  0
   56.1980   31.3130   44.5620 O   0  0  0  0  0  0  0  0  0  0  0  0
   58.5330   30.2980   46.3150 C   0  0  0  0  0  0  0  0  0  0  0  0
   62.0580   32.0910   48.7530 N   0  0  0  0  0  0  0  0  0  0  0  0
   62.7630   31.2400   49.5460 C   0  0  0  0  0  0  0  0  0  0  0  0
   64.5518   31.0455   52.0488 H   0  0  0  0  0  0  0  0  0  0  0  0
   64.5092   29.7459   50.8095 H   0  0  0  0  0  0  0  0  0  0  0  0
   65.8481   30.9434   50.8095 H   0  0  0  0  0  0  0  0  0  0  0  0
   65.3431   33.3758   50.2734 H   0  0  0  0  0  0  0  0  0  0  0  0
   63.9647   34.8807   48.7997 H   0  0  0  0  0  0  0  0  0  0  0  0
   57.7423   33.0238   48.0056 H   0  0  0  0  0  0  0  0  0  0  0  0
   56.0936   33.7752   46.1351 H   0  0  0  0  0  0  0  0  0  0  0  0
   57.3146   34.5743   43.9423 H   0  0  0  0  0  0  0  0  0  0  0  0
   59.1490   31.0410   48.6650 H   0  0  0  0  0  0  0  0  0  0  0  0
   60.4950   30.0590   48.8310 H   0  0  0  0  0  0  0  0  0  0  0  0
   61.7068   29.1068   46.7916 H   0  0  0  0  0  0  0  0  0  0  0  0
   61.1780   27.9935   44.6274 H   0  0  0  0  0  0  0  0  0  0  0  0
   58.9635   28.3490   43.5391 H   0  0  0  0  0  0  0  0  0  0  0  0
   54.6340   29.3380   45.1970 H   0  0  0  0  0  0  0  0  0  0  0  0
   57.7680   30.9181   46.8052 H   0  0  0  0  0  0  0  0  0  0  0  0
   62.3907   30.2259   49.7534 H   0  0  0  0  0  0  0  0  0  0  0  0
  1  2  1  0
  2  3  1  0
  3  4  2  0
  4  5  1  0
  5  6  2  0
  6  7  1  0
  7  8  1  0
  8  9  2  0
  9 10  1  0
 10 11  2  0
 11 12  1  0
  7 13  2  0
 13 14  1  0
 14 15  1  0
 15 16  2  0
 16 17  1  0
 17 18  2  0
 18 19  1  0
 19 20  1  0
 20 21  1  0
 20 22  2  0
 20 23  2  0
 19 24  2  0
 13 25  1  0
 25 26  1  0
 26  2  2  0
 25  5  1  0
 12  8  1  0
 24 15  1  0
  1 27  1  0
  1 28  1  0
  1 29  1  0
  3 30  1  0
  4 31  1  0
  9 32  1  0
 10 33  1  0
 11 34  1  0
 14 35  1  0
 14 36  1  0
 16 37  1  0
 17 38  1  0
 18 39  1  0
 21 40  1  0
 24 41  1  0
 26 42  1  0
M  CHG  2  14   1  21  -1
M  END
>  <UniqueID>  (23) 
23

>  <SMILES>  (23) 
Cc1ccc2nc(-c3cccs3)c([NH2+]c3cccc(S([NH-])(=O)=O)c3)n2c1

>  <Energy>  (23) 
113.64961102602868

>  <Genealogy>  (23) 
Cc1ccc2nc(-c3cccs3)c([NH2+]c3cccc(S([NH-])(=O)=O)c3)n2c1 (protonated)
Cc1ccc2nc(-c3cccs3)c([NH2+]c3cccc(S([NH-])(=O)=O)c3)n2c1 (3D coordinates assigned)
Cc1ccc2nc(-c3cccs3)c([NH2+]c3cccc(S([NH-])(=O)=O)c3)n2c1 (optimized conformer: 113.64961102602868 kcal/mol)

>  <smiles>  (23) 
Cc1ccc2nc(-c3cccs3)c(Nc3cccc(S(N)(=O)=O)c3)n2c1

>  <score_type>  (23) 
oracle

>  <origin>  (23) 
adg

>  <m_score__min__energy>  (23) 
-10.41

>  <m_primary>  (23) 
energy

$$$$
23:0
     RDKit          3D

 49 51  0  0  0  0  0  0  0  0999 V2000
   59.1370   29.6120   49.3740 C   0  0  0  0  0  0  0  0  0  0  0  0
   59.3690   28.9810   48.0420 C   0  0  0  0  0  0  0  0  0  0  0  0
   58.4950   28.1470   47.4400 N   0  0  0  0  0  0  0  0  0  0  0  0
   58.9040   27.7680   46.1970 C   0  0  0  0  0  0  0  0  0  0  0  0
   58.0630   26.9030   45.3110 C   0  0  0  0  0  0  0  0  0  0  0  0
   56.6250   27.0700   45.6770 C   0  0  0  0  0  0  0  0  0  0  0  0
   56.0550   26.1990   46.3870 O   0  0  0  0  0  0  0  0  0  0  0  0
   55.9200   28.2380   45.2470 N   0  0  0  0  0  0  0  0  0  0  0  0
   56.5170   29.4110   44.6790 C   0  0  0  0  0  0  0  0  0  0  0  0
   56.2920   29.6940   43.3270 C   0  0  0  0  0  0  0  0  0  0  0  0
   56.8930   30.8030   42.7310 C   0  0  0  0  0  0  0  0  0  0  0  0
   57.7650   31.6090   43.4660 C   0  0  0  0  0  0  0  0  0  0  0  0
   58.0460   31.3100   44.8110 C   0  0  0  0  0  0  0  0  0  0  0  0
   59.0010   32.1840   45.5970 C   0  0  0  0  0  0  0  0  0  0  0  0
   58.6990   33.6320   45.5520 N   0  0  0  0  0  0  0  0  0  0  0  0
   57.2710   33.9530   45.6760 C   0  0  0  0  0  0  0  0  0  0  0  0
   59.6890   34.6210   46.6060 S   0  0  0  0  0  0  0  0  0  0  0  0
   58.8910   34.9620   47.8340 O   0  0  0  0  0  0  0  0  0  0  0  0
   60.0360   35.9090   45.9100 O   0  0  0  0  0  0  0  0  0  0  0  0
   61.1730   33.8070   47.1220 C   0  0  0  0  0  0  0  0  0  0  0  0
   61.1830   33.0450   48.3010 C   0  0  0  0  0  0  0  0  0  0  0  0
   62.3470   32.3840   48.7030 C   0  0  0  0  0  0  0  0  0  0  0  0
   63.5100   32.4900   47.9400 C   0  0  0  0  0  0  0  0  0  0  0  0
   63.5190   33.2760   46.7860 C   0  0  0  0  0  0  0  0  0  0  0  0
   62.3590   33.9440   46.3860 C   0  0  0  0  0  0  0  0  0  0  0  0
   57.3860   30.2310   45.4210 C   0  0  0  0  0  0  0  0  0  0  0  0
   60.1080   28.3350   45.7840 C   0  0  0  0  0  0  0  0  0  0  0  0
   60.6680   29.3190   47.0300 S   0  0  0  0  0  0  0  0  0  0  0  0
   59.3995   28.8981   50.1686 H   0  0  0  0  0  0  0  0  0  0  0  0
   59.7632   30.5115   49.4677 H   0  0  0  0  0  0  0  0  0  0  0  0
   58.0773   29.8916   49.4677 H   0  0  0  0  0  0  0  0  0  0  0  0
   57.5950   27.8390   47.8740 H   0  0  0  0  0  0  0  0  0  0  0  0
   58.2115   27.1979   44.2617 H   0  0  0  0  0  0  0  0  0  0  0  0
   58.3555   25.8504   45.4394 H   0  0  0  0  0  0  0  0  0  0  0  0
   55.6385   29.0393   42.7318 H   0  0  0  0  0  0  0  0  0  0  0  0
   56.6794   31.0433   41.6790 H   0  0  0  0  0  0  0  0  0  0  0  0
   58.2346   32.4825   42.9902 H   0  0  0  0  0  0  0  0  0  0  0  0
   58.9733   31.8614   46.6483 H   0  0  0  0  0  0  0  0  0  0  0  0
   59.9892   32.0597   45.1301 H   0  0  0  0  0  0  0  0  0  0  0  0
   57.0000   34.0139   46.7403 H   0  0  0  0  0  0  0  0  0  0  0  0
   57.0688   34.9190   45.1903 H   0  0  0  0  0  0  0  0  0  0  0  0
   56.6748   33.1665   45.1903 H   0  0  0  0  0  0  0  0  0  0  0  0
   60.2709   32.9678   48.9110 H   0  0  0  0  0  0  0  0  0  0  0  0
   62.3460   31.7795   49.6220 H   0  0  0  0  0  0  0  0  0  0  0  0
   64.4202   31.9543   48.2475 H   0  0  0  0  0  0  0  0  0  0  0  0
   64.4398   33.3693   46.1916 H   0  0  0  0  0  0  0  0  0  0  0  0
   62.3759   34.5807   45.4892 H   0  0  0  0  0  0  0  0  0  0  0  0
   57.5502   30.0252   46.4890 H   0  0  0  0  0  0  0  0  0  0  0  0
   60.6041   28.1692   44.8163 H   0  0  0  0  0  0  0  0  0  0  0  0
  1  2  1  0
  2  3  2  0
  3  4  1  0
  4  5  1  0
  5  6  1  0
  6  7  2  0
  6  8  1  0
  8  9  1  0
  9 10  2  0
 10 11  1  0
 11 12  2  0
 12 13  1  0
 13 14  1  0
 14 15  1  0
 15 16  1  0
 15 17  1  0
 17 18  2  0
 17 19  2  0
 17 20  1  0
 20 21  2  0
 21 22  1  0
 22 23  2  0
 23 24  1  0
 24 25  2  0
 13 26  2  0
  4 27  2  0
 27 28  1  0
 28  2  1  0
 26  9  1  0
 25 20  1  0
  1 29  1  0
  1 30  1  0
  1 31  1  0
  3 32  1  0
  5 33  1  0
  5 34  1  0
 10 35  1  0
 11 36  1  0
 12 37  1  0
 14 38  1  0
 14 39  1  0
 16 40  1  0
 16 41  1  0
 16 42  1  0
 21 43  1  0
 22 44  1  0
 23 45  1  0
 24 46  1  0
 25 47  1  0
 26 48  1  0
 27 49  1  0
M  CHG  2   3   1   8  -1
M  END
>  <UniqueID>  (24) 
24

>  <SMILES>  (24) 
Cc1[nH+]c(CC(=O)[N-]c2cccc(CN(C)S(=O)(=O)c3ccccc3)c2)cs1

>  <Energy>  (24) 
79.24807469734891

>  <Genealogy>  (24) 
Cc1[nH+]c(CC(=O)[N-]c2cccc(CN(C)S(=O)(=O)c3ccccc3)c2)cs1 (protonated)
Cc1[nH+]c(CC(=O)[N-]c2cccc(CN(C)S(=O)(=O)c3ccccc3)c2)cs1 (3D coordinates assigned)
Cc1[nH+]c(CC(=O)[N-]c2cccc(CN(C)S(=O)(=O)c3ccccc3)c2)cs1 (optimized conformer: 79.24807469734891 kcal/mol)

>  <smiles>  (24) 
Cc1nc(CC(=O)Nc2cccc(CN(C)S(=O)(=O)c3ccccc3)c2)cs1

>  <score_type>  (24) 
oracle

>  <origin>  (24) 
adg

>  <m_score__min__energy>  (24) 
-10.26

>  <m_primary>  (24) 
energy

$$$$
24:0
     RDKit          3D

 50 52  0  0  0  0  0  0  0  0999 V2000
   63.1166   32.8199   51.7209 H   0  0  0  0  0  0  0  0  0  0  0  0
   62.2790   32.9660   51.0230 C   0  0  0  0  0  0  0  0  0  0  0  0
   61.0880   33.1870   51.4900 N   0  0  0  0  0  0  0  0  0  0  0  0
   59.8900   33.2600   50.7040 C   0  0  0  0  0  0  0  0  0  0  0  0
   59.7220   34.2690   49.9650 O   0  0  0  0  0  0  0  0  0  0  0  0
   58.8580   32.1530   50.7100 C   0  0  0  0  0  0  0  0  0  0  0  0
   59.2225   31.3398   51.3548 H   0  0  0  0  0  0  0  0  0  0  0  0
   57.9177   32.5873   51.0805 H   0  0  0  0  0  0  0  0  0  0  0  0
   58.5730   31.5770   49.3130 C   0  0  0  0  0  0  0  0  0  0  0  0
   57.4842   31.5085   49.1724 H   0  0  0  0  0  0  0  0  0  0  0  0
   59.0287   32.2475   48.5695 H   0  0  0  0  0  0  0  0  0  0  0  0
   59.1750   30.2040   49.1340 C   0  0  0  0  0  0  0  0  0  0  0  0
   59.5520   29.5820   50.1650 O   0  0  0  0  0  0  0  0  0  0  0  0
   59.3780   29.5820   47.7960 C   0  0  0  0  0  0  0  0  0  0  0  0
   60.0850   28.3700   47.6910 C   0  0  0  0  0  0  0  0  0  0  0  0
   60.4736   27.8846   48.5984 H   0  0  0  0  0  0  0  0  0  0  0  0
   60.2970   27.7790   46.4450 C   0  0  0  0  0  0  0  0  0  0  0  0
   60.8537   26.8328   46.3751 H   0  0  0  0  0  0  0  0  0  0  0  0
   59.8060   28.3830   45.2880 C   0  0  0  0  0  0  0  0  0  0  0  0
   59.9826   27.9119   44.3098 H   0  0  0  0  0  0  0  0  0  0  0  0
   59.0890   29.5860   45.3610 C   0  0  0  0  0  0  0  0  0  0  0  0
   58.5910   30.1770   44.1470 N   0  0  0  0  0  0  0  0  0  0  0  0
   58.8910   29.7780   43.2290 H   0  0  0  0  0  0  0  0  0  0  0  0
   57.5100   31.5340   44.0940 S   0  0  0  0  0  0  0  0  0  0  0  0
   56.1610   31.1100   44.6030 O   0  0  0  0  0  0  0  0  0  0  0  0
   57.3640   31.9960   42.6710 O   0  0  0  0  0  0  0  0  0  0  0  0
   58.1600   32.8580   45.0550 C   0  0  0  0  0  0  0  0  0  0  0  0
   57.7790   32.9930   46.3970 C   0  0  0  0  0  0  0  0  0  0  0  0
   57.0716   32.2774   46.8413 H   0  0  0  0  0  0  0  0  0  0  0  0
   58.2960   34.0350   47.1720 C   0  0  0  0  0  0  0  0  0  0  0  0
   57.9970   34.1369   48.2257 H   0  0  0  0  0  0  0  0  0  0  0  0
   59.1930   34.9480   46.6090 C   0  0  0  0  0  0  0  0  0  0  0  0
   59.6034   35.7646   47.2211 H   0  0  0  0  0  0  0  0  0  0  0  0
   59.5680   34.8230   45.2690 C   0  0  0  0  0  0  0  0  0  0  0  0
   60.2670   35.5468   44.8245 H   0  0  0  0  0  0  0  0  0  0  0  0
   59.0560   33.7790   44.4920 C   0  0  0  0  0  0  0  0  0  0  0  0
   59.3561   33.6799   43.4384 H   0  0  0  0  0  0  0  0  0  0  0  0
   58.8770   30.1780   46.6210 C   0  0  0  0  0  0  0  0  0  0  0  0
   58.3121   31.1194   46.6893 H   0  0  0  0  0  0  0  0  0  0  0  0
   62.5250   32.9080   49.5690 C   0  0  0  0  0  0  0  0  0  0  0  0
   63.0660   34.0060   48.8710 C   0  0  0  0  0  0  0  0  0  0  0  0
   63.3100   34.9326   49.4113 H   0  0  0  0  0  0  0  0  0  0  0  0
   63.2940   33.9220   47.4930 C   0  0  0  0  0  0  0  0  0  0  0  0
   63.7174   34.7819   46.9533 H   0  0  0  0  0  0  0  0  0  0  0  0
   62.9850   32.7480   46.8010 C   0  0  0  0  0  0  0  0  0  0  0  0
   63.1637   32.6846   45.7175 H   0  0  0  0  0  0  0  0  0  0  0  0
   62.4490   31.6550   47.4860 C   0  0  0  0  0  0  0  0  0  0  0  0
   62.2073   30.7307   46.9408 H   0  0  0  0  0  0  0  0  0  0  0  0
   62.2190   31.7330   48.8630 C   0  0  0  0  0  0  0  0  0  0  0  0
   61.7959   30.8691   49.3965 H   0  0  0  0  0  0  0  0  0  0  0  0
  1  2  1  0
  2  3  2  0
  3  4  1  0
  4  5  2  0
  4  6  1  0
  6  7  1  0
  6  8  1  0
  6  9  1  0
  9 10  1  0
  9 11  1  0
  9 12  1  0
 12 13  2  0
 12 14  1  0
 14 15  2  0
 15 16  1  0
 15 17  1  0
 17 18  1  0
 17 19  2  0
 19 20  1  0
 19 21  1  0
 21 22  1  0
 22 23  1  0
 22 24  1  0
 24 25  2  0
 24 26  2  0
 24 27  1  0
 27 28  2  0
 28 29  1  0
 28 30  1  0
 30 31  1  0
 30 32  2  0
 32 33  1  0
 32 34  1  0
 34 35  1  0
 34 36  2  0
 36 37  1  0
 21 38  2  0
 38 39  1  0
  2 40  1  0
 40 41  2  0
 41 42  1  0
 41 43  1  0
 43 44  1  0
 43 45  2  0
 45 46  1  0
 45 47  1  0
 47 48  1  0
 47 49  2  0
 49 50  1  0
 38 14  1  0
 49 40  1  0
 36 27  1  0
M  END
>  <UniqueID>  (25) 
25

>  <SMILES>  (25) 
O=C(CCC(=O)c1cccc(NS(=O)(=O)c2ccccc2)c1)/N=C/c1ccccc1

>  <Energy>  (25) 
52.36227435218826

>  <Genealogy>  (25) 
O=C(CCC(=O)c1cccc(NS(=O)(=O)c2ccccc2)c1)/N=C/c1ccccc1 (cis-trans isomerization)
O=C(CCC(=O)c1cccc(NS(=O)(=O)c2ccccc2)c1)/N=C/c1ccccc1 (3D coordinates assigned)
O=C(CCC(=O)c1cccc(NS(=O)(=O)c2ccccc2)c1)/N=C/c1ccccc1 (optimized conformer: 52.36227435218826 kcal/mol)

>  <smiles>  (25) 
O=C(CCC(=O)c1cccc(NS(=O)(=O)c2ccccc2)c1)N=Cc1ccccc1

>  <score_type>  (25) 
oracle

>  <origin>  (25) 
adg

>  <m_score__min__energy>  (25) 
-9.5800000000000001

>  <m_primary>  (25) 
energy

$$$$
25:0
     RDKit          3D

 49 52  0  0  0  0  0  0  0  0999 V2000
   60.8520   28.4770   49.0510 C   0  0  0  0  0  0  0  0  0  0  0  0
   60.1400   29.2900   48.0590 N   0  0  0  0  0  0  0  0  0  0  0  0
   58.7820   28.9120   47.6230 C   0  0  0  0  0  0  0  0  0  0  0  0
   58.7380   28.3920   46.1510 C   0  0  1  0  0  0  0  0  0  0  0  0
   58.2270   29.4360   45.1350 C   0  0  0  0  0  0  0  0  0  0  0  0
   57.5120   29.0840   43.9710 C   0  0  0  0  0  0  0  0  0  0  0  0
   57.1020   30.0600   43.0620 C   0  0  0  0  0  0  0  0  0  0  0  0
   57.4370   31.3920   43.2920 C   0  0  0  0  0  0  0  0  0  0  0  0
   58.1760   31.7250   44.3800 N   0  0  0  0  0  0  0  0  0  0  0  0
   58.5840   30.7950   45.2830 C   0  0  0  0  0  0  0  0  0  0  0  0
   60.1120   28.0210   45.7650 N   0  0  0  0  0  0  0  0  0  0  0  0
   60.6660   26.7260   45.9990 C   0  0  0  0  0  0  0  0  0  0  0  0
   61.8760   26.5030   45.7270 O   0  0  0  0  0  0  0  0  0  0  0  0
   59.8360   25.6530   46.6170 C   0  0  0  0  0  0  0  0  0  0  0  0
   58.3760   25.8530   46.3170 C   0  0  0  0  0  0  0  0  0  0  0  0
   57.5290   24.7320   46.3420 C   0  0  0  0  0  0  0  0  0  0  0  0
   56.1540   24.8760   46.1730 C   0  0  0  0  0  0  0  0  0  0  0  0
   55.3520   23.7820   46.1950 F   0  0  0  0  0  0  0  0  0  0  0  0
   55.6020   26.1450   46.0100 C   0  0  0  0  0  0  0  0  0  0  0  0
   54.2270   26.2940   45.8690 O   0  0  0  0  0  0  0  0  0  0  0  0
   56.4280   27.2720   45.9990 C   0  0  0  0  0  0  0  0  0  0  0  0
   57.8310   27.1490   46.1180 C   0  0  0  0  0  0  0  0  0  0  0  0
   60.7960   30.4730   47.5650 C   0  0  0  0  0  0  0  0  0  0  0  0
   61.4980   30.3900   46.5200 O   0  0  0  0  0  0  0  0  0  0  0  0
   60.6800   31.7860   48.2450 C   0  0  0  0  0  0  0  0  0  0  0  0
   59.4440   32.1360   48.8220 C   0  0  0  0  0  0  0  0  0  0  0  0
   59.2920   33.3480   49.4990 C   0  0  0  0  0  0  0  0  0  0  0  0
   60.3630   34.2360   49.5890 C   0  0  0  0  0  0  0  0  0  0  0  0
   61.5830   33.9230   48.9890 C   0  0  0  0  0  0  0  0  0  0  0  0
   61.7510   32.7100   48.3080 C   0  0  0  0  0  0  0  0  0  0  0  0
   63.4220   32.4380   47.4050 Br  0  0  0  0  0  0  0  0  0  0  0  0
   60.5679   28.8014   50.0630 H   0  0  0  0  0  0  0  0  0  0  0  0
   60.5853   27.4183   48.9169 H   0  0  0  0  0  0  0  0  0  0  0  0
   61.9367   28.6017   48.9169 H   0  0  0  0  0  0  0  0  0  0  0  0
   58.4087   28.1183   48.2868 H   0  0  0  0  0  0  0  0  0  0  0  0
   58.1564   29.8155   47.6723 H   0  0  0  0  0  0  0  0  0  0  0  0
   57.2748   28.0274   43.7776 H   0  0  0  0  0  0  0  0  0  0  0  0
   56.5195   29.7799   42.1719 H   0  0  0  0  0  0  0  0  0  0  0  0
   57.1030   32.1728   42.5928 H   0  0  0  0  0  0  0  0  0  0  0  0
   59.2001   31.1042   46.1402 H   0  0  0  0  0  0  0  0  0  0  0  0
   60.7590   28.7640   45.4110 H   0  0  0  0  0  0  0  0  0  0  0  0
   60.1540   24.6787   46.2176 H   0  0  0  0  0  0  0  0  0  0  0  0
   59.9754   25.6898   47.7075 H   0  0  0  0  0  0  0  0  0  0  0  0
   57.9564   23.7303   46.4967 H   0  0  0  0  0  0  0  0  0  0  0  0
   55.9791   28.2710   45.8961 H   0  0  0  0  0  0  0  0  0  0  0  0
   58.5898   31.4480   48.7386 H   0  0  0  0  0  0  0  0  0  0  0  0
   58.3268   33.6021   49.9614 H   0  0  0  0  0  0  0  0  0  0  0  0
   60.2460   35.1845   50.1337 H   0  0  0  0  0  0  0  0  0  0  0  0
   62.4198   34.6342   49.0510 H   0  0  0  0  0  0  0  0  0  0  0  0
  1  2  1  0
  2  3  1  0
  4  3  1  1
  4  5  1  0
  5  6  2  0
  6  7  1  0
  7  8  2  0
  8  9  1  0
  9 10  2  0
  4 11  1  0
 11 12  1  0
 12 13  2  0
 12 14  1  0
 14 15  1  0
 15 16  2  0
 16 17  1  0
 17 18  1  0
 17 19  2  0
 19 20  1  0
 19 21  1  0
 21 22  2  0
  2 23  1  0
 23 24  2  0
 23 25  1  0
 25 26  2  0
 26 27  1  0
 27 28  2  0
 28 29  1  0
 29 30  2  0
 30 31  1  0
 22  4  1  0
 30 25  1  0
 10  5  1  0
 22 15  1  0
  1 32  1  0
  1 33  1  0
  1 34  1  0
  3 35  1  0
  3 36  1  0
  6 37  1  0
  7 38  1  0
  8 39  1  0
 10 40  1  0
 11 41  1  0
 14 42  1  0
 14 43  1  0
 16 44  1  0
 21 45  1  0
 26 46  1  0
 27 47  1  0
 28 48  1  0
 29 49  1  0
M  CHG  1  20  -1
M  END
>  <UniqueID>  (26) 
26

>  <SMILES>  (26) 
CN(C[C@@]1(c2cccnc2)NC(=O)Cc2cc(F)c([O-])cc21)C(=O)c1ccccc1Br

>  <Energy>  (26) 
69.17125326512779

>  <Genealogy>  (26) 
CN(CC1(c2cccnc2)NC(=O)Cc2cc(F)c([O-])cc21)C(=O)c1ccccc1Br (protonated)
CN(C[C@@]1(c2cccnc2)NC(=O)Cc2cc(F)c([O-])cc21)C(=O)c1ccccc1Br (chirality)
CN(C[C@@]1(c2cccnc2)NC(=O)Cc2cc(F)c([O-])cc21)C(=O)c1ccccc1Br (3D coordinates assigned)
CN(C[C@@]1(c2cccnc2)NC(=O)Cc2cc(F)c([O-])cc21)C(=O)c1ccccc1Br (nonaromatic ring conformer: 69.17125326512779 kcal/mol)

>  <smiles>  (26) 
CN(CC1(c2cccnc2)NC(=O)Cc2cc(F)c(O)cc21)C(=O)c1ccccc1Br

>  <score_type>  (26) 
oracle

>  <origin>  (26) 
adg

>  <m_score__min__energy>  (26) 
-12.35

>  <m_primary>  (26) 
energy

$$$$
26:0
     RDKit          3D

 60 63  0  0  0  0  0  0  0  0999 V2000
   57.2430   25.3190   44.5690 C   0  0  0  0  0  0  0  0  0  0  0  0
   56.7120   26.2240   46.0090 S   0  0  0  0  0  0  0  0  0  0  0  0
   55.5420   27.0870   45.6240 O   0  0  0  0  0  0  0  0  0  0  0  0
   56.2470   25.2670   47.0680 O   0  0  0  0  0  0  0  0  0  0  0  0
   58.0390   27.2600   46.5760 C   0  0  0  0  0  0  0  0  0  0  0  0
   58.7970   26.7790   47.6580 C   0  0  0  0  0  0  0  0  0  0  0  0
   59.8410   27.5330   48.1940 C   0  0  0  0  0  0  0  0  0  0  0  0
   60.1370   28.7850   47.6680 C   0  0  0  0  0  0  0  0  0  0  0  0
   59.3950   29.2870   46.5990 C   0  0  0  0  0  0  0  0  0  0  0  0
   58.3380   28.5470   46.0400 C   0  0  0  0  0  0  0  0  0  0  0  0
   57.4570   29.2680   44.6810 S   0  0  0  0  0  0  0  0  0  0  0  0
   56.0660   29.6190   45.1290 O   0  0  0  0  0  0  0  0  0  0  0  0
   57.3720   28.2840   43.5480 O   0  0  0  0  0  0  0  0  0  0  0  0
   58.2930   30.6800   44.1190 N   0  0  0  0  0  0  0  0  0  0  0  0
   58.2700   31.9660   44.7520 C   0  0  0  0  0  0  0  0  0  0  0  0
   57.4400   32.9600   44.2290 C   0  0  0  0  0  0  0  0  0  0  0  0
   57.3900   34.2120   44.8430 C   0  0  0  0  0  0  0  0  0  0  0  0
   58.1540   34.4670   45.9380 N   0  0  0  0  0  0  0  0  0  0  0  0
   58.9910   33.5350   46.4700 C   0  0  0  0  0  0  0  0  0  0  0  0
   59.6900   33.8530   47.5240 N   0  0  0  0  0  0  0  0  0  0  0  0
   59.5160   33.3010   48.8360 C   0  0  0  0  0  0  0  0  0  0  0  0
   59.1520   31.9550   48.9990 C   0  0  0  0  0  0  0  0  0  0  0  0
   58.8900   31.4490   50.2730 C   0  0  0  0  0  0  0  0  0  0  0  0
   58.9990   32.2800   51.4000 C   0  0  0  0  0  0  0  0  0  0  0  0
   58.5720   31.7830   52.7540 C   0  0  0  0  0  0  0  0  0  0  0  0
   57.1220   31.9030   52.9010 N   0  0  0  0  0  0  0  0  0  0  0  0
   56.2010   30.9920   52.2860 C   0  0  0  0  0  0  0  0  0  0  0  0
   56.6290   29.9970   51.6420 O   0  0  0  0  0  0  0  0  0  0  0  0
   54.7950   31.2580   52.3670 N   0  0  0  0  0  0  0  0  0  0  0  0
   53.7310   30.2940   52.4390 C   0  0  0  0  0  0  0  0  0  0  0  0
   53.8940   29.0400   53.0600 C   0  0  0  0  0  0  0  0  0  0  0  0
   52.8220   28.1430   53.1290 C   0  0  0  0  0  0  0  0  0  0  0  0
   51.5780   28.4970   52.6010 C   0  0  0  0  0  0  0  0  0  0  0  0
   51.4030   29.7460   51.9980 C   0  0  0  0  0  0  0  0  0  0  0  0
   52.4720   30.6450   51.9240 C   0  0  0  0  0  0  0  0  0  0  0  0
   52.2860   31.8570   51.3400 F   0  0  0  0  0  0  0  0  0  0  0  0
   59.4170   33.6130   51.2380 C   0  0  0  0  0  0  0  0  0  0  0  0
   59.6860   34.1150   49.9620 C   0  0  0  0  0  0  0  0  0  0  0  0
   59.0490   32.2530   45.8830 C   0  0  0  0  0  0  0  0  0  0  0  0
   57.7764   24.4098   44.8834 H   0  0  0  0  0  0  0  0  0  0  0  0
   56.3655   25.0397   43.9673 H   0  0  0  0  0  0  0  0  0  0  0  0
   57.9148   25.9487   43.9673 H   0  0  0  0  0  0  0  0  0  0  0  0
   58.5634   25.7939   48.0881 H   0  0  0  0  0  0  0  0  0  0  0  0
   60.4305   27.1364   49.0337 H   0  0  0  0  0  0  0  0  0  0  0  0
   60.9573   29.3805   48.0952 H   0  0  0  0  0  0  0  0  0  0  0  0
   59.6404   30.2769   46.1869 H   0  0  0  0  0  0  0  0  0  0  0  0
   56.8287   32.7569   43.3374 H   0  0  0  0  0  0  0  0  0  0  0  0
   56.7306   34.9947   44.4399 H   0  0  0  0  0  0  0  0  0  0  0  0
   59.0731   31.2976   48.1206 H   0  0  0  0  0  0  0  0  0  0  0  0
   58.5971   30.3957   50.3949 H   0  0  0  0  0  0  0  0  0  0  0  0
   58.8622   30.7275   52.8619 H   0  0  0  0  0  0  0  0  0  0  0  0
   59.0631   32.3883   53.5302 H   0  0  0  0  0  0  0  0  0  0  0  0
   56.7410   32.6920   53.4700 H   0  0  0  0  0  0  0  0  0  0  0  0
   54.8674   28.7649   53.4922 H   0  0  0  0  0  0  0  0  0  0  0  0
   52.9591   27.1582   53.5995 H   0  0  0  0  0  0  0  0  0  0  0  0
   50.7354   27.7923   52.6598 H   0  0  0  0  0  0  0  0  0  0  0  0
   50.4232   30.0222   51.5811 H   0  0  0  0  0  0  0  0  0  0  0  0
   59.5325   34.2623   52.1183 H   0  0  0  0  0  0  0  0  0  0  0  0
   60.0321   35.1522   49.8421 H   0  0  0  0  0  0  0  0  0  0  0  0
   59.7039   31.4800   46.3115 H   0  0  0  0  0  0  0  0  0  0  0  0
  1  2  1  0
  2  3  2  0
  2  4  2  0
  2  5  1  0
  5  6  2  0
  6  7  1  0
  7  8  2  0
  8  9  1  0
  9 10  2  0
 10 11  1  0
 11 12  2  0
 11 13  2  0
 11 14  1  0
 14 15  1  0
 15 16  1  0
 16 17  2  0
 17 18  1  0
 18 19  1  0
 19 20  2  3
 20 21  1  0
 21 22  2  0
 22 23  1  0
 23 24  2  0
 24 25  1  0
 25 26  1  0
 26 27  1  0
 27 28  2  0
 27 29  1  0
 29 30  1  0
 30 31  2  0
 31 32  1  0
 32 33  2  0
 33 34  1  0
 34 35  2  0
 35 36  1  0
 24 37  1  0
 37 38  2  0
 19 39  1  0
 10  5  1  0
 39 15  2  0
 38 21  1  0
 35 30  1  0
  1 40  1  0
  1 41  1  0
  1 42  1  0
  6 43  1  0
  7 44  1  0
  8 45  1  0
  9 46  1  0
 16 47  1  0
 17 48  1  0
 22 49  1  0
 23 50  1  0
 25 51  1  0
 25 52  1  0
 26 53  1  0
 31 54  1  0
 32 55  1  0
 33 56  1  0
 34 57  1  0
 37 58  1  0
 38 59  1  0
 39 60  1  0
M  CHG  3  14  -1  18  -1  29  -1
M  END
>  <UniqueID>  (27) 
27

>  <SMILES>  (27) 
CS(=O)(=O)c1ccccc1S(=O)(=O)[N-]c1cc[n-]c(=Nc2ccc(CNC(=O)[N-]c3ccccc3F)cc2)c1

>  <Energy>  (27) 
77.76936054370707

>  <Genealogy>  (27) 
CS(=O)(=O)c1ccccc1S(=O)(=O)[N-]c1cc[n-]c(=Nc2ccc(CNC(=O)[N-]c3ccccc3F)cc2)c1 (protonated)
CS(=O)(=O)c1ccccc1S(=O)(=O)[N-]c1cc[n-]c(=Nc2ccc(CNC(=O)[N-]c3ccccc3F)cc2)c1 (3D coordinates assigned)
CS(=O)(=O)c1ccccc1S(=O)(=O)[N-]c1cc[n-]c(=Nc2ccc(CNC(=O)[N-]c3ccccc3F)cc2)c1 (optimized conformer: 77.76936054370707 kcal/mol)

>  <smiles>  (27) 
CS(=O)(=O)c1ccccc1S(=O)(=O)Nc1cc[nH]c(=Nc2ccc(CNC(=O)Nc3ccccc3F)cc2)c1

>  <score_type>  (27) 
oracle

>  <origin>  (27) 
adg

>  <m_score__min__energy>  (27) 
-13.880000000000001

>  <m_primary>  (27) 
energy

$$$$
27:0
     RDKit          3D

 54 58  0  0  0  0  0  0  0  0999 V2000
   61.5458   34.3746   45.3949 H   0  0  0  0  0  0  0  0  0  0  0  0
   60.9120   34.0910   46.2480 C   0  0  0  0  0  0  0  0  0  0  0  0
   60.9720   32.8290   46.7480 N   0  0  0  0  0  0  0  0  0  0  0  0
   60.2030   32.4270   47.8010 C   0  0  0  0  0  0  0  0  0  0  0  0
   60.3240   31.0330   48.2890 C   0  0  0  0  0  0  0  0  0  0  0  0
   60.4590   30.7840   49.6610 C   0  0  0  0  0  0  0  0  0  0  0  0
   60.4679   31.6246   50.3704 H   0  0  0  0  0  0  0  0  0  0  0  0
   60.5820   29.4790   50.1330 C   0  0  0  0  0  0  0  0  0  0  0  0
   60.6865   29.2987   51.2131 H   0  0  0  0  0  0  0  0  0  0  0  0
   60.5740   28.3950   49.2480 C   0  0  0  0  0  0  0  0  0  0  0  0
   60.7860   26.7880   49.9410 Cl  0  0  0  0  0  0  0  0  0  0  0  0
   60.4480   28.6230   47.8560 C   0  0  0  0  0  0  0  0  0  0  0  0
   60.4360   27.5150   46.8660 C   0  0  0  0  0  0  0  0  0  0  0  0
   61.1010   26.4650   47.0770 O   0  0  0  0  0  0  0  0  0  0  0  0
   59.5670   27.5870   45.7270 N   0  0  0  0  0  0  0  0  0  0  0  0
   58.2700   27.4550   45.6850 C   0  0  0  0  0  0  0  0  0  0  0  0
   57.6210   26.3070   46.0790 C   0  0  0  0  0  0  0  0  0  0  0  0
   58.0530   25.4069   46.5407 H   0  0  0  0  0  0  0  0  0  0  0  0
   56.2980   26.5510   45.7580 C   0  0  0  0  0  0  0  0  0  0  0  0
   55.1830   25.6140   45.9350 C   0  0  0  0  0  0  0  0  0  0  0  0
   54.0110   25.9660   45.6310 O   0  0  0  0  0  0  0  0  0  0  0  0
   55.4290   24.3090   46.4700 N   0  0  0  0  0  0  0  0  0  0  0  0
   56.1930   23.2790   45.7660 C   0  0  0  0  0  0  0  0  0  0  0  0
   57.4220   22.8200   46.5110 C   0  0  0  0  0  0  0  0  0  0  0  0
   58.5660   22.9130   45.9900 O   0  0  0  0  0  0  0  0  0  0  0  0
   57.2940   22.2260   47.7620 O   0  0  0  0  0  0  0  0  0  0  0  0
   56.3610   23.5690   44.2860 C   0  0  0  0  0  0  0  0  0  0  0  0
   55.9644   24.5493   43.9831 H   0  0  0  0  0  0  0  0  0  0  0  0
   57.3759   23.6324   43.8665 H   0  0  0  0  0  0  0  0  0  0  0  0
   55.5350   22.4900   43.9160 O   0  0  0  0  0  0  0  0  0  0  0  0
   55.3130   22.1530   45.2670 C   0  0  0  0  0  0  0  0  0  0  0  0
   54.2615   22.2485   45.5757 H   0  0  0  0  0  0  0  0  0  0  0  0
   55.5214   21.1259   45.6010 H   0  0  0  0  0  0  0  0  0  0  0  0
   56.1650   27.7900   45.2430 N   0  0  0  0  0  0  0  0  0  0  0  0
   57.3650   28.3480   45.2040 N   0  0  0  0  0  0  0  0  0  0  0  0
   57.5290   29.7480   44.9280 C   0  0  0  0  0  0  0  0  0  0  0  0
   57.7860   30.6570   45.9670 C   0  0  0  0  0  0  0  0  0  0  0  0
   57.8837   30.2947   47.0010 H   0  0  0  0  0  0  0  0  0  0  0  0
   57.9180   32.0210   45.6910 C   0  0  0  0  0  0  0  0  0  0  0  0
   58.1339   32.7278   46.5057 H   0  0  0  0  0  0  0  0  0  0  0  0
   57.7760   32.4880   44.3810 C   0  0  0  0  0  0  0  0  0  0  0  0
   57.8885   33.5604   44.1636 H   0  0  0  0  0  0  0  0  0  0  0  0
   57.4910   31.5910   43.3480 C   0  0  0  0  0  0  0  0  0  0  0  0
   57.3711   31.9593   42.3184 H   0  0  0  0  0  0  0  0  0  0  0  0
   57.3580   30.2260   43.6210 C   0  0  0  0  0  0  0  0  0  0  0  0
   57.1185   29.5250   42.8078 H   0  0  0  0  0  0  0  0  0  0  0  0
   60.3390   29.9490   47.3940 C   0  0  0  0  0  0  0  0  0  0  0  0
   60.2642   30.1399   46.3133 H   0  0  0  0  0  0  0  0  0  0  0  0
   59.3340   33.3530   48.4080 C   0  0  0  0  0  0  0  0  0  0  0  0
   58.6030   33.0250   49.5030 F   0  0  0  0  0  0  0  0  0  0  0  0
   59.2600   34.6540   47.9030 C   0  0  0  0  0  0  0  0  0  0  0  0
   58.5793   35.3845   48.3644 H   0  0  0  0  0  0  0  0  0  0  0  0
   60.0480   35.0270   46.8150 C   0  0  0  0  0  0  0  0  0  0  0  0
   59.9888   36.0475   46.4088 H   0  0  0  0  0  0  0  0  0  0  0  0
  1  2  1  0
  2  3  2  0
  3  4  1  0
  4  5  1  0
  5  6  2  0
  6  7  1  0
  6  8  1  0
  8  9  1  0
  8 10  2  0
 10 11  1  0
 10 12  1  0
 12 13  1  0
 13 14  2  0
 13 15  1  0
 15 16  2  0
 16 17  1  0
 17 18  1  0
 17 19  2  0
 19 20  1  0
 20 21  2  0
 20 22  1  0
 22 23  1  0
 23 24  1  0
 24 25  2  0
 24 26  1  0
 23 27  1  0
 27 28  1  0
 27 29  1  0
 27 30  1  0
 30 31  1  0
 31 32  1  0
 31 33  1  0
 19 34  1  0
 34 35  1  0
 35 36  1  0
 36 37  2  0
 37 38  1  0
 37 39  1  0
 39 40  1  0
 39 41  2  0
 41 42  1  0
 41 43  1  0
 43 44  1  0
 43 45  2  0
 45 46  1  0
 12 47  2  0
 47 48  1  0
  4 49  2  0
 49 50  1  0
 49 51  1  0
 51 52  1  0
 51 53  2  0
 53 54  1  0
 53  2  1  0
 47  5  1  0
 35 16  1  0
 45 36  1  0
 31 23  1  0
M  CHG  3  22  -1  26  -1  34  -1
M  END
>  <UniqueID>  (28) 
28

>  <SMILES>  (28) 
O=C([N-]C1(C(=O)[O-])COC1)c1c/c(=N/C(=O)c2cc(-c3ncccc3F)ccc2Cl)n(-c2ccccc2)[n-]1

>  <Energy>  (28) 
180.36190588477874

>  <Genealogy>  (28) 
O=C([N-]C1(C(=O)[O-])COC1)c1cc(=NC(=O)c2cc(-c3ncccc3F)ccc2Cl)n(-c2ccccc2)[n-]1 (protonated)
O=C([N-]C1(C(=O)[O-])COC1)c1c/c(=N/C(=O)c2cc(-c3ncccc3F)ccc2Cl)n(-c2ccccc2)[n-]1 (cis-trans isomerization)
O=C([N-]C1(C(=O)[O-])COC1)c1c/c(=N/C(=O)c2cc(-c3ncccc3F)ccc2Cl)n(-c2ccccc2)[n-]1 (3D coordinates assigned)
O=C([N-]C1(C(=O)[O-])COC1)c1c/c(=N/C(=O)c2cc(-c3ncccc3F)ccc2Cl)n(-c2ccccc2)[n-]1 (nonaromatic ring conformer: 180.36190588477874 kcal/mol)

>  <smiles>  (28) 
O=C(NC1(C(=O)O)COC1)c1cc(=NC(=O)c2cc(-c3ncccc3F)ccc2Cl)n(-c2ccccc2)[nH]1

>  <score_type>  (28) 
oracle

>  <origin>  (28) 
adg

>  <m_score__min__energy>  (28) 
-16.190000000000001

>  <m_primary>  (28) 
energy

$$$$
28:0
     RDKit          3D

 35 36  0  0  0  0  0  0  0  0999 V2000
   55.5080   29.3430   44.9940 N   0  0  0  0  0  0  0  0  0  0  0  0
   57.2340   29.3300   45.0590 S   0  0  0  0  0  0  0  0  0  0  0  0
   57.7910   29.8360   43.7590 O   0  0  0  0  0  0  0  0  0  0  0  0
   57.7030   30.2300   46.1680 O   0  0  0  0  0  0  0  0  0  0  0  0
   57.7950   27.6880   45.3470 C   0  0  0  0  0  0  0  0  0  0  0  0
   58.5440   27.3880   46.4940 C   0  0  0  0  0  0  0  0  0  0  0  0
   59.0070   26.0870   46.7110 C   0  0  0  0  0  0  0  0  0  0  0  0
   58.7510   25.0790   45.7670 C   0  0  0  0  0  0  0  0  0  0  0  0
   59.2160   23.7370   45.9540 N   0  0  0  0  0  0  0  0  0  0  0  0
   58.7340   22.5580   45.2960 C   0  0  0  0  0  0  0  0  0  0  0  0
   58.9080   22.4470   44.0530 O   0  0  0  0  0  0  0  0  0  0  0  0
   58.1590   21.3900   46.0490 C   0  0  0  0  0  0  0  0  0  0  0  0
   57.3360   21.8660   47.1560 N   0  0  0  0  0  0  0  0  0  0  0  0
   55.9080   21.7580   47.2410 C   0  0  0  0  0  0  0  0  0  0  0  0
   55.4150   20.7890   47.8770 O   0  0  0  0  0  0  0  0  0  0  0  0
   54.9990   22.7280   46.5950 C   0  0  0  0  0  0  0  0  0  0  0  0
   53.8240   22.2780   45.9680 C   0  0  0  0  0  0  0  0  0  0  0  0
   52.9800   23.1810   45.3150 C   0  0  0  0  0  0  0  0  0  0  0  0
   53.3040   24.5390   45.2760 C   0  0  0  0  0  0  0  0  0  0  0  0
   54.4790   24.9950   45.8800 C   0  0  0  0  0  0  0  0  0  0  0  0
   54.8020   26.3460   45.8360 O   0  0  0  0  0  0  0  0  0  0  0  0
   55.3310   24.0920   46.5250 C   0  0  0  0  0  0  0  0  0  0  0  0
   57.9520   25.3680   44.6550 C   0  0  0  0  0  0  0  0  0  0  0  0
   57.4820   26.6670   44.4420 C   0  0  0  0  0  0  0  0  0  0  0  0
   55.1720   28.5930   45.6380 H   0  0  0  0  0  0  0  0  0  0  0  0
   58.7678   28.1788   47.2251 H   0  0  0  0  0  0  0  0  0  0  0  0
   59.5737   25.8519   47.6240 H   0  0  0  0  0  0  0  0  0  0  0  0
   57.5403   20.7867   45.3683 H   0  0  0  0  0  0  0  0  0  0  0  0
   58.9811   20.7775   46.4477 H   0  0  0  0  0  0  0  0  0  0  0  0
   53.5671   21.2087   45.9914 H   0  0  0  0  0  0  0  0  0  0  0  0
   52.0597   22.8216   44.8314 H   0  0  0  0  0  0  0  0  0  0  0  0
   52.6343   25.2498   44.7698 H   0  0  0  0  0  0  0  0  0  0  0  0
   56.2658   24.4515   46.9798 H   0  0  0  0  0  0  0  0  0  0  0  0
   57.6926   24.5689   43.9450 H   0  0  0  0  0  0  0  0  0  0  0  0
   56.8636   26.8879   43.5595 H   0  0  0  0  0  0  0  0  0  0  0  0
  1  2  1  0
  2  3  2  0
  2  4  2  0
  2  5  1  0
  5  6  2  0
  6  7  1  0
  7  8  2  0
  8  9  1  0
  9 10  1  0
 10 11  2  0
 10 12  1  0
 12 13  1  0
 13 14  1  0
 14 15  2  0
 14 16  1  0
 16 17  2  0
 17 18  1  0
 18 19  2  0
 19 20  1  0
 20 21  1  0
 20 22  2  0
  8 23  1  0
 23 24  2  0
 24  5  1  0
 22 16  1  0
  1 25  1  0
  6 26  1  0
  7 27  1  0
 12 28  1  0
 12 29  1  0
 17 30  1  0
 18 31  1  0
 19 32  1  0
 22 33  1  0
 23 34  1  0
 24 35  1  0
M  CHG  4   1  -1   9  -1  13  -1  21  -1
M  END
>  <UniqueID>  (29) 
29

>  <SMILES>  (29) 
[NH-]S(=O)(=O)c1ccc([N-]C(=O)C[N-]C(=O)c2cccc([O-])c2)cc1

>  <Energy>  (29) 
39.95898579264706

>  <Genealogy>  (29) 
[NH-]S(=O)(=O)c1ccc([N-]C(=O)C[N-]C(=O)c2cccc([O-])c2)cc1 (protonated)
[NH-]S(=O)(=O)c1ccc([N-]C(=O)C[N-]C(=O)c2cccc([O-])c2)cc1 (3D coordinates assigned)
[NH-]S(=O)(=O)c1ccc([N-]C(=O)C[N-]C(=O)c2cccc([O-])c2)cc1 (optimized conformer: 39.95898579264706 kcal/mol)

>  <smiles>  (29) 
NS(=O)(=O)c1ccc(NC(=O)CNC(=O)c2cccc(O)c2)cc1

>  <score_type>  (29) 
oracle

>  <origin>  (29) 
adg

>  <m_score__min__energy>  (29) 
-15.1

>  <m_primary>  (29) 
energy

$$$$
29:0
     RDKit          3D

 63 66  0  0  0  0  0  0  0  0999 V2000
   55.2350   29.3010   44.8850 N   0  0  0  0  0  0  0  0  0  0  0  0
   56.9270   29.5160   44.6040 S   0  0  0  0  0  0  0  0  0  0  0  0
   57.1640   29.7000   43.1290 O   0  0  0  0  0  0  0  0  0  0  0  0
   57.4070   30.7410   45.3310 O   0  0  0  0  0  0  0  0  0  0  0  0
   57.7970   28.1040   45.1970 C   0  0  0  0  0  0  0  0  0  0  0  0
   57.8030   26.9270   44.4370 C   0  0  0  0  0  0  0  0  0  0  0  0
   58.5030   25.8050   44.8830 C   0  0  0  0  0  0  0  0  0  0  0  0
   59.2120   25.8560   46.0870 C   0  0  0  0  0  0  0  0  0  0  0  0
   59.2330   27.0370   46.8480 C   0  0  0  0  0  0  0  0  0  0  0  0
   59.9350   27.1080   48.0970 N   0  0  0  0  0  0  0  0  0  0  0  0
   60.4180   28.3090   48.7170 C   0  0  0  0  0  0  0  0  0  0  0  0
   60.6330   28.3110   49.9570 O   0  0  0  0  0  0  0  0  0  0  0  0
   60.6420   29.5710   47.9250 C   0  0  0  0  0  0  0  0  0  0  0  0
   59.4670   30.4420   47.9910 N   0  0  0  0  0  0  0  0  0  0  0  0
   59.0250   31.1160   49.1890 C   0  0  0  0  0  0  0  0  0  0  0  0
   58.3000   30.4330   50.1870 C   0  0  0  0  0  0  0  0  0  0  0  0
   57.9340   31.0760   51.3740 C   0  0  0  0  0  0  0  0  0  0  0  0
   57.1070   30.1740   52.6480 S   0  0  0  0  0  0  0  0  0  0  0  0
   57.8310   28.8760   52.8830 O   0  0  0  0  0  0  0  0  0  0  0  0
   57.1470   30.9710   53.9230 O   0  0  0  0  0  0  0  0  0  0  0  0
   55.4440   29.8440   52.2260 N   0  0  0  0  0  0  0  0  0  0  0  0
   54.7840   29.0780   53.2920 C   0  0  0  0  0  0  0  0  0  0  0  0
   53.3190   28.7840   52.8990 C   0  0  0  0  0  0  0  0  0  0  0  0
   52.9340   29.4610   51.7130 O   0  0  0  0  0  0  0  0  0  0  0  0
   53.2060   30.8430   51.8380 C   0  0  0  0  0  0  0  0  0  0  0  0
   54.7190   31.1040   51.9840 C   0  0  0  0  0  0  0  0  0  0  0  0
   58.2620   32.4230   51.5620 C   0  0  0  0  0  0  0  0  0  0  0  0
   58.9560   33.1200   50.5730 C   0  0  0  0  0  0  0  0  0  0  0  0
   59.3420   32.4760   49.3900 C   0  0  0  0  0  0  0  0  0  0  0  0
   60.0490   33.2130   48.3870 N   0  0  0  0  0  0  0  0  0  0  0  0
   59.3220   34.1200   47.5030 C   0  0  0  0  0  0  0  0  0  0  0  0
   60.0400   34.1810   46.1490 C   0  0  0  0  0  0  0  0  0  0  0  0
   61.4140   34.4780   46.3140 O   0  0  0  0  0  0  0  0  0  0  0  0
   62.0590   33.4450   47.0400 C   0  0  0  0  0  0  0  0  0  0  0  0
   61.5010   33.3530   48.4610 C   0  0  0  0  0  0  0  0  0  0  0  0
   58.5080   28.1530   46.4070 C   0  0  0  0  0  0  0  0  0  0  0  0
   55.1460   28.6090   45.6630 H   0  0  0  0  0  0  0  0  0  0  0  0
   57.2537   26.8871   43.4848 H   0  0  0  0  0  0  0  0  0  0  0  0
   58.4969   24.8804   44.2872 H   0  0  0  0  0  0  0  0  0  0  0  0
   59.7559   24.9675   46.4401 H   0  0  0  0  0  0  0  0  0  0  0  0
   61.5107   30.1056   48.3366 H   0  0  0  0  0  0  0  0  0  0  0  0
   60.8215   29.3004   46.8740 H   0  0  0  0  0  0  0  0  0  0  0  0
   58.9160   30.5490   47.1080 H   0  0  0  0  0  0  0  0  0  0  0  0
   58.0187   29.3812   50.0301 H   0  0  0  0  0  0  0  0  0  0  0  0
   55.3185   28.1286   53.4433 H   0  0  0  0  0  0  0  0  0  0  0  0
   54.7984   29.6654   54.2219 H   0  0  0  0  0  0  0  0  0  0  0  0
   53.2054   27.7013   52.7412 H   0  0  0  0  0  0  0  0  0  0  0  0
   52.6733   29.1406   53.7151 H   0  0  0  0  0  0  0  0  0  0  0  0
   52.8372   31.3635   50.9419 H   0  0  0  0  0  0  0  0  0  0  0  0
   52.7000   31.2168   52.7403 H   0  0  0  0  0  0  0  0  0  0  0  0
   55.0965   31.5661   51.0599 H   0  0  0  0  0  0  0  0  0  0  0  0
   54.8811   31.7753   52.8402 H   0  0  0  0  0  0  0  0  0  0  0  0
   57.9719   32.9337   52.4921 H   0  0  0  0  0  0  0  0  0  0  0  0
   59.2018   34.1817   50.7227 H   0  0  0  0  0  0  0  0  0  0  0  0
   58.2956   33.7513   47.3597 H   0  0  0  0  0  0  0  0  0  0  0  0
   59.2860   35.1245   47.9498 H   0  0  0  0  0  0  0  0  0  0  0  0
   59.9407   33.2081   45.6455 H   0  0  0  0  0  0  0  0  0  0  0  0
   59.5804   34.9774   45.5453 H   0  0  0  0  0  0  0  0  0  0  0  0
   61.8965   32.4864   46.5255 H   0  0  0  0  0  0  0  0  0  0  0  0
   63.1341   33.6706   47.0963 H   0  0  0  0  0  0  0  0  0  0  0  0
   61.9314   32.4789   48.9716 H   0  0  0  0  0  0  0  0  0  0  0  0
   61.7612   34.2610   49.0248 H   0  0  0  0  0  0  0  0  0  0  0  0
   58.4960   29.0717   47.0119 H   0  0  0  0  0  0  0  0  0  0  0  0
  1  2  1  0
  2  3  2  0
  2  4  2  0
  2  5  1  0
  5  6  2  0
  6  7  1  0
  7  8  2  0
  8  9  1  0
  9 10  1  0
 10 11  1  0
 11 12  2  0
 11 13  1  0
 13 14  1  0
 14 15  1  0
 15 16  2  0
 16 17  1  0
 17 18  1  0
 18 19  2  0
 18 20  2  0
 18 21  1  0
 21 22  1  0
 22 23  1  0
 23 24  1  0
 24 25  1  0
 25 26  1  0
 17 27  2  0
 27 28  1  0
 28 29  2  0
 29 30  1  0
 30 31  1  0
 31 32  1  0
 32 33  1  0
 33 34  1  0
 34 35  1  0
  9 36  2  0
 36  5  1  0
 29 15  1  0
 35 30  1  0
 26 21  1  0
  1 37  1  0
  6 38  1  0
  7 39  1  0
  8 40  1  0
 13 41  1  0
 13 42  1  0
 14 43  1  0
 16 44  1  0
 22 45  1  0
 22 46  1  0
 23 47  1  0
 23 48  1  0
 25 49  1  0
 25 50  1  0
 26 51  1  0
 26 52  1  0
 27 53  1  0
 28 54  1  0
 31 55  1  0
 31 56  1  0
 32 57  1  0
 32 58  1  0
 34 59  1  0
 34 60  1  0
 35 61  1  0
 35 62  1  0
 36 63  1  0
M  CHG  2   1  -1  10  -1
M  END
>  <UniqueID>  (30) 
30

>  <SMILES>  (30) 
[NH-]S(=O)(=O)c1cccc([N-]C(=O)CNc2cc(S(=O)(=O)N3CCOCC3)ccc2N2CCOCC2)c1

>  <Energy>  (30) 
80.66376159576262

>  <Genealogy>  (30) 
[NH-]S(=O)(=O)c1cccc([N-]C(=O)CNc2cc(S(=O)(=O)N3CCOCC3)ccc2N2CCOCC2)c1 (protonated)
[NH-]S(=O)(=O)c1cccc([N-]C(=O)CNc2cc(S(=O)(=O)N3CCOCC3)ccc2N2CCOCC2)c1 (3D coordinates assigned)
[NH-]S(=O)(=O)c1cccc([N-]C(=O)CNc2cc(S(=O)(=O)N3CCOCC3)ccc2N2CCOCC2)c1 (nonaromatic ring conformer: 80.66376159576262 kcal/mol)

>  <smiles>  (30) 
NS(=O)(=O)c1cccc(NC(=O)CNc2cc(S(=O)(=O)N3CCOCC3)ccc2N2CCOCC2)c1

>  <score_type>  (30) 
oracle

>  <origin>  (30) 
adg

>  <m_score__min__energy>  (30) 
-14.77

>  <m_primary>  (30) 
energy

$$$$
30:0
     RDKit          3D

 42 46  0  0  0  0  0  0  0  0999 V2000
   55.2580   29.2670   44.8120 N   0  0  0  0  0  0  0  0  0  0  0  0
   56.5310   29.4200   44.1880 C   0  0  0  0  0  0  0  0  0  0  0  0
   56.6010   29.9090   43.0290 O   0  0  0  0  0  0  0  0  0  0  0  0
   57.7600   29.0350   44.9110 C   0  0  0  0  0  0  0  0  0  0  0  0
   58.2130   27.7400   45.1060 C   0  0  0  0  0  0  0  0  0  0  0  0
   57.5720   26.4730   44.6890 C   0  0  0  0  0  0  0  0  0  0  0  0
   56.7550   25.7500   45.5770 C   0  0  0  0  0  0  0  0  0  0  0  0
   56.1710   24.5440   45.1750 C   0  0  0  0  0  0  0  0  0  0  0  0
   56.4080   24.0460   43.8920 C   0  0  0  0  0  0  0  0  0  0  0  0
   57.2340   24.7480   43.0100 C   0  0  0  0  0  0  0  0  0  0  0  0
   57.8190   25.9530   43.4080 C   0  0  0  0  0  0  0  0  0  0  0  0
   59.3490   27.7940   45.8150 N   0  0  0  0  0  0  0  0  0  0  0  0
   59.6420   29.0560   46.1000 N   0  0  0  0  0  0  0  0  0  0  0  0
   60.7730   29.3600   46.7690 C   0  0  0  0  0  0  0  0  0  0  0  0
   61.1040   30.5860   47.2120 N   0  0  0  0  0  0  0  0  0  0  0  0
   60.5650   31.8290   47.1390 C   0  0  0  0  0  0  0  0  0  0  0  0
   59.4020   32.1560   46.3750 C   0  0  0  0  0  0  0  0  0  0  0  0
   58.9350   33.5010   46.4880 C   0  0  0  0  0  0  0  0  0  0  0  0
   57.8840   33.8890   45.9080 O   0  0  0  0  0  0  0  0  0  0  0  0
   59.5800   34.3940   47.2650 N   0  0  0  0  0  0  0  0  0  0  0  0
   60.6980   34.0740   47.9390 C   0  0  0  0  0  0  0  0  0  0  0  0
   61.2360   34.9490   48.6710 O   0  0  0  0  0  0  0  0  0  0  0  0
   61.2290   32.8200   47.8350 N   0  0  0  0  0  0  0  0  0  0  0  0
   62.4600   32.5040   48.5940 C   0  0  0  0  0  0  0  0  0  0  0  0
   63.6400   32.0560   47.7340 C   0  0  0  0  0  0  0  0  0  0  0  0
   63.6360   33.4460   48.3360 C   0  0  0  0  0  0  0  0  0  0  0  0
   58.7000   31.2690   45.5060 C   0  0  0  0  0  0  0  0  0  0  0  0
   57.9830   31.7860   44.6050 O   0  0  0  0  0  0  0  0  0  0  0  0
   58.7020   29.8610   45.5550 C   0  0  0  0  0  0  0  0  0  0  0  0
   55.1460   28.6670   45.6590 H   0  0  0  0  0  0  0  0  0  0  0  0
   56.5746   26.1345   46.5917 H   0  0  0  0  0  0  0  0  0  0  0  0
   55.5248   23.9877   45.8699 H   0  0  0  0  0  0  0  0  0  0  0  0
   55.9441   23.1002   43.5753 H   0  0  0  0  0  0  0  0  0  0  0  0
   57.4238   24.3517   42.0016 H   0  0  0  0  0  0  0  0  0  0  0  0
   58.4766   26.4973   42.7142 H   0  0  0  0  0  0  0  0  0  0  0  0
   59.9130   26.9660   46.1220 H   0  0  0  0  0  0  0  0  0  0  0  0
   61.4800   28.5411   46.9679 H   0  0  0  0  0  0  0  0  0  0  0  0
   61.9494   32.1184   49.4887 H   0  0  0  0  0  0  0  0  0  0  0  0
   64.3383   31.2954   48.1132 H   0  0  0  0  0  0  0  0  0  0  0  0
   63.7494   31.6512   46.7170 H   0  0  0  0  0  0  0  0  0  0  0  0
   64.3310   33.6933   49.1520 H   0  0  0  0  0  0  0  0  0  0  0  0
   63.7410   34.4655   47.9364 H   0  0  0  0  0  0  0  0  0  0  0  0
  1  2  1  0
  2  3  2  0
  2  4  1  0
  4  5  1  0
  5  6  1  0
  6  7  2  0
  7  8  1  0
  8  9  2  0
  9 10  1  0
 10 11  2  0
  5 12  2  0
 12 13  1  0
 13 14  1  0
 14 15  2  0
 15 16  1  0
 16 17  2  0
 17 18  1  0
 18 19  2  0
 18 20  1  0
 20 21  1  0
 21 22  2  0
 21 23  1  0
 23 24  1  0
 24 25  1  0
 25 26  1  0
 17 27  1  0
 27 28  2  0
 27 29  1  0
 29  4  2  0
 11  6  1  0
 29 13  1  0
 23 16  1  0
 26 24  1  0
  1 30  1  0
  7 31  1  0
  8 32  1  0
  9 33  1  0
 10 34  1  0
 11 35  1  0
 12 36  1  0
 14 37  1  0
 24 38  1  0
 25 39  1  0
 25 40  1  0
 26 41  1  0
 26 42  1  0
M  CHG  3   1  -1  12   1  20  -1
M  END
>  <UniqueID>  (31) 
31

>  <SMILES>  (31) 
[NH-]C(=O)c1c(-c2ccccc2)[nH+]n2cnc3c(c(=O)[n-]c(=O)n3C3CC3)c(=O)c12

>  <Energy>  (31) 
396.0746480815998

>  <Genealogy>  (31) 
[NH-]C(=O)c1c(-c2ccccc2)[nH+]n2cnc3c(c(=O)[n-]c(=O)n3C3CC3)c(=O)c12 (protonated)
[NH-]C(=O)c1c(-c2ccccc2)[nH+]n2cnc3c(c(=O)[n-]c(=O)n3C3CC3)c(=O)c12 (3D coordinates assigned)
[NH-]C(=O)c1c(-c2ccccc2)[nH+]n2cnc3c(c(=O)[n-]c(=O)n3C3CC3)c(=O)c12 (nonaromatic ring conformer: 396.0746480815998 kcal/mol)

>  <smiles>  (31) 
NC(=O)c1c(-c2ccccc2)nn2cnc3c(c(=O)[nH]c(=O)n3C3CC3)c(=O)c12

>  <score_type>  (31) 
oracle

>  <origin>  (31) 
adg

>  <m_score__min__energy>  (31) 
-11.23

>  <m_primary>  (31) 
energy

$$$$
31:0
     RDKit          3D

 50 53  0  0  0  0  0  0  0  0999 V2000
   55.1500   26.7190   45.9410 N   0  0  0  0  0  0  0  0  0  0  0  0
   56.4620   25.6230   46.1910 S   0  0  0  0  0  0  0  0  0  0  0  0
   56.6250   24.7510   44.9770 O   0  0  0  0  0  0  0  0  0  0  0  0
   56.1660   24.7490   47.3760 O   0  0  0  0  0  0  0  0  0  0  0  0
   57.9440   26.5340   46.4670 C   0  0  0  0  0  0  0  0  0  0  0  0
   58.5070   27.2860   45.4280 C   0  0  0  0  0  0  0  0  0  0  0  0
   59.6650   28.0330   45.6500 C   0  0  0  0  0  0  0  0  0  0  0  0
   60.2710   28.0290   46.9100 C   0  0  0  0  0  0  0  0  0  0  0  0
   59.7330   27.2660   47.9520 C   0  0  0  0  0  0  0  0  0  0  0  0
   60.3780   27.3030   49.2350 N   0  0  0  0  0  0  0  0  0  0  0  0
   60.4870   28.4380   50.1010 C   0  0  0  0  0  0  0  0  0  0  0  0
   60.0820   28.3840   51.2930 O   0  0  0  0  0  0  0  0  0  0  0  0
   61.1980   29.6630   49.6200 C   0  0  0  0  0  0  0  0  0  0  0  0
   60.3050   30.4960   48.8160 N   0  0  0  0  0  0  0  0  0  0  0  0
   60.8190   31.4270   47.8500 C   0  0  0  0  0  0  0  0  0  0  0  0
   62.0680   31.5160   47.6820 O   0  0  0  0  0  0  0  0  0  0  0  0
   59.8750   32.3010   47.0370 C   0  0  1  0  0  0  0  0  0  0  0  0
   60.6440   33.4760   46.3590 C   0  0  0  0  0  0  0  0  0  0  0  0
   59.6710   34.3540   45.5420 C   0  0  2  0  0  0  0  0  0  0  0  0
   58.5910   34.9340   46.4790 C   0  0  0  0  0  0  0  0  0  0  0  0
   57.8100   33.7790   47.1420 C   0  0  1  0  0  0  0  0  0  0  0  0
   57.1380   32.9190   46.0500 C   0  0  0  0  0  0  0  0  0  0  0  0
   58.2170   32.3380   45.1070 C   0  0  1  0  0  0  0  0  0  0  0  0
   57.3660   31.2620   43.7290 Br  0  0  0  0  0  0  0  0  0  0  0  0
   59.0000   33.4950   44.4490 C   0  0  0  0  0  0  0  0  0  0  0  0
   59.1920   31.4570   45.9240 C   0  0  0  0  0  0  0  0  0  0  0  0
   58.7810   32.9030   47.9630 C   0  0  0  0  0  0  0  0  0  0  0  0
   58.5510   26.5350   47.7330 C   0  0  0  0  0  0  0  0  0  0  0  0
   54.8290   27.0300   46.8850 H   0  0  0  0  0  0  0  0  0  0  0  0
   58.0352   27.2879   44.4343 H   0  0  0  0  0  0  0  0  0  0  0  0
   60.1014   28.6257   44.8325 H   0  0  0  0  0  0  0  0  0  0  0  0
   61.1763   28.6294   47.0831 H   0  0  0  0  0  0  0  0  0  0  0  0
   61.5480   30.2416   50.4876 H   0  0  0  0  0  0  0  0  0  0  0  0
   62.0511   29.3555   48.9974 H   0  0  0  0  0  0  0  0  0  0  0  0
   59.2720   30.4190   48.9550 H   0  0  0  0  0  0  0  0  0  0  0  0
   61.1234   34.0912   47.1347 H   0  0  0  0  0  0  0  0  0  0  0  0
   61.4055   33.0614   45.6821 H   0  0  0  0  0  0  0  0  0  0  0  0
   60.2263   35.1784   45.0708 H   0  0  0  0  0  0  0  0  0  0  0  0
   59.0709   35.5461   47.2569 H   0  0  0  0  0  0  0  0  0  0  0  0
   57.8975   35.5585   45.8966 H   0  0  0  0  0  0  0  0  0  0  0  0
   57.0394   34.1935   47.8086 H   0  0  0  0  0  0  0  0  0  0  0  0
   56.5837   32.0950   46.5230 H   0  0  0  0  0  0  0  0  0  0  0  0
   56.4447   33.5447   45.4687 H   0  0  0  0  0  0  0  0  0  0  0  0
   59.7718   33.0823   43.7826 H   0  0  0  0  0  0  0  0  0  0  0  0
   58.3070   34.1205   43.8671 H   0  0  0  0  0  0  0  0  0  0  0  0
   58.6335   30.6298   46.3865 H   0  0  0  0  0  0  0  0  0  0  0  0
   59.9652   31.0583   45.2508 H   0  0  0  0  0  0  0  0  0  0  0  0
   59.2599   33.5197   48.7378 H   0  0  0  0  0  0  0  0  0  0  0  0
   58.2163   32.0833   48.4311 H   0  0  0  0  0  0  0  0  0  0  0  0
   58.1006   25.9620   48.5569 H   0  0  0  0  0  0  0  0  0  0  0  0
  1  2  1  0
  2  3  2  0
  2  4  2  0
  2  5  1  0
  5  6  2  0
  6  7  1  0
  7  8  2  0
  8  9  1  0
  9 10  1  0
 10 11  1  0
 11 12  2  0
 11 13  1  0
 13 14  1  0
 14 15  1  0
 15 16  2  0
 17 15  1  1
 17 18  1  0
 18 19  1  0
 19 20  1  0
 20 21  1  0
 21 22  1  0
 22 23  1  0
 23 24  1  6
 23 25  1  0
 23 26  1  0
 21 27  1  0
  9 28  2  0
 28  5  1  0
 26 17  1  0
 27 17  1  0
 25 19  1  0
  1 29  1  0
  6 30  1  0
  7 31  1  0
  8 32  1  0
 13 33  1  0
 13 34  1  0
 14 35  1  0
 18 36  1  0
 18 37  1  0
 19 38  1  6
 20 39  1  0
 20 40  1  0
 21 41  1  1
 22 42  1  0
 22 43  1  0
 25 44  1  0
 25 45  1  0
 26 46  1  0
 26 47  1  0
 27 48  1  0
 27 49  1  0
 28 50  1  0
M  CHG  2   1  -1  10  -1
M  END
>  <UniqueID>  (32) 
32

>  <SMILES>  (32) 
[NH-]S(=O)(=O)c1cccc([N-]C(=O)CNC(=O)C23C[C@@H]4C[C@@H](CC(Br)(C4)C2)C3)c1

>  <Energy>  (32) 
50.47441455790578

>  <Genealogy>  (32) 
[NH-]S(=O)(=O)c1cccc([N-]C(=O)CNC(=O)C23CC4CC(CC(Br)(C4)C2)C3)c1 (protonated)
[NH-]S(=O)(=O)c1cccc([N-]C(=O)CNC(=O)C23C[C@@H]4C[C@@H](CC(Br)(C4)C2)C3)c1 (chirality)
[NH-]S(=O)(=O)c1cccc([N-]C(=O)CNC(=O)C23C[C@@H]4C[C@@H](CC(Br)(C4)C2)C3)c1 (3D coordinates assigned)
[NH-]S(=O)(=O)c1cccc([N-]C(=O)CNC(=O)C23C[C@@H]4C[C@@H](CC(Br)(C4)C2)C3)c1 (nonaromatic ring conformer: 50.47441455790578 kcal/mol)

>  <smiles>  (32) 
NS(=O)(=O)c1cccc(NC(=O)CNC(=O)C23CC4CC(CC(Br)(C4)C2)C3)c1

>  <score_type>  (32) 
oracle

>  <origin>  (32) 
adg

>  <m_score__min__energy>  (32) 
-14.140000000000001

>  <m_primary>  (32) 
energy

$$$$
32:0
     RDKit          3D

 60 64  0  0  0  0  0  0  0  0999 V2000
   59.2984   34.5863   44.7047 H   0  0  0  0  0  0  0  0  0  0  0  0
   58.6310   33.7140   44.6450 C   0  0  0  0  0  0  0  0  0  0  0  0
   57.9920   33.2330   45.7950 C   0  0  0  0  0  0  0  0  0  0  0  0
   58.1700   33.9150   47.1190 C   0  0  0  0  0  0  0  0  0  0  0  0
   57.4197   34.7132   47.2187 H   0  0  0  0  0  0  0  0  0  0  0  0
   58.0435   33.1729   47.9210 H   0  0  0  0  0  0  0  0  0  0  0  0
   59.5700   34.5240   47.2250 C   0  0  0  0  0  0  0  0  0  0  0  0
   59.8746   34.9036   46.2385 H   0  0  0  0  0  0  0  0  0  0  0  0
   59.5451   35.3441   47.9577 H   0  0  0  0  0  0  0  0  0  0  0  0
   60.5120   33.5460   47.6620 O   0  0  0  0  0  0  0  0  0  0  0  0
   60.3380   32.1490   47.6080 C   0  0  0  0  0  0  0  0  0  0  0  0
   60.7980   31.3860   46.5190 C   0  0  0  0  0  0  0  0  0  0  0  0
   61.3158   31.8840   45.6860 H   0  0  0  0  0  0  0  0  0  0  0  0
   60.6050   30.0070   46.4840 C   0  0  0  0  0  0  0  0  0  0  0  0
   60.9848   29.4267   45.6302 H   0  0  0  0  0  0  0  0  0  0  0  0
   59.9350   29.3520   47.5200 C   0  0  0  0  0  0  0  0  0  0  0  0
   59.7210   27.9360   47.4100 N   0  0  0  0  0  0  0  0  0  0  0  0
   60.5000   27.2980   47.6860 H   0  0  0  0  0  0  0  0  0  0  0  0
   58.5160   27.3640   46.8810 C   0  0  0  0  0  0  0  0  0  0  0  0
   57.5400   28.2490   45.8930 S   0  0  0  0  0  0  0  0  0  0  0  0
   58.1940   26.0020   47.1980 N   0  0  0  0  0  0  0  0  0  0  0  0
   58.9430   25.3980   47.6030 H   0  0  0  0  0  0  0  0  0  0  0  0
   56.8260   25.4830   47.2010 C   0  0  0  0  0  0  0  0  0  0  0  0
   56.6522   24.9219   48.1310 H   0  0  0  0  0  0  0  0  0  0  0  0
   56.1221   26.3256   47.1339 H   0  0  0  0  0  0  0  0  0  0  0  0
   56.6140   24.5700   46.0220 C   0  0  0  0  0  0  0  0  0  0  0  0
   55.3830   24.5760   45.3160 C   0  0  0  0  0  0  0  0  0  0  0  0
   54.5955   25.2901   45.5984 H   0  0  0  0  0  0  0  0  0  0  0  0
   55.1620   23.6760   44.2580 C   0  0  0  0  0  0  0  0  0  0  0  0
   54.2117   23.6731   43.7041 H   0  0  0  0  0  0  0  0  0  0  0  0
   56.1840   22.7900   43.9350 C   0  0  0  0  0  0  0  0  0  0  0  0
   57.3660   22.7810   44.6010 C   0  0  0  0  0  0  0  0  0  0  0  0
   57.6290   23.6590   45.6500 C   0  0  0  0  0  0  0  0  0  0  0  0
   58.5967   23.6439   46.1728 H   0  0  0  0  0  0  0  0  0  0  0  0
   58.1830   21.7970   44.0780 O   0  0  0  0  0  0  0  0  0  0  0  0
   57.4670   21.1460   43.0190 C   0  0  0  0  0  0  0  0  0  0  0  0
   58.0048   21.2547   42.0656 H   0  0  0  0  0  0  0  0  0  0  0  0
   57.3571   20.0664   43.1991 H   0  0  0  0  0  0  0  0  0  0  0  0
   56.1990   21.8120   42.9600 O   0  0  0  0  0  0  0  0  0  0  0  0
   59.4910   30.0890   48.6440 C   0  0  0  0  0  0  0  0  0  0  0  0
   58.8840   29.4550   49.7480 C   0  0  0  0  0  0  0  0  0  0  0  0
   58.7619   28.3618   49.7486 H   0  0  0  0  0  0  0  0  0  0  0  0
   58.4370   30.2000   50.8390 C   0  0  0  0  0  0  0  0  0  0  0  0
   57.9546   29.6939   51.6882 H   0  0  0  0  0  0  0  0  0  0  0  0
   58.6000   31.5840   50.8560 C   0  0  0  0  0  0  0  0  0  0  0  0
   58.2373   32.1683   51.7145 H   0  0  0  0  0  0  0  0  0  0  0  0
   59.2220   32.2310   49.7870 C   0  0  0  0  0  0  0  0  0  0  0  0
   59.3540   33.3228   49.8126 H   0  0  0  0  0  0  0  0  0  0  0  0
   59.6820   31.4980   48.6760 C   0  0  0  0  0  0  0  0  0  0  0  0
   57.1530   32.1640   45.7000 N   0  0  0  0  0  0  0  0  0  0  0  0
   56.9230   31.5240   44.5170 C   0  0  0  0  0  0  0  0  0  0  0  0
   56.1220   30.5030   44.4570 N   0  0  0  0  0  0  0  0  0  0  0  0
   55.9060   29.7050   43.2550 C   0  0  0  0  0  0  0  0  0  0  0  0
   55.6284   28.6796   43.5406 H   0  0  0  0  0  0  0  0  0  0  0  0
   55.0964   30.1515   42.6590 H   0  0  0  0  0  0  0  0  0  0  0  0
   56.8303   29.6822   42.6590 H   0  0  0  0  0  0  0  0  0  0  0  0
   57.5570   31.9740   43.3550 C   0  0  0  0  0  0  0  0  0  0  0  0
   57.3832   31.4645   42.3958 H   0  0  0  0  0  0  0  0  0  0  0  0
   58.4130   33.0760   43.4220 C   0  0  0  0  0  0  0  0  0  0  0  0
   58.9143   33.4405   42.5132 H   0  0  0  0  0  0  0  0  0  0  0  0
  1  2  1  0
  2  3  2  0
  3  4  1  0
  4  5  1  0
  4  6  1  0
  4  7  1  0
  7  8  1  0
  7  9  1  0
  7 10  1  0
 10 11  1  0
 11 12  2  0
 12 13  1  0
 12 14  1  0
 14 15  1  0
 14 16  2  0
 16 17  1  0
 17 18  1  0
 17 19  1  0
 19 20  2  0
 19 21  1  0
 21 22  1  0
 21 23  1  0
 23 24  1  0
 23 25  1  0
 23 26  1  0
 26 27  2  0
 27 28  1  0
 27 29  1  0
 29 30  1  0
 29 31  2  0
 31 32  1  0
 32 33  2  0
 33 34  1  0
 32 35  1  0
 35 36  1  0
 36 37  1  0
 36 38  1  0
 36 39  1  0
 16 40  1  0
 40 41  2  0
 41 42  1  0
 41 43  1  0
 43 44  1  0
 43 45  2  0
 45 46  1  0
 45 47  1  0
 47 48  1  0
 47 49  2  0
  3 50  1  0
 50 51  1  0
 51 52  2  0
 52 53  1  0
 53 54  1  0
 53 55  1  0
 53 56  1  0
 51 57  1  0
 57 58  1  0
 57 59  2  0
 59 60  1  0
 59  2  1  0
 49 11  1  0
 33 26  1  0
 49 40  1  0
 39 31  1  0
M  CHG  1  50  -1
M  END
>  <UniqueID>  (33) 
33

>  <SMILES>  (33) 
C/N=c1/cccc(CCOc2ccc(NC(=S)NCc3ccc4c(c3)OCO4)c3ccccc23)[n-]1

>  <Energy>  (33) 
99.11883082972703

>  <Genealogy>  (33) 
CN=c1cccc(CCOc2ccc(NC(=S)NCc3ccc4c(c3)OCO4)c3ccccc23)[n-]1 (protonated)
C/N=c1/cccc(CCOc2ccc(NC(=S)NCc3ccc4c(c3)OCO4)c3ccccc23)[n-]1 (cis-trans isomerization)
C/N=c1/cccc(CCOc2ccc(NC(=S)NCc3ccc4c(c3)OCO4)c3ccccc23)[n-]1 (3D coordinates assigned)
C/N=c1/cccc(CCOc2ccc(NC(=S)NCc3ccc4c(c3)OCO4)c3ccccc23)[n-]1 (nonaromatic ring conformer: 99.11883082972703 kcal/mol)

>  <smiles>  (33) 
CN=c1cccc(CCOc2ccc(NC(=S)NCc3ccc4c(c3)OCO4)c3ccccc23)[nH]1

>  <score_type>  (33) 
oracle

>  <origin>  (33) 
adg

>  <m_score__min__energy>  (33) 
-11.65

>  <m_primary>  (33) 
energy

$$$$
33:0
     RDKit          3D

 59 62  0  0  0  0  0  0  0  0999 V2000
   60.3770   30.7060   47.4610 N   0  0  0  0  0  0  0  0  0  0  0  0
   59.2270   31.1110   46.6960 C   0  0  0  0  0  0  0  0  0  0  0  0
   58.6460   30.1910   45.7980 C   0  0  0  0  0  0  0  0  0  0  0  0
   59.1480   28.8420   45.6840 N   0  0  0  0  0  0  0  0  0  0  0  0
   60.0370   28.3350   46.7390 C   0  0  0  0  0  0  0  0  0  0  0  0
   59.2590   28.0280   47.9810 C   0  0  0  0  0  0  0  0  0  0  0  0
   58.0920   27.5630   47.8810 O   0  0  0  0  0  0  0  0  0  0  0  0
   59.8720   28.2220   49.2620 N   0  0  0  0  0  0  0  0  0  0  0  0
   59.7410   29.3490   50.1420 C   0  0  0  0  0  0  0  0  0  0  0  0
   58.5310   30.0510   50.2990 C   0  0  0  0  0  0  0  0  0  0  0  0
   58.4630   31.1530   51.1580 C   0  0  0  0  0  0  0  0  0  0  0  0
   59.5960   31.5870   51.8540 C   0  0  0  0  0  0  0  0  0  0  0  0
   59.4670   32.7010   52.6990 O   0  0  0  0  0  0  0  0  0  0  0  0
   58.7720   33.9050   52.3770 C   0  0  0  0  0  0  0  0  0  0  0  0
   59.1300   34.3370   51.1130 F   0  0  0  0  0  0  0  0  0  0  0  0
   57.4130   33.6570   52.3950 F   0  0  0  0  0  0  0  0  0  0  0  0
   59.0600   34.8860   53.3100 F   0  0  0  0  0  0  0  0  0  0  0  0
   60.8120   30.9010   51.6790 C   0  0  0  0  0  0  0  0  0  0  0  0
   60.8780   29.7940   50.8260 C   0  0  0  0  0  0  0  0  0  0  0  0
   58.5830   27.9240   44.7200 C   0  0  0  0  0  0  0  0  0  0  0  0
   59.0460   27.8910   43.5470 O   0  0  0  0  0  0  0  0  0  0  0  0
   57.4770   27.0030   45.0710 C   0  0  0  0  0  0  0  0  0  0  0  0
   57.5840   25.6320   44.7870 C   0  0  0  0  0  0  0  0  0  0  0  0
   56.5400   24.7650   45.1170 C   0  0  0  0  0  0  0  0  0  0  0  0
   55.3880   25.2780   45.7180 C   0  0  0  0  0  0  0  0  0  0  0  0
   54.4390   24.5100   46.0230 O   0  0  0  0  0  0  0  0  0  0  0  0
   55.2880   26.6090   45.9690 N   0  0  0  0  0  0  0  0  0  0  0  0
   56.2920   27.4740   45.6590 C   0  0  0  0  0  0  0  0  0  0  0  0
   57.5320   30.5950   45.0570 C   0  0  0  0  0  0  0  0  0  0  0  0
   56.9750   29.8050   44.2490 O   0  0  0  0  0  0  0  0  0  0  0  0
   57.0290   31.8380   45.2200 N   0  0  0  0  0  0  0  0  0  0  0  0
   57.5850   32.7220   46.0840 C   0  0  0  0  0  0  0  0  0  0  0  0
   57.0640   33.8650   46.1990 O   0  0  0  0  0  0  0  0  0  0  0  0
   58.6970   32.3800   46.8160 N   0  0  0  0  0  0  0  0  0  0  0  0
   59.3010   33.3970   47.7030 C   0  0  0  0  0  0  0  0  0  0  0  0
   60.8100   33.3970   47.6000 C   0  0  0  0  0  0  0  0  0  0  0  0
   61.4600   33.8120   46.4220 C   0  0  0  0  0  0  0  0  0  0  0  0
   62.8570   33.8360   46.3570 C   0  0  0  0  0  0  0  0  0  0  0  0
   63.6180   33.4600   47.4660 C   0  0  0  0  0  0  0  0  0  0  0  0
   62.9840   33.0590   48.6440 C   0  0  0  0  0  0  0  0  0  0  0  0
   61.5870   33.0310   48.7140 C   0  0  0  0  0  0  0  0  0  0  0  0
   61.3430   30.9570   47.1520 H   0  0  0  0  0  0  0  0  0  0  0  0
   60.3090   30.0630   48.2770 H   0  0  0  0  0  0  0  0  0  0  0  0
   60.5309   27.4178   46.3858 H   0  0  0  0  0  0  0  0  0  0  0  0
   60.7869   29.1054   46.9715 H   0  0  0  0  0  0  0  0  0  0  0  0
   57.6361   29.7320   49.7445 H   0  0  0  0  0  0  0  0  0  0  0  0
   57.5083   31.6839   51.2875 H   0  0  0  0  0  0  0  0  0  0  0  0
   61.7128   31.2359   52.2141 H   0  0  0  0  0  0  0  0  0  0  0  0
   61.8344   29.2675   50.6914 H   0  0  0  0  0  0  0  0  0  0  0  0
   58.4913   25.2403   44.3039 H   0  0  0  0  0  0  0  0  0  0  0  0
   56.6240   23.6887   44.9057 H   0  0  0  0  0  0  0  0  0  0  0  0
   56.1746   28.5472   45.8701 H   0  0  0  0  0  0  0  0  0  0  0  0
   58.9233   34.3899   47.4175 H   0  0  0  0  0  0  0  0  0  0  0  0
   59.0261   33.1568   48.7406 H   0  0  0  0  0  0  0  0  0  0  0  0
   60.8662   34.1189   45.5484 H   0  0  0  0  0  0  0  0  0  0  0  0
   63.3576   34.1519   45.4299 H   0  0  0  0  0  0  0  0  0  0  0  0
   64.7165   33.4797   47.4117 H   0  0  0  0  0  0  0  0  0  0  0  0
   63.5838   32.7648   49.5179 H   0  0  0  0  0  0  0  0  0  0  0  0
   61.0929   32.7207   49.6465 H   0  0  0  0  0  0  0  0  0  0  0  0
  1  2  1  0
  2  3  2  0
  3  4  1  0
  4  5  1  0
  5  6  1  0
  6  7  2  0
  6  8  1  0
  8  9  1  0
  9 10  2  0
 10 11  1  0
 11 12  2  0
 12 13  1  0
 13 14  1  0
 14 15  1  0
 14 16  1  0
 14 17  1  0
 12 18  1  0
 18 19  2  0
  4 20  1  0
 20 21  2  0
 20 22  1  0
 22 23  1  0
 23 24  2  0
 24 25  1  0
 25 26  2  0
 25 27  1  0
 27 28  1  0
  3 29  1  0
 29 30  2  0
 29 31  1  0
 31 32  1  0
 32 33  2  0
 32 34  1  0
 34 35  1  0
 35 36  1  0
 36 37  2  0
 37 38  1  0
 38 39  2  0
 39 40  1  0
 40 41  2  0
 34  2  1  0
 41 36  1  0
 19  9  1  0
 28 22  2  0
  1 42  1  0
  1 43  1  0
  5 44  1  0
  5 45  1  0
 10 46  1  0
 11 47  1  0
 18 48  1  0
 19 49  1  0
 23 50  1  0
 24 51  1  0
 28 52  1  0
 35 53  1  0
 35 54  1  0
 37 55  1  0
 38 56  1  0
 39 57  1  0
 40 58  1  0
 41 59  1  0
M  CHG  3   8  -1  27  -1  31  -1
M  END
>  <UniqueID>  (34) 
34

>  <SMILES>  (34) 
Nc1c(N(CC(=O)[N-]c2ccc(OC(F)(F)F)cc2)C(=O)c2ccc(=O)[n-]c2)c(=O)[n-]c(=O)n1Cc1ccccc1

>  <Energy>  (34) 
85.31720082127251

>  <Genealogy>  (34) 
Nc1c(N(CC(=O)[N-]c2ccc(OC(F)(F)F)cc2)C(=O)c2ccc(=O)[n-]c2)c(=O)[n-]c(=O)n1Cc1ccccc1 (protonated)
Nc1c(N(CC(=O)[N-]c2ccc(OC(F)(F)F)cc2)C(=O)c2ccc(=O)[n-]c2)c(=O)[n-]c(=O)n1Cc1ccccc1 (3D coordinates assigned)
Nc1c(N(CC(=O)[N-]c2ccc(OC(F)(F)F)cc2)C(=O)c2ccc(=O)[n-]c2)c(=O)[n-]c(=O)n1Cc1ccccc1 (optimized conformer: 85.31720082127251 kcal/mol)

>  <smiles>  (34) 
Nc1c(N(CC(=O)Nc2ccc(OC(F)(F)F)cc2)C(=O)c2ccc(=O)[nH]c2)c(=O)[nH]c(=O)n1Cc1ccccc1

>  <score_type>  (34) 
oracle

>  <origin>  (34) 
adg

>  <m_score__min__energy>  (34) 
-12.880000000000001

>  <m_primary>  (34) 
energy

$$$$
34:0
     RDKit          3D

 47 49  0  0  0  0  0  0  0  0999 V2000
   63.4260   33.1720   47.0990 C   0  0  0  0  0  0  0  0  0  0  0  0
   62.0880   33.6700   46.5440 C   0  0  0  0  0  0  0  0  0  0  0  0
   60.8490   33.1700   47.3320 C   0  0  2  0  0  0  0  0  0  0  0  0
   59.5290   33.5170   46.6290 C   0  0  0  0  0  0  0  0  0  0  0  0
   58.3100   33.1800   47.2550 C   0  0  0  0  0  0  0  0  0  0  0  0
   57.0870   33.4700   46.6460 C   0  0  0  0  0  0  0  0  0  0  0  0
   57.0560   34.0930   45.4000 C   0  0  0  0  0  0  0  0  0  0  0  0
   58.2480   34.4280   44.7580 C   0  0  0  0  0  0  0  0  0  0  0  0
   59.4770   34.1420   45.3620 C   0  0  0  0  0  0  0  0  0  0  0  0
   60.8440   33.7970   48.6590 N   0  0  0  0  0  0  0  0  0  0  0  0
   60.9450   32.7840   49.6490 C   0  0  0  0  0  0  0  0  0  0  0  0
   60.9090   33.0170   50.8850 O   0  0  0  0  0  0  0  0  0  0  0  0
   61.0730   31.4880   49.0980 N   0  0  0  0  0  0  0  0  0  0  0  0
   60.8950   30.2210   49.8030 C   0  0  0  0  0  0  0  0  0  0  0  0
   59.7960   29.4130   49.1650 C   0  0  0  0  0  0  0  0  0  0  0  0
   58.5960   29.6730   49.4500 O   0  0  0  0  0  0  0  0  0  0  0  0
   60.0730   28.3260   48.2720 N   0  0  0  0  0  0  0  0  0  0  0  0
   59.4060   28.0510   47.0320 C   0  0  0  0  0  0  0  0  0  0  0  0
   59.5800   26.7970   46.4350 C   0  0  0  0  0  0  0  0  0  0  0  0
   58.9200   26.4850   45.2440 C   0  0  0  0  0  0  0  0  0  0  0  0
   58.0720   27.4200   44.6460 C   0  0  0  0  0  0  0  0  0  0  0  0
   57.8690   28.6700   45.2450 C   0  0  0  0  0  0  0  0  0  0  0  0
   56.7710   29.8290   44.5050 S   0  0  0  0  0  0  0  0  0  0  0  0
   55.1380   29.3640   44.8300 N   0  0  0  0  0  0  0  0  0  0  0  0
   57.0000   29.8640   43.0200 O   0  0  0  0  0  0  0  0  0  0  0  0
   57.0170   31.2030   45.0640 O   0  0  0  0  0  0  0  0  0  0  0  0
   58.5230   28.9760   46.4480 C   0  0  0  0  0  0  0  0  0  0  0  0
   61.0010   31.7000   47.6920 C   0  0  0  0  0  0  0  0  0  0  0  0
   61.0850   30.7580   46.8580 O   0  0  0  0  0  0  0  0  0  0  0  0
   63.3941   33.1839   48.1985 H   0  0  0  0  0  0  0  0  0  0  0  0
   63.6091   32.1455   46.7485 H   0  0  0  0  0  0  0  0  0  0  0  0
   64.2357   33.8290   46.7485 H   0  0  0  0  0  0  0  0  0  0  0  0
   62.0919   34.7697   46.5683 H   0  0  0  0  0  0  0  0  0  0  0  0
   61.9985   33.2675   45.5242 H   0  0  0  0  0  0  0  0  0  0  0  0
   58.3232   32.6822   48.2358 H   0  0  0  0  0  0  0  0  0  0  0  0
   56.1462   33.2060   47.1511 H   0  0  0  0  0  0  0  0  0  0  0  0
   56.0914   34.3206   44.9227 H   0  0  0  0  0  0  0  0  0  0  0  0
   58.2217   34.9186   43.7738 H   0  0  0  0  0  0  0  0  0  0  0  0
   60.4120   34.4060   44.8461 H   0  0  0  0  0  0  0  0  0  0  0  0
   60.7810   34.8200   48.8570 H   0  0  0  0  0  0  0  0  0  0  0  0
   61.8341   29.6496   49.7636 H   0  0  0  0  0  0  0  0  0  0  0  0
   60.6224   30.4303   50.8479 H   0  0  0  0  0  0  0  0  0  0  0  0
   60.2398   26.0535   46.9060 H   0  0  0  0  0  0  0  0  0  0  0  0
   59.0685   25.5007   44.7760 H   0  0  0  0  0  0  0  0  0  0  0  0
   57.5624   27.1743   43.7026 H   0  0  0  0  0  0  0  0  0  0  0  0
   55.1660   28.6850   45.6210 H   0  0  0  0  0  0  0  0  0  0  0  0
   58.3439   29.9450   46.9369 H   0  0  0  0  0  0  0  0  0  0  0  0
  1  2  1  0
  3  2  1  6
  3  4  1  0
  4  5  2  0
  5  6  1  0
  6  7  2  0
  7  8  1  0
  8  9  2  0
  3 10  1  0
 10 11  1  0
 11 12  2  0
 11 13  1  0
 13 14  1  0
 14 15  1  0
 15 16  2  0
 15 17  1  0
 17 18  1  0
 18 19  2  0
 19 20  1  0
 20 21  2  0
 21 22  1  0
 22 23  1  0
 23 24  1  0
 23 25  2  0
 23 26  2  0
 22 27  2  0
 13 28  1  0
 28 29  2  0
 28  3  1  0
  9  4  1  0
 27 18  1  0
  1 30  1  0
  1 31  1  0
  1 32  1  0
  2 33  1  0
  2 34  1  0
  5 35  1  0
  6 36  1  0
  7 37  1  0
  8 38  1  0
  9 39  1  0
 10 40  1  0
 14 41  1  0
 14 42  1  0
 19 43  1  0
 20 44  1  0
 21 45  1  0
 24 46  1  0
 27 47  1  0
M  CHG  2  17  -1  24  -1
M  END
>  <UniqueID>  (35) 
35

>  <SMILES>  (35) 
CC[C@]1(c2ccccc2)NC(=O)N(CC(=O)[N-]c2cccc(S([NH-])(=O)=O)c2)C1=O

>  <Energy>  (35) 
72.73981304592722

>  <Genealogy>  (35) 
CCC1(c2ccccc2)NC(=O)N(CC(=O)[N-]c2cccc(S([NH-])(=O)=O)c2)C1=O (protonated)
CC[C@]1(c2ccccc2)NC(=O)N(CC(=O)[N-]c2cccc(S([NH-])(=O)=O)c2)C1=O (chirality)
CC[C@]1(c2ccccc2)NC(=O)N(CC(=O)[N-]c2cccc(S([NH-])(=O)=O)c2)C1=O (3D coordinates assigned)
CC[C@]1(c2ccccc2)NC(=O)N(CC(=O)[N-]c2cccc(S([NH-])(=O)=O)c2)C1=O (nonaromatic ring conformer: 72.73981304592722 kcal/mol)

>  <smiles>  (35) 
CCC1(c2ccccc2)NC(=O)N(CC(=O)Nc2cccc(S(N)(=O)=O)c2)C1=O

>  <score_type>  (35) 
oracle

>  <origin>  (35) 
adg

>  <m_score__min__energy>  (35) 
-13.1

>  <m_primary>  (35) 
energy

$$$$
35:0
     RDKit          3D

 51 52  0  0  0  0  0  0  0  0999 V2000
   61.6367   34.9192   45.8170 H   0  0  0  0  0  0  0  0  0  0  0  0
   61.0020   34.2290   46.3920 C   0  0  0  0  0  0  0  0  0  0  0  0
   59.6560   34.2260   46.2110 N   0  0  0  0  0  0  0  0  0  0  0  0
   58.8450   33.3840   46.9060 C   0  0  0  0  0  0  0  0  0  0  0  0
   57.3550   33.4810   46.7340 C   0  0  0  0  0  0  0  0  0  0  0  0
   57.0647   34.5380   46.6424 H   0  0  0  0  0  0  0  0  0  0  0  0
   56.8558   33.0375   47.6082 H   0  0  0  0  0  0  0  0  0  0  0  0
   56.9560   32.7620   45.5310 N   0  0  0  0  0  0  0  0  0  0  0  0
   57.8340   31.8620   44.8470 C   0  0  0  0  0  0  0  0  0  0  0  0
   57.9880   31.9540   43.5980 O   0  0  0  0  0  0  0  0  0  0  0  0
   58.4830   30.8160   45.5810 N   0  0  0  0  0  0  0  0  0  0  0  0
   58.4680   30.8500   46.6260 H   0  0  0  0  0  0  0  0  0  0  0  0
   58.9780   29.6060   44.9260 C   0  0  0  0  0  0  0  0  0  0  0  0
   59.9968   29.3909   45.2805 H   0  0  0  0  0  0  0  0  0  0  0  0
   58.9867   29.7630   43.8373 H   0  0  0  0  0  0  0  0  0  0  0  0
   58.0800   28.4390   45.2500 C   0  0  0  0  0  0  0  0  0  0  0  0
   56.6840   28.5830   45.2460 C   0  0  0  0  0  0  0  0  0  0  0  0
   56.2314   29.5374   44.9389 H   0  0  0  0  0  0  0  0  0  0  0  0
   55.8900   27.5450   45.6210 N   0  0  0  0  0  0  0  0  0  0  0  0
   56.4040   26.3440   46.0080 C   0  0  0  0  0  0  0  0  0  0  0  0
   55.6230   25.3710   46.3720 N   0  0  0  0  0  0  0  0  0  0  0  0
   55.0240   24.4140   45.4450 C   0  0  0  0  0  0  0  0  0  0  0  0
   54.4694   24.9570   44.6655 H   0  0  0  0  0  0  0  0  0  0  0  0
   54.3358   23.7545   45.9940 H   0  0  0  0  0  0  0  0  0  0  0  0
   56.1250   23.5730   44.7950 C   0  0  0  0  0  0  0  0  0  0  0  0
   56.1714   22.5958   45.2979 H   0  0  0  0  0  0  0  0  0  0  0  0
   57.0771   24.1141   44.8984 H   0  0  0  0  0  0  0  0  0  0  0  0
   55.8600   23.3520   43.3040 C   0  0  0  0  0  0  0  0  0  0  0  0
   56.6248   23.8785   42.7142 H   0  0  0  0  0  0  0  0  0  0  0  0
   54.8642   23.7428   43.0479 H   0  0  0  0  0  0  0  0  0  0  0  0
   55.9110   21.9710   43.0140 O   0  0  0  0  0  0  0  0  0  0  0  0
   57.2110   21.4860   43.2740 C   0  0  0  0  0  0  0  0  0  0  0  0
   57.3697   21.4268   44.3609 H   0  0  0  0  0  0  0  0  0  0  0  0
   57.3242   20.4852   42.8319 H   0  0  0  0  0  0  0  0  0  0  0  0
   57.9521   22.1681   42.8319 H   0  0  0  0  0  0  0  0  0  0  0  0
   57.7900   26.1590   46.0240 C   0  0  0  0  0  0  0  0  0  0  0  0
   58.2171   25.1928   46.3307 H   0  0  0  0  0  0  0  0  0  0  0  0
   58.6280   27.2120   45.6470 C   0  0  0  0  0  0  0  0  0  0  0  0
   59.7196   27.0773   45.6619 H   0  0  0  0  0  0  0  0  0  0  0  0
   59.4150   32.5170   47.8540 C   0  0  0  0  0  0  0  0  0  0  0  0
   58.6000   31.6670   48.6110 O   0  0  0  0  0  0  0  0  0  0  0  0
   58.9510   30.3170   48.9030 C   0  0  0  0  0  0  0  0  0  0  0  0
   58.9878   30.1753   49.9932 H   0  0  0  0  0  0  0  0  0  0  0  0
   58.1988   29.6408   48.4706 H   0  0  0  0  0  0  0  0  0  0  0  0
   59.9373   30.0928   48.4706 H   0  0  0  0  0  0  0  0  0  0  0  0
   60.7650   32.5220   48.0310 N   0  0  0  0  0  0  0  0  0  0  0  0
   61.5760   33.3470   47.3160 C   0  0  0  0  0  0  0  0  0  0  0  0
   63.0520   33.3240   47.5600 C   0  0  0  0  0  0  0  0  0  0  0  0
   63.2446   33.3210   48.6430 H   0  0  0  0  0  0  0  0  0  0  0  0
   63.4843   32.4190   47.1082 H   0  0  0  0  0  0  0  0  0  0  0  0
   63.5123   34.2151   47.1082 H   0  0  0  0  0  0  0  0  0  0  0  0
  1  2  1  0
  2  3  2  0
  3  4  1  0
  4  5  1  0
  5  6  1  0
  5  7  1  0
  5  8  1  0
  8  9  1  0
  9 10  2  0
  9 11  1  0
 11 12  1  0
 11 13  1  0
 13 14  1  0
 13 15  1  0
 13 16  1  0
 16 17  2  0
 17 18  1  0
 17 19  1  0
 19 20  1  0
 20 21  2  0
 21 22  1  0
 22 23  1  0
 22 24  1  0
 22 25  1  0
 25 26  1  0
 25 27  1  0
 25 28  1  0
 28 29  1  0
 28 30  1  0
 28 31  1  0
 31 32  1  0
 32 33  1  0
 32 34  1  0
 32 35  1  0
 20 36  1  0
 36 37  1  0
 36 38  2  0
 38 39  1  0
  4 40  2  0
 40 41  1  0
 41 42  1  0
 42 43  1  0
 42 44  1  0
 42 45  1  0
 40 46  1  0
 46 47  2  0
 47 48  1  0
 48 49  1  0
 48 50  1  0
 48 51  1  0
 47  2  1  0
 38 16  1  0
M  CHG  2   8  -1  19  -1
M  END
>  <UniqueID>  (36) 
36

>  <SMILES>  (36) 
COCCC/N=c1/ccc(CNC(=O)[N-]Cc2ncc(C)nc2OC)c[n-]1

>  <Energy>  (36) 
37.31810344266795

>  <Genealogy>  (36) 
COCCCN=c1ccc(CNC(=O)[N-]Cc2ncc(C)nc2OC)c[n-]1 (protonated)
COCCC/N=c1/ccc(CNC(=O)[N-]Cc2ncc(C)nc2OC)c[n-]1 (cis-trans isomerization)
COCCC/N=c1/ccc(CNC(=O)[N-]Cc2ncc(C)nc2OC)c[n-]1 (3D coordinates assigned)
COCCC/N=c1/ccc(CNC(=O)[N-]Cc2ncc(C)nc2OC)c[n-]1 (optimized conformer: 37.31810344266795 kcal/mol)

>  <smiles>  (36) 
COCCCN=c1ccc(CNC(=O)NCc2ncc(C)nc2OC)c[nH]1

>  <score_type>  (36) 
oracle

>  <origin>  (36) 
adg

>  <m_score__min__energy>  (36) 
-10.52

>  <m_primary>  (36) 
energy

$$$$
36:0
     RDKit          3D

 66 69  0  0  0  0  0  0  0  0999 V2000
   63.6317   33.2671   45.5976 H   0  0  0  0  0  0  0  0  0  0  0  0
   63.2300   33.4270   46.6090 C   0  0  0  0  0  0  0  0  0  0  0  0
   64.0530   33.2370   47.7230 C   0  0  0  0  0  0  0  0  0  0  0  0
   65.0972   32.9192   47.5863 H   0  0  0  0  0  0  0  0  0  0  0  0
   63.5470   33.4520   49.0220 C   0  0  0  0  0  0  0  0  0  0  0  0
   64.3270   33.2740   50.1740 O   0  0  0  0  0  0  0  0  0  0  0  0
   65.6340   32.7040   50.1820 C   0  0  0  0  0  0  0  0  0  0  0  0
   65.9648   32.5598   51.2211 H   0  0  0  0  0  0  0  0  0  0  0  0
   65.6137   31.7330   49.6655 H   0  0  0  0  0  0  0  0  0  0  0  0
   66.3318   33.3795   49.6655 H   0  0  0  0  0  0  0  0  0  0  0  0
   62.2150   33.8590   49.1800 C   0  0  0  0  0  0  0  0  0  0  0  0
   61.8152   34.0323   50.1900 H   0  0  0  0  0  0  0  0  0  0  0  0
   61.3850   34.0480   48.0620 C   0  0  0  0  0  0  0  0  0  0  0  0
   59.9440   34.4320   48.2480 C   0  0  0  0  0  0  0  0  0  0  0  0
   59.5533   33.9515   49.1571 H   0  0  0  0  0  0  0  0  0  0  0  0
   59.8709   35.5254   48.3433 H   0  0  0  0  0  0  0  0  0  0  0  0
   59.1400   33.9870   47.0680 C   0  0  0  0  0  0  0  0  0  0  0  0
   58.1950   32.5930   47.0100 S   0  0  0  0  0  0  0  0  0  0  0  0
   57.5730   32.9700   45.4840 C   0  0  0  0  0  0  0  0  0  0  0  0
   56.6580   32.3000   44.8470 N   0  0  0  0  0  0  0  0  0  0  0  0
   56.7540   30.9130   44.5010 C   0  0  0  0  0  0  0  0  0  0  0  0
   55.7310   30.1770   44.5070 O   0  0  0  0  0  0  0  0  0  0  0  0
   58.0860   30.3390   44.1260 C   0  0  0  0  0  0  0  0  0  0  0  0
   58.0316   29.9308   43.1060 H   0  0  0  0  0  0  0  0  0  0  0  0
   58.8452   31.1336   44.1724 H   0  0  0  0  0  0  0  0  0  0  0  0
   58.4470   29.2950   45.0340 O   0  0  0  0  0  0  0  0  0  0  0  0
   58.1740   27.9300   44.8420 C   0  0  0  0  0  0  0  0  0  0  0  0
   57.9190   27.0530   45.9130 C   0  0  0  0  0  0  0  0  0  0  0  0
   57.9650   27.4245   46.9474 H   0  0  0  0  0  0  0  0  0  0  0  0
   57.6080   25.7140   45.6690 C   0  0  0  0  0  0  0  0  0  0  0  0
   57.4066   25.0367   46.5120 H   0  0  0  0  0  0  0  0  0  0  0  0
   57.5510   25.2280   44.3550 C   0  0  0  0  0  0  0  0  0  0  0  0
   57.2710   23.7700   44.0960 C   0  0  0  0  0  0  0  0  0  0  0  0
   58.0450   23.3694   43.4249 H   0  0  0  0  0  0  0  0  0  0  0  0
   57.2792   23.2368   45.0581 H   0  0  0  0  0  0  0  0  0  0  0  0
   55.9020   23.5790   43.4480 C   0  0  0  0  0  0  0  0  0  0  0  0
   55.3518   24.5312   43.4706 H   0  0  0  0  0  0  0  0  0  0  0  0
   56.0370   23.2519   42.4065 H   0  0  0  0  0  0  0  0  0  0  0  0
   55.1430   22.5630   44.1770 N   0  0  0  0  0  0  0  0  0  0  0  0
   54.2280   23.3110   45.4480 S   0  0  0  0  0  0  0  0  0  0  0  0
   54.3940   24.8020   45.3680 O   0  0  0  0  0  0  0  0  0  0  0  0
   52.7700   22.9820   45.2800 O   0  0  0  0  0  0  0  0  0  0  0  0
   54.8100   22.7510   47.0140 C   0  0  0  0  0  0  0  0  0  0  0  0
   56.1430   22.9800   47.3830 C   0  0  0  0  0  0  0  0  0  0  0  0
   56.8169   23.5160   46.6985 H   0  0  0  0  0  0  0  0  0  0  0  0
   56.6190   22.5290   48.6190 C   0  0  0  0  0  0  0  0  0  0  0  0
   57.6617   22.7259   48.9090 H   0  0  0  0  0  0  0  0  0  0  0  0
   55.7730   21.8270   49.4900 C   0  0  0  0  0  0  0  0  0  0  0  0
   56.2670   21.3760   50.8330 C   0  0  0  0  0  0  0  0  0  0  0  0
   55.7021   21.8917   51.6236 H   0  0  0  0  0  0  0  0  0  0  0  0
   56.1250   20.2895   50.9300 H   0  0  0  0  0  0  0  0  0  0  0  0
   57.3361   21.6161   50.9300 H   0  0  0  0  0  0  0  0  0  0  0  0
   54.4350   21.6020   49.1190 C   0  0  0  0  0  0  0  0  0  0  0  0
   53.7596   21.0666   49.8026 H   0  0  0  0  0  0  0  0  0  0  0  0
   53.9600   22.0560   47.8850 C   0  0  0  0  0  0  0  0  0  0  0  0
   52.9154   21.8671   47.5967 H   0  0  0  0  0  0  0  0  0  0  0  0
   57.8300   26.0950   43.2880 C   0  0  0  0  0  0  0  0  0  0  0  0
   57.8048   25.7183   42.2548 H   0  0  0  0  0  0  0  0  0  0  0  0
   58.1400   27.4360   43.5330 C   0  0  0  0  0  0  0  0  0  0  0  0
   58.3589   28.1082   42.6903 H   0  0  0  0  0  0  0  0  0  0  0  0
   58.0610   34.1430   45.0280 N   0  0  0  0  0  0  0  0  0  0  0  0
   57.7860   34.5780   44.1190 H   0  0  0  0  0  0  0  0  0  0  0  0
   58.9270   34.7190   45.9020 C   0  0  0  0  0  0  0  0  0  0  0  0
   59.4190   35.6830   45.7054 H   0  0  0  0  0  0  0  0  0  0  0  0
   61.9000   33.8190   46.7750 C   0  0  0  0  0  0  0  0  0  0  0  0
   61.2531   33.9490   45.8948 H   0  0  0  0  0  0  0  0  0  0  0  0
  1  2  1  0
  2  3  2  0
  3  4  1  0
  3  5  1  0
  5  6  1  0
  6  7  1  0
  7  8  1  0
  7  9  1  0
  7 10  1  0
  5 11  2  0
 11 12  1  0
 11 13  1  0
 13 14  1  0
 14 15  1  0
 14 16  1  0
 14 17  1  0
 17 18  1  0
 18 19  1  0
 19 20  2  0
 20 21  1  0
 21 22  2  0
 21 23  1  0
 23 24  1  0
 23 25  1  0
 23 26  1  0
 26 27  1  0
 27 28  2  0
 28 29  1  0
 28 30  1  0
 30 31  1  0
 30 32  2  0
 32 33  1  0
 33 34  1  0
 33 35  1  0
 33 36  1  0
 36 37  1  0
 36 38  1  0
 36 39  1  0
 39 40  1  0
 40 41  2  0
 40 42  2  0
 40 43  1  0
 43 44  2  0
 44 45  1  0
 44 46  1  0
 46 47  1  0
 46 48  2  0
 48 49  1  0
 49 50  1  0
 49 51  1  0
 49 52  1  0
 48 53  1  0
 53 54  1  0
 53 55  2  0
 55 56  1  0
 32 57  1  0
 57 58  1  0
 57 59  2  0
 59 60  1  0
 19 61  1  0
 61 62  1  0
 61 63  1  0
 63 64  1  0
 13 65  2  0
 65 66  1  0
 65  2  1  0
 63 17  2  0
 59 27  1  0
 55 43  1  0
M  CHG  1  39  -1
M  END
>  <UniqueID>  (37) 
37

>  <SMILES>  (37) 
COc1cccc(Cc2c[nH]/c(=N/C(=O)COc3ccc(CC[N-]S(=O)(=O)c4ccc(C)cc4)cc3)s2)c1

>  <Energy>  (37) 
91.99642973008226

>  <Genealogy>  (37) 
COc1cccc(Cc2c[nH]c(=NC(=O)COc3ccc(CC[N-]S(=O)(=O)c4ccc(C)cc4)cc3)s2)c1 (protonated)
COc1cccc(Cc2c[nH]/c(=N/C(=O)COc3ccc(CC[N-]S(=O)(=O)c4ccc(C)cc4)cc3)s2)c1 (cis-trans isomerization)
COc1cccc(Cc2c[nH]/c(=N/C(=O)COc3ccc(CC[N-]S(=O)(=O)c4ccc(C)cc4)cc3)s2)c1 (3D coordinates assigned)
COc1cccc(Cc2c[nH]/c(=N/C(=O)COc3ccc(CC[N-]S(=O)(=O)c4ccc(C)cc4)cc3)s2)c1 (optimized conformer: 91.99642973008226 kcal/mol)

>  <smiles>  (37) 
COc1cccc(Cc2c[nH]c(=NC(=O)COc3ccc(CCNS(=O)(=O)c4ccc(C)cc4)cc3)s2)c1

>  <score_type>  (37) 
oracle

>  <origin>  (37) 
adg

>  <m_score__min__energy>  (37) 
-11.26

>  <m_primary>  (37) 
energy

$$$$
37:0
     RDKit          3D

 59 62  0  0  0  0  0  0  0  0999 V2000
   64.9070   32.6740   48.1260 H   0  0  0  0  0  0  0  0  0  0  0  0
   64.5760   32.3970   49.0200 O   0  0  0  0  0  0  0  0  0  0  0  0
   63.7380   33.4270   49.4700 C   0  0  0  0  0  0  0  0  0  0  0  0
   64.1466   34.3958   49.1468 H   0  0  0  0  0  0  0  0  0  0  0  0
   63.6822   33.3916   50.5680 H   0  0  0  0  0  0  0  0  0  0  0  0
   62.3530   33.2550   48.9000 C   0  0  0  0  0  0  0  0  0  0  0  0
   61.3020   32.8670   49.7470 C   0  0  0  0  0  0  0  0  0  0  0  0
   61.4907   32.7260   50.8215 H   0  0  0  0  0  0  0  0  0  0  0  0
   60.0200   32.6590   49.2360 C   0  0  0  0  0  0  0  0  0  0  0  0
   59.1992   32.3781   49.9122 H   0  0  0  0  0  0  0  0  0  0  0  0
   59.7750   32.8070   47.8630 C   0  0  0  0  0  0  0  0  0  0  0  0
   58.4610   32.6020   47.3250 N   0  0  0  0  0  0  0  0  0  0  0  0
   58.0380   31.7080   46.4620 C   0  0  0  0  0  0  0  0  0  0  0  0
   57.3700   32.1870   45.3140 C   0  0  0  0  0  0  0  0  0  0  0  0
   57.2810   33.6020   45.0310 C   0  0  0  0  0  0  0  0  0  0  0  0
   57.2110   34.7350   44.8050 N   0  0  0  0  0  0  0  0  0  0  0  0
   56.7000   31.2950   44.4750 C   0  0  0  0  0  0  0  0  0  0  0  0
   56.1548   31.6731   43.5976 H   0  0  0  0  0  0  0  0  0  0  0  0
   56.7180   29.9670   44.7360 N   0  0  0  0  0  0  0  0  0  0  0  0
   57.4210   29.4440   45.7730 C   0  0  0  0  0  0  0  0  0  0  0  0
   57.4430   28.0580   45.9450 C   0  0  0  0  0  0  0  0  0  0  0  0
   56.8231   27.4198   45.2981 H   0  0  0  0  0  0  0  0  0  0  0  0
   58.2480   27.4700   46.9350 C   0  0  0  0  0  0  0  0  0  0  0  0
   58.2640   26.0820   47.1420 O   0  0  0  0  0  0  0  0  0  0  0  0
   58.6230   25.1150   46.1590 C   0  0  0  0  0  0  0  0  0  0  0  0
   59.2737   25.5804   45.4041 H   0  0  0  0  0  0  0  0  0  0  0  0
   59.1615   24.2825   46.6355 H   0  0  0  0  0  0  0  0  0  0  0  0
   57.3760   24.6020   45.5010 C   0  0  0  0  0  0  0  0  0  0  0  0
   57.4390   24.0180   44.2240 C   0  0  0  0  0  0  0  0  0  0  0  0
   58.4100   23.9065   43.7192 H   0  0  0  0  0  0  0  0  0  0  0  0
   56.2700   23.5780   43.5930 C   0  0  0  0  0  0  0  0  0  0  0  0
   56.3246   23.1121   42.5980 H   0  0  0  0  0  0  0  0  0  0  0  0
   55.0330   23.7300   44.2260 C   0  0  0  0  0  0  0  0  0  0  0  0
   54.1153   23.3811   43.7299 H   0  0  0  0  0  0  0  0  0  0  0  0
   54.9610   24.3250   45.4890 C   0  0  0  0  0  0  0  0  0  0  0  0
   53.9865   24.4464   45.9845 H   0  0  0  0  0  0  0  0  0  0  0  0
   56.1270   24.7660   46.1230 C   0  0  0  0  0  0  0  0  0  0  0  0
   56.0659   25.2430   47.1123 H   0  0  0  0  0  0  0  0  0  0  0  0
   59.0760   28.2860   47.7290 C   0  0  0  0  0  0  0  0  0  0  0  0
   59.9450   27.6830   48.7110 N   0  0  0  0  0  0  0  0  0  0  0  0
   59.9540   26.6420   48.7990 H   0  0  0  0  0  0  0  0  0  0  0  0
   60.7630   28.4620   49.6470 C   0  0  0  0  0  0  0  0  0  0  0  0
   60.2056   29.3622   49.9452 H   0  0  0  0  0  0  0  0  0  0  0  0
   61.7022   28.7324   49.1423 H   0  0  0  0  0  0  0  0  0  0  0  0
   61.1070   27.6510   50.9010 C   0  0  0  0  0  0  0  0  0  0  0  0
   60.4740   27.9891   51.7346 H   0  0  0  0  0  0  0  0  0  0  0  0
   62.1692   27.8052   51.1416 H   0  0  0  0  0  0  0  0  0  0  0  0
   60.8860   26.2700   50.6800 O   0  0  0  0  0  0  0  0  0  0  0  0
   60.8720   25.5710   51.9040 C   0  0  0  0  0  0  0  0  0  0  0  0
   60.8864   26.2895   52.7368 H   0  0  0  0  0  0  0  0  0  0  0  0
   59.9614   24.9570   51.9652 H   0  0  0  0  0  0  0  0  0  0  0  0
   61.7573   24.9210   51.9652 H   0  0  0  0  0  0  0  0  0  0  0  0
   59.0530   29.6810   47.5400 C   0  0  0  0  0  0  0  0  0  0  0  0
   59.7499   30.3112   48.1119 H   0  0  0  0  0  0  0  0  0  0  0  0
   58.1580   30.2910   46.6350 C   0  0  0  0  0  0  0  0  0  0  0  0
   60.8080   33.2240   47.0180 C   0  0  0  0  0  0  0  0  0  0  0  0
   60.6061   33.3928   45.9500 H   0  0  0  0  0  0  0  0  0  0  0  0
   62.0980   33.4280   47.5230 C   0  0  0  0  0  0  0  0  0  0  0  0
   63.3730   33.8870   46.3970 Cl  0  0  0  0  0  0  0  0  0  0  0  0
  1  2  1  0
  2  3  1  0
  3  4  1  0
  3  5  1  0
  3  6  1  0
  6  7  2  0
  7  8  1  0
  7  9  1  0
  9 10  1  0
  9 11  2  0
 11 12  1  0
 12 13  2  0
 13 14  1  0
 14 15  1  0
 15 16  3  0
 14 17  2  0
 17 18  1  0
 17 19  1  0
 19 20  1  0
 20 21  2  0
 21 22  1  0
 21 23  1  0
 23 24  1  0
 24 25  1  0
 25 26  1  0
 25 27  1  0
 25 28  1  0
 28 29  2  0
 29 30  1  0
 29 31  1  0
 31 32  1  0
 31 33  2  0
 33 34  1  0
 33 35  1  0
 35 36  1  0
 35 37  2  0
 37 38  1  0
 23 39  2  0
 39 40  1  0
 40 41  1  0
 40 42  1  0
 42 43  1  0
 42 44  1  0
 42 45  1  0
 45 46  1  0
 45 47  1  0
 45 48  1  0
 48 49  1  0
 49 50  1  0
 49 51  1  0
 49 52  1  0
 39 53  1  0
 53 54  1  0
 53 55  2  0
 11 56  1  0
 56 57  1  0
 56 58  2  0
 58 59  1  0
 58  6  1  0
 55 13  1  0
 55 20  1  0
 37 28  1  0
M  CHG  1  19  -1
M  END
>  <UniqueID>  (38) 
38

>  <SMILES>  (38) 
COCCNc1cc2/c(=N\c3ccc(CO)c(Cl)c3)c(C#N)c[n-]c2cc1OCc1ccccc1

>  <Energy>  (38) 
85.61770691479181

>  <Genealogy>  (38) 
COCCNc1cc2c(=Nc3ccc(CO)c(Cl)c3)c(C#N)c[n-]c2cc1OCc1ccccc1 (protonated)
COCCNc1cc2/c(=N\c3ccc(CO)c(Cl)c3)c(C#N)c[n-]c2cc1OCc1ccccc1 (cis-trans isomerization)
COCCNc1cc2/c(=N\c3ccc(CO)c(Cl)c3)c(C#N)c[n-]c2cc1OCc1ccccc1 (3D coordinates assigned)
COCCNc1cc2/c(=N\c3ccc(CO)c(Cl)c3)c(C#N)c[n-]c2cc1OCc1ccccc1 (optimized conformer: 85.61770691479181 kcal/mol)

>  <smiles>  (38) 
COCCNc1cc2c(=Nc3ccc(CO)c(Cl)c3)c(C#N)c[nH]c2cc1OCc1ccccc1

>  <score_type>  (38) 
oracle

>  <origin>  (38) 
adg

>  <m_score__min__energy>  (38) 
-9.7100000000000009

>  <m_primary>  (38) 
energy

$$$$
38:0
     RDKit          3D

 50 53  0  0  0  0  0  0  0  0999 V2000
   60.3910   22.3510   45.3580 N   0  0  0  0  0  0  0  0  0  0  0  0
   58.6870   22.1220   45.1740 S   0  0  0  0  0  0  0  0  0  0  0  0
   58.4110   21.5040   43.8350 O   0  0  0  0  0  0  0  0  0  0  0  0
   58.1860   21.1970   46.2460 O   0  0  0  0  0  0  0  0  0  0  0  0
   57.8640   23.6730   45.3080 C   0  0  0  0  0  0  0  0  0  0  0  0
   56.4790   23.7460   45.1290 C   0  0  0  0  0  0  0  0  0  0  0  0
   55.8170   24.9720   45.2490 C   0  0  0  0  0  0  0  0  0  0  0  0
   56.5390   26.1460   45.5330 C   0  0  0  0  0  0  0  0  0  0  0  0
   55.9030   27.4250   45.6800 N   0  0  0  0  0  0  0  0  0  0  0  0
   56.3300   28.6790   45.1350 C   0  0  0  0  0  0  0  0  0  0  0  0
   55.4990   29.5840   44.8590 O   0  0  0  0  0  0  0  0  0  0  0  0
   57.7740   28.8880   44.8150 C   0  0  0  0  0  0  0  0  0  0  0  0
   58.3960   29.7290   45.8330 N   0  0  0  0  0  0  0  0  0  0  0  0
   57.9100   30.8920   46.2410 N   0  0  0  0  0  0  0  0  0  0  0  0
   58.7600   31.3420   47.1920 C   0  0  0  0  0  0  0  0  0  0  0  0
   58.6170   32.6870   47.8360 C   0  0  0  0  0  0  0  0  0  0  0  0
   58.9080   33.7610   46.8410 C   0  0  0  0  0  0  0  0  0  0  0  0
   58.4870   33.7860   45.5240 C   0  0  0  0  0  0  0  0  0  0  0  0
   58.9740   34.9660   45.0060 C   0  0  0  0  0  0  0  0  0  0  0  0
   59.6680   35.5770   46.0320 C   0  0  0  0  0  0  0  0  0  0  0  0
   59.6110   34.8350   47.1120 O   0  0  0  0  0  0  0  0  0  0  0  0
   59.7850   30.4780   47.3950 N   0  0  0  0  0  0  0  0  0  0  0  0
   60.9690   30.6290   48.2410 C   0  0  0  0  0  0  0  0  0  0  0  0
   61.8020   31.7810   47.7720 C   0  0  0  0  0  0  0  0  0  0  0  0
   63.0040   32.1810   48.3210 C   0  0  0  0  0  0  0  0  0  0  0  0
   63.4110   33.2620   47.5690 C   0  0  0  0  0  0  0  0  0  0  0  0
   62.4420   33.4440   46.6030 C   0  0  0  0  0  0  0  0  0  0  0  0
   61.4980   32.5430   46.7460 O   0  0  0  0  0  0  0  0  0  0  0  0
   59.5210   29.4860   46.5250 C   0  0  0  0  0  0  0  0  0  0  0  0
   60.2470   28.4680   46.3660 O   0  0  0  0  0  0  0  0  0  0  0  0
   57.9220   26.0610   45.7420 C   0  0  0  0  0  0  0  0  0  0  0  0
   58.5800   24.8330   45.6330 C   0  0  0  0  0  0  0  0  0  0  0  0
   60.8040   21.4150   45.5810 H   0  0  0  0  0  0  0  0  0  0  0  0
   60.7650   22.6270   44.4200 H   0  0  0  0  0  0  0  0  0  0  0  0
   55.9082   22.8358   44.8930 H   0  0  0  0  0  0  0  0  0  0  0  0
   54.7255   25.0189   45.1206 H   0  0  0  0  0  0  0  0  0  0  0  0
   58.2849   27.9143   44.7854 H   0  0  0  0  0  0  0  0  0  0  0  0
   57.8582   29.3843   43.8369 H   0  0  0  0  0  0  0  0  0  0  0  0
   57.5891   32.8049   48.2096 H   0  0  0  0  0  0  0  0  0  0  0  0
   59.3281   32.7655   48.6716 H   0  0  0  0  0  0  0  0  0  0  0  0
   57.8897   33.0248   45.0008 H   0  0  0  0  0  0  0  0  0  0  0  0
   58.8377   35.3449   43.9824 H   0  0  0  0  0  0  0  0  0  0  0  0
   60.1905   36.5419   45.9549 H   0  0  0  0  0  0  0  0  0  0  0  0
   60.6523   30.8096   49.2788 H   0  0  0  0  0  0  0  0  0  0  0  0
   61.5684   29.7085   48.1835 H   0  0  0  0  0  0  0  0  0  0  0  0
   63.5268   31.7316   49.1781 H   0  0  0  0  0  0  0  0  0  0  0  0
   64.3239   33.8592   47.7102 H   0  0  0  0  0  0  0  0  0  0  0  0
   62.4583   34.2262   45.8298 H   0  0  0  0  0  0  0  0  0  0  0  0
   58.4934   26.9667   45.9935 H   0  0  0  0  0  0  0  0  0  0  0  0
   59.6653   24.7766   45.8031 H   0  0  0  0  0  0  0  0  0  0  0  0
  1  2  1  0
  2  3  2  0
  2  4  2  0
  2  5  1  0
  5  6  2  0
  6  7  1  0
  7  8  2  0
  8  9  1  0
  9 10  1  0
 10 11  2  0
 10 12  1  0
 12 13  1  0
 13 14  1  0
 14 15  2  0
 15 16  1  0
 16 17  1  0
 17 18  2  0
 18 19  1  0
 19 20  2  0
 20 21  1  0
 15 22  1  0
 22 23  1  0
 23 24  1  0
 24 25  2  0
 25 26  1  0
 26 27  2  0
 27 28  1  0
 22 29  1  0
 29 30  2  0
  8 31  1  0
 31 32  2  0
 32  5  1  0
 29 13  1  0
 21 17  1  0
 28 24  1  0
  1 33  1  0
  1 34  1  0
  6 35  1  0
  7 36  1  0
 12 37  1  0
 12 38  1  0
 16 39  1  0
 16 40  1  0
 18 41  1  0
 19 42  1  0
 20 43  1  0
 23 44  1  0
 23 45  1  0
 25 46  1  0
 26 47  1  0
 27 48  1  0
 31 49  1  0
 32 50  1  0
M  CHG  1   9  -1
M  END
>  <UniqueID>  (39) 
39

>  <SMILES>  (39) 
NS(=O)(=O)c1ccc([N-]C(=O)Cn2nc(Cc3ccco3)n(Cc3ccco3)c2=O)cc1

>  <Energy>  (39) 
138.0356342797454

>  <Genealogy>  (39) 
NS(=O)(=O)c1ccc([N-]C(=O)Cn2nc(Cc3ccco3)n(Cc3ccco3)c2=O)cc1 (protonated)
NS(=O)(=O)c1ccc([N-]C(=O)Cn2nc(Cc3ccco3)n(Cc3ccco3)c2=O)cc1 (3D coordinates assigned)
NS(=O)(=O)c1ccc([N-]C(=O)Cn2nc(Cc3ccco3)n(Cc3ccco3)c2=O)cc1 (optimized conformer: 138.0356342797454 kcal/mol)

>  <smiles>  (39) 
NS(=O)(=O)c1ccc(NC(=O)Cn2nc(Cc3ccco3)n(Cc3ccco3)c2=O)cc1

>  <score_type>  (39) 
oracle

>  <origin>  (39) 
adg

>  <m_score__min__energy>  (39) 
-10.960000000000001

>  <m_primary>  (39) 
energy

$$$$
39:0
     RDKit          3D

 48 50  0  0  0  0  0  0  0  0999 V2000
   63.2830   32.7250   47.6320 C   0  0  0  0  0  0  0  0  0  0  0  0
   61.9440   33.2370   47.1110 C   0  0  0  0  0  0  0  0  0  0  0  0
   61.2730   34.1820   48.1200 C   0  0  0  0  0  0  0  0  0  0  0  0
   60.2400   33.4420   48.9420 C   0  0  0  0  0  0  0  0  0  0  0  0
   60.5560   33.1500   50.2790 C   0  0  0  0  0  0  0  0  0  0  0  0
   59.6840   32.4100   51.0780 C   0  0  0  0  0  0  0  0  0  0  0  0
   58.4700   31.9440   50.5570 C   0  0  0  0  0  0  0  0  0  0  0  0
   57.5470   31.1230   51.3730 C   0  0  0  0  0  0  0  0  0  0  0  0
   56.5070   31.5660   52.1730 C   0  0  0  0  0  0  0  0  0  0  0  0
   55.9890   30.4040   52.7010 C   0  0  0  0  0  0  0  0  0  0  0  0
   54.8790   30.3140   53.6950 C   0  0  0  0  0  0  0  0  0  0  0  0
   56.6930   29.3450   52.2550 N   0  0  0  0  0  0  0  0  0  0  0  0
   57.6100   29.8130   51.4590 O   0  0  0  0  0  0  0  0  0  0  0  0
   58.1350   32.2530   49.2320 C   0  0  0  0  0  0  0  0  0  0  0  0
   59.0040   32.9910   48.4110 C   0  0  0  0  0  0  0  0  0  0  0  0
   58.5000   33.3220   46.7410 S   0  0  0  0  0  0  0  0  0  0  0  0
   57.0110   33.5060   46.6590 O   0  0  0  0  0  0  0  0  0  0  0  0
   59.1550   34.5950   46.2800 O   0  0  0  0  0  0  0  0  0  0  0  0
   58.9530   32.0290   45.6770 N   0  0  0  0  0  0  0  0  0  0  0  0
   58.0590   31.0490   45.1360 C   0  0  0  0  0  0  0  0  0  0  0  0
   57.3390   31.3680   43.9750 C   0  0  0  0  0  0  0  0  0  0  0  0
   56.4990   30.4220   43.3820 C   0  0  0  0  0  0  0  0  0  0  0  0
   56.3790   29.1450   43.9360 C   0  0  0  0  0  0  0  0  0  0  0  0
   57.0920   28.8120   45.0940 C   0  0  0  0  0  0  0  0  0  0  0  0
   57.0140   27.1730   45.7400 S   0  0  0  0  0  0  0  0  0  0  0  0
   55.3730   26.7270   46.0540 N   0  0  0  0  0  0  0  0  0  0  0  0
   57.8020   27.1110   47.0190 O   0  0  0  0  0  0  0  0  0  0  0  0
   57.5930   26.2080   44.7430 O   0  0  0  0  0  0  0  0  0  0  0  0
   57.9250   29.7650   45.6950 C   0  0  0  0  0  0  0  0  0  0  0  0
   63.2740   32.7284   48.7320 H   0  0  0  0  0  0  0  0  0  0  0  0
   63.4495   31.6997   47.2699 H   0  0  0  0  0  0  0  0  0  0  0  0
   64.0911   33.3776   47.2699 H   0  0  0  0  0  0  0  0  0  0  0  0
   62.1106   33.7796   46.1688 H   0  0  0  0  0  0  0  0  0  0  0  0
   61.2815   32.3733   46.9527 H   0  0  0  0  0  0  0  0  0  0  0  0
   62.0395   34.5962   48.7915 H   0  0  0  0  0  0  0  0  0  0  0  0
   60.7718   34.9905   47.5676 H   0  0  0  0  0  0  0  0  0  0  0  0
   61.5052   33.5101   50.7025 H   0  0  0  0  0  0  0  0  0  0  0  0
   59.9511   32.1913   52.1224 H   0  0  0  0  0  0  0  0  0  0  0  0
   56.1738   32.6000   52.3457 H   0  0  0  0  0  0  0  0  0  0  0  0
   55.2947   30.3477   54.7129 H   0  0  0  0  0  0  0  0  0  0  0  0
   54.1896   31.1592   53.5523 H   0  0  0  0  0  0  0  0  0  0  0  0
   54.3348   29.3688   53.5523 H   0  0  0  0  0  0  0  0  0  0  0  0
   57.1716   31.9106   48.8262 H   0  0  0  0  0  0  0  0  0  0  0  0
   57.4363   32.3688   43.5289 H   0  0  0  0  0  0  0  0  0  0  0  0
   55.9309   30.6832   42.4770 H   0  0  0  0  0  0  0  0  0  0  0  0
   55.7233   28.4000   43.4616 H   0  0  0  0  0  0  0  0  0  0  0  0
   54.8830   26.7140   45.1300 H   0  0  0  0  0  0  0  0  0  0  0  0
   58.4780   29.5074   46.6103 H   0  0  0  0  0  0  0  0  0  0  0  0
  1  2  1  0
  2  3  1  0
  3  4  1  0
  4  5  2  0
  5  6  1  0
  6  7  2  0
  7  8  1  0
  8  9  2  0
  9 10  1  0
 10 11  1  0
 10 12  2  0
 12 13  1  0
  7 14  1  0
 14 15  2  0
 15 16  1  0
 16 17  2  0
 16 18  2  0
 16 19  1  0
 19 20  1  0
 20 21  2  0
 21 22  1  0
 22 23  2  0
 23 24  1  0
 24 25  1  0
 25 26  1  0
 25 27  2  0
 25 28  2  0
 24 29  2  0
 15  4  1  0
 29 20  1  0
 13  8  1  0
  1 30  1  0
  1 31  1  0
  1 32  1  0
  2 33  1  0
  2 34  1  0
  3 35  1  0
  3 36  1  0
  5 37  1  0
  6 38  1  0
  9 39  1  0
 11 40  1  0
 11 41  1  0
 11 42  1  0
 14 43  1  0
 21 44  1  0
 22 45  1  0
 23 46  1  0
 26 47  1  0
 29 48  1  0
M  CHG  2  19  -1  26  -1
M  END
>  <UniqueID>  (40) 
40

>  <SMILES>  (40) 
CCCc1ccc(-c2cc(C)no2)cc1S(=O)(=O)[N-]c1cccc(S([NH-])(=O)=O)c1

>  <Energy>  (40) 
78.4347227018047

>  <Genealogy>  (40) 
CCCc1ccc(-c2cc(C)no2)cc1S(=O)(=O)[N-]c1cccc(S([NH-])(=O)=O)c1 (protonated)
CCCc1ccc(-c2cc(C)no2)cc1S(=O)(=O)[N-]c1cccc(S([NH-])(=O)=O)c1 (3D coordinates assigned)
CCCc1ccc(-c2cc(C)no2)cc1S(=O)(=O)[N-]c1cccc(S([NH-])(=O)=O)c1 (optimized conformer: 78.4347227018047 kcal/mol)

>  <smiles>  (40) 
CCCc1ccc(-c2cc(C)no2)cc1S(=O)(=O)Nc1cccc(S(N)(=O)=O)c1

>  <score_type>  (40) 
oracle

>  <origin>  (40) 
adg

>  <m_score__min__energy>  (40) 
-13.69

>  <m_primary>  (40) 
energy

$$$$
40:0
     RDKit          3D

 45 48  0  0  0  0  0  0  0  0999 V2000
   58.6890   26.6300   48.0200 O   0  0  0  0  0  0  0  0  0  0  0  0
   58.4880   27.7060   47.3930 C   0  0  0  0  0  0  0  0  0  0  0  0
   57.5030   27.7320   46.2670 C   0  0  0  0  0  0  0  0  0  0  0  0
   57.1670   26.3600   45.8740 N   0  0  0  0  0  0  0  0  0  0  0  0
   55.8900   25.8970   45.7370 C   0  0  0  0  0  0  0  0  0  0  0  0
   54.7770   26.6890   46.0000 O   0  0  0  0  0  0  0  0  0  0  0  0
   55.7780   24.5800   45.3050 C   0  0  0  0  0  0  0  0  0  0  0  0
   57.3340   23.9760   45.0730 S   0  0  0  0  0  0  0  0  0  0  0  0
   58.0720   25.4140   45.5310 C   0  0  0  0  0  0  0  0  0  0  0  0
   59.3190   25.5950   45.5460 O   0  0  0  0  0  0  0  0  0  0  0  0
   59.1730   28.9070   47.7730 N   0  0  0  0  0  0  0  0  0  0  0  0
   59.7570   29.0990   49.0710 C   0  0  0  0  0  0  0  0  0  0  0  0
   60.6410   28.1300   49.5690 C   0  0  0  0  0  0  0  0  0  0  0  0
   61.2440   28.2980   50.8160 C   0  0  0  0  0  0  0  0  0  0  0  0
   60.9810   29.4410   51.5720 C   0  0  0  0  0  0  0  0  0  0  0  0
   60.1240   30.4270   51.0760 C   0  0  0  0  0  0  0  0  0  0  0  0
   59.5160   30.2750   49.8140 C   0  0  0  0  0  0  0  0  0  0  0  0
   58.6930   31.2710   49.2590 O   0  0  0  0  0  0  0  0  0  0  0  0
   59.1410   32.5100   48.7090 C   0  0  0  0  0  0  0  0  0  0  0  0
   58.8110   32.5920   47.2480 C   0  0  0  0  0  0  0  0  0  0  0  0
   59.0650   33.7570   46.5260 C   0  0  0  0  0  0  0  0  0  0  0  0
   58.7510   33.7940   45.1670 C   0  0  0  0  0  0  0  0  0  0  0  0
   58.9790   34.8550   44.5190 O   0  0  0  0  0  0  0  0  0  0  0  0
   58.2040   32.6940   44.5520 N   0  0  0  0  0  0  0  0  0  0  0  0
   57.8900   32.7180   43.2170 C   0  0  0  0  0  0  0  0  0  0  0  0
   57.3350   31.5990   42.5940 C   0  0  0  0  0  0  0  0  0  0  0  0
   57.0980   30.4450   43.3360 C   0  0  0  0  0  0  0  0  0  0  0  0
   57.4170   30.4180   44.6910 C   0  0  0  0  0  0  0  0  0  0  0  0
   57.9710   31.5520   45.2920 C   0  0  0  0  0  0  0  0  0  0  0  0
   58.2790   31.5180   46.6150 N   0  0  0  0  0  0  0  0  0  0  0  0
   56.5904   28.2536   46.5912 H   0  0  0  0  0  0  0  0  0  0  0  0
   57.9442   28.2596   45.4085 H   0  0  0  0  0  0  0  0  0  0  0  0
   54.8394   24.0296   45.1433 H   0  0  0  0  0  0  0  0  0  0  0  0
   59.3090   29.6490   47.0510 H   0  0  0  0  0  0  0  0  0  0  0  0
   60.8601   27.2321   48.9725 H   0  0  0  0  0  0  0  0  0  0  0  0
   61.9276   27.5284   51.2037 H   0  0  0  0  0  0  0  0  0  0  0  0
   61.4489   29.5660   52.5596 H   0  0  0  0  0  0  0  0  0  0  0  0
   59.9227   31.3276   51.6746 H   0  0  0  0  0  0  0  0  0  0  0  0
   58.6478   33.3390   49.2376 H   0  0  0  0  0  0  0  0  0  0  0  0
   60.2324   32.5761   48.8292 H   0  0  0  0  0  0  0  0  0  0  0  0
   59.5067   34.6347   47.0206 H   0  0  0  0  0  0  0  0  0  0  0  0
   58.0777   33.6295   42.6306 H   0  0  0  0  0  0  0  0  0  0  0  0
   57.0863   31.6287   41.5229 H   0  0  0  0  0  0  0  0  0  0  0  0
   56.6606   29.5584   42.8538 H   0  0  0  0  0  0  0  0  0  0  0  0
   57.2343   29.5102   45.2847 H   0  0  0  0  0  0  0  0  0  0  0  0
  1  2  2  0
  2  3  1  0
  3  4  1  0
  4  5  1  0
  5  6  1  0
  5  7  2  0
  7  8  1  0
  8  9  1  0
  9 10  2  0
  2 11  1  0
 11 12  1  0
 12 13  2  0
 13 14  1  0
 14 15  2  0
 15 16  1  0
 16 17  2  0
 17 18  1  0
 18 19  1  0
 19 20  1  0
 20 21  2  0
 21 22  1  0
 22 23  2  0
 22 24  1  0
 24 25  1  0
 25 26  2  0
 26 27  1  0
 27 28  2  0
 28 29  1  0
 29 30  2  0
  9  4  1  0
 17 12  1  0
 30 20  1  0
 29 24  1  0
  3 31  1  0
  3 32  1  0
  7 33  1  0
 11 34  1  0
 13 35  1  0
 14 36  1  0
 15 37  1  0
 16 38  1  0
 19 39  1  0
 19 40  1  0
 21 41  1  0
 25 42  1  0
 26 43  1  0
 27 44  1  0
 28 45  1  0
M  CHG  1   6  -1
M  END
>  <UniqueID>  (41) 
41

>  <SMILES>  (41) 
O=C(Cn1c([O-])csc1=O)Nc1ccccc1OCc1cc(=O)n2ccccc2n1

>  <Energy>  (41) 
86.57544503741244

>  <Genealogy>  (41) 
O=C(Cn1c([O-])csc1=O)Nc1ccccc1OCc1cc(=O)n2ccccc2n1 (protonated)
O=C(Cn1c([O-])csc1=O)Nc1ccccc1OCc1cc(=O)n2ccccc2n1 (3D coordinates assigned)
O=C(Cn1c([O-])csc1=O)Nc1ccccc1OCc1cc(=O)n2ccccc2n1 (optimized conformer: 86.57544503741244 kcal/mol)

>  <smiles>  (41) 
O=C(Cn1c(O)csc1=O)Nc1ccccc1OCc1cc(=O)n2ccccc2n1

>  <score_type>  (41) 
oracle

>  <origin>  (41) 
adg

>  <m_score__min__energy>  (41) 
-12.380000000000001

>  <m_primary>  (41) 
energy

$$$$
41:0
     RDKit          3D

 81 84  0  0  0  0  0  0  0  0999 V2000
   61.3630   32.9890   53.2040 C   0  0  0  0  0  0  0  0  0  0  0  0
   60.0420   32.2750   53.3770 C   0  0  0  0  0  0  0  0  0  0  0  0
   59.0600   32.8970   54.1660 C   0  0  0  0  0  0  0  0  0  0  0  0
   57.8210   32.2960   54.3420 C   0  0  0  0  0  0  0  0  0  0  0  0
   57.5520   31.0730   53.7280 C   0  0  0  0  0  0  0  0  0  0  0  0
   56.2850   30.4300   53.8990 N   0  0  0  0  0  0  0  0  0  0  0  0
   55.2330   30.1030   52.5580 S   0  0  0  0  0  0  0  0  0  0  0  0
   55.1720   28.6200   52.3340 O   0  0  0  0  0  0  0  0  0  0  0  0
   55.8130   30.7450   51.3260 O   0  0  0  0  0  0  0  0  0  0  0  0
   53.6020   30.7100   52.8650 C   0  0  0  0  0  0  0  0  0  0  0  0
   52.9510   31.4620   51.8730 C   0  0  0  0  0  0  0  0  0  0  0  0
   51.6640   31.9690   52.0960 C   0  0  0  0  0  0  0  0  0  0  0  0
   51.0250   32.7100   51.1080 O   0  0  0  0  0  0  0  0  0  0  0  0
   51.0230   31.7360   53.3160 C   0  0  0  0  0  0  0  0  0  0  0  0
   51.6620   30.9900   54.3120 C   0  0  0  0  0  0  0  0  0  0  0  0
   52.9480   30.4760   54.0950 C   0  0  0  0  0  0  0  0  0  0  0  0
   53.7610   29.4690   55.5110 Br  0  0  0  0  0  0  0  0  0  0  0  0
   58.5420   30.4640   52.9450 C   0  0  0  0  0  0  0  0  0  0  0  0
   58.2850   29.3550   52.3920 O   0  0  0  0  0  0  0  0  0  0  0  0
   59.7690   31.0650   52.7630 N   0  0  0  0  0  0  0  0  0  0  0  0
   60.7570   30.3910   51.8940 C   0  0  0  0  0  0  0  0  0  0  0  0
   60.4240   30.5840   50.4420 C   0  0  0  0  0  0  0  0  0  0  0  0
   59.5050   31.3870   50.1240 O   0  0  0  0  0  0  0  0  0  0  0  0
   61.1610   29.8870   49.4270 N   0  0  0  0  0  0  0  0  0  0  0  0
   61.0250   30.1970   48.0060 C   0  0  0  0  0  0  0  0  0  0  0  0
   62.1050   31.1840   47.5620 C   0  0  0  0  0  0  0  0  0  0  0  0
   62.8320   31.6900   48.7170 N   0  0  0  0  0  0  0  0  0  0  0  0
   62.6390   32.9770   49.3190 C   0  0  0  0  0  0  0  0  0  0  0  0
   62.7600   33.0840   50.5700 O   0  0  0  0  0  0  0  0  0  0  0  0
   62.2570   34.1910   48.5200 C   0  0  0  0  0  0  0  0  0  0  0  0
   60.9860   33.9480   47.7430 C   0  0  0  0  0  0  0  0  0  0  0  0
   61.0080   33.9000   46.3400 C   0  0  0  0  0  0  0  0  0  0  0  0
   59.8310   33.6680   45.6210 C   0  0  0  0  0  0  0  0  0  0  0  0
   58.6100   33.4900   46.2910 C   0  0  0  0  0  0  0  0  0  0  0  0
   57.3810   33.1700   45.5380 C   0  0  0  0  0  0  0  0  0  0  0  0
   56.5920   34.1020   45.2330 O   0  0  0  0  0  0  0  0  0  0  0  0
   57.0340   31.8260   45.1810 N   0  0  0  0  0  0  0  0  0  0  0  0
   57.0120   31.2880   43.8220 C   0  0  0  0  0  0  0  0  0  0  0  0
   56.3260   29.9140   43.7820 C   0  0  0  0  0  0  0  0  0  0  0  0
   57.3350   28.7720   43.5730 C   0  0  0  0  0  0  0  0  0  0  0  0
   57.8330   28.3000   44.8620 N   0  0  0  0  0  0  0  0  0  0  0  0
   59.1340   28.6440   45.4120 C   0  0  0  0  0  0  0  0  0  0  0  0
   59.2610   27.8490   46.7240 C   0  0  0  0  0  0  0  0  0  0  0  0
   57.8620   27.3040   47.0530 C   0  0  0  0  0  0  0  0  0  0  0  0
   57.0920   27.5700   45.8200 C   0  0  0  0  0  0  0  0  0  0  0  0
   55.8930   27.2180   45.6500 O   0  0  0  0  0  0  0  0  0  0  0  0
   58.5900   33.5160   47.6950 C   0  0  0  0  0  0  0  0  0  0  0  0
   59.7710   33.7450   48.4160 C   0  0  0  0  0  0  0  0  0  0  0  0
   61.7879   33.2186   54.1923 H   0  0  0  0  0  0  0  0  0  0  0  0
   62.0583   32.3439   52.6469 H   0  0  0  0  0  0  0  0  0  0  0  0
   61.2042   33.9241   52.6469 H   0  0  0  0  0  0  0  0  0  0  0  0
   59.2736   33.8635   54.6459 H   0  0  0  0  0  0  0  0  0  0  0  0
   57.0545   32.7824   54.9632 H   0  0  0  0  0  0  0  0  0  0  0  0
   53.4552   31.6542   50.9144 H   0  0  0  0  0  0  0  0  0  0  0  0
   50.0152   32.1396   53.4931 H   0  0  0  0  0  0  0  0  0  0  0  0
   51.1531   30.8059   55.2697 H   0  0  0  0  0  0  0  0  0  0  0  0
   61.7544   30.8104   52.0922 H   0  0  0  0  0  0  0  0  0  0  0  0
   60.7383   29.3137   52.1156 H   0  0  0  0  0  0  0  0  0  0  0  0
   61.9010   29.2100   49.7100 H   0  0  0  0  0  0  0  0  0  0  0  0
   61.1222   29.2692   47.4232 H   0  0  0  0  0  0  0  0  0  0  0  0
   60.0383   30.6528   47.8365 H   0  0  0  0  0  0  0  0  0  0  0  0
   62.8071   30.6739   46.8861 H   0  0  0  0  0  0  0  0  0  0  0  0
   61.6272   32.0275   47.0421 H   0  0  0  0  0  0  0  0  0  0  0  0
   62.1041   35.0387   49.2042 H   0  0  0  0  0  0  0  0  0  0  0  0
   63.0664   34.4118   47.8086 H   0  0  0  0  0  0  0  0  0  0  0  0
   61.9568   34.0458   45.8029 H   0  0  0  0  0  0  0  0  0  0  0  0
   59.8621   33.6247   44.5223 H   0  0  0  0  0  0  0  0  0  0  0  0
   56.4630   31.9828   43.1694 H   0  0  0  0  0  0  0  0  0  0  0  0
   58.0495   31.1706   43.4759 H   0  0  0  0  0  0  0  0  0  0  0  0
   55.7989   29.7524   44.7339 H   0  0  0  0  0  0  0  0  0  0  0  0
   55.6260   29.9084   42.9335 H   0  0  0  0  0  0  0  0  0  0  0  0
   56.8408   27.9415   43.0477 H   0  0  0  0  0  0  0  0  0  0  0  0
   58.1801   29.1433   42.9747 H   0  0  0  0  0  0  0  0  0  0  0  0
   59.9330   28.3577   44.7123 H   0  0  0  0  0  0  0  0  0  0  0  0
   59.2259   29.7264   45.5851 H   0  0  0  0  0  0  0  0  0  0  0  0
   59.9701   27.0180   46.5956 H   0  0  0  0  0  0  0  0  0  0  0  0
   59.6358   28.4882   47.5370 H   0  0  0  0  0  0  0  0  0  0  0  0
   57.9002   26.2260   47.2683 H   0  0  0  0  0  0  0  0  0  0  0  0
   57.4185   27.7701   47.9452 H   0  0  0  0  0  0  0  0  0  0  0  0
   57.6434   33.3560   48.2319 H   0  0  0  0  0  0  0  0  0  0  0  0
   59.7450   33.7656   49.5155 H   0  0  0  0  0  0  0  0  0  0  0  0
  1  2  1  0
  2  3  2  0
  3  4  1  0
  4  5  2  0
  5  6  1  0
  6  7  1  0
  7  8  2  0
  7  9  2  0
  7 10  1  0
 10 11  2  0
 11 12  1  0
 12 13  1  0
 12 14  2  0
 14 15  1  0
 15 16  2  0
 16 17  1  0
  5 18  1  0
 18 19  2  0
 18 20  1  0
 20 21  1  0
 21 22  1  0
 22 23  2  0
 22 24  1  0
 24 25  1  0
 25 26  1  0
 26 27  1  0
 27 28  1  0
 28 29  2  0
 28 30  1  0
 30 31  1  0
 31 32  2  0
 32 33  1  0
 33 34  2  0
 34 35  1  0
 35 36  2  0
 35 37  1  0
 37 38  1  0
 38 39  1  0
 39 40  1  0
 40 41  1  0
 41 42  1  0
 42 43  1  0
 43 44  1  0
 44 45  1  0
 45 46  2  0
 34 47  1  0
 47 48  2  0
 20  2  1  0
 48 31  1  0
 16 10  1  0
 45 41  1  0
  1 49  1  0
  1 50  1  0
  1 51  1  0
  3 52  1  0
  4 53  1  0
 11 54  1  0
 14 55  1  0
 15 56  1  0
 21 57  1  0
 21 58  1  0
 24 59  1  0
 25 60  1  0
 25 61  1  0
 26 62  1  0
 26 63  1  0
 30 64  1  0
 30 65  1  0
 32 66  1  0
 33 67  1  0
 38 68  1  0
 38 69  1  0
 39 70  1  0
 39 71  1  0
 40 72  1  0
 40 73  1  0
 42 74  1  0
 42 75  1  0
 43 76  1  0
 43 77  1  0
 44 78  1  0
 44 79  1  0
 47 80  1  0
 48 81  1  0
M  CHG  4   6  -1  13  -1  27  -1  37  -1
M  END
>  <UniqueID>  (42) 
42

>  <SMILES>  (42) 
Cc1ccc([N-]S(=O)(=O)c2cc([O-])ccc2Br)c(=O)n1CC(=O)NCC[N-]C(=O)Cc1ccc(C(=O)[N-]CCCN2CCCC2=O)cc1

>  <Energy>  (42) 
96.7449287299054

>  <Genealogy>  (42) 
Cc1ccc([N-]S(=O)(=O)c2cc([O-])ccc2Br)c(=O)n1CC(=O)NCC[N-]C(=O)Cc1ccc(C(=O)[N-]CCCN2CCCC2=O)cc1 (protonated)
Cc1ccc([N-]S(=O)(=O)c2cc([O-])ccc2Br)c(=O)n1CC(=O)NCC[N-]C(=O)Cc1ccc(C(=O)[N-]CCCN2CCCC2=O)cc1 (3D coordinates assigned)
Cc1ccc([N-]S(=O)(=O)c2cc([O-])ccc2Br)c(=O)n1CC(=O)NCC[N-]C(=O)Cc1ccc(C(=O)[N-]CCCN2CCCC2=O)cc1 (nonaromatic ring conformer: 96.7449287299054 kcal/mol)

>  <smiles>  (42) 
Cc1ccc(NS(=O)(=O)c2cc(O)ccc2Br)c(=O)n1CC(=O)NCCNC(=O)Cc1ccc(C(=O)NCCCN2CCCC2=O)cc1

>  <score_type>  (42) 
oracle

>  <origin>  (42) 
adg

>  <m_score__min__energy>  (42) 
-18.300000000000001

>  <m_primary>  (42) 
energy

$$$$
42:0
     RDKit          3D

 53 56  0  0  0  0  0  0  0  0999 V2000
   60.6610   30.5740   48.4680 C   0  0  0  0  0  0  0  0  0  0  0  0
   61.4990   31.7530   48.0490 C   0  0  0  0  0  0  0  0  0  0  0  0
   62.7650   31.5050   47.4890 C   0  0  0  0  0  0  0  0  0  0  0  0
   63.6030   32.5590   47.1240 C   0  0  0  0  0  0  0  0  0  0  0  0
   63.1920   33.8750   47.3160 C   0  0  0  0  0  0  0  0  0  0  0  0
   61.9310   34.1440   47.8500 C   0  0  0  0  0  0  0  0  0  0  0  0
   61.0590   33.0970   48.2080 C   0  0  0  0  0  0  0  0  0  0  0  0
   59.7120   33.4550   48.7190 C   0  0  0  0  0  0  0  0  0  0  0  0
   59.6080   34.1560   49.7630 O   0  0  0  0  0  0  0  0  0  0  0  0
   58.5300   33.0280   48.0320 N   0  0  0  0  0  0  0  0  0  0  0  0
   58.3920   32.9390   46.6080 C   0  0  0  0  0  0  0  0  0  0  0  0
   58.5410   34.1060   45.8470 C   0  0  0  0  0  0  0  0  0  0  0  0
   58.3990   34.0690   44.4590 C   0  0  0  0  0  0  0  0  0  0  0  0
   58.0970   32.8650   43.8190 C   0  0  0  0  0  0  0  0  0  0  0  0
   57.9100   31.7010   44.5690 C   0  0  0  0  0  0  0  0  0  0  0  0
   58.0300   31.7310   45.9710 C   0  0  0  0  0  0  0  0  0  0  0  0
   57.7840   30.5560   46.7580 N   0  0  0  0  0  0  0  0  0  0  0  0
   58.0440   29.2040   46.3650 C   0  0  0  0  0  0  0  0  0  0  0  0
   59.1020   28.6220   46.7290 O   0  0  0  0  0  0  0  0  0  0  0  0
   57.1050   28.5300   45.4120 C   0  0  0  0  0  0  0  0  0  0  0  0
   57.1430   27.0750   45.5830 N   0  0  0  0  0  0  0  0  0  0  0  0
   56.0880   26.2680   45.8380 C   0  0  0  0  0  0  0  0  0  0  0  0
   54.7820   26.7140   46.0020 O   0  0  0  0  0  0  0  0  0  0  0  0
   56.4920   24.9500   45.8920 C   0  0  0  0  0  0  0  0  0  0  0  0
   57.8400   24.9410   45.6060 C   0  0  0  0  0  0  0  0  0  0  0  0
   58.2170   26.2600   45.4420 C   0  0  0  0  0  0  0  0  0  0  0  0
   59.5110   26.6900   45.1630 O   0  0  0  0  0  0  0  0  0  0  0  0
   58.6850   23.7050   45.5950 C   0  0  0  0  0  0  0  0  0  0  0  0
   57.7990   22.4540   45.4240 C   0  0  0  0  0  0  0  0  0  0  0  0
   56.5620   22.4970   46.3480 C   0  0  0  0  0  0  0  0  0  0  0  0
   55.6620   23.7120   46.0470 C   0  0  0  0  0  0  0  0  0  0  0  0
   60.6241   30.5221   49.5662 H   0  0  0  0  0  0  0  0  0  0  0  0
   59.6413   30.6897   48.0719 H   0  0  0  0  0  0  0  0  0  0  0  0
   61.1054   29.6490   48.0719 H   0  0  0  0  0  0  0  0  0  0  0  0
   63.0984   30.4678   47.3370 H   0  0  0  0  0  0  0  0  0  0  0  0
   64.5893   32.3499   46.6841 H   0  0  0  0  0  0  0  0  0  0  0  0
   63.8623   34.7044   47.0463 H   0  0  0  0  0  0  0  0  0  0  0  0
   61.6137   35.1875   47.9933 H   0  0  0  0  0  0  0  0  0  0  0  0
   58.7716   35.0582   46.3471 H   0  0  0  0  0  0  0  0  0  0  0  0
   58.5250   34.9887   43.8688 H   0  0  0  0  0  0  0  0  0  0  0  0
   58.0062   32.8330   42.7232 H   0  0  0  0  0  0  0  0  0  0  0  0
   57.6677   30.7560   44.0609 H   0  0  0  0  0  0  0  0  0  0  0  0
   56.0821   28.8883   45.6000 H   0  0  0  0  0  0  0  0  0  0  0  0
   57.4134   28.7717   44.3841 H   0  0  0  0  0  0  0  0  0  0  0  0
   59.8930   27.5270   45.5860 H   0  0  0  0  0  0  0  0  0  0  0  0
   59.3993   23.7609   44.7604 H   0  0  0  0  0  0  0  0  0  0  0  0
   59.2268   23.6327   46.5496 H   0  0  0  0  0  0  0  0  0  0  0  0
   57.4610   22.3972   44.3788 H   0  0  0  0  0  0  0  0  0  0  0  0
   58.3974   21.5715   45.6943 H   0  0  0  0  0  0  0  0  0  0  0  0
   55.9774   21.5766   46.2027 H   0  0  0  0  0  0  0  0  0  0  0  0
   56.9147   22.5828   47.3864 H   0  0  0  0  0  0  0  0  0  0  0  0
   55.1057   23.5294   45.1157 H   0  0  0  0  0  0  0  0  0  0  0  0
   54.9617   23.8538   46.8834 H   0  0  0  0  0  0  0  0  0  0  0  0
  1  2  1  0
  2  3  2  0
  3  4  1  0
  4  5  2  0
  5  6  1  0
  6  7  2  0
  7  8  1  0
  8  9  2  0
  8 10  1  0
 10 11  1  0
 11 12  2  0
 12 13  1  0
 13 14  2  0
 14 15  1  0
 15 16  2  0
 16 17  1  0
 17 18  1  0
 18 19  2  0
 18 20  1  0
 20 21  1  0
 21 22  1  0
 22 23  1  0
 22 24  2  0
 24 25  1  0
 25 26  2  0
 26 27  1  0
 25 28  1  0
 28 29  1  0
 29 30  1  0
 30 31  1  0
  7  2  1  0
 16 11  1  0
 26 21  1  0
 31 24  1  0
  1 32  1  0
  1 33  1  0
  1 34  1  0
  3 35  1  0
  4 36  1  0
  5 37  1  0
  6 38  1  0
 12 39  1  0
 13 40  1  0
 14 41  1  0
 15 42  1  0
 20 43  1  0
 20 44  1  0
 27 45  1  0
 28 46  1  0
 28 47  1  0
 29 48  1  0
 29 49  1  0
 30 50  1  0
 30 51  1  0
 31 52  1  0
 31 53  1  0
M  CHG  3  10  -1  17  -1  23  -1
M  END
>  <UniqueID>  (43) 
43

>  <SMILES>  (43) 
Cc1ccccc1C(=O)[N-]c1ccccc1[N-]C(=O)Cn1c([O-])c2c(c1O)CCCC2

>  <Energy>  (43) 
97.30897068368871

>  <Genealogy>  (43) 
Cc1ccccc1C(=O)[N-]c1ccccc1[N-]C(=O)Cn1c([O-])c2c(c1O)CCCC2 (protonated)
Cc1ccccc1C(=O)[N-]c1ccccc1[N-]C(=O)Cn1c([O-])c2c(c1O)CCCC2 (3D coordinates assigned)
Cc1ccccc1C(=O)[N-]c1ccccc1[N-]C(=O)Cn1c([O-])c2c(c1O)CCCC2 (nonaromatic ring conformer: 97.30897068368871 kcal/mol)

>  <smiles>  (43) 
Cc1ccccc1C(=O)Nc1ccccc1NC(=O)Cn1c(O)c2c(c1O)CCCC2

>  <score_type>  (43) 
oracle

>  <origin>  (43) 
adg

>  <m_score__min__energy>  (43) 
-14.43

>  <m_primary>  (43) 
energy

$$$$
43:0
     RDKit          3D

 39 41  0  0  0  0  0  0  0  0999 V2000
   55.1540   27.6250   45.2430 H   0  0  0  0  0  0  0  0  0  0  0  0
   55.3830   26.8190   45.8130 O   0  0  0  0  0  0  0  0  0  0  0  0
   56.6970   26.5430   46.1910 C   0  0  0  0  0  0  0  0  0  0  0  0
   56.9650   25.6070   47.1970 C   0  0  0  0  0  0  0  0  0  0  0  0
   56.1363   25.0837   47.6965 H   0  0  0  0  0  0  0  0  0  0  0  0
   58.2840   25.3380   47.5660 C   0  0  0  0  0  0  0  0  0  0  0  0
   58.5022   24.6038   48.3555 H   0  0  0  0  0  0  0  0  0  0  0  0
   59.3220   26.0110   46.9220 C   0  0  0  0  0  0  0  0  0  0  0  0
   60.3659   25.8079   47.2032 H   0  0  0  0  0  0  0  0  0  0  0  0
   59.0460   26.9170   45.9480 N   0  0  0  0  0  0  0  0  0  0  0  0
   57.7670   27.2010   45.5640 C   0  0  0  0  0  0  0  0  0  0  0  0
   57.5210   28.0740   44.6290 N   0  0  0  0  0  0  0  0  0  0  0  0
   56.7030   29.2540   44.7290 C   0  0  0  0  0  0  0  0  0  0  0  0
   55.5400   29.1810   45.2100 O   0  0  0  0  0  0  0  0  0  0  0  0
   57.2430   30.5630   44.2670 C   0  0  0  0  0  0  0  0  0  0  0  0
   57.1260   30.9140   42.9060 C   0  0  0  0  0  0  0  0  0  0  0  0
   56.6339   30.2218   42.2069 H   0  0  0  0  0  0  0  0  0  0  0  0
   57.6270   32.1290   42.4350 C   0  0  0  0  0  0  0  0  0  0  0  0
   57.4730   32.5420   40.7370 Cl  0  0  0  0  0  0  0  0  0  0  0  0
   58.2510   33.0150   43.3120 C   0  0  0  0  0  0  0  0  0  0  0  0
   58.6459   33.9713   42.9385 H   0  0  0  0  0  0  0  0  0  0  0  0
   58.3750   32.6900   44.6620 C   0  0  0  0  0  0  0  0  0  0  0  0
   58.8667   33.3952   45.3482 H   0  0  0  0  0  0  0  0  0  0  0  0
   57.8770   31.4670   45.1580 C   0  0  0  0  0  0  0  0  0  0  0  0
   57.9910   31.1300   46.5190 O   0  0  0  0  0  0  0  0  0  0  0  0
   59.1300   30.5290   47.1380 C   0  0  0  0  0  0  0  0  0  0  0  0
   58.8589   30.2032   48.1531 H   0  0  0  0  0  0  0  0  0  0  0  0
   59.4476   29.6680   46.5316 H   0  0  0  0  0  0  0  0  0  0  0  0
   60.2720   31.5080   47.2220 C   0  0  0  0  0  0  0  0  0  0  0  0
   60.0140   32.8760   47.4170 C   0  0  0  0  0  0  0  0  0  0  0  0
   58.9771   33.2295   47.5164 H   0  0  0  0  0  0  0  0  0  0  0  0
   61.0700   33.7880   47.4850 C   0  0  0  0  0  0  0  0  0  0  0  0
   60.8628   34.8566   47.6436 H   0  0  0  0  0  0  0  0  0  0  0  0
   62.3890   33.3460   47.3520 C   0  0  0  0  0  0  0  0  0  0  0  0
   63.4130   34.2320   47.4180 F   0  0  0  0  0  0  0  0  0  0  0  0
   62.6520   31.9890   47.1460 C   0  0  0  0  0  0  0  0  0  0  0  0
   63.6901   31.6416   47.0379 H   0  0  0  0  0  0  0  0  0  0  0  0
   61.5990   31.0720   47.0770 C   0  0  0  0  0  0  0  0  0  0  0  0
   61.8106   30.0057   46.9086 H   0  0  0  0  0  0  0  0  0  0  0  0
  1  2  1  0
  2  3  1  0
  3  4  2  0
  4  5  1  0
  4  6  1  0
  6  7  1  0
  6  8  2  0
  8  9  1  0
  8 10  1  0
 10 11  1  0
 11 12  2  0
 12 13  1  0
 13 14  2  0
 13 15  1  0
 15 16  2  0
 16 17  1  0
 16 18  1  0
 18 19  1  0
 18 20  2  0
 20 21  1  0
 20 22  1  0
 22 23  1  0
 22 24  2  0
 24 25  1  0
 25 26  1  0
 26 27  1  0
 26 28  1  0
 26 29  1  0
 29 30  2  0
 30 31  1  0
 30 32  1  0
 32 33  1  0
 32 34  2  0
 34 35  1  0
 34 36  1  0
 36 37  1  0
 36 38  2  0
 38 39  1  0
 11  3  1  0
 24 15  1  0
 38 29  1  0
M  CHG  1  10  -1
M  END
>  <UniqueID>  (44) 
44

>  <SMILES>  (44) 
O=C(/N=c1\[n-]cccc1O)c1cc(Cl)ccc1OCc1ccc(F)cc1

>  <Energy>  (44) 
47.71519247182868

>  <Genealogy>  (44) 
O=C(N=c1[n-]cccc1O)c1cc(Cl)ccc1OCc1ccc(F)cc1 (protonated)
O=C(/N=c1\[n-]cccc1O)c1cc(Cl)ccc1OCc1ccc(F)cc1 (cis-trans isomerization)
O=C(/N=c1\[n-]cccc1O)c1cc(Cl)ccc1OCc1ccc(F)cc1 (3D coordinates assigned)
O=C(/N=c1\[n-]cccc1O)c1cc(Cl)ccc1OCc1ccc(F)cc1 (optimized conformer: 47.71519247182868 kcal/mol)

>  <smiles>  (44) 
O=C(N=c1[nH]cccc1O)c1cc(Cl)ccc1OCc1ccc(F)cc1

>  <score_type>  (44) 
oracle

>  <origin>  (44) 
adg

>  <m_score__min__energy>  (44) 
-10.9

>  <m_primary>  (44) 
energy

$$$$
44:0
     RDKit          3D

 54 58  0  0  0  0  0  0  0  0999 V2000
   55.3680   25.3650   46.3560 O   0  0  0  0  0  0  0  0  0  0  0  0
   56.2660   26.1470   45.9580 C   0  0  0  0  0  0  0  0  0  0  0  0
   57.6900   25.6710   45.9040 C   0  0  0  0  0  0  0  0  0  0  0  0
   57.7410   24.2440   45.9380 O   0  0  0  0  0  0  0  0  0  0  0  0
   57.4120   23.4010   44.8660 C   0  0  0  0  0  0  0  0  0  0  0  0
   58.1280   22.2200   44.5810 C   0  0  0  0  0  0  0  0  0  0  0  0
   57.7620   21.4260   43.4910 C   0  0  0  0  0  0  0  0  0  0  0  0
   56.6790   21.7930   42.6880 C   0  0  0  0  0  0  0  0  0  0  0  0
   55.9680   22.9640   42.9620 C   0  0  0  0  0  0  0  0  0  0  0  0
   56.3350   23.7660   44.0470 C   0  0  0  0  0  0  0  0  0  0  0  0
   55.9180   27.4920   45.6090 N   0  0  0  0  0  0  0  0  0  0  0  0
   56.8010   28.6200   45.6620 C   0  0  0  0  0  0  0  0  0  0  0  0
   57.8550   28.6180   46.6020 C   0  0  0  0  0  0  0  0  0  0  0  0
   58.7100   29.7280   46.7270 C   0  0  0  0  0  0  0  0  0  0  0  0
   58.4860   30.8410   45.9190 C   0  0  0  0  0  0  0  0  0  0  0  0
   59.2140   31.9850   45.9700 N   0  0  0  0  0  0  0  0  0  0  0  0
   58.7390   32.8940   45.0850 C   0  0  0  0  0  0  0  0  0  0  0  0
   59.4420   34.5270   44.8730 S   0  0  0  0  0  0  0  0  0  0  0  0
   60.6660   34.3550   46.2170 C   0  0  0  0  0  0  0  0  0  0  0  0
   60.0320   34.4770   47.5770 C   0  0  0  0  0  0  0  0  0  0  0  0
   58.9070   35.0490   47.6820 O   0  0  0  0  0  0  0  0  0  0  0  0
   60.6580   33.9080   48.7470 N   0  0  0  0  0  0  0  0  0  0  0  0
   62.1200   34.0040   48.9110 C   0  0  0  0  0  0  0  0  0  0  0  0
   62.5100   34.1460   50.3510 C   0  0  0  0  0  0  0  0  0  0  0  0
   63.6280   34.6540   50.6550 O   0  0  0  0  0  0  0  0  0  0  0  0
   61.6660   33.6270   51.3790 N   0  0  0  0  0  0  0  0  0  0  0  0
   60.3860   33.0730   51.0530 C   0  0  0  0  0  0  0  0  0  0  0  0
   59.6330   32.4110   52.0370 C   0  0  0  0  0  0  0  0  0  0  0  0
   58.3860   31.8660   51.7190 C   0  0  0  0  0  0  0  0  0  0  0  0
   57.8840   31.9700   50.4170 C   0  0  0  0  0  0  0  0  0  0  0  0
   58.6280   32.6270   49.4300 C   0  0  0  0  0  0  0  0  0  0  0  0
   59.8780   33.2060   49.7430 C   0  0  0  0  0  0  0  0  0  0  0  0
   57.3970   32.3240   44.2230 S   0  0  0  0  0  0  0  0  0  0  0  0
   57.4430   30.8440   45.0070 C   0  0  0  0  0  0  0  0  0  0  0  0
   56.5850   29.7590   44.8570 C   0  0  0  0  0  0  0  0  0  0  0  0
   58.1562   26.0280   44.9738 H   0  0  0  0  0  0  0  0  0  0  0  0
   58.2315   26.0677   46.7755 H   0  0  0  0  0  0  0  0  0  0  0  0
   58.9751   21.9237   45.2171 H   0  0  0  0  0  0  0  0  0  0  0  0
   58.3276   20.5101   43.2646 H   0  0  0  0  0  0  0  0  0  0  0  0
   56.3857   21.1587   41.8385 H   0  0  0  0  0  0  0  0  0  0  0  0
   55.1200   23.2549   42.3246 H   0  0  0  0  0  0  0  0  0  0  0  0
   55.7751   24.6888   44.2589 H   0  0  0  0  0  0  0  0  0  0  0  0
   58.0092   27.7381   47.2439 H   0  0  0  0  0  0  0  0  0  0  0  0
   59.5398   29.7176   47.4490 H   0  0  0  0  0  0  0  0  0  0  0  0
   61.1458   33.3684   46.1362 H   0  0  0  0  0  0  0  0  0  0  0  0
   61.4021   35.1656   46.1116 H   0  0  0  0  0  0  0  0  0  0  0  0
   62.5845   33.0936   48.5043 H   0  0  0  0  0  0  0  0  0  0  0  0
   62.4666   34.8986   48.3729 H   0  0  0  0  0  0  0  0  0  0  0  0
   62.0050   33.6100   52.3670 H   0  0  0  0  0  0  0  0  0  0  0  0
   60.0259   32.3214   53.0605 H   0  0  0  0  0  0  0  0  0  0  0  0
   57.7975   31.3538   52.4944 H   0  0  0  0  0  0  0  0  0  0  0  0
   56.9044   31.5353   50.1690 H   0  0  0  0  0  0  0  0  0  0  0  0
   58.2368   32.6929   48.4040 H   0  0  0  0  0  0  0  0  0  0  0  0
   55.7599   29.7882   44.1301 H   0  0  0  0  0  0  0  0  0  0  0  0
  1  2  2  0
  2  3  1  0
  3  4  1  0
  4  5  1  0
  5  6  2  0
  6  7  1  0
  7  8  2  0
  8  9  1  0
  9 10  2  0
  2 11  1  0
 11 12  1  0
 12 13  2  0
 13 14  1  0
 14 15  2  0
 15 16  1  0
 16 17  2  0
 17 18  1  0
 18 19  1  0
 19 20  1  0
 20 21  2  0
 20 22  1  0
 22 23  1  0
 23 24  1  0
 24 25  2  0
 24 26  1  0
 26 27  1  0
 27 28  2  0
 28 29  1  0
 29 30  2  0
 30 31  1  0
 31 32  2  0
 17 33  1  0
 33 34  1  0
 34 35  2  0
 10  5  1  0
 35 12  1  0
 34 15  1  0
 32 22  1  0
 32 27  1  0
  3 36  1  0
  3 37  1  0
  6 38  1  0
  7 39  1  0
  8 40  1  0
  9 41  1  0
 10 42  1  0
 13 43  1  0
 14 44  1  0
 19 45  1  0
 19 46  1  0
 23 47  1  0
 23 48  1  0
 26 49  1  0
 28 50  1  0
 29 51  1  0
 30 52  1  0
 31 53  1  0
 35 54  1  0
M  CHG  1  11  -1
M  END
>  <UniqueID>  (45) 
45

>  <SMILES>  (45) 
O=C(COc1ccccc1)[N-]c1ccc2nc(SCC(=O)N3CC(=O)Nc4ccccc43)sc2c1

>  <Energy>  (45) 
100.28486489885745

>  <Genealogy>  (45) 
O=C(COc1ccccc1)[N-]c1ccc2nc(SCC(=O)N3CC(=O)Nc4ccccc43)sc2c1 (protonated)
O=C(COc1ccccc1)[N-]c1ccc2nc(SCC(=O)N3CC(=O)Nc4ccccc43)sc2c1 (3D coordinates assigned)
O=C(COc1ccccc1)[N-]c1ccc2nc(SCC(=O)N3CC(=O)Nc4ccccc43)sc2c1 (nonaromatic ring conformer: 100.28486489885745 kcal/mol)

>  <smiles>  (45) 
O=C(COc1ccccc1)Nc1ccc2nc(SCC(=O)N3CC(=O)Nc4ccccc43)sc2c1

>  <score_type>  (45) 
oracle

>  <origin>  (45) 
adg

>  <m_score__min__energy>  (45) 
-10.94

>  <m_primary>  (45) 
energy

$$$$
45:0
     RDKit          3D

 30 31  0  0  0  0  0  0  0  0999 V2000
   55.8438   30.8600   41.9589 H   0  0  0  0  0  0  0  0  0  0  0  0
   56.6230   30.6130   42.6950 C   0  0  0  0  0  0  0  0  0  0  0  0
   57.3900   31.7110   43.3160 C   0  0  0  0  0  0  0  0  0  0  0  0
   58.1920   32.3970   42.6230 O   0  0  0  0  0  0  0  0  0  0  0  0
   57.1860   32.0160   44.7050 N   0  0  0  0  0  0  0  0  0  0  0  0
   56.3370   31.6240   45.1700 H   0  0  0  0  0  0  0  0  0  0  0  0
   58.0210   32.9110   45.4600 C   0  0  0  0  0  0  0  0  0  0  0  0
   58.4090   34.1610   44.9410 C   0  0  0  0  0  0  0  0  0  0  0  0
   58.0539   34.4752   43.9484 H   0  0  0  0  0  0  0  0  0  0  0  0
   59.2430   35.0050   45.6800 C   0  0  0  0  0  0  0  0  0  0  0  0
   59.5360   35.9830   45.2706 H   0  0  0  0  0  0  0  0  0  0  0  0
   59.7050   34.6090   46.9370 C   0  0  0  0  0  0  0  0  0  0  0  0
   60.3548   35.2782   47.5200 H   0  0  0  0  0  0  0  0  0  0  0  0
   59.3420   33.3630   47.4540 C   0  0  0  0  0  0  0  0  0  0  0  0
   59.7106   33.0500   48.4420 H   0  0  0  0  0  0  0  0  0  0  0  0
   58.5100   32.5120   46.7170 C   0  0  0  0  0  0  0  0  0  0  0  0
   58.1660   31.3060   47.2360 F   0  0  0  0  0  0  0  0  0  0  0  0
   56.8430   29.3250   42.9970 C   0  0  0  0  0  0  0  0  0  0  0  0
   56.4458   28.5550   42.3192 H   0  0  0  0  0  0  0  0  0  0  0  0
   57.5950   28.8850   44.1990 C   0  0  0  0  0  0  0  0  0  0  0  0
   58.9920   29.0550   44.3030 C   0  0  0  0  0  0  0  0  0  0  0  0
   59.5493   29.5123   43.4722 H   0  0  0  0  0  0  0  0  0  0  0  0
   59.6730   28.6470   45.4530 C   0  0  0  0  0  0  0  0  0  0  0  0
   60.7630   28.7786   45.5207 H   0  0  0  0  0  0  0  0  0  0  0  0
   58.9740   28.0730   46.5160 C   0  0  0  0  0  0  0  0  0  0  0  0
   59.5137   27.7462   47.4170 H   0  0  0  0  0  0  0  0  0  0  0  0
   57.5900   27.9140   46.4350 C   0  0  0  0  0  0  0  0  0  0  0  0
   57.0397   27.4692   47.2772 H   0  0  0  0  0  0  0  0  0  0  0  0
   56.8990   28.3180   45.2870 C   0  0  0  0  0  0  0  0  0  0  0  0
   55.5200   28.1430   45.2340 O   0  0  0  0  0  0  0  0  0  0  0  0
  1  2  1  0
  2  3  1  0
  3  4  2  0
  3  5  1  0
  5  6  1  0
  5  7  1  0
  7  8  2  0
  8  9  1  0
  8 10  1  0
 10 11  1  0
 10 12  2  0
 12 13  1  0
 12 14  1  0
 14 15  1  0
 14 16  2  0
 16 17  1  0
  2 18  2  0
 18 19  1  0
 18 20  1  0
 20 21  2  0
 21 22  1  0
 21 23  1  0
 23 24  1  0
 23 25  2  0
 25 26  1  0
 25 27  1  0
 27 28  1  0
 27 29  2  0
 29 30  1  0
 16  7  1  0
 29 20  1  0
M  CHG  1  30  -1
M  END
>  <UniqueID>  (46) 
46

>  <SMILES>  (46) 
O=C(/C=C/c1ccccc1[O-])Nc1ccccc1F

>  <Energy>  (46) 
37.06300745060228

>  <Genealogy>  (46) 
O=C(C=Cc1ccccc1[O-])Nc1ccccc1F (protonated)
O=C(/C=C/c1ccccc1[O-])Nc1ccccc1F (cis-trans isomerization)
O=C(/C=C/c1ccccc1[O-])Nc1ccccc1F (3D coordinates assigned)
O=C(/C=C/c1ccccc1[O-])Nc1ccccc1F (optimized conformer: 37.06300745060228 kcal/mol)

>  <smiles>  (46) 
O=C(C=Cc1ccccc1O)Nc1ccccc1F

>  <score_type>  (46) 
oracle

>  <origin>  (46) 
adg

>  <m_score__min__energy>  (46) 
-11.01

>  <m_primary>  (46) 
energy

$$$$
46:0
     RDKit          3D

 37 38  0  0  1  0  0  0  0  0999 V2000
   54.2520   25.8020   45.9400 O   0  0  0  0  0  0  0  0  0  0  0  0
   55.5840   25.6000   46.1490 N   0  0  0  0  0  0  0  0  0  0  0  0
   56.4150   26.5850   45.9310 C   0  0  0  0  0  0  0  0  0  0  0  0
   55.8930   27.8160   45.5550 O   0  0  0  0  0  0  0  0  0  0  0  0
   57.8950   26.3950   46.0820 C   0  0  0  0  0  0  0  0  0  0  0  0
   58.5680   26.6210   44.7420 C   0  0  0  0  0  0  0  0  0  0  0  0
   57.7770   27.3330   43.8370 O   0  0  0  0  0  0  0  0  0  0  0  0
   57.7890   28.7220   43.8110 C   0  0  0  0  0  0  0  0  0  0  0  0
   56.8800   29.4700   43.0870 C   0  0  0  0  0  0  0  0  0  0  0  0
   56.9140   30.8490   43.0790 C   0  0  0  0  0  0  0  0  0  0  0  0
   57.9060   31.4850   43.8350 C   0  0  0  0  0  0  0  0  0  0  0  0
   57.9290   32.9530   43.8170 C   0  0  0  0  0  0  0  0  0  0  0  0
   58.4090   33.5900   45.0440 C   0  0  0  0  0  0  0  0  0  0  0  0
   57.9190   33.1190   46.2610 C   0  0  0  0  0  0  0  0  0  0  0  0
   58.3390   33.6850   47.4540 C   0  0  0  0  0  0  0  0  0  0  0  0
   59.2480   34.7210   47.4190 C   0  0  0  0  0  0  0  0  0  0  0  0
   59.7550   35.2130   46.2170 C   0  0  0  0  0  0  0  0  0  0  0  0
   59.3170   34.6280   45.0600 C   0  0  0  0  0  0  0  0  0  0  0  0
   58.8140   30.7260   44.5580 C   0  0  0  0  0  0  0  0  0  0  0  0
   58.7770   29.3440   44.5630 C   0  0  0  0  0  0  0  0  0  0  0  0
   53.8410   26.7160   45.9920 H   0  0  0  0  0  0  0  0  0  0  0  0
   55.8970   28.1230   44.5940 H   0  0  0  0  0  0  0  0  0  0  0  0
   58.2852   27.1159   46.8155 H   0  0  0  0  0  0  0  0  0  0  0  0
   58.1018   25.3724   46.4307 H   0  0  0  0  0  0  0  0  0  0  0  0
   59.4984   27.1834   44.9095 H   0  0  0  0  0  0  0  0  0  0  0  0
   58.7545   25.6306   44.3011 H   0  0  0  0  0  0  0  0  0  0  0  0
   56.1075   28.9510   42.5005 H   0  0  0  0  0  0  0  0  0  0  0  0
   56.1844   31.4309   42.4967 H   0  0  0  0  0  0  0  0  0  0  0  0
   58.5825   33.2717   42.9915 H   0  0  0  0  0  0  0  0  0  0  0  0
   56.8822   33.2703   43.7012 H   0  0  0  0  0  0  0  0  0  0  0  0
   57.1937   32.2921   46.2744 H   0  0  0  0  0  0  0  0  0  0  0  0
   57.9529   33.3133   48.4146 H   0  0  0  0  0  0  0  0  0  0  0  0
   59.5823   35.1717   48.3651 H   0  0  0  0  0  0  0  0  0  0  0  0
   60.4798   36.0403   46.1993 H   0  0  0  0  0  0  0  0  0  0  0  0
   59.7059   35.0018   44.1013 H   0  0  0  0  0  0  0  0  0  0  0  0
   59.5884   31.2400   45.1463 H   0  0  0  0  0  0  0  0  0  0  0  0
   59.5050   28.7574   45.1426 H   0  0  0  0  0  0  0  0  0  0  0  0
  1  2  1  0
  2  3  2  0
  3  4  1  0
  3  5  1  0
  5  6  1  0
  6  7  1  0
  7  8  1  0
  8  9  2  0
  9 10  1  0
 10 11  2  0
 11 12  1  0
 12 13  1  0
 13 14  2  0
 14 15  1  0
 15 16  2  0
 16 17  1  0
 17 18  2  0
 11 19  1  0
 19 20  2  0
 20  8  1  0
 18 13  1  0
  1 21  1  0
  4 22  1  0
  5 23  1  0
  5 24  1  0
  6 25  1  0
  6 26  1  0
  9 27  1  0
 10 28  1  0
 12 29  1  0
 12 30  1  0
 14 31  1  0
 15 32  1  0
 16 33  1  0
 17 34  1  0
 18 35  1  0
 19 36  1  0
 20 37  1  0
M  END
>  <smiles>  (47) 
ON=C(O)CCOc1ccc(Cc2ccccc2)cc1

>  <score_type>  (47) 
oracle

>  <origin>  (47) 
adg

>  <m_score__min__energy>  (47) 
-9.7100000000000009

>  <m_primary>  (47) 
energy

$$$$
47:0
     RDKit          3D

 50 52  0  0  0  0  0  0  0  0999 V2000
   62.0840   31.7900   47.5150 C   0  0  0  0  0  0  0  0  0  0  0  0
   62.4650   33.2710   47.6920 C   0  0  0  0  0  0  0  0  0  0  0  0
   63.5250   33.3860   48.7990 C   0  0  0  0  0  0  0  0  0  0  0  0
   63.0440   33.8400   46.3830 C   0  0  0  0  0  0  0  0  0  0  0  0
   61.2960   34.0510   48.1120 N   0  0  0  0  0  0  0  0  0  0  0  0
   59.9290   33.6130   48.1360 C   0  0  0  0  0  0  0  0  0  0  0  0
   59.3660   33.3360   49.2290 O   0  0  0  0  0  0  0  0  0  0  0  0
   59.1700   33.4820   46.8790 C   0  0  0  0  0  0  0  0  0  0  0  0
   58.9540   32.2290   46.2830 C   0  0  0  0  0  0  0  0  0  0  0  0
   58.2200   32.1410   45.0950 C   0  0  0  0  0  0  0  0  0  0  0  0
   58.0300   30.8800   44.5110 O   0  0  0  0  0  0  0  0  0  0  0  0
   58.4150   29.6550   45.0770 C   0  0  0  0  0  0  0  0  0  0  0  0
   59.7770   29.3410   45.1360 C   0  0  0  0  0  0  0  0  0  0  0  0
   60.1990   28.1330   45.6970 C   0  0  0  0  0  0  0  0  0  0  0  0
   59.2640   27.2400   46.2230 C   0  0  0  0  0  0  0  0  0  0  0  0
   57.8950   27.5610   46.2130 C   0  0  0  0  0  0  0  0  0  0  0  0
   56.9060   26.6680   46.7460 N   0  0  0  0  0  0  0  0  0  0  0  0
   55.9860   25.8720   45.9860 C   0  0  0  0  0  0  0  0  0  0  0  0
   54.7680   26.1920   45.9910 O   0  0  0  0  0  0  0  0  0  0  0  0
   56.4170   24.6550   45.2560 C   0  0  0  0  0  0  0  0  0  0  0  0
   55.6310   24.1390   44.2100 C   0  0  0  0  0  0  0  0  0  0  0  0
   56.0360   22.9940   43.5170 C   0  0  0  0  0  0  0  0  0  0  0  0
   57.2330   22.3590   43.8540 C   0  0  0  0  0  0  0  0  0  0  0  0
   57.6240   21.2490   43.1810 F   0  0  0  0  0  0  0  0  0  0  0  0
   58.0290   22.8680   44.8830 C   0  0  0  0  0  0  0  0  0  0  0  0
   57.6290   24.0120   45.5820 C   0  0  0  0  0  0  0  0  0  0  0  0
   58.4130   24.4760   46.5890 F   0  0  0  0  0  0  0  0  0  0  0  0
   57.4760   28.7620   45.6270 C   0  0  0  0  0  0  0  0  0  0  0  0
   57.7350   33.3170   44.5010 C   0  0  0  0  0  0  0  0  0  0  0  0
   57.9680   34.5450   45.1200 C   0  0  0  0  0  0  0  0  0  0  0  0
   58.6720   34.6010   46.2810 N   0  0  0  0  0  0  0  0  0  0  0  0
   61.9635   31.3218   48.5031 H   0  0  0  0  0  0  0  0  0  0  0  0
   61.1383   31.7188   46.9577 H   0  0  0  0  0  0  0  0  0  0  0  0
   62.8779   31.2712   46.9577 H   0  0  0  0  0  0  0  0  0  0  0  0
   63.0353   33.3329   49.7825 H   0  0  0  0  0  0  0  0  0  0  0  0
   64.2461   32.5608   48.7034 H   0  0  0  0  0  0  0  0  0  0  0  0
   64.0523   34.3466   48.7034 H   0  0  0  0  0  0  0  0  0  0  0  0
   63.8105   34.5932   46.6180 H   0  0  0  0  0  0  0  0  0  0  0  0
   63.4970   33.0260   45.7981 H   0  0  0  0  0  0  0  0  0  0  0  0
   62.2380   34.3072   45.7981 H   0  0  0  0  0  0  0  0  0  0  0  0
   59.3607   31.3192   46.7488 H   0  0  0  0  0  0  0  0  0  0  0  0
   60.5194   30.0488   44.7387 H   0  0  0  0  0  0  0  0  0  0  0  0
   61.2704   27.8851   45.7242 H   0  0  0  0  0  0  0  0  0  0  0  0
   59.5992   26.2819   46.6468 H   0  0  0  0  0  0  0  0  0  0  0  0
   54.6910   24.6397   43.9351 H   0  0  0  0  0  0  0  0  0  0  0  0
   55.4109   22.5931   42.7055 H   0  0  0  0  0  0  0  0  0  0  0  0
   58.9732   22.3678   45.1445 H   0  0  0  0  0  0  0  0  0  0  0  0
   56.4046   29.0095   45.5963 H   0  0  0  0  0  0  0  0  0  0  0  0
   57.1757   33.2703   43.5550 H   0  0  0  0  0  0  0  0  0  0  0  0
   57.5811   35.4700   44.6675 H   0  0  0  0  0  0  0  0  0  0  0  0
  1  2  1  0
  2  3  1  0
  2  4  1  0
  2  5  1  0
  5  6  1  0
  6  7  2  0
  6  8  1  0
  8  9  2  0
  9 10  1  0
 10 11  1  0
 11 12  1  0
 12 13  2  0
 13 14  1  0
 14 15  2  0
 15 16  1  0
 16 17  1  0
 17 18  1  0
 18 19  2  0
 18 20  1  0
 20 21  2  0
 21 22  1  0
 22 23  2  0
 23 24  1  0
 23 25  1  0
 25 26  2  0
 26 27  1  0
 16 28  2  0
 10 29  2  0
 29 30  1  0
 30 31  2  0
 31  8  1  0
 28 12  1  0
 26 20  1  0
  1 32  1  0
  1 33  1  0
  1 34  1  0
  3 35  1  0
  3 36  1  0
  3 37  1  0
  4 38  1  0
  4 39  1  0
  4 40  1  0
  9 41  1  0
 13 42  1  0
 14 43  1  0
 15 44  1  0
 21 45  1  0
 22 46  1  0
 25 47  1  0
 28 48  1  0
 29 49  1  0
 30 50  1  0
M  CHG  2   5  -1  17  -1
M  END
>  <UniqueID>  (48) 
47

>  <SMILES>  (48) 
CC(C)(C)[N-]C(=O)c1cc(Oc2cccc([N-]C(=O)c3ccc(F)cc3F)c2)ccn1

>  <Energy>  (48) 
61.59783946908145

>  <Genealogy>  (48) 
CC(C)(C)[N-]C(=O)c1cc(Oc2cccc([N-]C(=O)c3ccc(F)cc3F)c2)ccn1 (protonated)
CC(C)(C)[N-]C(=O)c1cc(Oc2cccc([N-]C(=O)c3ccc(F)cc3F)c2)ccn1 (3D coordinates assigned)
CC(C)(C)[N-]C(=O)c1cc(Oc2cccc([N-]C(=O)c3ccc(F)cc3F)c2)ccn1 (optimized conformer: 61.59783946908145 kcal/mol)

>  <smiles>  (48) 
CC(C)(C)NC(=O)c1cc(Oc2cccc(NC(=O)c3ccc(F)cc3F)c2)ccn1

>  <score_type>  (48) 
oracle

>  <origin>  (48) 
adg

>  <m_score__min__energy>  (48) 
-11.4

>  <m_primary>  (48) 
energy

$$$$
48:0
     RDKit          3D

 34 36  0  0  0  0  0  0  0  0999 V2000
   56.1283   31.1342   44.4551 H   0  0  0  0  0  0  0  0  0  0  0  0
   57.2260   31.2040   44.4430 C   0  0  0  0  0  0  0  0  0  0  0  0
   57.9110   30.2410   43.8110 C   0  0  0  0  0  0  0  0  0  0  0  0
   57.8986   30.2078   42.7116 H   0  0  0  0  0  0  0  0  0  0  0  0
   58.6830   29.2220   44.5540 C   0  0  0  0  0  0  0  0  0  0  0  0
   60.0740   29.3780   44.6100 C   0  0  0  0  0  0  0  0  0  0  0  0
   60.5473   30.2563   44.1468 H   0  0  0  0  0  0  0  0  0  0  0  0
   60.8580   28.4230   45.2510 C   0  0  0  0  0  0  0  0  0  0  0  0
   61.9507   28.5459   45.2823 H   0  0  0  0  0  0  0  0  0  0  0  0
   60.2850   27.3410   45.8380 N   0  0  0  0  0  0  0  0  0  0  0  0
   60.9070   26.6440   46.3060 H   0  0  0  0  0  0  0  0  0  0  0  0
   58.9320   27.1640   45.8410 C   0  0  0  0  0  0  0  0  0  0  0  0
   58.3730   26.0500   46.4850 C   0  0  0  0  0  0  0  0  0  0  0  0
   59.0295   25.3066   46.9609 H   0  0  0  0  0  0  0  0  0  0  0  0
   56.9880   25.8800   46.5250 C   0  0  0  0  0  0  0  0  0  0  0  0
   56.5576   24.9984   47.0224 H   0  0  0  0  0  0  0  0  0  0  0  0
   56.1490   26.8250   45.9360 C   0  0  0  0  0  0  0  0  0  0  0  0
   54.7690   26.6620   45.9980 O   0  0  0  0  0  0  0  0  0  0  0  0
   56.6890   27.9390   45.2870 C   0  0  0  0  0  0  0  0  0  0  0  0
   56.0193   28.6847   44.8338 H   0  0  0  0  0  0  0  0  0  0  0  0
   58.0870   28.1140   45.2090 C   0  0  0  0  0  0  0  0  0  0  0  0
   57.8580   32.3580   45.1270 C   0  0  0  0  0  0  0  0  0  0  0  0
   58.2380   33.4660   44.3550 C   0  0  0  0  0  0  0  0  0  0  0  0
   58.0595   33.4609   43.2696 H   0  0  0  0  0  0  0  0  0  0  0  0
   58.8400   34.5740   44.9510 C   0  0  0  0  0  0  0  0  0  0  0  0
   59.1250   35.4400   44.3355 H   0  0  0  0  0  0  0  0  0  0  0  0
   59.0820   34.5880   46.3250 C   0  0  0  0  0  0  0  0  0  0  0  0
   59.5526   35.4678   46.7881 H   0  0  0  0  0  0  0  0  0  0  0  0
   58.7280   33.4840   47.1220 C   0  0  0  0  0  0  0  0  0  0  0  0
   58.9880   33.4890   48.5380 N   0  0  0  0  0  0  0  0  0  0  0  0
   59.7060   34.3730   49.0500 O   0  0  0  0  0  0  0  0  0  0  0  0
   58.4490   32.5200   49.3520 O   0  0  0  0  0  0  0  0  0  0  0  0
   58.1190   32.3700   46.5130 C   0  0  0  0  0  0  0  0  0  0  0  0
   57.8435   31.4988   47.1255 H   0  0  0  0  0  0  0  0  0  0  0  0
  1  2  1  0
  2  3  2  0
  3  4  1  0
  3  5  1  0
  5  6  2  0
  6  7  1  0
  6  8  1  0
  8  9  1  0
  8 10  2  0
 10 11  1  0
 10 12  1  0
 12 13  2  0
 13 14  1  0
 13 15  1  0
 15 16  1  0
 15 17  2  0
 17 18  1  0
 17 19  1  0
 19 20  1  0
 19 21  2  0
  2 22  1  0
 22 23  2  0
 23 24  1  0
 23 25  1  0
 25 26  1  0
 25 27  2  0
 27 28  1  0
 27 29  1  0
 29 30  1  0
 30 31  2  0
 30 32  1  0
 29 33  2  0
 33 34  1  0
 21  5  1  0
 33 22  1  0
 21 12  1  0
M  CHG  4  10   1  18  -1  30   1  32  -1
M  END
>  <UniqueID>  (49) 
48

>  <SMILES>  (49) 
O=[N+]([O-])c1cccc(/C=C/c2cc[nH+]c3ccc([O-])cc23)c1

>  <Energy>  (49) 
51.41837068920786

>  <Genealogy>  (49) 
O=[N+]([O-])c1cccc(C=Cc2cc[nH+]c3ccc([O-])cc23)c1 (protonated)
O=[N+]([O-])c1cccc(/C=C/c2cc[nH+]c3ccc([O-])cc23)c1 (cis-trans isomerization)
O=[N+]([O-])c1cccc(/C=C/c2cc[nH+]c3ccc([O-])cc23)c1 (3D coordinates assigned)
O=[N+]([O-])c1cccc(/C=C/c2cc[nH+]c3ccc([O-])cc23)c1 (optimized conformer: 51.41837068920786 kcal/mol)

>  <smiles>  (49) 
O=[N+]([O-])c1cccc(C=Cc2ccnc3ccc(O)cc23)c1

>  <score_type>  (49) 
oracle

>  <origin>  (49) 
adg

>  <m_score__min__energy>  (49) 
-10.460000000000001

>  <m_primary>  (49) 
energy

$$$$
49:0
     RDKit          3D

 58 61  0  0  0  0  0  0  0  0999 V2000
   58.8970   30.2500   51.2380 C   0  0  0  0  0  0  0  0  0  0  0  0
   59.4620   30.4680   49.9030 N   0  0  0  0  0  0  0  0  0  0  0  0
   59.8720   29.5210   49.0140 C   0  0  0  0  0  0  0  0  0  0  0  0
   59.7040   28.0400   49.1980 C   0  0  0  0  0  0  0  0  0  0  0  0
   60.7600   27.1290   48.0170 S   0  0  0  0  0  0  0  0  0  0  0  0
   59.5030   27.0020   46.7400 C   0  0  0  0  0  0  0  0  0  0  0  0
   59.7660   27.4680   45.4470 C   0  0  0  0  0  0  0  0  0  0  0  0
   58.7730   27.4080   44.4680 C   0  0  0  0  0  0  0  0  0  0  0  0
   57.5240   26.8570   44.7660 C   0  0  0  0  0  0  0  0  0  0  0  0
   57.2600   26.3500   46.0520 C   0  0  0  0  0  0  0  0  0  0  0  0
   55.9520   25.7350   46.3650 C   0  0  0  0  0  0  0  0  0  0  0  0
   55.8880   24.6560   47.0120 O   0  0  0  0  0  0  0  0  0  0  0  0
   54.7730   26.3490   45.9630 O   0  0  0  0  0  0  0  0  0  0  0  0
   58.2590   26.4350   47.0380 C   0  0  0  0  0  0  0  0  0  0  0  0
   60.3480   30.0610   47.8640 N   0  0  0  0  0  0  0  0  0  0  0  0
   60.2190   31.3850   48.0380 C   0  0  0  0  0  0  0  0  0  0  0  0
   60.5240   32.4010   47.1360 C   0  0  0  0  0  0  0  0  0  0  0  0
   60.2360   33.7250   47.5160 C   0  0  0  0  0  0  0  0  0  0  0  0
   60.5500   34.7960   46.6200 N   0  0  0  0  0  0  0  0  0  0  0  0
   59.6540   35.3370   45.6410 C   0  0  0  0  0  0  0  0  0  0  0  0
   59.7880   36.5420   45.2970 O   0  0  0  0  0  0  0  0  0  0  0  0
   58.7020   34.4490   44.8760 C   0  0  0  0  0  0  0  0  0  0  0  0
   57.3340   34.2880   45.5650 C   0  0  0  0  0  0  0  0  0  0  0  0
   57.2800   33.0700   46.4870 C   0  0  0  0  0  0  0  0  0  0  0  0
   57.8840   31.9510   45.8360 O   0  0  0  0  0  0  0  0  0  0  0  0
   57.3390   31.2790   44.7330 C   0  0  0  0  0  0  0  0  0  0  0  0
   57.5430   31.8230   43.4580 C   0  0  0  0  0  0  0  0  0  0  0  0
   57.0390   31.1780   42.3240 C   0  0  0  0  0  0  0  0  0  0  0  0
   56.3220   29.9860   42.4580 C   0  0  0  0  0  0  0  0  0  0  0  0
   56.1070   29.4370   43.7260 C   0  0  0  0  0  0  0  0  0  0  0  0
   56.6110   30.0800   44.8620 C   0  0  0  0  0  0  0  0  0  0  0  0
   59.6940   33.9910   48.7980 C   0  0  0  0  0  0  0  0  0  0  0  0
   59.4060   32.9420   49.6910 C   0  0  0  0  0  0  0  0  0  0  0  0
   59.6790   31.6380   49.2690 C   0  0  0  0  0  0  0  0  0  0  0  0
   59.6368   30.5355   52.0003 H   0  0  0  0  0  0  0  0  0  0  0  0
   57.9918   30.8634   51.3577 H   0  0  0  0  0  0  0  0  0  0  0  0
   58.6384   29.1875   51.3577 H   0  0  0  0  0  0  0  0  0  0  0  0
   59.9895   27.7674   50.2247 H   0  0  0  0  0  0  0  0  0  0  0  0
   58.6523   27.7743   49.0156 H   0  0  0  0  0  0  0  0  0  0  0  0
   60.7554   27.8816   45.2021 H   0  0  0  0  0  0  0  0  0  0  0  0
   58.9743   27.7958   43.4585 H   0  0  0  0  0  0  0  0  0  0  0  0
   56.7435   26.8193   43.9918 H   0  0  0  0  0  0  0  0  0  0  0  0
   58.0611   26.0531   48.0504 H   0  0  0  0  0  0  0  0  0  0  0  0
   60.6960   29.5590   47.0160 H   0  0  0  0  0  0  0  0  0  0  0  0
   60.9753   32.1760   46.1584 H   0  0  0  0  0  0  0  0  0  0  0  0
   58.5418   34.8855   43.8791 H   0  0  0  0  0  0  0  0  0  0  0  0
   59.1596   33.4502   44.8219 H   0  0  0  0  0  0  0  0  0  0  0  0
   57.1313   35.1902   46.1608 H   0  0  0  0  0  0  0  0  0  0  0  0
   56.5794   34.1437   44.7778 H   0  0  0  0  0  0  0  0  0  0  0  0
   57.8241   33.2903   47.4173 H   0  0  0  0  0  0  0  0  0  0  0  0
   56.2314   32.8348   46.7216 H   0  0  0  0  0  0  0  0  0  0  0  0
   58.1031   32.7633   43.3482 H   0  0  0  0  0  0  0  0  0  0  0  0
   57.2071   31.6092   41.3261 H   0  0  0  0  0  0  0  0  0  0  0  0
   55.9265   29.4792   41.5654 H   0  0  0  0  0  0  0  0  0  0  0  0
   55.5415   28.4993   43.8304 H   0  0  0  0  0  0  0  0  0  0  0  0
   56.4382   29.6479   45.8587 H   0  0  0  0  0  0  0  0  0  0  0  0
   59.4959   35.0303   49.0990 H   0  0  0  0  0  0  0  0  0  0  0  0
   58.9811   33.1414   50.6858 H   0  0  0  0  0  0  0  0  0  0  0  0
  1  2  1  0
  2  3  1  0
  3  4  1  0
  4  5  1  0
  5  6  1  0
  6  7  2  0
  7  8  1  0
  8  9  2  0
  9 10  1  0
 10 11  1  0
 11 12  2  0
 11 13  1  0
 10 14  2  0
  3 15  2  0
 15 16  1  0
 16 17  2  0
 17 18  1  0
 18 19  1  0
 19 20  1  0
 20 21  2  0
 20 22  1  0
 22 23  1  0
 23 24  1  0
 24 25  1  0
 25 26  1  0
 26 27  2  0
 27 28  1  0
 28 29  2  0
 29 30  1  0
 30 31  2  0
 18 32  2  0
 32 33  1  0
 33 34  2  0
 34  2  1  0
 14  6  1  0
 34 16  1  0
 31 26  1  0
  1 35  1  0
  1 36  1  0
  1 37  1  0
  4 38  1  0
  4 39  1  0
  7 40  1  0
  8 41  1  0
  9 42  1  0
 14 43  1  0
 15 44  1  0
 17 45  1  0
 22 46  1  0
 22 47  1  0
 23 48  1  0
 23 49  1  0
 24 50  1  0
 24 51  1  0
 27 52  1  0
 28 53  1  0
 29 54  1  0
 30 55  1  0
 31 56  1  0
 32 57  1  0
 33 58  1  0
M  CHG  3  13  -1  15   1  19  -1
M  END
>  <UniqueID>  (50) 
49

>  <SMILES>  (50) 
Cn1c(CSc2cccc(C(=O)[O-])c2)[nH+]c2cc([N-]C(=O)CCCOc3ccccc3)ccc21

>  <Energy>  (50) 
93.66500380750553

>  <Genealogy>  (50) 
Cn1c(CSc2cccc(C(=O)[O-])c2)[nH+]c2cc([N-]C(=O)CCCOc3ccccc3)ccc21 (protonated)
Cn1c(CSc2cccc(C(=O)[O-])c2)[nH+]c2cc([N-]C(=O)CCCOc3ccccc3)ccc21 (3D coordinates assigned)
Cn1c(CSc2cccc(C(=O)[O-])c2)[nH+]c2cc([N-]C(=O)CCCOc3ccccc3)ccc21 (optimized conformer: 93.66500380750553 kcal/mol)

>  <smiles>  (50) 
Cn1c(CSc2cccc(C(=O)O)c2)nc2cc(NC(=O)CCCOc3ccccc3)ccc21

>  <score_type>  (50) 
oracle

>  <origin>  (50) 
adg

>  <m_score__min__energy>  (50) 
-12.710000000000001

>  <m_primary>  (50) 
energy

$$$$
50:0
     RDKit          3D

 39 41  0  0  0  0  0  0  0  0999 V2000
   64.2132   33.4893   48.5520 H   0  0  0  0  0  0  0  0  0  0  0  0
   63.2170   33.6860   48.1290 C   0  0  0  0  0  0  0  0  0  0  0  0
   62.1940   34.1920   48.7830 O   0  0  0  0  0  0  0  0  0  0  0  0
   61.1560   34.2990   48.0080 N   0  0  0  0  0  0  0  0  0  0  0  0
   60.2450   34.7050   48.3110 H   0  0  0  0  0  0  0  0  0  0  0  0
   61.5170   33.8410   46.7930 C   0  0  0  0  0  0  0  0  0  0  0  0
   60.7690   33.8140   45.7280 N   0  0  0  0  0  0  0  0  0  0  0  0
   59.3680   34.1100   45.6340 C   0  0  0  0  0  0  0  0  0  0  0  0
   58.8670   35.0990   46.2330 O   0  0  0  0  0  0  0  0  0  0  0  0
   58.4690   33.1720   44.8870 C   0  0  0  0  0  0  0  0  0  0  0  0
   57.5061   33.6682   44.6957 H   0  0  0  0  0  0  0  0  0  0  0  0
   58.9492   32.8992   43.9357 H   0  0  0  0  0  0  0  0  0  0  0  0
   58.2370   31.9500   45.6720 N   0  0  0  0  0  0  0  0  0  0  0  0
   57.4190   30.9010   45.1100 C   0  0  0  0  0  0  0  0  0  0  0  0
   56.3220   31.1960   44.5640 O   0  0  0  0  0  0  0  0  0  0  0  0
   57.8620   29.4850   45.1290 C   0  0  0  0  0  0  0  0  0  0  0  0
   59.2350   29.1780   45.0770 C   0  0  0  0  0  0  0  0  0  0  0  0
   59.9746   29.9910   45.0321 H   0  0  0  0  0  0  0  0  0  0  0  0
   59.6660   27.8480   45.0820 C   0  0  0  0  0  0  0  0  0  0  0  0
   60.7412   27.6189   45.0449 H   0  0  0  0  0  0  0  0  0  0  0  0
   58.7340   26.8110   45.1340 C   0  0  0  0  0  0  0  0  0  0  0  0
   59.0750   25.7652   45.1387 H   0  0  0  0  0  0  0  0  0  0  0  0
   57.3690   27.1000   45.1800 C   0  0  0  0  0  0  0  0  0  0  0  0
   56.6368   26.2800   45.2188 H   0  0  0  0  0  0  0  0  0  0  0  0
   56.9280   28.4280   45.1770 C   0  0  0  0  0  0  0  0  0  0  0  0
   55.5630   28.6860   45.2390 O   0  0  0  0  0  0  0  0  0  0  0  0
   58.7660   31.8310   47.0110 C   0  0  0  0  0  0  0  0  0  0  0  0
   58.1480   32.5050   48.0820 C   0  0  0  0  0  0  0  0  0  0  0  0
   57.2672   33.1368   47.8950 H   0  0  0  0  0  0  0  0  0  0  0  0
   58.6470   32.3760   49.3810 C   0  0  0  0  0  0  0  0  0  0  0  0
   58.1580   32.9059   50.2117 H   0  0  0  0  0  0  0  0  0  0  0  0
   59.7650   31.5760   49.6270 C   0  0  0  0  0  0  0  0  0  0  0  0
   60.1554   31.4751   50.6504 H   0  0  0  0  0  0  0  0  0  0  0  0
   60.3870   30.9040   48.5720 C   0  0  0  0  0  0  0  0  0  0  0  0
   61.2680   30.2747   48.7662 H   0  0  0  0  0  0  0  0  0  0  0  0
   59.8930   31.0290   47.2700 C   0  0  0  0  0  0  0  0  0  0  0  0
   60.3879   30.4976   46.4437 H   0  0  0  0  0  0  0  0  0  0  0  0
   62.8350   33.4420   46.8230 C   0  0  0  0  0  0  0  0  0  0  0  0
   63.4398   33.0277   46.0028 H   0  0  0  0  0  0  0  0  0  0  0  0
  1  2  1  0
  2  3  1  0
  3  4  1  0
  4  5  1  0
  4  6  1  0
  6  7  2  0
  7  8  1  0
  8  9  2  0
  8 10  1  0
 10 11  1  0
 10 12  1  0
 10 13  1  0
 13 14  1  0
 14 15  2  0
 14 16  1  0
 16 17  2  0
 17 18  1  0
 17 19  1  0
 19 20  1  0
 19 21  2  0
 21 22  1  0
 21 23  1  0
 23 24  1  0
 23 25  2  0
 25 26  1  0
 13 27  1  0
 27 28  2  0
 28 29  1  0
 28 30  1  0
 30 31  1  0
 30 32  2  0
 32 33  1  0
 32 34  1  0
 34 35  1  0
 34 36  2  0
 36 37  1  0
  6 38  1  0
 38 39  1  0
 38  2  2  0
 25 16  1  0
 36 27  1  0
M  CHG  1  26  -1
M  END
>  <UniqueID>  (51) 
50

>  <SMILES>  (51) 
O=C(CN(C(=O)c1ccccc1[O-])c1ccccc1)/N=c1/cco[nH]1

>  <Energy>  (51) 
85.27903163354463

>  <Genealogy>  (51) 
O=C(CN(C(=O)c1ccccc1[O-])c1ccccc1)N=c1cco[nH]1 (protonated)
O=C(CN(C(=O)c1ccccc1[O-])c1ccccc1)/N=c1/cco[nH]1 (cis-trans isomerization)
O=C(CN(C(=O)c1ccccc1[O-])c1ccccc1)/N=c1/cco[nH]1 (3D coordinates assigned)
O=C(CN(C(=O)c1ccccc1[O-])c1ccccc1)/N=c1/cco[nH]1 (optimized conformer: 85.27903163354463 kcal/mol)

>  <smiles>  (51) 
O=C(CN(C(=O)c1ccccc1O)c1ccccc1)N=c1cco[nH]1

>  <score_type>  (51) 
oracle

>  <origin>  (51) 
adg

>  <m_score__min__energy>  (51) 
-11.630000000000001

>  <m_primary>  (51) 
energy

$$$$
51:0
     RDKit          3D

 41 43  0  0  1  0  0  0  0  0999 V2000
   64.1310   33.4630   50.0750 C   0  0  0  0  0  0  0  0  0  0  0  0
   62.9810   34.2050   50.5370 N   0  0  0  0  0  0  0  0  0  0  0  0
   61.7980   33.9220   50.1090 C   0  0  0  0  0  0  0  0  0  0  0  0
   60.9610   33.1770   50.8540 N   0  0  0  0  0  0  0  0  0  0  0  0
   59.7170   32.8460   50.4640 C   0  0  0  0  0  0  0  0  0  0  0  0
   58.8720   32.0630   51.2750 N   0  0  0  0  0  0  0  0  0  0  0  0
   57.7190   32.6440   51.9480 C   0  0  0  0  0  0  0  0  0  0  0  0
   56.6680   31.6230   52.2950 C   0  0  0  0  0  0  0  0  0  0  0  0
   56.8460   30.4270   51.5770 O   0  0  0  0  0  0  0  0  0  0  0  0
   58.0390   29.8870   52.0800 C   0  0  0  0  0  0  0  0  0  0  0  0
   59.1750   30.6330   51.4340 C   0  0  0  0  0  0  0  0  0  0  0  0
   59.2790   33.2800   49.2660 N   0  0  0  0  0  0  0  0  0  0  0  0
   60.1150   34.0260   48.5190 C   0  0  0  0  0  0  0  0  0  0  0  0
   59.7610   34.4860   47.3440 N   0  0  0  0  0  0  0  0  0  0  0  0
   58.9540   33.6850   46.4850 C   0  0  0  0  0  0  0  0  0  0  0  0
   59.2340   32.3160   46.3960 C   0  0  0  0  0  0  0  0  0  0  0  0
   58.4940   31.4860   45.5860 C   0  0  0  0  0  0  0  0  0  0  0  0
   57.4580   32.0060   44.8460 C   0  0  0  0  0  0  0  0  0  0  0  0
   56.6860   31.1530   44.0030 N   0  0  0  0  0  0  0  0  0  0  0  0
   55.8050   30.4090   44.4950 O   0  0  0  0  0  0  0  0  0  0  0  0
   56.9030   31.1440   42.6470 O   0  0  0  0  0  0  0  0  0  0  0  0
   57.1790   33.3340   44.9250 C   0  0  0  0  0  0  0  0  0  0  0  0
   57.9130   34.1970   45.7380 C   0  0  0  0  0  0  0  0  0  0  0  0
   61.3600   34.3550   48.9120 N   0  0  0  0  0  0  0  0  0  0  0  0
   64.7016   33.0948   50.9403 H   0  0  0  0  0  0  0  0  0  0  0  0
   63.7966   32.6099   49.4664 H   0  0  0  0  0  0  0  0  0  0  0  0
   64.7705   34.1193   49.4664 H   0  0  0  0  0  0  0  0  0  0  0  0
   61.2900   32.8380   51.7770 H   0  0  0  0  0  0  0  0  0  0  0  0
   58.0602   33.1260   52.8760 H   0  0  0  0  0  0  0  0  0  0  0  0
   57.2619   33.3666   51.2559 H   0  0  0  0  0  0  0  0  0  0  0  0
   56.7255   31.4042   53.3715 H   0  0  0  0  0  0  0  0  0  0  0  0
   55.6852   32.0392   52.0287 H   0  0  0  0  0  0  0  0  0  0  0  0
   58.0784   30.0133   53.1720 H   0  0  0  0  0  0  0  0  0  0  0  0
   58.1035   28.8114   51.8587 H   0  0  0  0  0  0  0  0  0  0  0  0
   60.0723   30.5273   52.0615 H   0  0  0  0  0  0  0  0  0  0  0  0
   59.3380   30.2059   50.4335 H   0  0  0  0  0  0  0  0  0  0  0  0
   60.0622   31.8958   46.9855 H   0  0  0  0  0  0  0  0  0  0  0  0
   58.7295   30.4129   45.5306 H   0  0  0  0  0  0  0  0  0  0  0  0
   56.3485   33.7405   44.3292 H   0  0  0  0  0  0  0  0  0  0  0  0
   57.6662   35.2680   45.7830 H   0  0  0  0  0  0  0  0  0  0  0  0
   62.0060   34.9450   48.3100 H   0  0  0  0  0  0  0  0  0  0  0  0
  1  2  1  0
  2  3  2  0
  3  4  1  0
  4  5  1  0
  5  6  1  0
  6  7  1  0
  7  8  1  0
  8  9  1  0
  9 10  1  0
 10 11  1  0
  5 12  2  0
 12 13  1  0
 13 14  2  0
 14 15  1  0
 15 16  2  0
 16 17  1  0
 17 18  2  0
 18 19  1  0
 19 20  2  0
 19 21  1  0
 18 22  1  0
 22 23  2  0
 13 24  1  0
 24  3  1  0
 11  6  1  0
 23 15  1  0
  1 25  1  0
  1 26  1  0
  1 27  1  0
  4 28  1  0
  7 29  1  0
  7 30  1  0
  8 31  1  0
  8 32  1  0
 10 33  1  0
 10 34  1  0
 11 35  1  0
 11 36  1  0
 16 37  1  0
 17 38  1  0
 22 39  1  0
 23 40  1  0
 24 41  1  0
M  CHG  2  19   1  21  -1
M  END
>  <smiles>  (52) 
CN=c1[nH]c(N2CCOCC2)nc(=Nc2ccc([N+](=O)[O-])cc2)[nH]1

>  <score_type>  (52) 
oracle

>  <origin>  (52) 
adg

>  <m_score__min__energy>  (52) 
-6.7199999999999998

>  <m_primary>  (52) 
energy

$$$$
52:0
     RDKit          3D

 58 61  0  0  0  0  0  0  0  0999 V2000
   54.6040   23.6950   44.4940 C   0  0  0  0  0  0  0  0  0  0  0  0
   55.9800   23.1270   44.7110 C   0  0  0  0  0  0  0  0  0  0  0  0
   56.1520   21.7420   44.8740 C   0  0  0  0  0  0  0  0  0  0  0  0
   57.4270   21.2060   45.0690 C   0  0  0  0  0  0  0  0  0  0  0  0
   58.5400   22.0470   45.1120 C   0  0  0  0  0  0  0  0  0  0  0  0
   58.3820   23.4250   44.9490 C   0  0  0  0  0  0  0  0  0  0  0  0
   57.1090   23.9720   44.7260 C   0  0  0  0  0  0  0  0  0  0  0  0
   56.9440   25.3860   44.5710 N   0  0  0  0  0  0  0  0  0  0  0  0
   56.5560   26.4450   45.8870 S   0  0  0  0  0  0  0  0  0  0  0  0
   57.1080   25.8570   47.1560 O   0  0  0  0  0  0  0  0  0  0  0  0
   55.0620   26.5320   46.0270 O   0  0  0  0  0  0  0  0  0  0  0  0
   57.2610   28.0480   45.6560 C   0  0  0  0  0  0  0  0  0  0  0  0
   58.6250   28.2390   45.9210 C   0  0  0  0  0  0  0  0  0  0  0  0
   59.2260   29.4960   45.7300 C   0  0  0  0  0  0  0  0  0  0  0  0
   60.6710   29.6810   45.9950 C   0  0  0  0  0  0  0  0  0  0  0  0
   61.5170   29.2750   45.1510 O   0  0  0  0  0  0  0  0  0  0  0  0
   61.1280   30.3370   47.1880 N   0  0  0  0  0  0  0  0  0  0  0  0
   62.2300   31.3010   47.1020 C   0  0  0  0  0  0  0  0  0  0  0  0
   62.0780   32.4270   48.1480 C   0  0  0  0  0  0  0  0  0  0  0  0
   61.1250   32.0900   49.2340 N   0  0  0  0  0  0  0  0  0  0  0  0
   61.3050   32.9790   50.4010 C   0  0  0  0  0  0  0  0  0  0  0  0
   60.0450   33.0370   51.2260 C   0  0  0  0  0  0  0  0  0  0  0  0
   60.0000   33.7900   52.4120 C   0  0  0  0  0  0  0  0  0  0  0  0
   58.8190   33.8610   53.1570 C   0  0  0  0  0  0  0  0  0  0  0  0
   57.6750   33.1840   52.7220 C   0  0  0  0  0  0  0  0  0  0  0  0
   57.7100   32.4400   51.5400 C   0  0  0  0  0  0  0  0  0  0  0  0
   58.8890   32.3670   50.7910 C   0  0  0  0  0  0  0  0  0  0  0  0
   61.2640   30.6780   49.6320 C   0  0  0  0  0  0  0  0  0  0  0  0
   60.7450   29.7920   48.4980 C   0  0  0  0  0  0  0  0  0  0  0  0
   58.4470   30.5590   45.2420 C   0  0  0  0  0  0  0  0  0  0  0  0
   57.0900   30.3740   44.9730 C   0  0  0  0  0  0  0  0  0  0  0  0
   56.4930   29.1260   45.1740 C   0  0  0  0  0  0  0  0  0  0  0  0
   55.1440   28.9660   44.8740 O   0  0  0  0  0  0  0  0  0  0  0  0
   54.1303   23.8905   45.4674 H   0  0  0  0  0  0  0  0  0  0  0  0
   54.6805   24.6351   43.9280 H   0  0  0  0  0  0  0  0  0  0  0  0
   53.9951   22.9747   43.9280 H   0  0  0  0  0  0  0  0  0  0  0  0
   55.2771   21.0757   44.8479 H   0  0  0  0  0  0  0  0  0  0  0  0
   57.5540   20.1199   45.1888 H   0  0  0  0  0  0  0  0  0  0  0  0
   59.5424   21.6241   45.2744 H   0  0  0  0  0  0  0  0  0  0  0  0
   59.2604   24.0854   44.9957 H   0  0  0  0  0  0  0  0  0  0  0  0
   59.2318   27.3957   46.2825 H   0  0  0  0  0  0  0  0  0  0  0  0
   63.1799   30.7750   47.2781 H   0  0  0  0  0  0  0  0  0  0  0  0
   62.2146   31.7553   46.1003 H   0  0  0  0  0  0  0  0  0  0  0  0
   63.0633   32.6237   48.5958 H   0  0  0  0  0  0  0  0  0  0  0  0
   61.6792   33.3084   47.6244 H   0  0  0  0  0  0  0  0  0  0  0  0
   62.1269   32.5957   51.0236 H   0  0  0  0  0  0  0  0  0  0  0  0
   61.5390   33.9918   50.0412 H   0  0  0  0  0  0  0  0  0  0  0  0
   60.8974   34.3255   52.7554 H   0  0  0  0  0  0  0  0  0  0  0  0
   58.7895   34.4496   54.0858 H   0  0  0  0  0  0  0  0  0  0  0  0
   56.7474   33.2374   53.3108 H   0  0  0  0  0  0  0  0  0  0  0  0
   56.8086   31.9106   51.1977 H   0  0  0  0  0  0  0  0  0  0  0  0
   58.9113   31.7835   49.8588 H   0  0  0  0  0  0  0  0  0  0  0  0
   62.3230   30.4506   49.8236 H   0  0  0  0  0  0  0  0  0  0  0  0
   60.6850   30.4895   50.5481 H   0  0  0  0  0  0  0  0  0  0  0  0
   61.1698   28.7831   48.6063 H   0  0  0  0  0  0  0  0  0  0  0  0
   59.6471   29.7554   48.5556 H   0  0  0  0  0  0  0  0  0  0  0  0
   58.9093   31.5424   45.0711 H   0  0  0  0  0  0  0  0  0  0  0  0
   56.4867   31.2151   44.6007 H   0  0  0  0  0  0  0  0  0  0  0  0
  1  2  1  0
  2  3  2  0
  3  4  1  0
  4  5  2  0
  5  6  1  0
  6  7  2  0
  7  8  1  0
  8  9  1  0
  9 10  2  0
  9 11  2  0
  9 12  1  0
 12 13  2  0
 13 14  1  0
 14 15  1  0
 15 16  2  0
 15 17  1  0
 17 18  1  0
 18 19  1  0
 19 20  1  0
 20 21  1  0
 21 22  1  0
 22 23  2  0
 23 24  1  0
 24 25  2  0
 25 26  1  0
 26 27  2  0
 20 28  1  0
 28 29  1  0
 14 30  2  0
 30 31  1  0
 31 32  2  0
 32 33  1  0
  7  2  1  0
 32 12  1  0
 29 17  1  0
 27 22  1  0
  1 34  1  0
  1 35  1  0
  1 36  1  0
  3 37  1  0
  4 38  1  0
  5 39  1  0
  6 40  1  0
 13 41  1  0
 18 42  1  0
 18 43  1  0
 19 44  1  0
 19 45  1  0
 21 46  1  0
 21 47  1  0
 23 48  1  0
 24 49  1  0
 25 50  1  0
 26 51  1  0
 27 52  1  0
 28 53  1  0
 28 54  1  0
 29 55  1  0
 29 56  1  0
 30 57  1  0
 31 58  1  0
M  CHG  2   8  -1  33  -1
M  END
>  <UniqueID>  (53) 
51

>  <SMILES>  (53) 
Cc1ccccc1[N-]S(=O)(=O)c1cc(C(=O)N2CCN(Cc3ccccc3)CC2)ccc1[O-]

>  <Energy>  (53) 
81.28052069343606

>  <Genealogy>  (53) 
Cc1ccccc1[N-]S(=O)(=O)c1cc(C(=O)N2CCN(Cc3ccccc3)CC2)ccc1[O-] (protonated)
Cc1ccccc1[N-]S(=O)(=O)c1cc(C(=O)N2CCN(Cc3ccccc3)CC2)ccc1[O-] (3D coordinates assigned)
Cc1ccccc1[N-]S(=O)(=O)c1cc(C(=O)N2CCN(Cc3ccccc3)CC2)ccc1[O-] (nonaromatic ring conformer: 81.28052069343606 kcal/mol)

>  <smiles>  (53) 
Cc1ccccc1NS(=O)(=O)c1cc(C(=O)N2CCN(Cc3ccccc3)CC2)ccc1O

>  <score_type>  (53) 
oracle

>  <origin>  (53) 
adg

>  <m_score__min__energy>  (53) 
-13.699999999999999

>  <m_primary>  (53) 
energy

$$$$
53:0
     RDKit          3D

 44 46  0  0  0  0  0  0  0  0999 V2000
   54.8130   26.2860   45.9790 N   0  0  0  0  0  0  0  0  0  0  0  0
   56.3600   25.5770   46.2830 S   0  0  0  0  0  0  0  0  0  0  0  0
   56.2990   24.7930   47.5640 O   0  0  0  0  0  0  0  0  0  0  0  0
   56.7160   24.6450   45.1590 O   0  0  0  0  0  0  0  0  0  0  0  0
   57.5770   26.8430   46.4040 C   0  0  0  0  0  0  0  0  0  0  0  0
   58.4980   26.8510   47.4600 C   0  0  0  0  0  0  0  0  0  0  0  0
   59.4470   27.8720   47.5550 C   0  0  0  0  0  0  0  0  0  0  0  0
   59.4830   28.8880   46.5980 C   0  0  0  0  0  0  0  0  0  0  0  0
   58.5750   28.8820   45.5250 C   0  0  0  0  0  0  0  0  0  0  0  0
   58.5420   29.9370   44.5560 N   0  0  0  0  0  0  0  0  0  0  0  0
   57.3680   30.4530   43.9200 C   0  0  0  0  0  0  0  0  0  0  0  0
   56.9770   29.9860   42.8170 O   0  0  0  0  0  0  0  0  0  0  0  0
   56.6360   31.5920   44.5540 C   0  0  0  0  0  0  0  0  0  0  0  0
   57.5700   32.6980   44.7640 N   0  0  0  0  0  0  0  0  0  0  0  0
   57.9590   33.2040   45.9450 C   0  0  0  0  0  0  0  0  0  0  0  0
   57.3720   32.9000   47.1680 O   0  0  0  0  0  0  0  0  0  0  0  0
   59.0610   34.0070   45.7520 C   0  0  0  0  0  0  0  0  0  0  0  0
   59.9100   34.6080   46.8290 C   0  0  0  0  0  0  0  0  0  0  0  0
   61.0740   33.6930   47.1510 C   0  0  0  0  0  0  0  0  0  0  0  0
   62.2840   33.8790   46.4550 C   0  0  0  0  0  0  0  0  0  0  0  0
   63.4200   33.1390   46.7870 C   0  0  0  0  0  0  0  0  0  0  0  0
   63.3700   32.2110   47.8240 C   0  0  0  0  0  0  0  0  0  0  0  0
   62.1820   32.0130   48.5290 C   0  0  0  0  0  0  0  0  0  0  0  0
   61.0240   32.7380   48.2020 C   0  0  0  0  0  0  0  0  0  0  0  0
   59.8270   32.5050   48.9650 N   0  0  0  0  0  0  0  0  0  0  0  0
   59.3130   33.4260   49.6320 O   0  0  0  0  0  0  0  0  0  0  0  0
   59.1200   31.3390   48.7900 O   0  0  0  0  0  0  0  0  0  0  0  0
   59.3920   34.0010   44.4420 N   0  0  0  0  0  0  0  0  0  0  0  0
   58.4650   33.1930   43.8820 C   0  0  0  0  0  0  0  0  0  0  0  0
   58.4680   32.8990   42.6570 O   0  0  0  0  0  0  0  0  0  0  0  0
   57.6140   27.8660   45.4460 C   0  0  0  0  0  0  0  0  0  0  0  0
   54.7110   27.0920   46.6360 H   0  0  0  0  0  0  0  0  0  0  0  0
   58.4738   26.0519   48.2156 H   0  0  0  0  0  0  0  0  0  0  0  0
   60.1677   27.8754   48.3860 H   0  0  0  0  0  0  0  0  0  0  0  0
   60.2245   29.6959   46.6840 H   0  0  0  0  0  0  0  0  0  0  0  0
   55.8191   31.9190   43.8939 H   0  0  0  0  0  0  0  0  0  0  0  0
   56.2139   31.2728   45.5183 H   0  0  0  0  0  0  0  0  0  0  0  0
   60.2957   35.5799   46.4874 H   0  0  0  0  0  0  0  0  0  0  0  0
   59.2991   34.7428   47.7338 H   0  0  0  0  0  0  0  0  0  0  0  0
   62.3345   34.6161   45.6401 H   0  0  0  0  0  0  0  0  0  0  0  0
   64.3559   33.2891   46.2288 H   0  0  0  0  0  0  0  0  0  0  0  0
   64.2681   31.6332   48.0878 H   0  0  0  0  0  0  0  0  0  0  0  0
   62.1520   31.2812   49.3497 H   0  0  0  0  0  0  0  0  0  0  0  0
   56.8819   27.8708   44.6251 H   0  0  0  0  0  0  0  0  0  0  0  0
  1  2  1  0
  2  3  2  0
  2  4  2  0
  2  5  1  0
  5  6  2  0
  6  7  1  0
  7  8  2  0
  8  9  1  0
  9 10  1  0
 10 11  1  0
 11 12  2  0
 11 13  1  0
 13 14  1  0
 14 15  1  0
 15 16  1  0
 15 17  2  0
 17 18  1  0
 18 19  1  0
 19 20  2  0
 20 21  1  0
 21 22  2  0
 22 23  1  0
 23 24  2  0
 24 25  1  0
 25 26  2  0
 25 27  1  0
 17 28  1  0
 28 29  1  0
 29 30  2  0
  9 31  2  0
 31  5  1  0
 29 14  1  0
 24 19  1  0
  1 32  1  0
  6 33  1  0
  7 34  1  0
  8 35  1  0
 13 36  1  0
 13 37  1  0
 18 38  1  0
 18 39  1  0
 20 40  1  0
 21 41  1  0
 22 42  1  0
 23 43  1  0
 31 44  1  0
M  CHG  6   1  -1  10  -1  16  -1  25   1  27  -1  28  -1
M  END
>  <UniqueID>  (54) 
52

>  <SMILES>  (54) 
[NH-]S(=O)(=O)c1cccc([N-]C(=O)Cn2c([O-])c(Cc3ccccc3[N+](=O)[O-])[n-]c2=O)c1

>  <Energy>  (54) 
80.85293888501593

>  <Genealogy>  (54) 
[NH-]S(=O)(=O)c1cccc([N-]C(=O)Cn2c([O-])c(Cc3ccccc3[N+](=O)[O-])[n-]c2=O)c1 (protonated)
[NH-]S(=O)(=O)c1cccc([N-]C(=O)Cn2c([O-])c(Cc3ccccc3[N+](=O)[O-])[n-]c2=O)c1 (3D coordinates assigned)
[NH-]S(=O)(=O)c1cccc([N-]C(=O)Cn2c([O-])c(Cc3ccccc3[N+](=O)[O-])[n-]c2=O)c1 (optimized conformer: 80.85293888501593 kcal/mol)

>  <smiles>  (54) 
NS(=O)(=O)c1cccc(NC(=O)Cn2c(O)c(Cc3ccccc3[N+](=O)[O-])[nH]c2=O)c1

>  <score_type>  (54) 
oracle

>  <origin>  (54) 
adg

>  <m_score__min__energy>  (54) 
-15.65

>  <m_primary>  (54) 
energy

$$$$
54:0
     RDKit          3D

 54 57  0  0  0  0  0  0  0  0999 V2000
   59.8790   26.3230   47.0390 O   0  0  0  0  0  0  0  0  0  0  0  0
   58.7160   26.8050   47.1110 C   0  0  0  0  0  0  0  0  0  0  0  0
   58.4900   28.0300   47.8360 N   0  0  0  0  0  0  0  0  0  0  0  0
   59.5390   28.8160   48.4270 C   0  0  0  0  0  0  0  0  0  0  0  0
   60.1910   28.3360   49.5720 C   0  0  0  0  0  0  0  0  0  0  0  0
   61.1920   29.0920   50.1840 C   0  0  0  0  0  0  0  0  0  0  0  0
   61.5450   30.3400   49.6670 C   0  0  0  0  0  0  0  0  0  0  0  0
   60.8960   30.8410   48.5310 C   0  0  0  0  0  0  0  0  0  0  0  0
   61.3550   32.4150   47.8730 S   0  0  0  0  0  0  0  0  0  0  0  0
   61.3720   32.3170   46.3730 O   0  0  0  0  0  0  0  0  0  0  0  0
   62.7490   32.7500   48.3250 O   0  0  0  0  0  0  0  0  0  0  0  0
   60.2620   33.7040   48.3410 N   0  0  0  0  0  0  0  0  0  0  0  0
   58.9720   33.2120   48.8630 C   0  0  0  0  0  0  0  0  0  0  0  0
   57.9940   32.7600   47.7580 C   0  0  0  0  0  0  0  0  0  0  0  0
   58.4350   33.2040   46.4230 N   0  0  0  0  0  0  0  0  0  0  0  0
   57.4690   32.8880   45.3500 C   0  0  0  0  0  0  0  0  0  0  0  0
   57.4760   31.4360   44.9340 C   0  0  0  0  0  0  0  0  0  0  0  0
   58.6650   30.6900   44.9480 C   0  0  0  0  0  0  0  0  0  0  0  0
   58.6370   29.3510   44.5530 C   0  0  0  0  0  0  0  0  0  0  0  0
   57.4340   28.7680   44.1540 C   0  0  0  0  0  0  0  0  0  0  0  0
   56.2690   29.5380   44.1580 C   0  0  0  0  0  0  0  0  0  0  0  0
   56.3150   30.8400   44.5450 N   0  0  0  0  0  0  0  0  0  0  0  0
   58.8650   34.6080   46.4410 C   0  0  0  0  0  0  0  0  0  0  0  0
   60.1270   34.7570   47.3110 C   0  0  0  0  0  0  0  0  0  0  0  0
   59.8820   30.0840   47.9220 C   0  0  0  0  0  0  0  0  0  0  0  0
   57.6010   26.0860   46.4490 C   0  0  0  0  0  0  0  0  0  0  0  0
   57.8690   24.9660   45.6440 C   0  0  0  0  0  0  0  0  0  0  0  0
   56.8260   24.2800   45.0200 C   0  0  0  0  0  0  0  0  0  0  0  0
   55.5120   24.7120   45.2140 C   0  0  0  0  0  0  0  0  0  0  0  0
   54.5590   24.1060   44.6590 O   0  0  0  0  0  0  0  0  0  0  0  0
   55.2620   25.7850   46.0080 N   0  0  0  0  0  0  0  0  0  0  0  0
   56.2600   26.4730   46.6240 C   0  0  0  0  0  0  0  0  0  0  0  0
   57.5120   28.3540   47.9990 H   0  0  0  0  0  0  0  0  0  0  0  0
   59.9118   27.3577   49.9904 H   0  0  0  0  0  0  0  0  0  0  0  0
   61.7044   28.7034   51.0764 H   0  0  0  0  0  0  0  0  0  0  0  0
   62.3349   30.9315   50.1530 H   0  0  0  0  0  0  0  0  0  0  0  0
   59.1680   32.3564   49.5260 H   0  0  0  0  0  0  0  0  0  0  0  0
   58.4964   34.0500   49.3936 H   0  0  0  0  0  0  0  0  0  0  0  0
   57.9309   31.6618   47.7654 H   0  0  0  0  0  0  0  0  0  0  0  0
   57.0128   33.2131   47.9628 H   0  0  0  0  0  0  0  0  0  0  0  0
   56.4596   33.1423   45.7057 H   0  0  0  0  0  0  0  0  0  0  0  0
   57.7644   33.4760   44.4685 H   0  0  0  0  0  0  0  0  0  0  0  0
   59.6092   31.1555   45.2669 H   0  0  0  0  0  0  0  0  0  0  0  0
   59.5625   28.7565   44.5564 H   0  0  0  0  0  0  0  0  0  0  0  0
   57.4035   27.7142   43.8400 H   0  0  0  0  0  0  0  0  0  0  0  0
   55.3133   29.0904   43.8477 H   0  0  0  0  0  0  0  0  0  0  0  0
   59.0886   34.9344   45.4146 H   0  0  0  0  0  0  0  0  0  0  0  0
   58.0597   35.2287   46.8607 H   0  0  0  0  0  0  0  0  0  0  0  0
   61.0089   34.7171   46.6547 H   0  0  0  0  0  0  0  0  0  0  0  0
   60.0434   35.7178   47.8400 H   0  0  0  0  0  0  0  0  0  0  0  0
   59.3526   30.4846   47.0449 H   0  0  0  0  0  0  0  0  0  0  0  0
   58.9065   24.6280   45.5048 H   0  0  0  0  0  0  0  0  0  0  0  0
   57.0365   23.4087   44.3824 H   0  0  0  0  0  0  0  0  0  0  0  0
   56.0177   27.3358   47.2618 H   0  0  0  0  0  0  0  0  0  0  0  0
  1  2  2  0
  2  3  1  0
  3  4  1  0
  4  5  2  0
  5  6  1  0
  6  7  2  0
  7  8  1  0
  8  9  1  0
  9 10  2  0
  9 11  2  0
  9 12  1  0
 12 13  1  0
 13 14  1  0
 14 15  1  0
 15 16  1  0
 16 17  1  0
 17 18  2  0
 18 19  1  0
 19 20  2  0
 20 21  1  0
 21 22  2  0
 15 23  1  0
 23 24  1  0
  8 25  2  0
  2 26  1  0
 26 27  1  0
 27 28  2  0
 28 29  1  0
 29 30  2  0
 29 31  1  0
 31 32  1  0
 25  4  1  0
 32 26  2  0
 24 12  1  0
 22 17  1  0
  3 33  1  0
  5 34  1  0
  6 35  1  0
  7 36  1  0
 13 37  1  0
 13 38  1  0
 14 39  1  0
 14 40  1  0
 16 41  1  0
 16 42  1  0
 18 43  1  0
 19 44  1  0
 20 45  1  0
 21 46  1  0
 23 47  1  0
 23 48  1  0
 24 49  1  0
 24 50  1  0
 25 51  1  0
 27 52  1  0
 28 53  1  0
 32 54  1  0
M  CHG  1  31  -1
M  END
>  <UniqueID>  (55) 
53

>  <SMILES>  (55) 
O=C(Nc1cccc(S(=O)(=O)N2CCN(Cc3ccccn3)CC2)c1)c1ccc(=O)[n-]c1

>  <Energy>  (55) 
76.32700058453338

>  <Genealogy>  (55) 
O=C(Nc1cccc(S(=O)(=O)N2CCN(Cc3ccccn3)CC2)c1)c1ccc(=O)[n-]c1 (protonated)
O=C(Nc1cccc(S(=O)(=O)N2CCN(Cc3ccccn3)CC2)c1)c1ccc(=O)[n-]c1 (3D coordinates assigned)
O=C(Nc1cccc(S(=O)(=O)N2CCN(Cc3ccccn3)CC2)c1)c1ccc(=O)[n-]c1 (nonaromatic ring conformer: 76.32700058453338 kcal/mol)

>  <smiles>  (55) 
O=C(Nc1cccc(S(=O)(=O)N2CCN(Cc3ccccn3)CC2)c1)c1ccc(=O)[nH]c1

>  <score_type>  (55) 
oracle

>  <origin>  (55) 
adg

>  <m_score__min__energy>  (55) 
-11.32

>  <m_primary>  (55) 
energy

$$$$
55:0
     RDKit          3D

 39 41  0  0  0  0  0  0  0  0999 V2000
   56.8390   33.8280   46.5570 H   0  0  0  0  0  0  0  0  0  0  0  0
   57.3820   34.4250   45.8950 N   0  0  0  0  0  0  0  0  0  0  0  0
   58.5550   33.4060   45.1430 S   0  0  0  0  0  0  0  0  0  0  0  0
   59.4250   34.2260   44.2310 O   0  0  0  0  0  0  0  0  0  0  0  0
   59.4220   32.7770   46.1980 O   0  0  0  0  0  0  0  0  0  0  0  0
   57.7380   32.1510   44.2170 C   0  0  0  0  0  0  0  0  0  0  0  0
   57.7030   32.2180   42.8180 C   0  0  0  0  0  0  0  0  0  0  0  0
   58.2069   33.0446   42.2956 H   0  0  0  0  0  0  0  0  0  0  0  0
   57.0300   31.2380   42.0850 C   0  0  0  0  0  0  0  0  0  0  0  0
   56.9999   31.2978   40.9870 H   0  0  0  0  0  0  0  0  0  0  0  0
   56.3950   30.1820   42.7430 C   0  0  0  0  0  0  0  0  0  0  0  0
   55.8546   29.4202   42.1620 H   0  0  0  0  0  0  0  0  0  0  0  0
   56.4440   30.0890   44.1460 C   0  0  0  0  0  0  0  0  0  0  0  0
   55.7690   29.0430   44.8650 N   0  0  0  0  0  0  0  0  0  0  0  0
   56.3200   28.0380   45.4820 C   0  0  0  0  0  0  0  0  0  0  0  0
   55.5620   26.9530   45.7870 N   0  0  0  0  0  0  0  0  0  0  0  0
   56.0780   25.8850   46.4510 C   0  0  0  0  0  0  0  0  0  0  0  0
   55.2230   24.7700   46.7280 N   0  0  0  0  0  0  0  0  0  0  0  0
   55.7340   23.1140   46.8090 S   0  0  0  0  0  0  0  0  0  0  0  0
   56.9420   23.0170   47.6990 O   0  0  0  0  0  0  0  0  0  0  0  0
   54.6270   22.2850   47.3950 O   0  0  0  0  0  0  0  0  0  0  0  0
   56.1030   22.5140   45.1960 C   0  0  0  0  0  0  0  0  0  0  0  0
   56.1800   23.4060   44.1160 C   0  0  0  0  0  0  0  0  0  0  0  0
   56.0031   24.4796   44.2775 H   0  0  0  0  0  0  0  0  0  0  0  0
   56.4810   22.9340   42.8350 C   0  0  0  0  0  0  0  0  0  0  0  0
   56.5440   23.6366   41.9910 H   0  0  0  0  0  0  0  0  0  0  0  0
   56.7020   21.5690   42.6260 C   0  0  0  0  0  0  0  0  0  0  0  0
   56.9405   21.1988   41.6180 H   0  0  0  0  0  0  0  0  0  0  0  0
   56.6200   20.6750   43.6970 C   0  0  0  0  0  0  0  0  0  0  0  0
   56.7914   19.6012   43.5311 H   0  0  0  0  0  0  0  0  0  0  0  0
   56.3200   21.1450   44.9800 C   0  0  0  0  0  0  0  0  0  0  0  0
   56.2541   20.4395   45.8214 H   0  0  0  0  0  0  0  0  0  0  0  0
   57.4250   25.9090   46.8430 C   0  0  0  0  0  0  0  0  0  0  0  0
   57.8687   25.0594   47.3828 H   0  0  0  0  0  0  0  0  0  0  0  0
   58.1890   27.0340   46.5330 C   0  0  0  0  0  0  0  0  0  0  0  0
   59.4000   27.0900   46.8720 O   0  0  0  0  0  0  0  0  0  0  0  0
   57.6260   28.0730   45.8670 N   0  0  0  0  0  0  0  0  0  0  0  0
   57.0920   31.0940   44.8760 C   0  0  0  0  0  0  0  0  0  0  0  0
   57.0944   31.0541   45.9753 H   0  0  0  0  0  0  0  0  0  0  0  0
  1  2  1  0
  2  3  1  0
  3  4  2  0
  3  5  2  0
  3  6  1  0
  6  7  2  0
  7  8  1  0
  7  9  1  0
  9 10  1  0
  9 11  2  0
 11 12  1  0
 11 13  1  0
 13 14  1  0
 14 15  2  0
 15 16  1  0
 16 17  1  0
 17 18  1  0
 18 19  1  0
 19 20  2  0
 19 21  2  0
 19 22  1  0
 22 23  2  0
 23 24  1  0
 23 25  1  0
 25 26  1  0
 25 27  2  0
 27 28  1  0
 27 29  1  0
 29 30  1  0
 29 31  2  0
 31 32  1  0
 17 33  2  0
 33 34  1  0
 33 35  1  0
 35 36  2  0
 35 37  1  0
 13 38  2  0
 38 39  1  0
 38  6  1  0
 37 15  1  0
 31 22  1  0
M  CHG  4   2  -1  16  -1  18  -1  37  -1
M  END
>  <UniqueID>  (56) 
54

>  <SMILES>  (56) 
[NH-]S(=O)(=O)c1cccc(/N=c2/[n-]c([N-]S(=O)(=O)c3ccccc3)cc(=O)[n-]2)c1

>  <Energy>  (56) 
52.14434501551208

>  <Genealogy>  (56) 
[NH-]S(=O)(=O)c1cccc(N=c2[n-]c([N-]S(=O)(=O)c3ccccc3)cc(=O)[n-]2)c1 (protonated)
[NH-]S(=O)(=O)c1cccc(/N=c2/[n-]c([N-]S(=O)(=O)c3ccccc3)cc(=O)[n-]2)c1 (cis-trans isomerization)
[NH-]S(=O)(=O)c1cccc(/N=c2/[n-]c([N-]S(=O)(=O)c3ccccc3)cc(=O)[n-]2)c1 (3D coordinates assigned)
[NH-]S(=O)(=O)c1cccc(/N=c2/[n-]c([N-]S(=O)(=O)c3ccccc3)cc(=O)[n-]2)c1 (optimized conformer: 52.14434501551208 kcal/mol)

>  <smiles>  (56) 
NS(=O)(=O)c1cccc(N=c2[nH]c(NS(=O)(=O)c3ccccc3)cc(=O)[nH]2)c1

>  <score_type>  (56) 
oracle

>  <origin>  (56) 
adg

>  <m_score__min__energy>  (56) 
-14.880000000000001

>  <m_primary>  (56) 
energy

$$$$
56:0
     RDKit          3D

 26 28  0  0  0  0  0  0  0  0999 V2000
   52.8022   23.4618   45.7727 H   0  0  0  0  0  0  0  0  0  0  0  0
   53.8150   23.8270   45.5470 C   0  0  0  0  0  0  0  0  0  0  0  0
   54.2010   25.0630   45.9660 N   0  0  0  0  0  0  0  0  0  0  0  0
   55.4470   25.5560   45.7080 C   0  0  0  0  0  0  0  0  0  0  0  0
   55.8070   26.7400   46.1130 N   0  0  0  0  0  0  0  0  0  0  0  0
   57.1410   27.2790   46.1960 C   0  0  0  0  0  0  0  0  0  0  0  0
   58.1340   26.5670   46.7950 N   0  0  0  0  0  0  0  0  0  0  0  0
   59.4000   27.0420   46.8920 C   0  0  0  0  0  0  0  0  0  0  0  0
   60.2890   26.3530   47.4540 O   0  0  0  0  0  0  0  0  0  0  0  0
   59.7090   28.2600   46.3840 N   0  0  0  0  0  0  0  0  0  0  0  0
   58.7670   29.0230   45.7730 C   0  0  0  0  0  0  0  0  0  0  0  0
   59.1230   30.2750   45.2600 C   0  0  0  0  0  0  0  0  0  0  0  0
   60.1592   30.6320   45.3543 H   0  0  0  0  0  0  0  0  0  0  0  0
   58.1670   31.0720   44.6290 C   0  0  0  0  0  0  0  0  0  0  0  0
   58.4510   32.0558   44.2271 H   0  0  0  0  0  0  0  0  0  0  0  0
   56.8510   30.6230   44.5070 C   0  0  0  0  0  0  0  0  0  0  0  0
   56.1025   31.2564   44.0085 H   0  0  0  0  0  0  0  0  0  0  0  0
   56.4760   29.3730   45.0140 C   0  0  0  0  0  0  0  0  0  0  0  0
   55.1520   28.9710   44.8660 O   0  0  0  0  0  0  0  0  0  0  0  0
   57.4360   28.5530   45.6570 C   0  0  0  0  0  0  0  0  0  0  0  0
   56.3620   24.7730   44.9930 C   0  0  0  0  0  0  0  0  0  0  0  0
   57.3707   25.1560   44.7788 H   0  0  0  0  0  0  0  0  0  0  0  0
   55.9840   23.5020   44.5540 C   0  0  0  0  0  0  0  0  0  0  0  0
   56.6951   22.8800   43.9906 H   0  0  0  0  0  0  0  0  0  0  0  0
   54.7030   23.0220   44.8310 C   0  0  0  0  0  0  0  0  0  0  0  0
   54.3969   22.0221   44.4895 H   0  0  0  0  0  0  0  0  0  0  0  0
  1  2  1  0
  2  3  1  0
  3  4  1  0
  4  5  2  0
  5  6  1  0
  6  7  2  0
  7  8  1  0
  8  9  2  0
  8 10  1  0
 10 11  1  0
 11 12  2  0
 12 13  1  0
 12 14  1  0
 14 15  1  0
 14 16  2  0
 16 17  1  0
 16 18  1  0
 18 19  1  0
 18 20  2  0
  4 21  1  0
 21 22  1  0
 21 23  2  0
 23 24  1  0
 23 25  1  0
 25 26  1  0
 25  2  2  0
 20  6  1  0
 20 11  1  0
M  CHG  3   3  -1  10  -1  19  -1
M  END
>  <UniqueID>  (57) 
55

>  <SMILES>  (57) 
O=c1nc(/N=c2/cccc[n-]2)c2c([O-])cccc2[n-]1

>  <Energy>  (57) 
39.575550794257616

>  <Genealogy>  (57) 
O=c1nc(N=c2cccc[n-]2)c2c([O-])cccc2[n-]1 (protonated)
O=c1nc(/N=c2/cccc[n-]2)c2c([O-])cccc2[n-]1 (cis-trans isomerization)
O=c1nc(/N=c2/cccc[n-]2)c2c([O-])cccc2[n-]1 (3D coordinates assigned)
O=c1nc(/N=c2/cccc[n-]2)c2c([O-])cccc2[n-]1 (optimized conformer: 39.575550794257616 kcal/mol)

>  <smiles>  (57) 
O=c1nc(N=c2cccc[nH]2)c2c(O)cccc2[nH]1

>  <score_type>  (57) 
oracle

>  <origin>  (57) 
adg

>  <m_score__min__energy>  (57) 
-13.449999999999999

>  <m_primary>  (57) 
energy

$$$$
57:0
     RDKit          3D

 44 45  0  0  0  0  0  0  0  0999 V2000
   58.3360   30.4100   49.4970 H   0  0  0  0  0  0  0  0  0  0  0  0
   58.9090   30.1200   48.6910 N   0  0  0  0  0  0  0  0  0  0  0  0
   59.4010   30.9670   47.8570 C   0  0  0  0  0  0  0  0  0  0  0  0
   60.0840   30.3280   46.3130 S   0  0  0  0  0  0  0  0  0  0  0  0
   59.2580   28.7330   46.4140 C   0  0  0  0  0  0  0  0  0  0  0  0
   59.9730   27.6280   46.8910 C   0  0  0  0  0  0  0  0  0  0  0  0
   61.0244   27.7450   47.1924 H   0  0  0  0  0  0  0  0  0  0  0  0
   59.3580   26.3780   46.9860 C   0  0  0  0  0  0  0  0  0  0  0  0
   59.9255   25.5126   47.3589 H   0  0  0  0  0  0  0  0  0  0  0  0
   58.0240   26.2270   46.6080 C   0  0  0  0  0  0  0  0  0  0  0  0
   57.5443   25.2392   46.6721 H   0  0  0  0  0  0  0  0  0  0  0  0
   57.2950   27.3270   46.1480 C   0  0  0  0  0  0  0  0  0  0  0  0
   56.2453   27.2000   45.8447 H   0  0  0  0  0  0  0  0  0  0  0  0
   57.8980   28.5970   46.0710 C   0  0  0  0  0  0  0  0  0  0  0  0
   57.1790   29.7400   45.5790 N   0  0  0  0  0  0  0  0  0  0  0  0
   56.2970   29.7790   44.4510 C   0  0  0  0  0  0  0  0  0  0  0  0
   55.1260   29.3210   44.5290 O   0  0  0  0  0  0  0  0  0  0  0  0
   56.7370   30.4610   43.2000 C   0  0  0  0  0  0  0  0  0  0  0  0
   57.3169   31.3598   43.4569 H   0  0  0  0  0  0  0  0  0  0  0  0
   57.3641   29.7762   42.6102 H   0  0  0  0  0  0  0  0  0  0  0  0
   55.8546   30.7501   42.6102 H   0  0  0  0  0  0  0  0  0  0  0  0
   59.4640   32.4470   48.2110 C   0  0  2  0  0  0  0  0  0  0  0  0
   60.5166   32.7584   48.1404 H   0  0  0  0  0  0  0  0  0  0  0  0
   59.0570   32.7300   49.6440 C   0  0  0  0  0  0  0  0  0  0  0  0
   59.8420   33.3610   50.4020 O   0  0  0  0  0  0  0  0  0  0  0  0
   57.7980   32.2920   50.1750 N   0  0  0  0  0  0  0  0  0  0  0  0
   57.5930   31.6650   51.2980 C   0  0  0  0  0  0  0  0  0  0  0  0
   57.3390   30.3280   51.2550 N   0  0  0  0  0  0  0  0  0  0  0  0
   57.1280   29.5910   52.3760 C   0  0  0  0  0  0  0  0  0  0  0  0
   56.9319   28.5116   52.2957 H   0  0  0  0  0  0  0  0  0  0  0  0
   57.1600   30.2030   53.6300 C   0  0  0  0  0  0  0  0  0  0  0  0
   57.0018   29.6103   54.5431 H   0  0  0  0  0  0  0  0  0  0  0  0
   57.3950   31.5750   53.7110 C   0  0  0  0  0  0  0  0  0  0  0  0
   57.4173   32.0721   54.6920 H   0  0  0  0  0  0  0  0  0  0  0  0
   57.6020   32.3180   52.5470 C   0  0  0  0  0  0  0  0  0  0  0  0
   57.7706   33.4035   52.6043 H   0  0  0  0  0  0  0  0  0  0  0  0
   58.6620   33.2580   47.2190 C   0  0  0  0  0  0  0  0  0  0  0  0
   58.7600   34.5150   47.2330 O   0  0  0  0  0  0  0  0  0  0  0  0
   57.8230   32.6190   46.2440 N   0  0  0  0  0  0  0  0  0  0  0  0
   57.7560   31.5780   46.2190 H   0  0  0  0  0  0  0  0  0  0  0  0
   57.0550   33.3870   45.2720 C   0  0  0  0  0  0  0  0  0  0  0  0
   56.3728   34.0692   45.8003 H   0  0  0  0  0  0  0  0  0  0  0  0
   57.7414   33.9708   44.6411 H   0  0  0  0  0  0  0  0  0  0  0  0
   56.4712   32.7006   44.6411 H   0  0  0  0  0  0  0  0  0  0  0  0
  1  2  1  0
  2  3  2  0
  3  4  1  0
  4  5  1  0
  5  6  2  0
  6  7  1  0
  6  8  1  0
  8  9  1  0
  8 10  2  0
 10 11  1  0
 10 12  1  0
 12 13  1  0
 12 14  2  0
 14 15  1  0
 15 16  1  0
 16 17  2  0
 16 18  1  0
 18 19  1  0
 18 20  1  0
 18 21  1  0
  3 22  1  0
 22 23  1  1
 22 24  1  0
 24 25  2  0
 24 26  1  0
 26 27  2  3
 27 28  1  0
 28 29  1  0
 29 30  1  0
 29 31  2  0
 31 32  1  0
 31 33  1  0
 33 34  1  0
 33 35  2  0
 35 36  1  0
 22 37  1  0
 37 38  2  0
 37 39  1  0
 39 40  1  0
 39 41  1  0
 41 42  1  0
 41 43  1  0
 41 44  1  0
 14  5  1  0
 35 27  1  0
M  CHG  2  15  -1  28  -1
M  END
>  <UniqueID>  (58) 
56

>  <SMILES>  (58) 
[H]/N=C(/Sc1ccccc1[N-]C(C)=O)[C@H](C(=O)N=c1cccc[n-]1)C(=O)NC

>  <Energy>  (58) 
48.18967086645655

>  <Genealogy>  (58) 
CNC(=O)C(C(=N)Sc1ccccc1[N-]C(C)=O)C(=O)N=c1cccc[n-]1 (protonated)
CNC(=O)[C@H](C(=N)Sc1ccccc1[N-]C(C)=O)C(=O)N=c1cccc[n-]1 (chirality)
[H]/N=C(/Sc1ccccc1[N-]C(C)=O)[C@H](C(=O)N=c1cccc[n-]1)C(=O)NC (cis-trans isomerization)
[H]/N=C(/Sc1ccccc1[N-]C(C)=O)[C@H](C(=O)N=c1cccc[n-]1)C(=O)NC (3D coordinates assigned)
[H]/N=C(/Sc1ccccc1[N-]C(C)=O)[C@H](C(=O)N=c1cccc[n-]1)C(=O)NC (optimized conformer: 48.18967086645655 kcal/mol)

>  <smiles>  (58) 
CNC(=O)C(C(=N)Sc1ccccc1NC(C)=O)C(=O)N=c1cccc[nH]1

>  <score_type>  (58) 
oracle

>  <origin>  (58) 
adg

>  <m_score__min__energy>  (58) 
-10.699999999999999

>  <m_primary>  (58) 
energy

$$$$
58:0
     RDKit          3D

 54 57  0  0  0  0  0  0  0  0999 V2000
   55.0370   31.5620   50.8870 H   0  0  0  0  0  0  0  0  0  0  0  0
   54.2340   31.1080   51.2560 O   0  0  0  0  0  0  0  0  0  0  0  0
   54.6720   30.3390   52.3420 C   0  0  0  0  0  0  0  0  0  0  0  0
   54.1612   29.3649   52.3279 H   0  0  0  0  0  0  0  0  0  0  0  0
   54.4389   30.8695   53.2770 H   0  0  0  0  0  0  0  0  0  0  0  0
   56.1530   30.1240   52.2550 C   0  0  0  0  0  0  0  0  0  0  0  0
   56.8560   30.7130   51.2510 N   0  0  0  0  0  0  0  0  0  0  0  0
   58.2010   30.5470   51.1060 C   0  0  0  0  0  0  0  0  0  0  0  0
   58.8520   31.1200   50.1340 N   0  0  0  0  0  0  0  0  0  0  0  0
   59.7100   32.2690   50.2320 C   0  0  0  0  0  0  0  0  0  0  0  0
   59.4090   33.1790   51.0480 O   0  0  0  0  0  0  0  0  0  0  0  0
   60.9280   32.4310   49.4050 C   0  0  0  0  0  0  0  0  0  0  0  0
   61.9860   31.5230   49.5800 C   0  0  0  0  0  0  0  0  0  0  0  0
   61.9070   30.7325   50.3408 H   0  0  0  0  0  0  0  0  0  0  0  0
   63.1370   31.6170   48.7950 C   0  0  0  0  0  0  0  0  0  0  0  0
   63.9585   30.8994   48.9371 H   0  0  0  0  0  0  0  0  0  0  0  0
   63.2470   32.6190   47.8310 C   0  0  0  0  0  0  0  0  0  0  0  0
   64.1477   32.6804   47.2026 H   0  0  0  0  0  0  0  0  0  0  0  0
   62.2150   33.5440   47.6630 C   0  0  0  0  0  0  0  0  0  0  0  0
   62.3097   34.3369   46.9065 H   0  0  0  0  0  0  0  0  0  0  0  0
   61.0590   33.4690   48.4520 C   0  0  0  0  0  0  0  0  0  0  0  0
   59.7980   34.7370   48.2400 S   0  0  0  0  0  0  0  0  0  0  0  0
   59.1100   33.9500   46.7840 C   0  0  0  0  0  0  0  0  0  0  0  0
   58.8730   34.7000   45.6270 C   0  0  0  0  0  0  0  0  0  0  0  0
   59.1165   35.7725   45.6080 H   0  0  0  0  0  0  0  0  0  0  0  0
   58.3280   34.0890   44.4970 C   0  0  0  0  0  0  0  0  0  0  0  0
   58.1434   34.6809   43.5884 H   0  0  0  0  0  0  0  0  0  0  0  0
   58.0160   32.7260   44.5170 C   0  0  0  0  0  0  0  0  0  0  0  0
   57.5794   32.2522   43.6255 H   0  0  0  0  0  0  0  0  0  0  0  0
   58.2570   31.9570   45.6700 C   0  0  0  0  0  0  0  0  0  0  0  0
   57.9360   30.5070   45.6920 C   0  0  0  0  0  0  0  0  0  0  0  0
   57.0380   29.9600   44.7560 C   0  0  0  0  0  0  0  0  0  0  0  0
   56.5754   30.6100   43.9987 H   0  0  0  0  0  0  0  0  0  0  0  0
   56.7300   28.5970   44.7820 C   0  0  0  0  0  0  0  0  0  0  0  0
   56.0270   28.1806   44.0456 H   0  0  0  0  0  0  0  0  0  0  0  0
   57.3120   27.7590   45.7410 C   0  0  0  0  0  0  0  0  0  0  0  0
   56.9180   26.0430   45.7580 S   0  0  0  0  0  0  0  0  0  0  0  0
   55.4520   25.8680   46.0430 O   0  0  0  0  0  0  0  0  0  0  0  0
   57.7050   25.3420   46.8300 O   0  0  0  0  0  0  0  0  0  0  0  0
   57.2990   25.3420   44.2230 N   0  0  0  0  0  0  0  0  0  0  0  0
   56.9280   25.9910   43.4910 H   0  0  0  0  0  0  0  0  0  0  0  0
   58.3400   25.3550   44.1350 H   0  0  0  0  0  0  0  0  0  0  0  0
   58.2130   28.2950   46.6710 C   0  0  0  0  0  0  0  0  0  0  0  0
   58.6796   27.6404   47.4219 H   0  0  0  0  0  0  0  0  0  0  0  0
   58.5210   29.6580   46.6480 C   0  0  0  0  0  0  0  0  0  0  0  0
   59.2270   30.0701   47.3840 H   0  0  0  0  0  0  0  0  0  0  0  0
   58.8110   32.5820   46.8030 C   0  0  0  0  0  0  0  0  0  0  0  0
   59.0105   31.9918   47.7096 H   0  0  0  0  0  0  0  0  0  0  0  0
   58.8910   29.7200   52.0010 C   0  0  0  0  0  0  0  0  0  0  0  0
   59.9753   29.5695   51.8933 H   0  0  0  0  0  0  0  0  0  0  0  0
   58.1920   29.0880   53.0310 C   0  0  0  0  0  0  0  0  0  0  0  0
   58.7249   28.4374   53.7400 H   0  0  0  0  0  0  0  0  0  0  0  0
   56.8150   29.2830   53.1600 C   0  0  0  0  0  0  0  0  0  0  0  0
   56.2557   28.7817   53.9637 H   0  0  0  0  0  0  0  0  0  0  0  0
  1  2  1  0
  2  3  1  0
  3  4  1  0
  3  5  1  0
  3  6  1  0
  6  7  1  0
  7  8  1  0
  8  9  2  0
  9 10  1  0
 10 11  2  0
 10 12  1  0
 12 13  2  0
 13 14  1  0
 13 15  1  0
 15 16  1  0
 15 17  2  0
 17 18  1  0
 17 19  1  0
 19 20  1  0
 19 21  2  0
 21 22  1  0
 22 23  1  0
 23 24  2  0
 24 25  1  0
 24 26  1  0
 26 27  1  0
 26 28  2  0
 28 29  1  0
 28 30  1  0
 30 31  1  0
 31 32  2  0
 32 33  1  0
 32 34  1  0
 34 35  1  0
 34 36  2  0
 36 37  1  0
 37 38  2  0
 37 39  2  0
 37 40  1  0
 40 41  1  0
 40 42  1  0
 36 43  1  0
 43 44  1  0
 43 45  2  0
 45 46  1  0
 30 47  2  0
 47 48  1  0
  8 49  1  0
 49 50  1  0
 49 51  2  0
 51 52  1  0
 51 53  1  0
 53 54  1  0
 53  6  2  0
 21 12  1  0
 47 23  1  0
 45 31  1  0
M  CHG  1   7  -1
M  END
>  <UniqueID>  (59) 
57

>  <SMILES>  (59) 
NS(=O)(=O)c1ccc(-c2cccc(Sc3ccccc3C(=O)/N=c3/cccc(CO)[n-]3)c2)cc1

>  <Energy>  (59) 
65.71031241320769

>  <Genealogy>  (59) 
NS(=O)(=O)c1ccc(-c2cccc(Sc3ccccc3C(=O)N=c3cccc(CO)[n-]3)c2)cc1 (protonated)
NS(=O)(=O)c1ccc(-c2cccc(Sc3ccccc3C(=O)/N=c3/cccc(CO)[n-]3)c2)cc1 (cis-trans isomerization)
NS(=O)(=O)c1ccc(-c2cccc(Sc3ccccc3C(=O)/N=c3/cccc(CO)[n-]3)c2)cc1 (3D coordinates assigned)
NS(=O)(=O)c1ccc(-c2cccc(Sc3ccccc3C(=O)/N=c3/cccc(CO)[n-]3)c2)cc1 (optimized conformer: 65.71031241320769 kcal/mol)

>  <smiles>  (59) 
NS(=O)(=O)c1ccc(-c2cccc(Sc3ccccc3C(=O)N=c3cccc(CO)[nH]3)c2)cc1

>  <score_type>  (59) 
oracle

>  <origin>  (59) 
adg

>  <m_score__min__energy>  (59) 
-13.42

>  <m_primary>  (59) 
energy

$$$$
59:0
     RDKit          3D

 45 47  0  0  0  0  0  0  0  0999 V2000
   56.7157   28.1413   44.7580 H   0  0  0  0  0  0  0  0  0  0  0  0
   57.1600   29.0310   45.2280 C   0  0  0  0  0  0  0  0  0  0  0  0
   56.8540   30.2670   44.7630 N   0  0  0  0  0  0  0  0  0  0  0  0
   57.3980   31.3820   45.3220 C   0  0  0  0  0  0  0  0  0  0  0  0
   57.0980   32.5710   44.8860 N   0  0  0  0  0  0  0  0  0  0  0  0
   57.7350   33.7980   45.2740 C   0  0  0  0  0  0  0  0  0  0  0  0
   57.2340   34.8850   44.8820 O   0  0  0  0  0  0  0  0  0  0  0  0
   58.9200   33.8290   46.1660 C   0  0  0  0  0  0  0  0  0  0  0  0
   58.7540   33.8090   47.5600 C   0  0  0  0  0  0  0  0  0  0  0  0
   57.7415   33.7789   47.9889 H   0  0  0  0  0  0  0  0  0  0  0  0
   59.8660   33.8270   48.4070 C   0  0  0  0  0  0  0  0  0  0  0  0
   59.7210   33.8271   49.4974 H   0  0  0  0  0  0  0  0  0  0  0  0
   61.1680   33.8450   47.8770 C   0  0  0  0  0  0  0  0  0  0  0  0
   62.3380   33.8700   48.7890 C   0  0  0  0  0  0  0  0  0  0  0  0
   62.6740   34.9580   49.3320 O   0  0  0  0  0  0  0  0  0  0  0  0
   63.0820   32.6770   49.0780 N   0  0  0  0  0  0  0  0  0  0  0  0
   62.7260   31.7450   48.7700 H   0  0  0  0  0  0  0  0  0  0  0  0
   64.3110   32.7160   49.8610 C   0  0  0  0  0  0  0  0  0  0  0  0
   64.0634   32.7081   50.9327 H   0  0  0  0  0  0  0  0  0  0  0  0
   64.9270   31.8370   49.6206 H   0  0  0  0  0  0  0  0  0  0  0  0
   64.8700   33.6323   49.6206 H   0  0  0  0  0  0  0  0  0  0  0  0
   61.3330   33.8590   46.4800 C   0  0  0  0  0  0  0  0  0  0  0  0
   62.3451   33.8835   46.0498 H   0  0  0  0  0  0  0  0  0  0  0  0
   60.2200   33.8420   45.6350 C   0  0  0  0  0  0  0  0  0  0  0  0
   60.3635   33.8388   44.5444 H   0  0  0  0  0  0  0  0  0  0  0  0
   58.2440   31.2580   46.3770 N   0  0  0  0  0  0  0  0  0  0  0  0
   58.5790   30.0400   46.8870 C   0  0  0  0  0  0  0  0  0  0  0  0
   59.4860   29.9640   48.0040 N   0  0  0  0  0  0  0  0  0  0  0  0
   60.8490   30.3460   47.9530 C   0  0  0  0  0  0  0  0  0  0  0  0
   61.3580   31.0200   47.0190 O   0  0  0  0  0  0  0  0  0  0  0  0
   61.5720   29.8770   49.0210 O   0  0  0  0  0  0  0  0  0  0  0  0
   60.7330   29.0870   49.8530 C   0  0  0  0  0  0  0  0  0  0  0  0
   61.0430   28.0321   49.8198 H   0  0  0  0  0  0  0  0  0  0  0  0
   60.7869   29.4053   50.9046 H   0  0  0  0  0  0  0  0  0  0  0  0
   59.2940   29.2500   49.2740 C   0  0  1  0  0  0  0  0  0  0  0  0
   58.7823   28.2875   49.1266 H   0  0  0  0  0  0  0  0  0  0  0  0
   58.4080   30.0590   50.2510 C   0  0  2  0  0  0  0  0  0  0  0  0
   57.4488   29.5250   50.3197 H   0  0  0  0  0  0  0  0  0  0  0  0
   58.2500   31.3470   49.7650 F   0  0  0  0  0  0  0  0  0  0  0  0
   58.9920   30.1530   51.6590 C   0  0  0  0  0  0  0  0  0  0  0  0
   58.1882   30.0236   52.3987 H   0  0  0  0  0  0  0  0  0  0  0  0
   59.7469   29.3648   51.7962 H   0  0  0  0  0  0  0  0  0  0  0  0
   59.4615   31.1383   51.7962 H   0  0  0  0  0  0  0  0  0  0  0  0
   58.0370   28.8870   46.3010 C   0  0  0  0  0  0  0  0  0  0  0  0
   58.2991   27.8885   46.6810 H   0  0  0  0  0  0  0  0  0  0  0  0
  1  2  1  0
  2  3  1  0
  3  4  1  0
  4  5  2  0
  5  6  1  0
  6  7  2  0
  6  8  1  0
  8  9  2  0
  9 10  1  0
  9 11  1  0
 11 12  1  0
 11 13  2  0
 13 14  1  0
 14 15  2  0
 14 16  1  0
 16 17  1  0
 16 18  1  0
 18 19  1  0
 18 20  1  0
 18 21  1  0
 13 22  1  0
 22 23  1  0
 22 24  2  0
 24 25  1  0
  4 26  1  0
 26 27  2  0
 27 28  1  0
 28 29  1  0
 29 30  2  0
 29 31  1  0
 31 32  1  0
 32 33  1  0
 32 34  1  0
 32 35  1  0
 35 36  1  6
 35 37  1  0
 37 38  1  1
 37 39  1  0
 37 40  1  0
 40 41  1  0
 40 42  1  0
 40 43  1  0
 27 44  1  0
 44 45  1  0
 44  2  2  0
 24  8  1  0
 35 28  1  0
M  CHG  1   3  -1
M  END
>  <UniqueID>  (60) 
58

>  <SMILES>  (60) 
CNC(=O)c1ccc(C(=O)/N=c2/nc(N3C(=O)OC[C@H]3[C@@H](C)F)cc[n-]2)cc1

>  <Energy>  (60) 
70.87546016984221

>  <Genealogy>  (60) 
CNC(=O)c1ccc(C(=O)N=c2nc(N3C(=O)OCC3C(C)F)cc[n-]2)cc1 (protonated)
CNC(=O)c1ccc(C(=O)N=c2nc(N3C(=O)OC[C@H]3[C@@H](C)F)cc[n-]2)cc1 (chirality)
CNC(=O)c1ccc(C(=O)/N=c2/nc(N3C(=O)OC[C@H]3[C@@H](C)F)cc[n-]2)cc1 (cis-trans isomerization)
CNC(=O)c1ccc(C(=O)/N=c2/nc(N3C(=O)OC[C@H]3[C@@H](C)F)cc[n-]2)cc1 (3D coordinates assigned)
CNC(=O)c1ccc(C(=O)/N=c2/nc(N3C(=O)OC[C@H]3[C@@H](C)F)cc[n-]2)cc1 (nonaromatic ring conformer: 70.87546016984221 kcal/mol)

>  <smiles>  (60) 
CNC(=O)c1ccc(C(=O)N=c2nc(N3C(=O)OCC3C(C)F)cc[nH]2)cc1

>  <score_type>  (60) 
oracle

>  <origin>  (60) 
adg

>  <m_score__min__energy>  (60) 
-9.2400000000000002

>  <m_primary>  (60) 
energy

$$$$
60:0
     RDKit          3D

 50 53  0  0  0  0  0  0  0  0999 V2000
   60.0470   32.9000   51.9080 C   0  0  0  0  0  0  0  0  0  0  0  0
   60.1930   33.8420   50.7220 C   0  0  0  0  0  0  0  0  0  0  0  0
   60.2800   33.0870   49.4680 N   0  0  0  0  0  0  0  0  0  0  0  0
   61.4770   33.1190   48.6680 C   0  0  0  0  0  0  0  0  0  0  0  0
   61.4850   33.7910   47.4330 C   0  0  0  0  0  0  0  0  0  0  0  0
   62.6490   33.8350   46.6600 C   0  0  0  0  0  0  0  0  0  0  0  0
   63.8130   33.2110   47.1120 C   0  0  0  0  0  0  0  0  0  0  0  0
   63.8170   32.5410   48.3390 C   0  0  0  0  0  0  0  0  0  0  0  0
   62.6550   32.4950   49.1150 C   0  0  0  0  0  0  0  0  0  0  0  0
   58.9300   32.1140   48.9600 S   0  0  0  0  0  0  0  0  0  0  0  0
   59.3020   30.6600   49.0440 O   0  0  0  0  0  0  0  0  0  0  0  0
   57.7620   32.3450   49.8790 O   0  0  0  0  0  0  0  0  0  0  0  0
   58.4680   32.5230   47.3100 C   0  0  0  0  0  0  0  0  0  0  0  0
   58.2660   33.8600   46.9420 C   0  0  0  0  0  0  0  0  0  0  0  0
   57.9520   34.1850   45.6230 C   0  0  0  0  0  0  0  0  0  0  0  0
   57.8470   33.1790   44.6600 C   0  0  0  0  0  0  0  0  0  0  0  0
   58.0370   31.8320   45.0080 C   0  0  0  0  0  0  0  0  0  0  0  0
   57.9490   30.8300   43.9790 N   0  0  0  0  0  0  0  0  0  0  0  0
   56.7850   29.5390   43.9610 S   0  0  0  0  0  0  0  0  0  0  0  0
   55.5070   30.0320   44.5800 O   0  0  0  0  0  0  0  0  0  0  0  0
   56.5110   29.1280   42.5400 O   0  0  0  0  0  0  0  0  0  0  0  0
   57.3670   28.1710   44.9020 C   0  0  0  0  0  0  0  0  0  0  0  0
   58.7500   27.8650   44.9190 C   0  0  0  0  0  0  0  0  0  0  0  0
   59.2280   26.7540   45.6400 C   0  0  0  0  0  0  0  0  0  0  0  0
   58.2970   25.9820   46.3300 C   0  0  0  0  0  0  0  0  0  0  0  0
   58.5330   24.9070   47.0950 N   0  0  0  0  0  0  0  0  0  0  0  0
   57.2830   24.5860   47.5180 C   0  0  0  0  0  0  0  0  0  0  0  0
   57.0630   23.6110   48.2800 O   0  0  0  0  0  0  0  0  0  0  0  0
   56.2890   25.3930   47.0640 N   0  0  0  0  0  0  0  0  0  0  0  0
   56.9660   26.2700   46.3120 C   0  0  0  0  0  0  0  0  0  0  0  0
   56.4550   27.3540   45.6040 C   0  0  0  0  0  0  0  0  0  0  0  0
   58.3350   31.5110   46.3470 C   0  0  0  0  0  0  0  0  0  0  0  0
   60.1356   33.4718   52.8435 H   0  0  0  0  0  0  0  0  0  0  0  0
   59.0624   32.4112   51.8689 H   0  0  0  0  0  0  0  0  0  0  0  0
   60.8375   32.1360   51.8689 H   0  0  0  0  0  0  0  0  0  0  0  0
   59.3198   34.5097   50.6816 H   0  0  0  0  0  0  0  0  0  0  0  0
   61.1158   34.4275   50.8470 H   0  0  0  0  0  0  0  0  0  0  0  0
   60.5704   34.2848   47.0731 H   0  0  0  0  0  0  0  0  0  0  0  0
   62.6476   34.3620   45.6944 H   0  0  0  0  0  0  0  0  0  0  0  0
   64.7278   33.2465   46.5022 H   0  0  0  0  0  0  0  0  0  0  0  0
   64.7349   32.0497   48.6941 H   0  0  0  0  0  0  0  0  0  0  0  0
   62.6624   31.9678   50.0804 H   0  0  0  0  0  0  0  0  0  0  0  0
   58.3555   34.6557   47.6962 H   0  0  0  0  0  0  0  0  0  0  0  0
   57.7868   35.2352   45.3405 H   0  0  0  0  0  0  0  0  0  0  0  0
   57.6131   33.4445   43.6185 H   0  0  0  0  0  0  0  0  0  0  0  0
   58.5530   30.9230   43.1320 H   0  0  0  0  0  0  0  0  0  0  0  0
   59.4562   28.5004   44.3645 H   0  0  0  0  0  0  0  0  0  0  0  0
   60.2992   26.5047   45.6575 H   0  0  0  0  0  0  0  0  0  0  0  0
   55.3759   27.5669   45.5920 H   0  0  0  0  0  0  0  0  0  0  0  0
   58.4645   30.4587   46.6400 H   0  0  0  0  0  0  0  0  0  0  0  0
  1  2  1  0
  2  3  1  0
  3  4  1  0
  4  5  2  0
  5  6  1  0
  6  7  2  0
  7  8  1  0
  8  9  2  0
  3 10  1  0
 10 11  2  0
 10 12  2  0
 10 13  1  0
 13 14  2  0
 14 15  1  0
 15 16  2  0
 16 17  1  0
 17 18  1  0
 18 19  1  0
 19 20  2  0
 19 21  2  0
 19 22  1  0
 22 23  2  0
 23 24  1  0
 24 25  2  0
 25 26  1  0
 26 27  1  0
 27 28  2  0
 27 29  1  0
 29 30  1  0
 30 31  2  0
 17 32  2  0
  9  4  1  0
 32 13  1  0
 31 22  1  0
 30 25  1  0
  1 33  1  0
  1 34  1  0
  1 35  1  0
  2 36  1  0
  2 37  1  0
  5 38  1  0
  6 39  1  0
  7 40  1  0
  8 41  1  0
  9 42  1  0
 14 43  1  0
 15 44  1  0
 16 45  1  0
 18 46  1  0
 23 47  1  0
 24 48  1  0
 31 49  1  0
 32 50  1  0
M  CHG  2  26  -1  29  -1
M  END
>  <UniqueID>  (61) 
59

>  <SMILES>  (61) 
CCN(c1ccccc1)S(=O)(=O)c1cccc(NS(=O)(=O)c2ccc3[n-]c(=O)[n-]c3c2)c1

>  <Energy>  (61) 
91.34322435454493

>  <Genealogy>  (61) 
CCN(c1ccccc1)S(=O)(=O)c1cccc(NS(=O)(=O)c2ccc3[n-]c(=O)[n-]c3c2)c1 (protonated)
CCN(c1ccccc1)S(=O)(=O)c1cccc(NS(=O)(=O)c2ccc3[n-]c(=O)[n-]c3c2)c1 (3D coordinates assigned)
CCN(c1ccccc1)S(=O)(=O)c1cccc(NS(=O)(=O)c2ccc3[n-]c(=O)[n-]c3c2)c1 (optimized conformer: 91.34322435454493 kcal/mol)

>  <smiles>  (61) 
CCN(c1ccccc1)S(=O)(=O)c1cccc(NS(=O)(=O)c2ccc3[nH]c(=O)[nH]c3c2)c1

>  <score_type>  (61) 
oracle

>  <origin>  (61) 
adg

>  <m_score__min__energy>  (61) 
-13.529999999999999

>  <m_primary>  (61) 
energy

$$$$
61:0
     RDKit          3D

 38 40  0  0  0  0  0  0  0  0999 V2000
   59.0000   26.3900   48.2380 O   0  0  0  0  0  0  0  0  0  0  0  0
   58.1890   26.7360   47.3380 C   0  0  0  0  0  0  0  0  0  0  0  0
   56.9080   26.0910   47.2860 N   0  0  0  0  0  0  0  0  0  0  0  0
   56.5130   25.1830   46.2810 N   0  0  0  0  0  0  0  0  0  0  0  0
   55.3120   25.3170   45.6350 C   0  0  0  0  0  0  0  0  0  0  0  0
   54.4270   26.3330   45.9780 O   0  0  0  0  0  0  0  0  0  0  0  0
   54.9510   24.4140   44.6360 C   0  0  0  0  0  0  0  0  0  0  0  0
   55.8160   23.3650   44.3400 C   0  0  0  0  0  0  0  0  0  0  0  0
   55.5190   22.5300   43.4450 O   0  0  0  0  0  0  0  0  0  0  0  0
   56.9780   23.2360   45.0260 N   0  0  0  0  0  0  0  0  0  0  0  0
   57.3270   24.1240   45.9920 C   0  0  0  0  0  0  0  0  0  0  0  0
   58.4170   23.9710   46.6080 O   0  0  0  0  0  0  0  0  0  0  0  0
   58.5920   27.7650   46.3510 C   0  0  0  0  0  0  0  0  0  0  0  0
   59.8860   27.7430   45.8010 C   0  0  0  0  0  0  0  0  0  0  0  0
   60.2790   28.7170   44.8800 C   0  0  0  0  0  0  0  0  0  0  0  0
   59.3840   29.7160   44.4910 C   0  0  0  0  0  0  0  0  0  0  0  0
   58.0850   29.7400   45.0130 C   0  0  0  0  0  0  0  0  0  0  0  0
   56.9570   30.9930   44.5090 S   0  0  0  0  0  0  0  0  0  0  0  0
   55.5750   30.4070   44.4510 O   0  0  0  0  0  0  0  0  0  0  0  0
   57.3220   31.5240   43.1510 O   0  0  0  0  0  0  0  0  0  0  0  0
   56.9720   32.2990   45.6500 N   0  0  0  0  0  0  0  0  0  0  0  0
   58.0610   33.2110   45.8520 C   0  0  0  0  0  0  0  0  0  0  0  0
   58.2400   34.3450   45.0360 C   0  0  0  0  0  0  0  0  0  0  0  0
   59.3160   35.2090   45.2550 C   0  0  0  0  0  0  0  0  0  0  0  0
   60.2190   34.9560   46.2890 C   0  0  0  0  0  0  0  0  0  0  0  0
   60.0490   33.8370   47.1070 C   0  0  0  0  0  0  0  0  0  0  0  0
   58.9740   32.9650   46.8930 C   0  0  0  0  0  0  0  0  0  0  0  0
   58.7920   31.5630   47.9370 Cl  0  0  0  0  0  0  0  0  0  0  0  0
   57.6910   28.7610   45.9360 C   0  0  0  0  0  0  0  0  0  0  0  0
   54.0014   24.5285   44.0927 H   0  0  0  0  0  0  0  0  0  0  0  0
   60.5929   26.9542   46.0977 H   0  0  0  0  0  0  0  0  0  0  0  0
   61.2956   28.6971   44.4603 H   0  0  0  0  0  0  0  0  0  0  0  0
   59.7005   30.4863   43.7724 H   0  0  0  0  0  0  0  0  0  0  0  0
   57.5292   34.5514   44.2223 H   0  0  0  0  0  0  0  0  0  0  0  0
   59.4518   36.0905   44.6112 H   0  0  0  0  0  0  0  0  0  0  0  0
   61.0648   35.6383   46.4595 H   0  0  0  0  0  0  0  0  0  0  0  0
   60.7613   33.6399   47.9217 H   0  0  0  0  0  0  0  0  0  0  0  0
   56.6676   28.7724   46.3391 H   0  0  0  0  0  0  0  0  0  0  0  0
  1  2  2  0
  2  3  1  0
  3  4  1  0
  4  5  1  0
  5  6  1  0
  5  7  2  0
  7  8  1  0
  8  9  2  0
  8 10  1  0
 10 11  1  0
 11 12  2  0
  2 13  1  0
 13 14  2  0
 14 15  1  0
 15 16  2  0
 16 17  1  0
 17 18  1  0
 18 19  2  0
 18 20  2  0
 18 21  1  0
 21 22  1  0
 22 23  2  0
 23 24  1  0
 24 25  2  0
 25 26  1  0
 26 27  2  0
 27 28  1  0
 17 29  2  0
 11  4  1  0
 29 13  1  0
 27 22  1  0
  7 30  1  0
 14 31  1  0
 15 32  1  0
 16 33  1  0
 23 34  1  0
 24 35  1  0
 25 36  1  0
 26 37  1  0
 29 38  1  0
M  CHG  4   3  -1   6  -1  10  -1  21  -1
M  END
>  <UniqueID>  (62) 
60

>  <SMILES>  (62) 
O=C([N-]n1c([O-])cc(=O)[n-]c1=O)c1cccc(S(=O)(=O)[N-]c2ccccc2Cl)c1

>  <Energy>  (62) 
54.85278618710668

>  <Genealogy>  (62) 
O=C([N-]n1c([O-])cc(=O)[n-]c1=O)c1cccc(S(=O)(=O)[N-]c2ccccc2Cl)c1 (protonated)
O=C([N-]n1c([O-])cc(=O)[n-]c1=O)c1cccc(S(=O)(=O)[N-]c2ccccc2Cl)c1 (3D coordinates assigned)
O=C([N-]n1c([O-])cc(=O)[n-]c1=O)c1cccc(S(=O)(=O)[N-]c2ccccc2Cl)c1 (optimized conformer: 54.85278618710668 kcal/mol)

>  <smiles>  (62) 
O=C(Nn1c(O)cc(=O)[nH]c1=O)c1cccc(S(=O)(=O)Nc2ccccc2Cl)c1

>  <score_type>  (62) 
oracle

>  <origin>  (62) 
adg

>  <m_score__min__energy>  (62) 
-17.699999999999999

>  <m_primary>  (62) 
energy

$$$$
62:0
     RDKit          3D

 61 64  0  0  0  0  0  0  0  0999 V2000
   57.0960   30.3590   52.6670 C   0  0  0  0  0  0  0  0  0  0  0  0
   57.7860   29.7340   51.5890 O   0  0  0  0  0  0  0  0  0  0  0  0
   58.8170   30.3370   50.8510 C   0  0  0  0  0  0  0  0  0  0  0  0
   60.1740   30.1740   51.1790 C   0  0  0  0  0  0  0  0  0  0  0  0
   61.1630   30.7940   50.4130 C   0  0  0  0  0  0  0  0  0  0  0  0
   60.8190   31.5920   49.3050 C   0  0  0  0  0  0  0  0  0  0  0  0
   61.7970   32.2020   48.5010 O   0  0  0  0  0  0  0  0  0  0  0  0
   63.1770   32.3070   48.8440 C   0  0  0  0  0  0  0  0  0  0  0  0
   59.4560   31.7680   48.9800 C   0  0  0  0  0  0  0  0  0  0  0  0
   59.0460   32.6180   47.8370 C   0  0  0  0  0  0  0  0  0  0  0  0
   59.4410   33.9650   47.7700 C   0  0  0  0  0  0  0  0  0  0  0  0
   59.0460   34.7640   46.6930 C   0  0  0  0  0  0  0  0  0  0  0  0
   58.2510   34.2300   45.6770 C   0  0  0  0  0  0  0  0  0  0  0  0
   57.8380   32.8890   45.7330 C   0  0  0  0  0  0  0  0  0  0  0  0
   57.0210   32.2930   44.6200 C   0  0  0  0  0  0  0  0  0  0  0  0
   56.9330   30.8430   44.7860 N   0  0  0  0  0  0  0  0  0  0  0  0
   58.0290   29.9680   44.4690 C   0  0  0  0  0  0  0  0  0  0  0  0
   59.0990   30.4520   44.0080 O   0  0  0  0  0  0  0  0  0  0  0  0
   57.9360   28.5060   44.6980 C   0  0  0  0  0  0  0  0  0  0  0  0
   57.9390   27.9700   45.9990 C   0  0  0  0  0  0  0  0  0  0  0  0
   57.8610   26.5880   46.1940 C   0  0  0  0  0  0  0  0  0  0  0  0
   57.7830   25.7210   45.0950 C   0  0  0  0  0  0  0  0  0  0  0  0
   57.7040   24.2610   45.2990 C   0  0  0  0  0  0  0  0  0  0  0  0
   58.8980   23.5200   45.2880 C   0  0  0  0  0  0  0  0  0  0  0  0
   58.8740   22.1340   45.4520 C   0  0  0  0  0  0  0  0  0  0  0  0
   57.6590   21.4750   45.6320 C   0  0  0  0  0  0  0  0  0  0  0  0
   56.4660   22.1980   45.6590 C   0  0  0  0  0  0  0  0  0  0  0  0
   56.4710   23.5940   45.5030 C   0  0  0  0  0  0  0  0  0  0  0  0
   54.9350   24.4730   45.5960 S   0  0  0  0  0  0  0  0  0  0  0  0
   55.2220   26.1290   46.0010 N   0  0  0  0  0  0  0  0  0  0  0  0
   54.2230   24.3880   44.2750 O   0  0  0  0  0  0  0  0  0  0  0  0
   54.0610   23.8700   46.6600 O   0  0  0  0  0  0  0  0  0  0  0  0
   57.7460   26.2510   43.7970 C   0  0  0  0  0  0  0  0  0  0  0  0
   57.8240   27.6320   43.6010 C   0  0  0  0  0  0  0  0  0  0  0  0
   58.2400   32.0880   46.8150 C   0  0  0  0  0  0  0  0  0  0  0  0
   58.4700   31.1290   49.7520 C   0  0  0  0  0  0  0  0  0  0  0  0
   57.5001   29.9930   53.6224 H   0  0  0  0  0  0  0  0  0  0  0  0
   57.2305   31.4490   52.6056 H   0  0  0  0  0  0  0  0  0  0  0  0
   56.0246   30.1177   52.6056 H   0  0  0  0  0  0  0  0  0  0  0  0
   60.4580   29.5552   52.0430 H   0  0  0  0  0  0  0  0  0  0  0  0
   62.2219   30.6577   50.6778 H   0  0  0  0  0  0  0  0  0  0  0  0
   63.2831   32.3151   49.9388 H   0  0  0  0  0  0  0  0  0  0  0  0
   63.7244   31.4479   48.4289 H   0  0  0  0  0  0  0  0  0  0  0  0
   63.5881   33.2390   48.4289 H   0  0  0  0  0  0  0  0  0  0  0  0
   60.0642   34.3929   48.5691 H   0  0  0  0  0  0  0  0  0  0  0  0
   59.3624   35.8164   46.6459 H   0  0  0  0  0  0  0  0  0  0  0  0
   57.9471   34.8621   44.8296 H   0  0  0  0  0  0  0  0  0  0  0  0
   56.0092   32.7241   44.6396 H   0  0  0  0  0  0  0  0  0  0  0  0
   57.5034   32.5178   43.6573 H   0  0  0  0  0  0  0  0  0  0  0  0
   56.0810   30.4640   45.2520 H   0  0  0  0  0  0  0  0  0  0  0  0
   58.0031   28.6422   46.8674 H   0  0  0  0  0  0  0  0  0  0  0  0
   57.8608   26.1786   47.2150 H   0  0  0  0  0  0  0  0  0  0  0  0
   59.8593   24.0364   45.1490 H   0  0  0  0  0  0  0  0  0  0  0  0
   59.8135   21.5621   45.4392 H   0  0  0  0  0  0  0  0  0  0  0  0
   57.6407   20.3818   45.7531 H   0  0  0  0  0  0  0  0  0  0  0  0
   55.5122   21.6696   45.8039 H   0  0  0  0  0  0  0  0  0  0  0  0
   54.7720   26.7090   45.2580 H   0  0  0  0  0  0  0  0  0  0  0  0
   57.6554   25.5780   42.9316 H   0  0  0  0  0  0  0  0  0  0  0  0
   57.7976   28.0398   42.5797 H   0  0  0  0  0  0  0  0  0  0  0  0
   57.9209   31.0364   46.8626 H   0  0  0  0  0  0  0  0  0  0  0  0
   57.4096   31.2539   49.4875 H   0  0  0  0  0  0  0  0  0  0  0  0
  1  2  1  0
  2  3  1  0
  3  4  2  0
  4  5  1  0
  5  6  2  0
  6  7  1  0
  7  8  1  0
  6  9  1  0
  9 10  1  0
 10 11  2  0
 11 12  1  0
 12 13  2  0
 13 14  1  0
 14 15  1  0
 15 16  1  0
 16 17  1  0
 17 18  2  0
 17 19  1  0
 19 20  2  0
 20 21  1  0
 21 22  2  0
 22 23  1  0
 23 24  2  0
 24 25  1  0
 25 26  2  0
 26 27  1  0
 27 28  2  0
 28 29  1  0
 29 30  1  0
 29 31  2  0
 29 32  2  0
 22 33  1  0
 33 34  2  0
 14 35  2  0
  9 36  2  0
 36  3  1  0
 35 10  1  0
 34 19  1  0
 28 23  1  0
  1 37  1  0
  1 38  1  0
  1 39  1  0
  4 40  1  0
  5 41  1  0
  8 42  1  0
  8 43  1  0
  8 44  1  0
 11 45  1  0
 12 46  1  0
 13 47  1  0
 15 48  1  0
 15 49  1  0
 16 50  1  0
 20 51  1  0
 21 52  1  0
 24 53  1  0
 25 54  1  0
 26 55  1  0
 27 56  1  0
 30 57  1  0
 33 58  1  0
 34 59  1  0
 35 60  1  0
 36 61  1  0
M  CHG  1  30  -1
M  END
>  <UniqueID>  (63) 
61

>  <SMILES>  (63) 
COc1ccc(OC)c(-c2cccc(CNC(=O)c3ccc(-c4ccccc4S([NH-])(=O)=O)cc3)c2)c1

>  <Energy>  (63) 
78.98328847185168

>  <Genealogy>  (63) 
COc1ccc(OC)c(-c2cccc(CNC(=O)c3ccc(-c4ccccc4S([NH-])(=O)=O)cc3)c2)c1 (protonated)
COc1ccc(OC)c(-c2cccc(CNC(=O)c3ccc(-c4ccccc4S([NH-])(=O)=O)cc3)c2)c1 (3D coordinates assigned)
COc1ccc(OC)c(-c2cccc(CNC(=O)c3ccc(-c4ccccc4S([NH-])(=O)=O)cc3)c2)c1 (optimized conformer: 78.98328847185168 kcal/mol)

>  <smiles>  (63) 
COc1ccc(OC)c(-c2cccc(CNC(=O)c3ccc(-c4ccccc4S(N)(=O)=O)cc3)c2)c1

>  <score_type>  (63) 
oracle

>  <origin>  (63) 
adg

>  <m_score__min__energy>  (63) 
-12.42

>  <m_primary>  (63) 
energy

$$$$
63:0
     RDKit          3D

 53 55  0  0  0  0  0  0  0  0999 V2000
   54.8210   26.3000   45.9490 N   0  0  0  0  0  0  0  0  0  0  0  0
   56.4740   25.8810   46.2270 S   0  0  0  0  0  0  0  0  0  0  0  0
   56.5960   25.1420   47.5300 O   0  0  0  0  0  0  0  0  0  0  0  0
   56.9560   24.9880   45.1180 O   0  0  0  0  0  0  0  0  0  0  0  0
   57.4420   27.3500   46.2860 C   0  0  0  0  0  0  0  0  0  0  0  0
   57.2580   28.3620   45.3350 C   0  0  0  0  0  0  0  0  0  0  0  0
   57.9940   29.5470   45.4220 C   0  0  0  0  0  0  0  0  0  0  0  0
   58.9140   29.7290   46.4590 C   0  0  0  0  0  0  0  0  0  0  0  0
   59.1180   28.7190   47.4090 C   0  0  0  0  0  0  0  0  0  0  0  0
   60.0240   28.9470   48.5020 N   0  0  0  0  0  0  0  0  0  0  0  0
   60.5000   27.8900   49.3400 C   0  0  0  0  0  0  0  0  0  0  0  0
   60.9470   26.8280   48.8280 O   0  0  0  0  0  0  0  0  0  0  0  0
   60.3590   28.0000   50.8210 C   0  0  0  0  0  0  0  0  0  0  0  0
   60.4160   29.4090   51.1740 N   0  0  0  0  0  0  0  0  0  0  0  0
   59.3760   30.3500   50.8990 C   0  0  0  0  0  0  0  0  0  0  0  0
   58.1760   29.9710   50.8280 O   0  0  0  0  0  0  0  0  0  0  0  0
   59.7260   31.8020   50.7090 C   0  0  1  0  0  0  0  0  0  0  0  0
   61.2530   32.0240   50.9150 C   0  0  0  0  0  0  0  0  0  0  0  0
   62.0240   32.2290   49.6060 C   0  0  0  0  0  0  0  0  0  0  0  0
   61.3880   33.3520   48.8510 C   0  0  0  0  0  0  0  0  0  0  0  0
   62.1030   34.1850   48.2310 O   0  0  0  0  0  0  0  0  0  0  0  0
   59.9540   33.4520   48.8420 N   0  0  0  0  0  0  0  0  0  0  0  0
   59.2760   34.5700   48.1780 C   0  0  0  0  0  0  0  0  0  0  0  0
   58.7280   34.1290   46.8460 C   0  0  0  0  0  0  0  0  0  0  0  0
   57.5120   33.4300   46.7800 C   0  0  0  0  0  0  0  0  0  0  0  0
   57.0190   32.9870   45.5500 C   0  0  0  0  0  0  0  0  0  0  0  0
   57.7370   33.2350   44.3770 C   0  0  0  0  0  0  0  0  0  0  0  0
   58.9500   33.9280   44.4330 C   0  0  0  0  0  0  0  0  0  0  0  0
   59.4470   34.3710   45.6620 C   0  0  0  0  0  0  0  0  0  0  0  0
   59.1910   32.3000   49.3370 C   0  0  0  0  0  0  0  0  0  0  0  0
   58.3690   27.5300   47.3200 C   0  0  0  0  0  0  0  0  0  0  0  0
   54.7720   26.7170   44.9930 H   0  0  0  0  0  0  0  0  0  0  0  0
   56.5335   28.2239   44.5189 H   0  0  0  0  0  0  0  0  0  0  0  0
   57.8490   30.3388   44.6724 H   0  0  0  0  0  0  0  0  0  0  0  0
   59.4804   30.6693   46.5296 H   0  0  0  0  0  0  0  0  0  0  0  0
   60.2560   29.9310   48.7660 H   0  0  0  0  0  0  0  0  0  0  0  0
   59.3950   27.5747   51.1369 H   0  0  0  0  0  0  0  0  0  0  0  0
   61.1660   27.4470   51.3239 H   0  0  0  0  0  0  0  0  0  0  0  0
   59.2301   32.4170   51.4744 H   0  0  0  0  0  0  0  0  0  0  0  0
   61.3933   32.9149   51.5447 H   0  0  0  0  0  0  0  0  0  0  0  0
   61.6515   31.1130   51.3855 H   0  0  0  0  0  0  0  0  0  0  0  0
   63.0722   32.4780   49.8280 H   0  0  0  0  0  0  0  0  0  0  0  0
   61.9971   31.3082   49.0049 H   0  0  0  0  0  0  0  0  0  0  0  0
   58.4492   34.9220   48.8125 H   0  0  0  0  0  0  0  0  0  0  0  0
   59.9987   35.3835   48.0172 H   0  0  0  0  0  0  0  0  0  0  0  0
   56.9448   33.2302   47.7011 H   0  0  0  0  0  0  0  0  0  0  0  0
   56.0644   32.4423   45.5049 H   0  0  0  0  0  0  0  0  0  0  0  0
   57.3478   32.8849   43.4095 H   0  0  0  0  0  0  0  0  0  0  0  0
   59.5137   34.1248   43.5091 H   0  0  0  0  0  0  0  0  0  0  0  0
   60.4044   34.9111   45.7032 H   0  0  0  0  0  0  0  0  0  0  0  0
   58.1368   32.5929   49.4506 H   0  0  0  0  0  0  0  0  0  0  0  0
   59.2967   31.4811   48.6102 H   0  0  0  0  0  0  0  0  0  0  0  0
   58.5131   26.7367   48.0682 H   0  0  0  0  0  0  0  0  0  0  0  0
  1  2  1  0
  2  3  2  0
  2  4  2  0
  2  5  1  0
  5  6  2  0
  6  7  1  0
  7  8  2  0
  8  9  1  0
  9 10  1  0
 10 11  1  0
 11 12  2  0
 11 13  1  0
 13 14  1  0
 14 15  1  0
 15 16  2  0
 15 17  1  0
 17 18  1  0
 18 19  1  0
 19 20  1  0
 20 21  2  0
 20 22  1  0
 22 23  1  0
 23 24  1  0
 24 25  2  0
 25 26  1  0
 26 27  2  0
 27 28  1  0
 28 29  2  0
 22 30  1  0
  9 31  2  0
 31  5  1  0
 30 17  1  0
 29 24  1  0
  1 32  1  0
  6 33  1  0
  7 34  1  0
  8 35  1  0
 10 36  1  0
 13 37  1  0
 13 38  1  0
 17 39  1  1
 18 40  1  0
 18 41  1  0
 19 42  1  0
 19 43  1  0
 23 44  1  0
 23 45  1  0
 25 46  1  0
 26 47  1  0
 27 48  1  0
 28 49  1  0
 29 50  1  0
 30 51  1  0
 30 52  1  0
 31 53  1  0
M  CHG  2   1  -1  14  -1
M  END
>  <UniqueID>  (64) 
62

>  <SMILES>  (64) 
[NH-]S(=O)(=O)c1cccc(NC(=O)C[N-]C(=O)[C@H]2CCC(=O)N(Cc3ccccc3)C2)c1

>  <Energy>  (64) 
52.08853777897983

>  <Genealogy>  (64) 
[NH-]S(=O)(=O)c1cccc(NC(=O)C[N-]C(=O)C2CCC(=O)N(Cc3ccccc3)C2)c1 (protonated)
[NH-]S(=O)(=O)c1cccc(NC(=O)C[N-]C(=O)[C@H]2CCC(=O)N(Cc3ccccc3)C2)c1 (chirality)
[NH-]S(=O)(=O)c1cccc(NC(=O)C[N-]C(=O)[C@H]2CCC(=O)N(Cc3ccccc3)C2)c1 (3D coordinates assigned)
[NH-]S(=O)(=O)c1cccc(NC(=O)C[N-]C(=O)[C@H]2CCC(=O)N(Cc3ccccc3)C2)c1 (nonaromatic ring conformer: 52.08853777897983 kcal/mol)

>  <smiles>  (64) 
NS(=O)(=O)c1cccc(NC(=O)CNC(=O)C2CCC(=O)N(Cc3ccccc3)C2)c1

>  <score_type>  (64) 
oracle

>  <origin>  (64) 
adg

>  <m_score__min__energy>  (64) 
-13.609999999999999

>  <m_primary>  (64) 
energy

$$$$
64:0
     RDKit          3D

 57 59  0  0  0  0  0  0  0  0999 V2000
   62.8030   33.8530   46.4510 C   0  0  0  0  0  0  0  0  0  0  0  0
   63.7790   33.6420   47.6060 C   0  0  0  0  0  0  0  0  0  0  0  0
   63.2890   32.6600   48.5150 O   0  0  0  0  0  0  0  0  0  0  0  0
   62.0990   32.6840   49.2730 C   0  0  0  0  0  0  0  0  0  0  0  0
   61.0390   31.8660   48.8190 C   0  0  0  0  0  0  0  0  0  0  0  0
   61.2000   31.0200   47.5790 C   0  0  0  0  0  0  0  0  0  0  0  0
   61.1000   29.6030   47.9120 N   0  0  0  0  0  0  0  0  0  0  0  0
   59.8630   28.8840   47.9640 C   0  0  0  0  0  0  0  0  0  0  0  0
   59.3210   28.6580   49.0820 O   0  0  0  0  0  0  0  0  0  0  0  0
   59.2080   28.4160   46.7170 C   0  0  0  0  0  0  0  0  0  0  0  0
   58.2490   29.2310   46.0870 C   0  0  0  0  0  0  0  0  0  0  0  0
   57.6290   28.8220   44.8980 C   0  0  0  0  0  0  0  0  0  0  0  0
   56.4750   29.8930   44.1070 S   0  0  0  0  0  0  0  0  0  0  0  0
   56.7490   29.9560   42.6310 O   0  0  0  0  0  0  0  0  0  0  0  0
   55.0870   29.3670   44.3280 O   0  0  0  0  0  0  0  0  0  0  0  0
   56.6060   31.4870   44.7880 N   0  0  0  0  0  0  0  0  0  0  0  0
   57.7540   32.1840   44.2050 C   0  0  0  0  0  0  0  0  0  0  0  0
   58.3170   33.1530   45.2050 C   0  0  0  0  0  0  0  0  0  0  0  0
   59.1400   34.2100   44.7810 C   0  0  0  0  0  0  0  0  0  0  0  0
   59.6610   35.1160   45.7130 C   0  0  0  0  0  0  0  0  0  0  0  0
   59.3770   34.9600   47.0730 C   0  0  0  0  0  0  0  0  0  0  0  0
   58.5820   33.8960   47.5040 C   0  0  0  0  0  0  0  0  0  0  0  0
   58.0550   32.9910   46.5750 C   0  0  0  0  0  0  0  0  0  0  0  0
   57.9500   27.5800   44.3390 C   0  0  0  0  0  0  0  0  0  0  0  0
   58.8950   26.7590   44.9580 C   0  0  0  0  0  0  0  0  0  0  0  0
   59.5270   27.1690   46.1350 C   0  0  0  0  0  0  0  0  0  0  0  0
   60.4340   26.3360   46.7050 F   0  0  0  0  0  0  0  0  0  0  0  0
   59.8200   31.8440   49.5140 C   0  0  0  0  0  0  0  0  0  0  0  0
   59.6450   32.6210   50.6540 C   0  0  0  0  0  0  0  0  0  0  0  0
   60.6780   33.4310   51.1140 C   0  0  0  0  0  0  0  0  0  0  0  0
   61.9130   33.4830   50.4340 C   0  0  0  0  0  0  0  0  0  0  0  0
   62.9420   34.3210   50.8870 O   0  0  0  0  0  0  0  0  0  0  0  0
   64.2590   33.8920   51.2210 C   0  0  0  0  0  0  0  0  0  0  0  0
   61.8018   34.0695   46.8519 H   0  0  0  0  0  0  0  0  0  0  0  0
   63.1418   34.6986   45.8345 H   0  0  0  0  0  0  0  0  0  0  0  0
   62.7622   32.9429   45.8345 H   0  0  0  0  0  0  0  0  0  0  0  0
   64.7466   33.3083   47.2030 H   0  0  0  0  0  0  0  0  0  0  0  0
   63.8942   34.5934   48.1461 H   0  0  0  0  0  0  0  0  0  0  0  0
   60.4103   31.2794   46.8585 H   0  0  0  0  0  0  0  0  0  0  0  0
   62.1904   31.2141   47.1414 H   0  0  0  0  0  0  0  0  0  0  0  0
   57.9827   30.2007   46.5329 H   0  0  0  0  0  0  0  0  0  0  0  0
   55.7370   32.0060   44.5250 H   0  0  0  0  0  0  0  0  0  0  0  0
   58.5267   31.4507   43.9309 H   0  0  0  0  0  0  0  0  0  0  0  0
   57.4310   32.7320   43.3076 H   0  0  0  0  0  0  0  0  0  0  0  0
   59.3759   34.3262   43.7129 H   0  0  0  0  0  0  0  0  0  0  0  0
   60.2935   35.9502   45.3752 H   0  0  0  0  0  0  0  0  0  0  0  0
   59.7802   35.6761   47.8042 H   0  0  0  0  0  0  0  0  0  0  0  0
   58.3694   33.7687   48.5757 H   0  0  0  0  0  0  0  0  0  0  0  0
   57.4340   32.1508   46.9191 H   0  0  0  0  0  0  0  0  0  0  0  0
   57.4580   27.2504   43.4120 H   0  0  0  0  0  0  0  0  0  0  0  0
   59.1436   25.7828   44.5160 H   0  0  0  0  0  0  0  0  0  0  0  0
   58.9976   31.2080   49.1547 H   0  0  0  0  0  0  0  0  0  0  0  0
   58.6868   32.5950   51.1936 H   0  0  0  0  0  0  0  0  0  0  0  0
   60.5302   34.0385   52.0191 H   0  0  0  0  0  0  0  0  0  0  0  0
   64.3668   33.8569   52.3151 H   0  0  0  0  0  0  0  0  0  0  0  0
   64.4353   32.8900   50.8029 H   0  0  0  0  0  0  0  0  0  0  0  0
   64.9917   34.5979   50.8029 H   0  0  0  0  0  0  0  0  0  0  0  0
  1  2  1  0
  2  3  1  0
  3  4  1  0
  4  5  2  0
  5  6  1  0
  6  7  1  0
  7  8  1  0
  8  9  2  0
  8 10  1  0
 10 11  2  0
 11 12  1  0
 12 13  1  0
 13 14  2  0
 13 15  2  0
 13 16  1  0
 16 17  1  0
 17 18  1  0
 18 19  2  0
 19 20  1  0
 20 21  2  0
 21 22  1  0
 22 23  2  0
 12 24  2  0
 24 25  1  0
 25 26  2  0
 26 27  1  0
  5 28  1  0
 28 29  2  0
 29 30  1  0
 30 31  2  0
 31 32  1  0
 32 33  1  0
 31  4  1  0
 26 10  1  0
 23 18  1  0
  1 34  1  0
  1 35  1  0
  1 36  1  0
  2 37  1  0
  2 38  1  0
  6 39  1  0
  6 40  1  0
 11 41  1  0
 16 42  1  0
 17 43  1  0
 17 44  1  0
 19 45  1  0
 20 46  1  0
 21 47  1  0
 22 48  1  0
 23 49  1  0
 24 50  1  0
 25 51  1  0
 28 52  1  0
 29 53  1  0
 30 54  1  0
 33 55  1  0
 33 56  1  0
 33 57  1  0
M  CHG  1   7  -1
M  END
>  <UniqueID>  (65) 
63

>  <SMILES>  (65) 
CCOc1c(C[N-]C(=O)c2cc(S(=O)(=O)NCc3ccccc3)ccc2F)cccc1OC

>  <Energy>  (65) 
56.70915819929492

>  <Genealogy>  (65) 
CCOc1c(C[N-]C(=O)c2cc(S(=O)(=O)NCc3ccccc3)ccc2F)cccc1OC (protonated)
CCOc1c(C[N-]C(=O)c2cc(S(=O)(=O)NCc3ccccc3)ccc2F)cccc1OC (3D coordinates assigned)
CCOc1c(C[N-]C(=O)c2cc(S(=O)(=O)NCc3ccccc3)ccc2F)cccc1OC (optimized conformer: 56.70915819929492 kcal/mol)

>  <smiles>  (65) 
CCOc1c(CNC(=O)c2cc(S(=O)(=O)NCc3ccccc3)ccc2F)cccc1OC

>  <score_type>  (65) 
oracle

>  <origin>  (65) 
adg

>  <m_score__min__energy>  (65) 
-11.890000000000001

>  <m_primary>  (65) 
energy

$$$$
65:0
     RDKit          3D

 42 44  0  0  1  0  0  0  0  0999 V2000
   60.6600   29.0490   50.4840 C   0  0  0  0  0  0  0  0  0  0  0  0
   61.2410   28.3360   49.4130 O   0  0  0  0  0  0  0  0  0  0  0  0
   60.4810   27.8440   48.3500 C   0  0  0  0  0  0  0  0  0  0  0  0
   60.7870   26.6800   47.6960 C   0  0  0  0  0  0  0  0  0  0  0  0
   59.9750   26.2700   46.6510 C   0  0  0  0  0  0  0  0  0  0  0  0
   58.8720   26.9860   46.2400 C   0  0  0  0  0  0  0  0  0  0  0  0
   58.0430   26.6070   45.2040 O   0  0  0  0  0  0  0  0  0  0  0  0
   57.2000   25.5380   45.1480 C   0  0  0  0  0  0  0  0  0  0  0  0
   57.6870   24.3160   44.6700 C   0  0  0  0  0  0  0  0  0  0  0  0
   56.8710   23.2090   44.5950 C   0  0  0  0  0  0  0  0  0  0  0  0
   55.5620   23.2410   44.9780 C   0  0  0  0  0  0  0  0  0  0  0  0
   55.0580   24.4340   45.4550 C   0  0  0  0  0  0  0  0  0  0  0  0
   55.8730   25.5450   45.5290 C   0  0  0  0  0  0  0  0  0  0  0  0
   55.3240   26.7100   46.0090 O   0  0  0  0  0  0  0  0  0  0  0  0
   58.5620   28.1610   46.8970 C   0  0  0  0  0  0  0  0  0  0  0  0
   57.4290   28.9460   46.5150 N   0  0  0  0  0  0  0  0  0  0  0  0
   57.3020   29.5040   45.3700 C   0  0  0  0  0  0  0  0  0  0  0  0
   57.7510   30.7920   45.1690 C   0  0  0  0  0  0  0  0  0  0  0  0
   57.6060   31.3700   43.9400 C   0  0  0  0  0  0  0  0  0  0  0  0
   58.0580   32.7370   43.6460 C   0  0  0  0  0  0  0  0  0  0  0  0
   57.0120   30.6360   42.9410 C   0  0  0  0  0  0  0  0  0  0  0  0
   56.8450   31.1150   41.7730 O   0  0  0  0  0  0  0  0  0  0  0  0
   56.5710   29.3660   43.1470 N   0  0  0  0  0  0  0  0  0  0  0  0
   56.7240   28.8200   44.3590 N   0  0  0  0  0  0  0  0  0  0  0  0
   59.3830   28.5720   47.9530 C   0  0  0  0  0  0  0  0  0  0  0  0
   61.0061   28.6243   51.4378 H   0  0  0  0  0  0  0  0  0  0  0  0
   60.9568   30.1065   50.4243 H   0  0  0  0  0  0  0  0  0  0  0  0
   59.5643   28.9718   50.4243 H   0  0  0  0  0  0  0  0  0  0  0  0
   61.6607   26.0822   47.9948 H   0  0  0  0  0  0  0  0  0  0  0  0
   60.2211   25.3342   46.1279 H   0  0  0  0  0  0  0  0  0  0  0  0
   58.7365   24.2386   44.3496 H   0  0  0  0  0  0  0  0  0  0  0  0
   57.2893   22.2661   44.2129 H   0  0  0  0  0  0  0  0  0  0  0  0
   54.9284   22.3445   44.9088 H   0  0  0  0  0  0  0  0  0  0  0  0
   54.0078   24.4991   45.7758 H   0  0  0  0  0  0  0  0  0  0  0  0
   55.9300   27.4060   46.4530 H   0  0  0  0  0  0  0  0  0  0  0  0
   58.2222   31.3496   45.9918 H   0  0  0  0  0  0  0  0  0  0  0  0
   58.2359   33.2751   44.5888 H   0  0  0  0  0  0  0  0  0  0  0  0
   58.9910   32.6976   43.0646 H   0  0  0  0  0  0  0  0  0  0  0  0
   57.2855   33.2616   43.0646 H   0  0  0  0  0  0  0  0  0  0  0  0
   56.1190   28.8100   42.3820 H   0  0  0  0  0  0  0  0  0  0  0  0
   56.3670   27.8330   44.4730 H   0  0  0  0  0  0  0  0  0  0  0  0
   59.1431   29.5061   48.4821 H   0  0  0  0  0  0  0  0  0  0  0  0
  1  2  1  0
  2  3  1  0
  3  4  2  0
  4  5  1  0
  5  6  2  0
  6  7  1  0
  7  8  1  0
  8  9  2  0
  9 10  1  0
 10 11  2  0
 11 12  1  0
 12 13  2  0
 13 14  1  0
  6 15  1  0
 15 16  1  0
 16 17  2  0
 17 18  1  0
 18 19  2  0
 19 20  1  0
 19 21  1  0
 21 22  2  0
 21 23  1  0
 23 24  1  0
 15 25  2  0
 25  3  1  0
 13  8  1  0
 24 17  1  0
  1 26  1  0
  1 27  1  0
  1 28  1  0
  4 29  1  0
  5 30  1  0
  9 31  1  0
 10 32  1  0
 11 33  1  0
 12 34  1  0
 14 35  1  0
 18 36  1  0
 20 37  1  0
 20 38  1  0
 20 39  1  0
 23 40  1  0
 24 41  1  0
 25 42  1  0
M  END
>  <smiles>  (66) 
COc1ccc(Oc2ccccc2O)c(N=c2cc(C)c(=O)[nH][nH]2)c1

>  <score_type>  (66) 
oracle

>  <origin>  (66) 
adg

>  <m_score__min__energy>  (66) 
-7.6200000000000001

>  <m_primary>  (66) 
energy

$$$$
66:0
     RDKit          3D

 64 66  0  0  1  0  0  0  0  0999 V2000
   65.2240   33.0130   49.7350 C   0  0  0  0  0  0  0  0  0  0  0  0
   63.7810   33.0470   50.1330 C   0  0  0  0  0  0  0  0  0  0  0  0
   63.5300   34.2320   51.0610 C   0  0  0  0  0  0  0  0  0  0  0  0
   63.5330   31.7950   50.9880 C   0  0  0  0  0  0  0  0  0  0  0  0
   62.8600   33.0010   49.0900 O   0  0  0  0  0  0  0  0  0  0  0  0
   62.5990   31.9030   48.2990 C   0  0  0  0  0  0  0  0  0  0  0  0
   63.4130   31.6450   47.3810 O   0  0  0  0  0  0  0  0  0  0  0  0
   61.4490   31.1170   48.5330 N   0  0  0  0  0  0  0  0  0  0  0  0
   61.0550   29.9800   47.8040 C   0  0  0  0  0  0  0  0  0  0  0  0
   60.6100   28.8850   48.5200 C   0  0  0  0  0  0  0  0  0  0  0  0
   60.1760   27.7230   47.9280 C   0  0  0  0  0  0  0  0  0  0  0  0
   60.1840   27.6440   46.5380 C   0  0  0  0  0  0  0  0  0  0  0  0
   59.6220   26.3780   45.9730 C   0  0  0  0  0  0  0  0  0  0  0  0
   58.1930   26.2440   46.4300 C   0  0  0  0  0  0  0  0  0  0  0  0
   57.7690   25.0540   46.4960 O   0  0  0  0  0  0  0  0  0  0  0  0
   57.4220   27.3820   46.7430 N   0  0  0  0  0  0  0  0  0  0  0  0
   57.0950   28.2800   45.8890 C   0  0  0  0  0  0  0  0  0  0  0  0
   57.7820   29.4130   45.5090 C   0  0  0  0  0  0  0  0  0  0  0  0
   56.9600   30.0460   44.6030 C   0  0  0  0  0  0  0  0  0  0  0  0
   57.2610   31.2890   43.8820 C   0  0  0  0  0  0  0  0  0  0  0  0
   56.7640   31.5120   42.7490 O   0  0  0  0  0  0  0  0  0  0  0  0
   58.1340   32.1980   44.5420 N   0  0  0  0  0  0  0  0  0  0  0  0
   58.5350   33.4730   43.9950 C   0  0  0  0  0  0  0  0  0  0  0  0
   58.3190   34.5890   44.9860 C   0  0  0  0  0  0  0  0  0  0  0  0
   58.7070   34.1860   46.3650 C   0  0  0  0  0  0  0  0  0  0  0  0
   57.9640   33.2790   47.1160 C   0  0  0  0  0  0  0  0  0  0  0  0
   58.3980   32.9340   48.3900 C   0  0  0  0  0  0  0  0  0  0  0  0
   59.5690   33.5090   48.8800 C   0  0  0  0  0  0  0  0  0  0  0  0
   60.0530   33.1930   50.1660 O   0  0  0  0  0  0  0  0  0  0  0  0
   60.2910   34.4080   48.1130 C   0  0  0  0  0  0  0  0  0  0  0  0
   61.4500   34.9800   48.5900 F   0  0  0  0  0  0  0  0  0  0  0  0
   59.8690   34.7480   46.8650 C   0  0  0  0  0  0  0  0  0  0  0  0
   55.8420   29.2870   44.4810 N   0  0  0  0  0  0  0  0  0  0  0  0
   55.8970   28.2240   45.2370 N   0  0  0  0  0  0  0  0  0  0  0  0
   60.6160   28.6960   45.7940 C   0  0  0  0  0  0  0  0  0  0  0  0
   61.0520   29.8630   46.4380 C   0  0  0  0  0  0  0  0  0  0  0  0
   65.8530   32.9982   50.6373 H   0  0  0  0  0  0  0  0  0  0  0  0
   65.4184   32.1100   49.1376 H   0  0  0  0  0  0  0  0  0  0  0  0
   65.4607   33.9058   49.1376 H   0  0  0  0  0  0  0  0  0  0  0  0
   63.6004   33.8997   52.1072 H   0  0  0  0  0  0  0  0  0  0  0  0
   64.2830   35.0114   50.8724 H   0  0  0  0  0  0  0  0  0  0  0  0
   62.5257   34.6392   50.8724 H   0  0  0  0  0  0  0  0  0  0  0  0
   63.5860   32.0624   52.0537 H   0  0  0  0  0  0  0  0  0  0  0  0
   62.5367   31.3876   50.7613 H   0  0  0  0  0  0  0  0  0  0  0  0
   64.2988   31.0386   50.7613 H   0  0  0  0  0  0  0  0  0  0  0  0
   60.8380   31.4280   49.3410 H   0  0  0  0  0  0  0  0  0  0  0  0
   60.6028   28.9464   49.6183 H   0  0  0  0  0  0  0  0  0  0  0  0
   59.8305   26.8754   48.5381 H   0  0  0  0  0  0  0  0  0  0  0  0
   59.6584   26.4137   44.8742 H   0  0  0  0  0  0  0  0  0  0  0  0
   60.2111   25.5162   46.3198 H   0  0  0  0  0  0  0  0  0  0  0  0
   58.7734   29.7410   45.8549 H   0  0  0  0  0  0  0  0  0  0  0  0
   58.5250   31.9530   45.4800 H   0  0  0  0  0  0  0  0  0  0  0  0
   59.6021   33.4298   43.7315 H   0  0  0  0  0  0  0  0  0  0  0  0
   57.9213   33.6765   43.1051 H   0  0  0  0  0  0  0  0  0  0  0  0
   58.9257   35.4556   44.6843 H   0  0  0  0  0  0  0  0  0  0  0  0
   57.2478   34.8391   44.9914 H   0  0  0  0  0  0  0  0  0  0  0  0
   57.0429   32.8401   46.7049 H   0  0  0  0  0  0  0  0  0  0  0  0
   57.8272   32.2194   49.0012 H   0  0  0  0  0  0  0  0  0  0  0  0
   61.0770   33.3080   50.2780 H   0  0  0  0  0  0  0  0  0  0  0  0
   60.4456   35.4625   46.2592 H   0  0  0  0  0  0  0  0  0  0  0  0
   55.0440   29.5200   43.8650 H   0  0  0  0  0  0  0  0  0  0  0  0
   55.1520   27.4970   45.3050 H   0  0  0  0  0  0  0  0  0  0  0  0
   60.6236   28.6327   44.6958 H   0  0  0  0  0  0  0  0  0  0  0  0
   61.4020   30.7096   45.8291 H   0  0  0  0  0  0  0  0  0  0  0  0
  1  2  1  0
  2  3  1  0
  2  4  1  0
  2  5  1  0
  5  6  1  0
  6  7  2  0
  6  8  1  0
  8  9  1  0
  9 10  2  0
 10 11  1  0
 11 12  2  0
 12 13  1  0
 13 14  1  0
 14 15  2  0
 14 16  1  0
 16 17  2  0
 17 18  1  0
 18 19  2  0
 19 20  1  0
 20 21  2  0
 20 22  1  0
 22 23  1  0
 23 24  1  0
 24 25  1  0
 25 26  2  0
 26 27  1  0
 27 28  2  0
 28 29  1  0
 28 30  1  0
 30 31  1  0
 30 32  2  0
 19 33  1  0
 33 34  1  0
 12 35  1  0
 35 36  2  0
 36  9  1  0
 34 17  1  0
 32 25  1  0
  1 37  1  0
  1 38  1  0
  1 39  1  0
  3 40  1  0
  3 41  1  0
  3 42  1  0
  4 43  1  0
  4 44  1  0
  4 45  1  0
  8 46  1  0
 10 47  1  0
 11 48  1  0
 13 49  1  0
 13 50  1  0
 18 51  1  0
 22 52  1  0
 23 53  1  0
 23 54  1  0
 24 55  1  0
 24 56  1  0
 26 57  1  0
 27 58  1  0
 29 59  1  0
 32 60  1  0
 33 61  1  0
 34 62  1  0
 35 63  1  0
 36 64  1  0
M  END
>  <smiles>  (67) 
CC(C)(C)OC(=O)Nc1ccc(CC(=O)N=c2cc(C(=O)NCCc3ccc(O)c(F)c3)[nH][nH]2)cc1

>  <score_type>  (67) 
oracle

>  <origin>  (67) 
adg

>  <m_score__min__energy>  (67) 
-10.210000000000001

>  <m_primary>  (67) 
energy

$$$$
67:0
     RDKit          3D

 43 45  0  0  0  0  0  0  0  0999 V2000
   56.6520   29.3410   42.9470 C   0  0  0  0  0  0  0  0  0  0  0  0
   56.2290   30.3160   44.0330 C   0  0  0  0  0  0  0  0  0  0  0  0
   56.1690   29.6370   45.2820 O   0  0  0  0  0  0  0  0  0  0  0  0
   57.0010   28.5600   45.6080 C   0  0  0  0  0  0  0  0  0  0  0  0
   56.5270   27.2830   45.5310 N   0  0  0  0  0  0  0  0  0  0  0  0
   57.3080   26.2060   45.8030 C   0  0  0  0  0  0  0  0  0  0  0  0
   58.6420   26.3850   46.1640 C   0  0  0  0  0  0  0  0  0  0  0  0
   59.1590   27.6770   46.2530 C   0  0  0  0  0  0  0  0  0  0  0  0
   58.3390   28.7870   45.9910 C   0  0  0  0  0  0  0  0  0  0  0  0
   58.8970   30.1540   46.1050 C   0  0  0  0  0  0  0  0  0  0  0  0
   60.1480   30.3100   46.1480 O   0  0  0  0  0  0  0  0  0  0  0  0
   58.0300   31.2930   46.2350 N   0  0  0  0  0  0  0  0  0  0  0  0
   58.4860   32.6460   46.0710 C   0  0  0  0  0  0  0  0  0  0  0  0
   58.1980   33.3530   44.8890 C   0  0  0  0  0  0  0  0  0  0  0  0
   58.6200   34.6760   44.7340 C   0  0  0  0  0  0  0  0  0  0  0  0
   59.3250   35.3100   45.7580 C   0  0  0  0  0  0  0  0  0  0  0  0
   59.6100   34.6240   46.9400 C   0  0  0  0  0  0  0  0  0  0  0  0
   59.1940   33.2960   47.1050 C   0  0  0  0  0  0  0  0  0  0  0  0
   59.6150   32.4450   48.6340 S   0  0  0  0  0  0  0  0  0  0  0  0
   61.3630   32.8170   48.4740 C   0  0  0  0  0  0  0  0  0  0  0  0
   62.0700   32.3960   47.3390 C   0  0  0  0  0  0  0  0  0  0  0  0
   63.4290   32.6960   47.2100 C   0  0  0  0  0  0  0  0  0  0  0  0
   64.0870   33.4090   48.2170 C   0  0  0  0  0  0  0  0  0  0  0  0
   63.3860   33.8220   49.3550 C   0  0  0  0  0  0  0  0  0  0  0  0
   62.0260   33.5240   49.4850 C   0  0  0  0  0  0  0  0  0  0  0  0
   57.0491   28.4258   43.4103 H   0  0  0  0  0  0  0  0  0  0  0  0
   55.7826   29.0882   42.3223 H   0  0  0  0  0  0  0  0  0  0  0  0
   57.4305   29.8032   42.3223 H   0  0  0  0  0  0  0  0  0  0  0  0
   56.9604   31.1352   44.0956 H   0  0  0  0  0  0  0  0  0  0  0  0
   55.2380   30.7274   43.7910 H   0  0  0  0  0  0  0  0  0  0  0  0
   56.8874   25.1916   45.7383 H   0  0  0  0  0  0  0  0  0  0  0  0
   59.2811   25.5154   46.3767 H   0  0  0  0  0  0  0  0  0  0  0  0
   60.2130   27.8275   46.5294 H   0  0  0  0  0  0  0  0  0  0  0  0
   57.0560   31.1320   46.5750 H   0  0  0  0  0  0  0  0  0  0  0  0
   57.6366   32.8607   44.0812 H   0  0  0  0  0  0  0  0  0  0  0  0
   58.3962   35.2185   43.8036 H   0  0  0  0  0  0  0  0  0  0  0  0
   59.6565   36.3515   45.6336 H   0  0  0  0  0  0  0  0  0  0  0  0
   60.1637   35.1283   47.7457 H   0  0  0  0  0  0  0  0  0  0  0  0
   61.5549   31.8292   46.5495 H   0  0  0  0  0  0  0  0  0  0  0  0
   63.9812   32.3711   46.3159 H   0  0  0  0  0  0  0  0  0  0  0  0
   65.1564   33.6453   48.1143 H   0  0  0  0  0  0  0  0  0  0  0  0
   63.9047   34.3812   50.1476 H   0  0  0  0  0  0  0  0  0  0  0  0
   61.4764   33.8451   50.3821 H   0  0  0  0  0  0  0  0  0  0  0  0
  1  2  1  0
  2  3  1  0
  3  4  1  0
  4  5  2  0
  5  6  1  0
  6  7  2  0
  7  8  1  0
  8  9  2  0
  9 10  1  0
 10 11  2  0
 10 12  1  0
 12 13  1  0
 13 14  2  0
 14 15  1  0
 15 16  2  0
 16 17  1  0
 17 18  2  0
 18 19  1  0
 19 20  1  0
 20 21  2  0
 21 22  1  0
 22 23  2  0
 23 24  1  0
 24 25  2  0
  9  4  1  0
 18 13  1  0
 25 20  1  0
  1 26  1  0
  1 27  1  0
  1 28  1  0
  2 29  1  0
  2 30  1  0
  6 31  1  0
  7 32  1  0
  8 33  1  0
 12 34  1  0
 14 35  1  0
 15 36  1  0
 16 37  1  0
 17 38  1  0
 21 39  1  0
 22 40  1  0
 23 41  1  0
 24 42  1  0
 25 43  1  0
M  END
>  <UniqueID>  (68) 
64

>  <SMILES>  (68) 
CCOc1ncccc1C(=O)Nc1ccccc1Sc1ccccc1

>  <Energy>  (68) 
43.40006888761795

>  <Genealogy>  (68) 
CCOc1ncccc1C(=O)Nc1ccccc1Sc1ccccc1 (3D coordinates assigned)
CCOc1ncccc1C(=O)Nc1ccccc1Sc1ccccc1 (optimized conformer: 43.40006888761795 kcal/mol)

>  <smiles>  (68) 
CCOc1ncccc1C(=O)Nc1ccccc1Sc1ccccc1

>  <score_type>  (68) 
oracle

>  <origin>  (68) 
adg

>  <m_score__min__energy>  (68) 
-8.25

>  <m_primary>  (68) 
energy

$$$$
68:0
     RDKit          3D

 42 46  0  0  0  0  0  0  0  0999 V2000
   56.3180   29.1510   45.5880 H   0  0  0  0  0  0  0  0  0  0  0  0
   55.8970   28.2680   45.3270 O   0  0  0  0  0  0  0  0  0  0  0  0
   56.2650   27.0730   45.9400 C   0  0  0  0  0  0  0  0  0  0  0  0
   55.4190   26.0450   46.1130 N   0  0  0  0  0  0  0  0  0  0  0  0
   56.1650   25.1540   46.8010 C   0  0  0  0  0  0  0  0  0  0  0  0
   55.7190   24.0370   47.1670 O   0  0  0  0  0  0  0  0  0  0  0  0
   57.4250   25.5580   47.0700 N   0  0  0  0  0  0  0  0  0  0  0  0
   57.4920   26.7740   46.5000 C   0  0  0  0  0  0  0  0  0  0  0  0
   58.6900   27.6270   46.5630 C   0  0  0  0  0  0  0  0  0  0  0  0
   59.6486   27.2049   46.2270 H   0  0  0  0  0  0  0  0  0  0  0  0
   58.6740   28.8900   47.0080 C   0  0  0  0  0  0  0  0  0  0  0  0
   58.8640   29.3730   48.3060 C   0  0  0  0  0  0  0  0  0  0  0  0
   59.0902   28.7511   49.1847 H   0  0  0  0  0  0  0  0  0  0  0  0
   58.7280   30.7220   48.3210 N   0  0  0  0  0  0  0  0  0  0  0  0
   58.4550   31.0900   47.0790 N   0  0  0  0  0  0  0  0  0  0  0  0
   58.2330   32.3390   46.6070 C   0  0  0  0  0  0  0  0  0  0  0  0
   58.2810   33.3650   47.4030 N   0  0  0  0  0  0  0  0  0  0  0  0
   59.3780   34.3270   47.4040 C   0  0  0  0  0  0  0  0  0  0  0  0
   59.2561   34.6904   48.4351 H   0  0  0  0  0  0  0  0  0  0  0  0
   59.6110   34.9870   46.0570 C   0  0  0  0  0  0  0  0  0  0  0  0
   58.9211   34.7932   45.2225 H   0  0  0  0  0  0  0  0  0  0  0  0
   59.7399   36.0226   45.7093 H   0  0  0  0  0  0  0  0  0  0  0  0
   60.5470   33.8890   46.5420 C   0  0  0  0  0  0  0  0  0  0  0  0
   60.5340   32.9013   46.0579 H   0  0  0  0  0  0  0  0  0  0  0  0
   61.6335   33.8018   46.6901 H   0  0  0  0  0  0  0  0  0  0  0  0
   57.9610   32.4830   45.2780 N   0  0  0  0  0  0  0  0  0  0  0  0
   57.9150   31.3930   44.4490 C   0  0  0  0  0  0  0  0  0  0  0  0
   57.6290   31.5640   43.0470 N   0  0  0  0  0  0  0  0  0  0  0  0
   58.2200   32.6920   42.3210 C   0  0  0  0  0  0  0  0  0  0  0  0
   58.6062   33.4291   43.0404 H   0  0  0  0  0  0  0  0  0  0  0  0
   59.0442   32.3298   41.6889 H   0  0  0  0  0  0  0  0  0  0  0  0
   57.4531   33.1635   41.6889 H   0  0  0  0  0  0  0  0  0  0  0  0
   56.6110   30.7330   42.3940 C   0  0  0  0  0  0  0  0  0  0  0  0
   56.5320   31.3259   41.4708 H   0  0  0  0  0  0  0  0  0  0  0  0
   55.6280   30.0930   43.3650 C   0  0  0  0  0  0  0  0  0  0  0  0
   55.6858   30.3253   44.4386 H   0  0  0  0  0  0  0  0  0  0  0  0
   54.5318   30.0354   43.4360 H   0  0  0  0  0  0  0  0  0  0  0  0
   56.7060   29.2470   42.7130 C   0  0  0  0  0  0  0  0  0  0  0  0
   57.5448   28.8664   43.3143 H   0  0  0  0  0  0  0  0  0  0  0  0
   56.7139   28.3230   42.1162 H   0  0  0  0  0  0  0  0  0  0  0  0
   58.1420   30.1440   44.9550 N   0  0  0  0  0  0  0  0  0  0  0  0
   58.4100   30.0260   46.2770 C   0  0  0  0  0  0  0  0  0  0  0  0
  1  2  1  0
  2  3  1  0
  3  4  1  0
  4  5  1  0
  5  6  2  0
  5  7  1  0
  7  8  1  0
  8  9  1  0
  9 10  1  0
  9 11  2  0
 11 12  1  0
 12 13  1  0
 12 14  2  0
 14 15  1  0
 15 16  1  0
 16 17  2  0
 17 18  1  0
 18 19  1  0
 18 20  1  0
 20 21  1  0
 20 22  1  0
 20 23  1  0
 23 24  1  0
 23 25  1  0
 16 26  1  0
 26 27  2  0
 27 28  1  0
 28 29  1  0
 29 30  1  0
 29 31  1  0
 29 32  1  0
 28 33  1  0
 33 34  1  0
 33 35  1  0
 35 36  1  0
 35 37  1  0
 35 38  1  0
 38 39  1  0
 38 40  1  0
 27 41  1  0
 41 42  2  0
  8  3  2  0
 42 11  1  0
 42 15  1  0
 23 18  1  0
 38 33  1  0
M  CHG  2   4  -1   7  -1
M  END
>  <UniqueID>  (69) 
65

>  <SMILES>  (69) 
CN(c1n/c(=N\C2CC2)n2nc/c(=C\c3[n-]c(=O)[n-]c3O)c2n1)C1CC1

>  <Energy>  (69) 
646.1595643484758

>  <Genealogy>  (69) 
CN(c1nc(=NC2CC2)n2ncc(=Cc3[n-]c(=O)[n-]c3O)c2n1)C1CC1 (protonated)
CN(c1n/c(=N\C2CC2)n2nc/c(=C\c3[n-]c(=O)[n-]c3O)c2n1)C1CC1 (cis-trans isomerization)
CN(c1n/c(=N\C2CC2)n2nc/c(=C\c3[n-]c(=O)[n-]c3O)c2n1)C1CC1 (3D coordinates assigned)
CN(c1n/c(=N\C2CC2)n2nc/c(=C\c3[n-]c(=O)[n-]c3O)c2n1)C1CC1 (nonaromatic ring conformer: 646.1595643484758 kcal/mol)

>  <smiles>  (69) 
CN(c1nc(=NC2CC2)n2ncc(=Cc3[nH]c(=O)[nH]c3O)c2n1)C1CC1

>  <score_type>  (69) 
oracle

>  <origin>  (69) 
adg

>  <m_score__min__energy>  (69) 
-12.56

>  <m_primary>  (69) 
energy

$$$$
69:0
     RDKit          3D

 51 55  0  0  0  0  0  0  0  0999 V2000
   53.1848   32.1819   53.0099 H   0  0  0  0  0  0  0  0  0  0  0  0
   53.3300   31.4230   52.2270 C   0  0  0  0  0  0  0  0  0  0  0  0
   52.3410   31.3590   51.1390 C   0  0  0  0  0  0  0  0  0  0  0  0
   52.3850   30.4510   50.1500 N   0  0  0  0  0  0  0  0  0  0  0  0
   51.3670   30.8200   49.3420 C   0  0  0  0  0  0  0  0  0  0  0  0
   51.0730   30.1910   48.2920 O   0  0  0  0  0  0  0  0  0  0  0  0
   50.6980   31.9230   49.7410 N   0  0  0  0  0  0  0  0  0  0  0  0
   51.3350   32.2600   50.8740 C   0  0  0  0  0  0  0  0  0  0  0  0
   51.0280   33.3890   51.6220 O   0  0  0  0  0  0  0  0  0  0  0  0
   54.3970   30.6160   52.3260 C   0  0  0  0  0  0  0  0  0  0  0  0
   54.3760   29.2690   52.6830 C   0  0  0  0  0  0  0  0  0  0  0  0
   53.4672   28.6907   52.9057 H   0  0  0  0  0  0  0  0  0  0  0  0
   55.6370   28.7750   52.7160 N   0  0  0  0  0  0  0  0  0  0  0  0
   56.4430   29.7750   52.3990 N   0  0  0  0  0  0  0  0  0  0  0  0
   57.7960   29.7660   52.3400 C   0  0  0  0  0  0  0  0  0  0  0  0
   58.4650   28.6720   52.5580 N   0  0  0  0  0  0  0  0  0  0  0  0
   59.9190   28.5470   52.4120 C   0  0  0  0  0  0  0  0  0  0  0  0
   60.2035   27.4927   52.5446 H   0  0  0  0  0  0  0  0  0  0  0  0
   60.6220   29.3960   53.4920 C   0  0  0  0  0  0  0  0  0  0  0  0
   60.8422   28.7510   54.3554 H   0  0  0  0  0  0  0  0  0  0  0  0
   59.9418   30.2196   53.7548 H   0  0  0  0  0  0  0  0  0  0  0  0
   61.9420   30.0290   53.0030 C   0  0  0  0  0  0  0  0  0  0  0  0
   62.5875   30.2126   53.8746 H   0  0  0  0  0  0  0  0  0  0  0  0
   61.6870   30.9621   52.4793 H   0  0  0  0  0  0  0  0  0  0  0  0
   62.6720   29.1690   52.0480 N   0  0  0  0  0  0  0  0  0  0  0  0
   63.2680   27.9940   52.7070 C   0  0  0  0  0  0  0  0  0  0  0  0
   63.2065   28.1153   53.7986 H   0  0  0  0  0  0  0  0  0  0  0  0
   62.7203   27.0884   52.4073 H   0  0  0  0  0  0  0  0  0  0  0  0
   64.3223   27.9010   52.4073 H   0  0  0  0  0  0  0  0  0  0  0  0
   61.8830   28.8070   50.8420 C   0  0  0  0  0  0  0  0  0  0  0  0
   62.0855   27.7531   50.6007 H   0  0  0  0  0  0  0  0  0  0  0  0
   62.1946   29.4946   50.0419 H   0  0  0  0  0  0  0  0  0  0  0  0
   60.3610   28.9810   51.0080 C   0  0  0  0  0  0  0  0  0  0  0  0
   59.8426   28.3645   50.2589 H   0  0  0  0  0  0  0  0  0  0  0  0
   60.1075   30.0422   50.8680 H   0  0  0  0  0  0  0  0  0  0  0  0
   58.4290   30.9360   52.0440 N   0  0  0  0  0  0  0  0  0  0  0  0
   57.7200   32.0830   51.8140 C   0  0  0  0  0  0  0  0  0  0  0  0
   58.3260   33.2070   51.5700 N   0  0  0  0  0  0  0  0  0  0  0  0
   59.5730   33.3750   50.8720 C   0  0  0  0  0  0  0  0  0  0  0  0
   60.7670   33.1120   51.5570 C   0  0  0  0  0  0  0  0  0  0  0  0
   60.7330   32.7818   52.6057 H   0  0  0  0  0  0  0  0  0  0  0  0
   62.0010   33.2660   50.9180 C   0  0  0  0  0  0  0  0  0  0  0  0
   62.9321   33.0416   51.4590 H   0  0  0  0  0  0  0  0  0  0  0  0
   62.0520   33.7050   49.5920 C   0  0  0  0  0  0  0  0  0  0  0  0
   63.0224   33.8160   49.0860 H   0  0  0  0  0  0  0  0  0  0  0  0
   60.8690   34.0030   48.9090 C   0  0  0  0  0  0  0  0  0  0  0  0
   60.9097   34.3567   47.8682 H   0  0  0  0  0  0  0  0  0  0  0  0
   59.6350   33.8520   49.5470 C   0  0  0  0  0  0  0  0  0  0  0  0
   58.7077   34.1065   49.0128 H   0  0  0  0  0  0  0  0  0  0  0  0
   56.3570   32.0640   51.8880 N   0  0  0  0  0  0  0  0  0  0  0  0
   55.7430   30.8870   52.1640 C   0  0  0  0  0  0  0  0  0  0  0  0
  1  2  1  0
  2  3  1  0
  3  4  1  0
  4  5  1  0
  5  6  2  0
  5  7  1  0
  7  8  1  0
  8  9  1  0
  2 10  2  3
 10 11  1  0
 11 12  1  0
 11 13  2  0
 13 14  1  0
 14 15  1  0
 15 16  2  0
 16 17  1  0
 17 18  1  0
 17 19  1  0
 19 20  1  0
 19 21  1  0
 19 22  1  0
 22 23  1  0
 22 24  1  0
 22 25  1  0
 25 26  1  0
 26 27  1  0
 26 28  1  0
 26 29  1  0
 25 30  1  0
 30 31  1  0
 30 32  1  0
 30 33  1  0
 33 34  1  0
 33 35  1  0
 15 36  1  0
 36 37  1  0
 37 38  2  0
 38 39  1  0
 39 40  2  0
 40 41  1  0
 40 42  1  0
 42 43  1  0
 42 44  2  0
 44 45  1  0
 44 46  1  0
 46 47  1  0
 46 48  2  0
 48 49  1  0
 37 50  1  0
 50 51  2  0
  8  3  2  0
 51 10  1  0
 51 14  1  0
 33 17  1  0
 48 39  1  0
M  CHG  4   4  -1   7  -1   9  -1  36  -1
M  END
>  <UniqueID>  (70) 
66

>  <SMILES>  (70) 
CN1CCC(/N=c2\[n-]/c(=N\c3ccccc3)nc3c(=Cc4[n-]c(=O)[n-]c4[O-])cnn23)CC1

>  <Energy>  (70) 
144.5334076684371

>  <Genealogy>  (70) 
CN1CCC(N=c2[n-]c(=Nc3ccccc3)nc3c(=Cc4[n-]c(=O)[n-]c4[O-])cnn23)CC1 (protonated)
CN1CCC(/N=c2\[n-]/c(=N\c3ccccc3)nc3c(=Cc4[n-]c(=O)[n-]c4[O-])cnn23)CC1 (cis-trans isomerization)
CN1CCC(/N=c2\[n-]/c(=N\c3ccccc3)nc3c(=Cc4[n-]c(=O)[n-]c4[O-])cnn23)CC1 (3D coordinates assigned)
CN1CCC(/N=c2\[n-]/c(=N\c3ccccc3)nc3c(=Cc4[n-]c(=O)[n-]c4[O-])cnn23)CC1 (nonaromatic ring conformer: 144.5334076684371 kcal/mol)

>  <smiles>  (70) 
CN1CCC(N=c2[nH]c(=Nc3ccccc3)nc3c(=Cc4[nH]c(=O)[nH]c4O)cnn23)CC1

>  <score_type>  (70) 
oracle

>  <origin>  (70) 
adg

>  <m_score__min__energy>  (70) 
-17.719999999999999

>  <m_primary>  (70) 
energy

$$$$
70:0
     RDKit          3D

 41 42  0  0  0  0  0  0  0  0999 V2000
   59.5180   33.2130   50.9750 C   0  0  0  0  0  0  0  0  0  0  0  0
   59.9930   34.2050   50.0670 O   0  0  0  0  0  0  0  0  0  0  0  0
   60.9240   33.9690   49.0400 C   0  0  0  0  0  0  0  0  0  0  0  0
   62.3130   34.0150   49.2840 C   0  0  0  0  0  0  0  0  0  0  0  0
   63.2240   33.7650   48.2570 C   0  0  0  0  0  0  0  0  0  0  0  0
   62.7670   33.4740   46.9720 C   0  0  0  0  0  0  0  0  0  0  0  0
   61.3970   33.4210   46.7110 C   0  0  0  0  0  0  0  0  0  0  0  0
   60.4600   33.6640   47.7360 C   0  0  0  0  0  0  0  0  0  0  0  0
   59.0110   33.5770   47.4230 C   0  0  0  0  0  0  0  0  0  0  0  0
   58.2300   32.9280   48.1720 O   0  0  0  0  0  0  0  0  0  0  0  0
   58.4950   34.2220   46.2520 N   0  0  0  0  0  0  0  0  0  0  0  0
   58.8070   33.7780   44.8980 C   0  0  0  0  0  0  0  0  0  0  0  0
   57.5580   33.2010   44.2270 C   0  0  0  0  0  0  0  0  0  0  0  0
   57.6180   31.7000   44.0740 C   0  0  0  0  0  0  0  0  0  0  0  0
   58.3480   31.2030   43.1770 O   0  0  0  0  0  0  0  0  0  0  0  0
   56.9740   30.8210   45.0070 N   0  0  0  0  0  0  0  0  0  0  0  0
   57.5020   29.5740   45.4750 C   0  0  0  0  0  0  0  0  0  0  0  0
   58.8440   29.4560   45.8650 C   0  0  0  0  0  0  0  0  0  0  0  0
   59.3380   28.2320   46.3200 C   0  0  0  0  0  0  0  0  0  0  0  0
   58.4970   27.1160   46.4160 C   0  0  0  0  0  0  0  0  0  0  0  0
   59.0700   25.9010   46.8000 O   0  0  0  0  0  0  0  0  0  0  0  0
   57.1220   27.2430   46.0920 C   0  0  0  0  0  0  0  0  0  0  0  0
   56.1620   26.1320   46.2540 C   0  0  0  0  0  0  0  0  0  0  0  0
   56.5400   25.0060   46.6700 O   0  0  0  0  0  0  0  0  0  0  0  0
   54.8110   26.3400   46.0010 O   0  0  0  0  0  0  0  0  0  0  0  0
   56.6440   28.4750   45.6100 C   0  0  0  0  0  0  0  0  0  0  0  0
   59.6810   33.5535   52.0082 H   0  0  0  0  0  0  0  0  0  0  0  0
   58.4432   33.0481   50.8086 H   0  0  0  0  0  0  0  0  0  0  0  0
   60.0634   32.2723   50.8086 H   0  0  0  0  0  0  0  0  0  0  0  0
   62.6812   34.2502   50.2935 H   0  0  0  0  0  0  0  0  0  0  0  0
   64.3044   33.7975   48.4613 H   0  0  0  0  0  0  0  0  0  0  0  0
   63.4877   33.2859   46.1626 H   0  0  0  0  0  0  0  0  0  0  0  0
   61.0448   33.1873   45.6955 H   0  0  0  0  0  0  0  0  0  0  0  0
   59.1720   34.6335   44.3107 H   0  0  0  0  0  0  0  0  0  0  0  0
   59.5801   32.9970   44.9468 H   0  0  0  0  0  0  0  0  0  0  0  0
   56.6801   33.4574   44.8383 H   0  0  0  0  0  0  0  0  0  0  0  0
   57.4929   33.6349   43.2183 H   0  0  0  0  0  0  0  0  0  0  0  0
   59.5093   30.3304   45.8122 H   0  0  0  0  0  0  0  0  0  0  0  0
   60.3966   28.1433   46.6055 H   0  0  0  0  0  0  0  0  0  0  0  0
   58.5360   25.0550   46.9510 H   0  0  0  0  0  0  0  0  0  0  0  0
   55.5836   28.5766   45.3358 H   0  0  0  0  0  0  0  0  0  0  0  0
  1  2  1  0
  2  3  1  0
  3  4  2  0
  4  5  1  0
  5  6  2  0
  6  7  1  0
  7  8  2  0
  8  9  1  0
  9 10  2  0
  9 11  1  0
 11 12  1  0
 12 13  1  0
 13 14  1  0
 14 15  2  0
 14 16  1  0
 16 17  1  0
 17 18  2  0
 18 19  1  0
 19 20  2  0
 20 21  1  0
 20 22  1  0
 22 23  1  0
 23 24  2  0
 23 25  1  0
 22 26  2  0
  8  3  1  0
 26 17  1  0
  1 27  1  0
  1 28  1  0
  1 29  1  0
  4 30  1  0
  5 31  1  0
  6 32  1  0
  7 33  1  0
 12 34  1  0
 12 35  1  0
 13 36  1  0
 13 37  1  0
 18 38  1  0
 19 39  1  0
 21 40  1  0
 26 41  1  0
M  CHG  3  11  -1  16  -1  25  -1
M  END
>  <UniqueID>  (71) 
67

>  <SMILES>  (71) 
COc1ccccc1C(=O)[N-]CCC(=O)[N-]c1ccc(O)c(C(=O)[O-])c1

>  <Energy>  (71) 
50.779739685085296

>  <Genealogy>  (71) 
COc1ccccc1C(=O)[N-]CCC(=O)[N-]c1ccc(O)c(C(=O)[O-])c1 (protonated)
COc1ccccc1C(=O)[N-]CCC(=O)[N-]c1ccc(O)c(C(=O)[O-])c1 (3D coordinates assigned)
COc1ccccc1C(=O)[N-]CCC(=O)[N-]c1ccc(O)c(C(=O)[O-])c1 (optimized conformer: 50.779739685085296 kcal/mol)

>  <smiles>  (71) 
COc1ccccc1C(=O)NCCC(=O)Nc1ccc(O)c(C(=O)O)c1

>  <score_type>  (71) 
oracle

>  <origin>  (71) 
adg

>  <m_score__min__energy>  (71) 
-12.51

>  <m_primary>  (71) 
energy

$$$$
71:0
     RDKit          3D

 50 51  0  0  0  0  0  0  0  0999 V2000
   59.5990   22.2210   44.8680 C   0  0  0  0  0  0  0  0  0  0  0  0
   58.3280   21.4920   45.2930 C   0  0  0  0  0  0  0  0  0  0  0  0
   57.1130   21.9930   44.5060 C   0  0  0  0  0  0  0  0  0  0  0  0
   57.0730   23.4540   44.5150 N   0  0  0  0  0  0  0  0  0  0  0  0
   57.4990   24.2000   43.5050 N   0  0  0  0  0  0  0  0  0  0  0  0
   57.3930   25.4910   43.8820 C   0  0  0  0  0  0  0  0  0  0  0  0
   57.8060   26.6420   43.0240 C   0  0  0  0  0  0  0  0  0  0  0  0
   56.8870   25.5610   45.1690 C   0  0  0  0  0  0  0  0  0  0  0  0
   56.7040   26.7680   45.9940 C   0  0  0  0  0  0  0  0  0  0  0  0
   55.9000   27.6570   45.6130 O   0  0  0  0  0  0  0  0  0  0  0  0
   57.4070   26.9500   47.2280 N   0  0  0  0  0  0  0  0  0  0  0  0
   58.8590   27.0420   47.3330 C   0  0  0  0  0  0  0  0  0  0  0  0
   59.4690   27.1060   45.9360 C   0  0  0  0  0  0  0  0  0  0  0  0
   59.3480   28.4900   45.3710 C   0  0  0  0  0  0  0  0  0  0  0  0
   60.2140   28.9010   44.5510 O   0  0  0  0  0  0  0  0  0  0  0  0
   58.2540   29.3370   45.7550 N   0  0  0  0  0  0  0  0  0  0  0  0
   58.1680   30.7190   45.3710 C   0  0  0  0  0  0  0  0  0  0  0  0
   57.7880   31.0470   44.0600 C   0  0  0  0  0  0  0  0  0  0  0  0
   57.7520   32.3760   43.6440 C   0  0  0  0  0  0  0  0  0  0  0  0
   58.1120   33.3940   44.5260 C   0  0  0  0  0  0  0  0  0  0  0  0
   58.5110   33.0960   45.8400 C   0  0  0  0  0  0  0  0  0  0  0  0
   58.9040   34.2310   46.7530 C   0  0  0  0  0  0  0  0  0  0  0  0
   58.5120   31.7470   46.2830 C   0  0  0  0  0  0  0  0  0  0  0  0
   58.9160   31.3940   47.6980 C   0  0  0  0  0  0  0  0  0  0  0  0
   56.7110   24.2440   45.5470 C   0  0  0  0  0  0  0  0  0  0  0  0
   56.2670   23.6680   47.1500 Cl  0  0  0  0  0  0  0  0  0  0  0  0
   60.1551   22.5399   45.7619 H   0  0  0  0  0  0  0  0  0  0  0  0
   60.2260   21.5452   44.2678 H   0  0  0  0  0  0  0  0  0  0  0  0
   59.3323   23.1034   44.2678 H   0  0  0  0  0  0  0  0  0  0  0  0
   58.4543   20.4146   45.1107 H   0  0  0  0  0  0  0  0  0  0  0  0
   58.1554   21.6868   46.3618 H   0  0  0  0  0  0  0  0  0  0  0  0
   57.1814   21.6378   43.4672 H   0  0  0  0  0  0  0  0  0  0  0  0
   56.1967   21.6060   44.9758 H   0  0  0  0  0  0  0  0  0  0  0  0
   58.1085   27.4852   43.6624 H   0  0  0  0  0  0  0  0  0  0  0  0
   58.6522   26.3409   42.3889 H   0  0  0  0  0  0  0  0  0  0  0  0
   56.9614   26.9475   42.3889 H   0  0  0  0  0  0  0  0  0  0  0  0
   59.1290   27.9498   47.8925 H   0  0  0  0  0  0  0  0  0  0  0  0
   59.2444   26.1569   47.8602 H   0  0  0  0  0  0  0  0  0  0  0  0
   60.5324   26.8302   45.9927 H   0  0  0  0  0  0  0  0  0  0  0  0
   58.9293   26.4066   45.2806 H   0  0  0  0  0  0  0  0  0  0  0  0
   57.4640   28.9210   46.2950 H   0  0  0  0  0  0  0  0  0  0  0  0
   57.5163   30.2475   43.3550 H   0  0  0  0  0  0  0  0  0  0  0  0
   57.4392   32.6225   42.6186 H   0  0  0  0  0  0  0  0  0  0  0  0
   58.0834   34.4410   44.1899 H   0  0  0  0  0  0  0  0  0  0  0  0
   58.7942   33.9138   47.8005 H   0  0  0  0  0  0  0  0  0  0  0  0
   59.9509   34.5095   46.5621 H   0  0  0  0  0  0  0  0  0  0  0  0
   58.2535   35.0972   46.5621 H   0  0  0  0  0  0  0  0  0  0  0  0
   58.2836   31.9465   48.4085 H   0  0  0  0  0  0  0  0  0  0  0  0
   58.7881   30.3131   47.8570 H   0  0  0  0  0  0  0  0  0  0  0  0
   59.9700   31.6658   47.8570 H   0  0  0  0  0  0  0  0  0  0  0  0
  1  2  1  0
  2  3  1  0
  3  4  1  0
  4  5  1  0
  5  6  2  0
  6  7  1  0
  6  8  1  0
  8  9  1  0
  9 10  2  0
  9 11  1  0
 11 12  1  0
 12 13  1  0
 13 14  1  0
 14 15  2  0
 14 16  1  0
 16 17  1  0
 17 18  2  0
 18 19  1  0
 19 20  2  0
 20 21  1  0
 21 22  1  0
 21 23  2  0
 23 24  1  0
  8 25  2  0
 25 26  1  0
 25  4  1  0
 23 17  1  0
  1 27  1  0
  1 28  1  0
  1 29  1  0
  2 30  1  0
  2 31  1  0
  3 32  1  0
  3 33  1  0
  7 34  1  0
  7 35  1  0
  7 36  1  0
 12 37  1  0
 12 38  1  0
 13 39  1  0
 13 40  1  0
 16 41  1  0
 18 42  1  0
 19 43  1  0
 20 44  1  0
 22 45  1  0
 22 46  1  0
 22 47  1  0
 24 48  1  0
 24 49  1  0
 24 50  1  0
M  CHG  1  11  -1
M  END
>  <UniqueID>  (72) 
68

>  <SMILES>  (72) 
CCCn1nc(C)c(C(=O)[N-]CCC(=O)Nc2cccc(C)c2C)c1Cl

>  <Energy>  (72) 
79.97337340532522

>  <Genealogy>  (72) 
CCCn1nc(C)c(C(=O)[N-]CCC(=O)Nc2cccc(C)c2C)c1Cl (protonated)
CCCn1nc(C)c(C(=O)[N-]CCC(=O)Nc2cccc(C)c2C)c1Cl (3D coordinates assigned)
CCCn1nc(C)c(C(=O)[N-]CCC(=O)Nc2cccc(C)c2C)c1Cl (optimized conformer: 79.97337340532522 kcal/mol)

>  <smiles>  (72) 
CCCn1nc(C)c(C(=O)NCCC(=O)Nc2cccc(C)c2C)c1Cl

>  <score_type>  (72) 
oracle

>  <origin>  (72) 
adg

>  <m_score__min__energy>  (72) 
-10.210000000000001

>  <m_primary>  (72) 
energy

$$$$
72:0
     RDKit          3D

 39 41  0  0  0  0  0  0  0  0999 V2000
   57.9410   26.0760   44.3560 O   0  0  0  0  0  0  0  0  0  0  0  0
   58.2650   26.0990   45.5750 C   0  0  0  0  0  0  0  0  0  0  0  0
   59.3710   26.9950   46.0340 C   0  0  0  0  0  0  0  0  0  0  0  0
   58.8170   28.3610   46.4470 C   0  0  0  0  0  0  0  0  0  0  0  0
   57.3570   28.4080   46.3270 N   0  0  0  0  0  0  0  0  0  0  0  0
   56.8370   29.2080   44.8700 S   0  0  0  0  0  0  0  0  0  0  0  0
   57.2310   28.3840   43.6750 O   0  0  0  0  0  0  0  0  0  0  0  0
   55.3380   29.3150   44.8870 O   0  0  0  0  0  0  0  0  0  0  0  0
   57.5140   30.8300   44.7310 C   0  0  0  0  0  0  0  0  0  0  0  0
   57.6380   31.4310   43.4570 C   0  0  0  0  0  0  0  0  0  0  0  0
   58.1480   32.7350   43.3270 C   0  0  0  0  0  0  0  0  0  0  0  0
   58.5220   33.4190   44.4820 C   0  0  0  0  0  0  0  0  0  0  0  0
   58.3950   32.8310   45.7260 C   0  0  0  0  0  0  0  0  0  0  0  0
   57.8960   31.5410   45.8850 C   0  0  0  0  0  0  0  0  0  0  0  0
   58.8470   33.7950   46.7060 C   0  0  0  0  0  0  0  0  0  0  0  0
   58.8900   33.6520   47.9560 O   0  0  0  0  0  0  0  0  0  0  0  0
   59.2380   34.9650   45.9380 C   0  0  0  0  0  0  0  0  0  0  0  0
   59.6900   36.0360   46.4210 O   0  0  0  0  0  0  0  0  0  0  0  0
   59.0420   34.7510   44.5380 N   0  0  0  0  0  0  0  0  0  0  0  0
   57.6260   25.2240   46.5120 N   0  0  0  0  0  0  0  0  0  0  0  0
   56.3560   24.5980   46.2990 C   0  0  0  0  0  0  0  0  0  0  0  0
   56.2260   23.2350   46.5980 C   0  0  0  0  0  0  0  0  0  0  0  0
   55.0170   22.5720   46.3720 C   0  0  0  0  0  0  0  0  0  0  0  0
   53.9250   23.2680   45.8540 C   0  0  0  0  0  0  0  0  0  0  0  0
   54.0320   24.6340   45.5810 C   0  0  0  0  0  0  0  0  0  0  0  0
   55.2320   25.3140   45.8230 C   0  0  0  0  0  0  0  0  0  0  0  0
   55.2620   26.6950   45.6200 O   0  0  0  0  0  0  0  0  0  0  0  0
   59.8768   26.5339   46.8952 H   0  0  0  0  0  0  0  0  0  0  0  0
   60.0826   27.1347   45.2069 H   0  0  0  0  0  0  0  0  0  0  0  0
   59.0961   28.5585   47.4925 H   0  0  0  0  0  0  0  0  0  0  0  0
   59.2427   29.1226   45.7771 H   0  0  0  0  0  0  0  0  0  0  0  0
   57.3327   30.8733   42.5594 H   0  0  0  0  0  0  0  0  0  0  0  0
   58.2493   33.2039   42.3371 H   0  0  0  0  0  0  0  0  0  0  0  0
   57.8028   31.0899   46.8839 H   0  0  0  0  0  0  0  0  0  0  0  0
   57.0820   22.6831   47.0136 H   0  0  0  0  0  0  0  0  0  0  0  0
   54.9264   21.5003   46.6028 H   0  0  0  0  0  0  0  0  0  0  0  0
   52.9790   22.7412   45.6603 H   0  0  0  0  0  0  0  0  0  0  0  0
   53.1679   25.1790   45.1732 H   0  0  0  0  0  0  0  0  0  0  0  0
   56.0160   27.1620   45.1330 H   0  0  0  0  0  0  0  0  0  0  0  0
  1  2  2  0
  2  3  1  0
  3  4  1  0
  4  5  1  0
  5  6  1  0
  6  7  2  0
  6  8  2  0
  6  9  1  0
  9 10  2  0
 10 11  1  0
 11 12  2  0
 12 13  1  0
 13 14  2  0
 13 15  1  0
 15 16  2  0
 15 17  1  0
 17 18  2  0
 17 19  1  0
  2 20  1  0
 20 21  1  0
 21 22  2  0
 22 23  1  0
 23 24  2  0
 24 25  1  0
 25 26  2  0
 26 27  1  0
 14  9  1  0
 26 21  1  0
 19 12  1  0
  3 28  1  0
  3 29  1  0
  4 30  1  0
  4 31  1  0
 10 32  1  0
 11 33  1  0
 14 34  1  0
 22 35  1  0
 23 36  1  0
 24 37  1  0
 25 38  1  0
 27 39  1  0
M  CHG  3   5  -1  19  -1  20  -1
M  END
>  <UniqueID>  (73) 
69

>  <SMILES>  (73) 
O=C(CC[N-]S(=O)(=O)c1ccc2c(c1)C(=O)C(=O)[N-]2)[N-]c1ccccc1O

>  <Energy>  (73) 
75.48571380146228

>  <Genealogy>  (73) 
O=C(CC[N-]S(=O)(=O)c1ccc2c(c1)C(=O)C(=O)[N-]2)[N-]c1ccccc1O (protonated)
O=C(CC[N-]S(=O)(=O)c1ccc2c(c1)C(=O)C(=O)[N-]2)[N-]c1ccccc1O (3D coordinates assigned)
O=C(CC[N-]S(=O)(=O)c1ccc2c(c1)C(=O)C(=O)[N-]2)[N-]c1ccccc1O (nonaromatic ring conformer: 75.48571380146228 kcal/mol)

>  <smiles>  (73) 
O=C(CCNS(=O)(=O)c1ccc2c(c1)C(=O)C(=O)N2)Nc1ccccc1O

>  <score_type>  (73) 
oracle

>  <origin>  (73) 
adg

>  <m_score__min__energy>  (73) 
-13.869999999999999

>  <m_primary>  (73) 
energy

$$$$
73:0
     RDKit          3D

 44 45  0  0  0  0  0  0  0  0999 V2000
   50.2820   25.9740   41.5600 C   0  0  0  0  0  0  0  0  0  0  0  0
   50.4930   24.9870   42.4350 C   0  0  0  0  0  0  0  0  0  0  0  0
   50.4730   25.2330   43.9170 C   0  0  0  0  0  0  0  0  0  0  0  0
   51.6970   24.7310   44.5380 N   0  0  0  0  0  0  0  0  0  0  0  0
   51.9740   23.3320   44.6710 C   0  0  0  0  0  0  0  0  0  0  0  0
   51.1520   22.4770   44.2400 O   0  0  0  0  0  0  0  0  0  0  0  0
   53.2140   22.9140   45.2520 N   0  0  0  0  0  0  0  0  0  0  0  0
   54.4600   23.6130   45.1230 C   0  0  0  0  0  0  0  0  0  0  0  0
   54.5440   24.9160   45.6270 C   0  0  0  0  0  0  0  0  0  0  0  0
   55.7320   25.6560   45.5030 C   0  0  0  0  0  0  0  0  0  0  0  0
   55.8320   27.0090   45.9740 N   0  0  0  0  0  0  0  0  0  0  0  0
   57.0230   27.8070   46.0240 C   0  0  0  0  0  0  0  0  0  0  0  0
   58.0050   27.3880   46.6930 O   0  0  0  0  0  0  0  0  0  0  0  0
   57.1420   29.0960   45.3030 C   0  0  0  0  0  0  0  0  0  0  0  0
   56.3400   29.2980   44.1670 C   0  0  0  0  0  0  0  0  0  0  0  0
   56.4510   30.4690   43.4160 C   0  0  0  0  0  0  0  0  0  0  0  0
   57.3600   31.4570   43.7940 C   0  0  0  0  0  0  0  0  0  0  0  0
   58.1440   31.2860   44.9370 C   0  0  0  0  0  0  0  0  0  0  0  0
   58.0300   30.1240   45.7180 C   0  0  0  0  0  0  0  0  0  0  0  0
   58.8670   30.0140   46.9640 C   0  0  0  0  0  0  0  0  0  0  0  0
   56.8580   25.0530   44.9380 C   0  0  0  0  0  0  0  0  0  0  0  0
   56.7960   23.7390   44.4680 C   0  0  0  0  0  0  0  0  0  0  0  0
   55.6010   23.0010   44.5630 C   0  0  0  0  0  0  0  0  0  0  0  0
   55.5250   21.6620   44.1450 O   0  0  0  0  0  0  0  0  0  0  0  0
   56.6390   20.8820   43.7240 C   0  0  0  0  0  0  0  0  0  0  0  0
   50.3024   25.7654   40.4802 H   0  0  0  0  0  0  0  0  0  0  0  0
   50.0879   26.9954   41.9193 H   0  0  0  0  0  0  0  0  0  0  0  0
   50.6859   23.9704   42.0618 H   0  0  0  0  0  0  0  0  0  0  0  0
   50.3903   26.3140   44.1030 H   0  0  0  0  0  0  0  0  0  0  0  0
   49.6119   24.7051   44.3527 H   0  0  0  0  0  0  0  0  0  0  0  0
   52.3880   25.4170   44.9150 H   0  0  0  0  0  0  0  0  0  0  0  0
   53.6719   25.3649   46.1248 H   0  0  0  0  0  0  0  0  0  0  0  0
   55.6172   28.5251   43.8666 H   0  0  0  0  0  0  0  0  0  0  0  0
   55.8213   30.6128   42.5256 H   0  0  0  0  0  0  0  0  0  0  0  0
   57.4595   32.3718   43.1913 H   0  0  0  0  0  0  0  0  0  0  0  0
   58.8585   32.0697   45.2289 H   0  0  0  0  0  0  0  0  0  0  0  0
   58.2196   30.0991   47.8493 H   0  0  0  0  0  0  0  0  0  0  0  0
   59.3795   29.0408   46.9767 H   0  0  0  0  0  0  0  0  0  0  0  0
   59.6136   30.8218   46.9767 H   0  0  0  0  0  0  0  0  0  0  0  0
   57.7997   25.6164   44.8626 H   0  0  0  0  0  0  0  0  0  0  0  0
   57.6882   23.2772   44.0200 H   0  0  0  0  0  0  0  0  0  0  0  0
   57.1772   20.5052   44.6063 H   0  0  0  0  0  0  0  0  0  0  0  0
   56.2852   20.0333   43.1202 H   0  0  0  0  0  0  0  0  0  0  0  0
   57.3154   21.5048   43.1202 H   0  0  0  0  0  0  0  0  0  0  0  0
  1  2  2  0
  2  3  1  0
  3  4  1  0
  4  5  1  0
  5  6  2  0
  5  7  1  0
  7  8  1  0
  8  9  2  0
  9 10  1  0
 10 11  1  0
 11 12  1  0
 12 13  2  0
 12 14  1  0
 14 15  2  0
 15 16  1  0
 16 17  2  0
 17 18  1  0
 18 19  2  0
 19 20  1  0
 10 21  2  0
 21 22  1  0
 22 23  2  0
 23 24  1  0
 24 25  1  0
 23  8  1  0
 19 14  1  0
  1 26  1  0
  1 27  1  0
  2 28  1  0
  3 29  1  0
  3 30  1  0
  4 31  1  0
  9 32  1  0
 15 33  1  0
 16 34  1  0
 17 35  1  0
 18 36  1  0
 20 37  1  0
 20 38  1  0
 20 39  1  0
 21 40  1  0
 22 41  1  0
 25 42  1  0
 25 43  1  0
 25 44  1  0
M  CHG  2   7  -1  11  -1
M  END
>  <UniqueID>  (74) 
70

>  <SMILES>  (74) 
C=CCNC(=O)[N-]c1cc([N-]C(=O)c2ccccc2C)ccc1OC

>  <Energy>  (74) 
52.34291153411843

>  <Genealogy>  (74) 
C=CCNC(=O)[N-]c1cc([N-]C(=O)c2ccccc2C)ccc1OC (protonated)
C=CCNC(=O)[N-]c1cc([N-]C(=O)c2ccccc2C)ccc1OC (3D coordinates assigned)
C=CCNC(=O)[N-]c1cc([N-]C(=O)c2ccccc2C)ccc1OC (optimized conformer: 52.34291153411843 kcal/mol)

>  <smiles>  (74) 
C=CCNC(=O)Nc1cc(NC(=O)c2ccccc2C)ccc1OC

>  <score_type>  (74) 
oracle

>  <origin>  (74) 
adg

>  <m_score__min__energy>  (74) 
-10.83

>  <m_primary>  (74) 
energy

$$$$
74:0
     RDKit          3D

 70 75  0  0  0  0  0  0  0  0999 V2000
   53.2210   21.4860   45.8120 O   0  0  0  0  0  0  0  0  0  0  0  0
   53.5960   22.6500   45.5170 C   0  0  0  0  0  0  0  0  0  0  0  0
   52.8950   23.3590   44.5450 O   0  0  0  0  0  0  0  0  0  0  0  0
   54.7480   23.2710   46.2110 C   0  0  0  0  0  0  0  0  0  0  0  0
   55.5010   22.5320   47.1400 C   0  0  0  0  0  0  0  0  0  0  0  0
   56.5980   23.1120   47.7810 C   0  0  0  0  0  0  0  0  0  0  0  0
   56.9440   24.4420   47.5220 C   0  0  0  0  0  0  0  0  0  0  0  0
   56.2000   25.2040   46.6170 C   0  0  0  0  0  0  0  0  0  0  0  0
   56.5860   26.5710   46.3900 N   0  0  0  0  0  0  0  0  0  0  0  0
   57.9020   27.0240   46.0460 C   0  0  0  0  0  0  0  0  0  0  0  0
   58.8550   26.2090   45.9380 O   0  0  0  0  0  0  0  0  0  0  0  0
   58.1480   28.4420   45.7550 C   0  0  0  0  0  0  0  0  0  0  0  0
   57.9770   28.9230   44.4460 C   0  0  0  0  0  0  0  0  0  0  0  0
   58.3280   30.2390   44.1290 C   0  0  0  0  0  0  0  0  0  0  0  0
   58.8480   31.0810   45.1140 C   0  0  0  0  0  0  0  0  0  0  0  0
   59.0050   30.6170   46.4210 C   0  0  0  0  0  0  0  0  0  0  0  0
   58.6590   29.2950   46.7540 C   0  0  0  0  0  0  0  0  0  0  0  0
   58.6740   28.8570   48.1200 N   0  0  0  0  0  0  0  0  0  0  0  0
   59.7250   29.1100   49.0550 C   0  0  0  0  0  0  0  0  0  0  0  0
   60.6460   28.2630   49.2180 O   0  0  0  0  0  0  0  0  0  0  0  0
   59.7280   30.3660   49.8240 C   0  0  0  0  0  0  0  0  0  0  0  0
   58.5430   31.1110   49.9380 C   0  0  0  0  0  0  0  0  0  0  0  0
   58.5400   32.3330   50.6130 C   0  0  0  0  0  0  0  0  0  0  0  0
   59.7100   32.8000   51.2150 C   0  0  0  0  0  0  0  0  0  0  0  0
   60.8870   32.0360   51.1690 C   0  0  0  0  0  0  0  0  0  0  0  0
   62.1160   32.4920   51.9290 C   0  0  0  0  0  0  0  0  0  0  0  0
   62.9880   33.4170   51.1620 N   0  0  0  0  0  0  0  0  0  0  0  0
   64.3370   32.9040   50.8160 C   0  0  0  0  0  0  0  0  0  0  0  0
   64.3930   32.0630   49.5180 C   0  0  0  0  0  0  0  0  0  0  0  0
   63.3310   32.4650   48.5510 C   0  0  0  0  0  0  0  0  0  0  0  0
   63.0970   31.9680   47.2860 C   0  0  0  0  0  0  0  0  0  0  0  0
   62.0400   32.6140   46.7450 N   0  0  0  0  0  0  0  0  0  0  0  0
   61.6550   33.4810   47.7100 C   0  0  0  0  0  0  0  0  0  0  0  0
   60.7130   34.3680   47.5630 N   0  0  0  0  0  0  0  0  0  0  0  0
   59.5050   34.1770   46.8150 C   0  0  0  0  0  0  0  0  0  0  0  0
   59.4400   34.6510   45.4970 C   0  0  0  0  0  0  0  0  0  0  0  0
   58.2670   34.4980   44.7520 C   0  0  0  0  0  0  0  0  0  0  0  0
   57.1420   33.9040   45.3300 C   0  0  0  0  0  0  0  0  0  0  0  0
   57.1860   33.4650   46.6560 C   0  0  0  0  0  0  0  0  0  0  0  0
   58.3670   33.5900   47.3970 C   0  0  0  0  0  0  0  0  0  0  0  0
   62.4120   33.3960   48.8210 N   0  0  0  0  0  0  0  0  0  0  0  0
   62.3190   34.1470   50.0660 C   0  0  0  0  0  0  0  0  0  0  0  0
   60.9030   30.8410   50.4290 C   0  0  0  0  0  0  0  0  0  0  0  0
   55.1180   24.6040   45.9380 C   0  0  0  0  0  0  0  0  0  0  0  0
   55.2246   21.4910   47.3634 H   0  0  0  0  0  0  0  0  0  0  0  0
   57.1924   22.5201   48.4926 H   0  0  0  0  0  0  0  0  0  0  0  0
   57.8076   24.8914   48.0341 H   0  0  0  0  0  0  0  0  0  0  0  0
   57.5659   28.2625   43.6683 H   0  0  0  0  0  0  0  0  0  0  0  0
   58.1943   30.6112   43.1026 H   0  0  0  0  0  0  0  0  0  0  0  0
   59.1345   32.1121   44.8594 H   0  0  0  0  0  0  0  0  0  0  0  0
   59.4019   31.2896   47.1956 H   0  0  0  0  0  0  0  0  0  0  0  0
   57.6121   30.7296   49.4930 H   0  0  0  0  0  0  0  0  0  0  0  0
   57.6164   32.9276   50.6705 H   0  0  0  0  0  0  0  0  0  0  0  0
   59.7096   33.7727   51.7286 H   0  0  0  0  0  0  0  0  0  0  0  0
   61.7866   33.0054   52.8444 H   0  0  0  0  0  0  0  0  0  0  0  0
   62.7126   31.5925   52.1411 H   0  0  0  0  0  0  0  0  0  0  0  0
   65.0112   33.7649   50.6964 H   0  0  0  0  0  0  0  0  0  0  0  0
   64.6350   32.2332   51.6352 H   0  0  0  0  0  0  0  0  0  0  0  0
   65.3764   32.2029   49.0453 H   0  0  0  0  0  0  0  0  0  0  0  0
   64.2296   31.0088   49.7864 H   0  0  0  0  0  0  0  0  0  0  0  0
   63.6778   31.1729   46.7956 H   0  0  0  0  0  0  0  0  0  0  0  0
   60.3145   35.1446   45.0479 H   0  0  0  0  0  0  0  0  0  0  0  0
   58.2296   34.8458   43.7091 H   0  0  0  0  0  0  0  0  0  0  0  0
   56.2211   33.7819   44.7409 H   0  0  0  0  0  0  0  0  0  0  0  0
   56.2919   33.0209   47.1178 H   0  0  0  0  0  0  0  0  0  0  0  0
   58.4051   33.2289   48.4353 H   0  0  0  0  0  0  0  0  0  0  0  0
   62.8028   35.1262   49.9351 H   0  0  0  0  0  0  0  0  0  0  0  0
   61.2577   34.2796   50.3229 H   0  0  0  0  0  0  0  0  0  0  0  0
   61.8404   30.2752   50.3233 H   0  0  0  0  0  0  0  0  0  0  0  0
   54.5577   25.1820   45.1883 H   0  0  0  0  0  0  0  0  0  0  0  0
  1  2  2  0
  2  3  1  0
  2  4  1  0
  4  5  2  0
  5  6  1  0
  6  7  2  0
  7  8  1  0
  8  9  1  0
  9 10  1  0
 10 11  2  0
 10 12  1  0
 12 13  2  0
 13 14  1  0
 14 15  2  0
 15 16  1  0
 16 17  2  0
 17 18  1  0
 18 19  1  0
 19 20  2  0
 19 21  1  0
 21 22  2  0
 22 23  1  0
 23 24  2  0
 24 25  1  0
 25 26  1  0
 26 27  1  0
 27 28  1  0
 28 29  1  0
 29 30  1  0
 30 31  2  0
 31 32  1  0
 32 33  1  0
 33 34  2  3
 34 35  1  0
 35 36  2  0
 36 37  1  0
 37 38  2  0
 38 39  1  0
 39 40  2  0
 33 41  1  0
 41 42  1  0
 25 43  2  0
  8 44  2  0
 44  4  1  0
 17 12  1  0
 43 21  1  0
 42 27  1  0
 41 30  1  0
 40 35  1  0
  5 45  1  0
  6 46  1  0
  7 47  1  0
 13 48  1  0
 14 49  1  0
 15 50  1  0
 16 51  1  0
 22 52  1  0
 23 53  1  0
 24 54  1  0
 26 55  1  0
 26 56  1  0
 28 57  1  0
 28 58  1  0
 29 59  1  0
 29 60  1  0
 31 61  1  0
 36 62  1  0
 37 63  1  0
 38 64  1  0
 39 65  1  0
 40 66  1  0
 42 67  1  0
 42 68  1  0
 43 69  1  0
 44 70  1  0
M  CHG  4   3  -1   9  -1  18  -1  32  -1
M  END
>  <UniqueID>  (75) 
71

>  <SMILES>  (75) 
O=C([O-])c1cccc([N-]C(=O)c2ccccc2[N-]C(=O)c2cccc(CN3CCc4c[n-]c(=Nc5ccccc5)n4C3)c2)c1

>  <Energy>  (75) 
138.73156090607642

>  <Genealogy>  (75) 
O=C([O-])c1cccc([N-]C(=O)c2ccccc2[N-]C(=O)c2cccc(CN3CCc4c[n-]c(=Nc5ccccc5)n4C3)c2)c1 (protonated)
O=C([O-])c1cccc([N-]C(=O)c2ccccc2[N-]C(=O)c2cccc(CN3CCc4c[n-]c(=Nc5ccccc5)n4C3)c2)c1 (3D coordinates assigned)
O=C([O-])c1cccc([N-]C(=O)c2ccccc2[N-]C(=O)c2cccc(CN3CCc4c[n-]c(=Nc5ccccc5)n4C3)c2)c1 (nonaromatic ring conformer: 138.73156090607642 kcal/mol)

>  <smiles>  (75) 
O=C(O)c1cccc(NC(=O)c2ccccc2NC(=O)c2cccc(CN3CCc4c[nH]c(=Nc5ccccc5)n4C3)c2)c1

>  <score_type>  (75) 
oracle

>  <origin>  (75) 
adg

>  <m_score__min__energy>  (75) 
-17.390000000000001

>  <m_primary>  (75) 
energy

$$$$
75:0
     RDKit          3D

 44 46  0  0  0  0  0  0  0  0999 V2000
   52.1400   23.7690   44.8840 C   0  0  0  0  0  0  0  0  0  0  0  0
   53.5620   24.0430   44.7450 N   0  0  0  0  0  0  0  0  0  0  0  0
   54.3570   24.5750   45.8100 C   0  0  0  0  0  0  0  0  0  0  0  0
   54.7380   23.8260   46.7480 O   0  0  0  0  0  0  0  0  0  0  0  0
   54.7800   25.9430   45.7950 N   0  0  0  0  0  0  0  0  0  0  0  0
   56.0970   26.4240   46.1000 C   0  0  0  0  0  0  0  0  0  0  0  0
   57.0260   25.6430   46.8040 C   0  0  0  0  0  0  0  0  0  0  0  0
   58.3140   26.1270   47.0420 C   0  0  0  0  0  0  0  0  0  0  0  0
   58.6920   27.4020   46.5880 C   0  0  0  0  0  0  0  0  0  0  0  0
   59.9870   27.9010   46.7980 O   0  0  0  0  0  0  0  0  0  0  0  0
   60.3490   28.8430   47.7720 C   0  0  0  0  0  0  0  0  0  0  0  0
   60.3170   28.5370   49.1460 C   0  0  0  0  0  0  0  0  0  0  0  0
   60.6680   29.5040   50.0920 C   0  0  0  0  0  0  0  0  0  0  0  0
   61.0420   30.7850   49.6780 C   0  0  0  0  0  0  0  0  0  0  0  0
   61.0570   31.1030   48.3170 C   0  0  0  0  0  0  0  0  0  0  0  0
   60.7070   30.1370   47.3630 C   0  0  0  0  0  0  0  0  0  0  0  0
   60.7160   30.4530   46.0060 O   0  0  0  0  0  0  0  0  0  0  0  0
   57.7740   28.1800   45.8650 C   0  0  0  0  0  0  0  0  0  0  0  0
   58.1990   29.4570   45.3620 N   0  0  0  0  0  0  0  0  0  0  0  0
   57.3920   30.6330   45.2160 C   0  0  0  0  0  0  0  0  0  0  0  0
   56.1900   30.5330   44.8460 O   0  0  0  0  0  0  0  0  0  0  0  0
   57.9520   31.9620   45.5540 C   0  0  0  0  0  0  0  0  0  0  0  0
   58.2900   32.8760   44.5360 C   0  0  0  0  0  0  0  0  0  0  0  0
   58.8200   34.1290   44.8570 C   0  0  0  0  0  0  0  0  0  0  0  0
   59.0190   34.4860   46.1930 C   0  0  0  0  0  0  0  0  0  0  0  0
   59.5330   35.7020   46.5010 F   0  0  0  0  0  0  0  0  0  0  0  0
   58.6880   33.5890   47.2110 C   0  0  0  0  0  0  0  0  0  0  0  0
   58.1580   32.3340   46.8970 C   0  0  0  0  0  0  0  0  0  0  0  0
   56.4870   27.6740   45.6050 C   0  0  0  0  0  0  0  0  0  0  0  0
   51.8789   23.7187   45.9514 H   0  0  0  0  0  0  0  0  0  0  0  0
   51.5630   24.5725   44.4029 H   0  0  0  0  0  0  0  0  0  0  0  0
   51.9029   22.8086   44.4029 H   0  0  0  0  0  0  0  0  0  0  0  0
   56.7387   24.6461   47.1697 H   0  0  0  0  0  0  0  0  0  0  0  0
   59.0382   25.5055   47.5890 H   0  0  0  0  0  0  0  0  0  0  0  0
   60.0144   27.5324   49.4763 H   0  0  0  0  0  0  0  0  0  0  0  0
   60.6498   29.2564   51.1636 H   0  0  0  0  0  0  0  0  0  0  0  0
   61.3246   31.5432   50.4231 H   0  0  0  0  0  0  0  0  0  0  0  0
   61.3443   32.1143   47.9934 H   0  0  0  0  0  0  0  0  0  0  0  0
   60.2460   29.8710   45.3230 H   0  0  0  0  0  0  0  0  0  0  0  0
   58.1358   32.6016   43.4820 H   0  0  0  0  0  0  0  0  0  0  0  0
   59.0811   34.8358   44.0556 H   0  0  0  0  0  0  0  0  0  0  0  0
   58.8447   33.8707   48.2627 H   0  0  0  0  0  0  0  0  0  0  0  0
   57.9001   31.6324   47.7040 H   0  0  0  0  0  0  0  0  0  0  0  0
   55.7798   28.2670   45.0064 H   0  0  0  0  0  0  0  0  0  0  0  0
  1  2  1  0
  2  3  1  0
  3  4  2  0
  3  5  1  0
  5  6  1  0
  6  7  2  0
  7  8  1  0
  8  9  2  0
  9 10  1  0
 10 11  1  0
 11 12  2  0
 12 13  1  0
 13 14  2  0
 14 15  1  0
 15 16  2  0
 16 17  1  0
  9 18  1  0
 18 19  1  0
 19 20  1  0
 20 21  2  0
 20 22  1  0
 22 23  2  0
 23 24  1  0
 24 25  2  0
 25 26  1  0
 25 27  1  0
 27 28  2  0
 18 29  2  0
 29  6  1  0
 16 11  1  0
 28 22  1  0
  1 30  1  0
  1 31  1  0
  1 32  1  0
  7 33  1  0
  8 34  1  0
 12 35  1  0
 13 36  1  0
 14 37  1  0
 15 38  1  0
 17 39  1  0
 23 40  1  0
 24 41  1  0
 27 42  1  0
 28 43  1  0
 29 44  1  0
M  CHG  3   2  -1   5  -1  19  -1
M  END
>  <UniqueID>  (76) 
72

>  <SMILES>  (76) 
C[N-]C(=O)[N-]c1ccc(Oc2ccccc2O)c([N-]C(=O)c2ccc(F)cc2)c1

>  <Energy>  (76) 
58.23939410357711

>  <Genealogy>  (76) 
C[N-]C(=O)[N-]c1ccc(Oc2ccccc2O)c([N-]C(=O)c2ccc(F)cc2)c1 (protonated)
C[N-]C(=O)[N-]c1ccc(Oc2ccccc2O)c([N-]C(=O)c2ccc(F)cc2)c1 (3D coordinates assigned)
C[N-]C(=O)[N-]c1ccc(Oc2ccccc2O)c([N-]C(=O)c2ccc(F)cc2)c1 (optimized conformer: 58.23939410357711 kcal/mol)

>  <smiles>  (76) 
CNC(=O)Nc1ccc(Oc2ccccc2O)c(NC(=O)c2ccc(F)cc2)c1

>  <score_type>  (76) 
oracle

>  <origin>  (76) 
adg

>  <m_score__min__energy>  (76) 
-12.16

>  <m_primary>  (76) 
energy

$$$$
76:0
     RDKit          3D

 44 46  0  0  0  0  0  0  0  0999 V2000
   55.4270   28.7580   52.7710 O   0  0  0  0  0  0  0  0  0  0  0  0
   55.2980   29.9600   52.4100 C   0  0  0  0  0  0  0  0  0  0  0  0
   54.1060   30.3820   51.7270 N   0  0  0  0  0  0  0  0  0  0  0  0
   52.9720   29.4950   51.4580 C   0  0  0  0  0  0  0  0  0  0  0  0
   52.1200   30.0020   50.3180 C   0  0  0  0  0  0  0  0  0  0  0  0
   51.9580   29.1500   49.2670 N   0  0  0  0  0  0  0  0  0  0  0  0
   51.2300   29.4640   48.1700 C   0  0  0  0  0  0  0  0  0  0  0  0
   50.6120   30.7020   48.0820 C   0  0  0  0  0  0  0  0  0  0  0  0
   50.7410   31.6140   49.1270 C   0  0  0  0  0  0  0  0  0  0  0  0
   50.1170   32.8500   48.9930 O   0  0  0  0  0  0  0  0  0  0  0  0
   51.4960   31.2860   50.2850 C   0  0  0  0  0  0  0  0  0  0  0  0
   51.6070   32.2820   51.3990 C   0  0  0  0  0  0  0  0  0  0  0  0
   52.7410   32.7160   51.7450 O   0  0  0  0  0  0  0  0  0  0  0  0
   50.4740   32.7480   52.0710 O   0  0  0  0  0  0  0  0  0  0  0  0
   50.2340   32.5270   53.4590 C   0  0  0  0  0  0  0  0  0  0  0  0
   50.8640   31.2300   53.8870 C   0  0  0  0  0  0  0  0  0  0  0  0
   50.2200   30.0070   53.6360 C   0  0  0  0  0  0  0  0  0  0  0  0
   50.7840   28.8090   54.0890 C   0  0  0  0  0  0  0  0  0  0  0  0
   51.9870   28.8260   54.8000 C   0  0  0  0  0  0  0  0  0  0  0  0
   52.6310   30.0390   55.0560 C   0  0  0  0  0  0  0  0  0  0  0  0
   52.0720   31.2380   54.6050 C   0  0  0  0  0  0  0  0  0  0  0  0
   56.4010   30.9130   52.6680 C   0  0  0  0  0  0  0  0  0  0  0  0
   56.9160   31.6900   51.6170 C   0  0  0  0  0  0  0  0  0  0  0  0
   57.9440   32.6080   51.8550 C   0  0  0  0  0  0  0  0  0  0  0  0
   58.4740   32.7510   53.1410 C   0  0  0  0  0  0  0  0  0  0  0  0
   59.7560   33.9100   53.4390 Cl  0  0  0  0  0  0  0  0  0  0  0  0
   57.9800   31.9690   54.1880 C   0  0  0  0  0  0  0  0  0  0  0  0
   56.9490   31.0520   53.9550 C   0  0  0  0  0  0  0  0  0  0  0  0
   54.0140   31.3800   51.4370 H   0  0  0  0  0  0  0  0  0  0  0  0
   53.3546   28.4966   51.1996 H   0  0  0  0  0  0  0  0  0  0  0  0
   52.3460   29.4574   52.3617 H   0  0  0  0  0  0  0  0  0  0  0  0
   51.1288   28.7382   47.3496 H   0  0  0  0  0  0  0  0  0  0  0  0
   50.0223   30.9629   47.1908 H   0  0  0  0  0  0  0  0  0  0  0  0
   50.6690   33.3532   54.0405 H   0  0  0  0  0  0  0  0  0  0  0  0
   49.1494   32.4787   53.6359 H   0  0  0  0  0  0  0  0  0  0  0  0
   49.2699   29.9910   53.0819 H   0  0  0  0  0  0  0  0  0  0  0  0
   50.2798   27.8528   53.8852 H   0  0  0  0  0  0  0  0  0  0  0  0
   52.4271   27.8837   55.1583 H   0  0  0  0  0  0  0  0  0  0  0  0
   53.5793   30.0505   55.6133 H   0  0  0  0  0  0  0  0  0  0  0  0
   52.5795   32.1915   54.8129 H   0  0  0  0  0  0  0  0  0  0  0  0
   56.5086   31.5758   50.6016 H   0  0  0  0  0  0  0  0  0  0  0  0
   58.3364   33.2189   51.0287 H   0  0  0  0  0  0  0  0  0  0  0  0
   58.4026   32.0744   55.1981 H   0  0  0  0  0  0  0  0  0  0  0  0
   56.5657   30.4372   54.7827 H   0  0  0  0  0  0  0  0  0  0  0  0
  1  2  2  0
  2  3  1  0
  3  4  1  0
  4  5  1  0
  5  6  2  0
  6  7  1  0
  7  8  2  0
  8  9  1  0
  9 10  1  0
  9 11  2  0
 11 12  1  0
 12 13  2  0
 12 14  1  0
 14 15  1  0
 15 16  1  0
 16 17  2  0
 17 18  1  0
 18 19  2  0
 19 20  1  0
 20 21  2  0
  2 22  1  0
 22 23  2  0
 23 24  1  0
 24 25  2  0
 25 26  1  0
 25 27  1  0
 27 28  2  0
 11  5  1  0
 21 16  1  0
 28 22  1  0
  3 29  1  0
  4 30  1  0
  4 31  1  0
  7 32  1  0
  8 33  1  0
 15 34  1  0
 15 35  1  0
 17 36  1  0
 18 37  1  0
 19 38  1  0
 20 39  1  0
 21 40  1  0
 23 41  1  0
 24 42  1  0
 27 43  1  0
 28 44  1  0
M  CHG  1  10  -1
M  END
>  <UniqueID>  (77) 
73

>  <SMILES>  (77) 
O=C(NCc1nccc([O-])c1C(=O)OCc1ccccc1)c1ccc(Cl)cc1

>  <Energy>  (77) 
50.79814061625267

>  <Genealogy>  (77) 
O=C(NCc1nccc([O-])c1C(=O)OCc1ccccc1)c1ccc(Cl)cc1 (protonated)
O=C(NCc1nccc([O-])c1C(=O)OCc1ccccc1)c1ccc(Cl)cc1 (3D coordinates assigned)
O=C(NCc1nccc([O-])c1C(=O)OCc1ccccc1)c1ccc(Cl)cc1 (optimized conformer: 50.79814061625267 kcal/mol)

>  <smiles>  (77) 
O=C(NCc1nccc(O)c1C(=O)OCc1ccccc1)c1ccc(Cl)cc1

>  <score_type>  (77) 
oracle

>  <origin>  (77) 
adg

>  <m_score__min__energy>  (77) 
-12.210000000000001

>  <m_primary>  (77) 
energy

$$$$
77:0
     RDKit          3D

 40 42  0  0  0  0  0  0  0  0999 V2000
   59.9406   26.6402   46.2384 H   0  0  0  0  0  0  0  0  0  0  0  0
   58.8530   26.4950   46.1600 C   0  0  0  0  0  0  0  0  0  0  0  0
   58.2940   25.2510   46.4430 C   0  0  0  0  0  0  0  0  0  0  0  0
   58.9425   24.4104   46.7308 H   0  0  0  0  0  0  0  0  0  0  0  0
   56.9120   25.0690   46.3620 C   0  0  0  0  0  0  0  0  0  0  0  0
   56.4770   24.0849   46.5909 H   0  0  0  0  0  0  0  0  0  0  0  0
   56.0690   26.1370   45.9890 C   0  0  0  0  0  0  0  0  0  0  0  0
   54.6740   25.9830   45.9650 O   0  0  0  0  0  0  0  0  0  0  0  0
   53.9920   24.7890   45.6000 C   0  0  0  0  0  0  0  0  0  0  0  0
   53.6843   24.2502   46.5083 H   0  0  0  0  0  0  0  0  0  0  0  0
   53.1023   25.0423   45.0047 H   0  0  0  0  0  0  0  0  0  0  0  0
   54.6621   24.1513   45.0047 H   0  0  0  0  0  0  0  0  0  0  0  0
   56.6470   27.3890   45.6640 C   0  0  0  0  0  0  0  0  0  0  0  0
   55.8750   28.5220   45.2310 N   0  0  0  0  0  0  0  0  0  0  0  0
   56.4420   29.8480   44.2700 S   0  0  0  0  0  0  0  0  0  0  0  0
   55.5290   31.0230   44.4830 O   0  0  0  0  0  0  0  0  0  0  0  0
   56.4350   29.4520   42.8200 O   0  0  0  0  0  0  0  0  0  0  0  0
   58.0480   30.2720   44.7740 N   0  0  0  0  0  0  0  0  0  0  0  0
   58.4020   31.2980   45.4960 C   0  0  0  0  0  0  0  0  0  0  0  0
   59.5400   31.1940   46.3350 C   0  0  0  0  0  0  0  0  0  0  0  0
   60.3500   29.9130   46.3860 C   0  0  0  0  0  0  0  0  0  0  0  0
   60.5272   29.6328   47.4348 H   0  0  0  0  0  0  0  0  0  0  0  0
   59.7961   29.1085   45.8801 H   0  0  0  0  0  0  0  0  0  0  0  0
   61.3143   30.0685   45.8801 H   0  0  0  0  0  0  0  0  0  0  0  0
   59.9180   32.3170   47.1170 C   0  0  0  0  0  0  0  0  0  0  0  0
   61.0370   32.2920   47.9800 C   0  0  0  0  0  0  0  0  0  0  0  0
   61.6442   31.3782   48.0589 H   0  0  0  0  0  0  0  0  0  0  0  0
   61.3790   33.4180   48.7340 C   0  0  0  0  0  0  0  0  0  0  0  0
   62.2522   33.3851   49.4021 H   0  0  0  0  0  0  0  0  0  0  0  0
   60.6180   34.5830   48.6430 C   0  0  0  0  0  0  0  0  0  0  0  0
   60.8923   35.4661   49.2387 H   0  0  0  0  0  0  0  0  0  0  0  0
   59.5100   34.6300   47.7980 C   0  0  0  0  0  0  0  0  0  0  0  0
   58.9120   35.5506   47.7288 H   0  0  0  0  0  0  0  0  0  0  0  0
   59.1550   33.5060   47.0350 C   0  0  0  0  0  0  0  0  0  0  0  0
   58.0470   33.5530   46.1890 C   0  0  0  0  0  0  0  0  0  0  0  0
   57.4524   34.4759   46.1205 H   0  0  0  0  0  0  0  0  0  0  0  0
   57.6960   32.4710   45.4500 N   0  0  0  0  0  0  0  0  0  0  0  0
   56.8540   32.5730   44.8440 H   0  0  0  0  0  0  0  0  0  0  0  0
   58.0330   27.5570   45.7770 C   0  0  0  0  0  0  0  0  0  0  0  0
   58.4806   28.5384   45.5611 H   0  0  0  0  0  0  0  0  0  0  0  0
  1  2  1  0
  2  3  2  0
  3  4  1  0
  3  5  1  0
  5  6  1  0
  5  7  2  0
  7  8  1  0
  8  9  1  0
  9 10  1  0
  9 11  1  0
  9 12  1  0
  7 13  1  0
 13 14  1  0
 14 15  1  0
 15 16  2  0
 15 17  2  0
 15 18  1  0
 18 19  2  0
 19 20  1  0
 20 21  1  0
 21 22  1  0
 21 23  1  0
 21 24  1  0
 20 25  2  0
 25 26  1  0
 26 27  1  0
 26 28  2  0
 28 29  1  0
 28 30  1  0
 30 31  1  0
 30 32  2  0
 32 33  1  0
 32 34  1  0
 34 35  2  0
 35 36  1  0
 35 37  1  0
 37 38  1  0
 13 39  2  0
 39 40  1  0
 39  2  1  0
 37 19  1  0
 34 25  1  0
M  CHG  1  14  -1
M  END
>  <UniqueID>  (78) 
74

>  <SMILES>  (78) 
COc1ccccc1[N-]S(=O)(=O)/N=c1\[nH]cc2ccccc2c1C

>  <Energy>  (78) 
58.43071991949796

>  <Genealogy>  (78) 
COc1ccccc1[N-]S(=O)(=O)N=c1[nH]cc2ccccc2c1C (protonated)
COc1ccccc1[N-]S(=O)(=O)/N=c1\[nH]cc2ccccc2c1C (cis-trans isomerization)
COc1ccccc1[N-]S(=O)(=O)/N=c1\[nH]cc2ccccc2c1C (3D coordinates assigned)
COc1ccccc1[N-]S(=O)(=O)/N=c1\[nH]cc2ccccc2c1C (optimized conformer: 58.43071991949796 kcal/mol)

>  <smiles>  (78) 
COc1ccccc1NS(=O)(=O)N=c1[nH]cc2ccccc2c1C

>  <score_type>  (78) 
oracle

>  <origin>  (78) 
adg

>  <m_score__min__energy>  (78) 
-10.77

>  <m_primary>  (78) 
energy

$$$$
78:0
     RDKit          3D

 42 45  0  0  0  0  0  0  0  0999 V2000
   57.0340   21.3900   48.2870 O   0  0  0  0  0  0  0  0  0  0  0  0
   56.5020   22.3620   47.6900 C   0  0  0  0  0  0  0  0  0  0  0  0
   55.1340   22.3560   47.4200 C   0  0  0  0  0  0  0  0  0  0  0  0
   54.5870   23.4540   46.7580 C   0  0  0  0  0  0  0  0  0  0  0  0
   55.3830   24.4920   46.3940 N   0  0  0  0  0  0  0  0  0  0  0  0
   56.7180   24.4900   46.6620 C   0  0  0  0  0  0  0  0  0  0  0  0
   57.5770   25.6360   46.2570 C   0  0  0  0  0  0  0  0  0  0  0  0
   57.0130   26.9210   46.1200 C   0  0  0  0  0  0  0  0  0  0  0  0
   57.7940   28.0160   45.7290 C   0  0  0  0  0  0  0  0  0  0  0  0
   57.1820   29.2740   45.6230 O   0  0  0  0  0  0  0  0  0  0  0  0
   57.8180   30.5080   45.8310 C   0  0  0  0  0  0  0  0  0  0  0  0
   58.4850   30.7980   47.0340 C   0  0  0  0  0  0  0  0  0  0  0  0
   59.1260   32.0280   47.2100 C   0  0  0  0  0  0  0  0  0  0  0  0
   59.7580   32.2850   48.3820 F   0  0  0  0  0  0  0  0  0  0  0  0
   59.1200   32.9780   46.1790 C   0  0  0  0  0  0  0  0  0  0  0  0
   59.9440   34.5220   46.3930 S   0  0  0  0  0  0  0  0  0  0  0  0
   59.5760   35.4830   45.2970 O   0  0  0  0  0  0  0  0  0  0  0  0
   59.5360   35.1130   47.7120 O   0  0  0  0  0  0  0  0  0  0  0  0
   61.6590   34.2810   46.3810 N   0  0  0  0  0  0  0  0  0  0  0  0
   62.4090   33.8110   47.5060 C   0  0  0  0  0  0  0  0  0  0  0  0
   63.5450   33.0070   47.4080 C   0  0  0  0  0  0  0  0  0  0  0  0
   64.0810   32.7030   48.9730 S   0  0  0  0  0  0  0  0  0  0  0  0
   62.8630   33.5960   49.7070 C   0  0  0  0  0  0  0  0  0  0  0  0
   62.0450   34.1300   48.7770 N   0  0  0  0  0  0  0  0  0  0  0  0
   58.4680   32.6850   44.9730 C   0  0  0  0  0  0  0  0  0  0  0  0
   57.8270   31.4540   44.7960 C   0  0  0  0  0  0  0  0  0  0  0  0
   57.0250   31.1130   43.2710 Cl  0  0  0  0  0  0  0  0  0  0  0  0
   59.1660   27.8370   45.5010 C   0  0  0  0  0  0  0  0  0  0  0  0
   59.7390   26.5720   45.6320 C   0  0  0  0  0  0  0  0  0  0  0  0
   58.9580   25.4740   46.0020 C   0  0  0  0  0  0  0  0  0  0  0  0
   59.5610   24.2640   46.1160 F   0  0  0  0  0  0  0  0  0  0  0  0
   57.2630   23.4210   47.3090 N   0  0  0  0  0  0  0  0  0  0  0  0
   54.5030   21.5070   47.7215 H   0  0  0  0  0  0  0  0  0  0  0  0
   53.5111   23.4795   46.5306 H   0  0  0  0  0  0  0  0  0  0  0  0
   55.9418   27.0660   46.3236 H   0  0  0  0  0  0  0  0  0  0  0  0
   58.5027   30.0522   47.8423 H   0  0  0  0  0  0  0  0  0  0  0  0
   64.0051   32.6397   46.4788 H   0  0  0  0  0  0  0  0  0  0  0  0
   62.7484   33.7270   50.7931 H   0  0  0  0  0  0  0  0  0  0  0  0
   61.2170   34.7230   49.0110 H   0  0  0  0  0  0  0  0  0  0  0  0
   58.4603   33.4272   44.1612 H   0  0  0  0  0  0  0  0  0  0  0  0
   59.7919   28.6962   45.2182 H   0  0  0  0  0  0  0  0  0  0  0  0
   60.8142   26.4377   45.4425 H   0  0  0  0  0  0  0  0  0  0  0  0
  1  2  2  0
  2  3  1  0
  3  4  2  0
  4  5  1  0
  5  6  1  0
  6  7  1  0
  7  8  2  0
  8  9  1  0
  9 10  1  0
 10 11  1  0
 11 12  2  0
 12 13  1  0
 13 14  1  0
 13 15  2  0
 15 16  1  0
 16 17  2  0
 16 18  2  0
 16 19  1  0
 19 20  1  0
 20 21  2  0
 21 22  1  0
 22 23  1  0
 23 24  2  0
 15 25  1  0
 25 26  2  0
 26 27  1  0
  9 28  2  0
 28 29  1  0
 29 30  2  0
 30 31  1  0
  6 32  2  0
 32  2  1  0
 30  7  1  0
 26 11  1  0
 24 20  1  0
  3 33  1  0
  4 34  1  0
  8 35  1  0
 12 36  1  0
 21 37  1  0
 23 38  1  0
 24 39  1  0
 25 40  1  0
 28 41  1  0
 29 42  1  0
M  CHG  3   5  -1  19  -1  24   1
M  END
>  <UniqueID>  (79) 
75

>  <SMILES>  (79) 
O=c1cc[n-]c(-c2cc(Oc3cc(F)c(S(=O)(=O)[N-]c4csc[nH+]4)cc3Cl)ccc2F)n1

>  <Energy>  (79) 
89.40761815967198

>  <Genealogy>  (79) 
O=c1cc[n-]c(-c2cc(Oc3cc(F)c(S(=O)(=O)[N-]c4csc[nH+]4)cc3Cl)ccc2F)n1 (protonated)
O=c1cc[n-]c(-c2cc(Oc3cc(F)c(S(=O)(=O)[N-]c4csc[nH+]4)cc3Cl)ccc2F)n1 (3D coordinates assigned)
O=c1cc[n-]c(-c2cc(Oc3cc(F)c(S(=O)(=O)[N-]c4csc[nH+]4)cc3Cl)ccc2F)n1 (optimized conformer: 89.40761815967198 kcal/mol)

>  <smiles>  (79) 
O=c1cc[nH]c(-c2cc(Oc3cc(F)c(S(=O)(=O)Nc4cscn4)cc3Cl)ccc2F)n1

>  <score_type>  (79) 
oracle

>  <origin>  (79) 
adg

>  <m_score__min__energy>  (79) 
-10.49

>  <m_primary>  (79) 
energy

$$$$
79:0
     RDKit          3D

 53 57  0  0  0  0  0  0  0  0999 V2000
   56.5350   26.5700   45.7600 C   0  0  0  0  0  0  0  0  0  0  0  0
   57.6920   27.2530   45.1860 N   0  0  0  0  0  0  0  0  0  0  0  0
   58.9960   26.5930   45.1550 C   0  0  0  0  0  0  0  0  0  0  0  0
   57.5950   28.6370   44.8120 C   0  0  0  0  0  0  0  0  0  0  0  0
   56.9810   28.9690   43.6000 C   0  0  0  0  0  0  0  0  0  0  0  0
   56.8880   30.2980   43.1970 C   0  0  0  0  0  0  0  0  0  0  0  0
   57.4060   31.3160   43.9960 C   0  0  0  0  0  0  0  0  0  0  0  0
   58.0290   31.0210   45.2270 C   0  0  0  0  0  0  0  0  0  0  0  0
   58.5640   32.0400   46.0620 C   0  0  0  0  0  0  0  0  0  0  0  0
   58.5010   33.7580   45.6220 S   0  0  0  0  0  0  0  0  0  0  0  0
   58.6650   33.8940   44.1340 O   0  0  0  0  0  0  0  0  0  0  0  0
   57.1800   34.3290   46.0560 O   0  0  0  0  0  0  0  0  0  0  0  0
   59.7780   34.6270   46.4110 N   0  0  0  0  0  0  0  0  0  0  0  0
   60.3850   34.2530   47.6550 C   0  0  0  0  0  0  0  0  0  0  0  0
   59.7010   34.3260   48.8860 C   0  0  0  0  0  0  0  0  0  0  0  0
   60.3480   33.9610   50.0800 C   0  0  0  0  0  0  0  0  0  0  0  0
   61.6770   33.5100   50.0650 C   0  0  0  0  0  0  0  0  0  0  0  0
   62.3510   33.4150   48.8390 C   0  0  0  0  0  0  0  0  0  0  0  0
   63.6820   32.9980   48.6280 C   0  0  0  0  0  0  0  0  0  0  0  0
   64.5990   32.5010   49.6760 C   0  0  0  0  0  0  0  0  0  0  0  0
   65.8780   33.0640   49.8200 C   0  0  0  0  0  0  0  0  0  0  0  0
   66.7570   32.5820   50.7960 C   0  0  0  0  0  0  0  0  0  0  0  0
   66.3700   31.5280   51.6270 C   0  0  0  0  0  0  0  0  0  0  0  0
   65.1060   30.9500   51.4800 C   0  0  0  0  0  0  0  0  0  0  0  0
   64.2250   31.4290   50.5050 C   0  0  0  0  0  0  0  0  0  0  0  0
   64.0650   33.0870   47.2860 C   0  0  0  0  0  0  0  0  0  0  0  0
   62.7620   33.6490   46.3740 S   0  0  0  0  0  0  0  0  0  0  0  0
   61.7050   33.7990   47.6700 C   0  0  0  0  0  0  0  0  0  0  0  0
   59.1630   31.6880   47.2800 C   0  0  0  0  0  0  0  0  0  0  0  0
   59.2370   30.3560   47.6810 C   0  0  0  0  0  0  0  0  0  0  0  0
   58.7200   29.3480   46.8710 C   0  0  0  0  0  0  0  0  0  0  0  0
   58.1190   29.6590   45.6390 C   0  0  0  0  0  0  0  0  0  0  0  0
   56.5955   26.6057   46.8578 H   0  0  0  0  0  0  0  0  0  0  0  0
   55.6126   27.0685   45.4272 H   0  0  0  0  0  0  0  0  0  0  0  0
   56.5258   25.5216   45.4272 H   0  0  0  0  0  0  0  0  0  0  0  0
   59.3427   26.4175   46.1841 H   0  0  0  0  0  0  0  0  0  0  0  0
   58.9077   25.6311   44.6288 H   0  0  0  0  0  0  0  0  0  0  0  0
   59.7189   27.2338   44.6288 H   0  0  0  0  0  0  0  0  0  0  0  0
   56.5687   28.1743   42.9609 H   0  0  0  0  0  0  0  0  0  0  0  0
   56.4026   30.5466   42.2417 H   0  0  0  0  0  0  0  0  0  0  0  0
   57.3281   32.3615   43.6629 H   0  0  0  0  0  0  0  0  0  0  0  0
   58.6565   34.6700   48.9124 H   0  0  0  0  0  0  0  0  0  0  0  0
   59.8071   34.0296   51.0353 H   0  0  0  0  0  0  0  0  0  0  0  0
   62.1830   33.2348   51.0022 H   0  0  0  0  0  0  0  0  0  0  0  0
   66.1901   33.8883   49.1618 H   0  0  0  0  0  0  0  0  0  0  0  0
   67.7537   33.0334   50.9090 H   0  0  0  0  0  0  0  0  0  0  0  0
   67.0601   31.1529   52.3971 H   0  0  0  0  0  0  0  0  0  0  0  0
   64.8037   30.1172   52.1320 H   0  0  0  0  0  0  0  0  0  0  0  0
   63.2349   30.9648   50.3863 H   0  0  0  0  0  0  0  0  0  0  0  0
   65.0582   32.8312   46.8883 H   0  0  0  0  0  0  0  0  0  0  0  0
   59.5798   32.4738   47.9271 H   0  0  0  0  0  0  0  0  0  0  0  0
   59.7061   30.0991   48.6422 H   0  0  0  0  0  0  0  0  0  0  0  0
   58.7825   28.2996   47.1981 H   0  0  0  0  0  0  0  0  0  0  0  0
  1  2  1  0
  2  3  1  0
  2  4  1  0
  4  5  2  0
  5  6  1  0
  6  7  2  0
  7  8  1  0
  8  9  2  0
  9 10  1  0
 10 11  2  0
 10 12  2  0
 10 13  1  0
 13 14  1  0
 14 15  2  0
 15 16  1  0
 16 17  2  0
 17 18  1  0
 18 19  1  0
 19 20  1  0
 20 21  2  0
 21 22  1  0
 22 23  2  0
 23 24  1  0
 24 25  2  0
 19 26  2  0
 26 27  1  0
 27 28  1  0
  9 29  1  0
 29 30  2  0
 30 31  1  0
 31 32  2  0
 32  4  1  0
 32  8  1  0
 28 14  1  0
 28 18  2  0
 25 20  1  0
  1 33  1  0
  1 34  1  0
  1 35  1  0
  3 36  1  0
  3 37  1  0
  3 38  1  0
  5 39  1  0
  6 40  1  0
  7 41  1  0
 15 42  1  0
 16 43  1  0
 17 44  1  0
 21 45  1  0
 22 46  1  0
 23 47  1  0
 24 48  1  0
 25 49  1  0
 26 50  1  0
 29 51  1  0
 30 52  1  0
 31 53  1  0
M  CHG  1  13  -1
M  END
>  <UniqueID>  (80) 
76

>  <SMILES>  (80) 
CN(C)c1cccc2c(S(=O)(=O)[N-]c3cccc4c(-c5ccccc5)csc34)cccc12

>  <Energy>  (80) 
111.19203696798897

>  <Genealogy>  (80) 
CN(C)c1cccc2c(S(=O)(=O)[N-]c3cccc4c(-c5ccccc5)csc34)cccc12 (protonated)
CN(C)c1cccc2c(S(=O)(=O)[N-]c3cccc4c(-c5ccccc5)csc34)cccc12 (3D coordinates assigned)
CN(C)c1cccc2c(S(=O)(=O)[N-]c3cccc4c(-c5ccccc5)csc34)cccc12 (optimized conformer: 111.19203696798897 kcal/mol)

>  <smiles>  (80) 
CN(C)c1cccc2c(S(=O)(=O)Nc3cccc4c(-c5ccccc5)csc34)cccc12

>  <score_type>  (80) 
oracle

>  <origin>  (80) 
adg

>  <m_score__min__energy>  (80) 
-11.01

>  <m_primary>  (80) 
energy

$$$$
80:0
     RDKit          3D

 59 62  0  0  0  0  0  0  0  0999 V2000
   52.8170   21.9000   47.6470 C   0  0  0  0  0  0  0  0  0  0  0  0
   53.5330   23.1260   47.3130 N   0  0  0  0  0  0  0  0  0  0  0  0
   53.8620   23.5230   45.9780 C   0  0  0  0  0  0  0  0  0  0  0  0
   52.9850   23.4330   45.0800 O   0  0  0  0  0  0  0  0  0  0  0  0
   55.1890   24.0630   45.6330 C   0  0  0  0  0  0  0  0  0  0  0  0
   56.2330   23.1770   45.3380 C   0  0  0  0  0  0  0  0  0  0  0  0
   57.5000   23.6660   45.0130 C   0  0  0  0  0  0  0  0  0  0  0  0
   57.7360   25.0420   44.9950 C   0  0  0  0  0  0  0  0  0  0  0  0
   56.7090   25.9460   45.3190 C   0  0  0  0  0  0  0  0  0  0  0  0
   56.9490   27.3650   45.3140 N   0  0  0  0  0  0  0  0  0  0  0  0
   57.7890   28.0310   46.2720 C   0  0  0  0  0  0  0  0  0  0  0  0
   58.6160   27.2610   47.1010 C   0  0  0  0  0  0  0  0  0  0  0  0
   59.4230   27.8710   48.0600 C   0  0  0  0  0  0  0  0  0  0  0  0
   59.4270   29.2640   48.1930 C   0  0  0  0  0  0  0  0  0  0  0  0
   60.4050   30.0280   49.4420 S   0  0  0  0  0  0  0  0  0  0  0  0
   59.5520   30.3200   50.6460 O   0  0  0  0  0  0  0  0  0  0  0  0
   61.5050   29.0820   49.8330 O   0  0  0  0  0  0  0  0  0  0  0  0
   61.0940   31.5140   48.8370 N   0  0  0  0  0  0  0  0  0  0  0  0
   62.0270   32.0800   49.8230 C   0  0  0  0  0  0  0  0  0  0  0  0
   62.6270   33.3960   49.2840 C   0  0  0  0  0  0  0  0  0  0  0  0
   62.3010   33.6200   47.9230 O   0  0  0  0  0  0  0  0  0  0  0  0
   62.6450   32.4830   47.1570 C   0  0  0  0  0  0  0  0  0  0  0  0
   61.7940   31.2630   47.5650 C   0  0  0  0  0  0  0  0  0  0  0  0
   58.6230   30.0440   47.3520 C   0  0  0  0  0  0  0  0  0  0  0  0
   57.8230   29.4390   46.3650 C   0  0  0  0  0  0  0  0  0  0  0  0
   57.0160   30.2170   45.4670 N   0  0  0  0  0  0  0  0  0  0  0  0
   57.4410   31.2190   44.5340 C   0  0  0  0  0  0  0  0  0  0  0  0
   57.2360   31.0670   43.2990 O   0  0  0  0  0  0  0  0  0  0  0  0
   58.0700   32.4660   45.0310 C   0  0  0  0  0  0  0  0  0  0  0  0
   58.5720   33.4220   44.1260 C   0  0  0  0  0  0  0  0  0  0  0  0
   59.1660   34.5970   44.5940 C   0  0  0  0  0  0  0  0  0  0  0  0
   59.2680   34.8330   45.9670 C   0  0  0  0  0  0  0  0  0  0  0  0
   59.8420   35.9770   46.4130 F   0  0  0  0  0  0  0  0  0  0  0  0
   58.7740   33.8920   46.8770 C   0  0  0  0  0  0  0  0  0  0  0  0
   58.8730   34.1260   48.2420 O   0  0  0  0  0  0  0  0  0  0  0  0
   58.1790   32.7150   46.4120 C   0  0  0  0  0  0  0  0  0  0  0  0
   55.4310   25.4510   45.6350 C   0  0  0  0  0  0  0  0  0  0  0  0
   54.4160   26.3360   45.9890 O   0  0  0  0  0  0  0  0  0  0  0  0
   52.7568   21.7969   48.7405 H   0  0  0  0  0  0  0  0  0  0  0  0
   51.8015   21.9422   47.2262 H   0  0  0  0  0  0  0  0  0  0  0  0
   53.3527   21.0363   47.2262 H   0  0  0  0  0  0  0  0  0  0  0  0
   56.0542   22.0919   45.3624 H   0  0  0  0  0  0  0  0  0  0  0  0
   58.3133   22.9661   44.7708 H   0  0  0  0  0  0  0  0  0  0  0  0
   58.7326   25.4216   44.7254 H   0  0  0  0  0  0  0  0  0  0  0  0
   56.5470   27.9370   44.5370 H   0  0  0  0  0  0  0  0  0  0  0  0
   58.6284   26.1663   46.9940 H   0  0  0  0  0  0  0  0  0  0  0  0
   60.0584   27.2557   48.7140 H   0  0  0  0  0  0  0  0  0  0  0  0
   61.4884   32.2819   50.7607 H   0  0  0  0  0  0  0  0  0  0  0  0
   62.8387   31.3610   50.0076 H   0  0  0  0  0  0  0  0  0  0  0  0
   62.2385   34.2329   49.8828 H   0  0  0  0  0  0  0  0  0  0  0  0
   63.7219   33.3213   49.3591 H   0  0  0  0  0  0  0  0  0  0  0  0
   62.4737   32.7012   46.0926 H   0  0  0  0  0  0  0  0  0  0  0  0
   63.7043   32.2470   47.3366 H   0  0  0  0  0  0  0  0  0  0  0  0
   61.0516   31.0621   46.7786 H   0  0  0  0  0  0  0  0  0  0  0  0
   62.4595   30.3968   47.6942 H   0  0  0  0  0  0  0  0  0  0  0  0
   58.6169   31.1383   47.4640 H   0  0  0  0  0  0  0  0  0  0  0  0
   58.4958   33.2422   43.0435 H   0  0  0  0  0  0  0  0  0  0  0  0
   59.5542   35.3379   43.8796 H   0  0  0  0  0  0  0  0  0  0  0  0
   57.7930   31.9778   47.1314 H   0  0  0  0  0  0  0  0  0  0  0  0
  1  2  1  0
  2  3  1  0
  3  4  2  0
  3  5  1  0
  5  6  2  0
  6  7  1  0
  7  8  2  0
  8  9  1  0
  9 10  1  0
 10 11  1  0
 11 12  2  0
 12 13  1  0
 13 14  2  0
 14 15  1  0
 15 16  2  0
 15 17  2  0
 15 18  1  0
 18 19  1  0
 19 20  1  0
 20 21  1  0
 21 22  1  0
 22 23  1  0
 14 24  1  0
 24 25  2  0
 25 26  1  0
 26 27  1  0
 27 28  2  0
 27 29  1  0
 29 30  2  0
 30 31  1  0
 31 32  2  0
 32 33  1  0
 32 34  1  0
 34 35  1  0
 34 36  2  0
  9 37  2  0
 37 38  1  0
 37  5  1  0
 25 11  1  0
 36 29  1  0
 23 18  1  0
  1 39  1  0
  1 40  1  0
  1 41  1  0
  6 42  1  0
  7 43  1  0
  8 44  1  0
 10 45  1  0
 12 46  1  0
 13 47  1  0
 19 48  1  0
 19 49  1  0
 20 50  1  0
 20 51  1  0
 22 52  1  0
 22 53  1  0
 23 54  1  0
 23 55  1  0
 24 56  1  0
 30 57  1  0
 31 58  1  0
 36 59  1  0
M  CHG  4   2  -1  26  -1  35  -1  38  -1
M  END
>  <UniqueID>  (81) 
77

>  <SMILES>  (81) 
C[N-]C(=O)c1cccc(Nc2ccc(S(=O)(=O)N3CCOCC3)cc2[N-]C(=O)c2ccc(F)c([O-])c2)c1[O-]

>  <Energy>  (81) 
84.51674746025779

>  <Genealogy>  (81) 
C[N-]C(=O)c1cccc(Nc2ccc(S(=O)(=O)N3CCOCC3)cc2[N-]C(=O)c2ccc(F)c([O-])c2)c1[O-] (protonated)
C[N-]C(=O)c1cccc(Nc2ccc(S(=O)(=O)N3CCOCC3)cc2[N-]C(=O)c2ccc(F)c([O-])c2)c1[O-] (3D coordinates assigned)
C[N-]C(=O)c1cccc(Nc2ccc(S(=O)(=O)N3CCOCC3)cc2[N-]C(=O)c2ccc(F)c([O-])c2)c1[O-] (nonaromatic ring conformer: 84.51674746025779 kcal/mol)

>  <smiles>  (81) 
CNC(=O)c1cccc(Nc2ccc(S(=O)(=O)N3CCOCC3)cc2NC(=O)c2ccc(F)c(O)c2)c1O

>  <score_type>  (81) 
oracle

>  <origin>  (81) 
adg

>  <m_score__min__energy>  (81) 
-17.890000000000001

>  <m_primary>  (81) 
energy

$$$$
81:0
     RDKit          3D

 24 24  0  0  0  0  0  0  0  0999 V2000
   55.5320   25.9730   46.0160 N   0  0  0  0  0  0  0  0  0  0  0  0
   56.1930   26.9080   45.8480 C   0  0  0  0  0  0  0  0  0  0  0  0
   56.9950   28.0410   45.6450 N   0  0  0  0  0  0  0  0  0  0  0  0
   56.4450   29.2560   45.1160 C   0  0  0  0  0  0  0  0  0  0  0  0
   55.2100   29.3330   44.8750 O   0  0  0  0  0  0  0  0  0  0  0  0
   57.2680   30.4000   44.8600 N   0  0  0  0  0  0  0  0  0  0  0  0
   56.7860   31.7280   44.4870 C   0  0  0  0  0  0  0  0  0  0  0  0
   57.9520   32.6830   44.2030 C   0  0  0  0  0  0  0  0  0  0  0  0
   57.7390   34.0540   44.8520 C   0  0  0  0  0  0  0  0  0  0  0  0
   58.4960   34.1430   46.0980 N   0  0  0  0  0  0  0  0  0  0  0  0
   59.6170   34.8490   46.3130 C   0  0  0  0  0  0  0  0  0  0  0  0
   60.0400   34.5870   47.5970 C   0  0  0  0  0  0  0  0  0  0  0  0
   59.1970   33.7110   48.1810 N   0  0  0  0  0  0  0  0  0  0  0  0
   58.2700   33.4570   47.2350 C   0  0  0  0  0  0  0  0  0  0  0  0
   58.0010   27.9750   45.9080 H   0  0  0  0  0  0  0  0  0  0  0  0
   56.1639   31.6431   43.5838 H   0  0  0  0  0  0  0  0  0  0  0  0
   56.2005   32.1336   45.3252 H   0  0  0  0  0  0  0  0  0  0  0  0
   58.8779   32.2416   44.6002 H   0  0  0  0  0  0  0  0  0  0  0  0
   58.0166   32.8276   43.1145 H   0  0  0  0  0  0  0  0  0  0  0  0
   58.0802   34.8400   44.1622 H   0  0  0  0  0  0  0  0  0  0  0  0
   56.6691   34.1863   45.0707 H   0  0  0  0  0  0  0  0  0  0  0  0
   60.1100   35.5177   45.5920 H   0  0  0  0  0  0  0  0  0  0  0  0
   60.9294   35.0251   48.0735 H   0  0  0  0  0  0  0  0  0  0  0  0
   57.4247   32.7674   47.3760 H   0  0  0  0  0  0  0  0  0  0  0  0
  1  2  3  0
  2  3  1  0
  3  4  1  0
  4  5  2  0
  4  6  1  0
  6  7  1  0
  7  8  1  0
  8  9  1  0
  9 10  1  0
 10 11  1  0
 11 12  2  0
 12 13  1  0
 13 14  2  0
 14 10  1  0
  3 15  1  0
  7 16  1  0
  7 17  1  0
  8 18  1  0
  8 19  1  0
  9 20  1  0
  9 21  1  0
 11 22  1  0
 12 23  1  0
 14 24  1  0
M  CHG  1   6  -1
M  END
>  <UniqueID>  (82) 
78

>  <SMILES>  (82) 
N#CNC(=O)[N-]CCCn1ccnc1

>  <Energy>  (82) 
43.17058533808796

>  <Genealogy>  (82) 
N#CNC(=O)[N-]CCCn1ccnc1 (protonated)
N#CNC(=O)[N-]CCCn1ccnc1 (3D coordinates assigned)
N#CNC(=O)[N-]CCCn1ccnc1 (optimized conformer: 43.17058533808796 kcal/mol)

>  <smiles>  (82) 
N#CNC(=O)NCCCn1ccnc1

>  <score_type>  (82) 
oracle

>  <origin>  (82) 
adg

>  <m_score__min__energy>  (82) 
-6.8099999999999996

>  <m_primary>  (82) 
energy

$$$$
82:0
     RDKit          3D

 39 41  0  0  0  0  0  0  0  0999 V2000
   50.0090   32.3350   49.7480 H   0  0  0  0  0  0  0  0  0  0  0  0
   50.9920   32.2940   50.1010 N   0  0  0  0  0  0  0  0  0  0  0  0
   51.6750   31.0470   50.2200 C   0  0  0  0  0  0  0  0  0  0  0  0
   51.5940   30.2110   49.2810 O   0  0  0  0  0  0  0  0  0  0  0  0
   52.4720   30.7390   51.4330 C   0  0  0  0  0  0  0  0  0  0  0  0
   51.8360   30.3900   52.6350 C   0  0  0  0  0  0  0  0  0  0  0  0
   50.7378   30.3449   52.6791 H   0  0  0  0  0  0  0  0  0  0  0  0
   52.5880   30.1000   53.7740 C   0  0  0  0  0  0  0  0  0  0  0  0
   52.0795   29.8282   54.7108 H   0  0  0  0  0  0  0  0  0  0  0  0
   53.9820   30.1530   53.7310 C   0  0  0  0  0  0  0  0  0  0  0  0
   54.5663   29.9222   54.6340 H   0  0  0  0  0  0  0  0  0  0  0  0
   54.6440   30.5000   52.5390 C   0  0  0  0  0  0  0  0  0  0  0  0
   56.1260   30.5620   52.4720 C   0  0  0  0  0  0  0  0  0  0  0  0
   56.8280   30.4520   51.3250 N   0  0  0  0  0  0  0  0  0  0  0  0
   58.1090   30.5650   51.7370 C   0  0  0  0  0  0  0  0  0  0  0  0
   59.1400   30.5170   50.9470 N   0  0  0  0  0  0  0  0  0  0  0  0
   59.4640   31.4660   49.9170 C   0  0  0  0  0  0  0  0  0  0  0  0
   60.6660   31.7290   49.6380 O   0  0  0  0  0  0  0  0  0  0  0  0
   58.3970   32.1470   49.2420 N   0  0  0  0  0  0  0  0  0  0  0  0
   57.4490   32.1060   49.6810 H   0  0  0  0  0  0  0  0  0  0  0  0
   58.5720   32.9710   48.0770 C   0  0  0  0  0  0  0  0  0  0  0  0
   59.3070   34.1610   48.1810 C   0  0  0  0  0  0  0  0  0  0  0  0
   59.7488   34.4474   49.1468 H   0  0  0  0  0  0  0  0  0  0  0  0
   59.4820   34.9850   47.0670 C   0  0  0  0  0  0  0  0  0  0  0  0
   60.0732   35.9084   47.1548 H   0  0  0  0  0  0  0  0  0  0  0  0
   58.9080   34.6390   45.8420 C   0  0  0  0  0  0  0  0  0  0  0  0
   59.0640   35.2812   44.9627 H   0  0  0  0  0  0  0  0  0  0  0  0
   58.1330   33.4750   45.7290 C   0  0  0  0  0  0  0  0  0  0  0  0
   57.5300   33.0950   44.4100 C   0  0  0  0  0  0  0  0  0  0  0  0
   56.6106   32.5156   44.5805 H   0  0  0  0  0  0  0  0  0  0  0  0
   57.2896   34.0051   43.8409 H   0  0  0  0  0  0  0  0  0  0  0  0
   58.2473   32.4854   43.8409 H   0  0  0  0  0  0  0  0  0  0  0  0
   57.9740   32.6390   46.8470 C   0  0  0  0  0  0  0  0  0  0  0  0
   57.3780   31.7186   46.7603 H   0  0  0  0  0  0  0  0  0  0  0  0
   58.2220   30.7330   53.0340 O   0  0  0  0  0  0  0  0  0  0  0  0
   57.0070   30.7370   53.5250 C   0  0  0  0  0  0  0  0  0  0  0  0
   56.7359   30.8578   54.5842 H   0  0  0  0  0  0  0  0  0  0  0  0
   53.8780   30.7900   51.3950 C   0  0  0  0  0  0  0  0  0  0  0  0
   54.3854   31.0605   50.4573 H   0  0  0  0  0  0  0  0  0  0  0  0
  1  2  1  0
  2  3  1  0
  3  4  2  0
  3  5  1  0
  5  6  2  0
  6  7  1  0
  6  8  1  0
  8  9  1  0
  8 10  2  0
 10 11  1  0
 10 12  1  0
 12 13  1  0
 13 14  1  0
 14 15  1  0
 15 16  2  0
 16 17  1  0
 17 18  2  0
 17 19  1  0
 19 20  1  0
 19 21  1  0
 21 22  2  0
 22 23  1  0
 22 24  1  0
 24 25  1  0
 24 26  2  0
 26 27  1  0
 26 28  1  0
 28 29  1  0
 29 30  1  0
 29 31  1  0
 29 32  1  0
 28 33  2  0
 33 34  1  0
 15 35  1  0
 35 36  1  0
 36 37  1  0
 12 38  2  0
 38 39  1  0
 38  5  1  0
 36 13  2  0
 33 21  1  0
M  CHG  2   2  -1  14  -1
M  END
>  <UniqueID>  (83) 
79

>  <SMILES>  (83) 
Cc1cccc(NC(=O)/N=c2\[n-]c(-c3cccc(C([NH-])=O)c3)co2)c1

>  <Energy>  (83) 
77.57736592332685

>  <Genealogy>  (83) 
Cc1cccc(NC(=O)N=c2[n-]c(-c3cccc(C([NH-])=O)c3)co2)c1 (protonated)
Cc1cccc(NC(=O)/N=c2\[n-]c(-c3cccc(C([NH-])=O)c3)co2)c1 (cis-trans isomerization)
Cc1cccc(NC(=O)/N=c2\[n-]c(-c3cccc(C([NH-])=O)c3)co2)c1 (3D coordinates assigned)
Cc1cccc(NC(=O)/N=c2\[n-]c(-c3cccc(C([NH-])=O)c3)co2)c1 (optimized conformer: 77.57736592332685 kcal/mol)

>  <smiles>  (83) 
Cc1cccc(NC(=O)N=c2[nH]c(-c3cccc(C(N)=O)c3)co2)c1

>  <score_type>  (83) 
oracle

>  <origin>  (83) 
adg

>  <m_score__min__energy>  (83) 
-13.17

>  <m_primary>  (83) 
energy

$$$$
83:0
     RDKit          3D

 40 42  0  0  1  0  0  0  0  0999 V2000
   57.4280   26.5600   45.3770 C   0  0  0  0  0  0  0  0  0  0  0  0
   56.5620   27.6350   45.6470 O   0  0  0  0  0  0  0  0  0  0  0  0
   56.8940   28.8880   45.1300 C   0  0  0  0  0  0  0  0  0  0  0  0
   58.1400   29.4650   45.3600 C   0  0  0  0  0  0  0  0  0  0  0  0
   58.4290   30.7050   44.8310 C   0  0  0  0  0  0  0  0  0  0  0  0
   57.5080   31.4180   44.0590 C   0  0  0  0  0  0  0  0  0  0  0  0
   57.9370   32.7250   43.5460 C   0  0  0  0  0  0  0  0  0  0  0  0
   58.5330   33.4790   44.6170 N   0  0  0  0  0  0  0  0  0  0  0  0
   57.8870   33.8060   45.8340 C   0  0  0  0  0  0  0  0  0  0  0  0
   56.7170   33.4690   46.1070 O   0  0  0  0  0  0  0  0  0  0  0  0
   58.5790   34.5680   46.8450 N   0  0  0  0  0  0  0  0  0  0  0  0
   59.7510   34.2480   47.2680 C   0  0  0  0  0  0  0  0  0  0  0  0
   60.7960   34.1750   46.3610 C   0  0  0  0  0  0  0  0  0  0  0  0
   62.0450   33.8230   46.8830 C   0  0  0  0  0  0  0  0  0  0  0  0
   63.2570   33.6540   46.3480 N   0  0  0  0  0  0  0  0  0  0  0  0
   64.1300   33.3110   47.2960 N   0  0  0  0  0  0  0  0  0  0  0  0
   63.4960   33.2490   48.4930 C   0  0  0  0  0  0  0  0  0  0  0  0
   64.1040   32.9000   49.8240 C   0  0  0  0  0  0  0  0  0  0  0  0
   63.7660   33.9230   50.7170 F   0  0  0  0  0  0  0  0  0  0  0  0
   63.5460   31.7310   50.2550 F   0  0  0  0  0  0  0  0  0  0  0  0
   62.1720   33.5740   48.2370 C   0  0  0  0  0  0  0  0  0  0  0  0
   61.0990   33.6570   49.1110 C   0  0  0  0  0  0  0  0  0  0  0  0
   59.9140   33.9990   48.5700 N   0  0  0  0  0  0  0  0  0  0  0  0
   56.2780   30.8440   43.8330 C   0  0  0  0  0  0  0  0  0  0  0  0
   55.9970   29.6030   44.3660 C   0  0  0  0  0  0  0  0  0  0  0  0
   54.7660   29.0730   44.1170 F   0  0  0  0  0  0  0  0  0  0  0  0
   57.7786   26.1247   46.3244 H   0  0  0  0  0  0  0  0  0  0  0  0
   56.8919   25.7938   44.7977 H   0  0  0  0  0  0  0  0  0  0  0  0
   58.2907   26.9207   44.7977 H   0  0  0  0  0  0  0  0  0  0  0  0
   58.8916   28.9332   45.9619 H   0  0  0  0  0  0  0  0  0  0  0  0
   59.4175   31.1478   45.0231 H   0  0  0  0  0  0  0  0  0  0  0  0
   58.6740   32.5813   42.7422 H   0  0  0  0  0  0  0  0  0  0  0  0
   57.0684   33.2700   43.1480 H   0  0  0  0  0  0  0  0  0  0  0  0
   59.5280   33.8330   44.5220 H   0  0  0  0  0  0  0  0  0  0  0  0
   60.6514   34.3823   45.2904 H   0  0  0  0  0  0  0  0  0  0  0  0
   63.4860   33.7750   45.3170 H   0  0  0  0  0  0  0  0  0  0  0  0
   65.1961   32.7895   49.7525 H   0  0  0  0  0  0  0  0  0  0  0  0
   61.2094   33.4548   50.1866 H   0  0  0  0  0  0  0  0  0  0  0  0
   59.1010   34.0660   49.2160 H   0  0  0  0  0  0  0  0  0  0  0  0
   55.5234   31.3715   43.2310 H   0  0  0  0  0  0  0  0  0  0  0  0
  1  2  1  0
  2  3  1  0
  3  4  2  0
  4  5  1  0
  5  6  2  0
  6  7  1  0
  7  8  1  0
  8  9  1  0
  9 10  2  0
  9 11  1  0
 11 12  2  0
 12 13  1  0
 13 14  2  0
 14 15  1  0
 15 16  1  0
 16 17  2  0
 17 18  1  0
 18 19  1  0
 18 20  1  0
 17 21  1  0
 21 22  2  0
 22 23  1  0
  6 24  1  0
 24 25  2  0
 25 26  1  0
 25  3  1  0
 23 12  1  0
 21 14  1  0
  1 27  1  0
  1 28  1  0
  1 29  1  0
  4 30  1  0
  5 31  1  0
  7 32  1  0
  7 33  1  0
  8 34  1  0
 13 35  1  0
 15 36  1  0
 18 37  1  0
 22 38  1  0
 23 39  1  0
 24 40  1  0
M  END
>  <smiles>  (84) 
COc1ccc(CNC(=O)N=c2cc3[nH]nc(C(F)F)c3c[nH]2)cc1F

>  <score_type>  (84) 
oracle

>  <origin>  (84) 
adg

>  <m_score__min__energy>  (84) 
-7.2800000000000002

>  <m_primary>  (84) 
energy

$$$$
84:0
     RDKit          3D

 42 46  0  0  0  0  0  0  0  0999 V2000
   56.1644   27.7051   44.3402 H   0  0  0  0  0  0  0  0  0  0  0  0
   56.6260   28.5630   44.8510 C   0  0  0  0  0  0  0  0  0  0  0  0
   56.5810   29.7990   44.4430 N   0  0  0  0  0  0  0  0  0  0  0  0
   57.2510   30.5720   45.4020 N   0  0  0  0  0  0  0  0  0  0  0  0
   58.0890   31.6110   45.2070 C   0  0  0  0  0  0  0  0  0  0  0  0
   57.9770   32.4960   44.2620 N   0  0  0  0  0  0  0  0  0  0  0  0
   57.7830   33.9220   44.5000 C   0  0  0  0  0  0  0  0  0  0  0  0
   57.2212   34.1525   43.5828 H   0  0  0  0  0  0  0  0  0  0  0  0
   58.9320   34.5800   45.2420 C   0  0  0  0  0  0  0  0  0  0  0  0
   59.8464   34.0083   45.4587 H   0  0  0  0  0  0  0  0  0  0  0  0
   59.5351   35.4881   45.0951 H   0  0  0  0  0  0  0  0  0  0  0  0
   57.6380   34.2530   45.9740 C   0  0  0  0  0  0  0  0  0  0  0  0
   57.6169   33.4448   46.7200 H   0  0  0  0  0  0  0  0  0  0  0  0
   56.9178   34.8267   46.5757 H   0  0  0  0  0  0  0  0  0  0  0  0
   59.1350   31.5820   46.0680 N   0  0  0  0  0  0  0  0  0  0  0  0
   58.8930   30.4340   46.7560 C   0  0  0  0  0  0  0  0  0  0  0  0
   59.7170   29.9060   47.6100 N   0  0  0  0  0  0  0  0  0  0  0  0
   61.1670   29.9350   47.4540 C   0  0  0  0  0  0  0  0  0  0  0  0
   61.5930   28.9802   47.7960 H   0  0  0  0  0  0  0  0  0  0  0  0
   61.4218   30.0879   46.3949 H   0  0  0  0  0  0  0  0  0  0  0  0
   61.7290   31.0580   48.2750 C   0  0  0  0  0  0  0  0  0  0  0  0
   61.0700   31.4790   49.4410 C   0  0  0  0  0  0  0  0  0  0  0  0
   60.1567   30.9620   49.7706 H   0  0  0  0  0  0  0  0  0  0  0  0
   61.5690   32.5520   50.1850 C   0  0  0  0  0  0  0  0  0  0  0  0
   61.0541   32.8697   51.1036 H   0  0  0  0  0  0  0  0  0  0  0  0
   62.7230   33.2230   49.7630 C   0  0  0  0  0  0  0  0  0  0  0  0
   63.3400   34.5700   50.7040 Cl  0  0  0  0  0  0  0  0  0  0  0  0
   63.3760   32.8180   48.5920 C   0  0  0  0  0  0  0  0  0  0  0  0
   64.4900   33.4670   48.1700 F   0  0  0  0  0  0  0  0  0  0  0  0
   62.8780   31.7440   47.8470 C   0  0  0  0  0  0  0  0  0  0  0  0
   63.3879   31.4353   46.9225 H   0  0  0  0  0  0  0  0  0  0  0  0
   57.7450   29.8480   46.3680 N   0  0  0  0  0  0  0  0  0  0  0  0
   57.3960   28.4980   46.1090 C   0  0  0  0  0  0  0  0  0  0  0  0
   57.8170   27.4300   46.7980 C   0  0  0  0  0  0  0  0  0  0  0  0
   58.6762   27.5536   47.4736 H   0  0  0  0  0  0  0  0  0  0  0  0
   57.1950   26.1010   46.7020 C   0  0  0  0  0  0  0  0  0  0  0  0
   57.8250   24.9660   47.0550 N   0  0  0  0  0  0  0  0  0  0  0  0
   56.8810   24.0160   46.8820 C   0  0  0  0  0  0  0  0  0  0  0  0
   57.1000   22.7970   47.1020 O   0  0  0  0  0  0  0  0  0  0  0  0
   55.6830   24.4760   46.4660 N   0  0  0  0  0  0  0  0  0  0  0  0
   55.8920   25.7990   46.3670 C   0  0  0  0  0  0  0  0  0  0  0  0
   54.8980   26.7090   46.0310 O   0  0  0  0  0  0  0  0  0  0  0  0
  1  2  1  0
  2  3  2  0
  3  4  1  0
  4  5  1  0
  5  6  2  0
  6  7  1  0
  7  8  1  0
  7  9  1  0
  9 10  1  0
  9 11  1  0
  9 12  1  0
 12 13  1  0
 12 14  1  0
  5 15  1  0
 15 16  1  0
 16 17  2  3
 17 18  1  0
 18 19  1  0
 18 20  1  0
 18 21  1  0
 21 22  2  0
 22 23  1  0
 22 24  1  0
 24 25  1  0
 24 26  2  0
 26 27  1  0
 26 28  1  0
 28 29  1  0
 28 30  2  0
 30 31  1  0
 16 32  1  0
 32 33  1  0
 33 34  2  3
 34 35  1  0
 34 36  1  0
 36 37  1  0
 37 38  1  0
 38 39  2  0
 38 40  1  0
 40 41  1  0
 41 42  1  0
 33  2  1  0
 41 36  2  0
 32  4  1  0
 12  7  1  0
 30 21  1  0
M  CHG  4  15  -1  37  -1  40  -1  42  -1
M  END
>  <UniqueID>  (85) 
80

>  <SMILES>  (85) 
O=c1[n-]c([O-])c(C=C2C=Nn3/c(=N\C4CC4)[n-]c(=NCc4ccc(Cl)c(F)c4)n32)[n-]1

>  <Energy>  (85) 
438.8243157712241

>  <Genealogy>  (85) 
O=c1[n-]c([O-])c(C=C2C=Nn3c(=NC4CC4)[n-]c(=NCc4ccc(Cl)c(F)c4)n32)[n-]1 (protonated)
O=c1[n-]c([O-])c(C=C2C=Nn3/c(=N\C4CC4)[n-]c(=NCc4ccc(Cl)c(F)c4)n32)[n-]1 (cis-trans isomerization)
O=c1[n-]c([O-])c(C=C2C=Nn3/c(=N\C4CC4)[n-]c(=NCc4ccc(Cl)c(F)c4)n32)[n-]1 (3D coordinates assigned)
O=c1[n-]c([O-])c(C=C2C=Nn3/c(=N\C4CC4)[n-]c(=NCc4ccc(Cl)c(F)c4)n32)[n-]1 (nonaromatic ring conformer: 438.8243157712241 kcal/mol)

>  <smiles>  (85) 
O=c1[nH]c(O)c(C=C2C=Nn3c(=NC4CC4)[nH]c(=NCc4ccc(Cl)c(F)c4)n32)[nH]1

>  <score_type>  (85) 
oracle

>  <origin>  (85) 
adg

>  <m_score__min__energy>  (85) 
-17.280000000000001

>  <m_primary>  (85) 
energy

$$$$
85:0
     RDKit          3D

 55 57  0  0  0  0  0  0  0  0999 V2000
   67.7690   28.2370   50.8420 C   0  0  0  0  0  0  0  0  0  0  0  0
   66.4510   28.8650   51.2810 C   0  0  0  0  0  0  0  0  0  0  0  0
   66.6880   30.1550   52.0700 C   0  0  0  0  0  0  0  0  0  0  0  0
   66.1590   31.3020   51.3360 N   0  0  0  0  0  0  0  0  0  0  0  0
   66.9310   32.4700   50.9310 C   0  0  0  0  0  0  0  0  0  0  0  0
   65.9410   33.3780   50.1590 C   0  0  0  0  0  0  0  0  0  0  0  0
   64.6960   32.6180   50.0530 N   0  0  0  0  0  0  0  0  0  0  0  0
   63.5400   33.0170   49.2880 C   0  0  0  0  0  0  0  0  0  0  0  0
   63.6030   33.0640   47.8840 C   0  0  0  0  0  0  0  0  0  0  0  0
   62.4840   33.4410   47.1360 C   0  0  0  0  0  0  0  0  0  0  0  0
   61.2830   33.7650   47.7770 C   0  0  0  0  0  0  0  0  0  0  0  0
   59.8890   34.2540   46.8170 S   0  0  0  0  0  0  0  0  0  0  0  0
   58.6510   34.1280   47.6590 O   0  0  0  0  0  0  0  0  0  0  0  0
   60.0290   35.6870   46.3840 O   0  0  0  0  0  0  0  0  0  0  0  0
   59.7380   33.2240   45.4240 N   0  0  0  0  0  0  0  0  0  0  0  0
   58.6910   33.7010   44.5160 C   0  0  0  0  0  0  0  0  0  0  0  0
   57.3190   33.1490   44.9160 C   0  0  0  0  0  0  0  0  0  0  0  0
   57.3440   31.6480   45.0540 C   0  0  0  0  0  0  0  0  0  0  0  0
   58.0200   31.0480   46.1270 C   0  0  0  0  0  0  0  0  0  0  0  0
   58.0180   29.6570   46.2720 C   0  0  0  0  0  0  0  0  0  0  0  0
   57.3370   28.8530   45.3490 C   0  0  0  0  0  0  0  0  0  0  0  0
   57.3200   27.1040   45.5450 S   0  0  0  0  0  0  0  0  0  0  0  0
   55.7360   26.5890   46.0040 N   0  0  0  0  0  0  0  0  0  0  0  0
   57.7040   26.4420   44.2510 O   0  0  0  0  0  0  0  0  0  0  0  0
   58.3070   26.6990   46.6050 O   0  0  0  0  0  0  0  0  0  0  0  0
   56.6460   29.4500   44.2880 C   0  0  0  0  0  0  0  0  0  0  0  0
   56.6480   30.8410   44.1400 C   0  0  0  0  0  0  0  0  0  0  0  0
   61.2090   33.7090   49.1740 C   0  0  0  0  0  0  0  0  0  0  0  0
   62.3260   33.3340   49.9250 C   0  0  0  0  0  0  0  0  0  0  0  0
   64.8640   31.4180   50.7870 C   0  0  0  0  0  0  0  0  0  0  0  0
   63.9530   30.5680   50.9710 O   0  0  0  0  0  0  0  0  0  0  0  0
   68.3556   27.9575   51.7296 H   0  0  0  0  0  0  0  0  0  0  0  0
   67.5649   27.3394   50.2398 H   0  0  0  0  0  0  0  0  0  0  0  0
   68.3375   28.9610   50.2398 H   0  0  0  0  0  0  0  0  0  0  0  0
   65.8488   29.0951   50.3897 H   0  0  0  0  0  0  0  0  0  0  0  0
   65.9245   28.1509   51.9312 H   0  0  0  0  0  0  0  0  0  0  0  0
   66.1822   30.0828   53.0442 H   0  0  0  0  0  0  0  0  0  0  0  0
   67.7696   30.2915   52.2165 H   0  0  0  0  0  0  0  0  0  0  0  0
   67.3246   32.9949   51.8139 H   0  0  0  0  0  0  0  0  0  0  0  0
   67.7953   32.1909   50.3104 H   0  0  0  0  0  0  0  0  0  0  0  0
   65.7714   34.3144   50.7107 H   0  0  0  0  0  0  0  0  0  0  0  0
   66.3327   33.6500   49.1678 H   0  0  0  0  0  0  0  0  0  0  0  0
   64.5399   32.8021   47.3705 H   0  0  0  0  0  0  0  0  0  0  0  0
   62.5477   33.4832   46.0387 H   0  0  0  0  0  0  0  0  0  0  0  0
   58.6597   34.8000   44.5499 H   0  0  0  0  0  0  0  0  0  0  0  0
   58.9249   33.3515   43.4995 H   0  0  0  0  0  0  0  0  0  0  0  0
   57.0231   33.5912   45.8787 H   0  0  0  0  0  0  0  0  0  0  0  0
   56.5992   33.4102   44.1262 H   0  0  0  0  0  0  0  0  0  0  0  0
   58.5537   31.6741   46.8571 H   0  0  0  0  0  0  0  0  0  0  0  0
   58.5530   29.1928   47.1136 H   0  0  0  0  0  0  0  0  0  0  0  0
   55.1440   27.4470   46.0690 H   0  0  0  0  0  0  0  0  0  0  0  0
   56.0995   28.8231   43.5681 H   0  0  0  0  0  0  0  0  0  0  0  0
   56.1024   31.3041   43.3046 H   0  0  0  0  0  0  0  0  0  0  0  0
   60.2670   33.9614   49.6828 H   0  0  0  0  0  0  0  0  0  0  0  0
   62.2559   33.2863   51.0217 H   0  0  0  0  0  0  0  0  0  0  0  0
  1  2  1  0
  2  3  1  0
  3  4  1  0
  4  5  1  0
  5  6  1  0
  6  7  1  0
  7  8  1  0
  8  9  2  0
  9 10  1  0
 10 11  2  0
 11 12  1  0
 12 13  2  0
 12 14  2  0
 12 15  1  0
 15 16  1  0
 16 17  1  0
 17 18  1  0
 18 19  2  0
 19 20  1  0
 20 21  2  0
 21 22  1  0
 22 23  1  0
 22 24  2  0
 22 25  2  0
 21 26  1  0
 26 27  2  0
 11 28  1  0
 28 29  2  0
  7 30  1  0
 30 31  2  0
 30  4  1  0
 29  8  1  0
 27 18  1  0
  1 32  1  0
  1 33  1  0
  1 34  1  0
  2 35  1  0
  2 36  1  0
  3 37  1  0
  3 38  1  0
  5 39  1  0
  5 40  1  0
  6 41  1  0
  6 42  1  0
  9 43  1  0
 10 44  1  0
 16 45  1  0
 16 46  1  0
 17 47  1  0
 17 48  1  0
 19 49  1  0
 20 50  1  0
 23 51  1  0
 26 52  1  0
 27 53  1  0
 28 54  1  0
 29 55  1  0
M  CHG  2  15  -1  23  -1
M  END
>  <UniqueID>  (86) 
81

>  <SMILES>  (86) 
CCCN1CCN(c2ccc(S(=O)(=O)[N-]CCc3ccc(S([NH-])(=O)=O)cc3)cc2)C1=O

>  <Energy>  (86) 
63.521759537295345

>  <Genealogy>  (86) 
CCCN1CCN(c2ccc(S(=O)(=O)[N-]CCc3ccc(S([NH-])(=O)=O)cc3)cc2)C1=O (protonated)
CCCN1CCN(c2ccc(S(=O)(=O)[N-]CCc3ccc(S([NH-])(=O)=O)cc3)cc2)C1=O (3D coordinates assigned)
CCCN1CCN(c2ccc(S(=O)(=O)[N-]CCc3ccc(S([NH-])(=O)=O)cc3)cc2)C1=O (nonaromatic ring conformer: 63.521759537295345 kcal/mol)

>  <smiles>  (86) 
CCCN1CCN(c2ccc(S(=O)(=O)NCCc3ccc(S(N)(=O)=O)cc3)cc2)C1=O

>  <score_type>  (86) 
oracle

>  <origin>  (86) 
adg

>  <m_score__min__energy>  (86) 
-13.050000000000001

>  <m_primary>  (86) 
energy

$$$$
86:0
     RDKit          3D

 34 35  0  0  0  0  0  0  0  0999 V2000
   56.7480   21.8090   42.9880 C   0  0  0  0  0  0  0  0  0  0  0  0
   56.3230   23.2410   43.3060 C   0  0  0  0  0  0  0  0  0  0  0  0
   55.6610   23.3620   44.6860 C   0  0  0  0  0  0  0  0  0  0  0  0
   55.8090   24.7410   45.2490 C   0  0  0  0  0  0  0  0  0  0  0  0
   54.7720   25.4990   45.6540 N   0  0  0  0  0  0  0  0  0  0  0  0
   55.2800   26.6610   46.0280 N   0  0  0  0  0  0  0  0  0  0  0  0
   56.6080   26.5750   45.8380 C   0  0  0  0  0  0  0  0  0  0  0  0
   57.7440   27.9240   46.1370 S   0  0  0  0  0  0  0  0  0  0  0  0
   57.4240   28.7230   44.5260 C   0  0  0  0  0  0  0  0  0  0  0  0
   56.3250   29.7350   44.6650 C   0  0  0  0  0  0  0  0  0  0  0  0
   55.1490   29.3360   44.8700 O   0  0  0  0  0  0  0  0  0  0  0  0
   56.5590   31.1400   44.4900 N   0  0  0  0  0  0  0  0  0  0  0  0
   57.5100   31.9360   45.2110 C   0  0  0  0  0  0  0  0  0  0  0  0
   58.1620   31.3820   46.3190 C   0  0  0  0  0  0  0  0  0  0  0  0
   59.0980   32.1330   47.0350 C   0  0  0  0  0  0  0  0  0  0  0  0
   59.4050   33.4370   46.6340 C   0  0  0  0  0  0  0  0  0  0  0  0
   58.7880   33.9870   45.5080 C   0  0  0  0  0  0  0  0  0  0  0  0
   59.1200   35.2790   45.1050 O   0  0  0  0  0  0  0  0  0  0  0  0
   57.8470   33.2340   44.7910 C   0  0  0  0  0  0  0  0  0  0  0  0
   56.9890   25.3830   45.3430 N   0  0  0  0  0  0  0  0  0  0  0  0
   56.9115   21.2582   43.9260 H   0  0  0  0  0  0  0  0  0  0  0  0
   55.9583   21.3132   42.4045 H   0  0  0  0  0  0  0  0  0  0  0  0
   57.6803   21.8242   42.4045 H   0  0  0  0  0  0  0  0  0  0  0  0
   57.2130   23.8870   43.2832 H   0  0  0  0  0  0  0  0  0  0  0  0
   55.5836   23.5470   42.5512 H   0  0  0  0  0  0  0  0  0  0  0  0
   54.5903   23.1286   44.5900 H   0  0  0  0  0  0  0  0  0  0  0  0
   56.1572   22.6565   45.3687 H   0  0  0  0  0  0  0  0  0  0  0  0
   58.3397   29.2247   44.1798 H   0  0  0  0  0  0  0  0  0  0  0  0
   57.1201   27.9574   43.7970 H   0  0  0  0  0  0  0  0  0  0  0  0
   57.9364   30.3505   46.6275 H   0  0  0  0  0  0  0  0  0  0  0  0
   59.5939   31.6979   47.9152 H   0  0  0  0  0  0  0  0  0  0  0  0
   60.1334   34.0304   47.2061 H   0  0  0  0  0  0  0  0  0  0  0  0
   58.8680   35.6300   44.1880 H   0  0  0  0  0  0  0  0  0  0  0  0
   57.3707   33.6611   43.8962 H   0  0  0  0  0  0  0  0  0  0  0  0
  1  2  1  0
  2  3  1  0
  3  4  1  0
  4  5  2  0
  5  6  1  0
  6  7  1  0
  7  8  1  0
  8  9  1  0
  9 10  1  0
 10 11  2  0
 10 12  1  0
 12 13  1  0
 13 14  2  0
 14 15  1  0
 15 16  2  0
 16 17  1  0
 17 18  1  0
 17 19  2  0
  7 20  2  0
 20  4  1  0
 19 13  1  0
  1 21  1  0
  1 22  1  0
  1 23  1  0
  2 24  1  0
  2 25  1  0
  3 26  1  0
  3 27  1  0
  9 28  1  0
  9 29  1  0
 14 30  1  0
 15 31  1  0
 16 32  1  0
 18 33  1  0
 19 34  1  0
M  CHG  2   6  -1  12  -1
M  END
>  <UniqueID>  (87) 
82

>  <SMILES>  (87) 
CCCc1n[n-]c(SCC(=O)[N-]c2cccc(O)c2)n1

>  <Energy>  (87) 
58.84376395399128

>  <Genealogy>  (87) 
CCCc1n[n-]c(SCC(=O)[N-]c2cccc(O)c2)n1 (protonated)
CCCc1n[n-]c(SCC(=O)[N-]c2cccc(O)c2)n1 (3D coordinates assigned)
CCCc1n[n-]c(SCC(=O)[N-]c2cccc(O)c2)n1 (optimized conformer: 58.84376395399128 kcal/mol)

>  <smiles>  (87) 
CCCc1n[nH]c(SCC(=O)Nc2cccc(O)c2)n1

>  <score_type>  (87) 
oracle

>  <origin>  (87) 
adg

>  <m_score__min__energy>  (87) 
-11.23

>  <m_primary>  (87) 
energy

$$$$
87:0
     RDKit          3D

 46 48  0  0  0  0  0  0  0  0999 V2000
   57.4614   33.4030   43.7470 H   0  0  0  0  0  0  0  0  0  0  0  0
   57.8970   33.6310   44.7310 C   0  0  0  0  0  0  0  0  0  0  0  0
   59.1080   34.3240   44.8150 C   0  0  0  0  0  0  0  0  0  0  0  0
   59.6289   34.6337   43.8970 H   0  0  0  0  0  0  0  0  0  0  0  0
   59.6580   34.6240   46.0660 C   0  0  0  0  0  0  0  0  0  0  0  0
   60.6159   35.1611   46.1288 H   0  0  0  0  0  0  0  0  0  0  0  0
   58.9900   34.2410   47.2450 C   0  0  0  0  0  0  0  0  0  0  0  0
   59.5450   34.5150   48.5430 N   0  0  0  0  0  0  0  0  0  0  0  0
   59.2370   35.3840   49.0350 H   0  0  0  0  0  0  0  0  0  0  0  0
   60.4750   33.6590   49.2300 C   0  0  0  0  0  0  0  0  0  0  0  0
   60.4270   33.6180   50.6620 N   0  0  0  0  0  0  0  0  0  0  0  0
   61.0400   33.0010   51.2350 H   0  0  0  0  0  0  0  0  0  0  0  0
   59.7230   34.1970   51.1710 H   0  0  0  0  0  0  0  0  0  0  0  0
   61.3830   32.9990   48.5540 N   0  0  0  0  0  0  0  0  0  0  0  0
   62.0950   33.5320   48.0070 H   0  0  0  0  0  0  0  0  0  0  0  0
   61.5290   31.5390   48.5480 C   0  0  0  0  0  0  0  0  0  0  0  0
   62.4965   31.2755   48.0957 H   0  0  0  0  0  0  0  0  0  0  0  0
   61.4787   31.1762   49.5852 H   0  0  0  0  0  0  0  0  0  0  0  0
   60.4220   30.8920   47.7570 C   0  0  0  0  0  0  0  0  0  0  0  0
   59.4740   30.0850   48.4040 C   0  0  0  0  0  0  0  0  0  0  0  0
   59.5458   29.9204   49.4892 H   0  0  0  0  0  0  0  0  0  0  0  0
   58.4390   29.4890   47.6780 C   0  0  0  0  0  0  0  0  0  0  0  0
   57.7019   28.8568   48.1947 H   0  0  0  0  0  0  0  0  0  0  0  0
   58.3350   29.6930   46.2920 C   0  0  0  0  0  0  0  0  0  0  0  0
   57.2230   29.0910   45.5190 C   0  0  0  0  0  0  0  0  0  0  0  0
   56.1340   29.7170   45.4130 O   0  0  0  0  0  0  0  0  0  0  0  0
   57.3600   27.8340   44.8420 N   0  0  0  0  0  0  0  0  0  0  0  0
   57.4210   26.5390   45.4600 C   0  0  0  0  0  0  0  0  0  0  0  0
   58.6270   25.8200   45.5450 C   0  0  0  0  0  0  0  0  0  0  0  0
   59.5502   26.2473   45.1265 H   0  0  0  0  0  0  0  0  0  0  0  0
   58.6570   24.5650   46.1590 C   0  0  0  0  0  0  0  0  0  0  0  0
   59.6004   24.0015   46.2095 H   0  0  0  0  0  0  0  0  0  0  0  0
   57.4920   24.0240   46.7090 C   0  0  0  0  0  0  0  0  0  0  0  0
   57.5167   23.0328   47.1854 H   0  0  0  0  0  0  0  0  0  0  0  0
   56.2950   24.7440   46.6530 C   0  0  0  0  0  0  0  0  0  0  0  0
   55.1690   24.2190   47.1990 F   0  0  0  0  0  0  0  0  0  0  0  0
   56.2580   26.0000   46.0360 C   0  0  0  0  0  0  0  0  0  0  0  0
   55.0630   26.7100   45.9900 O   0  0  0  0  0  0  0  0  0  0  0  0
   59.3090   30.4660   45.6400 C   0  0  0  0  0  0  0  0  0  0  0  0
   59.2567   30.6048   44.5500 H   0  0  0  0  0  0  0  0  0  0  0  0
   60.3440   31.0600   46.3660 C   0  0  0  0  0  0  0  0  0  0  0  0
   61.1021   31.6628   45.8445 H   0  0  0  0  0  0  0  0  0  0  0  0
   57.7870   33.5240   47.1470 C   0  0  0  0  0  0  0  0  0  0  0  0
   57.2717   33.1931   48.0608 H   0  0  0  0  0  0  0  0  0  0  0  0
   57.2400   33.2280   45.8950 C   0  0  0  0  0  0  0  0  0  0  0  0
   56.2905   32.6767   45.8269 H   0  0  0  0  0  0  0  0  0  0  0  0
  1  2  1  0
  2  3  2  0
  3  4  1  0
  3  5  1  0
  5  6  1  0
  5  7  2  0
  7  8  1  0
  8  9  1  0
  8 10  1  0
 10 11  1  0
 11 12  1  0
 11 13  1  0
 10 14  2  0
 14 15  1  0
 14 16  1  0
 16 17  1  0
 16 18  1  0
 16 19  1  0
 19 20  2  0
 20 21  1  0
 20 22  1  0
 22 23  1  0
 22 24  2  0
 24 25  1  0
 25 26  2  0
 25 27  1  0
 27 28  1  0
 28 29  2  0
 29 30  1  0
 29 31  1  0
 31 32  1  0
 31 33  2  0
 33 34  1  0
 33 35  1  0
 35 36  1  0
 35 37  2  0
 37 38  1  0
 24 39  1  0
 39 40  1  0
 39 41  2  0
 41 42  1  0
  7 43  1  0
 43 44  1  0
 43 45  2  0
 45 46  1  0
 45  2  1  0
 41 19  1  0
 37 28  1  0
M  CHG  3  14   1  27  -1  38  -1
M  END
>  <UniqueID>  (88) 
83

>  <SMILES>  (88) 
N/C(Nc1ccccc1)=[NH+]\Cc1ccc(C(=O)[N-]c2cccc(F)c2[O-])cc1

>  <Energy>  (88) 
60.10363623873736

>  <Genealogy>  (88) 
NC(Nc1ccccc1)=[NH+]Cc1ccc(C(=O)[N-]c2cccc(F)c2[O-])cc1 (protonated)
N/C(Nc1ccccc1)=[NH+]\Cc1ccc(C(=O)[N-]c2cccc(F)c2[O-])cc1 (cis-trans isomerization)
N/C(Nc1ccccc1)=[NH+]\Cc1ccc(C(=O)[N-]c2cccc(F)c2[O-])cc1 (3D coordinates assigned)
N/C(Nc1ccccc1)=[NH+]\Cc1ccc(C(=O)[N-]c2cccc(F)c2[O-])cc1 (optimized conformer: 60.10363623873736 kcal/mol)

>  <smiles>  (88) 
NC(=NCc1ccc(C(=O)Nc2cccc(F)c2O)cc1)Nc1ccccc1

>  <score_type>  (88) 
oracle

>  <origin>  (88) 
adg

>  <m_score__min__energy>  (88) 
-13.01

>  <m_primary>  (88) 
energy

$$$$
88:0
     RDKit          3D

 25 26  0  0  0  0  0  0  0  0999 V2000
   57.8310   31.5140   51.2100 C   0  0  0  0  0  0  0  0  0  0  0  0
   57.7060   30.1090   51.1860 O   0  0  0  0  0  0  0  0  0  0  0  0
   57.3810   29.6250   52.4750 C   0  0  0  0  0  0  0  0  0  0  0  0
   55.8890   29.5280   52.6380 C   0  0  0  0  0  0  0  0  0  0  0  0
   55.1340   30.4960   52.1350 O   0  0  0  0  0  0  0  0  0  0  0  0
   53.8080   30.4960   52.2050 C   0  0  0  0  0  0  0  0  0  0  0  0
   53.1100   31.5810   51.6690 C   0  0  0  0  0  0  0  0  0  0  0  0
   51.7200   31.6280   51.7370 C   0  0  0  0  0  0  0  0  0  0  0  0
   51.0350   32.7200   51.2190 O   0  0  0  0  0  0  0  0  0  0  0  0
   51.0140   30.5750   52.3170 C   0  0  0  0  0  0  0  0  0  0  0  0
   51.6820   29.4560   52.8320 C   0  0  0  0  0  0  0  0  0  0  0  0
   50.8770   28.4180   53.3100 O   0  0  0  0  0  0  0  0  0  0  0  0
   53.1090   29.4200   52.8170 C   0  0  0  0  0  0  0  0  0  0  0  0
   53.8960   28.3960   53.4010 C   0  0  0  0  0  0  0  0  0  0  0  0
   53.3780   27.4470   54.0440 O   0  0  0  0  0  0  0  0  0  0  0  0
   55.2890   28.4450   53.2940 C   0  0  0  0  0  0  0  0  0  0  0  0
   56.0640   27.4260   53.8420 O   0  0  0  0  0  0  0  0  0  0  0  0
   57.8619   31.8616   52.2532 H   0  0  0  0  0  0  0  0  0  0  0  0
   58.7589   31.8084   50.6978 H   0  0  0  0  0  0  0  0  0  0  0  0
   56.9697   31.9676   50.6978 H   0  0  0  0  0  0  0  0  0  0  0  0
   57.8260   28.6282   52.6107 H   0  0  0  0  0  0  0  0  0  0  0  0
   57.7776   30.3218   53.2282 H   0  0  0  0  0  0  0  0  0  0  0  0
   53.6619   32.4033   51.1903 H   0  0  0  0  0  0  0  0  0  0  0  0
   49.9164   30.6233   52.3712 H   0  0  0  0  0  0  0  0  0  0  0  0
   51.2180   27.5820   53.7600 H   0  0  0  0  0  0  0  0  0  0  0  0
  1  2  1  0
  2  3  1  0
  3  4  1  0
  4  5  1  0
  5  6  1  0
  6  7  2  0
  7  8  1  0
  8  9  1  0
  8 10  2  0
 10 11  1  0
 11 12  1  0
 11 13  2  0
 13 14  1  0
 14 15  2  0
 14 16  1  0
 16 17  1  0
 16  4  2  0
 13  6  1  0
  1 18  1  0
  1 19  1  0
  1 20  1  0
  3 21  1  0
  3 22  1  0
  7 23  1  0
 10 24  1  0
 12 25  1  0
M  CHG  2   9  -1  17  -1
M  END
>  <UniqueID>  (89) 
84

>  <SMILES>  (89) 
COCc1oc2cc([O-])cc(O)c2c(=O)c1[O-]

>  <Energy>  (89) 
39.33935791416559

>  <Genealogy>  (89) 
COCc1oc2cc([O-])cc(O)c2c(=O)c1[O-] (protonated)
COCc1oc2cc([O-])cc(O)c2c(=O)c1[O-] (3D coordinates assigned)
COCc1oc2cc([O-])cc(O)c2c(=O)c1[O-] (optimized conformer: 39.33935791416559 kcal/mol)

>  <smiles>  (89) 
COCc1oc2cc(O)cc(O)c2c(=O)c1O

>  <score_type>  (89) 
oracle

>  <origin>  (89) 
adg

>  <m_score__min__energy>  (89) 
-9.5800000000000001

>  <m_primary>  (89) 
energy

$$$$
89:0
     RDKit          3D

 61 64  0  0  0  0  0  0  0  0999 V2000
   55.2220   30.4670   52.3430 C   0  0  0  0  0  0  0  0  0  0  0  0
   56.4970   30.0910   51.8320 O   0  0  0  0  0  0  0  0  0  0  0  0
   57.5720   30.9740   51.6450 C   0  0  0  0  0  0  0  0  0  0  0  0
   57.4430   32.3600   51.8560 C   0  0  0  0  0  0  0  0  0  0  0  0
   58.5350   33.2050   51.6600 C   0  0  0  0  0  0  0  0  0  0  0  0
   59.7620   32.6850   51.2500 C   0  0  0  0  0  0  0  0  0  0  0  0
   59.9140   31.3070   51.0240 C   0  0  0  0  0  0  0  0  0  0  0  0
   61.2690   30.7790   50.6100 C   0  0  0  0  0  0  0  0  0  0  0  0
   61.1930   29.9860   49.3390 C   0  0  0  0  0  0  0  0  0  0  0  0
   60.7990   28.7880   49.3560 O   0  0  0  0  0  0  0  0  0  0  0  0
   61.6120   30.5890   48.1100 N   0  0  0  0  0  0  0  0  0  0  0  0
   61.0420   31.7850   47.5610 C   0  0  0  0  0  0  0  0  0  0  0  0
   59.9440   31.6650   46.7020 C   0  0  0  0  0  0  0  0  0  0  0  0
   59.3880   32.7970   46.0930 C   0  0  0  0  0  0  0  0  0  0  0  0
   58.0230   32.6170   44.9940 S   0  0  0  0  0  0  0  0  0  0  0  0
   58.2560   33.4270   43.7480 O   0  0  0  0  0  0  0  0  0  0  0  0
   56.7830   33.1150   45.6800 O   0  0  0  0  0  0  0  0  0  0  0  0
   57.8360   30.9340   44.5670 N   0  0  0  0  0  0  0  0  0  0  0  0
   56.7550   30.7560   43.5710 C   0  0  0  0  0  0  0  0  0  0  0  0
   55.4850   30.1490   44.1920 C   0  0  0  0  0  0  0  0  0  0  0  0
   55.7120   28.8860   44.8020 O   0  0  0  0  0  0  0  0  0  0  0  0
   56.9810   28.7780   45.4400 C   0  0  0  0  0  0  0  0  0  0  0  0
   57.6320   30.1280   45.7870 C   0  0  0  0  0  0  0  0  0  0  0  0
   59.9250   34.0620   46.3600 C   0  0  0  0  0  0  0  0  0  0  0  0
   60.9980   34.1970   47.2410 C   0  0  0  0  0  0  0  0  0  0  0  0
   61.5570   33.0690   47.8650 C   0  0  0  0  0  0  0  0  0  0  0  0
   62.5770   33.2450   48.8600 N   0  0  0  0  0  0  0  0  0  0  0  0
   62.4020   34.0930   50.0280 C   0  0  0  0  0  0  0  0  0  0  0  0
   63.7880   34.2290   50.6460 C   0  0  0  0  0  0  0  0  0  0  0  0
   64.6420   33.1400   50.0000 C   0  0  0  0  0  0  0  0  0  0  0  0
   63.9480   32.7970   48.6920 C   0  0  0  0  0  0  0  0  0  0  0  0
   58.8090   30.4450   51.2400 C   0  0  0  0  0  0  0  0  0  0  0  0
   58.9100   29.0610   51.0710 O   0  0  0  0  0  0  0  0  0  0  0  0
   55.2507   30.4585   53.4426 H   0  0  0  0  0  0  0  0  0  0  0  0
   54.9693   31.4779   51.9906 H   0  0  0  0  0  0  0  0  0  0  0  0
   54.4612   29.7550   51.9906 H   0  0  0  0  0  0  0  0  0  0  0  0
   56.4773   32.7779   52.1766 H   0  0  0  0  0  0  0  0  0  0  0  0
   58.4278   34.2865   51.8296 H   0  0  0  0  0  0  0  0  0  0  0  0
   60.6182   33.3596   51.1023 H   0  0  0  0  0  0  0  0  0  0  0  0
   61.9514   31.6285   50.4594 H   0  0  0  0  0  0  0  0  0  0  0  0
   61.6350   30.1144   51.4064 H   0  0  0  0  0  0  0  0  0  0  0  0
   59.5136   30.6724   46.5032 H   0  0  0  0  0  0  0  0  0  0  0  0
   56.5047   31.7371   43.1411 H   0  0  0  0  0  0  0  0  0  0  0  0
   57.1184   30.0611   42.7996 H   0  0  0  0  0  0  0  0  0  0  0  0
   55.1025   30.8427   44.9552 H   0  0  0  0  0  0  0  0  0  0  0  0
   54.7627   29.9946   43.3768 H   0  0  0  0  0  0  0  0  0  0  0  0
   56.8506   28.2087   46.3721 H   0  0  0  0  0  0  0  0  0  0  0  0
   57.6517   28.2794   44.7248 H   0  0  0  0  0  0  0  0  0  0  0  0
   56.9772   30.6782   46.4787 H   0  0  0  0  0  0  0  0  0  0  0  0
   58.6090   29.9409   46.2565 H   0  0  0  0  0  0  0  0  0  0  0  0
   59.4995   34.9522   45.8736 H   0  0  0  0  0  0  0  0  0  0  0  0
   61.4102   35.1954   47.4491 H   0  0  0  0  0  0  0  0  0  0  0  0
   62.0149   35.0792   49.7321 H   0  0  0  0  0  0  0  0  0  0  0  0
   61.6797   33.6642   50.7382 H   0  0  0  0  0  0  0  0  0  0  0  0
   64.2075   35.2227   50.4303 H   0  0  0  0  0  0  0  0  0  0  0  0
   63.7551   34.1210   51.7402 H   0  0  0  0  0  0  0  0  0  0  0  0
   65.6590   33.5128   49.8086 H   0  0  0  0  0  0  0  0  0  0  0  0
   64.7392   32.2593   50.6519 H   0  0  0  0  0  0  0  0  0  0  0  0
   64.4256   33.3231   47.8523 H   0  0  0  0  0  0  0  0  0  0  0  0
   64.0046   31.7220   48.4659 H   0  0  0  0  0  0  0  0  0  0  0  0
   59.5660   28.6220   50.4380 H   0  0  0  0  0  0  0  0  0  0  0  0
  1  2  1  0
  2  3  1  0
  3  4  2  0
  4  5  1  0
  5  6  2  0
  6  7  1  0
  7  8  1  0
  8  9  1  0
  9 10  2  0
  9 11  1  0
 11 12  1  0
 12 13  2  0
 13 14  1  0
 14 15  1  0
 15 16  2  0
 15 17  2  0
 15 18  1  0
 18 19  1  0
 19 20  1  0
 20 21  1  0
 21 22  1  0
 22 23  1  0
 14 24  2  0
 24 25  1  0
 25 26  2  0
 26 27  1  0
 27 28  1  0
 28 29  1  0
 29 30  1  0
 30 31  1  0
  7 32  2  0
 32 33  1  0
 32  3  1  0
 26 12  1  0
 31 27  1  0
 23 18  1  0
  1 34  1  0
  1 35  1  0
  1 36  1  0
  4 37  1  0
  5 38  1  0
  6 39  1  0
  8 40  1  0
  8 41  1  0
 13 42  1  0
 19 43  1  0
 19 44  1  0
 20 45  1  0
 20 46  1  0
 22 47  1  0
 22 48  1  0
 23 49  1  0
 23 50  1  0
 24 51  1  0
 25 52  1  0
 28 53  1  0
 28 54  1  0
 29 55  1  0
 29 56  1  0
 30 57  1  0
 30 58  1  0
 31 59  1  0
 31 60  1  0
 33 61  1  0
M  CHG  1  11  -1
M  END
>  <UniqueID>  (90) 
85

>  <SMILES>  (90) 
COc1cccc(CC(=O)[N-]c2cc(S(=O)(=O)N3CCOCC3)ccc2N2CCCC2)c1O

>  <Energy>  (90) 
84.96793154800204

>  <Genealogy>  (90) 
COc1cccc(CC(=O)[N-]c2cc(S(=O)(=O)N3CCOCC3)ccc2N2CCCC2)c1O (protonated)
COc1cccc(CC(=O)[N-]c2cc(S(=O)(=O)N3CCOCC3)ccc2N2CCCC2)c1O (3D coordinates assigned)
COc1cccc(CC(=O)[N-]c2cc(S(=O)(=O)N3CCOCC3)ccc2N2CCCC2)c1O (nonaromatic ring conformer: 84.96793154800204 kcal/mol)

>  <smiles>  (90) 
COc1cccc(CC(=O)Nc2cc(S(=O)(=O)N3CCOCC3)ccc2N2CCCC2)c1O

>  <score_type>  (90) 
oracle

>  <origin>  (90) 
adg

>  <m_score__min__energy>  (90) 
-11.07

>  <m_primary>  (90) 
energy

$$$$
90:0
     RDKit          3D

 37 39  0  0  0  0  0  0  0  0999 V2000
   54.8140   26.6980   46.3650 O   0  0  0  0  0  0  0  0  0  0  0  0
   55.7990   25.9660   45.7110 C   0  0  0  0  0  0  0  0  0  0  0  0
   55.4860   24.7030   45.1980 C   0  0  0  0  0  0  0  0  0  0  0  0
   56.4510   23.9670   44.5050 C   0  0  0  0  0  0  0  0  0  0  0  0
   57.7310   24.4930   44.3190 C   0  0  0  0  0  0  0  0  0  0  0  0
   58.0510   25.7530   44.8320 C   0  0  0  0  0  0  0  0  0  0  0  0
   57.0930   26.4940   45.5420 C   0  0  0  0  0  0  0  0  0  0  0  0
   57.4480   27.7820   46.0800 N   0  0  0  0  0  0  0  0  0  0  0  0
   57.7980   27.9230   47.5020 C   0  0  0  0  0  0  0  0  0  0  0  0
   58.8360   28.9990   47.7040 C   0  0  0  0  0  0  0  0  0  0  0  0
   58.4540   30.3520   47.7580 C   0  0  0  0  0  0  0  0  0  0  0  0
   59.4140   31.3490   47.9540 C   0  0  0  0  0  0  0  0  0  0  0  0
   60.7610   31.0080   48.0890 C   0  0  0  0  0  0  0  0  0  0  0  0
   61.1530   29.6680   48.0230 C   0  0  0  0  0  0  0  0  0  0  0  0
   60.1960   28.6670   47.8270 C   0  0  0  0  0  0  0  0  0  0  0  0
   57.5600   28.9040   45.1850 C   0  0  0  0  0  0  0  0  0  0  0  0
   58.8230   29.4060   44.8300 C   0  0  0  0  0  0  0  0  0  0  0  0
   58.9320   30.4880   43.9510 C   0  0  0  0  0  0  0  0  0  0  0  0
   57.7820   31.0750   43.4170 C   0  0  0  0  0  0  0  0  0  0  0  0
   56.5210   30.5790   43.7600 C   0  0  0  0  0  0  0  0  0  0  0  0
   56.4060   29.4980   44.6400 C   0  0  0  0  0  0  0  0  0  0  0  0
   55.1430   29.0270   44.9790 O   0  0  0  0  0  0  0  0  0  0  0  0
   54.4774   24.2878   45.3404 H   0  0  0  0  0  0  0  0  0  0  0  0
   56.2020   22.9727   44.1058 H   0  0  0  0  0  0  0  0  0  0  0  0
   58.4880   23.9153   43.7683 H   0  0  0  0  0  0  0  0  0  0  0  0
   59.0588   26.1663   44.6787 H   0  0  0  0  0  0  0  0  0  0  0  0
   56.8934   28.1860   48.0699 H   0  0  0  0  0  0  0  0  0  0  0  0
   58.2133   26.9675   47.8550 H   0  0  0  0  0  0  0  0  0  0  0  0
   57.3948   30.6266   47.6454 H   0  0  0  0  0  0  0  0  0  0  0  0
   59.1075   32.4043   48.0020 H   0  0  0  0  0  0  0  0  0  0  0  0
   61.5140   31.7941   48.2474 H   0  0  0  0  0  0  0  0  0  0  0  0
   62.2151   29.4004   48.1253 H   0  0  0  0  0  0  0  0  0  0  0  0
   60.5096   27.6142   47.7688 H   0  0  0  0  0  0  0  0  0  0  0  0
   59.7313   28.9454   45.2458 H   0  0  0  0  0  0  0  0  0  0  0  0
   59.9243   30.8775   43.6796 H   0  0  0  0  0  0  0  0  0  0  0  0
   57.8690   31.9272   42.7269 H   0  0  0  0  0  0  0  0  0  0  0  0
   55.6165   31.0402   43.3366 H   0  0  0  0  0  0  0  0  0  0  0  0
  1  2  1  0
  2  3  2  0
  3  4  1  0
  4  5  2  0
  5  6  1  0
  6  7  2  0
  7  8  1  0
  8  9  1  0
  9 10  1  0
 10 11  2  0
 11 12  1  0
 12 13  2  0
 13 14  1  0
 14 15  2  0
  8 16  1  0
 16 17  2  0
 17 18  1  0
 18 19  2  0
 19 20  1  0
 20 21  2  0
 21 22  1  0
  7  2  1  0
 15 10  1  0
 21 16  1  0
  3 23  1  0
  4 24  1  0
  5 25  1  0
  6 26  1  0
  9 27  1  0
  9 28  1  0
 11 29  1  0
 12 30  1  0
 13 31  1  0
 14 32  1  0
 15 33  1  0
 17 34  1  0
 18 35  1  0
 19 36  1  0
 20 37  1  0
M  CHG  2   1  -1  22  -1
M  END
>  <UniqueID>  (91) 
86

>  <SMILES>  (91) 
[O-]c1ccccc1N(Cc1ccccc1)c1ccccc1[O-]

>  <Energy>  (91) 
50.529443592784105

>  <Genealogy>  (91) 
[O-]c1ccccc1N(Cc1ccccc1)c1ccccc1[O-] (protonated)
[O-]c1ccccc1N(Cc1ccccc1)c1ccccc1[O-] (3D coordinates assigned)
[O-]c1ccccc1N(Cc1ccccc1)c1ccccc1[O-] (optimized conformer: 50.529443592784105 kcal/mol)

>  <smiles>  (91) 
Oc1ccccc1N(Cc1ccccc1)c1ccccc1O

>  <score_type>  (91) 
oracle

>  <origin>  (91) 
adg

>  <m_score__min__energy>  (91) 
-13.43

>  <m_primary>  (91) 
energy

$$$$
91:0
     RDKit          3D

 53 56  0  0  1  0  0  0  0  0999 V2000
   57.3730   31.8960   42.1320 C   0  0  0  0  0  0  0  0  0  0  0  0
   57.8200   32.2620   43.5130 C   0  0  0  0  0  0  0  0  0  0  0  0
   58.5970   33.4000   43.7450 C   0  0  0  0  0  0  0  0  0  0  0  0
   59.0130   33.7420   45.0190 C   0  0  0  0  0  0  0  0  0  0  0  0
   58.6650   32.9550   46.0990 C   0  0  0  0  0  0  0  0  0  0  0  0
   59.0950   33.3040   47.4310 N   0  0  0  0  0  0  0  0  0  0  0  0
   59.9920   32.5310   47.9800 C   0  0  0  0  0  0  0  0  0  0  0  0
   61.0220   33.1200   48.6210 N   0  0  0  0  0  0  0  0  0  0  0  0
   62.0000   32.3910   49.2210 C   0  0  0  0  0  0  0  0  0  0  0  0
   61.8810   31.0190   49.1380 C   0  0  0  0  0  0  0  0  0  0  0  0
   60.8310   30.4020   48.4860 C   0  0  0  0  0  0  0  0  0  0  0  0
   60.8200   29.1240   48.4720 N   0  0  0  0  0  0  0  0  0  0  0  0
   60.0540   28.4690   47.4670 C   0  0  0  0  0  0  0  0  0  0  0  0
   60.4180   28.4930   46.1250 C   0  0  0  0  0  0  0  0  0  0  0  0
   59.6330   27.8370   45.1910 C   0  0  0  0  0  0  0  0  0  0  0  0
   58.4920   27.1620   45.5860 C   0  0  0  0  0  0  0  0  0  0  0  0
   57.6870   26.4920   44.6500 O   0  0  0  0  0  0  0  0  0  0  0  0
   57.7220   25.0900   44.5610 C   0  0  0  0  0  0  0  0  0  0  0  0
   56.9320   24.4420   43.6140 C   0  0  0  0  0  0  0  0  0  0  0  0
   56.9840   23.0520   43.5470 C   0  0  0  0  0  0  0  0  0  0  0  0
   57.7970   22.3260   44.3960 C   0  0  0  0  0  0  0  0  0  0  0  0
   58.5780   22.9660   45.3330 C   0  0  0  0  0  0  0  0  0  0  0  0
   58.5270   24.3430   45.4000 C   0  0  0  0  0  0  0  0  0  0  0  0
   58.1570   27.1570   46.9310 C   0  0  0  0  0  0  0  0  0  0  0  0
   58.9130   27.7980   47.8880 C   0  0  0  0  0  0  0  0  0  0  0  0
   59.8970   31.1810   47.9140 N   0  0  0  0  0  0  0  0  0  0  0  0
   57.9010   31.8320   45.8800 C   0  0  0  0  0  0  0  0  0  0  0  0
   57.4800   31.4830   44.6050 C   0  0  0  0  0  0  0  0  0  0  0  0
   56.5190   30.0610   44.3700 S   0  0  0  0  0  0  0  0  0  0  0  0
   57.1350   29.0750   43.0840 N   0  0  0  0  0  0  0  0  0  0  0  0
   55.1090   30.4260   44.0150 O   0  0  0  0  0  0  0  0  0  0  0  0
   56.4550   29.2040   45.6080 O   0  0  0  0  0  0  0  0  0  0  0  0
   56.5233   31.2002   42.1940 H   0  0  0  0  0  0  0  0  0  0  0  0
   57.0646   32.8043   41.5936 H   0  0  0  0  0  0  0  0  0  0  0  0
   58.2026   31.4145   41.5936 H   0  0  0  0  0  0  0  0  0  0  0  0
   58.8841   34.0377   42.8959 H   0  0  0  0  0  0  0  0  0  0  0  0
   59.6233   34.6442   45.1725 H   0  0  0  0  0  0  0  0  0  0  0  0
   61.1280   34.1550   48.6920 H   0  0  0  0  0  0  0  0  0  0  0  0
   62.8410   32.8692   49.7445 H   0  0  0  0  0  0  0  0  0  0  0  0
   62.6522   30.3920   49.6093 H   0  0  0  0  0  0  0  0  0  0  0  0
   61.3240   29.0298   45.8070 H   0  0  0  0  0  0  0  0  0  0  0  0
   59.9187   27.8529   44.1289 H   0  0  0  0  0  0  0  0  0  0  0  0
   56.2827   25.0146   42.9354 H   0  0  0  0  0  0  0  0  0  0  0  0
   56.3673   22.5230   42.8055 H   0  0  0  0  0  0  0  0  0  0  0  0
   57.8208   21.2287   44.3232 H   0  0  0  0  0  0  0  0  0  0  0  0
   59.2268   22.3928   46.0116 H   0  0  0  0  0  0  0  0  0  0  0  0
   59.1470   24.8631   46.1451 H   0  0  0  0  0  0  0  0  0  0  0  0
   57.2508   26.6195   47.2471 H   0  0  0  0  0  0  0  0  0  0  0  0
   58.6230   27.7790   48.9489 H   0  0  0  0  0  0  0  0  0  0  0  0
   59.1030   30.7230   47.4210 H   0  0  0  0  0  0  0  0  0  0  0  0
   57.6182   31.1979   46.7332 H   0  0  0  0  0  0  0  0  0  0  0  0
   58.1380   29.2690   42.9010 H   0  0  0  0  0  0  0  0  0  0  0  0
   57.0430   28.0560   43.3090 H   0  0  0  0  0  0  0  0  0  0  0  0
  1  2  1  0
  2  3  2  0
  3  4  1  0
  4  5  2  0
  5  6  1  0
  6  7  2  0
  7  8  1  0
  8  9  1  0
  9 10  2  0
 10 11  1  0
 11 12  2  0
 12 13  1  0
 13 14  2  0
 14 15  1  0
 15 16  2  0
 16 17  1  0
 17 18  1  0
 18 19  2  0
 19 20  1  0
 20 21  2  0
 21 22  1  0
 22 23  2  0
 16 24  1  0
 24 25  2  0
 11 26  1  0
  5 27  1  0
 27 28  2  0
 28 29  1  0
 29 30  1  0
 29 31  2  0
 29 32  2  0
 28  2  1  0
 26  7  1  0
 25 13  1  0
 23 18  1  0
  1 33  1  0
  1 34  1  0
  1 35  1  0
  3 36  1  0
  4 37  1  0
  8 38  1  0
  9 39  1  0
 10 40  1  0
 14 41  1  0
 15 42  1  0
 19 43  1  0
 20 44  1  0
 21 45  1  0
 22 46  1  0
 23 47  1  0
 24 48  1  0
 25 49  1  0
 26 50  1  0
 27 51  1  0
 30 52  1  0
 30 53  1  0
M  END
>  <smiles>  (92) 
Cc1ccc(N=c2[nH]ccc(=Nc3ccc(Oc4ccccc4)cc3)[nH]2)cc1S(N)(=O)=O

>  <score_type>  (92) 
oracle

>  <origin>  (92) 
adg

>  <m_score__min__energy>  (92) 
-10.24

>  <m_primary>  (92) 
energy

$$$$
92:0
     RDKit          3D

 50 52  0  0  0  0  0  0  0  0999 V2000
   57.3170   21.6160   43.3790 C   0  0  0  0  0  0  0  0  0  0  0  0
   55.9270   21.8060   43.6140 O   0  0  0  0  0  0  0  0  0  0  0  0
   55.4160   22.1700   44.8660 C   0  0  0  0  0  0  0  0  0  0  0  0
   54.4950   21.4870   45.3930 O   0  0  0  0  0  0  0  0  0  0  0  0
   55.9580   23.3550   45.5690 C   0  0  0  0  0  0  0  0  0  0  0  0
   56.9450   23.2090   46.5600 C   0  0  0  0  0  0  0  0  0  0  0  0
   57.4400   24.3280   47.2330 C   0  0  0  0  0  0  0  0  0  0  0  0
   56.9650   25.6030   46.9190 C   0  0  0  0  0  0  0  0  0  0  0  0
   56.0020   25.7730   45.9180 C   0  0  0  0  0  0  0  0  0  0  0  0
   55.5260   27.0990   45.6440 N   0  0  0  0  0  0  0  0  0  0  0  0
   56.3280   28.2410   45.3100 C   0  0  0  0  0  0  0  0  0  0  0  0
   57.5360   28.2970   45.6600 O   0  0  0  0  0  0  0  0  0  0  0  0
   55.7380   29.3800   44.6750 N   0  0  0  0  0  0  0  0  0  0  0  0
   56.4490   30.4590   44.0520 C   0  0  0  0  0  0  0  0  0  0  0  0
   56.6100   30.5350   42.6580 C   0  0  0  0  0  0  0  0  0  0  0  0
   57.3270   31.5920   42.0900 C   0  0  0  0  0  0  0  0  0  0  0  0
   57.9010   32.5690   42.9050 C   0  0  0  0  0  0  0  0  0  0  0  0
   57.7680   32.4910   44.2980 C   0  0  0  0  0  0  0  0  0  0  0  0
   58.4950   33.7270   45.3290 S   0  0  0  0  0  0  0  0  0  0  0  0
   58.7390   34.9700   44.5180 O   0  0  0  0  0  0  0  0  0  0  0  0
   57.5370   34.0720   46.4340 O   0  0  0  0  0  0  0  0  0  0  0  0
   60.0020   33.1800   46.0230 N   0  0  0  0  0  0  0  0  0  0  0  0
   60.5350   34.1930   46.9480 C   0  0  0  0  0  0  0  0  0  0  0  0
   61.9730   33.8300   47.3680 C   0  0  0  0  0  0  0  0  0  0  0  0
   62.2610   32.3240   47.2360 C   0  0  0  0  0  0  0  0  0  0  0  0
   61.0220   31.4940   47.5830 C   0  0  0  0  0  0  0  0  0  0  0  0
   59.8080   31.8860   46.7110 C   0  0  0  0  0  0  0  0  0  0  0  0
   57.0520   31.4270   44.8660 C   0  0  0  0  0  0  0  0  0  0  0  0
   55.4850   24.6430   45.2590 C   0  0  0  0  0  0  0  0  0  0  0  0
   57.8450   21.5438   44.3413 H   0  0  0  0  0  0  0  0  0  0  0  0
   57.4688   20.6888   42.8070 H   0  0  0  0  0  0  0  0  0  0  0  0
   57.7121   22.4685   42.8070 H   0  0  0  0  0  0  0  0  0  0  0  0
   57.3291   22.2081   46.8063 H   0  0  0  0  0  0  0  0  0  0  0  0
   58.2062   24.2047   48.0126 H   0  0  0  0  0  0  0  0  0  0  0  0
   57.3501   26.4789   47.4617 H   0  0  0  0  0  0  0  0  0  0  0  0
   56.1706   29.7606   42.0121 H   0  0  0  0  0  0  0  0  0  0  0  0
   57.4392   31.6540   40.9975 H   0  0  0  0  0  0  0  0  0  0  0  0
   58.4591   33.4022   42.4529 H   0  0  0  0  0  0  0  0  0  0  0  0
   60.5392   35.1734   46.4493 H   0  0  0  0  0  0  0  0  0  0  0  0
   59.8987   34.2290   47.8445 H   0  0  0  0  0  0  0  0  0  0  0  0
   62.6776   34.3817   46.7283 H   0  0  0  0  0  0  0  0  0  0  0  0
   62.0916   34.1023   48.4272 H   0  0  0  0  0  0  0  0  0  0  0  0
   62.5619   32.1050   46.2009 H   0  0  0  0  0  0  0  0  0  0  0  0
   63.0666   32.0593   47.9367 H   0  0  0  0  0  0  0  0  0  0  0  0
   61.2488   30.4300   47.4204 H   0  0  0  0  0  0  0  0  0  0  0  0
   60.7645   31.6862   48.6350 H   0  0  0  0  0  0  0  0  0  0  0  0
   59.6497   31.1038   45.9540 H   0  0  0  0  0  0  0  0  0  0  0  0
   58.9369   31.9868   47.3751 H   0  0  0  0  0  0  0  0  0  0  0  0
   56.9631   31.3519   45.9598 H   0  0  0  0  0  0  0  0  0  0  0  0
   54.7040   24.7676   44.4945 H   0  0  0  0  0  0  0  0  0  0  0  0
  1  2  1  0
  2  3  1  0
  3  4  2  0
  3  5  1  0
  5  6  2  0
  6  7  1  0
  7  8  2  0
  8  9  1  0
  9 10  1  0
 10 11  1  0
 11 12  2  0
 11 13  1  0
 13 14  1  0
 14 15  2  0
 15 16  1  0
 16 17  2  0
 17 18  1  0
 18 19  1  0
 19 20  2  0
 19 21  2  0
 19 22  1  0
 22 23  1  0
 23 24  1  0
 24 25  1  0
 25 26  1  0
 26 27  1  0
 18 28  2  0
  9 29  2  0
 29  5  1  0
 28 14  1  0
 27 22  1  0
  1 30  1  0
  1 31  1  0
  1 32  1  0
  6 33  1  0
  7 34  1  0
  8 35  1  0
 15 36  1  0
 16 37  1  0
 17 38  1  0
 23 39  1  0
 23 40  1  0
 24 41  1  0
 24 42  1  0
 25 43  1  0
 25 44  1  0
 26 45  1  0
 26 46  1  0
 27 47  1  0
 27 48  1  0
 28 49  1  0
 29 50  1  0
M  CHG  2  10  -1  13  -1
M  END
>  <UniqueID>  (93) 
87

>  <SMILES>  (93) 
COC(=O)c1cccc([N-]C(=O)[N-]c2cccc(S(=O)(=O)N3CCCCC3)c2)c1

>  <Energy>  (93) 
58.474746988521275

>  <Genealogy>  (93) 
COC(=O)c1cccc([N-]C(=O)[N-]c2cccc(S(=O)(=O)N3CCCCC3)c2)c1 (protonated)
COC(=O)c1cccc([N-]C(=O)[N-]c2cccc(S(=O)(=O)N3CCCCC3)c2)c1 (3D coordinates assigned)
COC(=O)c1cccc([N-]C(=O)[N-]c2cccc(S(=O)(=O)N3CCCCC3)c2)c1 (nonaromatic ring conformer: 58.474746988521275 kcal/mol)

>  <smiles>  (93) 
COC(=O)c1cccc(NC(=O)Nc2cccc(S(=O)(=O)N3CCCCC3)c2)c1

>  <score_type>  (93) 
oracle

>  <origin>  (93) 
adg

>  <m_score__min__energy>  (93) 
-13.029999999999999

>  <m_primary>  (93) 
energy

$$$$
