0:0
     RDKit          3D

 34 35  0  0  0  0  0  0  0  0999 V2000
   60.2370   28.0446   46.1788 H   0  0  0  0  0  0  0  0  0  0  0  0
   59.1740   27.7640   46.1420 C   0  0  0  0  0  0  0  0  0  0  0  0
   58.2490   28.6670   45.7230 N   0  0  0  0  0  0  0  0  0  0  0  0
   56.9210   28.3620   45.6560 C   0  0  0  0  0  0  0  0  0  0  0  0
   56.0460   29.2320   45.2410 N   0  0  0  0  0  0  0  0  0  0  0  0
   56.0660   29.9620   44.0020 C   0  0  0  0  0  0  0  0  0  0  0  0
   55.4170   29.5630   42.9970 O   0  0  0  0  0  0  0  0  0  0  0  0
   56.8580   31.2290   43.9150 C   0  0  0  0  0  0  0  0  0  0  0  0
   56.2051   32.0431   43.5672 H   0  0  0  0  0  0  0  0  0  0  0  0
   57.6882   31.0871   43.2074 H   0  0  0  0  0  0  0  0  0  0  0  0
   57.4010   31.5720   45.2270 N   0  0  0  0  0  0  0  0  0  0  0  0
   57.6540   30.7930   45.8710 H   0  0  0  0  0  0  0  0  0  0  0  0
   57.5950   32.9330   45.6430 C   0  0  0  0  0  0  0  0  0  0  0  0
   57.0420   33.8660   45.0000 O   0  0  0  0  0  0  0  0  0  0  0  0
   58.4260   33.2510   46.8240 C   0  0  0  0  0  0  0  0  0  0  0  0
   59.3230   34.3010   46.9760 C   0  0  0  0  0  0  0  0  0  0  0  0
   59.6390   35.3660   45.9760 C   0  0  0  0  0  0  0  0  0  0  0  0
   59.9139   36.2924   46.5015 H   0  0  0  0  0  0  0  0  0  0  0  0
   60.4789   35.0392   45.3453 H   0  0  0  0  0  0  0  0  0  0  0  0
   58.7568   35.5501   45.3453 H   0  0  0  0  0  0  0  0  0  0  0  0
   59.8890   34.2360   48.1590 O   0  0  0  0  0  0  0  0  0  0  0  0
   59.4060   33.1950   48.7960 C   0  0  0  0  0  0  0  0  0  0  0  0
   59.8380   32.7780   50.1610 C   0  0  0  0  0  0  0  0  0  0  0  0
   59.2612   33.3348   50.9142 H   0  0  0  0  0  0  0  0  0  0  0  0
   59.6620   31.6996   50.2878 H   0  0  0  0  0  0  0  0  0  0  0  0
   60.9095   32.9920   50.2878 H   0  0  0  0  0  0  0  0  0  0  0  0
   58.4860   32.5340   48.0060 C   0  0  0  0  0  0  0  0  0  0  0  0
   57.9192   31.6269   48.2628 H   0  0  0  0  0  0  0  0  0  0  0  0
   56.4890   27.0810   46.0340 C   0  0  0  0  0  0  0  0  0  0  0  0
   55.1410   26.7380   45.9780 O   0  0  0  0  0  0  0  0  0  0  0  0
   57.4270   26.1400   46.4700 C   0  0  0  0  0  0  0  0  0  0  0  0
   57.0998   25.1330   46.7682 H   0  0  0  0  0  0  0  0  0  0  0  0
   58.7790   26.4810   46.5260 C   0  0  0  0  0  0  0  0  0  0  0  0
   59.5244   25.7481   46.8684 H   0  0  0  0  0  0  0  0  0  0  0  0
  1  2  1  0
  2  3  1  0
  3  4  1  0
  4  5  2  0
  5  6  1  0
  6  7  2  0
  6  8  1  0
  8  9  1  0
  8 10  1  0
  8 11  1  0
 11 12  1  0
 11 13  1  0
 13 14  2  0
 13 15  1  0
 15 16  2  0
 16 17  1  0
 17 18  1  0
 17 19  1  0
 17 20  1  0
 16 21  1  0
 21 22  1  0
 22 23  1  0
 23 24  1  0
 23 25  1  0
 23 26  1  0
 22 27  2  0
 27 28  1  0
  4 29  1  0
 29 30  1  0
 29 31  2  0
 31 32  1  0
 31 33  1  0
 33 34  1  0
 33  2  2  0
 27 15  1  0
M  CHG  2   3  -1  30  -1
M  END
>  <UniqueID>  (1) 
1

>  <SMILES>  (1) 
Cc1cc(C(=O)NCC(=O)/N=c2\[n-]cccc2[O-])c(C)o1

>  <Energy>  (1) 
59.46611216090156

>  <Genealogy>  (1) 
Cc1cc(C(=O)NCC(=O)N=c2[n-]cccc2[O-])c(C)o1 (protonated)
Cc1cc(C(=O)NCC(=O)/N=c2\[n-]cccc2[O-])c(C)o1 (cis-trans isomerization)
Cc1cc(C(=O)NCC(=O)/N=c2\[n-]cccc2[O-])c(C)o1 (3D coordinates assigned)
Cc1cc(C(=O)NCC(=O)/N=c2\[n-]cccc2[O-])c(C)o1 (optimized conformer: 59.46611216090156 kcal/mol)

>  <smiles>  (1) 
Cc1cc(C(=O)NCC(=O)N=c2[nH]cccc2O)c(C)o1

>  <score_type>  (1) 
oracle

>  <origin>  (1) 
adg

>  <m_score__min__energy>  (1) 
-12.18

>  <m_primary>  (1) 
energy

$$$$
1:0
     RDKit          3D

 49 52  0  0  0  0  0  0  0  0999 V2000
   56.9967   24.7152   45.6835 H   0  0  0  0  0  0  0  0  0  0  0  0
   57.4040   25.7340   45.7620 C   0  0  0  0  0  0  0  0  0  0  0  0
   58.7090   26.0550   45.8170 N   0  0  0  0  0  0  0  0  0  0  0  0
   58.7310   27.4040   45.9040 C   0  0  0  0  0  0  0  0  0  0  0  0
   59.8650   28.0370   46.0210 N   0  0  0  0  0  0  0  0  0  0  0  0
   60.2740   28.9740   47.0210 C   0  0  0  0  0  0  0  0  0  0  0  0
   60.0440   28.6800   48.3670 C   0  0  0  0  0  0  0  0  0  0  0  0
   59.5000   27.7645   48.6424 H   0  0  0  0  0  0  0  0  0  0  0  0
   60.5010   29.5420   49.3630 C   0  0  0  0  0  0  0  0  0  0  0  0
   60.2976   29.3111   50.4191 H   0  0  0  0  0  0  0  0  0  0  0  0
   61.2190   30.7030   49.0300 C   0  0  0  0  0  0  0  0  0  0  0  0
   61.6930   31.5990   50.1460 C   0  0  0  0  0  0  0  0  0  0  0  0
   61.4493   31.1383   51.1147 H   0  0  0  0  0  0  0  0  0  0  0  0
   62.7817   31.7362   50.0688 H   0  0  0  0  0  0  0  0  0  0  0  0
   61.1939   32.5762   50.0688 H   0  0  0  0  0  0  0  0  0  0  0  0
   61.4770   30.9960   47.6650 C   0  0  0  0  0  0  0  0  0  0  0  0
   62.1980   32.2140   47.2310 C   0  0  0  0  0  0  0  0  0  0  0  0
   63.4340   32.1490   46.9930 O   0  0  0  0  0  0  0  0  0  0  0  0
   61.4940   33.4560   47.0960 N   0  0  0  0  0  0  0  0  0  0  0  0
   60.1220   33.6430   46.7160 C   0  0  0  0  0  0  0  0  0  0  0  0
   59.0520   33.1820   47.5100 C   0  0  0  0  0  0  0  0  0  0  0  0
   59.2562   32.6397   48.4450 H   0  0  0  0  0  0  0  0  0  0  0  0
   57.7310   33.4130   47.1110 C   0  0  0  0  0  0  0  0  0  0  0  0
   56.8988   33.0507   47.7324 H   0  0  0  0  0  0  0  0  0  0  0  0
   57.4660   34.1040   45.9230 C   0  0  0  0  0  0  0  0  0  0  0  0
   56.4269   34.2712   45.6032 H   0  0  0  0  0  0  0  0  0  0  0  0
   58.5230   34.5810   45.1440 C   0  0  0  0  0  0  0  0  0  0  0  0
   58.3150   35.1316   44.2147 H   0  0  0  0  0  0  0  0  0  0  0  0
   59.8450   34.3600   45.5430 C   0  0  0  0  0  0  0  0  0  0  0  0
   60.6727   34.7510   44.9330 H   0  0  0  0  0  0  0  0  0  0  0  0
   61.0350   30.0960   46.6770 C   0  0  0  0  0  0  0  0  0  0  0  0
   61.2909   30.2771   45.6226 H   0  0  0  0  0  0  0  0  0  0  0  0
   57.4810   27.9560   45.9090 N   0  0  0  0  0  0  0  0  0  0  0  0
   57.0200   29.3490   46.0180 C   0  0  0  0  0  0  0  0  0  0  0  0
   55.9702   29.3484   46.3465 H   0  0  0  0  0  0  0  0  0  0  0  0
   57.6705   29.8604   46.7428 H   0  0  0  0  0  0  0  0  0  0  0  0
   57.1170   30.0940   44.7100 C   0  0  0  0  0  0  0  0  0  0  0  0
   58.0080   31.1770   44.5960 C   0  0  0  0  0  0  0  0  0  0  0  0
   58.6143   31.4800   45.4624 H   0  0  0  0  0  0  0  0  0  0  0  0
   58.1270   31.8700   43.3880 C   0  0  0  0  0  0  0  0  0  0  0  0
   58.8111   32.7281   43.3119 H   0  0  0  0  0  0  0  0  0  0  0  0
   57.3780   31.4740   42.2770 C   0  0  0  0  0  0  0  0  0  0  0  0
   57.4642   32.0270   41.3300 H   0  0  0  0  0  0  0  0  0  0  0  0
   56.5190   30.3750   42.3690 C   0  0  0  0  0  0  0  0  0  0  0  0
   55.9382   30.0579   41.4903 H   0  0  0  0  0  0  0  0  0  0  0  0
   56.3960   29.6780   43.5740 C   0  0  0  0  0  0  0  0  0  0  0  0
   55.7339   28.8017   43.6354 H   0  0  0  0  0  0  0  0  0  0  0  0
   56.6660   26.8880   45.8200 C   0  0  0  0  0  0  0  0  0  0  0  0
   55.2770   26.9520   45.8020 O   0  0  0  0  0  0  0  0  0  0  0  0
  1  2  1  0
  2  3  1  0
  3  4  1  0
  4  5  2  0
  5  6  1  0
  6  7  2  0
  7  8  1  0
  7  9  1  0
  9 10  1  0
  9 11  2  0
 11 12  1  0
 12 13  1  0
 12 14  1  0
 12 15  1  0
 11 16  1  0
 16 17  1  0
 17 18  2  0
 17 19  1  0
 19 20  1  0
 20 21  2  0
 21 22  1  0
 21 23  1  0
 23 24  1  0
 23 25  2  0
 25 26  1  0
 25 27  1  0
 27 28  1  0
 27 29  2  0
 29 30  1  0
 16 31  2  0
 31 32  1  0
  4 33  1  0
 33 34  1  0
 34 35  1  0
 34 36  1  0
 34 37  1  0
 37 38  2  0
 38 39  1  0
 38 40  1  0
 40 41  1  0
 40 42  2  0
 42 43  1  0
 42 44  1  0
 44 45  1  0
 44 46  2  0
 46 47  1  0
 33 48  1  0
 48 49  1  0
 48  2  2  0
 31  6  1  0
 46 37  1  0
 29 20  1  0
M  CHG  3   3  -1  19  -1  49  -1
M  END
>  <UniqueID>  (2) 
2

>  <SMILES>  (2) 
Cc1ccc(/N=c2/[n-]cc([O-])n2Cc2ccccc2)cc1C(=O)[N-]c1ccccc1

>  <Energy>  (2) 
104.73788753275453

>  <Genealogy>  (2) 
Cc1ccc(N=c2[n-]cc([O-])n2Cc2ccccc2)cc1C(=O)[N-]c1ccccc1 (protonated)
Cc1ccc(/N=c2/[n-]cc([O-])n2Cc2ccccc2)cc1C(=O)[N-]c1ccccc1 (cis-trans isomerization)
Cc1ccc(/N=c2/[n-]cc([O-])n2Cc2ccccc2)cc1C(=O)[N-]c1ccccc1 (3D coordinates assigned)
Cc1ccc(/N=c2/[n-]cc([O-])n2Cc2ccccc2)cc1C(=O)[N-]c1ccccc1 (optimized conformer: 104.73788753275453 kcal/mol)

>  <smiles>  (2) 
Cc1ccc(N=c2[nH]cc(O)n2Cc2ccccc2)cc1C(=O)Nc1ccccc1

>  <score_type>  (2) 
oracle

>  <origin>  (2) 
adg

>  <m_score__min__energy>  (2) 
-14.130000000000001

>  <m_primary>  (2) 
energy

$$$$
2:0
     RDKit          3D

 44 46  0  0  0  0  0  0  0  0999 V2000
   58.5820   27.5420   44.0240 O   0  0  0  0  0  0  0  0  0  0  0  0
   57.5950   27.5140   44.8110 C   0  0  0  0  0  0  0  0  0  0  0  0
   56.6940   28.6320   44.8640 N   0  0  0  0  0  0  0  0  0  0  0  0
   56.8000   29.7660   43.9490 C   0  0  0  0  0  0  0  0  0  0  0  0
   57.4460   30.9360   44.6400 C   0  0  0  0  0  0  0  0  0  0  0  0
   58.0560   30.7780   45.8950 C   0  0  0  0  0  0  0  0  0  0  0  0
   58.6370   31.8750   46.5400 C   0  0  0  0  0  0  0  0  0  0  0  0
   58.6080   33.1370   45.9370 C   0  0  0  0  0  0  0  0  0  0  0  0
   59.1710   34.2000   46.5630 F   0  0  0  0  0  0  0  0  0  0  0  0
   57.9980   33.3020   44.6910 C   0  0  0  0  0  0  0  0  0  0  0  0
   57.4160   32.2070   44.0440 C   0  0  0  0  0  0  0  0  0  0  0  0
   57.4080   26.3370   45.6910 C   0  0  0  0  0  0  0  0  0  0  0  0
   58.4880   25.4860   45.9560 C   0  0  0  0  0  0  0  0  0  0  0  0
   58.3280   24.4030   46.7600 N   0  0  0  0  0  0  0  0  0  0  0  0
   57.1240   24.1130   47.3160 C   0  0  0  0  0  0  0  0  0  0  0  0
   57.0070   23.0580   48.0670 N   0  0  0  0  0  0  0  0  0  0  0  0
   56.3820   21.7970   47.6630 C   0  0  0  0  0  0  0  0  0  0  0  0
   55.2210   22.0400   46.6900 C   0  0  0  0  0  0  0  0  0  0  0  0
   55.6860   22.1090   45.2580 C   0  0  0  0  0  0  0  0  0  0  0  0
   56.5440   21.1230   44.7390 C   0  0  0  0  0  0  0  0  0  0  0  0
   57.0220   21.2240   43.4290 C   0  0  0  0  0  0  0  0  0  0  0  0
   56.6460   22.3060   42.6290 C   0  0  0  0  0  0  0  0  0  0  0  0
   55.7930   23.2890   43.1360 C   0  0  0  0  0  0  0  0  0  0  0  0
   55.3140   23.1940   44.4460 C   0  0  0  0  0  0  0  0  0  0  0  0
   56.0570   24.9190   47.0660 N   0  0  0  0  0  0  0  0  0  0  0  0
   56.1650   26.0110   46.2650 C   0  0  0  0  0  0  0  0  0  0  0  0
   55.1370   26.6980   46.0280 O   0  0  0  0  0  0  0  0  0  0  0  0
   55.9800   28.6830   45.6230 H   0  0  0  0  0  0  0  0  0  0  0  0
   57.4095   29.4758   43.0805 H   0  0  0  0  0  0  0  0  0  0  0  0
   55.7910   30.0567   43.6211 H   0  0  0  0  0  0  0  0  0  0  0  0
   58.0771   29.7875   46.3729 H   0  0  0  0  0  0  0  0  0  0  0  0
   59.1167   31.7453   47.5214 H   0  0  0  0  0  0  0  0  0  0  0  0
   57.9754   34.2948   44.2180 H   0  0  0  0  0  0  0  0  0  0  0  0
   56.9331   32.3420   43.0649 H   0  0  0  0  0  0  0  0  0  0  0  0
   59.4716   25.6958   45.5105 H   0  0  0  0  0  0  0  0  0  0  0  0
   57.1357   21.1643   47.1714 H   0  0  0  0  0  0  0  0  0  0  0  0
   55.9856   21.3012   48.5614 H   0  0  0  0  0  0  0  0  0  0  0  0
   54.4975   21.2173   46.7887 H   0  0  0  0  0  0  0  0  0  0  0  0
   54.7629   23.0072   46.9442 H   0  0  0  0  0  0  0  0  0  0  0  0
   56.8401   20.2691   45.3660 H   0  0  0  0  0  0  0  0  0  0  0  0
   57.6944   20.4513   43.0280 H   0  0  0  0  0  0  0  0  0  0  0  0
   57.0223   22.3838   41.5983 H   0  0  0  0  0  0  0  0  0  0  0  0
   55.4977   24.1392   42.5036 H   0  0  0  0  0  0  0  0  0  0  0  0
   54.6438   23.9710   44.8424 H   0  0  0  0  0  0  0  0  0  0  0  0
  1  2  2  0
  2  3  1  0
  3  4  1  0
  4  5  1  0
  5  6  2  0
  6  7  1  0
  7  8  2  0
  8  9  1  0
  8 10  1  0
 10 11  2  0
  2 12  1  0
 12 13  2  0
 13 14  1  0
 14 15  1  0
 15 16  2  3
 16 17  1  0
 17 18  1  0
 18 19  1  0
 19 20  2  0
 20 21  1  0
 21 22  2  0
 22 23  1  0
 23 24  2  0
 15 25  1  0
 25 26  1  0
 26 27  2  0
 11  5  1  0
 26 12  1  0
 24 19  1  0
  3 28  1  0
  4 29  1  0
  4 30  1  0
  6 31  1  0
  7 32  1  0
 10 33  1  0
 11 34  1  0
 13 35  1  0
 17 36  1  0
 17 37  1  0
 18 38  1  0
 18 39  1  0
 20 40  1  0
 21 41  1  0
 22 42  1  0
 23 43  1  0
 24 44  1  0
M  CHG  2  14  -1  25  -1
M  END
>  <UniqueID>  (3) 
3

>  <SMILES>  (3) 
O=C(NCc1ccc(F)cc1)c1c[n-]c(=NCCc2ccccc2)[n-]c1=O

>  <Energy>  (3) 
46.407386040816874

>  <Genealogy>  (3) 
O=C(NCc1ccc(F)cc1)c1c[n-]c(=NCCc2ccccc2)[n-]c1=O (protonated)
O=C(NCc1ccc(F)cc1)c1c[n-]c(=NCCc2ccccc2)[n-]c1=O (3D coordinates assigned)
O=C(NCc1ccc(F)cc1)c1c[n-]c(=NCCc2ccccc2)[n-]c1=O (optimized conformer: 46.407386040816874 kcal/mol)

>  <smiles>  (3) 
O=C(NCc1ccc(F)cc1)c1c[nH]c(=NCCc2ccccc2)[nH]c1=O

>  <score_type>  (3) 
oracle

>  <origin>  (3) 
adg

>  <m_score__min__energy>  (3) 
-11.33

>  <m_primary>  (3) 
energy

$$$$
3:0
     RDKit          3D

 60 63  0  0  1  0  0  0  0  0999 V2000
   64.6400   32.5360   50.1130 C   0  0  0  0  0  0  0  0  0  0  0  0
   64.2700   33.1810   48.7830 C   0  0  0  0  0  0  0  0  0  0  0  0
   63.6730   32.0220   47.9590 C   0  0  0  0  0  0  0  0  0  0  0  0
   63.3070   34.1770   48.9380 O   0  0  0  0  0  0  0  0  0  0  0  0
   61.9670   33.9320   48.8770 C   0  0  0  0  0  0  0  0  0  0  0  0
   61.3140   33.7570   50.1070 C   0  0  0  0  0  0  0  0  0  0  0  0
   59.9660   33.5040   50.1930 C   0  0  0  0  0  0  0  0  0  0  0  0
   59.3710   33.3360   51.5120 C   0  0  0  0  0  0  0  0  0  0  0  0
   58.9540   34.3750   52.0840 O   0  0  0  0  0  0  0  0  0  0  0  0
   59.3030   32.0380   52.0490 N   0  0  0  0  0  0  0  0  0  0  0  0
   59.5620   30.9560   51.3980 C   0  0  0  0  0  0  0  0  0  0  0  0
   58.6940   30.5150   50.4260 C   0  0  0  0  0  0  0  0  0  0  0  0
   58.8860   29.3780   49.6840 C   0  0  0  0  0  0  0  0  0  0  0  0
   60.0110   28.6520   49.9330 N   0  0  0  0  0  0  0  0  0  0  0  0
   60.8980   29.0400   50.8770 C   0  0  0  0  0  0  0  0  0  0  0  0
   60.6910   30.1850   51.6180 C   0  0  0  0  0  0  0  0  0  0  0  0
   61.5670   30.6020   52.5750 F   0  0  0  0  0  0  0  0  0  0  0  0
   59.2480   33.4220   49.0270 C   0  0  0  0  0  0  0  0  0  0  0  0
   59.8250   33.5840   47.7810 C   0  0  0  0  0  0  0  0  0  0  0  0
   59.0110   33.4840   46.5760 C   0  0  0  0  0  0  0  0  0  0  0  0
   58.2410   32.3900   46.4310 N   0  0  0  0  0  0  0  0  0  0  0  0
   57.4810   32.2600   45.3350 C   0  0  0  0  0  0  0  0  0  0  0  0
   56.7150   31.2160   45.1490 N   0  0  0  0  0  0  0  0  0  0  0  0
   57.3260   29.9770   44.8090 C   0  0  0  0  0  0  0  0  0  0  0  0
   57.1160   29.3310   43.6080 C   0  0  0  0  0  0  0  0  0  0  0  0
   57.7810   28.1260   43.4170 C   0  0  0  0  0  0  0  0  0  0  0  0
   58.6170   27.5680   44.3500 C   0  0  0  0  0  0  0  0  0  0  0  0
   58.8150   28.2390   45.5590 C   0  0  0  0  0  0  0  0  0  0  0  0
   59.8760   27.5720   46.7980 S   0  0  0  0  0  0  0  0  0  0  0  0
   61.0400   26.4900   46.1040 N   0  0  0  0  0  0  0  0  0  0  0  0
   60.6330   28.6920   47.4430 O   0  0  0  0  0  0  0  0  0  0  0  0
   59.1170   26.8320   47.8520 O   0  0  0  0  0  0  0  0  0  0  0  0
   58.1710   29.4320   45.7780 C   0  0  0  0  0  0  0  0  0  0  0  0
   57.4400   33.2080   44.3220 C   0  0  0  0  0  0  0  0  0  0  0  0
   58.2350   34.3160   44.4940 C   0  0  0  0  0  0  0  0  0  0  0  0
   58.9900   34.4160   45.6100 N   0  0  0  0  0  0  0  0  0  0  0  0
   61.1860   33.8370   47.7600 C   0  0  0  0  0  0  0  0  0  0  0  0
   64.2786   33.1660   50.9391 H   0  0  0  0  0  0  0  0  0  0  0  0
   64.1752   31.5413   50.1800 H   0  0  0  0  0  0  0  0  0  0  0  0
   65.7333   32.4351   50.1800 H   0  0  0  0  0  0  0  0  0  0  0  0
   65.1413   33.6613   48.3137 H   0  0  0  0  0  0  0  0  0  0  0  0
   63.2773   31.2539   48.6398 H   0  0  0  0  0  0  0  0  0  0  0  0
   62.8595   32.4040   47.3248 H   0  0  0  0  0  0  0  0  0  0  0  0
   64.4564   31.5815   47.3248 H   0  0  0  0  0  0  0  0  0  0  0  0
   61.9017   33.8247   51.0344 H   0  0  0  0  0  0  0  0  0  0  0  0
   57.7902   31.1113   50.2321 H   0  0  0  0  0  0  0  0  0  0  0  0
   58.1607   29.0649   48.9186 H   0  0  0  0  0  0  0  0  0  0  0  0
   60.1710   27.7880   49.3780 H   0  0  0  0  0  0  0  0  0  0  0  0
   61.7980   28.4336   51.0567 H   0  0  0  0  0  0  0  0  0  0  0  0
   58.1685   33.2190   49.0857 H   0  0  0  0  0  0  0  0  0  0  0  0
   56.4527   29.7506   42.8373 H   0  0  0  0  0  0  0  0  0  0  0  0
   57.6289   27.5916   42.4676 H   0  0  0  0  0  0  0  0  0  0  0  0
   59.1215   26.6112   44.1503 H   0  0  0  0  0  0  0  0  0  0  0  0
   61.6340   26.9640   45.3990 H   0  0  0  0  0  0  0  0  0  0  0  0
   61.5430   25.9540   46.8250 H   0  0  0  0  0  0  0  0  0  0  0  0
   58.3226   29.9648   46.7283 H   0  0  0  0  0  0  0  0  0  0  0  0
   56.8069   33.0798   43.4316 H   0  0  0  0  0  0  0  0  0  0  0  0
   58.2563   35.1104   43.7335 H   0  0  0  0  0  0  0  0  0  0  0  0
   59.5710   35.2790   45.6840 H   0  0  0  0  0  0  0  0  0  0  0  0
   61.6697   33.9701   46.7810 H   0  0  0  0  0  0  0  0  0  0  0  0
  1  2  1  0
  2  3  1  0
  2  4  1  0
  4  5  1  0
  5  6  2  0
  6  7  1  0
  7  8  1  0
  8  9  2  0
  8 10  1  0
 10 11  2  0
 11 12  1  0
 12 13  2  0
 13 14  1  0
 14 15  1  0
 15 16  2  0
 16 17  1  0
  7 18  2  0
 18 19  1  0
 19 20  1  0
 20 21  2  0
 21 22  1  0
 22 23  2  0
 23 24  1  0
 24 25  2  0
 25 26  1  0
 26 27  2  0
 27 28  1  0
 28 29  1  0
 29 30  1  0
 29 31  2  0
 29 32  2  0
 28 33  2  0
 22 34  1  0
 34 35  2  0
 35 36  1  0
 19 37  2  0
 37  5  1  0
 16 11  1  0
 36 20  1  0
 33 24  1  0
  1 38  1  0
  1 39  1  0
  1 40  1  0
  2 41  1  0
  3 42  1  0
  3 43  1  0
  3 44  1  0
  6 45  1  0
 12 46  1  0
 13 47  1  0
 14 48  1  0
 15 49  1  0
 18 50  1  0
 25 51  1  0
 26 52  1  0
 27 53  1  0
 30 54  1  0
 30 55  1  0
 33 56  1  0
 34 57  1  0
 35 58  1  0
 36 59  1  0
 37 60  1  0
M  END
>  <smiles>  (4) 
CC(C)Oc1cc(C(=O)N=c2cc[nH]cc2F)cc(-c2nc(=Nc3cccc(S(N)(=O)=O)c3)cc[nH]2)c1

>  <score_type>  (4) 
oracle

>  <origin>  (4) 
adg

>  <m_score__min__energy>  (4) 
-11

>  <m_primary>  (4) 
energy

$$$$
4:0
     RDKit          3D

 38 40  0  0  0  0  0  0  0  0999 V2000
   55.5930   29.3190   52.4130 O   0  0  0  0  0  0  0  0  0  0  0  0
   55.2190   30.4240   51.9340 C   0  0  0  0  0  0  0  0  0  0  0  0
   56.1570   31.2660   51.2430 N   0  0  0  0  0  0  0  0  0  0  0  0
   57.5840   31.1320   51.3560 C   0  0  0  0  0  0  0  0  0  0  0  0
   58.1930   31.2860   52.6100 C   0  0  0  0  0  0  0  0  0  0  0  0
   59.5730   31.1210   52.7510 C   0  0  0  0  0  0  0  0  0  0  0  0
   60.3570   30.7980   51.6420 C   0  0  0  0  0  0  0  0  0  0  0  0
   59.7710   30.6430   50.3810 C   0  0  0  0  0  0  0  0  0  0  0  0
   60.6080   30.2760   49.2740 N   0  0  0  0  0  0  0  0  0  0  0  0
   60.3170   30.4740   47.8840 C   0  0  0  0  0  0  0  0  0  0  0  0
   60.6570   29.6100   47.0310 O   0  0  0  0  0  0  0  0  0  0  0  0
   59.6160   31.7060   47.4530 C   0  0  0  0  0  0  0  0  0  0  0  0
   60.1240   32.9410   47.8950 C   0  0  0  0  0  0  0  0  0  0  0  0
   59.5750   34.1410   47.4430 C   0  0  0  0  0  0  0  0  0  0  0  0
   58.5130   34.1280   46.5420 C   0  0  0  0  0  0  0  0  0  0  0  0
   57.9800   32.9140   46.1070 C   0  0  0  0  0  0  0  0  0  0  0  0
   58.5020   31.6920   46.5670 C   0  0  0  0  0  0  0  0  0  0  0  0
   57.8170   30.4450   46.1510 C   0  0  0  0  0  0  0  0  0  0  0  0
   58.0180   29.3630   46.7640 O   0  0  0  0  0  0  0  0  0  0  0  0
   56.8910   30.4700   45.1150 O   0  0  0  0  0  0  0  0  0  0  0  0
   58.3770   30.7820   50.2460 C   0  0  0  0  0  0  0  0  0  0  0  0
   53.8030   30.8110   52.0600 C   0  0  0  0  0  0  0  0  0  0  0  0
   52.8720   30.2340   52.9090 C   0  0  0  0  0  0  0  0  0  0  0  0
   51.6840   30.8940   52.6840 C   0  0  0  0  0  0  0  0  0  0  0  0
   51.9560   31.8290   51.7120 C   0  0  0  0  0  0  0  0  0  0  0  0
   51.0250   32.7130   51.1860 O   0  0  0  0  0  0  0  0  0  0  0  0
   53.2430   31.7900   51.3190 N   0  0  0  0  0  0  0  0  0  0  0  0
   55.7870   31.9440   50.5400 H   0  0  0  0  0  0  0  0  0  0  0  0
   57.5802   31.5383   53.4880 H   0  0  0  0  0  0  0  0  0  0  0  0
   60.0428   31.2458   53.7378 H   0  0  0  0  0  0  0  0  0  0  0  0
   61.4424   30.6645   51.7603 H   0  0  0  0  0  0  0  0  0  0  0  0
   60.9638   32.9607   48.6052 H   0  0  0  0  0  0  0  0  0  0  0  0
   59.9815   35.0992   47.7988 H   0  0  0  0  0  0  0  0  0  0  0  0
   58.0940   35.0757   46.1729 H   0  0  0  0  0  0  0  0  0  0  0  0
   57.1411   32.9129   45.3955 H   0  0  0  0  0  0  0  0  0  0  0  0
   57.9037   30.6162   49.2670 H   0  0  0  0  0  0  0  0  0  0  0  0
   53.0467   29.4132   53.6202 H   0  0  0  0  0  0  0  0  0  0  0  0
   50.7186   30.7114   53.1786 H   0  0  0  0  0  0  0  0  0  0  0  0
  1  2  2  0
  2  3  1  0
  3  4  1  0
  4  5  2  0
  5  6  1  0
  6  7  2  0
  7  8  1  0
  8  9  1  0
  9 10  1  0
 10 11  2  0
 10 12  1  0
 12 13  2  0
 13 14  1  0
 14 15  2  0
 15 16  1  0
 16 17  2  0
 17 18  1  0
 18 19  2  0
 18 20  1  0
  8 21  2  0
  2 22  1  0
 22 23  2  0
 23 24  1  0
 24 25  2  0
 25 26  1  0
 25 27  1  0
 21  4  1  0
 27 22  1  0
 17 12  1  0
  3 28  1  0
  5 29  1  0
  6 30  1  0
  7 31  1  0
 13 32  1  0
 14 33  1  0
 15 34  1  0
 16 35  1  0
 21 36  1  0
 23 37  1  0
 24 38  1  0
M  CHG  4   9  -1  20  -1  26  -1  27  -1
M  END
>  <UniqueID>  (5) 
4

>  <SMILES>  (5) 
O=C(Nc1cccc([N-]C(=O)c2ccccc2C(=O)[O-])c1)c1ccc([O-])[n-]1

>  <Energy>  (5) 
81.74480685390343

>  <Genealogy>  (5) 
O=C(Nc1cccc([N-]C(=O)c2ccccc2C(=O)[O-])c1)c1ccc([O-])[n-]1 (protonated)
O=C(Nc1cccc([N-]C(=O)c2ccccc2C(=O)[O-])c1)c1ccc([O-])[n-]1 (3D coordinates assigned)
O=C(Nc1cccc([N-]C(=O)c2ccccc2C(=O)[O-])c1)c1ccc([O-])[n-]1 (optimized conformer: 81.74480685390343 kcal/mol)

>  <smiles>  (5) 
O=C(Nc1cccc(NC(=O)c2ccccc2C(=O)O)c1)c1ccc(O)[nH]1

>  <score_type>  (5) 
oracle

>  <origin>  (5) 
adg

>  <m_score__min__energy>  (5) 
-15.73

>  <m_primary>  (5) 
energy

$$$$
5:0
     RDKit          3D

 50 52  0  0  0  0  0  0  0  0999 V2000
   58.8870   33.8390   47.8130 C   0  0  0  0  0  0  0  0  0  0  0  0
   59.6940   34.9690   47.1790 C   0  0  0  0  0  0  0  0  0  0  0  0
   59.4390   35.0530   45.6680 C   0  0  0  0  0  0  0  0  0  0  0  0
   58.3800   34.0820   45.2420 C   0  0  0  0  0  0  0  0  0  0  0  0
   57.1860   34.4730   45.1300 O   0  0  0  0  0  0  0  0  0  0  0  0
   58.7330   32.7110   45.0060 N   0  0  0  0  0  0  0  0  0  0  0  0
   57.9270   31.7020   44.3790 C   0  0  0  0  0  0  0  0  0  0  0  0
   57.7060   31.7870   42.9990 C   0  0  0  0  0  0  0  0  0  0  0  0
   56.8990   30.8480   42.3520 C   0  0  0  0  0  0  0  0  0  0  0  0
   56.3110   29.8100   43.0790 C   0  0  0  0  0  0  0  0  0  0  0  0
   56.5310   29.7010   44.4570 C   0  0  0  0  0  0  0  0  0  0  0  0
   55.8960   28.6370   45.1790 N   0  0  0  0  0  0  0  0  0  0  0  0
   56.5310   27.4460   45.6660 C   0  0  0  0  0  0  0  0  0  0  0  0
   55.8070   26.4960   46.0690 O   0  0  0  0  0  0  0  0  0  0  0  0
   58.0250   27.2770   45.6590 C   0  0  0  0  0  0  0  0  0  0  0  0
   58.6640   28.2330   46.6130 C   0  0  0  0  0  0  0  0  0  0  0  0
   59.6980   29.1050   46.3220 C   0  0  0  0  0  0  0  0  0  0  0  0
   59.9370   29.7590   47.5150 C   0  0  0  0  0  0  0  0  0  0  0  0
   60.9810   30.7830   47.7330 C   0  0  0  0  0  0  0  0  0  0  0  0
   61.1960   31.7790   46.7630 C   0  0  0  0  0  0  0  0  0  0  0  0
   62.1920   32.7430   46.9520 C   0  0  0  0  0  0  0  0  0  0  0  0
   62.9880   32.7130   48.0990 C   0  0  0  0  0  0  0  0  0  0  0  0
   62.7950   31.7140   49.0580 C   0  0  0  0  0  0  0  0  0  0  0  0
   61.7990   30.7510   48.8750 C   0  0  0  0  0  0  0  0  0  0  0  0
   59.0590   29.3040   48.4410 N   0  0  0  0  0  0  0  0  0  0  0  0
   58.9190   29.7370   49.8270 C   0  0  0  0  0  0  0  0  0  0  0  0
   58.2890   28.3730   47.9010 N   0  0  0  0  0  0  0  0  0  0  0  0
   57.3060   30.6730   45.1130 C   0  0  0  0  0  0  0  0  0  0  0  0
   58.9435   33.9181   48.9087 H   0  0  0  0  0  0  0  0  0  0  0  0
   57.8371   33.9143   47.4936 H   0  0  0  0  0  0  0  0  0  0  0  0
   59.2989   32.8703   47.4936 H   0  0  0  0  0  0  0  0  0  0  0  0
   59.4043   35.9222   47.6453 H   0  0  0  0  0  0  0  0  0  0  0  0
   60.7631   34.7670   47.3411 H   0  0  0  0  0  0  0  0  0  0  0  0
   59.1132   36.0728   45.4153 H   0  0  0  0  0  0  0  0  0  0  0  0
   60.3726   34.8026   45.1429 H   0  0  0  0  0  0  0  0  0  0  0  0
   58.1710   32.5987   42.4203 H   0  0  0  0  0  0  0  0  0  0  0  0
   56.7263   30.9260   41.2685 H   0  0  0  0  0  0  0  0  0  0  0  0
   55.6726   29.0754   42.5664 H   0  0  0  0  0  0  0  0  0  0  0  0
   58.2743   26.2477   45.9564 H   0  0  0  0  0  0  0  0  0  0  0  0
   58.4014   27.4805   44.6456 H   0  0  0  0  0  0  0  0  0  0  0  0
   60.2125   29.2455   45.3599 H   0  0  0  0  0  0  0  0  0  0  0  0
   60.5788   31.7998   45.8527 H   0  0  0  0  0  0  0  0  0  0  0  0
   62.3485   33.5262   46.1956 H   0  0  0  0  0  0  0  0  0  0  0  0
   63.7669   33.4753   48.2480 H   0  0  0  0  0  0  0  0  0  0  0  0
   63.4277   31.6861   49.9574 H   0  0  0  0  0  0  0  0  0  0  0  0
   61.6546   29.9635   49.6293 H   0  0  0  0  0  0  0  0  0  0  0  0
   59.1869   28.9083   50.4989 H   0  0  0  0  0  0  0  0  0  0  0  0
   59.5868   30.5909   50.0136 H   0  0  0  0  0  0  0  0  0  0  0  0
   57.8777   30.0383   50.0136 H   0  0  0  0  0  0  0  0  0  0  0  0
   57.4281   30.6297   46.2053 H   0  0  0  0  0  0  0  0  0  0  0  0
  1  2  1  0
  2  3  1  0
  3  4  1  0
  4  5  2  0
  4  6  1  0
  6  7  1  0
  7  8  2  0
  8  9  1  0
  9 10  2  0
 10 11  1  0
 11 12  1  0
 12 13  1  0
 13 14  2  0
 13 15  1  0
 15 16  1  0
 16 17  1  0
 17 18  2  0
 18 19  1  0
 19 20  2  0
 20 21  1  0
 21 22  2  0
 22 23  1  0
 23 24  2  0
 18 25  1  0
 25 26  1  0
 25 27  1  0
 11 28  2  0
 28  7  1  0
 27 16  2  0
 24 19  1  0
  1 29  1  0
  1 30  1  0
  1 31  1  0
  2 32  1  0
  2 33  1  0
  3 34  1  0
  3 35  1  0
  8 36  1  0
  9 37  1  0
 10 38  1  0
 15 39  1  0
 15 40  1  0
 17 41  1  0
 20 42  1  0
 21 43  1  0
 22 44  1  0
 23 45  1  0
 24 46  1  0
 26 47  1  0
 26 48  1  0
 26 49  1  0
 28 50  1  0
M  CHG  2   6  -1  12  -1
M  END
>  <UniqueID>  (6) 
5

>  <SMILES>  (6) 
CCCC(=O)[N-]c1cccc([N-]C(=O)Cc2cc(-c3ccccc3)n(C)n2)c1

>  <Energy>  (6) 
86.95291850241705

>  <Genealogy>  (6) 
CCCC(=O)[N-]c1cccc([N-]C(=O)Cc2cc(-c3ccccc3)n(C)n2)c1 (protonated)
CCCC(=O)[N-]c1cccc([N-]C(=O)Cc2cc(-c3ccccc3)n(C)n2)c1 (3D coordinates assigned)
CCCC(=O)[N-]c1cccc([N-]C(=O)Cc2cc(-c3ccccc3)n(C)n2)c1 (optimized conformer: 86.95291850241705 kcal/mol)

>  <smiles>  (6) 
CCCC(=O)Nc1cccc(NC(=O)Cc2cc(-c3ccccc3)n(C)n2)c1

>  <score_type>  (6) 
oracle

>  <origin>  (6) 
adg

>  <m_score__min__energy>  (6) 
-12.220000000000001

>  <m_primary>  (6) 
energy

$$$$
6:0
     RDKit          3D

 60 62  0  0  0  0  0  0  0  0999 V2000
   58.1280   26.5260   43.5880 C   0  0  0  0  0  0  0  0  0  0  0  0
   57.6300   26.3130   44.9040 O   0  0  0  0  0  0  0  0  0  0  0  0
   56.8490   27.2610   45.5780 C   0  0  0  0  0  0  0  0  0  0  0  0
   55.6850   26.9620   45.9670 O   0  0  0  0  0  0  0  0  0  0  0  0
   57.3960   28.6170   45.8180 C   0  0  0  0  0  0  0  0  0  0  0  0
   58.3110   28.9090   46.8410 C   0  0  0  0  0  0  0  0  0  0  0  0
   58.7230   28.0470   47.9060 N   0  0  0  0  0  0  0  0  0  0  0  0
   59.8830   27.2090   47.8640 C   0  0  0  0  0  0  0  0  0  0  0  0
   60.1910   26.5890   46.8110 O   0  0  0  0  0  0  0  0  0  0  0  0
   60.7070   27.0210   49.0990 C   0  0  0  0  0  0  0  0  0  0  0  0
   60.0490   27.5950   50.2300 O   0  0  0  0  0  0  0  0  0  0  0  0
   59.8970   28.9710   50.4630 C   0  0  0  0  0  0  0  0  0  0  0  0
   60.9210   29.9000   50.2020 C   0  0  0  0  0  0  0  0  0  0  0  0
   60.7030   31.2620   50.4130 C   0  0  0  0  0  0  0  0  0  0  0  0
   59.4680   31.7120   50.8830 C   0  0  0  0  0  0  0  0  0  0  0  0
   58.4370   30.8000   51.1520 C   0  0  0  0  0  0  0  0  0  0  0  0
   57.1130   31.2730   51.6220 C   0  0  0  0  0  0  0  0  0  0  0  0
   56.9150   32.5080   51.7770 O   0  0  0  0  0  0  0  0  0  0  0  0
   56.0140   30.3690   51.8250 N   0  0  0  0  0  0  0  0  0  0  0  0
   54.7520   30.6710   51.9700 C   0  0  0  0  0  0  0  0  0  0  0  0
   53.9240   31.0280   50.8870 C   0  0  0  0  0  0  0  0  0  0  0  0
   52.5850   31.3410   51.1200 C   0  0  0  0  0  0  0  0  0  0  0  0
   52.0570   31.2890   52.4200 C   0  0  0  0  0  0  0  0  0  0  0  0
   50.6310   31.6110   52.6730 C   0  0  0  0  0  0  0  0  0  0  0  0
   50.0100   32.7150   52.0120 N   0  0  0  0  0  0  0  0  0  0  0  0
   49.9540   30.9150   53.4760 O   0  0  0  0  0  0  0  0  0  0  0  0
   52.9110   30.9040   53.4660 C   0  0  0  0  0  0  0  0  0  0  0  0
   54.2120   30.6060   53.2160 N   0  0  0  0  0  0  0  0  0  0  0  0
   58.6710   29.4270   50.9610 C   0  0  0  0  0  0  0  0  0  0  0  0
   58.8230   30.4980   46.7080 S   0  0  0  0  0  0  0  0  0  0  0  0
   57.8910   30.8690   45.3580 C   0  0  0  0  0  0  0  0  0  0  0  0
   57.8730   32.2000   44.7260 C   0  0  0  0  0  0  0  0  0  0  0  0
   57.7660   32.2720   43.4700 O   0  0  0  0  0  0  0  0  0  0  0  0
   57.9470   33.4070   45.5080 N   0  0  0  0  0  0  0  0  0  0  0  0
   57.3820   33.4440   46.8610 C   0  0  0  0  0  0  0  0  0  0  0  0
   58.5270   34.6110   44.9070 C   0  0  0  0  0  0  0  0  0  0  0  0
   57.1360   29.7420   44.9930 C   0  0  0  0  0  0  0  0  0  0  0  0
   56.1220   29.7400   43.8760 C   0  0  0  0  0  0  0  0  0  0  0  0
   59.1381   26.9580   43.6437 H   0  0  0  0  0  0  0  0  0  0  0  0
   58.1686   25.5665   43.0516 H   0  0  0  0  0  0  0  0  0  0  0  0
   57.4622   27.2181   43.0516 H   0  0  0  0  0  0  0  0  0  0  0  0
   60.8568   25.9454   49.2743 H   0  0  0  0  0  0  0  0  0  0  0  0
   61.6771   27.5204   48.9596 H   0  0  0  0  0  0  0  0  0  0  0  0
   61.8961   29.5516   49.8306 H   0  0  0  0  0  0  0  0  0  0  0  0
   61.5074   31.9838   50.2082 H   0  0  0  0  0  0  0  0  0  0  0  0
   59.3025   32.7876   51.0432 H   0  0  0  0  0  0  0  0  0  0  0  0
   54.3307   31.0596   49.8655 H   0  0  0  0  0  0  0  0  0  0  0  0
   51.9378   31.6307   50.2791 H   0  0  0  0  0  0  0  0  0  0  0  0
   50.4570   33.6590   52.0160 H   0  0  0  0  0  0  0  0  0  0  0  0
   52.5239   30.8434   54.4938 H   0  0  0  0  0  0  0  0  0  0  0  0
   57.8808   28.7021   51.2060 H   0  0  0  0  0  0  0  0  0  0  0  0
   58.1954   33.3907   47.5996 H   0  0  0  0  0  0  0  0  0  0  0  0
   56.8221   34.3807   46.9991 H   0  0  0  0  0  0  0  0  0  0  0  0
   56.7047   32.5883   46.9991 H   0  0  0  0  0  0  0  0  0  0  0  0
   58.8567   35.2955   45.7025 H   0  0  0  0  0  0  0  0  0  0  0  0
   59.3890   34.3309   44.2837 H   0  0  0  0  0  0  0  0  0  0  0  0
   57.7707   35.1105   44.2837 H   0  0  0  0  0  0  0  0  0  0  0  0
   55.1077   29.7380   44.3016 H   0  0  0  0  0  0  0  0  0  0  0  0
   56.2577   30.6384   43.2560 H   0  0  0  0  0  0  0  0  0  0  0  0
   56.2613   28.8421   43.2560 H   0  0  0  0  0  0  0  0  0  0  0  0
  1  2  1  0
  2  3  1  0
  3  4  2  0
  3  5  1  0
  5  6  2  0
  6  7  1  0
  7  8  1  0
  8  9  2  0
  8 10  1  0
 10 11  1  0
 11 12  1  0
 12 13  2  0
 13 14  1  0
 14 15  2  0
 15 16  1  0
 16 17  1  0
 17 18  2  0
 17 19  1  0
 19 20  2  3
 20 21  1  0
 21 22  2  0
 22 23  1  0
 23 24  1  0
 24 25  1  0
 24 26  2  0
 23 27  2  0
 27 28  1  0
 16 29  2  0
  6 30  1  0
 30 31  1  0
 31 32  1  0
 32 33  2  0
 32 34  1  0
 34 35  1  0
 34 36  1  0
 31 37  2  0
 37 38  1  0
 37  5  1  0
 29 12  1  0
 28 20  1  0
  1 39  1  0
  1 40  1  0
  1 41  1  0
 10 42  1  0
 10 43  1  0
 13 44  1  0
 14 45  1  0
 15 46  1  0
 21 47  1  0
 22 48  1  0
 25 49  1  0
 27 50  1  0
 29 51  1  0
 35 52  1  0
 35 53  1  0
 35 54  1  0
 36 55  1  0
 36 56  1  0
 36 57  1  0
 38 58  1  0
 38 59  1  0
 38 60  1  0
M  CHG  3   7  -1  25  -1  28  -1
M  END
>  <UniqueID>  (7) 
6

>  <SMILES>  (7) 
COC(=O)c1c([N-]C(=O)COc2cccc(C(=O)N=c3ccc(C([NH-])=O)c[n-]3)c2)sc(C(=O)N(C)C)c1C

>  <Energy>  (7) 
108.92755358445507

>  <Genealogy>  (7) 
COC(=O)c1c([N-]C(=O)COc2cccc(C(=O)N=c3ccc(C([NH-])=O)c[n-]3)c2)sc(C(=O)N(C)C)c1C (protonated)
COC(=O)c1c([N-]C(=O)COc2cccc(C(=O)N=c3ccc(C([NH-])=O)c[n-]3)c2)sc(C(=O)N(C)C)c1C (3D coordinates assigned)
COC(=O)c1c([N-]C(=O)COc2cccc(C(=O)N=c3ccc(C([NH-])=O)c[n-]3)c2)sc(C(=O)N(C)C)c1C (optimized conformer: 108.92755358445507 kcal/mol)

>  <smiles>  (7) 
COC(=O)c1c(NC(=O)COc2cccc(C(=O)N=c3ccc(C(N)=O)c[nH]3)c2)sc(C(=O)N(C)C)c1C

>  <score_type>  (7) 
oracle

>  <origin>  (7) 
adg

>  <m_score__min__energy>  (7) 
-14.279999999999999

>  <m_primary>  (7) 
energy

$$$$
7:0
     RDKit          3D

 32 34  0  0  0  0  0  0  0  0999 V2000
   59.9570   33.8820   49.4250 C   0  0  0  0  0  0  0  0  0  0  0  0
   59.7290   33.6470   50.8110 O   0  0  0  0  0  0  0  0  0  0  0  0
   59.3590   32.4080   51.3600 C   0  0  0  0  0  0  0  0  0  0  0  0
   58.0140   32.0790   51.6210 C   0  0  0  0  0  0  0  0  0  0  0  0
   57.6690   30.8300   52.1740 C   0  0  0  0  0  0  0  0  0  0  0  0
   56.2530   30.4780   52.4520 C   0  0  0  0  0  0  0  0  0  0  0  0
   55.7840   29.5970   53.4300 C   0  0  0  0  0  0  0  0  0  0  0  0
   54.3890   29.4730   53.4540 C   0  0  0  0  0  0  0  0  0  0  0  0
   53.7440   30.2370   52.4870 C   0  0  0  0  0  0  0  0  0  0  0  0
   52.2820   30.3570   52.3280 C   0  0  0  0  0  0  0  0  0  0  0  0
   51.5370   30.0970   53.3100 O   0  0  0  0  0  0  0  0  0  0  0  0
   51.6600   30.8030   51.0690 C   0  0  0  0  0  0  0  0  0  0  0  0
   51.6290   30.0520   49.9520 N   0  0  0  0  0  0  0  0  0  0  0  0
   51.0220   30.8530   49.0500 C   0  0  0  0  0  0  0  0  0  0  0  0
   50.7990   30.4910   47.8650 O   0  0  0  0  0  0  0  0  0  0  0  0
   50.6820   32.0730   49.5140 N   0  0  0  0  0  0  0  0  0  0  0  0
   51.0990   32.0310   50.7900 C   0  0  0  0  0  0  0  0  0  0  0  0
   51.0110   33.1100   51.6600 O   0  0  0  0  0  0  0  0  0  0  0  0
   54.9140   31.0910   51.6300 S   0  0  0  0  0  0  0  0  0  0  0  0
   58.6940   29.9100   52.4560 C   0  0  0  0  0  0  0  0  0  0  0  0
   60.0270   30.2320   52.1990 C   0  0  0  0  0  0  0  0  0  0  0  0
   60.3650   31.4730   51.6560 C   0  0  0  0  0  0  0  0  0  0  0  0
   61.7090   31.7580   51.4150 O   0  0  0  0  0  0  0  0  0  0  0  0
   60.7185   34.6669   49.3066 H   0  0  0  0  0  0  0  0  0  0  0  0
   60.3089   32.9549   48.9489 H   0  0  0  0  0  0  0  0  0  0  0  0
   59.0197   34.2057   48.9489 H   0  0  0  0  0  0  0  0  0  0  0  0
   57.2226   32.8072   51.3898 H   0  0  0  0  0  0  0  0  0  0  0  0
   56.4482   29.0519   54.1168 H   0  0  0  0  0  0  0  0  0  0  0  0
   53.8540   28.8319   54.1701 H   0  0  0  0  0  0  0  0  0  0  0  0
   58.4429   28.9278   52.8829 H   0  0  0  0  0  0  0  0  0  0  0  0
   60.8181   29.5022   52.4261 H   0  0  0  0  0  0  0  0  0  0  0  0
   62.0170   32.6610   51.0760 H   0  0  0  0  0  0  0  0  0  0  0  0
  1  2  1  0
  2  3  1  0
  3  4  2  0
  4  5  1  0
  5  6  1  0
  6  7  2  0
  7  8  1  0
  8  9  2  0
  9 10  1  0
 10 11  2  0
 10 12  1  0
 12 13  1  0
 13 14  1  0
 14 15  2  0
 14 16  1  0
 16 17  1  0
 17 18  1  0
  9 19  1  0
  5 20  2  0
 20 21  1  0
 21 22  2  0
 22 23  1  0
 22  3  1  0
 19  6  1  0
 17 12  2  0
  1 24  1  0
  1 25  1  0
  1 26  1  0
  4 27  1  0
  7 28  1  0
  8 29  1  0
 20 30  1  0
 21 31  1  0
 23 32  1  0
M  CHG  3  13  -1  16  -1  18  -1
M  END
>  <UniqueID>  (8) 
7

>  <SMILES>  (8) 
COc1cc(-c2ccc(C(=O)c3[n-]c(=O)[n-]c3[O-])s2)ccc1O

>  <Energy>  (8) 
96.23172115525865

>  <Genealogy>  (8) 
COc1cc(-c2ccc(C(=O)c3[n-]c(=O)[n-]c3[O-])s2)ccc1O (protonated)
COc1cc(-c2ccc(C(=O)c3[n-]c(=O)[n-]c3[O-])s2)ccc1O (3D coordinates assigned)
COc1cc(-c2ccc(C(=O)c3[n-]c(=O)[n-]c3[O-])s2)ccc1O (optimized conformer: 96.23172115525865 kcal/mol)

>  <smiles>  (8) 
COc1cc(-c2ccc(C(=O)c3[nH]c(=O)[nH]c3O)s2)ccc1O

>  <score_type>  (8) 
oracle

>  <origin>  (8) 
adg

>  <m_score__min__energy>  (8) 
-14.74

>  <m_primary>  (8) 
energy

$$$$
8:0
     RDKit          3D

 34 36  0  0  0  0  0  0  0  0999 V2000
   60.1890   26.5680   46.3730 C   0  0  0  0  0  0  0  0  0  0  0  0
   59.4230   27.7750   45.9630 C   0  0  0  0  0  0  0  0  0  0  0  0
   59.8740   28.9940   45.8320 O   0  0  0  0  0  0  0  0  0  0  0  0
   58.9270   29.8170   45.4540 C   0  0  0  0  0  0  0  0  0  0  0  0
   58.8920   31.1410   45.1910 N   0  0  0  0  0  0  0  0  0  0  0  0
   57.7250   31.7340   44.8080 C   0  0  0  0  0  0  0  0  0  0  0  0
   57.7090   33.5020   44.4630 S   0  0  0  0  0  0  0  0  0  0  0  0
   58.0470   34.4270   45.9800 C   0  0  0  0  0  0  0  0  0  0  0  0
   59.2320   33.8560   46.6740 C   0  0  0  0  0  0  0  0  0  0  0  0
   60.4790   34.2040   46.1860 C   0  0  0  0  0  0  0  0  0  0  0  0
   61.6380   33.7060   46.7840 C   0  0  0  0  0  0  0  0  0  0  0  0
   61.5350   32.8490   47.8860 C   0  0  0  0  0  0  0  0  0  0  0  0
   60.2700   32.5170   48.3550 C   0  0  0  0  0  0  0  0  0  0  0  0
   59.1200   33.0110   47.7600 C   0  0  0  0  0  0  0  0  0  0  0  0
   57.8730   32.6810   48.2250 F   0  0  0  0  0  0  0  0  0  0  0  0
   56.5920   31.0190   44.6850 N   0  0  0  0  0  0  0  0  0  0  0  0
   56.5800   29.6780   44.9400 C   0  0  0  0  0  0  0  0  0  0  0  0
   55.5150   29.0020   44.8240 O   0  0  0  0  0  0  0  0  0  0  0  0
   57.7620   29.0590   45.3320 C   0  0  0  0  0  0  0  0  0  0  0  0
   58.0710   27.7500   45.6560 C   0  0  0  0  0  0  0  0  0  0  0  0
   57.1560   26.5760   45.6740 C   0  0  0  0  0  0  0  0  0  0  0  0
   60.2247   26.5118   47.4710 H   0  0  0  0  0  0  0  0  0  0  0  0
   59.6961   25.6685   45.9756 H   0  0  0  0  0  0  0  0  0  0  0  0
   61.2128   26.6310   45.9756 H   0  0  0  0  0  0  0  0  0  0  0  0
   59.7570   31.7190   45.2780 H   0  0  0  0  0  0  0  0  0  0  0  0
   58.2451   35.4792   45.7279 H   0  0  0  0  0  0  0  0  0  0  0  0
   57.1733   34.3593   46.6449 H   0  0  0  0  0  0  0  0  0  0  0  0
   60.5578   34.8781   45.3203 H   0  0  0  0  0  0  0  0  0  0  0  0
   62.6268   33.9855   46.3914 H   0  0  0  0  0  0  0  0  0  0  0  0
   62.4369   32.4467   48.3706 H   0  0  0  0  0  0  0  0  0  0  0  0
   60.1789   31.8447   49.2209 H   0  0  0  0  0  0  0  0  0  0  0  0
   56.9383   26.2967   46.7154 H   0  0  0  0  0  0  0  0  0  0  0  0
   56.2184   26.8340   45.1599 H   0  0  0  0  0  0  0  0  0  0  0  0
   57.6352   25.7298   45.1599 H   0  0  0  0  0  0  0  0  0  0  0  0
  1  2  1  0
  2  3  1  0
  3  4  1  0
  4  5  1  0
  5  6  1  0
  6  7  1  0
  7  8  1  0
  8  9  1  0
  9 10  2  0
 10 11  1  0
 11 12  2  0
 12 13  1  0
 13 14  2  0
 14 15  1  0
  6 16  2  0
 16 17  1  0
 17 18  2  0
 17 19  1  0
 19 20  1  0
 20 21  1  0
 20  2  2  0
 19  4  2  0
 14  9  1  0
  1 22  1  0
  1 23  1  0
  1 24  1  0
  5 25  1  0
  8 26  1  0
  8 27  1  0
 10 28  1  0
 11 29  1  0
 12 30  1  0
 13 31  1  0
 21 32  1  0
 21 33  1  0
 21 34  1  0
M  END
>  <smiles>  (9) 
Cc1oc2[nH]c(SCc3ccccc3F)nc(=O)c2c1C

>  <score_type>  (9) 
oracle

>  <origin>  (9) 
adg

>  <m_score__min__energy>  (9) 
-7.4900000000000002

>  <m_primary>  (9) 
energy

$$$$
9:0
     RDKit          3D

 28 29  0  0  0  0  0  0  0  0999 V2000
   59.4498   34.0641   48.1794 H   0  0  0  0  0  0  0  0  0  0  0  0
   60.2220   34.3140   47.4370 C   0  0  0  0  0  0  0  0  0  0  0  0
   59.8680   35.0370   46.3690 C   0  0  0  0  0  0  0  0  0  0  0  0
   60.3062   36.0356   46.2246 H   0  0  0  0  0  0  0  0  0  0  0  0
   58.8850   34.5130   45.3640 C   0  0  0  0  0  0  0  0  0  0  0  0
   59.4180   33.8847   44.6351 H   0  0  0  0  0  0  0  0  0  0  0  0
   58.4089   35.3695   44.8643 H   0  0  0  0  0  0  0  0  0  0  0  0
   57.5810   33.5160   46.1690 S   0  0  0  0  0  0  0  0  0  0  0  0
   57.3060   32.4610   44.7450 C   0  0  0  0  0  0  0  0  0  0  0  0
   56.5190   31.3610   44.8670 N   0  0  0  0  0  0  0  0  0  0  0  0
   56.3010   30.5310   43.8140 C   0  0  0  0  0  0  0  0  0  0  0  0
   55.4770   29.3770   43.9790 N   0  0  0  0  0  0  0  0  0  0  0  0
   54.4350   29.4580   43.9870 H   0  0  0  0  0  0  0  0  0  0  0  0
   55.9090   28.4330   44.0900 H   0  0  0  0  0  0  0  0  0  0  0  0
   56.8910   30.8130   42.5790 C   0  0  0  0  0  0  0  0  0  0  0  0
   56.7265   30.1541   41.7137 H   0  0  0  0  0  0  0  0  0  0  0  0
   57.6940   31.9500   42.4680 C   0  0  0  0  0  0  0  0  0  0  0  0
   58.2390   32.2290   41.3670 O   0  0  0  0  0  0  0  0  0  0  0  0
   57.8870   32.7530   43.5490 N   0  0  0  0  0  0  0  0  0  0  0  0
   58.4920   33.6020   43.4630 H   0  0  0  0  0  0  0  0  0  0  0  0
   61.5970   33.8360   47.6670 C   0  0  0  0  0  0  0  0  0  0  0  0
   62.2730   33.6330   49.1930 S   0  0  0  0  0  0  0  0  0  0  0  0
   63.7680   33.0730   48.6690 C   0  0  0  0  0  0  0  0  0  0  0  0
   64.6119   32.7868   49.3139 H   0  0  0  0  0  0  0  0  0  0  0  0
   63.7540   33.0340   47.2820 C   0  0  0  0  0  0  0  0  0  0  0  0
   64.6137   32.7016   46.6816 H   0  0  0  0  0  0  0  0  0  0  0  0
   62.5440   33.4570   46.7170 C   0  0  0  0  0  0  0  0  0  0  0  0
   62.3597   33.4870   45.6330 H   0  0  0  0  0  0  0  0  0  0  0  0
  1  2  1  0
  2  3  2  0
  3  4  1  0
  3  5  1  0
  5  6  1  0
  5  7  1  0
  5  8  1  0
  8  9  1  0
  9 10  2  0
 10 11  1  0
 11 12  1  0
 12 13  1  0
 12 14  1  0
 11 15  2  0
 15 16  1  0
 15 17  1  0
 17 18  2  0
 17 19  1  0
 19 20  1  0
  2 21  1  0
 21 22  1  0
 22 23  1  0
 23 24  1  0
 23 25  2  0
 25 26  1  0
 25 27  1  0
 27 28  1  0
 19  9  1  0
 27 21  2  0
M  END
>  <UniqueID>  (10) 
8

>  <SMILES>  (10) 
Nc1cc(=O)[nH]c(SC/C=C/c2cccs2)n1

>  <Energy>  (10) 
46.95322542841885

>  <Genealogy>  (10) 
Nc1cc(=O)[nH]c(SC/C=C/c2cccs2)n1 (cis-trans isomerization)
Nc1cc(=O)[nH]c(SC/C=C/c2cccs2)n1 (3D coordinates assigned)
Nc1cc(=O)[nH]c(SC/C=C/c2cccs2)n1 (optimized conformer: 46.95322542841885 kcal/mol)

>  <smiles>  (10) 
Nc1cc(=O)[nH]c(SCC=Cc2cccs2)n1

>  <score_type>  (10) 
oracle

>  <origin>  (10) 
adg

>  <m_score__min__energy>  (10) 
-7

>  <m_primary>  (10) 
energy

$$$$
10:0
     RDKit          3D

 41 43  0  0  0  0  0  0  0  0999 V2000
   53.9070   26.7060   46.3580 H   0  0  0  0  0  0  0  0  0  0  0  0
   54.8020   26.3290   45.9730 N   0  0  0  0  0  0  0  0  0  0  0  0
   55.8820   27.0410   45.9540 C   0  0  0  0  0  0  0  0  0  0  0  0
   56.9930   26.6230   46.6330 N   0  0  0  0  0  0  0  0  0  0  0  0
   58.1450   27.3500   46.6360 C   0  0  0  0  0  0  0  0  0  0  0  0
   59.1500   26.9140   47.2560 O   0  0  0  0  0  0  0  0  0  0  0  0
   58.1830   28.5620   45.9300 C   0  0  0  0  0  0  0  0  0  0  0  0
   59.2410   29.4880   45.7810 C   0  0  0  0  0  0  0  0  0  0  0  0
   60.5940   29.3970   46.4390 C   0  0  0  0  0  0  0  0  0  0  0  0
   61.0998   28.4887   46.0795 H   0  0  0  0  0  0  0  0  0  0  0  0
   61.1539   30.3062   46.1745 H   0  0  0  0  0  0  0  0  0  0  0  0
   60.5050   29.3360   47.9750 C   0  0  0  0  0  0  0  0  0  0  0  0
   59.7326   28.6011   48.2458 H   0  0  0  0  0  0  0  0  0  0  0  0
   61.5063   29.0591   48.3364 H   0  0  0  0  0  0  0  0  0  0  0  0
   60.1510   30.6760   48.6460 C   0  0  0  0  0  0  0  0  0  0  0  0
   59.0557   30.7717   48.6784 H   0  0  0  0  0  0  0  0  0  0  0  0
   60.5957   30.6643   49.6520 H   0  0  0  0  0  0  0  0  0  0  0  0
   60.7180   31.8790   47.9180 C   0  0  0  0  0  0  0  0  0  0  0  0
   59.8740   32.9120   47.4470 C   0  0  0  0  0  0  0  0  0  0  0  0
   58.4920   32.8030   47.7020 O   0  0  0  0  0  0  0  0  0  0  0  0
   57.4310   33.1210   46.8080 C   0  0  0  0  0  0  0  0  0  0  0  0
   56.5337   33.3899   47.3847 H   0  0  0  0  0  0  0  0  0  0  0  0
   57.7275   33.9697   46.1742 H   0  0  0  0  0  0  0  0  0  0  0  0
   57.2118   32.2491   46.1742 H   0  0  0  0  0  0  0  0  0  0  0  0
   60.4530   34.0060   46.7560 C   0  0  0  0  0  0  0  0  0  0  0  0
   59.6410   35.0360   46.2550 O   0  0  0  0  0  0  0  0  0  0  0  0
   59.2570   35.1850   44.8910 C   0  0  0  0  0  0  0  0  0  0  0  0
   58.2326   35.5825   44.8398 H   0  0  0  0  0  0  0  0  0  0  0  0
   59.9459   35.8811   44.3901 H   0  0  0  0  0  0  0  0  0  0  0  0
   59.2961   34.2065   44.3901 H   0  0  0  0  0  0  0  0  0  0  0  0
   61.8470   34.0430   46.5840 C   0  0  0  0  0  0  0  0  0  0  0  0
   62.3123   34.8789   46.0411 H   0  0  0  0  0  0  0  0  0  0  0  0
   62.6380   33.0230   47.1000 C   0  0  0  0  0  0  0  0  0  0  0  0
   63.7303   33.0620   46.9764 H   0  0  0  0  0  0  0  0  0  0  0  0
   62.0700   31.9800   47.7550 N   0  0  0  0  0  0  0  0  0  0  0  0
   62.7010   31.2430   48.1410 H   0  0  0  0  0  0  0  0  0  0  0  0
   58.8930   30.5580   44.9510 C   0  0  0  0  0  0  0  0  0  0  0  0
   59.5600   31.3887   44.6770 H   0  0  0  0  0  0  0  0  0  0  0  0
   57.2950   30.3840   44.4320 S   0  0  0  0  0  0  0  0  0  0  0  0
   57.0440   28.9430   45.2460 C   0  0  0  0  0  0  0  0  0  0  0  0
   55.9080   28.2060   45.2510 N   0  0  0  0  0  0  0  0  0  0  0  0
  1  2  1  0
  2  3  2  0
  3  4  1  0
  4  5  1  0
  5  6  2  0
  5  7  1  0
  7  8  1  0
  8  9  1  0
  9 10  1  0
  9 11  1  0
  9 12  1  0
 12 13  1  0
 12 14  1  0
 12 15  1  0
 15 16  1  0
 15 17  1  0
 15 18  1  0
 18 19  2  0
 19 20  1  0
 20 21  1  0
 21 22  1  0
 21 23  1  0
 21 24  1  0
 19 25  1  0
 25 26  1  0
 26 27  1  0
 27 28  1  0
 27 29  1  0
 27 30  1  0
 25 31  2  0
 31 32  1  0
 31 33  1  0
 33 34  1  0
 33 35  2  0
 35 36  1  0
  8 37  2  0
 37 38  1  0
 37 39  1  0
 39 40  1  0
 40 41  1  0
 41  3  1  0
 40  7  2  0
 35 18  1  0
M  CHG  3   4  -1  35   1  41  -1
M  END
>  <UniqueID>  (11) 
9

>  <SMILES>  (11) 
[H]/N=c1\[n-]c(=O)c2c(CCCc3[nH+]ccc(OC)c3OC)csc2[n-]1

>  <Energy>  (11) 
76.00567208404678

>  <Genealogy>  (11) 
COc1cc[nH+]c(CCCc2csc3[n-]c(=N)[n-]c(=O)c23)c1OC (protonated)
[H]/N=c1\[n-]c(=O)c2c(CCCc3[nH+]ccc(OC)c3OC)csc2[n-]1 (cis-trans isomerization)
[H]/N=c1\[n-]c(=O)c2c(CCCc3[nH+]ccc(OC)c3OC)csc2[n-]1 (3D coordinates assigned)
[H]/N=c1\[n-]c(=O)c2c(CCCc3[nH+]ccc(OC)c3OC)csc2[n-]1 (optimized conformer: 76.00567208404678 kcal/mol)

>  <smiles>  (11) 
COc1ccnc(CCCc2csc3[nH]c(=N)[nH]c(=O)c23)c1OC

>  <score_type>  (11) 
oracle

>  <origin>  (11) 
adg

>  <m_score__min__energy>  (11) 
-9.5399999999999991

>  <m_primary>  (11) 
energy

$$$$
11:0
     RDKit          3D

 55 58  0  0  0  0  0  0  0  0999 V2000
   56.3160   22.5880   43.1860 C   0  0  0  0  0  0  0  0  0  0  0  0
   57.4130   22.8230   44.1260 C   0  0  0  0  0  0  0  0  0  0  0  0
   58.4730   21.9780   44.2610 N   0  0  0  0  0  0  0  0  0  0  0  0
   59.2660   22.5080   45.1900 C   0  0  0  0  0  0  0  0  0  0  0  0
   60.3540   21.9750   45.5680 O   0  0  0  0  0  0  0  0  0  0  0  0
   58.7150   23.6720   45.6360 N   0  0  0  0  0  0  0  0  0  0  0  0
   57.5510   23.8870   44.9810 C   0  0  0  0  0  0  0  0  0  0  0  0
   56.6670   25.0510   45.2060 C   0  0  0  0  0  0  0  0  0  0  0  0
   57.4870   26.2650   45.4240 C   0  0  0  0  0  0  0  0  0  0  0  0
   57.5830   26.9570   46.5900 C   0  0  0  0  0  0  0  0  0  0  0  0
   58.3770   28.0740   46.6710 C   0  0  0  0  0  0  0  0  0  0  0  0
   59.0910   28.5140   45.5720 C   0  0  0  0  0  0  0  0  0  0  0  0
   59.9100   29.6780   45.6650 N   0  0  0  0  0  0  0  0  0  0  0  0
   60.5100   30.0630   46.9090 C   0  0  0  0  0  0  0  0  0  0  0  0
   60.1870   31.4590   47.3090 C   0  0  0  0  0  0  0  0  0  0  0  0
   60.6450   31.8650   48.5500 C   0  0  0  0  0  0  0  0  0  0  0  0
   60.3770   33.1460   48.9690 C   0  0  0  0  0  0  0  0  0  0  0  0
   59.6610   33.9950   48.1430 C   0  0  0  0  0  0  0  0  0  0  0  0
   59.1870   33.6410   46.9090 C   0  0  0  0  0  0  0  0  0  0  0  0
   58.4810   34.3980   46.0420 O   0  0  0  0  0  0  0  0  0  0  0  0
   57.4040   34.0850   45.2650 C   0  0  0  0  0  0  0  0  0  0  0  0
   57.4010   32.7980   44.5610 C   0  0  0  0  0  0  0  0  0  0  0  0
   58.1390   32.3170   43.5510 N   0  0  0  0  0  0  0  0  0  0  0  0
   57.7830   31.1030   43.2510 N   0  0  0  0  0  0  0  0  0  0  0  0
   56.7900   30.7480   44.0640 C   0  0  0  0  0  0  0  0  0  0  0  0
   56.1190   29.4210   44.0230 C   0  0  0  0  0  0  0  0  0  0  0  0
   55.1580   29.3250   45.0290 O   0  0  0  0  0  0  0  0  0  0  0  0
   56.5520   31.7900   44.8720 N   0  0  0  0  0  0  0  0  0  0  0  0
   59.4770   32.3250   46.5090 C   0  0  0  0  0  0  0  0  0  0  0  0
   59.0110   27.8340   44.3850 C   0  0  0  0  0  0  0  0  0  0  0  0
   58.2120   26.7170   44.3160 C   0  0  0  0  0  0  0  0  0  0  0  0
   55.3899   22.3896   43.7455 H   0  0  0  0  0  0  0  0  0  0  0  0
   56.1787   23.4771   42.5530 H   0  0  0  0  0  0  0  0  0  0  0  0
   56.5550   21.7207   42.5530 H   0  0  0  0  0  0  0  0  0  0  0  0
   58.6130   21.0840   43.7220 H   0  0  0  0  0  0  0  0  0  0  0  0
   59.1530   24.2710   46.3670 H   0  0  0  0  0  0  0  0  0  0  0  0
   56.0237   25.1973   44.3258 H   0  0  0  0  0  0  0  0  0  0  0  0
   56.0427   24.8686   46.0931 H   0  0  0  0  0  0  0  0  0  0  0  0
   57.0213   26.6201   47.4737 H   0  0  0  0  0  0  0  0  0  0  0  0
   58.4458   28.6249   47.6206 H   0  0  0  0  0  0  0  0  0  0  0  0
   60.0790   30.2630   44.8180 H   0  0  0  0  0  0  0  0  0  0  0  0
   60.1516   29.3824   47.6953 H   0  0  0  0  0  0  0  0  0  0  0  0
   61.6006   30.0050   46.7773 H   0  0  0  0  0  0  0  0  0  0  0  0
   61.2137   31.1744   49.1900 H   0  0  0  0  0  0  0  0  0  0  0  0
   60.7283   33.4935   49.9518 H   0  0  0  0  0  0  0  0  0  0  0  0
   59.4609   35.0160   48.5000 H   0  0  0  0  0  0  0  0  0  0  0  0
   56.5177   34.1013   45.9163 H   0  0  0  0  0  0  0  0  0  0  0  0
   57.4258   34.8335   44.4592 H   0  0  0  0  0  0  0  0  0  0  0  0
   58.2010   30.4920   42.4950 H   0  0  0  0  0  0  0  0  0  0  0  0
   55.6324   29.2921   43.0449 H   0  0  0  0  0  0  0  0  0  0  0  0
   56.8746   28.6369   44.1787 H   0  0  0  0  0  0  0  0  0  0  0  0
   55.1620   30.0930   45.6250 H   0  0  0  0  0  0  0  0  0  0  0  0
   59.1257   31.9767   45.5265 H   0  0  0  0  0  0  0  0  0  0  0  0
   59.5750   28.1751   43.5044 H   0  0  0  0  0  0  0  0  0  0  0  0
   58.1411   26.1655   43.3669 H   0  0  0  0  0  0  0  0  0  0  0  0
  1  2  1  0
  2  3  1  0
  3  4  1  0
  4  5  2  0
  4  6  1  0
  6  7  1  0
  7  8  1  0
  8  9  1  0
  9 10  2  0
 10 11  1  0
 11 12  2  0
 12 13  1  0
 13 14  1  0
 14 15  1  0
 15 16  2  0
 16 17  1  0
 17 18  2  0
 18 19  1  0
 19 20  1  0
 20 21  1  0
 21 22  1  0
 22 23  2  0
 23 24  1  0
 24 25  1  0
 25 26  1  0
 26 27  1  0
 25 28  2  0
 19 29  2  0
 12 30  1  0
 30 31  2  0
  7  2  2  0
 31  9  1  0
 29 15  1  0
 28 22  1  0
  1 32  1  0
  1 33  1  0
  1 34  1  0
  3 35  1  0
  6 36  1  0
  8 37  1  0
  8 38  1  0
 10 39  1  0
 11 40  1  0
 13 41  1  0
 14 42  1  0
 14 43  1  0
 16 44  1  0
 17 45  1  0
 18 46  1  0
 21 47  1  0
 21 48  1  0
 24 49  1  0
 26 50  1  0
 26 51  1  0
 27 52  1  0
 29 53  1  0
 30 54  1  0
 31 55  1  0
M  END
>  <smiles>  (12) 
Cc1[nH]c(=O)[nH]c1Cc1ccc(NCc2cccc(OCc3n[nH]c(CO)n3)c2)cc1

>  <score_type>  (12) 
oracle

>  <origin>  (12) 
adg

>  <m_score__min__energy>  (12) 
-10.029999999999999

>  <m_primary>  (12) 
energy

$$$$
12:0
     RDKit          3D

 37 38  0  0  0  0  0  0  0  0999 V2000
   54.6420   23.6930   44.8950 C   0  0  0  0  0  0  0  0  0  0  0  0
   55.5010   24.8140   45.9790 S   0  0  0  0  0  0  0  0  0  0  0  0
   55.5220   24.2470   47.3730 O   0  0  0  0  0  0  0  0  0  0  0  0
   54.7700   26.1260   45.9970 O   0  0  0  0  0  0  0  0  0  0  0  0
   57.1240   25.0830   45.4210 N   0  0  0  0  0  0  0  0  0  0  0  0
   57.9620   25.5560   46.5210 C   0  0  0  0  0  0  0  0  0  0  0  0
   57.6650   27.0270   46.8000 C   0  0  0  0  0  0  0  0  0  0  0  0
   56.9530   27.6280   45.6720 N   0  0  0  0  0  0  0  0  0  0  0  0
   56.9910   29.0380   45.4050 C   0  0  0  0  0  0  0  0  0  0  0  0
   58.0870   29.7920   45.8520 C   0  0  0  0  0  0  0  0  0  0  0  0
   58.1590   31.1760   45.6080 C   0  0  0  0  0  0  0  0  0  0  0  0
   59.3300   31.9640   46.0720 C   0  0  0  0  0  0  0  0  0  0  0  0
   60.4010   31.3330   46.7330 C   0  0  0  0  0  0  0  0  0  0  0  0
   61.5010   32.0770   47.1680 C   0  0  0  0  0  0  0  0  0  0  0  0
   61.5460   33.4550   46.9500 C   0  0  0  0  0  0  0  0  0  0  0  0
   60.4890   34.0930   46.2970 C   0  0  0  0  0  0  0  0  0  0  0  0
   59.3860   33.3550   45.8590 C   0  0  0  0  0  0  0  0  0  0  0  0
   57.1050   31.8010   44.9190 C   0  0  0  0  0  0  0  0  0  0  0  0
   55.9990   31.0610   44.4960 C   0  0  0  0  0  0  0  0  0  0  0  0
   55.9300   29.6870   44.7440 C   0  0  0  0  0  0  0  0  0  0  0  0
   54.7940   28.9860   44.3580 O   0  0  0  0  0  0  0  0  0  0  0  0
   54.0810   22.9609   45.4944 H   0  0  0  0  0  0  0  0  0  0  0  0
   53.9442   24.2590   44.2604 H   0  0  0  0  0  0  0  0  0  0  0  0
   55.3700   23.1664   44.2604 H   0  0  0  0  0  0  0  0  0  0  0  0
   57.7501   24.9630   47.4229 H   0  0  0  0  0  0  0  0  0  0  0  0
   59.0211   25.4447   46.2453 H   0  0  0  0  0  0  0  0  0  0  0  0
   57.0434   27.1058   47.7041 H   0  0  0  0  0  0  0  0  0  0  0  0
   58.6156   27.5607   46.9462 H   0  0  0  0  0  0  0  0  0  0  0  0
   56.1610   27.0790   45.2670 H   0  0  0  0  0  0  0  0  0  0  0  0
   58.9005   29.2945   46.4004 H   0  0  0  0  0  0  0  0  0  0  0  0
   60.3717   30.2474   46.9082 H   0  0  0  0  0  0  0  0  0  0  0  0
   62.3334   31.5755   47.6834 H   0  0  0  0  0  0  0  0  0  0  0  0
   62.4136   34.0382   47.2924 H   0  0  0  0  0  0  0  0  0  0  0  0
   60.5248   35.1792   46.1270 H   0  0  0  0  0  0  0  0  0  0  0  0
   58.5569   33.8634   45.3450 H   0  0  0  0  0  0  0  0  0  0  0  0
   57.1519   32.8803   44.7117 H   0  0  0  0  0  0  0  0  0  0  0  0
   55.1769   31.5624   43.9643 H   0  0  0  0  0  0  0  0  0  0  0  0
  1  2  1  0
  2  3  2  0
  2  4  2  0
  2  5  1  0
  5  6  1  0
  6  7  1  0
  7  8  1  0
  8  9  1  0
  9 10  2  0
 10 11  1  0
 11 12  1  0
 12 13  2  0
 13 14  1  0
 14 15  2  0
 15 16  1  0
 16 17  2  0
 11 18  2  0
 18 19  1  0
 19 20  2  0
 20 21  1  0
 20  9  1  0
 17 12  1  0
  1 22  1  0
  1 23  1  0
  1 24  1  0
  6 25  1  0
  6 26  1  0
  7 27  1  0
  7 28  1  0
  8 29  1  0
 10 30  1  0
 13 31  1  0
 14 32  1  0
 15 33  1  0
 16 34  1  0
 17 35  1  0
 18 36  1  0
 19 37  1  0
M  CHG  2   5  -1  21  -1
M  END
>  <UniqueID>  (13) 
10

>  <SMILES>  (13) 
CS(=O)(=O)[N-]CCNc1cc(-c2ccccc2)ccc1[O-]

>  <Energy>  (13) 
37.92505082121406

>  <Genealogy>  (13) 
CS(=O)(=O)[N-]CCNc1cc(-c2ccccc2)ccc1[O-] (protonated)
CS(=O)(=O)[N-]CCNc1cc(-c2ccccc2)ccc1[O-] (3D coordinates assigned)
CS(=O)(=O)[N-]CCNc1cc(-c2ccccc2)ccc1[O-] (optimized conformer: 37.92505082121406 kcal/mol)

>  <smiles>  (13) 
CS(=O)(=O)NCCNc1cc(-c2ccccc2)ccc1O

>  <score_type>  (13) 
oracle

>  <origin>  (13) 
adg

>  <m_score__min__energy>  (13) 
-12.029999999999999

>  <m_primary>  (13) 
energy

$$$$
13:0
     RDKit          3D

 68 71  0  0  0  0  0  0  0  0999 V2000
   61.9663   29.5647   51.3899 H   0  0  0  0  0  0  0  0  0  0  0  0
   61.4640   30.0670   50.5500 C   0  0  0  0  0  0  0  0  0  0  0  0
   62.2160   31.1010   49.8030 C   0  0  0  0  0  0  0  0  0  0  0  0
   63.4040   30.8570   49.4580 O   0  0  0  0  0  0  0  0  0  0  0  0
   61.6120   32.3490   49.4090 N   0  0  0  0  0  0  0  0  0  0  0  0
   62.0080   32.9270   48.1150 C   0  0  0  0  0  0  0  0  0  0  0  0
   63.0967   33.0840   48.1188 H   0  0  0  0  0  0  0  0  0  0  0  0
   61.6998   32.2215   47.3293 H   0  0  0  0  0  0  0  0  0  0  0  0
   61.3190   34.2710   47.8260 C   0  0  0  0  0  0  0  0  0  0  0  0
   61.8302   35.0509   48.4094 H   0  0  0  0  0  0  0  0  0  0  0  0
   61.3882   34.4293   46.7396 H   0  0  0  0  0  0  0  0  0  0  0  0
   59.8080   34.3130   48.1810 C   0  0  0  0  0  0  0  0  0  0  0  0
   59.6173   35.3258   48.5655 H   0  0  0  0  0  0  0  0  0  0  0  0
   58.9740   34.1080   46.9780 N   0  0  0  0  0  0  0  0  0  0  0  0
   59.1720   34.9300   45.8100 C   0  0  0  0  0  0  0  0  0  0  0  0
   59.6910   36.0730   45.9030 O   0  0  0  0  0  0  0  0  0  0  0  0
   58.8120   34.4280   44.5260 N   0  0  0  0  0  0  0  0  0  0  0  0
   58.2880   33.1070   44.3910 C   0  0  0  0  0  0  0  0  0  0  0  0
   58.1360   32.5430   43.1200 C   0  0  0  0  0  0  0  0  0  0  0  0
   58.4005   33.1259   42.2254 H   0  0  0  0  0  0  0  0  0  0  0  0
   57.6490   31.2410   42.9850 C   0  0  0  0  0  0  0  0  0  0  0  0
   57.5331   30.7987   41.9845 H   0  0  0  0  0  0  0  0  0  0  0  0
   57.3090   30.5000   44.1190 C   0  0  0  0  0  0  0  0  0  0  0  0
   56.9280   29.4739   44.0102 H   0  0  0  0  0  0  0  0  0  0  0  0
   57.4520   31.0600   45.3930 C   0  0  0  0  0  0  0  0  0  0  0  0
   57.1718   30.4775   46.2831 H   0  0  0  0  0  0  0  0  0  0  0  0
   57.9520   32.3630   45.5380 C   0  0  0  0  0  0  0  0  0  0  0  0
   57.9900   33.0100   46.9020 C   0  0  0  0  0  0  0  0  0  0  0  0
   58.2550   32.2461   47.6478 H   0  0  0  0  0  0  0  0  0  0  0  0
   56.9955   33.4373   47.0978 H   0  0  0  0  0  0  0  0  0  0  0  0
   59.4000   33.3690   49.3420 C   0  0  0  0  0  0  0  0  0  0  0  0
   58.6330   33.8655   49.9545 H   0  0  0  0  0  0  0  0  0  0  0  0
   59.0096   32.4361   48.9093 H   0  0  0  0  0  0  0  0  0  0  0  0
   60.5950   33.0260   50.2250 C   0  0  0  0  0  0  0  0  0  0  0  0
   61.0169   33.9488   50.6498 H   0  0  0  0  0  0  0  0  0  0  0  0
   60.2750   32.3656   51.0445 H   0  0  0  0  0  0  0  0  0  0  0  0
   60.2020   29.7080   50.2590 C   0  0  0  0  0  0  0  0  0  0  0  0
   59.4273   29.9200   51.0106 H   0  0  0  0  0  0  0  0  0  0  0  0
   59.7750   29.0490   49.0040 C   0  0  0  0  0  0  0  0  0  0  0  0
   60.5730   28.0760   48.3770 C   0  0  0  0  0  0  0  0  0  0  0  0
   61.5436   27.7997   48.8147 H   0  0  0  0  0  0  0  0  0  0  0  0
   60.1400   27.4580   47.2010 C   0  0  0  0  0  0  0  0  0  0  0  0
   60.7562   26.6751   46.7348 H   0  0  0  0  0  0  0  0  0  0  0  0
   58.9220   27.8320   46.6120 C   0  0  0  0  0  0  0  0  0  0  0  0
   58.4130   27.1160   45.3950 C   0  0  0  0  0  0  0  0  0  0  0  0
   58.8586   26.1115   45.3451 H   0  0  0  0  0  0  0  0  0  0  0  0
   58.6882   27.6792   44.4911 H   0  0  0  0  0  0  0  0  0  0  0  0
   56.9630   27.0030   45.4810 N   0  0  0  0  0  0  0  0  0  0  0  0
   56.2960   26.0500   46.3080 C   0  0  0  0  0  0  0  0  0  0  0  0
   56.8700   25.5890   47.3330 O   0  0  0  0  0  0  0  0  0  0  0  0
   55.0010   25.6440   45.9560 O   0  0  0  0  0  0  0  0  0  0  0  0
   54.5920   24.3160   45.5960 C   0  0  0  0  0  0  0  0  0  0  0  0
   55.3610   23.8180   44.3590 C   0  0  0  0  0  0  0  0  0  0  0  0
   56.2437   23.2464   44.6816 H   0  0  0  0  0  0  0  0  0  0  0  0
   54.7062   23.1720   43.7557 H   0  0  0  0  0  0  0  0  0  0  0  0
   55.6826   24.6798   43.7557 H   0  0  0  0  0  0  0  0  0  0  0  0
   54.7910   23.3540   46.7820 C   0  0  0  0  0  0  0  0  0  0  0  0
   54.6766   23.9071   47.7259 H   0  0  0  0  0  0  0  0  0  0  0  0
   54.0398   22.5519   46.7336 H   0  0  0  0  0  0  0  0  0  0  0  0
   55.7988   22.9158   46.7336 H   0  0  0  0  0  0  0  0  0  0  0  0
   53.0960   24.3800   45.2540 C   0  0  0  0  0  0  0  0  0  0  0  0
   52.5082   24.4051   46.1834 H   0  0  0  0  0  0  0  0  0  0  0  0
   52.8926   25.2877   44.6668 H   0  0  0  0  0  0  0  0  0  0  0  0
   52.8158   23.4930   44.6668 H   0  0  0  0  0  0  0  0  0  0  0  0
   58.1480   28.8360   47.2120 C   0  0  0  0  0  0  0  0  0  0  0  0
   57.1982   29.1438   46.7503 H   0  0  0  0  0  0  0  0  0  0  0  0
   58.5770   29.4480   48.3940 C   0  0  0  0  0  0  0  0  0  0  0  0
   57.9715   30.2465   48.8476 H   0  0  0  0  0  0  0  0  0  0  0  0
  1  2  1  0
  2  3  1  0
  3  4  2  0
  3  5  1  0
  5  6  1  0
  6  7  1  0
  6  8  1  0
  6  9  1  0
  9 10  1  0
  9 11  1  0
  9 12  1  0
 12 13  1  0
 12 14  1  0
 14 15  1  0
 15 16  2  0
 15 17  1  0
 17 18  1  0
 18 19  2  0
 19 20  1  0
 19 21  1  0
 21 22  1  0
 21 23  2  0
 23 24  1  0
 23 25  1  0
 25 26  1  0
 25 27  2  0
 27 28  1  0
 28 29  1  0
 28 30  1  0
 12 31  1  0
 31 32  1  0
 31 33  1  0
 31 34  1  0
 34 35  1  0
 34 36  1  0
  2 37  2  0
 37 38  1  0
 37 39  1  0
 39 40  2  0
 40 41  1  0
 40 42  1  0
 42 43  1  0
 42 44  2  0
 44 45  1  0
 45 46  1  0
 45 47  1  0
 45 48  1  0
 48 49  1  0
 49 50  2  0
 49 51  1  0
 51 52  1  0
 52 53  1  0
 53 54  1  0
 53 55  1  0
 53 56  1  0
 52 57  1  0
 57 58  1  0
 57 59  1  0
 57 60  1  0
 52 61  1  0
 61 62  1  0
 61 63  1  0
 61 64  1  0
 44 65  1  0
 65 66  1  0
 65 67  2  0
 67 68  1  0
 34  5  1  0
 67 39  1  0
 28 14  1  0
 27 18  1  0
M  CHG  2  17  -1  48  -1
M  END
>  <UniqueID>  (14) 
11

>  <SMILES>  (14) 
CC(C)(C)OC(=O)[N-]Cc1ccc(/C=C\C(=O)N2CCC(N3Cc4ccccc4[N-]C3=O)CC2)cc1

>  <Energy>  (14) 
82.43131267991578

>  <Genealogy>  (14) 
CC(C)(C)OC(=O)[N-]Cc1ccc(C=CC(=O)N2CCC(N3Cc4ccccc4[N-]C3=O)CC2)cc1 (protonated)
CC(C)(C)OC(=O)[N-]Cc1ccc(/C=C\C(=O)N2CCC(N3Cc4ccccc4[N-]C3=O)CC2)cc1 (cis-trans isomerization)
CC(C)(C)OC(=O)[N-]Cc1ccc(/C=C\C(=O)N2CCC(N3Cc4ccccc4[N-]C3=O)CC2)cc1 (3D coordinates assigned)
CC(C)(C)OC(=O)[N-]Cc1ccc(/C=C\C(=O)N2CCC(N3Cc4ccccc4[N-]C3=O)CC2)cc1 (nonaromatic ring conformer: 82.43131267991578 kcal/mol)

>  <smiles>  (14) 
CC(C)(C)OC(=O)NCc1ccc(C=CC(=O)N2CCC(N3Cc4ccccc4NC3=O)CC2)cc1

>  <score_type>  (14) 
oracle

>  <origin>  (14) 
adg

>  <m_score__min__energy>  (14) 
-12.73

>  <m_primary>  (14) 
energy

$$$$
14:0
     RDKit          3D

 33 35  0  0  0  0  0  0  0  0999 V2000
   54.3930   26.6890   46.7830 H   0  0  0  0  0  0  0  0  0  0  0  0
   54.7550   26.3410   45.9050 O   0  0  0  0  0  0  0  0  0  0  0  0
   55.9380   25.6050   45.8090 C   0  0  0  0  0  0  0  0  0  0  0  0
   55.8460   24.2120   45.7090 C   0  0  0  0  0  0  0  0  0  0  0  0
   54.8571   23.7316   45.6742 H   0  0  0  0  0  0  0  0  0  0  0  0
   57.0000   23.4270   45.6530 C   0  0  0  0  0  0  0  0  0  0  0  0
   56.9181   22.3328   45.5751 H   0  0  0  0  0  0  0  0  0  0  0  0
   58.2570   24.0320   45.6960 C   0  0  0  0  0  0  0  0  0  0  0  0
   59.1657   23.4132   45.6597 H   0  0  0  0  0  0  0  0  0  0  0  0
   58.3630   25.4210   45.7850 C   0  0  0  0  0  0  0  0  0  0  0  0
   59.3567   25.8919   45.8146 H   0  0  0  0  0  0  0  0  0  0  0  0
   57.2100   26.2220   45.8370 C   0  0  0  0  0  0  0  0  0  0  0  0
   57.3590   27.6890   45.8820 C   0  0  0  0  0  0  0  0  0  0  0  0
   56.5650   28.7680   44.8580 S   0  0  0  0  0  0  0  0  0  0  0  0
   57.3520   30.1030   45.5010 C   0  0  0  0  0  0  0  0  0  0  0  0
   57.1170   31.3240   45.1200 N   0  0  0  0  0  0  0  0  0  0  0  0
   57.8760   32.4930   45.4730 C   0  0  0  0  0  0  0  0  0  0  0  0
   58.3520   33.3990   44.5050 C   0  0  0  0  0  0  0  0  0  0  0  0
   58.1681   33.2080   43.4374 H   0  0  0  0  0  0  0  0  0  0  0  0
   59.0580   34.5410   44.8980 C   0  0  0  0  0  0  0  0  0  0  0  0
   59.4383   35.2396   44.1382 H   0  0  0  0  0  0  0  0  0  0  0  0
   59.2810   34.7960   46.2530 C   0  0  0  0  0  0  0  0  0  0  0  0
   59.8462   35.6886   46.5592 H   0  0  0  0  0  0  0  0  0  0  0  0
   58.7860   33.9170   47.2190 C   0  0  0  0  0  0  0  0  0  0  0  0
   58.9538   34.1232   48.2864 H   0  0  0  0  0  0  0  0  0  0  0  0
   58.0780   32.7760   46.8320 C   0  0  0  0  0  0  0  0  0  0  0  0
   57.6767   32.0957   47.5976 H   0  0  0  0  0  0  0  0  0  0  0  0
   58.2090   29.7640   46.4900 N   0  0  0  0  0  0  0  0  0  0  0  0
   58.2220   28.4200   46.7060 C   0  0  0  0  0  0  0  0  0  0  0  0
   59.1180   27.8080   47.7360 C   0  0  0  0  0  0  0  0  0  0  0  0
   58.7480   28.0607   48.7406 H   0  0  0  0  0  0  0  0  0  0  0  0
   59.1258   26.7150   47.6124 H   0  0  0  0  0  0  0  0  0  0  0  0
   60.1390   28.1983   47.6124 H   0  0  0  0  0  0  0  0  0  0  0  0
  1  2  1  0
  2  3  1  0
  3  4  2  0
  4  5  1  0
  4  6  1  0
  6  7  1  0
  6  8  2  0
  8  9  1  0
  8 10  1  0
 10 11  1  0
 10 12  2  0
 12 13  1  0
 13 14  1  0
 14 15  1  0
 15 16  2  0
 16 17  1  0
 17 18  2  0
 18 19  1  0
 18 20  1  0
 20 21  1  0
 20 22  2  0
 22 23  1  0
 22 24  1  0
 24 25  1  0
 24 26  2  0
 26 27  1  0
 15 28  1  0
 28 29  1  0
 29 30  1  0
 30 31  1  0
 30 32  1  0
 30 33  1  0
 12  3  1  0
 29 13  2  0
 26 17  1  0
M  CHG  1  28  -1
M  END
>  <UniqueID>  (15) 
12

>  <SMILES>  (15) 
Cc1[n-]/c(=N\c2ccccc2)sc1-c1ccccc1O

>  <Energy>  (15) 
77.52361372348523

>  <Genealogy>  (15) 
Cc1[n-]c(=Nc2ccccc2)sc1-c1ccccc1O (protonated)
Cc1[n-]/c(=N\c2ccccc2)sc1-c1ccccc1O (cis-trans isomerization)
Cc1[n-]/c(=N\c2ccccc2)sc1-c1ccccc1O (3D coordinates assigned)
Cc1[n-]/c(=N\c2ccccc2)sc1-c1ccccc1O (optimized conformer: 77.52361372348523 kcal/mol)

>  <smiles>  (15) 
Cc1[nH]c(=Nc2ccccc2)sc1-c1ccccc1O

>  <score_type>  (15) 
oracle

>  <origin>  (15) 
adg

>  <m_score__min__energy>  (15) 
-10.35

>  <m_primary>  (15) 
energy

$$$$
15:0
     RDKit          3D

 64 67  0  0  0  0  0  0  0  0999 V2000
   57.8710   32.3350   41.6850 C   0  0  0  0  0  0  0  0  0  0  0  0
   57.0100   31.2330   42.2910 C   0  0  0  0  0  0  0  0  0  0  0  0
   57.4820   30.8870   43.6790 C   0  0  0  0  0  0  0  0  0  0  0  0
   57.6090   29.5440   44.0680 C   0  0  0  0  0  0  0  0  0  0  0  0
   58.0760   29.2130   45.3510 C   0  0  0  0  0  0  0  0  0  0  0  0
   58.2060   27.7980   45.7750 C   0  0  0  0  0  0  0  0  0  0  0  0
   59.1320   27.4740   46.5710 O   0  0  0  0  0  0  0  0  0  0  0  0
   57.2810   26.7980   45.3150 N   0  0  0  0  0  0  0  0  0  0  0  0
   57.3810   25.3970   45.7190 C   0  0  0  0  0  0  0  0  0  0  0  0
   56.0760   24.6880   45.4640 C   0  0  0  0  0  0  0  0  0  0  0  0
   56.0720   23.3310   45.0980 C   0  0  0  0  0  0  0  0  0  0  0  0
   54.8630   22.6590   44.8890 C   0  0  0  0  0  0  0  0  0  0  0  0
   53.6510   23.3340   45.0470 C   0  0  0  0  0  0  0  0  0  0  0  0
   53.6450   24.6820   45.4150 C   0  0  0  0  0  0  0  0  0  0  0  0
   54.8500   25.3610   45.6270 C   0  0  0  0  0  0  0  0  0  0  0  0
   54.8210   26.7000   45.9970 O   0  0  0  0  0  0  0  0  0  0  0  0
   58.4380   30.2440   46.2350 C   0  0  0  0  0  0  0  0  0  0  0  0
   58.3010   31.5890   45.8620 C   0  0  0  0  0  0  0  0  0  0  0  0
   58.6520   32.6720   46.8060 C   0  0  0  0  0  0  0  0  0  0  0  0
   57.7540   33.1360   47.5620 O   0  0  0  0  0  0  0  0  0  0  0  0
   59.9990   33.1760   46.9070 N   0  0  0  0  0  0  0  0  0  0  0  0
   61.1450   32.2690   46.7410 C   0  0  0  0  0  0  0  0  0  0  0  0
   62.3870   32.7840   47.4880 C   0  0  0  0  0  0  0  0  0  0  0  0
   61.9950   33.3650   48.8680 C   0  0  0  0  0  0  0  0  0  0  0  0
   63.1950   33.7980   49.6340 N   0  0  0  0  0  0  0  0  0  0  0  0
   64.4190   33.0830   49.2480 C   0  0  0  0  0  0  0  0  0  0  0  0
   65.3570   33.1310   50.4420 C   0  0  0  0  0  0  0  0  0  0  0  0
   64.4700   33.4250   51.6380 C   0  0  0  0  0  0  0  0  0  0  0  0
   63.0620   33.5360   51.0750 C   0  0  0  0  0  0  0  0  0  0  0  0
   61.0100   34.5600   48.6870 C   0  0  0  0  0  0  0  0  0  0  0  0
   60.2450   34.5510   47.3530 C   0  0  0  0  0  0  0  0  0  0  0  0
   57.8430   31.9040   44.5740 C   0  0  0  0  0  0  0  0  0  0  0  0
   58.3320   32.9250   42.4908 H   0  0  0  0  0  0  0  0  0  0  0  0
   58.6589   31.8847   41.0634 H   0  0  0  0  0  0  0  0  0  0  0  0
   57.2435   32.9906   41.0634 H   0  0  0  0  0  0  0  0  0  0  0  0
   55.9663   31.5769   42.3404 H   0  0  0  0  0  0  0  0  0  0  0  0
   57.0885   30.3365   41.6584 H   0  0  0  0  0  0  0  0  0  0  0  0
   57.3406   28.7441   43.3622 H   0  0  0  0  0  0  0  0  0  0  0  0
   56.4530   27.0780   44.7430 H   0  0  0  0  0  0  0  0  0  0  0  0
   58.1792   24.9082   45.1411 H   0  0  0  0  0  0  0  0  0  0  0  0
   57.6121   25.3486   46.7934 H   0  0  0  0  0  0  0  0  0  0  0  0
   57.0245   22.7946   44.9753 H   0  0  0  0  0  0  0  0  0  0  0  0
   54.8672   21.5977   44.5999 H   0  0  0  0  0  0  0  0  0  0  0  0
   52.7010   22.8047   44.8818 H   0  0  0  0  0  0  0  0  0  0  0  0
   52.6889   25.2117   45.5386 H   0  0  0  0  0  0  0  0  0  0  0  0
   58.8332   29.9932   47.2305 H   0  0  0  0  0  0  0  0  0  0  0  0
   60.8762   31.2781   47.1358 H   0  0  0  0  0  0  0  0  0  0  0  0
   61.3867   32.2123   45.6694 H   0  0  0  0  0  0  0  0  0  0  0  0
   63.0914   31.9518   47.6337 H   0  0  0  0  0  0  0  0  0  0  0  0
   62.8543   33.5799   46.8895 H   0  0  0  0  0  0  0  0  0  0  0  0
   61.4964   32.5703   49.4423 H   0  0  0  0  0  0  0  0  0  0  0  0
   64.1827   32.0389   48.9951 H   0  0  0  0  0  0  0  0  0  0  0  0
   64.8831   33.5475   48.3655 H   0  0  0  0  0  0  0  0  0  0  0  0
   65.8678   32.1652   50.5695 H   0  0  0  0  0  0  0  0  0  0  0  0
   66.1411   33.8922   50.3166 H   0  0  0  0  0  0  0  0  0  0  0  0
   64.5284   32.6073   52.3714 H   0  0  0  0  0  0  0  0  0  0  0  0
   64.7766   34.3432   52.1603 H   0  0  0  0  0  0  0  0  0  0  0  0
   62.5142   32.5963   51.2392 H   0  0  0  0  0  0  0  0  0  0  0  0
   62.5032   34.3433   51.5710 H   0  0  0  0  0  0  0  0  0  0  0  0
   60.2759   34.5288   49.5056 H   0  0  0  0  0  0  0  0  0  0  0  0
   61.6196   35.4756   48.6952 H   0  0  0  0  0  0  0  0  0  0  0  0
   59.2819   35.0656   47.4854 H   0  0  0  0  0  0  0  0  0  0  0  0
   60.8514   35.0664   46.5936 H   0  0  0  0  0  0  0  0  0  0  0  0
   57.7665   32.9566   44.2640 H   0  0  0  0  0  0  0  0  0  0  0  0
  1  2  1  0
  2  3  1  0
  3  4  2  0
  4  5  1  0
  5  6  1  0
  6  7  2  0
  6  8  1  0
  8  9  1  0
  9 10  1  0
 10 11  2  0
 11 12  1  0
 12 13  2  0
 13 14  1  0
 14 15  2  0
 15 16  1  0
  5 17  2  0
 17 18  1  0
 18 19  1  0
 19 20  2  0
 19 21  1  0
 21 22  1  0
 22 23  1  0
 23 24  1  0
 24 25  1  0
 25 26  1  0
 26 27  1  0
 27 28  1  0
 28 29  1  0
 24 30  1  0
 30 31  1  0
 18 32  2  0
 32  3  1  0
 15 10  1  0
 31 21  1  0
 29 25  1  0
  1 33  1  0
  1 34  1  0
  1 35  1  0
  2 36  1  0
  2 37  1  0
  4 38  1  0
  8 39  1  0
  9 40  1  0
  9 41  1  0
 11 42  1  0
 12 43  1  0
 13 44  1  0
 14 45  1  0
 17 46  1  0
 22 47  1  0
 22 48  1  0
 23 49  1  0
 23 50  1  0
 24 51  1  0
 26 52  1  0
 26 53  1  0
 27 54  1  0
 27 55  1  0
 28 56  1  0
 28 57  1  0
 29 58  1  0
 29 59  1  0
 30 60  1  0
 30 61  1  0
 31 62  1  0
 31 63  1  0
 32 64  1  0
M  CHG  1  16  -1
M  END
>  <UniqueID>  (16) 
13

>  <SMILES>  (16) 
CCc1cc(C(=O)NCc2ccccc2[O-])cc(C(=O)N2CCC(N3CCCC3)CC2)c1

>  <Energy>  (16) 
75.76900200133095

>  <Genealogy>  (16) 
CCc1cc(C(=O)NCc2ccccc2[O-])cc(C(=O)N2CCC(N3CCCC3)CC2)c1 (protonated)
CCc1cc(C(=O)NCc2ccccc2[O-])cc(C(=O)N2CCC(N3CCCC3)CC2)c1 (3D coordinates assigned)
CCc1cc(C(=O)NCc2ccccc2[O-])cc(C(=O)N2CCC(N3CCCC3)CC2)c1 (nonaromatic ring conformer: 75.76900200133095 kcal/mol)

>  <smiles>  (16) 
CCc1cc(C(=O)NCc2ccccc2O)cc(C(=O)N2CCC(N3CCCC3)CC2)c1

>  <score_type>  (16) 
oracle

>  <origin>  (16) 
adg

>  <m_score__min__energy>  (16) 
-13.699999999999999

>  <m_primary>  (16) 
energy

$$$$
16:0
     RDKit          3D

 38 39  0  0  0  0  0  0  0  0999 V2000
   56.5028   30.9076   41.5113 H   0  0  0  0  0  0  0  0  0  0  0  0
   56.6910   30.8140   42.5910 C   0  0  0  0  0  0  0  0  0  0  0  0
   56.1840   29.7580   43.2800 N   0  0  0  0  0  0  0  0  0  0  0  0
   56.4010   29.6240   44.6140 C   0  0  0  0  0  0  0  0  0  0  0  0
   55.9000   28.6020   45.2430 N   0  0  0  0  0  0  0  0  0  0  0  0
   56.6620   27.4340   45.6810 C   0  0  0  0  0  0  0  0  0  0  0  0
   56.0731   26.5256   45.4860 H   0  0  0  0  0  0  0  0  0  0  0  0
   56.8702   27.5323   46.7566 H   0  0  0  0  0  0  0  0  0  0  0  0
   57.9890   27.3400   44.9330 C   0  0  0  0  0  0  0  0  0  0  0  0
   58.8148   27.2815   45.6573 H   0  0  0  0  0  0  0  0  0  0  0  0
   57.9908   26.4395   44.3013 H   0  0  0  0  0  0  0  0  0  0  0  0
   58.1178   28.2313   44.3013 H   0  0  0  0  0  0  0  0  0  0  0  0
   57.1380   30.5600   45.2750 N   0  0  0  0  0  0  0  0  0  0  0  0
   57.6770   31.6260   44.6260 C   0  0  0  0  0  0  0  0  0  0  0  0
   58.4710   32.6150   45.3890 C   0  0  0  0  0  0  0  0  0  0  0  0
   58.2910   33.9810   45.1170 C   0  0  0  0  0  0  0  0  0  0  0  0
   57.5473   34.2949   44.3697 H   0  0  0  0  0  0  0  0  0  0  0  0
   59.0480   34.9440   45.7870 C   0  0  0  0  0  0  0  0  0  0  0  0
   58.9048   36.0108   45.5601 H   0  0  0  0  0  0  0  0  0  0  0  0
   59.9860   34.5550   46.7440 C   0  0  0  0  0  0  0  0  0  0  0  0
   60.5891   35.3148   47.2627 H   0  0  0  0  0  0  0  0  0  0  0  0
   60.1600   33.2030   47.0440 C   0  0  0  0  0  0  0  0  0  0  0  0
   60.8965   32.9029   47.8040 H   0  0  0  0  0  0  0  0  0  0  0  0
   59.4020   32.2230   46.3830 C   0  0  0  0  0  0  0  0  0  0  0  0
   59.5380   30.8470   46.7710 N   0  0  0  0  0  0  0  0  0  0  0  0
   60.1890   29.8960   45.8750 C   0  0  0  0  0  0  0  0  0  0  0  0
   60.7121   29.1319   46.4687 H   0  0  0  0  0  0  0  0  0  0  0  0
   59.4316   29.4124   45.2406 H   0  0  0  0  0  0  0  0  0  0  0  0
   60.9139   30.4271   45.2406 H   0  0  0  0  0  0  0  0  0  0  0  0
   59.2870   30.3940   48.4310 S   0  0  0  0  0  0  0  0  0  0  0  0
   58.5100   29.1090   48.4890 O   0  0  0  0  0  0  0  0  0  0  0  0
   58.5140   31.4670   49.1470 O   0  0  0  0  0  0  0  0  0  0  0  0
   60.8570   30.1870   49.2410 C   0  0  0  0  0  0  0  0  0  0  0  0
   60.7124   30.2061   50.3313 H   0  0  0  0  0  0  0  0  0  0  0  0
   61.2974   29.2230   48.9463 H   0  0  0  0  0  0  0  0  0  0  0  0
   61.5322   31.0039   48.9463 H   0  0  0  0  0  0  0  0  0  0  0  0
   57.4490   31.7780   43.2520 C   0  0  0  0  0  0  0  0  0  0  0  0
   57.8599   32.6404   42.7066 H   0  0  0  0  0  0  0  0  0  0  0  0
  1  2  1  0
  2  3  1  0
  3  4  1  0
  4  5  2  0
  5  6  1  0
  6  7  1  0
  6  8  1  0
  6  9  1  0
  9 10  1  0
  9 11  1  0
  9 12  1  0
  4 13  1  0
 13 14  2  0
 14 15  1  0
 15 16  2  0
 16 17  1  0
 16 18  1  0
 18 19  1  0
 18 20  2  0
 20 21  1  0
 20 22  1  0
 22 23  1  0
 22 24  2  0
 24 25  1  0
 25 26  1  0
 26 27  1  0
 26 28  1  0
 26 29  1  0
 25 30  1  0
 30 31  2  0
 30 32  2  0
 30 33  1  0
 33 34  1  0
 33 35  1  0
 33 36  1  0
 14 37  1  0
 37 38  1  0
 37  2  2  0
 24 15  1  0
M  CHG  1   3  -1
M  END
>  <UniqueID>  (17) 
14

>  <SMILES>  (17) 
CC/N=c1\nc(-c2ccccc2N(C)S(C)(=O)=O)cc[n-]1

>  <Energy>  (17) 
41.67619275484077

>  <Genealogy>  (17) 
CCN=c1nc(-c2ccccc2N(C)S(C)(=O)=O)cc[n-]1 (protonated)
CC/N=c1\nc(-c2ccccc2N(C)S(C)(=O)=O)cc[n-]1 (cis-trans isomerization)
CC/N=c1\nc(-c2ccccc2N(C)S(C)(=O)=O)cc[n-]1 (3D coordinates assigned)
CC/N=c1\nc(-c2ccccc2N(C)S(C)(=O)=O)cc[n-]1 (optimized conformer: 41.67619275484077 kcal/mol)

>  <smiles>  (17) 
CCN=c1nc(-c2ccccc2N(C)S(C)(=O)=O)cc[nH]1

>  <score_type>  (17) 
oracle

>  <origin>  (17) 
adg

>  <m_score__min__energy>  (17) 
-9.5500000000000007

>  <m_primary>  (17) 
energy

$$$$
17:0
     RDKit          3D

 38 40  0  0  0  0  0  0  0  0999 V2000
   55.0780   21.9630   47.3950 C   0  0  0  0  0  0  0  0  0  0  0  0
   55.8520   22.6910   46.3320 C   0  0  0  0  0  0  0  0  0  0  0  0
   56.5820   23.8440   46.6550 C   0  0  0  0  0  0  0  0  0  0  0  0
   57.3060   24.5280   45.6700 C   0  0  0  0  0  0  0  0  0  0  0  0
   58.0970   25.7200   46.0260 C   0  0  0  0  0  0  0  0  0  0  0  0
   59.4060   25.5980   46.4880 C   0  0  0  0  0  0  0  0  0  0  0  0
   60.0120   27.1310   46.8040 S   0  0  0  0  0  0  0  0  0  0  0  0
   58.6280   27.9650   46.3560 C   0  0  0  0  0  0  0  0  0  0  0  0
   58.5330   29.3950   46.3710 N   0  0  0  0  0  0  0  0  0  0  0  0
   58.7250   30.1890   45.1890 C   0  0  0  0  0  0  0  0  0  0  0  0
   59.1030   29.6440   44.1170 O   0  0  0  0  0  0  0  0  0  0  0  0
   58.5030   31.6440   45.2080 C   0  0  0  0  0  0  0  0  0  0  0  0
   57.4540   32.3290   44.6180 C   0  0  0  0  0  0  0  0  0  0  0  0
   57.6760   33.6610   44.8960 C   0  0  0  0  0  0  0  0  0  0  0  0
   58.8390   33.7040   45.6340 C   0  0  0  0  0  0  0  0  0  0  0  0
   59.6640   35.2810   46.3160 Br  0  0  0  0  0  0  0  0  0  0  0  0
   59.3100   32.4910   45.8040 O   0  0  0  0  0  0  0  0  0  0  0  0
   57.6310   27.0590   45.9730 C   0  0  0  0  0  0  0  0  0  0  0  0
   56.2240   27.4510   45.7090 C   0  0  0  0  0  0  0  0  0  0  0  0
   55.9480   28.5620   45.1880 O   0  0  0  0  0  0  0  0  0  0  0  0
   55.1860   26.5730   45.9960 O   0  0  0  0  0  0  0  0  0  0  0  0
   57.3230   24.0370   44.3570 C   0  0  0  0  0  0  0  0  0  0  0  0
   56.5930   22.8890   44.0160 C   0  0  0  0  0  0  0  0  0  0  0  0
   56.6200   22.3670   42.6070 C   0  0  0  0  0  0  0  0  0  0  0  0
   55.8620   22.2120   45.0090 C   0  0  0  0  0  0  0  0  0  0  0  0
   55.1470   21.0610   44.6830 O   0  0  0  0  0  0  0  0  0  0  0  0
   55.4235   22.2879   48.3875 H   0  0  0  0  0  0  0  0  0  0  0  0
   54.0067   22.1884   47.2877 H   0  0  0  0  0  0  0  0  0  0  0  0
   55.2374   20.8799   47.2877 H   0  0  0  0  0  0  0  0  0  0  0  0
   56.5861   24.2145   47.6907 H   0  0  0  0  0  0  0  0  0  0  0  0
   59.9521   24.6528   46.6233 H   0  0  0  0  0  0  0  0  0  0  0  0
   58.5600   29.8660   47.3010 H   0  0  0  0  0  0  0  0  0  0  0  0
   56.6178   31.8998   44.0466 H   0  0  0  0  0  0  0  0  0  0  0  0
   57.0526   34.5145   44.5912 H   0  0  0  0  0  0  0  0  0  0  0  0
   57.9137   24.5563   43.5880 H   0  0  0  0  0  0  0  0  0  0  0  0
   56.6768   21.2686   42.6239 H   0  0  0  0  0  0  0  0  0  0  0  0
   55.7045   22.6788   42.0829 H   0  0  0  0  0  0  0  0  0  0  0  0
   57.4984   22.7716   42.0829 H   0  0  0  0  0  0  0  0  0  0  0  0
  1  2  1  0
  2  3  2  0
  3  4  1  0
  4  5  1  0
  5  6  2  0
  6  7  1  0
  7  8  1  0
  8  9  1  0
  9 10  1  0
 10 11  2  0
 10 12  1  0
 12 13  2  0
 13 14  1  0
 14 15  2  0
 15 16  1  0
 15 17  1  0
  8 18  2  0
 18 19  1  0
 19 20  2  0
 19 21  1  0
  4 22  2  0
 22 23  1  0
 23 24  1  0
 23 25  2  0
 25 26  1  0
 25  2  1  0
 18  5  1  0
 17 12  1  0
  1 27  1  0
  1 28  1  0
  1 29  1  0
  3 30  1  0
  6 31  1  0
  9 32  1  0
 13 33  1  0
 14 34  1  0
 22 35  1  0
 24 36  1  0
 24 37  1  0
 24 38  1  0
M  CHG  2  21  -1  26  -1
M  END
>  <UniqueID>  (18) 
15

>  <SMILES>  (18) 
Cc1cc(-c2csc(NC(=O)c3ccc(Br)o3)c2C(=O)[O-])cc(C)c1[O-]

>  <Energy>  (18) 
106.73574289630086

>  <Genealogy>  (18) 
Cc1cc(-c2csc(NC(=O)c3ccc(Br)o3)c2C(=O)[O-])cc(C)c1[O-] (protonated)
Cc1cc(-c2csc(NC(=O)c3ccc(Br)o3)c2C(=O)[O-])cc(C)c1[O-] (3D coordinates assigned)
Cc1cc(-c2csc(NC(=O)c3ccc(Br)o3)c2C(=O)[O-])cc(C)c1[O-] (optimized conformer: 106.73574289630086 kcal/mol)

>  <smiles>  (18) 
Cc1cc(-c2csc(NC(=O)c3ccc(Br)o3)c2C(=O)O)cc(C)c1O

>  <score_type>  (18) 
oracle

>  <origin>  (18) 
adg

>  <m_score__min__energy>  (18) 
-12.08

>  <m_primary>  (18) 
energy

$$$$
18:0
     RDKit          3D

 45 47  0  0  0  0  0  0  0  0999 V2000
   60.8110   28.1630   48.6010 O   0  0  0  0  0  0  0  0  0  0  0  0
   60.1490   28.9920   47.9160 C   0  0  0  0  0  0  0  0  0  0  0  0
   60.1310   30.3760   48.2980 N   0  0  0  0  0  0  0  0  0  0  0  0
   61.0360   30.9170   49.3100 C   0  0  0  0  0  0  0  0  0  0  0  0
   61.9400   31.9490   48.6960 C   0  0  0  0  0  0  0  0  0  0  0  0
   62.1480   33.1880   49.3200 C   0  0  0  0  0  0  0  0  0  0  0  0
   63.0060   34.1240   48.7410 C   0  0  0  0  0  0  0  0  0  0  0  0
   63.6560   33.8110   47.5450 C   0  0  0  0  0  0  0  0  0  0  0  0
   63.4520   32.6020   46.9580 N   0  0  0  0  0  0  0  0  0  0  0  0
   62.6200   31.6740   47.5010 C   0  0  0  0  0  0  0  0  0  0  0  0
   59.3850   28.5160   46.7380 C   0  0  0  0  0  0  0  0  0  0  0  0
   59.5760   27.2080   46.2580 C   0  0  0  0  0  0  0  0  0  0  0  0
   58.8430   26.7430   45.1630 C   0  0  0  0  0  0  0  0  0  0  0  0
   57.9150   27.5750   44.5360 C   0  0  0  0  0  0  0  0  0  0  0  0
   57.7220   28.8840   44.9930 C   0  0  0  0  0  0  0  0  0  0  0  0
   56.4990   29.8970   44.2320 S   0  0  0  0  0  0  0  0  0  0  0  0
   55.1430   29.3230   44.5340 O   0  0  0  0  0  0  0  0  0  0  0  0
   56.6850   29.9180   42.7400 O   0  0  0  0  0  0  0  0  0  0  0  0
   56.5850   31.5150   44.8700 N   0  0  0  0  0  0  0  0  0  0  0  0
   57.7490   32.2380   44.3470 C   0  0  0  0  0  0  0  0  0  0  0  0
   58.3910   33.0890   45.4110 C   0  0  0  0  0  0  0  0  0  0  0  0
   59.1490   34.2180   45.0560 C   0  0  0  0  0  0  0  0  0  0  0  0
   59.7210   35.0230   46.0440 C   0  0  0  0  0  0  0  0  0  0  0  0
   59.5570   34.6990   47.3940 C   0  0  0  0  0  0  0  0  0  0  0  0
   58.8250   33.5650   47.7560 C   0  0  0  0  0  0  0  0  0  0  0  0
   58.2470   32.7600   46.7710 C   0  0  0  0  0  0  0  0  0  0  0  0
   58.4660   29.3560   46.0840 C   0  0  0  0  0  0  0  0  0  0  0  0
   59.4240   31.0210   47.8820 H   0  0  0  0  0  0  0  0  0  0  0  0
   60.4465   31.3819   50.1140 H   0  0  0  0  0  0  0  0  0  0  0  0
   61.6482   30.0998   49.7192 H   0  0  0  0  0  0  0  0  0  0  0  0
   61.6353   33.4216   50.2648 H   0  0  0  0  0  0  0  0  0  0  0  0
   63.1690   35.0996   49.2223 H   0  0  0  0  0  0  0  0  0  0  0  0
   64.3325   34.5423   47.0785 H   0  0  0  0  0  0  0  0  0  0  0  0
   62.4798   30.7042   47.0012 H   0  0  0  0  0  0  0  0  0  0  0  0
   60.3066   26.5472   46.7474 H   0  0  0  0  0  0  0  0  0  0  0  0
   58.9980   25.7183   44.7944 H   0  0  0  0  0  0  0  0  0  0  0  0
   57.3335   27.2014   43.6803 H   0  0  0  0  0  0  0  0  0  0  0  0
   58.4863   31.5099   43.9779 H   0  0  0  0  0  0  0  0  0  0  0  0
   57.4105   32.8972   43.5340 H   0  0  0  0  0  0  0  0  0  0  0  0
   59.2926   34.4690   43.9947 H   0  0  0  0  0  0  0  0  0  0  0  0
   60.3013   35.9131   45.7594 H   0  0  0  0  0  0  0  0  0  0  0  0
   60.0040   35.3365   48.1710 H   0  0  0  0  0  0  0  0  0  0  0  0
   58.7036   33.3057   48.8181 H   0  0  0  0  0  0  0  0  0  0  0  0
   57.6768   31.8649   47.0604 H   0  0  0  0  0  0  0  0  0  0  0  0
   58.3298   30.3910   46.4308 H   0  0  0  0  0  0  0  0  0  0  0  0
  1  2  2  0
  2  3  1  0
  3  4  1  0
  4  5  1  0
  5  6  2  0
  6  7  1  0
  7  8  2  0
  8  9  1  0
  9 10  2  0
  2 11  1  0
 11 12  2  0
 12 13  1  0
 13 14  2  0
 14 15  1  0
 15 16  1  0
 16 17  2  0
 16 18  2  0
 16 19  1  0
 19 20  1  0
 20 21  1  0
 21 22  2  0
 22 23  1  0
 23 24  2  0
 24 25  1  0
 25 26  2  0
 15 27  2  0
 10  5  1  0
 27 11  1  0
 26 21  1  0
  3 28  1  0
  4 29  1  0
  4 30  1  0
  6 31  1  0
  7 32  1  0
  8 33  1  0
 10 34  1  0
 12 35  1  0
 13 36  1  0
 14 37  1  0
 20 38  1  0
 20 39  1  0
 22 40  1  0
 23 41  1  0
 24 42  1  0
 25 43  1  0
 26 44  1  0
 27 45  1  0
M  CHG  1  19  -1
M  END
>  <UniqueID>  (19) 
16

>  <SMILES>  (19) 
O=C(NCc1cccnc1)c1cccc(S(=O)(=O)[N-]Cc2ccccc2)c1

>  <Energy>  (19) 
43.258497000818814

>  <Genealogy>  (19) 
O=C(NCc1cccnc1)c1cccc(S(=O)(=O)[N-]Cc2ccccc2)c1 (protonated)
O=C(NCc1cccnc1)c1cccc(S(=O)(=O)[N-]Cc2ccccc2)c1 (3D coordinates assigned)
O=C(NCc1cccnc1)c1cccc(S(=O)(=O)[N-]Cc2ccccc2)c1 (optimized conformer: 43.258497000818814 kcal/mol)

>  <smiles>  (19) 
O=C(NCc1cccnc1)c1cccc(S(=O)(=O)NCc2ccccc2)c1

>  <score_type>  (19) 
oracle

>  <origin>  (19) 
adg

>  <m_score__min__energy>  (19) 
-10.550000000000001

>  <m_primary>  (19) 
energy

$$$$
19:0
     RDKit          3D

 47 49  0  0  0  0  0  0  0  0999 V2000
   57.5387   30.9803   49.6295 H   0  0  0  0  0  0  0  0  0  0  0  0
   58.1270   31.7830   50.0980 C   0  0  0  0  0  0  0  0  0  0  0  0
   59.0290   32.4810   49.3600 N   0  0  0  0  0  0  0  0  0  0  0  0
   59.7730   33.4930   49.8910 C   0  0  0  0  0  0  0  0  0  0  0  0
   60.6370   34.1430   49.1670 N   0  0  0  0  0  0  0  0  0  0  0  0
   61.9340   33.6560   48.7910 C   0  0  0  0  0  0  0  0  0  0  0  0
   63.1260   34.2130   49.2010 C   0  0  0  0  0  0  0  0  0  0  0  0
   63.2598   35.0838   49.8597 H   0  0  0  0  0  0  0  0  0  0  0  0
   64.1180   33.4520   48.6140 C   0  0  0  0  0  0  0  0  0  0  0  0
   65.1974   33.6185   48.7453 H   0  0  0  0  0  0  0  0  0  0  0  0
   63.5770   32.4770   47.8580 N   0  0  0  0  0  0  0  0  0  0  0  0
   64.1130   31.7990   47.2720 H   0  0  0  0  0  0  0  0  0  0  0  0
   62.2370   32.5980   47.9460 C   0  0  0  0  0  0  0  0  0  0  0  0
   61.2820   31.7990   47.1510 C   0  0  0  0  0  0  0  0  0  0  0  0
   61.6430   30.6810   46.6950 O   0  0  0  0  0  0  0  0  0  0  0  0
   59.9430   32.2700   46.9240 N   0  0  0  0  0  0  0  0  0  0  0  0
   59.5690   33.0280   47.5370 H   0  0  0  0  0  0  0  0  0  0  0  0
   59.0620   31.7280   45.9260 C   0  0  0  0  0  0  0  0  0  0  0  0
   58.5120   32.5340   44.9150 C   0  0  0  0  0  0  0  0  0  0  0  0
   58.7743   33.6010   44.8639 H   0  0  0  0  0  0  0  0  0  0  0  0
   57.6350   31.9900   43.9750 C   0  0  0  0  0  0  0  0  0  0  0  0
   57.2187   32.6299   43.1831 H   0  0  0  0  0  0  0  0  0  0  0  0
   57.2800   30.6330   44.0320 C   0  0  0  0  0  0  0  0  0  0  0  0
   56.3320   30.0620   43.0130 C   0  0  0  0  0  0  0  0  0  0  0  0
   55.4992   29.5604   43.5276 H   0  0  0  0  0  0  0  0  0  0  0  0
   55.9384   30.8734   42.3832 H   0  0  0  0  0  0  0  0  0  0  0  0
   56.8652   29.3347   42.3832 H   0  0  0  0  0  0  0  0  0  0  0  0
   57.8110   29.8260   45.0570 C   0  0  0  0  0  0  0  0  0  0  0  0
   57.3930   28.1210   45.1950 Cl  0  0  0  0  0  0  0  0  0  0  0  0
   58.6900   30.3780   45.9980 C   0  0  0  0  0  0  0  0  0  0  0  0
   59.0929   29.7451   46.8025 H   0  0  0  0  0  0  0  0  0  0  0  0
   59.6200   33.8220   51.2410 C   0  0  0  0  0  0  0  0  0  0  0  0
   60.2248   34.6251   51.6873 H   0  0  0  0  0  0  0  0  0  0  0  0
   58.6940   33.1240   52.0190 C   0  0  0  0  0  0  0  0  0  0  0  0
   58.5529   33.3917   53.0766 H   0  0  0  0  0  0  0  0  0  0  0  0
   57.9440   32.0830   51.4550 C   0  0  0  0  0  0  0  0  0  0  0  0
   56.9400   31.3610   52.2660 C   0  0  0  0  0  0  0  0  0  0  0  0
   55.7800   31.8430   52.3680 O   0  0  0  0  0  0  0  0  0  0  0  0
   57.2570   30.1270   52.9400 N   0  0  0  0  0  0  0  0  0  0  0  0
   58.5920   29.9170   53.5130 C   0  0  0  0  0  0  0  0  0  0  0  0
   58.5255   29.9275   54.6109 H   0  0  0  0  0  0  0  0  0  0  0  0
   58.9859   28.9459   53.1787 H   0  0  0  0  0  0  0  0  0  0  0  0
   59.2650   30.7203   53.1787 H   0  0  0  0  0  0  0  0  0  0  0  0
   56.1850   29.1610   53.1970 C   0  0  0  0  0  0  0  0  0  0  0  0
   56.0519   29.0411   54.2823 H   0  0  0  0  0  0  0  0  0  0  0  0
   55.2480   29.5257   52.7508 H   0  0  0  0  0  0  0  0  0  0  0  0
   56.4505   28.1913   52.7508 H   0  0  0  0  0  0  0  0  0  0  0  0
  1  2  1  0
  2  3  1  0
  3  4  1  0
  4  5  2  0
  5  6  1  0
  6  7  1  0
  7  8  1  0
  7  9  2  0
  9 10  1  0
  9 11  1  0
 11 12  1  0
 11 13  1  0
 13 14  1  0
 14 15  2  0
 14 16  1  0
 16 17  1  0
 16 18  1  0
 18 19  2  0
 19 20  1  0
 19 21  1  0
 21 22  1  0
 21 23  2  0
 23 24  1  0
 24 25  1  0
 24 26  1  0
 24 27  1  0
 23 28  1  0
 28 29  1  0
 28 30  2  0
 30 31  1  0
  4 32  1  0
 32 33  1  0
 32 34  2  0
 34 35  1  0
 34 36  1  0
 36 37  1  0
 37 38  2  0
 37 39  1  0
 39 40  1  0
 40 41  1  0
 40 42  1  0
 40 43  1  0
 39 44  1  0
 44 45  1  0
 44 46  1  0
 44 47  1  0
 36  2  2  0
 13  6  2  0
 30 18  1  0
M  CHG  1   3  -1
M  END
>  <UniqueID>  (20) 
17

>  <SMILES>  (20) 
Cc1ccc(NC(=O)c2[nH]ccc2/N=c2/ccc(C(=O)N(C)C)c[n-]2)cc1Cl

>  <Energy>  (20) 
90.91324321205808

>  <Genealogy>  (20) 
Cc1ccc(NC(=O)c2[nH]ccc2N=c2ccc(C(=O)N(C)C)c[n-]2)cc1Cl (protonated)
Cc1ccc(NC(=O)c2[nH]ccc2/N=c2/ccc(C(=O)N(C)C)c[n-]2)cc1Cl (cis-trans isomerization)
Cc1ccc(NC(=O)c2[nH]ccc2/N=c2/ccc(C(=O)N(C)C)c[n-]2)cc1Cl (3D coordinates assigned)
Cc1ccc(NC(=O)c2[nH]ccc2/N=c2/ccc(C(=O)N(C)C)c[n-]2)cc1Cl (optimized conformer: 90.91324321205808 kcal/mol)

>  <smiles>  (20) 
Cc1ccc(NC(=O)c2[nH]ccc2N=c2ccc(C(=O)N(C)C)c[nH]2)cc1Cl

>  <score_type>  (20) 
oracle

>  <origin>  (20) 
adg

>  <m_score__min__energy>  (20) 
-9.9299999999999997

>  <m_primary>  (20) 
energy

$$$$
20:0
     RDKit          3D

 36 38  0  0  0  0  0  0  0  0999 V2000
   60.4590   34.1710   49.3380 C   0  0  0  0  0  0  0  0  0  0  0  0
   59.2220   33.9240   48.6780 O   0  0  0  0  0  0  0  0  0  0  0  0
   59.0450   33.8850   47.2850 C   0  0  0  0  0  0  0  0  0  0  0  0
   59.3370   35.0110   46.4890 C   0  0  0  0  0  0  0  0  0  0  0  0
   59.1460   34.9760   45.1100 C   0  0  0  0  0  0  0  0  0  0  0  0
   58.6640   33.8220   44.5000 C   0  0  0  0  0  0  0  0  0  0  0  0
   58.3740   32.6860   45.2640 C   0  0  0  0  0  0  0  0  0  0  0  0
   57.7850   31.2260   44.4610 S   0  0  0  0  0  0  0  0  0  0  0  0
   56.3590   30.9900   44.8690 O   0  0  0  0  0  0  0  0  0  0  0  0
   57.8440   31.3700   42.9660 O   0  0  0  0  0  0  0  0  0  0  0  0
   58.7450   29.8620   44.9350 N   0  0  0  0  0  0  0  0  0  0  0  0
   58.2520   28.5270   45.1110 C   0  0  0  0  0  0  0  0  0  0  0  0
   59.0800   27.3860   44.9200 C   0  0  0  0  0  0  0  0  0  0  0  0
   58.5640   26.0890   45.1010 C   0  0  0  0  0  0  0  0  0  0  0  0
   57.2280   25.9680   45.4680 C   0  0  0  0  0  0  0  0  0  0  0  0
   56.5360   24.8400   45.6860 N   0  0  0  0  0  0  0  0  0  0  0  0
   55.3070   25.3190   46.0040 C   0  0  0  0  0  0  0  0  0  0  0  0
   54.3400   24.5630   46.2830 O   0  0  0  0  0  0  0  0  0  0  0  0
   55.1920   26.6710   45.9970 N   0  0  0  0  0  0  0  0  0  0  0  0
   56.4310   27.0560   45.6530 C   0  0  0  0  0  0  0  0  0  0  0  0
   56.9030   28.3540   45.4830 C   0  0  0  0  0  0  0  0  0  0  0  0
   58.5620   32.7030   46.6630 C   0  0  0  0  0  0  0  0  0  0  0  0
   58.2500   31.5250   47.3690 O   0  0  0  0  0  0  0  0  0  0  0  0
   59.1740   30.5730   47.8860 C   0  0  0  0  0  0  0  0  0  0  0  0
   60.3061   34.1405   50.4269 H   0  0  0  0  0  0  0  0  0  0  0  0
   61.1892   33.4009   49.0485 H   0  0  0  0  0  0  0  0  0  0  0  0
   60.8375   35.1624   49.0485 H   0  0  0  0  0  0  0  0  0  0  0  0
   59.7199   35.9273   46.9622 H   0  0  0  0  0  0  0  0  0  0  0  0
   59.3767   35.8628   44.5015 H   0  0  0  0  0  0  0  0  0  0  0  0
   58.5100   33.8026   43.4110 H   0  0  0  0  0  0  0  0  0  0  0  0
   60.1323   27.5185   44.6284 H   0  0  0  0  0  0  0  0  0  0  0  0
   59.1964   25.2006   44.9570 H   0  0  0  0  0  0  0  0  0  0  0  0
   56.2425   29.2204   45.6345 H   0  0  0  0  0  0  0  0  0  0  0  0
   59.1497   30.5981   48.9854 H   0  0  0  0  0  0  0  0  0  0  0  0
   58.8986   29.5672   47.5360 H   0  0  0  0  0  0  0  0  0  0  0  0
   60.1876   30.8183   47.5360 H   0  0  0  0  0  0  0  0  0  0  0  0
  1  2  1  0
  2  3  1  0
  3  4  2  0
  4  5  1  0
  5  6  2  0
  6  7  1  0
  7  8  1  0
  8  9  2  0
  8 10  2  0
  8 11  1  0
 11 12  1  0
 12 13  2  0
 13 14  1  0
 14 15  2  0
 15 16  1  0
 16 17  1  0
 17 18  2  0
 17 19  1  0
 19 20  1  0
 20 21  2  0
  7 22  2  0
 22 23  1  0
 23 24  1  0
 22  3  1  0
 21 12  1  0
 20 15  1  0
  1 25  1  0
  1 26  1  0
  1 27  1  0
  4 28  1  0
  5 29  1  0
  6 30  1  0
 13 31  1  0
 14 32  1  0
 21 33  1  0
 24 34  1  0
 24 35  1  0
 24 36  1  0
M  CHG  3  11  -1  16  -1  19  -1
M  END
>  <UniqueID>  (21) 
18

>  <SMILES>  (21) 
COc1cccc(S(=O)(=O)[N-]c2ccc3[n-]c(=O)[n-]c3c2)c1OC

>  <Energy>  (21) 
79.09156240854861

>  <Genealogy>  (21) 
COc1cccc(S(=O)(=O)[N-]c2ccc3[n-]c(=O)[n-]c3c2)c1OC (protonated)
COc1cccc(S(=O)(=O)[N-]c2ccc3[n-]c(=O)[n-]c3c2)c1OC (3D coordinates assigned)
COc1cccc(S(=O)(=O)[N-]c2ccc3[n-]c(=O)[n-]c3c2)c1OC (optimized conformer: 79.09156240854861 kcal/mol)

>  <smiles>  (21) 
COc1cccc(S(=O)(=O)Nc2ccc3[nH]c(=O)[nH]c3c2)c1OC

>  <score_type>  (21) 
oracle

>  <origin>  (21) 
adg

>  <m_score__min__energy>  (21) 
-12.460000000000001

>  <m_primary>  (21) 
energy

$$$$
21:0
     RDKit          3D

 52 55  0  0  0  0  0  0  0  0999 V2000
   60.0080   25.8470   46.5090 O   0  0  0  0  0  0  0  0  0  0  0  0
   59.5500   26.8900   47.0500 C   0  0  0  0  0  0  0  0  0  0  0  0
   60.0860   27.3580   48.2950 N   0  0  0  0  0  0  0  0  0  0  0  0
   60.1050   28.7170   48.7520 C   0  0  0  0  0  0  0  0  0  0  0  0
   59.1420   29.1250   49.6820 C   0  0  0  0  0  0  0  0  0  0  0  0
   59.1310   30.4400   50.1690 C   0  0  0  0  0  0  0  0  0  0  0  0
   58.1040   30.8590   51.1850 C   0  0  0  0  0  0  0  0  0  0  0  0
   57.1680   29.8330   51.3760 O   0  0  0  0  0  0  0  0  0  0  0  0
   60.1210   31.3400   49.7500 C   0  0  0  0  0  0  0  0  0  0  0  0
   61.1050   30.9420   48.8330 C   0  0  0  0  0  0  0  0  0  0  0  0
   62.1230   31.8730   48.4200 N   0  0  0  0  0  0  0  0  0  0  0  0
   63.3840   31.9720   49.1600 C   0  0  0  0  0  0  0  0  0  0  0  0
   63.9510   33.3880   49.0230 C   0  0  0  0  0  0  0  0  0  0  0  0
   64.0380   33.7660   47.6620 O   0  0  0  0  0  0  0  0  0  0  0  0
   62.7400   33.8420   47.1010 C   0  0  0  0  0  0  0  0  0  0  0  0
   62.0740   32.4640   47.0790 C   0  0  0  0  0  0  0  0  0  0  0  0
   61.0990   29.6250   48.3440 C   0  0  0  0  0  0  0  0  0  0  0  0
   58.4630   27.6470   46.3910 C   0  0  0  0  0  0  0  0  0  0  0  0
   57.1880   27.0850   46.1770 C   0  0  0  0  0  0  0  0  0  0  0  0
   56.8920   25.7580   46.4910 O   0  0  0  0  0  0  0  0  0  0  0  0
   56.2120   27.8410   45.6170 N   0  0  0  0  0  0  0  0  0  0  0  0
   56.4270   29.1240   45.2380 C   0  0  0  0  0  0  0  0  0  0  0  0
   55.4730   29.7790   44.7350 O   0  0  0  0  0  0  0  0  0  0  0  0
   57.6590   29.6980   45.4060 N   0  0  0  0  0  0  0  0  0  0  0  0
   57.8820   31.0630   44.9940 C   0  0  0  0  0  0  0  0  0  0  0  0
   57.8450   31.4090   43.6320 C   0  0  0  0  0  0  0  0  0  0  0  0
   58.0660   32.7310   43.2350 C   0  0  0  0  0  0  0  0  0  0  0  0
   58.3240   33.7160   44.1930 C   0  0  0  0  0  0  0  0  0  0  0  0
   58.3600   33.3810   45.5500 C   0  0  0  0  0  0  0  0  0  0  0  0
   58.1390   32.0590   45.9500 C   0  0  0  0  0  0  0  0  0  0  0  0
   58.6760   28.9760   45.9770 C   0  0  0  0  0  0  0  0  0  0  0  0
   59.8110   29.5070   46.1400 O   0  0  0  0  0  0  0  0  0  0  0  0
   58.3865   28.4073   50.0343 H   0  0  0  0  0  0  0  0  0  0  0  0
   58.6048   31.0768   52.1399 H   0  0  0  0  0  0  0  0  0  0  0  0
   57.5838   31.7574   50.8213 H   0  0  0  0  0  0  0  0  0  0  0  0
   56.3530   30.0980   50.8730 H   0  0  0  0  0  0  0  0  0  0  0  0
   60.1261   32.3671   50.1438 H   0  0  0  0  0  0  0  0  0  0  0  0
   63.2032   31.7514   50.2224 H   0  0  0  0  0  0  0  0  0  0  0  0
   64.1050   31.2489   48.7510 H   0  0  0  0  0  0  0  0  0  0  0  0
   63.2922   34.0928   49.5514 H   0  0  0  0  0  0  0  0  0  0  0  0
   64.9608   33.4067   49.4589 H   0  0  0  0  0  0  0  0  0  0  0  0
   62.1270   34.5289   47.7029 H   0  0  0  0  0  0  0  0  0  0  0  0
   62.8243   34.2086   46.0673 H   0  0  0  0  0  0  0  0  0  0  0  0
   61.0255   32.5690   46.7632 H   0  0  0  0  0  0  0  0  0  0  0  0
   62.6076   31.8114   46.3723 H   0  0  0  0  0  0  0  0  0  0  0  0
   61.8771   29.3015   47.6370 H   0  0  0  0  0  0  0  0  0  0  0  0
   57.6000   25.0570   46.6670 H   0  0  0  0  0  0  0  0  0  0  0  0
   57.6414   30.6366   42.8758 H   0  0  0  0  0  0  0  0  0  0  0  0
   58.0369   32.9965   42.1679 H   0  0  0  0  0  0  0  0  0  0  0  0
   58.4988   34.7556   43.8789 H   0  0  0  0  0  0  0  0  0  0  0  0
   58.5621   34.1570   46.3030 H   0  0  0  0  0  0  0  0  0  0  0  0
   58.1666   31.7984   47.0183 H   0  0  0  0  0  0  0  0  0  0  0  0
  1  2  2  0
  2  3  1  0
  3  4  1  0
  4  5  2  0
  5  6  1  0
  6  7  1  0
  7  8  1  0
  6  9  2  0
  9 10  1  0
 10 11  1  0
 11 12  1  0
 12 13  1  0
 13 14  1  0
 14 15  1  0
 15 16  1  0
 10 17  2  0
  2 18  1  0
 18 19  2  0
 19 20  1  0
 19 21  1  0
 21 22  1  0
 22 23  2  0
 22 24  1  0
 24 25  1  0
 25 26  2  0
 26 27  1  0
 27 28  2  0
 28 29  1  0
 29 30  2  0
 24 31  1  0
 31 32  2  0
 17  4  1  0
 31 18  1  0
 16 11  1  0
 30 25  1  0
  5 33  1  0
  7 34  1  0
  7 35  1  0
  8 36  1  0
  9 37  1  0
 12 38  1  0
 12 39  1  0
 13 40  1  0
 13 41  1  0
 15 42  1  0
 15 43  1  0
 16 44  1  0
 16 45  1  0
 17 46  1  0
 20 47  1  0
 26 48  1  0
 27 49  1  0
 28 50  1  0
 29 51  1  0
 30 52  1  0
M  CHG  2   3  -1  21  -1
M  END
>  <UniqueID>  (22) 
19

>  <SMILES>  (22) 
O=C([N-]c1cc(CO)cc(N2CCOCC2)c1)c1c(O)[n-]c(=O)n(-c2ccccc2)c1=O

>  <Energy>  (22) 
81.7072069505812

>  <Genealogy>  (22) 
O=C([N-]c1cc(CO)cc(N2CCOCC2)c1)c1c(O)[n-]c(=O)n(-c2ccccc2)c1=O (protonated)
O=C([N-]c1cc(CO)cc(N2CCOCC2)c1)c1c(O)[n-]c(=O)n(-c2ccccc2)c1=O (3D coordinates assigned)
O=C([N-]c1cc(CO)cc(N2CCOCC2)c1)c1c(O)[n-]c(=O)n(-c2ccccc2)c1=O (nonaromatic ring conformer: 81.7072069505812 kcal/mol)

>  <smiles>  (22) 
O=C(Nc1cc(CO)cc(N2CCOCC2)c1)c1c(O)[nH]c(=O)n(-c2ccccc2)c1=O

>  <score_type>  (22) 
oracle

>  <origin>  (22) 
adg

>  <m_score__min__energy>  (22) 
-11.02

>  <m_primary>  (22) 
energy

$$$$
22:0
     RDKit          3D

 56 59  0  0  0  0  0  0  0  0999 V2000
   57.0841   34.3071   45.4332 H   0  0  0  0  0  0  0  0  0  0  0  0
   57.9100   34.1190   46.1350 C   0  0  0  0  0  0  0  0  0  0  0  0
   59.1760   34.5550   45.9780 N   0  0  0  0  0  0  0  0  0  0  0  0
   59.8250   34.0920   47.0670 C   0  0  0  0  0  0  0  0  0  0  0  0
   60.8911   34.2744   47.2676 H   0  0  0  0  0  0  0  0  0  0  0  0
   59.0210   33.3820   47.8800 N   0  0  0  0  0  0  0  0  0  0  0  0
   59.3720   32.7960   49.1700 C   0  0  0  0  0  0  0  0  0  0  0  0
   59.0383   33.4653   49.9766 H   0  0  0  0  0  0  0  0  0  0  0  0
   60.4629   32.6639   49.2208 H   0  0  0  0  0  0  0  0  0  0  0  0
   58.6940   31.4330   49.3300 C   0  0  0  0  0  0  0  0  0  0  0  0
   58.0191   31.2697   48.4769 H   0  0  0  0  0  0  0  0  0  0  0  0
   58.1399   31.4386   50.2802 H   0  0  0  0  0  0  0  0  0  0  0  0
   59.7110   30.2890   49.3820 C   0  0  0  0  0  0  0  0  0  0  0  0
   60.0877   30.1914   50.4109 H   0  0  0  0  0  0  0  0  0  0  0  0
   60.5308   30.5226   48.6868 H   0  0  0  0  0  0  0  0  0  0  0  0
   59.1090   29.0220   48.9740 N   0  0  0  0  0  0  0  0  0  0  0  0
   59.8620   27.9180   48.4560 C   0  0  0  0  0  0  0  0  0  0  0  0
   60.9230   27.5500   49.0300 O   0  0  0  0  0  0  0  0  0  0  0  0
   59.4580   27.2770   47.1850 C   0  0  0  0  0  0  0  0  0  0  0  0
   58.4980   26.3960   47.1140 N   0  0  0  0  0  0  0  0  0  0  0  0
   57.2570   26.5210   46.4060 C   0  0  0  0  0  0  0  0  0  0  0  0
   56.6850   27.6430   46.3500 O   0  0  0  0  0  0  0  0  0  0  0  0
   56.6110   25.3320   45.7870 C   0  0  0  0  0  0  0  0  0  0  0  0
   57.4170   24.2500   45.3780 C   0  0  0  0  0  0  0  0  0  0  0  0
   58.5079   24.3037   45.5089 H   0  0  0  0  0  0  0  0  0  0  0  0
   56.8450   23.1120   44.8090 C   0  0  0  0  0  0  0  0  0  0  0  0
   57.4873   22.2809   44.4821 H   0  0  0  0  0  0  0  0  0  0  0  0
   55.4620   23.0240   44.6530 C   0  0  0  0  0  0  0  0  0  0  0  0
   55.0174   22.1204   44.2104 H   0  0  0  0  0  0  0  0  0  0  0  0
   54.6370   24.0800   45.0570 C   0  0  0  0  0  0  0  0  0  0  0  0
   53.1510   23.9820   44.8650 C   0  0  0  0  0  0  0  0  0  0  0  0
   52.6558   23.9493   45.8467 H   0  0  0  0  0  0  0  0  0  0  0  0
   52.7952   24.8586   44.3038 H   0  0  0  0  0  0  0  0  0  0  0  0
   52.9134   23.0662   44.3038 H   0  0  0  0  0  0  0  0  0  0  0  0
   55.2080   25.2430   45.6090 C   0  0  0  0  0  0  0  0  0  0  0  0
   54.3770   26.3040   45.9570 O   0  0  0  0  0  0  0  0  0  0  0  0
   60.0290   27.8020   45.8990 C   0  0  0  0  0  0  0  0  0  0  0  0
   61.1230   27.8744   45.9881 H   0  0  0  0  0  0  0  0  0  0  0  0
   59.7677   27.1162   45.0796 H   0  0  0  0  0  0  0  0  0  0  0  0
   59.4630   29.1590   45.6070 C   0  0  0  0  0  0  0  0  0  0  0  0
   59.9390   30.3750   46.0930 C   0  0  0  0  0  0  0  0  0  0  0  0
   60.7517   30.4825   46.8264 H   0  0  0  0  0  0  0  0  0  0  0  0
   59.2610   31.4050   45.5360 N   0  0  0  0  0  0  0  0  0  0  0  0
   59.4170   32.4230   45.7070 H   0  0  0  0  0  0  0  0  0  0  0  0
   58.3710   30.8510   44.6950 C   0  0  0  0  0  0  0  0  0  0  0  0
   57.4640   31.5140   43.8700 C   0  0  0  0  0  0  0  0  0  0  0  0
   57.3954   32.6119   43.8687 H   0  0  0  0  0  0  0  0  0  0  0  0
   56.6390   30.7340   43.0390 C   0  0  0  0  0  0  0  0  0  0  0  0
   55.9085   31.2248   42.3791 H   0  0  0  0  0  0  0  0  0  0  0  0
   56.7420   29.3260   43.0460 C   0  0  0  0  0  0  0  0  0  0  0  0
   56.0929   28.7273   42.3901 H   0  0  0  0  0  0  0  0  0  0  0  0
   57.6690   28.6840   43.8860 C   0  0  0  0  0  0  0  0  0  0  0  0
   57.7612   27.5879   43.8970 H   0  0  0  0  0  0  0  0  0  0  0  0
   58.4680   29.4820   44.7050 C   0  0  0  0  0  0  0  0  0  0  0  0
   57.8070   33.4030   47.3060 C   0  0  0  0  0  0  0  0  0  0  0  0
   56.8944   32.9325   47.7008 H   0  0  0  0  0  0  0  0  0  0  0  0
  1  2  1  0
  2  3  1  0
  3  4  2  0
  4  5  1  0
  4  6  1  0
  6  7  1  0
  7  8  1  0
  7  9  1  0
  7 10  1  0
 10 11  1  0
 10 12  1  0
 10 13  1  0
 13 14  1  0
 13 15  1  0
 13 16  1  0
 16 17  1  0
 17 18  2  0
 17 19  1  0
 19 20  2  0
 20 21  1  0
 21 22  2  0
 21 23  1  0
 23 24  2  0
 24 25  1  0
 24 26  1  0
 26 27  1  0
 26 28  2  0
 28 29  1  0
 28 30  1  0
 30 31  1  0
 31 32  1  0
 31 33  1  0
 31 34  1  0
 30 35  2  0
 35 36  1  0
 19 37  1  0
 37 38  1  0
 37 39  1  0
 37 40  1  0
 40 41  2  0
 41 42  1  0
 41 43  1  0
 43 44  1  0
 43 45  1  0
 45 46  2  0
 46 47  1  0
 46 48  1  0
 48 49  1  0
 48 50  2  0
 50 51  1  0
 50 52  1  0
 52 53  1  0
 52 54  2  0
  6 55  1  0
 55 56  1  0
 55  2  2  0
 35 23  1  0
 54 40  1  0
 54 45  1  0
M  CHG  2  16  -1  36  -1
M  END
>  <UniqueID>  (23) 
20

>  <SMILES>  (23) 
Cc1cccc(C(=O)/N=C(/Cc2c[nH]c3ccccc23)C(=O)[N-]CCCn2ccnc2)c1[O-]

>  <Energy>  (23) 
123.18877289891769

>  <Genealogy>  (23) 
Cc1cccc(C(=O)N=C(Cc2c[nH]c3ccccc23)C(=O)[N-]CCCn2ccnc2)c1[O-] (protonated)
Cc1cccc(C(=O)/N=C(/Cc2c[nH]c3ccccc23)C(=O)[N-]CCCn2ccnc2)c1[O-] (cis-trans isomerization)
Cc1cccc(C(=O)/N=C(/Cc2c[nH]c3ccccc23)C(=O)[N-]CCCn2ccnc2)c1[O-] (3D coordinates assigned)
Cc1cccc(C(=O)/N=C(/Cc2c[nH]c3ccccc23)C(=O)[N-]CCCn2ccnc2)c1[O-] (optimized conformer: 123.18877289891769 kcal/mol)

>  <smiles>  (23) 
Cc1cccc(C(=O)N=C(Cc2c[nH]c3ccccc23)C(=O)NCCCn2ccnc2)c1O

>  <score_type>  (23) 
oracle

>  <origin>  (23) 
adg

>  <m_score__min__energy>  (23) 
-13.470000000000001

>  <m_primary>  (23) 
energy

$$$$
23:0
     RDKit          3D

 30 31  0  0  0  0  0  0  0  0999 V2000
   55.4100   26.1720   46.3630 O   0  0  0  0  0  0  0  0  0  0  0  0
   56.5440   26.6240   46.0500 C   0  0  0  0  0  0  0  0  0  0  0  0
   57.6890   25.8580   46.2850 C   0  0  0  0  0  0  0  0  0  0  0  0
   58.9380   26.3680   45.9280 C   0  0  0  0  0  0  0  0  0  0  0  0
   59.0350   27.5990   45.3610 N   0  0  0  0  0  0  0  0  0  0  0  0
   57.9400   28.3770   45.1310 C   0  0  0  0  0  0  0  0  0  0  0  0
   58.1200   29.7160   44.4680 C   0  0  0  0  0  0  0  0  0  0  0  0
   56.9200   30.5460   44.6500 N   0  0  0  0  0  0  0  0  0  0  0  0
   57.2120   31.9540   44.3450 C   0  0  0  0  0  0  0  0  0  0  0  0
   58.0410   32.5690   45.4430 C   0  0  0  0  0  0  0  0  0  0  0  0
   58.1420   31.9370   46.6940 C   0  0  0  0  0  0  0  0  0  0  0  0
   58.8820   32.5270   47.7230 C   0  0  0  0  0  0  0  0  0  0  0  0
   59.5180   33.7560   47.5160 C   0  0  0  0  0  0  0  0  0  0  0  0
   60.4440   34.4950   48.8080 Cl  0  0  0  0  0  0  0  0  0  0  0  0
   59.4080   34.3970   46.2770 C   0  0  0  0  0  0  0  0  0  0  0  0
   58.6690   33.8100   45.2450 C   0  0  0  0  0  0  0  0  0  0  0  0
   56.6630   27.8910   45.4650 C   0  0  0  0  0  0  0  0  0  0  0  0
   55.5240   28.6540   45.2180 O   0  0  0  0  0  0  0  0  0  0  0  0
   57.6066   24.8630   46.7468 H   0  0  0  0  0  0  0  0  0  0  0  0
   59.8455   25.7724   46.1059 H   0  0  0  0  0  0  0  0  0  0  0  0
   58.9853   30.2277   44.9146 H   0  0  0  0  0  0  0  0  0  0  0  0
   58.2854   29.5608   43.3916 H   0  0  0  0  0  0  0  0  0  0  0  0
   56.1640   30.2040   44.0100 H   0  0  0  0  0  0  0  0  0  0  0  0
   56.5930   30.4700   45.6430 H   0  0  0  0  0  0  0  0  0  0  0  0
   57.7664   32.0119   43.3967 H   0  0  0  0  0  0  0  0  0  0  0  0
   56.2636   32.5052   44.2630 H   0  0  0  0  0  0  0  0  0  0  0  0
   57.6371   30.9747   46.8642 H   0  0  0  0  0  0  0  0  0  0  0  0
   58.9644   32.0238   48.6977 H   0  0  0  0  0  0  0  0  0  0  0  0
   59.9041   35.3652   46.1143 H   0  0  0  0  0  0  0  0  0  0  0  0
   58.5792   34.3215   44.2753 H   0  0  0  0  0  0  0  0  0  0  0  0
  1  2  2  0
  2  3  1  0
  3  4  2  0
  4  5  1  0
  5  6  1  0
  6  7  1  0
  7  8  1  0
  8  9  1  0
  9 10  1  0
 10 11  2  0
 11 12  1  0
 12 13  2  0
 13 14  1  0
 13 15  1  0
 15 16  2  0
  6 17  2  0
 17 18  1  0
 17  2  1  0
 16 10  1  0
  3 19  1  0
  4 20  1  0
  7 21  1  0
  7 22  1  0
  8 23  1  0
  8 24  1  0
  9 25  1  0
  9 26  1  0
 11 27  1  0
 12 28  1  0
 15 29  1  0
 16 30  1  0
M  CHG  3   5  -1   8   1  18  -1
M  END
>  <UniqueID>  (24) 
21

>  <SMILES>  (24) 
O=c1cc[n-]c(C[NH2+]Cc2ccc(Cl)cc2)c1[O-]

>  <Energy>  (24) 
30.20047115832724

>  <Genealogy>  (24) 
O=c1cc[n-]c(C[NH2+]Cc2ccc(Cl)cc2)c1[O-] (protonated)
O=c1cc[n-]c(C[NH2+]Cc2ccc(Cl)cc2)c1[O-] (3D coordinates assigned)
O=c1cc[n-]c(C[NH2+]Cc2ccc(Cl)cc2)c1[O-] (optimized conformer: 30.20047115832724 kcal/mol)

>  <smiles>  (24) 
O=c1cc[nH]c(CNCc2ccc(Cl)cc2)c1O

>  <score_type>  (24) 
oracle

>  <origin>  (24) 
adg

>  <m_score__min__energy>  (24) 
-10.869999999999999

>  <m_primary>  (24) 
energy

$$$$
24:0
     RDKit          3D

 36 38  0  0  0  0  0  0  0  0999 V2000
   57.3510   21.9680   43.7690 C   0  0  0  0  0  0  0  0  0  0  0  0
   57.9360   22.0950   44.9570 C   0  0  0  0  0  0  0  0  0  0  0  0
   57.6930   23.2380   45.8550 C   0  0  0  0  0  0  0  0  0  0  0  0
   57.4080   23.0880   47.1690 N   0  0  0  0  0  0  0  0  0  0  0  0
   57.2260   24.2840   47.7180 N   0  0  0  0  0  0  0  0  0  0  0  0
   57.3880   25.1990   46.7470 C   0  0  0  0  0  0  0  0  0  0  0  0
   57.2530   26.5800   46.8540 C   0  0  0  0  0  0  0  0  0  0  0  0
   57.4220   27.3570   45.6920 C   0  0  0  0  0  0  0  0  0  0  0  0
   57.2610   28.7800   45.7930 N   0  0  0  0  0  0  0  0  0  0  0  0
   56.3040   29.5820   45.0890 C   0  0  0  0  0  0  0  0  0  0  0  0
   55.1450   29.1430   44.8630 O   0  0  0  0  0  0  0  0  0  0  0  0
   56.6830   30.8470   44.5360 N   0  0  0  0  0  0  0  0  0  0  0  0
   57.4210   31.8770   45.2100 C   0  0  0  0  0  0  0  0  0  0  0  0
   57.0430   33.2290   45.1350 C   0  0  0  0  0  0  0  0  0  0  0  0
   57.8000   34.2060   45.7860 C   0  0  0  0  0  0  0  0  0  0  0  0
   58.9440   33.8470   46.5020 C   0  0  0  0  0  0  0  0  0  0  0  0
   59.3510   32.5090   46.5650 C   0  0  0  0  0  0  0  0  0  0  0  0
   60.5130   32.1990   47.2850 O   0  0  0  0  0  0  0  0  0  0  0  0
   61.2790   31.0120   47.1060 C   0  0  0  0  0  0  0  0  0  0  0  0
   58.5850   31.5250   45.9060 C   0  0  0  0  0  0  0  0  0  0  0  0
   57.6700   26.7170   44.4480 C   0  0  0  0  0  0  0  0  0  0  0  0
   57.7950   25.3170   44.3740 C   0  0  0  0  0  0  0  0  0  0  0  0
   57.6740   24.5890   45.5570 C   0  0  0  0  0  0  0  0  0  0  0  0
   57.5694   21.0930   43.1391 H   0  0  0  0  0  0  0  0  0  0  0  0
   56.6489   22.7380   43.4165 H   0  0  0  0  0  0  0  0  0  0  0  0
   58.6337   21.3102   45.2844 H   0  0  0  0  0  0  0  0  0  0  0  0
   57.0206   27.0517   47.8202 H   0  0  0  0  0  0  0  0  0  0  0  0
   56.1493   33.5181   44.5625 H   0  0  0  0  0  0  0  0  0  0  0  0
   57.4941   35.2613   45.7345 H   0  0  0  0  0  0  0  0  0  0  0  0
   59.5294   34.6209   47.0201 H   0  0  0  0  0  0  0  0  0  0  0  0
   61.5469   30.5968   48.0888 H   0  0  0  0  0  0  0  0  0  0  0  0
   60.6862   30.2741   46.5455 H   0  0  0  0  0  0  0  0  0  0  0  0
   62.1955   31.2481   46.5455 H   0  0  0  0  0  0  0  0  0  0  0  0
   58.9040   30.4728   45.9387 H   0  0  0  0  0  0  0  0  0  0  0  0
   57.7652   27.3214   43.5339 H   0  0  0  0  0  0  0  0  0  0  0  0
   57.9821   24.8135   43.4140 H   0  0  0  0  0  0  0  0  0  0  0  0
  1  2  2  0
  2  3  1  0
  3  4  1  0
  4  5  1  0
  5  6  2  0
  6  7  1  0
  7  8  2  0
  8  9  1  0
  9 10  1  0
 10 11  2  0
 10 12  1  0
 12 13  1  0
 13 14  2  0
 14 15  1  0
 15 16  2  0
 16 17  1  0
 17 18  1  0
 18 19  1  0
 17 20  2  0
  8 21  1  0
 21 22  2  0
 22 23  1  0
 23  3  2  0
 23  6  1  0
 20 13  1  0
  1 24  1  0
  1 25  1  0
  2 26  1  0
  7 27  1  0
 14 28  1  0
 15 29  1  0
 16 30  1  0
 19 31  1  0
 19 32  1  0
 19 33  1  0
 20 34  1  0
 21 35  1  0
 22 36  1  0
M  CHG  3   4  -1   9  -1  12  -1
M  END
>  <UniqueID>  (25) 
22

>  <SMILES>  (25) 
C=Cc1[n-]nc2cc([N-]C(=O)[N-]c3cccc(OC)c3)ccc12

>  <Energy>  (25) 
84.63710519401451

>  <Genealogy>  (25) 
C=Cc1[n-]nc2cc([N-]C(=O)[N-]c3cccc(OC)c3)ccc12 (protonated)
C=Cc1[n-]nc2cc([N-]C(=O)[N-]c3cccc(OC)c3)ccc12 (3D coordinates assigned)
C=Cc1[n-]nc2cc([N-]C(=O)[N-]c3cccc(OC)c3)ccc12 (optimized conformer: 84.63710519401451 kcal/mol)

>  <smiles>  (25) 
C=Cc1[nH]nc2cc(NC(=O)Nc3cccc(OC)c3)ccc12

>  <score_type>  (25) 
oracle

>  <origin>  (25) 
adg

>  <m_score__min__energy>  (25) 
-11.550000000000001

>  <m_primary>  (25) 
energy

$$$$
25:0
     RDKit          3D

 34 37  0  0  0  0  0  0  0  0999 V2000
   53.7930   26.3310   46.0020 H   0  0  0  0  0  0  0  0  0  0  0  0
   54.7510   25.9550   45.8270 N   0  0  0  0  0  0  0  0  0  0  0  0
   55.8050   26.6840   46.0070 C   0  0  0  0  0  0  0  0  0  0  0  0
   56.7950   26.2640   46.8350 N   0  0  0  0  0  0  0  0  0  0  0  0
   57.9080   27.0110   47.0510 C   0  0  0  0  0  0  0  0  0  0  0  0
   58.8210   26.5300   47.7710 O   0  0  0  0  0  0  0  0  0  0  0  0
   58.0380   28.2780   46.4330 C   0  0  0  0  0  0  0  0  0  0  0  0
   59.1360   29.1630   46.6360 C   0  0  0  0  0  0  0  0  0  0  0  0
   60.3820   28.9180   47.9270 S   0  0  0  0  0  0  0  0  0  0  0  0
   60.2700   30.6120   48.5640 C   0  0  0  0  0  0  0  0  0  0  0  0
   59.1780   30.9370   49.3900 C   0  0  0  0  0  0  0  0  0  0  0  0
   58.1790   30.0020   49.6410 O   0  0  0  0  0  0  0  0  0  0  0  0
   59.0760   32.2040   49.9660 C   0  0  0  0  0  0  0  0  0  0  0  0
   58.2218   32.4406   50.6174 H   0  0  0  0  0  0  0  0  0  0  0  0
   60.0480   33.1710   49.7220 C   0  0  0  0  0  0  0  0  0  0  0  0
   59.9708   34.1590   50.1995 H   0  0  0  0  0  0  0  0  0  0  0  0
   61.1240   32.8890   48.8700 C   0  0  0  0  0  0  0  0  0  0  0  0
   62.0880   33.8760   48.6090 C   0  0  0  0  0  0  0  0  0  0  0  0
   62.0053   34.8628   49.0878 H   0  0  0  0  0  0  0  0  0  0  0  0
   63.1500   33.6100   47.7450 C   0  0  0  0  0  0  0  0  0  0  0  0
   63.9073   34.3838   47.5508 H   0  0  0  0  0  0  0  0  0  0  0  0
   63.2530   32.3640   47.1270 C   0  0  0  0  0  0  0  0  0  0  0  0
   64.0869   32.1615   46.4388 H   0  0  0  0  0  0  0  0  0  0  0  0
   62.3020   31.3720   47.3780 C   0  0  0  0  0  0  0  0  0  0  0  0
   62.3876   30.3966   46.8768 H   0  0  0  0  0  0  0  0  0  0  0  0
   61.2350   31.6080   48.2660 C   0  0  0  0  0  0  0  0  0  0  0  0
   59.2520   30.3070   45.8300 C   0  0  0  0  0  0  0  0  0  0  0  0
   60.1420   30.9471   45.9206 H   0  0  0  0  0  0  0  0  0  0  0  0
   58.2530   30.6420   44.9160 C   0  0  0  0  0  0  0  0  0  0  0  0
   58.3543   31.5478   44.3002 H   0  0  0  0  0  0  0  0  0  0  0  0
   57.1280   29.8330   44.7810 C   0  0  0  0  0  0  0  0  0  0  0  0
   56.3238   30.1226   44.0886 H   0  0  0  0  0  0  0  0  0  0  0  0
   57.0180   28.6540   45.5230 C   0  0  0  0  0  0  0  0  0  0  0  0
   55.9300   27.8600   45.3460 N   0  0  0  0  0  0  0  0  0  0  0  0
  1  2  1  0
  2  3  2  0
  3  4  1  0
  4  5  1  0
  5  6  2  0
  5  7  1  0
  7  8  2  0
  8  9  1  0
  9 10  1  0
 10 11  2  0
 11 12  1  0
 11 13  1  0
 13 14  1  0
 13 15  2  0
 15 16  1  0
 15 17  1  0
 17 18  2  0
 18 19  1  0
 18 20  1  0
 20 21  1  0
 20 22  2  0
 22 23  1  0
 22 24  1  0
 24 25  1  0
 24 26  2  0
  8 27  1  0
 27 28  1  0
 27 29  2  0
 29 30  1  0
 29 31  1  0
 31 32  1  0
 31 33  2  0
 33 34  1  0
 34  3  1  0
 33  7  1  0
 26 10  1  0
 26 17  1  0
M  CHG  3   4  -1  12  -1  34  -1
M  END
>  <UniqueID>  (26) 
23

>  <SMILES>  (26) 
[H]/N=c1\[n-]c(=O)c2c(Sc3c([O-])ccc4ccccc34)cccc2[n-]1

>  <Energy>  (26) 
51.53732894818777

>  <Genealogy>  (26) 
N=c1[n-]c(=O)c2c(Sc3c([O-])ccc4ccccc34)cccc2[n-]1 (protonated)
[H]/N=c1\[n-]c(=O)c2c(Sc3c([O-])ccc4ccccc34)cccc2[n-]1 (cis-trans isomerization)
[H]/N=c1\[n-]c(=O)c2c(Sc3c([O-])ccc4ccccc34)cccc2[n-]1 (3D coordinates assigned)
[H]/N=c1\[n-]c(=O)c2c(Sc3c([O-])ccc4ccccc34)cccc2[n-]1 (optimized conformer: 51.53732894818777 kcal/mol)

>  <smiles>  (26) 
N=c1[nH]c(=O)c2c(Sc3c(O)ccc4ccccc34)cccc2[nH]1

>  <score_type>  (26) 
oracle

>  <origin>  (26) 
adg

>  <m_score__min__energy>  (26) 
-13.26

>  <m_primary>  (26) 
energy

$$$$
26:0
     RDKit          3D

 62 65  0  0  0  0  0  0  0  0999 V2000
   60.0590   29.2790   48.9940 O   0  0  0  0  0  0  0  0  0  0  0  0
   60.4090   29.7070   47.8600 C   0  0  0  0  0  0  0  0  0  0  0  0
   61.1090   30.9510   47.7480 N   0  0  0  0  0  0  0  0  0  0  0  0
   60.5780   32.1230   47.1200 C   0  0  0  0  0  0  0  0  0  0  0  0
   59.2590   32.0920   46.6490 C   0  0  0  0  0  0  0  0  0  0  0  0
   58.6990   33.2100   46.0140 C   0  0  0  0  0  0  0  0  0  0  0  0
   57.3080   33.1590   45.5250 C   0  0  0  0  0  0  0  0  0  0  0  0
   56.6740   34.2350   45.3690 O   0  0  0  0  0  0  0  0  0  0  0  0
   56.6440   31.9200   45.2360 N   0  0  0  0  0  0  0  0  0  0  0  0
   56.6420   31.2350   43.9420 C   0  0  0  0  0  0  0  0  0  0  0  0
   58.0590   30.8400   43.5380 C   0  0  0  0  0  0  0  0  0  0  0  0
   58.3090   29.4750   44.1690 C   0  0  0  0  0  0  0  0  0  0  0  0
   56.9400   28.8830   44.4950 C   0  0  0  0  0  0  0  0  0  0  0  0
   55.8990   29.9130   44.0680 C   0  0  0  0  0  0  0  0  0  0  0  0
   59.4520   34.3870   45.9020 C   0  0  0  0  0  0  0  0  0  0  0  0
   60.7570   34.4370   46.3980 C   0  0  0  0  0  0  0  0  0  0  0  0
   61.3250   33.3160   47.0130 C   0  0  0  0  0  0  0  0  0  0  0  0
   62.9250   33.4790   47.7240 Cl  0  0  0  0  0  0  0  0  0  0  0  0
   60.1030   28.9650   46.6710 N   0  0  0  0  0  0  0  0  0  0  0  0
   59.4460   27.6860   46.6730 C   0  0  0  0  0  0  0  0  0  0  0  0
   60.0980   26.5270   46.2160 C   0  0  0  0  0  0  0  0  0  0  0  0
   59.4440   25.2930   46.2430 C   0  0  0  0  0  0  0  0  0  0  0  0
   58.1240   25.2000   46.7110 C   0  0  0  0  0  0  0  0  0  0  0  0
   57.4460   23.8600   46.8220 C   0  0  0  0  0  0  0  0  0  0  0  0
   56.6170   23.5380   45.5720 C   0  0  0  0  0  0  0  0  0  0  0  0
   57.4780   23.5450   44.3640 N   0  0  0  0  0  0  0  0  0  0  0  0
   56.7560   24.0000   43.1610 C   0  0  0  0  0  0  0  0  0  0  0  0
   55.7260   22.9480   42.6840 C   0  0  0  0  0  0  0  0  0  0  0  0
   55.9180   21.6760   43.2800 O   0  0  0  0  0  0  0  0  0  0  0  0
   57.2820   21.3160   43.2170 C   0  0  0  0  0  0  0  0  0  0  0  0
   58.1320   22.2380   44.1170 C   0  0  0  0  0  0  0  0  0  0  0  0
   57.4640   26.3620   47.1400 C   0  0  0  0  0  0  0  0  0  0  0  0
   58.1170   27.5960   47.1100 C   0  0  0  0  0  0  0  0  0  0  0  0
   58.6562   31.1811   46.7786 H   0  0  0  0  0  0  0  0  0  0  0  0
   56.1833   31.9199   43.2136 H   0  0  0  0  0  0  0  0  0  0  0  0
   58.1407   30.7759   42.4429 H   0  0  0  0  0  0  0  0  0  0  0  0
   58.7969   31.5823   43.8764 H   0  0  0  0  0  0  0  0  0  0  0  0
   58.8449   28.8237   43.4629 H   0  0  0  0  0  0  0  0  0  0  0  0
   58.9259   29.5658   45.0752 H   0  0  0  0  0  0  0  0  0  0  0  0
   56.7923   27.9440   43.9414 H   0  0  0  0  0  0  0  0  0  0  0  0
   56.8538   28.6576   45.5682 H   0  0  0  0  0  0  0  0  0  0  0  0
   55.4559   29.6303   43.1017 H   0  0  0  0  0  0  0  0  0  0  0  0
   55.0778   29.9809   44.7967 H   0  0  0  0  0  0  0  0  0  0  0  0
   59.0138   35.2744   45.4219 H   0  0  0  0  0  0  0  0  0  0  0  0
   61.3419   35.3639   46.3044 H   0  0  0  0  0  0  0  0  0  0  0  0
   60.2300   29.4540   45.7560 H   0  0  0  0  0  0  0  0  0  0  0  0
   61.1280   26.5924   45.8354 H   0  0  0  0  0  0  0  0  0  0  0  0
   59.9662   24.3893   45.8956 H   0  0  0  0  0  0  0  0  0  0  0  0
   58.2129   23.0821   46.9512 H   0  0  0  0  0  0  0  0  0  0  0  0
   56.7658   23.8905   47.6859 H   0  0  0  0  0  0  0  0  0  0  0  0
   56.1607   22.5436   45.6860 H   0  0  0  0  0  0  0  0  0  0  0  0
   55.8343   24.3023   45.4565 H   0  0  0  0  0  0  0  0  0  0  0  0
   56.2282   24.9365   43.3941 H   0  0  0  0  0  0  0  0  0  0  0  0
   57.4899   24.1531   42.3561 H   0  0  0  0  0  0  0  0  0  0  0  0
   54.7169   23.3052   42.9373 H   0  0  0  0  0  0  0  0  0  0  0  0
   55.8577   22.8265   41.5987 H   0  0  0  0  0  0  0  0  0  0  0  0
   57.3968   20.2756   43.5552 H   0  0  0  0  0  0  0  0  0  0  0  0
   57.6275   21.4200   42.1778 H   0  0  0  0  0  0  0  0  0  0  0  0
   58.2954   21.7366   45.0824 H   0  0  0  0  0  0  0  0  0  0  0  0
   59.0822   22.4310   43.5974 H   0  0  0  0  0  0  0  0  0  0  0  0
   56.4270   26.3003   47.5017 H   0  0  0  0  0  0  0  0  0  0  0  0
   57.5850   28.5035   47.4314 H   0  0  0  0  0  0  0  0  0  0  0  0
  1  2  2  0
  2  3  1  0
  3  4  1  0
  4  5  2  0
  5  6  1  0
  6  7  1  0
  7  8  2  0
  7  9  1  0
  9 10  1  0
 10 11  1  0
 11 12  1  0
 12 13  1  0
 13 14  1  0
  6 15  2  0
 15 16  1  0
 16 17  2  0
 17 18  1  0
  2 19  1  0
 19 20  1  0
 20 21  2  0
 21 22  1  0
 22 23  2  0
 23 24  1  0
 24 25  1  0
 25 26  1  0
 26 27  1  0
 27 28  1  0
 28 29  1  0
 29 30  1  0
 30 31  1  0
 23 32  1  0
 32 33  2  0
 17  4  1  0
 33 20  1  0
 14 10  1  0
 31 26  1  0
  5 34  1  0
 10 35  1  0
 11 36  1  0
 11 37  1  0
 12 38  1  0
 12 39  1  0
 13 40  1  0
 13 41  1  0
 14 42  1  0
 14 43  1  0
 15 44  1  0
 16 45  1  0
 19 46  1  0
 21 47  1  0
 22 48  1  0
 24 49  1  0
 24 50  1  0
 25 51  1  0
 25 52  1  0
 27 53  1  0
 27 54  1  0
 28 55  1  0
 28 56  1  0
 30 57  1  0
 30 58  1  0
 31 59  1  0
 31 60  1  0
 32 61  1  0
 33 62  1  0
M  CHG  2   3  -1   9  -1
M  END
>  <UniqueID>  (27) 
24

>  <SMILES>  (27) 
O=C([N-]c1cc(C(=O)[N-]C2CCCC2)ccc1Cl)Nc1ccc(CCN2CCOCC2)cc1

>  <Energy>  (27) 
88.31608338486078

>  <Genealogy>  (27) 
O=C([N-]c1cc(C(=O)[N-]C2CCCC2)ccc1Cl)Nc1ccc(CCN2CCOCC2)cc1 (protonated)
O=C([N-]c1cc(C(=O)[N-]C2CCCC2)ccc1Cl)Nc1ccc(CCN2CCOCC2)cc1 (3D coordinates assigned)
O=C([N-]c1cc(C(=O)[N-]C2CCCC2)ccc1Cl)Nc1ccc(CCN2CCOCC2)cc1 (nonaromatic ring conformer: 88.31608338486078 kcal/mol)

>  <smiles>  (27) 
O=C(Nc1ccc(CCN2CCOCC2)cc1)Nc1cc(C(=O)NC2CCCC2)ccc1Cl

>  <score_type>  (27) 
oracle

>  <origin>  (27) 
adg

>  <m_score__min__energy>  (27) 
-12.119999999999999

>  <m_primary>  (27) 
energy

$$$$
27:0
     RDKit          3D

 52 54  0  0  0  0  0  0  0  0999 V2000
   59.0000   35.9270   47.5640 H   0  0  0  0  0  0  0  0  0  0  0  0
   59.3340   35.0460   48.0140 N   0  0  0  0  0  0  0  0  0  0  0  0
   59.3450   33.9220   47.3740 C   0  0  0  0  0  0  0  0  0  0  0  0
   60.2830   32.9830   47.6620 N   0  0  0  0  0  0  0  0  0  0  0  0
   60.3370   31.7830   47.0240 C   0  0  0  0  0  0  0  0  0  0  0  0
   61.4260   30.8270   47.4130 C   0  0  0  0  0  0  0  0  0  0  0  0
   61.4901   30.7708   48.5097 H   0  0  0  0  0  0  0  0  0  0  0  0
   61.2006   29.8297   47.0072 H   0  0  0  0  0  0  0  0  0  0  0  0
   62.3857   31.1796   47.0072 H   0  0  0  0  0  0  0  0  0  0  0  0
   59.3700   31.4670   46.0360 C   0  0  0  0  0  0  0  0  0  0  0  0
   59.4170   30.1360   45.3060 C   0  0  0  0  0  0  0  0  0  0  0  0
   59.3262   30.3136   44.2242 H   0  0  0  0  0  0  0  0  0  0  0  0
   60.3733   29.6415   45.5315 H   0  0  0  0  0  0  0  0  0  0  0  0
   58.3240   29.2700   45.7440 N   0  0  0  0  0  0  0  0  0  0  0  0
   57.3810   29.6850   45.9110 H   0  0  0  0  0  0  0  0  0  0  0  0
   58.5390   27.8770   46.0120 C   0  0  0  0  0  0  0  0  0  0  0  0
   59.7150   27.4260   46.0670 O   0  0  0  0  0  0  0  0  0  0  0  0
   57.4070   26.9570   46.2440 C   0  0  0  0  0  0  0  0  0  0  0  0
   56.0750   27.1220   45.9040 C   0  0  0  0  0  0  0  0  0  0  0  0
   55.5350   28.2230   45.2530 O   0  0  0  0  0  0  0  0  0  0  0  0
   55.3370   26.0510   46.2530 N   0  0  0  0  0  0  0  0  0  0  0  0
   56.2140   25.1900   46.8080 C   0  0  0  0  0  0  0  0  0  0  0  0
   55.8200   23.8530   47.3570 C   0  0  0  0  0  0  0  0  0  0  0  0
   56.7230   23.3165   47.6838 H   0  0  0  0  0  0  0  0  0  0  0  0
   55.1387   24.0064   48.2069 H   0  0  0  0  0  0  0  0  0  0  0  0
   55.1480   23.0780   46.3640 O   0  0  0  0  0  0  0  0  0  0  0  0
   55.7180   22.6240   45.1610 C   0  0  0  0  0  0  0  0  0  0  0  0
   55.6090   23.3550   43.9590 C   0  0  0  0  0  0  0  0  0  0  0  0
   55.0665   24.3119   43.9487 H   0  0  0  0  0  0  0  0  0  0  0  0
   56.1850   22.8720   42.7830 C   0  0  0  0  0  0  0  0  0  0  0  0
   56.0980   23.4499   41.8511 H   0  0  0  0  0  0  0  0  0  0  0  0
   56.8710   21.6570   42.7880 C   0  0  0  0  0  0  0  0  0  0  0  0
   57.3221   21.2776   41.8593 H   0  0  0  0  0  0  0  0  0  0  0  0
   56.9860   20.9220   43.9690 C   0  0  0  0  0  0  0  0  0  0  0  0
   57.5252   19.9632   43.9663 H   0  0  0  0  0  0  0  0  0  0  0  0
   56.4170   21.4000   45.1610 C   0  0  0  0  0  0  0  0  0  0  0  0
   56.5720   20.4750   46.6610 S   0  0  0  0  0  0  0  0  0  0  0  0
   55.2010   20.1770   47.1980 O   0  0  0  0  0  0  0  0  0  0  0  0
   57.3340   21.2910   47.6660 O   0  0  0  0  0  0  0  0  0  0  0  0
   57.4380   18.9360   46.4260 C   0  0  0  0  0  0  0  0  0  0  0  0
   57.6833   18.5000   47.4057 H   0  0  0  0  0  0  0  0  0  0  0  0
   56.8000   18.2384   45.8636 H   0  0  0  0  0  0  0  0  0  0  0  0
   58.3654   19.1193   45.8636 H   0  0  0  0  0  0  0  0  0  0  0  0
   57.4960   25.7090   46.8220 C   0  0  0  0  0  0  0  0  0  0  0  0
   58.4021   25.2244   47.2145 H   0  0  0  0  0  0  0  0  0  0  0  0
   58.4100   32.4540   45.6910 C   0  0  0  0  0  0  0  0  0  0  0  0
   57.3840   32.2210   44.6130 C   0  0  0  0  0  0  0  0  0  0  0  0
   56.4105   31.9999   45.0750 H   0  0  0  0  0  0  0  0  0  0  0  0
   57.2972   33.1223   43.9884 H   0  0  0  0  0  0  0  0  0  0  0  0
   57.6950   31.3706   43.9884 H   0  0  0  0  0  0  0  0  0  0  0  0
   58.3960   33.6730   46.3840 C   0  0  0  0  0  0  0  0  0  0  0  0
   57.6364   34.4323   46.1464 H   0  0  0  0  0  0  0  0  0  0  0  0
  1  2  1  0
  2  3  2  0
  3  4  1  0
  4  5  1  0
  5  6  1  0
  6  7  1  0
  6  8  1  0
  6  9  1  0
  5 10  2  0
 10 11  1  0
 11 12  1  0
 11 13  1  0
 11 14  1  0
 14 15  1  0
 14 16  1  0
 16 17  2  0
 16 18  1  0
 18 19  2  0
 19 20  1  0
 19 21  1  0
 21 22  1  0
 22 23  1  0
 23 24  1  0
 23 25  1  0
 23 26  1  0
 26 27  1  0
 27 28  2  0
 28 29  1  0
 28 30  1  0
 30 31  1  0
 30 32  2  0
 32 33  1  0
 32 34  1  0
 34 35  1  0
 34 36  2  0
 36 37  1  0
 37 38  2  0
 37 39  2  0
 37 40  1  0
 40 41  1  0
 40 42  1  0
 40 43  1  0
 22 44  2  0
 44 45  1  0
 10 46  1  0
 46 47  1  0
 47 48  1  0
 47 49  1  0
 47 50  1  0
 46 51  2  0
 51 52  1  0
 51  3  1  0
 44 18  1  0
 36 27  1  0
M  CHG  3   4  -1  20  -1  21  -1
M  END
>  <UniqueID>  (28) 
25

>  <SMILES>  (28) 
[H]/N=c1/cc(C)c(CNC(=O)c2cc(COc3ccccc3S(C)(=O)=O)[n-]c2[O-])c(C)[n-]1

>  <Energy>  (28) 
78.48677186774324

>  <Genealogy>  (28) 
Cc1cc(=N)[n-]c(C)c1CNC(=O)c1cc(COc2ccccc2S(C)(=O)=O)[n-]c1[O-] (protonated)
[H]/N=c1/cc(C)c(CNC(=O)c2cc(COc3ccccc3S(C)(=O)=O)[n-]c2[O-])c(C)[n-]1 (cis-trans isomerization)
[H]/N=c1/cc(C)c(CNC(=O)c2cc(COc3ccccc3S(C)(=O)=O)[n-]c2[O-])c(C)[n-]1 (3D coordinates assigned)
[H]/N=c1/cc(C)c(CNC(=O)c2cc(COc3ccccc3S(C)(=O)=O)[n-]c2[O-])c(C)[n-]1 (optimized conformer: 78.48677186774324 kcal/mol)

>  <smiles>  (28) 
Cc1cc(=N)[nH]c(C)c1CNC(=O)c1cc(COc2ccccc2S(C)(=O)=O)[nH]c1O

>  <score_type>  (28) 
oracle

>  <origin>  (28) 
adg

>  <m_score__min__energy>  (28) 
-16.039999999999999

>  <m_primary>  (28) 
energy

$$$$
28:0
     RDKit          3D

 51 54  0  0  0  0  0  0  0  0999 V2000
   51.0560   32.3290   50.4150 N   0  0  0  0  0  0  0  0  0  0  0  0
   50.9400   32.3370   51.8370 C   0  0  0  0  0  0  0  0  0  0  0  0
   50.1080   33.1180   52.3710 O   0  0  0  0  0  0  0  0  0  0  0  0
   51.7810   31.4490   52.6890 C   0  0  0  0  0  0  0  0  0  0  0  0
   51.2570   30.9880   53.9120 C   0  0  0  0  0  0  0  0  0  0  0  0
   52.0130   30.1780   54.7540 C   0  0  0  0  0  0  0  0  0  0  0  0
   53.3040   29.8060   54.3940 C   0  0  0  0  0  0  0  0  0  0  0  0
   53.8570   30.2390   53.1810 C   0  0  0  0  0  0  0  0  0  0  0  0
   55.2460   29.8380   52.8580 C   0  0  0  0  0  0  0  0  0  0  0  0
   55.4650   28.6970   52.3730 O   0  0  0  0  0  0  0  0  0  0  0  0
   56.3620   30.6880   53.1620 N   0  0  0  0  0  0  0  0  0  0  0  0
   57.2560   31.2810   52.2060 C   0  0  0  0  0  0  0  0  0  0  0  0
   57.7250   32.5790   52.4280 C   0  0  0  0  0  0  0  0  0  0  0  0
   58.5890   33.1850   51.5120 C   0  0  0  0  0  0  0  0  0  0  0  0
   58.9930   32.4940   50.3650 C   0  0  0  0  0  0  0  0  0  0  0  0
   58.5490   31.1800   50.1360 C   0  0  0  0  0  0  0  0  0  0  0  0
   58.9410   30.4490   48.9070 C   0  0  0  0  0  0  0  0  0  0  0  0
   59.0610   29.0480   48.9250 C   0  0  0  0  0  0  0  0  0  0  0  0
   59.4230   28.3520   47.7690 C   0  0  0  0  0  0  0  0  0  0  0  0
   59.6790   29.0410   46.5710 C   0  0  0  0  0  0  0  0  0  0  0  0
   60.0470   28.3010   45.3410 C   0  0  0  0  0  0  0  0  0  0  0  0
   61.0220   28.6910   44.6420 O   0  0  0  0  0  0  0  0  0  0  0  0
   59.3570   27.0900   44.9970 N   0  0  0  0  0  0  0  0  0  0  0  0
   58.2420   26.6160   45.4850 C   0  0  0  0  0  0  0  0  0  0  0  0
   58.2890   25.3750   46.1350 C   0  0  0  0  0  0  0  0  0  0  0  0
   57.1260   24.8230   46.6770 C   0  0  0  0  0  0  0  0  0  0  0  0
   55.9510   25.4970   46.5930 N   0  0  0  0  0  0  0  0  0  0  0  0
   55.8680   26.7130   45.9930 C   0  0  0  0  0  0  0  0  0  0  0  0
   57.0050   27.3060   45.4360 C   0  0  0  0  0  0  0  0  0  0  0  0
   56.8900   28.5620   44.9390 F   0  0  0  0  0  0  0  0  0  0  0  0
   59.5610   30.4430   46.5540 C   0  0  0  0  0  0  0  0  0  0  0  0
   59.1930   31.1390   47.7090 C   0  0  0  0  0  0  0  0  0  0  0  0
   57.7020   30.5720   51.0780 C   0  0  0  0  0  0  0  0  0  0  0  0
   53.0980   31.0710   52.3210 C   0  0  0  0  0  0  0  0  0  0  0  0
   53.6470   31.5540   51.1280 O   0  0  0  0  0  0  0  0  0  0  0  0
   51.9900   32.3810   49.9510 H   0  0  0  0  0  0  0  0  0  0  0  0
   50.2358   31.2721   54.2059 H   0  0  0  0  0  0  0  0  0  0  0  0
   51.5882   29.8308   55.7074 H   0  0  0  0  0  0  0  0  0  0  0  0
   53.8955   29.1672   55.0663 H   0  0  0  0  0  0  0  0  0  0  0  0
   57.4121   33.1267   53.3292 H   0  0  0  0  0  0  0  0  0  0  0  0
   58.9521   34.2074   51.6934 H   0  0  0  0  0  0  0  0  0  0  0  0
   59.6609   32.9808   49.6391 H   0  0  0  0  0  0  0  0  0  0  0  0
   58.8683   28.4958   49.8566 H   0  0  0  0  0  0  0  0  0  0  0  0
   59.5084   27.2557   47.7966 H   0  0  0  0  0  0  0  0  0  0  0  0
   59.2436   24.8348   46.2184 H   0  0  0  0  0  0  0  0  0  0  0  0
   57.1625   23.8414   47.1722 H   0  0  0  0  0  0  0  0  0  0  0  0
   54.9005   27.2341   45.9451 H   0  0  0  0  0  0  0  0  0  0  0  0
   59.7600   30.9959   45.6241 H   0  0  0  0  0  0  0  0  0  0  0  0
   59.1000   32.2347   47.6800 H   0  0  0  0  0  0  0  0  0  0  0  0
   57.3845   29.5292   50.9306 H   0  0  0  0  0  0  0  0  0  0  0  0
   53.0990   31.9610   50.3840 H   0  0  0  0  0  0  0  0  0  0  0  0
  1  2  1  0
  2  3  2  0
  2  4  1  0
  4  5  2  0
  5  6  1  0
  6  7  2  0
  7  8  1  0
  8  9  1  0
  9 10  2  0
  9 11  1  0
 11 12  1  0
 12 13  2  0
 13 14  1  0
 14 15  2  0
 15 16  1  0
 16 17  1  0
 17 18  2  0
 18 19  1  0
 19 20  2  0
 20 21  1  0
 21 22  2  0
 21 23  1  0
 23 24  2  3
 24 25  1  0
 25 26  2  0
 26 27  1  0
 27 28  1  0
 28 29  2  0
 29 30  1  0
 20 31  1  0
 31 32  2  0
 16 33  2  0
  8 34  2  0
 34 35  1  0
 34  4  1  0
 33 12  1  0
 32 17  1  0
 29 24  1  0
  1 36  1  0
  5 37  1  0
  6 38  1  0
  7 39  1  0
 13 40  1  0
 14 41  1  0
 15 42  1  0
 18 43  1  0
 19 44  1  0
 25 45  1  0
 26 46  1  0
 28 47  1  0
 31 48  1  0
 32 49  1  0
 33 50  1  0
 35 51  1  0
M  CHG  3   1  -1  11  -1  27  -1
M  END
>  <UniqueID>  (29) 
26

>  <SMILES>  (29) 
[NH-]C(=O)c1cccc(C(=O)[N-]c2cccc(-c3ccc(C(=O)N=c4cc[n-]cc4F)cc3)c2)c1O

>  <Energy>  (29) 
84.91548518851506

>  <Genealogy>  (29) 
[NH-]C(=O)c1cccc(C(=O)[N-]c2cccc(-c3ccc(C(=O)N=c4cc[n-]cc4F)cc3)c2)c1O (protonated)
[NH-]C(=O)c1cccc(C(=O)[N-]c2cccc(-c3ccc(C(=O)N=c4cc[n-]cc4F)cc3)c2)c1O (3D coordinates assigned)
[NH-]C(=O)c1cccc(C(=O)[N-]c2cccc(-c3ccc(C(=O)N=c4cc[n-]cc4F)cc3)c2)c1O (optimized conformer: 84.91548518851506 kcal/mol)

>  <smiles>  (29) 
NC(=O)c1cccc(C(=O)Nc2cccc(-c3ccc(C(=O)N=c4cc[nH]cc4F)cc3)c2)c1O

>  <score_type>  (29) 
oracle

>  <origin>  (29) 
adg

>  <m_score__min__energy>  (29) 
-15.93

>  <m_primary>  (29) 
energy

$$$$
29:0
     RDKit          3D

 57 59  0  0  0  0  0  0  0  0999 V2000
   61.7170   30.1690   51.5130 C   0  0  0  0  0  0  0  0  0  0  0  0
   60.4240   30.9380   51.7510 C   0  0  0  0  0  0  0  0  0  0  0  0
   60.2010   31.9160   50.6890 N   0  0  0  0  0  0  0  0  0  0  0  0
   60.5710   33.2970   50.8180 C   0  0  0  0  0  0  0  0  0  0  0  0
   60.9580   33.7470   51.9280 O   0  0  0  0  0  0  0  0  0  0  0  0
   60.4220   34.2010   49.7140 N   0  0  0  0  0  0  0  0  0  0  0  0
   59.7080   34.0250   48.6380 C   0  0  0  0  0  0  0  0  0  0  0  0
   59.8890   34.7920   47.4690 C   0  0  0  0  0  0  0  0  0  0  0  0
   59.0790   34.5560   46.3580 C   0  0  0  0  0  0  0  0  0  0  0  0
   58.0740   33.5770   46.4090 C   0  0  0  0  0  0  0  0  0  0  0  0
   57.1940   33.3330   45.2410 C   0  0  0  0  0  0  0  0  0  0  0  0
   56.8600   34.2950   44.4970 O   0  0  0  0  0  0  0  0  0  0  0  0
   56.7740   31.9980   44.9290 N   0  0  0  0  0  0  0  0  0  0  0  0
   57.5820   30.8080   44.9220 C   0  0  0  0  0  0  0  0  0  0  0  0
   58.7870   30.7320   45.6430 C   0  0  0  0  0  0  0  0  0  0  0  0
   59.5730   29.5740   45.6060 C   0  0  0  0  0  0  0  0  0  0  0  0
   60.7690   29.5240   46.3980 N   0  0  0  0  0  0  0  0  0  0  0  0
   61.0070   30.2290   47.6230 C   0  0  0  0  0  0  0  0  0  0  0  0
   60.3520   29.8970   48.6460 O   0  0  0  0  0  0  0  0  0  0  0  0
   61.9520   31.3670   47.7030 C   0  0  0  0  0  0  0  0  0  0  0  0
   61.9200   32.3980   46.7470 C   0  0  0  0  0  0  0  0  0  0  0  0
   62.8050   33.4750   46.8420 C   0  0  0  0  0  0  0  0  0  0  0  0
   63.7220   33.5400   47.8940 C   0  0  0  0  0  0  0  0  0  0  0  0
   63.7600   32.5260   48.8590 C   0  0  0  0  0  0  0  0  0  0  0  0
   64.8870   32.6190   50.2080 S   0  0  0  0  0  0  0  0  0  0  0  0
   64.3000   33.8140   51.3890 C   0  0  0  0  0  0  0  0  0  0  0  0
   65.0000   31.2730   50.8690 O   0  0  0  0  0  0  0  0  0  0  0  0
   66.2460   33.0330   49.7170 O   0  0  0  0  0  0  0  0  0  0  0  0
   62.8700   31.4470   48.7660 C   0  0  0  0  0  0  0  0  0  0  0  0
   59.1440   28.4740   44.8480 C   0  0  0  0  0  0  0  0  0  0  0  0
   57.9660   28.5480   44.1050 C   0  0  0  0  0  0  0  0  0  0  0  0
   57.1820   29.7130   44.1290 C   0  0  0  0  0  0  0  0  0  0  0  0
   55.9120   29.7780   43.3240 C   0  0  0  0  0  0  0  0  0  0  0  0
   57.9130   32.8500   47.6000 C   0  0  0  0  0  0  0  0  0  0  0  0
   58.7190   33.0920   48.6660 N   0  0  0  0  0  0  0  0  0  0  0  0
   62.1676   29.9010   52.4801 H   0  0  0  0  0  0  0  0  0  0  0  0
   61.4995   29.2534   50.9435 H   0  0  0  0  0  0  0  0  0  0  0  0
   62.4177   30.7972   50.9435 H   0  0  0  0  0  0  0  0  0  0  0  0
   59.5820   30.2305   51.7727 H   0  0  0  0  0  0  0  0  0  0  0  0
   60.5009   31.4700   52.7107 H   0  0  0  0  0  0  0  0  0  0  0  0
   59.7780   31.5860   49.7920 H   0  0  0  0  0  0  0  0  0  0  0  0
   60.6641   35.5717   47.4332 H   0  0  0  0  0  0  0  0  0  0  0  0
   59.2284   35.1397   45.4377 H   0  0  0  0  0  0  0  0  0  0  0  0
   59.1160   31.5930   46.2434 H   0  0  0  0  0  0  0  0  0  0  0  0
   61.1950   32.3563   45.9208 H   0  0  0  0  0  0  0  0  0  0  0  0
   62.7797   34.2740   46.0864 H   0  0  0  0  0  0  0  0  0  0  0  0
   64.4163   34.3903   47.9645 H   0  0  0  0  0  0  0  0  0  0  0  0
   64.4825   33.4425   52.4082 H   0  0  0  0  0  0  0  0  0  0  0  0
   64.8335   34.7650   51.2444 H   0  0  0  0  0  0  0  0  0  0  0  0
   63.2212   33.9731   51.2444 H   0  0  0  0  0  0  0  0  0  0  0  0
   62.8896   30.6563   49.5305 H   0  0  0  0  0  0  0  0  0  0  0  0
   59.7394   27.5491   44.8397 H   0  0  0  0  0  0  0  0  0  0  0  0
   57.6489   27.6884   43.4963 H   0  0  0  0  0  0  0  0  0  0  0  0
   55.0486   29.8222   44.0042 H   0  0  0  0  0  0  0  0  0  0  0  0
   55.9255   30.6766   42.6897 H   0  0  0  0  0  0  0  0  0  0  0  0
   55.8337   28.8827   42.6897 H   0  0  0  0  0  0  0  0  0  0  0  0
   57.1300   32.0806   47.6697 H   0  0  0  0  0  0  0  0  0  0  0  0
  1  2  1  0
  2  3  1  0
  3  4  1  0
  4  5  2  0
  4  6  1  0
  6  7  2  3
  7  8  1  0
  8  9  2  0
  9 10  1  0
 10 11  1  0
 11 12  2  0
 11 13  1  0
 13 14  1  0
 14 15  2  0
 15 16  1  0
 16 17  1  0
 17 18  1  0
 18 19  2  0
 18 20  1  0
 20 21  2  0
 21 22  1  0
 22 23  2  0
 23 24  1  0
 24 25  1  0
 25 26  1  0
 25 27  2  0
 25 28  2  0
 24 29  2  0
 16 30  2  0
 30 31  1  0
 31 32  2  0
 32 33  1  0
 10 34  2  0
 34 35  1  0
 35  7  1  0
 32 14  1  0
 29 20  1  0
  1 36  1  0
  1 37  1  0
  1 38  1  0
  2 39  1  0
  2 40  1  0
  3 41  1  0
  8 42  1  0
  9 43  1  0
 15 44  1  0
 21 45  1  0
 22 46  1  0
 23 47  1  0
 26 48  1  0
 26 49  1  0
 26 50  1  0
 29 51  1  0
 30 52  1  0
 31 53  1  0
 33 54  1  0
 33 55  1  0
 33 56  1  0
 34 57  1  0
M  CHG  3  13  -1  17  -1  35  -1
M  END
>  <UniqueID>  (30) 
27

>  <SMILES>  (30) 
CCNC(=O)N=c1ccc(C(=O)[N-]c2cc([N-]C(=O)c3cccc(S(C)(=O)=O)c3)ccc2C)c[n-]1

>  <Energy>  (30) 
71.95569227449657

>  <Genealogy>  (30) 
CCNC(=O)N=c1ccc(C(=O)[N-]c2cc([N-]C(=O)c3cccc(S(C)(=O)=O)c3)ccc2C)c[n-]1 (protonated)
CCNC(=O)N=c1ccc(C(=O)[N-]c2cc([N-]C(=O)c3cccc(S(C)(=O)=O)c3)ccc2C)c[n-]1 (3D coordinates assigned)
CCNC(=O)N=c1ccc(C(=O)[N-]c2cc([N-]C(=O)c3cccc(S(C)(=O)=O)c3)ccc2C)c[n-]1 (optimized conformer: 71.95569227449657 kcal/mol)

>  <smiles>  (30) 
CCNC(=O)N=c1ccc(C(=O)Nc2cc(NC(=O)c3cccc(S(C)(=O)=O)c3)ccc2C)c[nH]1

>  <score_type>  (30) 
oracle

>  <origin>  (30) 
adg

>  <m_score__min__energy>  (30) 
-13.91

>  <m_primary>  (30) 
energy

$$$$
30:0
     RDKit          3D

 38 40  0  0  0  0  0  0  0  0999 V2000
   56.4860   22.9510   45.0130 C   0  0  0  0  0  0  0  0  0  0  0  0
   56.8490   23.8630   46.5000 S   0  0  0  0  0  0  0  0  0  0  0  0
   55.6990   24.7840   46.7910 O   0  0  0  0  0  0  0  0  0  0  0  0
   57.0210   22.9170   47.6550 O   0  0  0  0  0  0  0  0  0  0  0  0
   58.2650   24.8010   46.2890 O   0  0  0  0  0  0  0  0  0  0  0  0
   58.3170   26.2020   46.2860 C   0  0  0  0  0  0  0  0  0  0  0  0
   59.2190   26.9390   47.0990 C   0  0  0  0  0  0  0  0  0  0  0  0
   59.2340   28.3430   47.0610 C   0  0  0  0  0  0  0  0  0  0  0  0
   58.3450   29.0020   46.2150 C   0  0  0  0  0  0  0  0  0  0  0  0
   58.2640   30.3510   46.0890 N   0  0  0  0  0  0  0  0  0  0  0  0
   57.2970   30.6910   45.1990 C   0  0  0  0  0  0  0  0  0  0  0  0
   57.0190   31.9140   44.8590 N   0  0  0  0  0  0  0  0  0  0  0  0
   57.6170   33.0980   45.4080 C   0  0  0  0  0  0  0  0  0  0  0  0
   57.0600   34.2070   45.1990 O   0  0  0  0  0  0  0  0  0  0  0  0
   58.7920   33.0220   46.2350 N   0  0  0  0  0  0  0  0  0  0  0  0
   59.6470   34.1460   46.5100 C   0  0  0  0  0  0  0  0  0  0  0  0
   59.2690   35.3130   46.2140 O   0  0  0  0  0  0  0  0  0  0  0  0
   60.9700   33.9520   47.1490 C   0  0  0  0  0  0  0  0  0  0  0  0
   62.1290   33.7570   46.3750 C   0  0  0  0  0  0  0  0  0  0  0  0
   63.3730   33.5850   46.9910 C   0  0  0  0  0  0  0  0  0  0  0  0
   63.4750   33.6130   48.3840 C   0  0  0  0  0  0  0  0  0  0  0  0
   64.6810   33.4470   48.9790 F   0  0  0  0  0  0  0  0  0  0  0  0
   62.3340   33.8180   49.1630 C   0  0  0  0  0  0  0  0  0  0  0  0
   61.0880   33.9910   48.5520 C   0  0  0  0  0  0  0  0  0  0  0  0
   56.5280   29.3450   44.5240 S   0  0  0  0  0  0  0  0  0  0  0  0
   57.4620   28.2810   45.4290 C   0  0  0  0  0  0  0  0  0  0  0  0
   57.4260   26.8900   45.4440 C   0  0  0  0  0  0  0  0  0  0  0  0
   56.0912   21.9592   45.2783 H   0  0  0  0  0  0  0  0  0  0  0  0
   55.7369   23.4975   44.4213 H   0  0  0  0  0  0  0  0  0  0  0  0
   57.4058   22.8333   44.4213 H   0  0  0  0  0  0  0  0  0  0  0  0
   59.9127   26.4049   47.7650 H   0  0  0  0  0  0  0  0  0  0  0  0
   59.9356   28.9123   47.6884 H   0  0  0  0  0  0  0  0  0  0  0  0
   59.0020   32.1120   46.6990 H   0  0  0  0  0  0  0  0  0  0  0  0
   62.0561   33.7397   45.2776 H   0  0  0  0  0  0  0  0  0  0  0  0
   64.2724   33.4274   46.3776 H   0  0  0  0  0  0  0  0  0  0  0  0
   62.4156   33.8434   50.2597 H   0  0  0  0  0  0  0  0  0  0  0  0
   60.1943   34.1586   49.1711 H   0  0  0  0  0  0  0  0  0  0  0  0
   56.7149   26.3401   44.8100 H   0  0  0  0  0  0  0  0  0  0  0  0
  1  2  1  0
  2  3  2  0
  2  4  2  0
  2  5  1  0
  5  6  1  0
  6  7  2  0
  7  8  1  0
  8  9  2  0
  9 10  1  0
 10 11  1  0
 11 12  2  3
 12 13  1  0
 13 14  2  0
 13 15  1  0
 15 16  1  0
 16 17  2  0
 16 18  1  0
 18 19  2  0
 19 20  1  0
 20 21  2  0
 21 22  1  0
 21 23  1  0
 23 24  2  0
 11 25  1  0
 25 26  1  0
 26 27  2  0
 27  6  1  0
 26  9  1  0
 24 18  1  0
  1 28  1  0
  1 29  1  0
  1 30  1  0
  7 31  1  0
  8 32  1  0
 15 33  1  0
 19 34  1  0
 20 35  1  0
 23 36  1  0
 24 37  1  0
 27 38  1  0
M  CHG  1  10  -1
M  END
>  <UniqueID>  (31) 
28

>  <SMILES>  (31) 
CS(=O)(=O)Oc1ccc2[n-]c(=NC(=O)NC(=O)c3ccc(F)cc3)sc2c1

>  <Energy>  (31) 
77.90459584679836

>  <Genealogy>  (31) 
CS(=O)(=O)Oc1ccc2[n-]c(=NC(=O)NC(=O)c3ccc(F)cc3)sc2c1 (protonated)
CS(=O)(=O)Oc1ccc2[n-]c(=NC(=O)NC(=O)c3ccc(F)cc3)sc2c1 (3D coordinates assigned)
CS(=O)(=O)Oc1ccc2[n-]c(=NC(=O)NC(=O)c3ccc(F)cc3)sc2c1 (optimized conformer: 77.90459584679836 kcal/mol)

>  <smiles>  (31) 
CS(=O)(=O)Oc1ccc2[nH]c(=NC(=O)NC(=O)c3ccc(F)cc3)sc2c1

>  <score_type>  (31) 
oracle

>  <origin>  (31) 
adg

>  <m_score__min__energy>  (31) 
-9.7699999999999996

>  <m_primary>  (31) 
energy

$$$$
31:0
     RDKit          3D

 31 32  0  0  0  0  0  0  0  0999 V2000
   57.5510   31.9400   42.8520 C   0  0  0  0  0  0  0  0  0  0  0  0
   57.1820   31.6050   44.5590 S   0  0  0  0  0  0  0  0  0  0  0  0
   56.1100   30.5530   44.6230 O   0  0  0  0  0  0  0  0  0  0  0  0
   56.6990   32.8580   45.2290 O   0  0  0  0  0  0  0  0  0  0  0  0
   58.6190   31.0340   45.3440 N   0  0  0  0  0  0  0  0  0  0  0  0
   58.7550   29.7210   45.8940 C   0  0  0  0  0  0  0  0  0  0  0  0
   58.2140   28.6430   45.1820 C   0  0  0  0  0  0  0  0  0  0  0  0
   58.3080   27.3340   45.6780 C   0  0  0  0  0  0  0  0  0  0  0  0
   57.7370   26.1790   44.8960 C   0  0  0  0  0  0  0  0  0  0  0  0
   57.1890   25.1250   45.8300 C   0  0  0  0  0  0  0  0  0  0  0  0
   55.8950   25.2390   46.3730 C   0  0  0  0  0  0  0  0  0  0  0  0
   55.1030   26.3480   46.0900 O   0  0  0  0  0  0  0  0  0  0  0  0
   55.4100   24.2610   47.1830 N   0  0  0  0  0  0  0  0  0  0  0  0
   56.1500   23.1640   47.4800 C   0  0  0  0  0  0  0  0  0  0  0  0
   55.6790   22.2730   48.2330 O   0  0  0  0  0  0  0  0  0  0  0  0
   57.3980   23.0260   46.9660 N   0  0  0  0  0  0  0  0  0  0  0  0
   57.9310   23.9730   46.1500 C   0  0  0  0  0  0  0  0  0  0  0  0
   59.0920   23.8060   45.6920 O   0  0  0  0  0  0  0  0  0  0  0  0
   58.9770   27.1060   46.8900 C   0  0  0  0  0  0  0  0  0  0  0  0
   59.5460   28.1710   47.5900 C   0  0  0  0  0  0  0  0  0  0  0  0
   59.4480   29.4780   47.0980 C   0  0  0  0  0  0  0  0  0  0  0  0
   60.2900   30.7540   47.9680 Cl  0  0  0  0  0  0  0  0  0  0  0  0
   58.3642   32.6782   42.7907 H   0  0  0  0  0  0  0  0  0  0  0  0
   57.8623   31.0095   42.3547 H   0  0  0  0  0  0  0  0  0  0  0  0
   56.6548   32.3395   42.3547 H   0  0  0  0  0  0  0  0  0  0  0  0
   57.7091   28.8250   44.2218 H   0  0  0  0  0  0  0  0  0  0  0  0
   56.9265   26.5457   44.2490 H   0  0  0  0  0  0  0  0  0  0  0  0
   58.5368   25.7326   44.2869 H   0  0  0  0  0  0  0  0  0  0  0  0
   54.3840   26.6530   46.7360 H   0  0  0  0  0  0  0  0  0  0  0  0
   59.0533   26.0842   47.2900 H   0  0  0  0  0  0  0  0  0  0  0  0
   60.0755   27.9820   48.5355 H   0  0  0  0  0  0  0  0  0  0  0  0
  1  2  1  0
  2  3  2  0
  2  4  2  0
  2  5  1  0
  5  6  1  0
  6  7  2  0
  7  8  1  0
  8  9  1  0
  9 10  1  0
 10 11  2  0
 11 12  1  0
 11 13  1  0
 13 14  1  0
 14 15  2  0
 14 16  1  0
 16 17  1  0
 17 18  2  0
  8 19  2  0
 19 20  1  0
 20 21  2  0
 21 22  1  0
 21  6  1  0
 17 10  1  0
  1 23  1  0
  1 24  1  0
  1 25  1  0
  7 26  1  0
  9 27  1  0
  9 28  1  0
 12 29  1  0
 19 30  1  0
 20 31  1  0
M  CHG  3   5  -1  13  -1  16  -1
M  END
>  <UniqueID>  (32) 
29

>  <SMILES>  (32) 
CS(=O)(=O)[N-]c1cc(Cc2c(O)[n-]c(=O)[n-]c2=O)ccc1Cl

>  <Energy>  (32) 
37.69776676810503

>  <Genealogy>  (32) 
CS(=O)(=O)[N-]c1cc(Cc2c(O)[n-]c(=O)[n-]c2=O)ccc1Cl (protonated)
CS(=O)(=O)[N-]c1cc(Cc2c(O)[n-]c(=O)[n-]c2=O)ccc1Cl (3D coordinates assigned)
CS(=O)(=O)[N-]c1cc(Cc2c(O)[n-]c(=O)[n-]c2=O)ccc1Cl (optimized conformer: 37.69776676810503 kcal/mol)

>  <smiles>  (32) 
CS(=O)(=O)Nc1cc(Cc2c(O)[nH]c(=O)[nH]c2=O)ccc1Cl

>  <score_type>  (32) 
oracle

>  <origin>  (32) 
adg

>  <m_score__min__energy>  (32) 
-13.25

>  <m_primary>  (32) 
energy

$$$$
32:0
     RDKit          3D

 49 51  0  0  0  0  0  0  0  0999 V2000
   60.8830   29.5230   49.6590 C   0  0  0  0  0  0  0  0  0  0  0  0
   59.7680   29.3950   48.7830 O   0  0  0  0  0  0  0  0  0  0  0  0
   59.2530   30.4380   47.9990 C   0  0  0  0  0  0  0  0  0  0  0  0
   59.6220   31.7500   48.3170 C   0  0  0  0  0  0  0  0  0  0  0  0
   59.1300   32.8320   47.5740 C   0  0  0  0  0  0  0  0  0  0  0  0
   59.5000   34.2420   47.9610 C   0  0  0  0  0  0  0  0  0  0  0  0
   60.9440   34.4830   47.7580 N   0  0  0  0  0  0  0  0  0  0  0  0
   61.7180   34.2370   49.0000 C   0  0  0  0  0  0  0  0  0  0  0  0
   62.4580   32.8880   48.9590 C   0  0  0  0  0  0  0  0  0  0  0  0
   63.3750   32.7780   47.8800 O   0  0  0  0  0  0  0  0  0  0  0  0
   62.9850   33.5040   46.7220 C   0  0  0  0  0  0  0  0  0  0  0  0
   61.4660   33.7130   46.6040 C   0  0  0  0  0  0  0  0  0  0  0  0
   58.2550   32.5950   46.5030 C   0  0  0  0  0  0  0  0  0  0  0  0
   57.9000   31.2810   46.1540 C   0  0  0  0  0  0  0  0  0  0  0  0
   56.9880   31.0120   45.0800 N   0  0  0  0  0  0  0  0  0  0  0  0
   56.5980   29.7190   44.5990 C   0  0  0  0  0  0  0  0  0  0  0  0
   55.4110   29.3410   44.7770 O   0  0  0  0  0  0  0  0  0  0  0  0
   57.5800   28.7920   43.9290 C   0  0  0  0  0  0  0  0  0  0  0  0
   58.2220   27.8630   44.9310 C   0  0  0  0  0  0  0  0  0  0  0  0
   59.6210   27.8980   45.0840 C   0  0  0  0  0  0  0  0  0  0  0  0
   60.2590   27.0600   46.0030 C   0  0  0  0  0  0  0  0  0  0  0  0
   59.5090   26.1840   46.7860 C   0  0  0  0  0  0  0  0  0  0  0  0
   58.1200   26.1490   46.6610 C   0  0  0  0  0  0  0  0  0  0  0  0
   57.4640   26.9870   45.7500 C   0  0  0  0  0  0  0  0  0  0  0  0
   56.0690   26.9250   45.6920 O   0  0  0  0  0  0  0  0  0  0  0  0
   58.3820   30.2110   46.9170 C   0  0  0  0  0  0  0  0  0  0  0  0
   60.5362   29.4832   50.7021 H   0  0  0  0  0  0  0  0  0  0  0  0
   61.5896   28.7001   49.4758 H   0  0  0  0  0  0  0  0  0  0  0  0
   61.3847   30.4846   49.4758 H   0  0  0  0  0  0  0  0  0  0  0  0
   60.3054   31.9341   49.1590 H   0  0  0  0  0  0  0  0  0  0  0  0
   58.9266   34.9476   47.3419 H   0  0  0  0  0  0  0  0  0  0  0  0
   59.2658   34.3871   49.0259 H   0  0  0  0  0  0  0  0  0  0  0  0
   62.4557   35.0434   49.1246 H   0  0  0  0  0  0  0  0  0  0  0  0
   61.0109   34.2119   49.8423 H   0  0  0  0  0  0  0  0  0  0  0  0
   63.0125   32.7662   49.9011 H   0  0  0  0  0  0  0  0  0  0  0  0
   61.6976   32.1057   48.8187 H   0  0  0  0  0  0  0  0  0  0  0  0
   63.4698   34.4910   46.7516 H   0  0  0  0  0  0  0  0  0  0  0  0
   63.2956   32.9089   45.8506 H   0  0  0  0  0  0  0  0  0  0  0  0
   61.2497   34.2638   45.6767 H   0  0  0  0  0  0  0  0  0  0  0  0
   60.9769   32.7278   46.5903 H   0  0  0  0  0  0  0  0  0  0  0  0
   57.8449   33.4422   45.9337 H   0  0  0  0  0  0  0  0  0  0  0  0
   57.0507   28.1940   43.1726 H   0  0  0  0  0  0  0  0  0  0  0  0
   58.3687   29.3987   43.4601 H   0  0  0  0  0  0  0  0  0  0  0  0
   60.2181   28.5919   44.4741 H   0  0  0  0  0  0  0  0  0  0  0  0
   61.3535   27.0918   46.1084 H   0  0  0  0  0  0  0  0  0  0  0  0
   60.0129   25.5195   47.5033 H   0  0  0  0  0  0  0  0  0  0  0  0
   57.5343   25.4568   47.2837 H   0  0  0  0  0  0  0  0  0  0  0  0
   55.5320   27.1670   44.8710 H   0  0  0  0  0  0  0  0  0  0  0  0
   58.0773   29.1836   46.6687 H   0  0  0  0  0  0  0  0  0  0  0  0
  1  2  1  0
  2  3  1  0
  3  4  2  0
  4  5  1  0
  5  6  1  0
  6  7  1  0
  7  8  1  0
  8  9  1  0
  9 10  1  0
 10 11  1  0
 11 12  1  0
  5 13  2  0
 13 14  1  0
 14 15  1  0
 15 16  1  0
 16 17  2  0
 16 18  1  0
 18 19  1  0
 19 20  2  0
 20 21  1  0
 21 22  2  0
 22 23  1  0
 23 24  2  0
 24 25  1  0
 14 26  2  0
 26  3  1  0
 12  7  1  0
 24 19  1  0
  1 27  1  0
  1 28  1  0
  1 29  1  0
  4 30  1  0
  6 31  1  0
  6 32  1  0
  8 33  1  0
  8 34  1  0
  9 35  1  0
  9 36  1  0
 11 37  1  0
 11 38  1  0
 12 39  1  0
 12 40  1  0
 13 41  1  0
 18 42  1  0
 18 43  1  0
 20 44  1  0
 21 45  1  0
 22 46  1  0
 23 47  1  0
 25 48  1  0
 26 49  1  0
M  CHG  1  15  -1
M  END
>  <UniqueID>  (33) 
30

>  <SMILES>  (33) 
COc1cc(CN2CCOCC2)cc([N-]C(=O)Cc2ccccc2O)c1

>  <Energy>  (33) 
69.20711800904668

>  <Genealogy>  (33) 
COc1cc(CN2CCOCC2)cc([N-]C(=O)Cc2ccccc2O)c1 (protonated)
COc1cc(CN2CCOCC2)cc([N-]C(=O)Cc2ccccc2O)c1 (3D coordinates assigned)
COc1cc(CN2CCOCC2)cc([N-]C(=O)Cc2ccccc2O)c1 (nonaromatic ring conformer: 69.20711800904668 kcal/mol)

>  <smiles>  (33) 
COc1cc(CN2CCOCC2)cc(NC(=O)Cc2ccccc2O)c1

>  <score_type>  (33) 
oracle

>  <origin>  (33) 
adg

>  <m_score__min__energy>  (33) 
-10.380000000000001

>  <m_primary>  (33) 
energy

$$$$
33:0
     RDKit          3D

 35 37  0  0  0  0  0  0  0  0999 V2000
   58.0910   30.1700   45.0370 O   0  0  0  0  0  0  0  0  0  0  0  0
   57.6320   29.0370   45.3370 C   0  0  0  0  0  0  0  0  0  0  0  0
   56.3210   28.7310   45.2310 N   0  0  0  0  0  0  0  0  0  0  0  0
   56.2720   27.4500   45.6450 C   0  0  0  0  0  0  0  0  0  0  0  0
   55.0990   26.7120   45.7170 O   0  0  0  0  0  0  0  0  0  0  0  0
   57.5320   26.9970   45.9820 C   0  0  0  0  0  0  0  0  0  0  0  0
   57.8730   25.6280   46.5070 C   0  0  0  0  0  0  0  0  0  0  0  0
   57.3620   24.5530   45.5830 C   0  0  0  0  0  0  0  0  0  0  0  0
   57.1380   23.2500   46.0590 C   0  0  0  0  0  0  0  0  0  0  0  0
   56.6510   22.2590   45.2010 C   0  0  0  0  0  0  0  0  0  0  0  0
   56.3810   22.5610   43.8630 C   0  0  0  0  0  0  0  0  0  0  0  0
   55.8960   21.5760   43.0120 O   0  0  0  0  0  0  0  0  0  0  0  0
   56.5970   23.8550   43.3820 C   0  0  0  0  0  0  0  0  0  0  0  0
   57.0830   24.8490   44.2380 C   0  0  0  0  0  0  0  0  0  0  0  0
   58.3960   28.0190   45.7960 N   0  0  0  0  0  0  0  0  0  0  0  0
   59.8440   28.0410   46.0260 C   0  0  0  0  0  0  0  0  0  0  0  0
   60.2040   29.0660   47.0680 C   0  0  0  0  0  0  0  0  0  0  0  0
   60.9180   30.2210   46.7080 C   0  0  0  0  0  0  0  0  0  0  0  0
   61.2600   31.1700   47.6760 C   0  0  0  0  0  0  0  0  0  0  0  0
   60.8850   30.9780   49.0080 C   0  0  0  0  0  0  0  0  0  0  0  0
   60.1620   29.8380   49.3730 C   0  0  0  0  0  0  0  0  0  0  0  0
   59.8170   28.8870   48.4090 C   0  0  0  0  0  0  0  0  0  0  0  0
   58.9658   25.5380   46.5941 H   0  0  0  0  0  0  0  0  0  0  0  0
   57.3965   25.5008   47.4902 H   0  0  0  0  0  0  0  0  0  0  0  0
   57.3468   23.0084   47.1116 H   0  0  0  0  0  0  0  0  0  0  0  0
   56.4801   21.2404   45.5794 H   0  0  0  0  0  0  0  0  0  0  0  0
   56.3847   24.0923   42.3291 H   0  0  0  0  0  0  0  0  0  0  0  0
   57.2476   25.8674   43.8563 H   0  0  0  0  0  0  0  0  0  0  0  0
   60.1698   27.0480   46.3692 H   0  0  0  0  0  0  0  0  0  0  0  0
   60.3468   28.3043   45.0837 H   0  0  0  0  0  0  0  0  0  0  0  0
   61.2095   30.3795   45.6592 H   0  0  0  0  0  0  0  0  0  0  0  0
   61.8250   32.0689   47.3885 H   0  0  0  0  0  0  0  0  0  0  0  0
   61.1584   31.7233   49.7694 H   0  0  0  0  0  0  0  0  0  0  0  0
   59.8641   29.6895   50.4214 H   0  0  0  0  0  0  0  0  0  0  0  0
   59.2412   27.9958   48.6993 H   0  0  0  0  0  0  0  0  0  0  0  0
  1  2  2  0
  2  3  1  0
  3  4  1  0
  4  5  1  0
  4  6  2  0
  6  7  1  0
  7  8  1  0
  8  9  2  0
  9 10  1  0
 10 11  2  0
 11 12  1  0
 11 13  1  0
 13 14  2  0
  6 15  1  0
 15 16  1  0
 16 17  1  0
 17 18  2  0
 18 19  1  0
 19 20  2  0
 20 21  1  0
 21 22  2  0
 15  2  1  0
 22 17  1  0
 14  8  1  0
  7 23  1  0
  7 24  1  0
  9 25  1  0
 10 26  1  0
 13 27  1  0
 14 28  1  0
 16 29  1  0
 16 30  1  0
 18 31  1  0
 19 32  1  0
 20 33  1  0
 21 34  1  0
 22 35  1  0
M  CHG  3   3  -1   5  -1  12  -1
M  END
>  <UniqueID>  (34) 
31

>  <SMILES>  (34) 
O=c1[n-]c([O-])c(Cc2ccc([O-])cc2)n1Cc1ccccc1

>  <Energy>  (34) 
66.64161944231437

>  <Genealogy>  (34) 
O=c1[n-]c([O-])c(Cc2ccc([O-])cc2)n1Cc1ccccc1 (protonated)
O=c1[n-]c([O-])c(Cc2ccc([O-])cc2)n1Cc1ccccc1 (3D coordinates assigned)
O=c1[n-]c([O-])c(Cc2ccc([O-])cc2)n1Cc1ccccc1 (optimized conformer: 66.64161944231437 kcal/mol)

>  <smiles>  (34) 
O=c1[nH]c(O)c(Cc2ccc(O)cc2)n1Cc1ccccc1

>  <score_type>  (34) 
oracle

>  <origin>  (34) 
adg

>  <m_score__min__energy>  (34) 
-13.449999999999999

>  <m_primary>  (34) 
energy

$$$$
34:0
     RDKit          3D

 49 51  0  0  0  0  0  0  0  0999 V2000
   57.1170   24.2030   45.7530 C   0  0  0  0  0  0  0  0  0  0  0  0
   58.0920   24.9440   44.8470 C   0  0  0  0  0  0  0  0  0  0  0  0
   58.1030   26.3670   45.1740 N   0  0  0  0  0  0  0  0  0  0  0  0
   58.8010   26.9470   46.1710 C   0  0  0  0  0  0  0  0  0  0  0  0
   58.5010   28.2970   46.1670 C   0  0  0  0  0  0  0  0  0  0  0  0
   59.1110   29.2940   46.9940 N   0  0  0  0  0  0  0  0  0  0  0  0
   58.5760   29.6210   48.0730 O   0  0  0  0  0  0  0  0  0  0  0  0
   60.3680   29.7710   46.7020 O   0  0  0  0  0  0  0  0  0  0  0  0
   57.5810   28.4760   45.1400 C   0  0  0  0  0  0  0  0  0  0  0  0
   56.8620   29.7040   44.7500 C   0  0  0  0  0  0  0  0  0  0  0  0
   55.6130   29.7490   44.9030 O   0  0  0  0  0  0  0  0  0  0  0  0
   57.5290   30.8480   44.1990 N   0  0  0  0  0  0  0  0  0  0  0  0
   57.9000   32.0480   44.8960 C   0  0  0  0  0  0  0  0  0  0  0  0
   57.7810   33.2750   44.2340 C   0  0  0  0  0  0  0  0  0  0  0  0
   58.1490   34.4610   44.8720 C   0  0  0  0  0  0  0  0  0  0  0  0
   58.6310   34.4310   46.1830 C   0  0  0  0  0  0  0  0  0  0  0  0
   58.7250   33.2150   46.8690 C   0  0  0  0  0  0  0  0  0  0  0  0
   59.3700   33.1920   48.5080 S   0  0  0  0  0  0  0  0  0  0  0  0
   59.4240   34.6030   49.0240 O   0  0  0  0  0  0  0  0  0  0  0  0
   58.4790   32.3800   49.4090 O   0  0  0  0  0  0  0  0  0  0  0  0
   60.9740   32.5010   48.4800 N   0  0  0  0  0  0  0  0  0  0  0  0
   61.8230   33.0790   49.5540 C   0  0  0  0  0  0  0  0  0  0  0  0
   62.8300   34.1120   49.0310 C   0  0  0  0  0  0  0  0  0  0  0  0
   63.7590   33.4930   47.9750 C   0  0  0  0  0  0  0  0  0  0  0  0
   63.0620   32.4080   47.1330 C   0  0  0  0  0  0  0  0  0  0  0  0
   61.5430   32.6080   47.1190 C   0  0  0  0  0  0  0  0  0  0  0  0
   58.3450   32.0250   46.2310 C   0  0  0  0  0  0  0  0  0  0  0  0
   57.3720   27.2800   44.5550 N   0  0  0  0  0  0  0  0  0  0  0  0
   57.3734   24.3979   46.8048 H   0  0  0  0  0  0  0  0  0  0  0  0
   56.0933   24.5531   45.5542 H   0  0  0  0  0  0  0  0  0  0  0  0
   57.1802   23.1230   45.5542 H   0  0  0  0  0  0  0  0  0  0  0  0
   59.1022   24.5315   44.9860 H   0  0  0  0  0  0  0  0  0  0  0  0
   57.7756   24.8188   43.8010 H   0  0  0  0  0  0  0  0  0  0  0  0
   59.4867   26.4374   46.8639 H   0  0  0  0  0  0  0  0  0  0  0  0
   57.3951   33.3053   43.2044 H   0  0  0  0  0  0  0  0  0  0  0  0
   58.0593   35.4205   44.3417 H   0  0  0  0  0  0  0  0  0  0  0  0
   58.9372   35.3650   46.6768 H   0  0  0  0  0  0  0  0  0  0  0  0
   61.1702   33.5682   50.2919 H   0  0  0  0  0  0  0  0  0  0  0  0
   62.3987   32.2538   49.9986 H   0  0  0  0  0  0  0  0  0  0  0  0
   62.2815   34.9517   48.5792 H   0  0  0  0  0  0  0  0  0  0  0  0
   63.4434   34.4605   49.8750 H   0  0  0  0  0  0  0  0  0  0  0  0
   64.1079   34.2904   47.3024 H   0  0  0  0  0  0  0  0  0  0  0  0
   64.5948   33.0149   48.5069 H   0  0  0  0  0  0  0  0  0  0  0  0
   63.4398   32.4568   46.1011 H   0  0  0  0  0  0  0  0  0  0  0  0
   63.2800   31.4268   47.5799 H   0  0  0  0  0  0  0  0  0  0  0  0
   61.3167   33.6051   46.7134 H   0  0  0  0  0  0  0  0  0  0  0  0
   61.0952   31.8222   46.4929 H   0  0  0  0  0  0  0  0  0  0  0  0
   58.3950   31.0707   46.7759 H   0  0  0  0  0  0  0  0  0  0  0  0
   56.7160   27.0830   43.7640 H   0  0  0  0  0  0  0  0  0  0  0  0
  1  2  1  0
  2  3  1  0
  3  4  1  0
  4  5  2  0
  5  6  1  0
  6  7  2  0
  6  8  1  0
  5  9  1  0
  9 10  1  0
 10 11  2  0
 10 12  1  0
 12 13  1  0
 13 14  2  0
 14 15  1  0
 15 16  2  0
 16 17  1  0
 17 18  1  0
 18 19  2  0
 18 20  2  0
 18 21  1  0
 21 22  1  0
 22 23  1  0
 23 24  1  0
 24 25  1  0
 25 26  1  0
 17 27  2  0
  9 28  2  0
 28  3  1  0
 27 13  1  0
 26 21  1  0
  1 29  1  0
  1 30  1  0
  1 31  1  0
  2 32  1  0
  2 33  1  0
  4 34  1  0
 14 35  1  0
 15 36  1  0
 16 37  1  0
 22 38  1  0
 22 39  1  0
 23 40  1  0
 23 41  1  0
 24 42  1  0
 24 43  1  0
 25 44  1  0
 25 45  1  0
 26 46  1  0
 26 47  1  0
 27 48  1  0
 28 49  1  0
M  CHG  4   6   1   8  -1  12  -1  28   1
M  END
>  <UniqueID>  (35) 
32

>  <SMILES>  (35) 
CCn1cc([N+](=O)[O-])c(C(=O)[N-]c2cccc(S(=O)(=O)N3CCCCC3)c2)[nH+]1

>  <Energy>  (35) 
87.71429210405111

>  <Genealogy>  (35) 
CCn1cc([N+](=O)[O-])c(C(=O)[N-]c2cccc(S(=O)(=O)N3CCCCC3)c2)[nH+]1 (protonated)
CCn1cc([N+](=O)[O-])c(C(=O)[N-]c2cccc(S(=O)(=O)N3CCCCC3)c2)[nH+]1 (3D coordinates assigned)
CCn1cc([N+](=O)[O-])c(C(=O)[N-]c2cccc(S(=O)(=O)N3CCCCC3)c2)[nH+]1 (nonaromatic ring conformer: 87.71429210405111 kcal/mol)

>  <smiles>  (35) 
CCn1cc([N+](=O)[O-])c(C(=O)Nc2cccc(S(=O)(=O)N3CCCCC3)c2)n1

>  <score_type>  (35) 
oracle

>  <origin>  (35) 
adg

>  <m_score__min__energy>  (35) 
-9.9700000000000006

>  <m_primary>  (35) 
energy

$$$$
35:0
     RDKit          3D

 69 73  0  0  0  0  0  0  0  0999 V2000
   60.9290   28.9400   45.3440 O   0  0  0  0  0  0  0  0  0  0  0  0
   59.8370   29.1090   45.9490 C   0  0  0  0  0  0  0  0  0  0  0  0
   59.6130   28.3990   47.1730 N   0  0  0  0  0  0  0  0  0  0  0  0
   58.9710   27.0930   47.2740 C   0  0  0  0  0  0  0  0  0  0  0  0
   57.5170   27.2010   46.8190 C   0  0  0  0  0  0  0  0  0  0  0  0
   57.0760   25.9330   46.1350 C   0  0  0  0  0  0  0  0  0  0  0  0
   58.0240   24.9440   45.8180 C   0  0  0  0  0  0  0  0  0  0  0  0
   57.6320   23.7770   45.1570 C   0  0  0  0  0  0  0  0  0  0  0  0
   56.2950   23.5890   44.7980 C   0  0  0  0  0  0  0  0  0  0  0  0
   55.3470   24.5710   45.0950 C   0  0  0  0  0  0  0  0  0  0  0  0
   55.7310   25.7430   45.7570 C   0  0  0  0  0  0  0  0  0  0  0  0
   54.7730   26.7120   46.0360 O   0  0  0  0  0  0  0  0  0  0  0  0
   58.8540   30.0620   45.3960 C   0  0  0  0  0  0  0  0  0  0  0  0
   58.1850   29.7900   44.1940 C   0  0  0  0  0  0  0  0  0  0  0  0
   57.2660   30.7050   43.6780 C   0  0  0  0  0  0  0  0  0  0  0  0
   57.0150   31.9050   44.3480 C   0  0  0  0  0  0  0  0  0  0  0  0
   57.6950   32.2030   45.5450 C   0  0  0  0  0  0  0  0  0  0  0  0
   57.4880   33.3940   46.2600 O   0  0  0  0  0  0  0  0  0  0  0  0
   58.5130   34.2280   46.8070 C   0  0  0  0  0  0  0  0  0  0  0  0
   59.7330   34.2950   45.8480 C   0  0  0  0  0  0  0  0  0  0  0  0
   60.9790   33.5810   46.3840 C   0  0  0  0  0  0  0  0  0  0  0  0
   61.2900   34.0420   47.7450 N   0  0  0  0  0  0  0  0  0  0  0  0
   62.6540   34.1920   48.1950 C   0  0  0  0  0  0  0  0  0  0  0  0
   62.8990   34.9360   49.1830 O   0  0  0  0  0  0  0  0  0  0  0  0
   63.7930   33.5050   47.4770 C   0  0  0  0  0  0  0  0  0  0  0  0
   63.6480   31.9760   47.4190 C   0  0  0  0  0  0  0  0  0  0  0  0
   62.8070   31.4450   48.5420 C   0  0  0  0  0  0  0  0  0  0  0  0
   63.3750   31.1640   49.7450 N   0  0  0  0  0  0  0  0  0  0  0  0
   62.6400   30.6800   50.7800 C   0  0  0  0  0  0  0  0  0  0  0  0
   63.2070   30.4340   51.8790 O   0  0  0  0  0  0  0  0  0  0  0  0
   61.2620   30.4640   50.6150 C   0  0  0  0  0  0  0  0  0  0  0  0
   60.4450   29.9650   51.6450 C   0  0  0  0  0  0  0  0  0  0  0  0
   59.0790   29.7690   51.4200 C   0  0  0  0  0  0  0  0  0  0  0  0
   58.5200   30.0660   50.1740 C   0  0  0  0  0  0  0  0  0  0  0  0
   59.3240   30.5610   49.1440 C   0  0  0  0  0  0  0  0  0  0  0  0
   60.6920   30.7620   49.3580 C   0  0  0  0  0  0  0  0  0  0  0  0
   61.4750   31.2440   48.3580 N   0  0  0  0  0  0  0  0  0  0  0  0
   60.2000   34.2860   48.7020 C   0  0  0  0  0  0  0  0  0  0  0  0
   58.8790   33.6940   48.2020 C   0  0  0  0  0  0  0  0  0  0  0  0
   58.6170   31.2800   46.0550 C   0  0  0  0  0  0  0  0  0  0  0  0
   59.5025   26.3732   46.6341 H   0  0  0  0  0  0  0  0  0  0  0  0
   59.0026   26.7499   48.3186 H   0  0  0  0  0  0  0  0  0  0  0  0
   56.8769   27.3795   47.6956 H   0  0  0  0  0  0  0  0  0  0  0  0
   57.4310   28.0347   46.1066 H   0  0  0  0  0  0  0  0  0  0  0  0
   59.0794   25.0898   46.0917 H   0  0  0  0  0  0  0  0  0  0  0  0
   58.3779   23.0045   44.9187 H   0  0  0  0  0  0  0  0  0  0  0  0
   55.9887   22.6674   44.2813 H   0  0  0  0  0  0  0  0  0  0  0  0
   54.2955   24.4228   44.8078 H   0  0  0  0  0  0  0  0  0  0  0  0
   58.3853   28.8519   43.6557 H   0  0  0  0  0  0  0  0  0  0  0  0
   56.7372   30.4804   42.7400 H   0  0  0  0  0  0  0  0  0  0  0  0
   56.2845   32.6189   43.9397 H   0  0  0  0  0  0  0  0  0  0  0  0
   58.1553   35.2626   46.9152 H   0  0  0  0  0  0  0  0  0  0  0  0
   59.4497   33.8288   44.8928 H   0  0  0  0  0  0  0  0  0  0  0  0
   59.9951   35.3574   45.7355 H   0  0  0  0  0  0  0  0  0  0  0  0
   60.7954   32.4966   46.4020 H   0  0  0  0  0  0  0  0  0  0  0  0
   61.8310   33.8100   45.7270 H   0  0  0  0  0  0  0  0  0  0  0  0
   63.8381   33.8897   46.4475 H   0  0  0  0  0  0  0  0  0  0  0  0
   64.7104   33.7217   48.0440 H   0  0  0  0  0  0  0  0  0  0  0  0
   63.1782   31.7004   46.4633 H   0  0  0  0  0  0  0  0  0  0  0  0
   64.6524   31.5371   47.5117 H   0  0  0  0  0  0  0  0  0  0  0  0
   60.8803   29.7290   52.6272 H   0  0  0  0  0  0  0  0  0  0  0  0
   58.4415   29.3793   52.2273 H   0  0  0  0  0  0  0  0  0  0  0  0
   57.4445   29.9097   50.0038 H   0  0  0  0  0  0  0  0  0  0  0  0
   58.8811   30.7928   48.1642 H   0  0  0  0  0  0  0  0  0  0  0  0
   60.4585   33.8227   49.6656 H   0  0  0  0  0  0  0  0  0  0  0  0
   60.0733   35.3728   48.8149 H   0  0  0  0  0  0  0  0  0  0  0  0
   58.9744   32.5993   48.1517 H   0  0  0  0  0  0  0  0  0  0  0  0
   58.0831   33.9865   48.9027 H   0  0  0  0  0  0  0  0  0  0  0  0
   59.1618   31.5115   46.9822 H   0  0  0  0  0  0  0  0  0  0  0  0
  1  2  2  0
  2  3  1  0
  3  4  1  0
  4  5  1  0
  5  6  1  0
  6  7  2  0
  7  8  1  0
  8  9  2  0
  9 10  1  0
 10 11  2  0
 11 12  1  0
  2 13  1  0
 13 14  2  0
 14 15  1  0
 15 16  2  0
 16 17  1  0
 17 18  1  0
 18 19  1  0
 19 20  1  0
 20 21  1  0
 21 22  1  0
 22 23  1  0
 23 24  2  0
 23 25  1  0
 25 26  1  0
 26 27  1  0
 27 28  2  0
 28 29  1  0
 29 30  2  0
 29 31  1  0
 31 32  2  0
 32 33  1  0
 33 34  2  0
 34 35  1  0
 35 36  2  0
 36 37  1  0
 22 38  1  0
 38 39  1  0
 17 40  2  0
 11  6  1  0
 40 13  1  0
 39 19  1  0
 37 27  1  0
 36 31  1  0
  4 41  1  0
  4 42  1  0
  5 43  1  0
  5 44  1  0
  7 45  1  0
  8 46  1  0
  9 47  1  0
 10 48  1  0
 14 49  1  0
 15 50  1  0
 16 51  1  0
 19 52  1  0
 20 53  1  0
 20 54  1  0
 21 55  1  0
 21 56  1  0
 25 57  1  0
 25 58  1  0
 26 59  1  0
 26 60  1  0
 32 61  1  0
 33 62  1  0
 34 63  1  0
 35 64  1  0
 38 65  1  0
 38 66  1  0
 39 67  1  0
 39 68  1  0
 40 69  1  0
M  CHG  3   3  -1  12  -1  37  -1
M  END
>  <UniqueID>  (36) 
33

>  <SMILES>  (36) 
O=C([N-]CCc1ccccc1[O-])c1cccc(OC2CCN(C(=O)CCc3nc(=O)c4ccccc4[n-]3)CC2)c1

>  <Energy>  (36) 
82.05339156916482

>  <Genealogy>  (36) 
O=C([N-]CCc1ccccc1[O-])c1cccc(OC2CCN(C(=O)CCc3nc(=O)c4ccccc4[n-]3)CC2)c1 (protonated)
O=C([N-]CCc1ccccc1[O-])c1cccc(OC2CCN(C(=O)CCc3nc(=O)c4ccccc4[n-]3)CC2)c1 (3D coordinates assigned)
O=C([N-]CCc1ccccc1[O-])c1cccc(OC2CCN(C(=O)CCc3nc(=O)c4ccccc4[n-]3)CC2)c1 (nonaromatic ring conformer: 82.05339156916482 kcal/mol)

>  <smiles>  (36) 
O=C(NCCc1ccccc1O)c1cccc(OC2CCN(C(=O)CCc3nc(=O)c4ccccc4[nH]3)CC2)c1

>  <score_type>  (36) 
oracle

>  <origin>  (36) 
adg

>  <m_score__min__energy>  (36) 
-16.940000000000001

>  <m_primary>  (36) 
energy

$$$$
36:0
     RDKit          3D

 49 52  0  0  0  0  0  0  0  0999 V2000
   53.7710   28.6050   44.1810 H   0  0  0  0  0  0  0  0  0  0  0  0
   54.4170   29.2560   43.7500 O   0  0  0  0  0  0  0  0  0  0  0  0
   55.7190   29.4280   44.2170 C   0  0  0  0  0  0  0  0  0  0  0  0
   56.4690   30.5100   43.7500 C   0  0  0  0  0  0  0  0  0  0  0  0
   56.0346   31.1954   43.0074 H   0  0  0  0  0  0  0  0  0  0  0  0
   57.7720   30.7290   44.2210 C   0  0  0  0  0  0  0  0  0  0  0  0
   58.5480   31.9100   43.7890 C   0  0  0  0  0  0  0  0  0  0  0  0
   59.5961   31.7541   43.4938 H   0  0  0  0  0  0  0  0  0  0  0  0
   58.0620   33.1600   43.7320 C   0  0  0  0  0  0  0  0  0  0  0  0
   57.9248   33.6093   42.7374 H   0  0  0  0  0  0  0  0  0  0  0  0
   57.6980   33.9760   44.9090 C   0  0  0  0  0  0  0  0  0  0  0  0
   56.6910   34.7280   44.8180 O   0  0  0  0  0  0  0  0  0  0  0  0
   58.4370   33.9080   46.1970 C   0  0  0  0  0  0  0  0  0  0  0  0
   59.2650   34.9770   46.5770 C   0  0  0  0  0  0  0  0  0  0  0  0
   59.3787   35.8430   45.9083 H   0  0  0  0  0  0  0  0  0  0  0  0
   59.9460   34.9500   47.7980 C   0  0  0  0  0  0  0  0  0  0  0  0
   60.5714   35.8047   48.0952 H   0  0  0  0  0  0  0  0  0  0  0  0
   59.8350   33.8370   48.6460 C   0  0  0  0  0  0  0  0  0  0  0  0
   60.4360   33.8340   49.9480 N   0  0  0  0  0  0  0  0  0  0  0  0
   61.1260   32.9110   50.5700 C   0  0  0  0  0  0  0  0  0  0  0  0
   60.3980   32.0570   51.4080 C   0  0  0  0  0  0  0  0  0  0  0  0
   59.2984   32.0794   51.3881 H   0  0  0  0  0  0  0  0  0  0  0  0
   61.0560   31.1800   52.2660 C   0  0  0  0  0  0  0  0  0  0  0  0
   60.4754   30.5348   52.9417 H   0  0  0  0  0  0  0  0  0  0  0  0
   62.4090   31.1190   52.2710 N   0  0  0  0  0  0  0  0  0  0  0  0
   63.1640   31.8590   51.4190 C   0  0  0  0  0  0  0  0  0  0  0  0
   64.5540   31.7000   51.4330 C   0  0  0  0  0  0  0  0  0  0  0  0
   65.0241   31.0532   52.1884 H   0  0  0  0  0  0  0  0  0  0  0  0
   65.3460   32.3590   50.4920 C   0  0  0  0  0  0  0  0  0  0  0  0
   67.0870   32.1450   50.5030 Cl  0  0  0  0  0  0  0  0  0  0  0  0
   64.7460   33.1470   49.5110 C   0  0  0  0  0  0  0  0  0  0  0  0
   65.3684   33.6361   48.7472 H   0  0  0  0  0  0  0  0  0  0  0  0
   63.3600   33.3200   49.4910 C   0  0  0  0  0  0  0  0  0  0  0  0
   62.8972   33.9095   48.6858 H   0  0  0  0  0  0  0  0  0  0  0  0
   62.5450   32.7460   50.4940 C   0  0  0  0  0  0  0  0  0  0  0  0
   58.9800   32.7900   48.2910 C   0  0  0  0  0  0  0  0  0  0  0  0
   58.8535   31.9355   48.9720 H   0  0  0  0  0  0  0  0  0  0  0  0
   58.2840   32.8180   47.0790 C   0  0  0  0  0  0  0  0  0  0  0  0
   57.4280   31.8040   46.7990 F   0  0  0  0  0  0  0  0  0  0  0  0
   58.3180   29.8570   45.1720 C   0  0  0  0  0  0  0  0  0  0  0  0
   59.3297   30.0403   45.5631 H   0  0  0  0  0  0  0  0  0  0  0  0
   57.5820   28.7480   45.6310 C   0  0  0  0  0  0  0  0  0  0  0  0
   58.1060   27.8340   46.5590 O   0  0  0  0  0  0  0  0  0  0  0  0
   58.8840   28.1960   47.6950 C   0  0  0  0  0  0  0  0  0  0  0  0
   58.3341   27.9401   48.6127 H   0  0  0  0  0  0  0  0  0  0  0  0
   59.8384   27.6495   47.6750 H   0  0  0  0  0  0  0  0  0  0  0  0
   59.0806   29.2781   47.6750 H   0  0  0  0  0  0  0  0  0  0  0  0
   56.2780   28.5430   45.1550 C   0  0  0  0  0  0  0  0  0  0  0  0
   55.5400   27.4630   45.6250 O   0  0  0  0  0  0  0  0  0  0  0  0
  1  2  1  0
  2  3  1  0
  3  4  2  0
  4  5  1  0
  4  6  1  0
  6  7  1  0
  7  8  1  0
  7  9  2  0
  9 10  1  0
  9 11  1  0
 11 12  2  0
 11 13  1  0
 13 14  2  0
 14 15  1  0
 14 16  1  0
 16 17  1  0
 16 18  2  0
 18 19  1  0
 19 20  2  0
 20 21  1  0
 21 22  1  0
 21 23  2  0
 23 24  1  0
 23 25  1  0
 25 26  1  0
 26 27  2  0
 27 28  1  0
 27 29  1  0
 29 30  1  0
 29 31  2  0
 31 32  1  0
 31 33  1  0
 33 34  1  0
 33 35  2  0
 18 36  1  0
 36 37  1  0
 36 38  2  0
 38 39  1  0
  6 40  2  0
 40 41  1  0
 40 42  1  0
 42 43  1  0
 43 44  1  0
 44 45  1  0
 44 46  1  0
 44 47  1  0
 42 48  2  0
 48 49  1  0
 48  3  1  0
 38 13  1  0
 35 20  1  0
 35 26  1  0
M  CHG  2  25  -1  49  -1
M  END
>  <UniqueID>  (37) 
34

>  <SMILES>  (37) 
COc1cc(/C=C\C(=O)c2ccc(/N=c3/cc[n-]c4cc(Cl)ccc34)cc2F)cc(O)c1[O-]

>  <Energy>  (37) 
86.31892482336015

>  <Genealogy>  (37) 
COc1cc(C=CC(=O)c2ccc(N=c3cc[n-]c4cc(Cl)ccc34)cc2F)cc(O)c1[O-] (protonated)
COc1cc(/C=C\C(=O)c2ccc(/N=c3/cc[n-]c4cc(Cl)ccc34)cc2F)cc(O)c1[O-] (cis-trans isomerization)
COc1cc(/C=C\C(=O)c2ccc(/N=c3/cc[n-]c4cc(Cl)ccc34)cc2F)cc(O)c1[O-] (3D coordinates assigned)
COc1cc(/C=C\C(=O)c2ccc(/N=c3/cc[n-]c4cc(Cl)ccc34)cc2F)cc(O)c1[O-] (optimized conformer: 86.31892482336015 kcal/mol)

>  <smiles>  (37) 
COc1cc(C=CC(=O)c2ccc(N=c3cc[nH]c4cc(Cl)ccc34)cc2F)cc(O)c1O

>  <score_type>  (37) 
oracle

>  <origin>  (37) 
adg

>  <m_score__min__energy>  (37) 
-14.890000000000001

>  <m_primary>  (37) 
energy

$$$$
37:0
     RDKit          3D

 32 33  0  0  0  0  0  0  0  0999 V2000
   60.7750   32.1460   46.7470 C   0  0  0  0  0  0  0  0  0  0  0  0
   60.1230   31.1180   46.0110 O   0  0  0  0  0  0  0  0  0  0  0  0
   59.6540   29.9120   46.5590 C   0  0  0  0  0  0  0  0  0  0  0  0
   59.9940   29.5150   47.8640 C   0  0  0  0  0  0  0  0  0  0  0  0
   59.5500   28.2940   48.3670 C   0  0  0  0  0  0  0  0  0  0  0  0
   58.7650   27.4540   47.5790 C   0  0  0  0  0  0  0  0  0  0  0  0
   58.4010   27.8320   46.2790 C   0  0  0  0  0  0  0  0  0  0  0  0
   57.3810   26.7510   45.3210 S   0  0  0  0  0  0  0  0  0  0  0  0
   55.7140   27.0900   45.6330 N   0  0  0  0  0  0  0  0  0  0  0  0
   57.6760   26.9520   43.8620 O   0  0  0  0  0  0  0  0  0  0  0  0
   57.6550   25.3180   45.6820 O   0  0  0  0  0  0  0  0  0  0  0  0
   58.8380   29.0770   45.7680 C   0  0  0  0  0  0  0  0  0  0  0  0
   58.4660   29.4840   44.4420 N   0  0  0  0  0  0  0  0  0  0  0  0
   57.1910   30.6220   44.1510 S   0  0  0  0  0  0  0  0  0  0  0  0
   55.9400   30.1620   44.8440 O   0  0  0  0  0  0  0  0  0  0  0  0
   56.9320   30.7090   42.6730 O   0  0  0  0  0  0  0  0  0  0  0  0
   57.6250   32.2090   44.7680 C   0  0  0  0  0  0  0  0  0  0  0  0
   57.3970   32.6650   46.0580 C   0  0  0  0  0  0  0  0  0  0  0  0
   57.8890   33.9570   46.2720 C   0  0  0  0  0  0  0  0  0  0  0  0
   58.5010   34.5140   45.1550 C   0  0  0  0  0  0  0  0  0  0  0  0
   58.4340   33.3970   43.8990 S   0  0  0  0  0  0  0  0  0  0  0  0
   60.6557   31.9578   47.8242 H   0  0  0  0  0  0  0  0  0  0  0  0
   61.8452   32.1565   46.4930 H   0  0  0  0  0  0  0  0  0  0  0  0
   60.3283   33.1186   46.4930 H   0  0  0  0  0  0  0  0  0  0  0  0
   60.6141   30.1721   48.4915 H   0  0  0  0  0  0  0  0  0  0  0  0
   59.8199   27.9918   49.3897 H   0  0  0  0  0  0  0  0  0  0  0  0
   58.4284   26.4867   47.9804 H   0  0  0  0  0  0  0  0  0  0  0  0
   55.5270   28.0550   45.2780 H   0  0  0  0  0  0  0  0  0  0  0  0
   58.8220   28.9470   43.6210 H   0  0  0  0  0  0  0  0  0  0  0  0
   56.8839   32.0736   46.8306 H   0  0  0  0  0  0  0  0  0  0  0  0
   57.7999   34.4829   47.2340 H   0  0  0  0  0  0  0  0  0  0  0  0
   58.9526   35.5156   45.1015 H   0  0  0  0  0  0  0  0  0  0  0  0
  1  2  1  0
  2  3  1  0
  3  4  2  0
  4  5  1  0
  5  6  2  0
  6  7  1  0
  7  8  1  0
  8  9  1  0
  8 10  2  0
  8 11  2  0
  7 12  2  0
 12 13  1  0
 13 14  1  0
 14 15  2  0
 14 16  2  0
 14 17  1  0
 17 18  2  0
 18 19  1  0
 19 20  2  0
 20 21  1  0
 12  3  1  0
 21 17  1  0
  1 22  1  0
  1 23  1  0
  1 24  1  0
  4 25  1  0
  5 26  1  0
  6 27  1  0
  9 28  1  0
 13 29  1  0
 18 30  1  0
 19 31  1  0
 20 32  1  0
M  CHG  1   9  -1
M  END
>  <UniqueID>  (38) 
35

>  <SMILES>  (38) 
COc1cccc(S([NH-])(=O)=O)c1NS(=O)(=O)c1cccs1

>  <Energy>  (38) 
63.18962905233235

>  <Genealogy>  (38) 
COc1cccc(S([NH-])(=O)=O)c1NS(=O)(=O)c1cccs1 (protonated)
COc1cccc(S([NH-])(=O)=O)c1NS(=O)(=O)c1cccs1 (3D coordinates assigned)
COc1cccc(S([NH-])(=O)=O)c1NS(=O)(=O)c1cccs1 (optimized conformer: 63.18962905233235 kcal/mol)

>  <smiles>  (38) 
COc1cccc(S(N)(=O)=O)c1NS(=O)(=O)c1cccs1

>  <score_type>  (38) 
oracle

>  <origin>  (38) 
adg

>  <m_score__min__energy>  (38) 
-10.5

>  <m_primary>  (38) 
energy

$$$$
38:0
     RDKit          3D

 58 61  0  0  0  0  0  0  0  0999 V2000
   55.1130   26.3460   45.9900 O   0  0  0  0  0  0  0  0  0  0  0  0
   56.0030   25.4820   45.6940 C   0  0  0  0  0  0  0  0  0  0  0  0
   55.5770   24.1650   45.3510 N   0  0  0  0  0  0  0  0  0  0  0  0
   56.2850   23.3040   44.7250 C   0  0  0  0  0  0  0  0  0  0  0  0
   57.5150   23.0430   45.2330 N   0  0  0  0  0  0  0  0  0  0  0  0
   58.3430   22.1560   44.6570 C   0  0  0  0  0  0  0  0  0  0  0  0
   57.8870   21.5150   43.5140 C   0  0  0  0  0  0  0  0  0  0  0  0
   56.6360   21.7680   42.9810 C   0  0  0  0  0  0  0  0  0  0  0  0
   55.8520   22.6690   43.6070 N   0  0  0  0  0  0  0  0  0  0  0  0
   57.3850   25.8470   45.7120 N   0  0  0  0  0  0  0  0  0  0  0  0
   57.7010   27.1910   46.0690 C   0  0  0  0  0  0  0  0  0  0  0  0
   57.3140   28.2310   45.2510 C   0  0  0  0  0  0  0  0  0  0  0  0
   57.6230   29.5300   45.6030 C   0  0  0  0  0  0  0  0  0  0  0  0
   58.3230   29.7900   46.7810 C   0  0  0  0  0  0  0  0  0  0  0  0
   58.7060   28.7260   47.5970 C   0  0  0  0  0  0  0  0  0  0  0  0
   59.5850   29.1090   49.0690 S   0  0  0  0  0  0  0  0  0  0  0  0
   58.5670   29.3470   50.1770 O   0  0  0  0  0  0  0  0  0  0  0  0
   60.4010   27.9290   49.4370 O   0  0  0  0  0  0  0  0  0  0  0  0
   60.4710   30.5300   48.8490 N   0  0  0  0  0  0  0  0  0  0  0  0
   61.2640   30.6000   47.6890 C   0  0  0  0  0  0  0  0  0  0  0  0
   61.8930   31.9180   47.4070 C   0  0  0  0  0  0  0  0  0  0  0  0
   61.4950   32.8540   48.4400 N   0  0  0  0  0  0  0  0  0  0  0  0
   60.9850   34.1350   48.1380 C   0  0  0  0  0  0  0  0  0  0  0  0
   60.6320   34.9650   49.0310 O   0  0  0  0  0  0  0  0  0  0  0  0
   60.8330   34.5790   46.7320 C   0  0  0  0  0  0  0  0  0  0  0  0
   59.4910   34.1170   46.2700 C   0  0  0  0  0  0  0  0  0  0  0  0
   59.1050   34.2020   44.9450 C   0  0  0  0  0  0  0  0  0  0  0  0
   57.8580   33.7740   44.5060 C   0  0  0  0  0  0  0  0  0  0  0  0
   57.0080   33.2500   45.4790 C   0  0  0  0  0  0  0  0  0  0  0  0
   57.3860   33.1620   46.8040 C   0  0  0  0  0  0  0  0  0  0  0  0
   58.6330   33.5970   47.2010 C   0  0  0  0  0  0  0  0  0  0  0  0
   61.6290   32.4560   49.8430 C   0  0  0  0  0  0  0  0  0  0  0  0
   60.9600   31.1440   50.0240 C   0  0  0  0  0  0  0  0  0  0  0  0
   58.3930   27.4340   47.2360 C   0  0  0  0  0  0  0  0  0  0  0  0
   59.3394   21.9468   45.0734 H   0  0  0  0  0  0  0  0  0  0  0  0
   58.5404   20.7832   43.0165 H   0  0  0  0  0  0  0  0  0  0  0  0
   56.2911   21.2499   42.0740 H   0  0  0  0  0  0  0  0  0  0  0  0
   54.9050   22.8730   43.2190 H   0  0  0  0  0  0  0  0  0  0  0  0
   58.1220   25.1350   45.4690 H   0  0  0  0  0  0  0  0  0  0  0  0
   56.7615   28.0269   44.3220 H   0  0  0  0  0  0  0  0  0  0  0  0
   57.3162   30.3622   44.9524 H   0  0  0  0  0  0  0  0  0  0  0  0
   58.5705   30.8239   47.0635 H   0  0  0  0  0  0  0  0  0  0  0  0
   62.0692   29.8569   47.7866 H   0  0  0  0  0  0  0  0  0  0  0  0
   60.5781   30.4134   46.8495 H   0  0  0  0  0  0  0  0  0  0  0  0
   62.9879   31.8126   47.4050 H   0  0  0  0  0  0  0  0  0  0  0  0
   61.5673   32.2856   46.4227 H   0  0  0  0  0  0  0  0  0  0  0  0
   60.8955   35.6757   46.6735 H   0  0  0  0  0  0  0  0  0  0  0  0
   61.6305   34.1608   46.1003 H   0  0  0  0  0  0  0  0  0  0  0  0
   59.8097   34.6231   44.2128 H   0  0  0  0  0  0  0  0  0  0  0  0
   57.5583   33.8447   43.4500 H   0  0  0  0  0  0  0  0  0  0  0  0
   56.0091   32.8971   45.1830 H   0  0  0  0  0  0  0  0  0  0  0  0
   56.6899   32.7434   47.5458 H   0  0  0  0  0  0  0  0  0  0  0  0
   58.9353   33.5267   48.2563 H   0  0  0  0  0  0  0  0  0  0  0  0
   62.6940   32.3691   50.1043 H   0  0  0  0  0  0  0  0  0  0  0  0
   61.1647   33.2100   50.4956 H   0  0  0  0  0  0  0  0  0  0  0  0
   61.6850   30.4575   50.4856 H   0  0  0  0  0  0  0  0  0  0  0  0
   60.0738   31.3463   50.6434 H   0  0  0  0  0  0  0  0  0  0  0  0
   58.6957   26.5951   47.8799 H   0  0  0  0  0  0  0  0  0  0  0  0
  1  2  2  0
  2  3  1  0
  3  4  2  3
  4  5  1  0
  5  6  2  0
  6  7  1  0
  7  8  2  0
  8  9  1  0
  2 10  1  0
 10 11  1  0
 11 12  2  0
 12 13  1  0
 13 14  2  0
 14 15  1  0
 15 16  1  0
 16 17  2  0
 16 18  2  0
 16 19  1  0
 19 20  1  0
 20 21  1  0
 21 22  1  0
 22 23  1  0
 23 24  2  0
 23 25  1  0
 25 26  1  0
 26 27  2  0
 27 28  1  0
 28 29  2  0
 29 30  1  0
 30 31  2  0
 22 32  1  0
 32 33  1  0
 15 34  2  0
  9  4  1  0
 34 11  1  0
 33 19  1  0
 31 26  1  0
  6 35  1  0
  7 36  1  0
  8 37  1  0
  9 38  1  0
 10 39  1  0
 12 40  1  0
 13 41  1  0
 14 42  1  0
 20 43  1  0
 20 44  1  0
 21 45  1  0
 21 46  1  0
 25 47  1  0
 25 48  1  0
 27 49  1  0
 28 50  1  0
 29 51  1  0
 30 52  1  0
 31 53  1  0
 32 54  1  0
 32 55  1  0
 33 56  1  0
 33 57  1  0
 34 58  1  0
M  END
>  <smiles>  (39) 
O=C(N=c1nccc[nH]1)Nc1cccc(S(=O)(=O)N2CCN(C(=O)Cc3ccccc3)CC2)c1

>  <score_type>  (39) 
oracle

>  <origin>  (39) 
adg

>  <m_score__min__energy>  (39) 
-9.9499999999999993

>  <m_primary>  (39) 
energy

$$$$
39:0
     RDKit          3D

 48 49  0  0  0  0  0  0  0  0999 V2000
   60.4530   27.1120   48.6260 C   0  0  0  0  0  0  0  0  0  0  0  0
   60.4690   26.4100   46.9450 S   0  0  0  0  0  0  0  0  0  0  0  0
   58.6480   26.2720   46.7770 C   0  0  0  0  0  0  0  0  0  0  0  0
   58.1380   26.9900   45.5210 C   0  0  0  0  0  0  0  0  0  0  0  0
   57.5660   28.3950   45.8090 C   0  0  2  0  0  0  0  0  0  0  0  0
   56.7090   28.7820   44.7340 O   0  0  0  0  0  0  0  0  0  0  0  0
   56.6050   30.1000   44.2730 C   0  0  0  0  0  0  0  0  0  0  0  0
   55.5610   30.7720   44.4910 O   0  0  0  0  0  0  0  0  0  0  0  0
   57.6990   30.6820   43.5570 N   0  0  0  0  0  0  0  0  0  0  0  0
   57.7580   32.1090   43.2390 C   0  0  0  0  0  0  0  0  0  0  0  0
   58.0890   32.9140   44.4670 C   0  0  0  0  0  0  0  0  0  0  0  0
   57.3430   32.7540   45.6470 C   0  0  0  0  0  0  0  0  0  0  0  0
   57.6510   33.5080   46.7820 C   0  0  0  0  0  0  0  0  0  0  0  0
   58.7040   34.4260   46.7480 C   0  0  0  0  0  0  0  0  0  0  0  0
   59.4500   34.5910   45.5790 C   0  0  0  0  0  0  0  0  0  0  0  0
   59.1450   33.8390   44.4400 C   0  0  0  0  0  0  0  0  0  0  0  0
   58.6600   29.4180   45.9580 C   0  0  0  0  0  0  0  0  0  0  0  0
   59.5980   29.4620   45.1160 O   0  0  0  0  0  0  0  0  0  0  0  0
   58.6100   30.3590   47.0350 N   0  0  0  0  0  0  0  0  0  0  0  0
   59.4980   30.2970   48.1900 C   0  0  0  0  0  0  0  0  0  0  0  0
   60.4270   31.4790   48.1670 C   0  0  0  0  0  0  0  0  0  0  0  0
   61.4360   31.5760   47.1970 C   0  0  0  0  0  0  0  0  0  0  0  0
   62.2370   32.7180   47.1370 C   0  0  0  0  0  0  0  0  0  0  0  0
   62.0190   33.7550   48.0460 C   0  0  0  0  0  0  0  0  0  0  0  0
   61.0310   33.6520   48.9730 N   0  0  0  0  0  0  0  0  0  0  0  0
   60.2390   32.5510   49.0540 C   0  0  0  0  0  0  0  0  0  0  0  0
   60.4716   26.2966   49.3641 H   0  0  0  0  0  0  0  0  0  0  0  0
   61.3368   27.7521   48.7645 H   0  0  0  0  0  0  0  0  0  0  0  0
   59.5410   27.7112   48.7645 H   0  0  0  0  0  0  0  0  0  0  0  0
   58.3753   25.2081   46.7149 H   0  0  0  0  0  0  0  0  0  0  0  0
   58.1857   26.7469   47.6549 H   0  0  0  0  0  0  0  0  0  0  0  0
   58.9742   27.0920   44.8136 H   0  0  0  0  0  0  0  0  0  0  0  0
   57.3180   26.3830   45.1097 H   0  0  0  0  0  0  0  0  0  0  0  0
   57.0063   28.3492   46.7548 H   0  0  0  0  0  0  0  0  0  0  0  0
   58.5240   30.0820   43.3370 H   0  0  0  0  0  0  0  0  0  0  0  0
   58.5332   32.2775   42.4769 H   0  0  0  0  0  0  0  0  0  0  0  0
   56.7756   32.4282   42.8608 H   0  0  0  0  0  0  0  0  0  0  0  0
   56.5134   32.0323   45.6771 H   0  0  0  0  0  0  0  0  0  0  0  0
   57.0641   33.3789   47.7033 H   0  0  0  0  0  0  0  0  0  0  0  0
   58.9454   35.0190   47.6425 H   0  0  0  0  0  0  0  0  0  0  0  0
   60.2789   35.3137   45.5541 H   0  0  0  0  0  0  0  0  0  0  0  0
   59.7339   33.9725   43.5206 H   0  0  0  0  0  0  0  0  0  0  0  0
   58.9011   30.3167   49.1138 H   0  0  0  0  0  0  0  0  0  0  0  0
   60.0843   29.3670   48.1544 H   0  0  0  0  0  0  0  0  0  0  0  0
   61.5958   30.7533   46.4846 H   0  0  0  0  0  0  0  0  0  0  0  0
   63.0319   32.7999   46.3811 H   0  0  0  0  0  0  0  0  0  0  0  0
   62.6480   34.6567   48.0117 H   0  0  0  0  0  0  0  0  0  0  0  0
   59.4481   32.4993   49.8168 H   0  0  0  0  0  0  0  0  0  0  0  0
  1  2  1  0
  2  3  1  0
  3  4  1  0
  4  5  1  0
  5  6  1  0
  6  7  1  0
  7  8  2  0
  7  9  1  0
  9 10  1  0
 10 11  1  0
 11 12  2  0
 12 13  1  0
 13 14  2  0
 14 15  1  0
 15 16  2  0
  5 17  1  0
 17 18  2  0
 17 19  1  0
 19 20  1  0
 20 21  1  0
 21 22  2  0
 22 23  1  0
 23 24  2  0
 24 25  1  0
 25 26  2  0
 16 11  1  0
 26 21  1  0
  1 27  1  0
  1 28  1  0
  1 29  1  0
  3 30  1  0
  3 31  1  0
  4 32  1  0
  4 33  1  0
  5 34  1  1
  9 35  1  0
 10 36  1  0
 10 37  1  0
 12 38  1  0
 13 39  1  0
 14 40  1  0
 15 41  1  0
 16 42  1  0
 20 43  1  0
 20 44  1  0
 22 45  1  0
 23 46  1  0
 24 47  1  0
 26 48  1  0
M  CHG  1  19  -1
M  END
>  <UniqueID>  (40) 
36

>  <SMILES>  (40) 
CSCC[C@H](OC(=O)NCc1ccccc1)C(=O)[N-]Cc1cccnc1

>  <Energy>  (40) 
35.64774290300356

>  <Genealogy>  (40) 
CSCCC(OC(=O)NCc1ccccc1)C(=O)[N-]Cc1cccnc1 (protonated)
CSCC[C@H](OC(=O)NCc1ccccc1)C(=O)[N-]Cc1cccnc1 (chirality)
CSCC[C@H](OC(=O)NCc1ccccc1)C(=O)[N-]Cc1cccnc1 (3D coordinates assigned)
CSCC[C@H](OC(=O)NCc1ccccc1)C(=O)[N-]Cc1cccnc1 (optimized conformer: 35.64774290300356 kcal/mol)

>  <smiles>  (40) 
CSCCC(OC(=O)NCc1ccccc1)C(=O)NCc1cccnc1

>  <score_type>  (40) 
oracle

>  <origin>  (40) 
adg

>  <m_score__min__energy>  (40) 
-10.07

>  <m_primary>  (40) 
energy

$$$$
40:0
     RDKit          3D

 42 44  0  0  0  0  0  0  0  0999 V2000
   57.9570   31.7820   43.0410 O   0  0  0  0  0  0  0  0  0  0  0  0
   57.2540   31.2350   43.9500 C   0  0  0  0  0  0  0  0  0  0  0  0
   56.3010   30.1280   43.6380 C   0  0  0  0  0  0  0  0  0  0  0  0
   55.9920   29.4120   44.8730 N   0  0  0  0  0  0  0  0  0  0  0  0
   57.1270   28.1200   45.1260 S   0  0  0  0  0  0  0  0  0  0  0  0
   56.4720   27.0990   45.9870 O   0  0  0  0  0  0  0  0  0  0  0  0
   57.5020   27.5980   43.7720 O   0  0  0  0  0  0  0  0  0  0  0  0
   58.5280   28.7780   45.9370 C   0  0  0  0  0  0  0  0  0  0  0  0
   58.4240   28.9620   47.3190 C   0  0  0  0  0  0  0  0  0  0  0  0
   59.4940   29.4810   48.0420 C   0  0  0  0  0  0  0  0  0  0  0  0
   60.6620   29.8130   47.3720 C   0  0  0  0  0  0  0  0  0  0  0  0
   60.7580   29.6260   45.9970 C   0  0  0  0  0  0  0  0  0  0  0  0
   59.6900   29.1070   45.2700 C   0  0  0  0  0  0  0  0  0  0  0  0
   57.3780   31.6790   45.2570 O   0  0  0  0  0  0  0  0  0  0  0  0
   58.2350   32.7550   45.4680 C   0  0  0  0  0  0  0  0  0  0  0  0
   57.9880   33.9960   44.9150 C   0  0  0  0  0  0  0  0  0  0  0  0
   58.8870   35.0140   45.1710 C   0  0  0  0  0  0  0  0  0  0  0  0
   60.0170   34.8190   45.9610 C   0  0  0  0  0  0  0  0  0  0  0  0
   60.2560   33.5770   46.5090 C   0  0  0  0  0  0  0  0  0  0  0  0
   61.4520   33.4260   47.3270 C   0  0  0  0  0  0  0  0  0  0  0  0
   61.4750   33.6360   48.6890 C   0  0  0  0  0  0  0  0  0  0  0  0
   62.6690   33.4680   49.3990 C   0  0  0  0  0  0  0  0  0  0  0  0
   63.8260   33.0930   48.7330 C   0  0  0  0  0  0  0  0  0  0  0  0
   64.9240   32.9340   49.3520 O   0  0  0  0  0  0  0  0  0  0  0  0
   63.7470   32.8990   47.3870 N   0  0  0  0  0  0  0  0  0  0  0  0
   62.5880   33.0670   46.7360 N   0  0  0  0  0  0  0  0  0  0  0  0
   59.3680   32.5530   46.2610 C   0  0  0  0  0  0  0  0  0  0  0  0
   55.3769   30.5448   43.2110 H   0  0  0  0  0  0  0  0  0  0  0  0
   56.7533   29.4392   42.9094 H   0  0  0  0  0  0  0  0  0  0  0  0
   56.0160   30.0910   45.6670 H   0  0  0  0  0  0  0  0  0  0  0  0
   57.4914   28.6951   47.8377 H   0  0  0  0  0  0  0  0  0  0  0  0
   59.4144   29.6258   49.1295 H   0  0  0  0  0  0  0  0  0  0  0  0
   61.5155   30.2257   47.9299 H   0  0  0  0  0  0  0  0  0  0  0  0
   61.6902   29.8917   45.4770 H   0  0  0  0  0  0  0  0  0  0  0  0
   59.7713   28.9618   44.1827 H   0  0  0  0  0  0  0  0  0  0  0  0
   57.1007   34.1694   44.2884 H   0  0  0  0  0  0  0  0  0  0  0  0
   58.7044   36.0084   44.7376 H   0  0  0  0  0  0  0  0  0  0  0  0
   60.7137   35.6498   46.1463 H   0  0  0  0  0  0  0  0  0  0  0  0
   60.5571   33.9349   49.2165 H   0  0  0  0  0  0  0  0  0  0  0  0
   62.6898   33.6335   50.4863 H   0  0  0  0  0  0  0  0  0  0  0  0
   64.5950   32.6130   46.8320 H   0  0  0  0  0  0  0  0  0  0  0  0
   59.5540   31.5594   46.6947 H   0  0  0  0  0  0  0  0  0  0  0  0
  1  2  2  0
  2  3  1  0
  3  4  1  0
  4  5  1  0
  5  6  2  0
  5  7  2  0
  5  8  1  0
  8  9  2  0
  9 10  1  0
 10 11  2  0
 11 12  1  0
 12 13  2  0
  2 14  1  0
 14 15  1  0
 15 16  2  0
 16 17  1  0
 17 18  2  0
 18 19  1  0
 19 20  1  0
 20 21  1  0
 21 22  2  0
 22 23  1  0
 23 24  2  0
 23 25  1  0
 25 26  1  0
 19 27  2  0
 13  8  1  0
 27 15  1  0
 26 20  2  0
  3 28  1  0
  3 29  1  0
  4 30  1  0
  9 31  1  0
 10 32  1  0
 11 33  1  0
 12 34  1  0
 13 35  1  0
 16 36  1  0
 17 37  1  0
 18 38  1  0
 21 39  1  0
 22 40  1  0
 25 41  1  0
 27 42  1  0
M  END
>  <smiles>  (41) 
O=C(CNS(=O)(=O)c1ccccc1)Oc1cccc(-c2ccc(=O)[nH]n2)c1

>  <score_type>  (41) 
oracle

>  <origin>  (41) 
adg

>  <m_score__min__energy>  (41) 
-9.4800000000000004

>  <m_primary>  (41) 
energy

$$$$
41:0
     RDKit          3D

 34 34  0  0  0  0  0  0  0  0999 V2000
   59.2780   32.0710   47.1790 C   0  0  0  0  0  0  0  0  0  0  0  0
   58.9670   31.6340   45.7390 C   0  0  0  0  0  0  0  0  0  0  0  0
   57.5310   31.7390   45.3600 N   0  0  0  0  0  0  0  0  0  0  0  0
   56.9650   33.0990   45.5640 C   0  0  0  0  0  0  0  0  0  0  0  0
   57.7770   34.1990   44.8700 C   0  0  0  0  0  0  0  0  0  0  0  0
   57.3120   31.2770   43.9630 C   0  0  0  0  0  0  0  0  0  0  0  0
   56.3630   30.0670   43.8840 C   0  0  0  0  0  0  0  0  0  0  0  0
   56.0870   29.5510   45.2200 N   0  0  0  0  0  0  0  0  0  0  0  0
   56.9840   28.6990   45.9440 C   0  0  0  0  0  0  0  0  0  0  0  0
   57.9490   29.1980   46.5820 O   0  0  0  0  0  0  0  0  0  0  0  0
   56.7890   27.2380   45.9410 C   0  0  0  0  0  0  0  0  0  0  0  0
   57.8790   26.3560   45.9190 C   0  0  0  0  0  0  0  0  0  0  0  0
   57.6280   24.9820   45.9170 C   0  0  0  0  0  0  0  0  0  0  0  0
   58.5840   24.1630   45.8980 O   0  0  0  0  0  0  0  0  0  0  0  0
   56.3480   24.5270   45.9360 N   0  0  0  0  0  0  0  0  0  0  0  0
   55.3010   25.3910   45.9570 C   0  0  0  0  0  0  0  0  0  0  0  0
   54.1230   24.9520   45.9740 O   0  0  0  0  0  0  0  0  0  0  0  0
   55.5250   26.7320   45.9590 N   0  0  0  0  0  0  0  0  0  0  0  0
   58.7887   31.3835   47.8846 H   0  0  0  0  0  0  0  0  0  0  0  0
   60.3657   32.0504   47.3416 H   0  0  0  0  0  0  0  0  0  0  0  0
   58.9022   33.0920   47.3416 H   0  0  0  0  0  0  0  0  0  0  0  0
   59.5506   32.2667   45.0540 H   0  0  0  0  0  0  0  0  0  0  0  0
   59.2323   30.5687   45.6704 H   0  0  0  0  0  0  0  0  0  0  0  0
   57.0180   31.0850   46.0000 H   0  0  0  0  0  0  0  0  0  0  0  0
   55.9403   33.1153   45.1643 H   0  0  0  0  0  0  0  0  0  0  0  0
   56.9892   33.3056   46.6442 H   0  0  0  0  0  0  0  0  0  0  0  0
   58.2500   34.8397   45.6288 H   0  0  0  0  0  0  0  0  0  0  0  0
   58.5544   33.7398   44.2416 H   0  0  0  0  0  0  0  0  0  0  0  0
   57.1092   34.8066   44.2416 H   0  0  0  0  0  0  0  0  0  0  0  0
   56.8782   32.1041   43.3818 H   0  0  0  0  0  0  0  0  0  0  0  0
   58.2858   30.9650   43.5576 H   0  0  0  0  0  0  0  0  0  0  0  0
   55.4187   30.3769   43.4126 H   0  0  0  0  0  0  0  0  0  0  0  0
   56.8410   29.2763   43.2871 H   0  0  0  0  0  0  0  0  0  0  0  0
   58.9103   26.7383   45.9036 H   0  0  0  0  0  0  0  0  0  0  0  0
  1  2  1  0
  2  3  1  0
  3  4  1  0
  4  5  1  0
  3  6  1  0
  6  7  1  0
  7  8  1  0
  8  9  1  0
  9 10  2  0
  9 11  1  0
 11 12  2  0
 12 13  1  0
 13 14  2  0
 13 15  1  0
 15 16  1  0
 16 17  2  0
 16 18  1  0
 18 11  1  0
  1 19  1  0
  1 20  1  0
  1 21  1  0
  2 22  1  0
  2 23  1  0
  3 24  1  0
  4 25  1  0
  4 26  1  0
  5 27  1  0
  5 28  1  0
  5 29  1  0
  6 30  1  0
  6 31  1  0
  7 32  1  0
  7 33  1  0
 12 34  1  0
M  CHG  4   3   1   8  -1  15  -1  18  -1
M  END
>  <UniqueID>  (42) 
37

>  <SMILES>  (42) 
CC[NH+](CC)CC[N-]C(=O)c1cc(=O)[n-]c(=O)[n-]1

>  <Energy>  (42) 
32.787769335285034

>  <Genealogy>  (42) 
CC[NH+](CC)CC[N-]C(=O)c1cc(=O)[n-]c(=O)[n-]1 (protonated)
CC[NH+](CC)CC[N-]C(=O)c1cc(=O)[n-]c(=O)[n-]1 (3D coordinates assigned)
CC[NH+](CC)CC[N-]C(=O)c1cc(=O)[n-]c(=O)[n-]1 (optimized conformer: 32.787769335285034 kcal/mol)

>  <smiles>  (42) 
CCN(CC)CCNC(=O)c1cc(=O)[nH]c(=O)[nH]1

>  <score_type>  (42) 
oracle

>  <origin>  (42) 
adg

>  <m_score__min__energy>  (42) 
-9.9900000000000002

>  <m_primary>  (42) 
energy

$$$$
42:0
     RDKit          3D

 47 48  0  0  0  0  0  0  0  0999 V2000
   58.3269   33.8941   43.4405 H   0  0  0  0  0  0  0  0  0  0  0  0
   58.3970   33.7770   44.5320 C   0  0  0  0  0  0  0  0  0  0  0  0
   57.3310   33.3120   45.2330 N   0  0  0  0  0  0  0  0  0  0  0  0
   57.3810   33.1540   46.5830 C   0  0  0  0  0  0  0  0  0  0  0  0
   56.5016   32.7740   47.1236 H   0  0  0  0  0  0  0  0  0  0  0  0
   58.5460   33.4730   47.2850 C   0  0  0  0  0  0  0  0  0  0  0  0
   58.5874   33.3467   48.3769 H   0  0  0  0  0  0  0  0  0  0  0  0
   59.6680   33.9580   46.5830 C   0  0  0  0  0  0  0  0  0  0  0  0
   60.7850   34.2720   47.1780 N   0  0  0  0  0  0  0  0  0  0  0  0
   62.1200   33.8200   46.7920 C   0  0  0  0  0  0  0  0  0  0  0  0
   62.8527   34.6096   47.0150 H   0  0  0  0  0  0  0  0  0  0  0  0
   62.1338   33.5990   45.7145 H   0  0  0  0  0  0  0  0  0  0  0  0
   62.4800   32.5540   47.5760 C   0  0  0  0  0  0  0  0  0  0  0  0
   63.5588   32.5657   47.7906 H   0  0  0  0  0  0  0  0  0  0  0  0
   62.2022   31.6863   46.9596 H   0  0  0  0  0  0  0  0  0  0  0  0
   61.7130   32.4520   48.9040 C   0  0  0  0  0  0  0  0  0  0  0  0
   61.2814   33.4358   49.1406 H   0  0  0  0  0  0  0  0  0  0  0  0
   62.4224   32.1296   49.6804 H   0  0  0  0  0  0  0  0  0  0  0  0
   60.5780   31.4150   48.8400 C   0  0  0  0  0  0  0  0  0  0  0  0
   59.7627   31.8243   48.2254 H   0  0  0  0  0  0  0  0  0  0  0  0
   60.2526   31.2172   49.8720 H   0  0  0  0  0  0  0  0  0  0  0  0
   61.0260   30.0750   48.2320 C   0  0  0  0  0  0  0  0  0  0  0  0
   61.0369   29.3186   49.0306 H   0  0  0  0  0  0  0  0  0  0  0  0
   62.0212   30.2400   47.7933 H   0  0  0  0  0  0  0  0  0  0  0  0
   60.1180   29.5710   47.1010 C   0  0  0  0  0  0  0  0  0  0  0  0
   59.1534   30.0977   47.1477 H   0  0  0  0  0  0  0  0  0  0  0  0
   59.9619   28.4889   47.2219 H   0  0  0  0  0  0  0  0  0  0  0  0
   60.7260   29.8140   45.8350 O   0  0  0  0  0  0  0  0  0  0  0  0
   60.8780   28.8660   44.8120 C   0  0  0  0  0  0  0  0  0  0  0  0
   59.7220   28.1830   44.3070 N   0  0  0  0  0  0  0  0  0  0  0  0
   58.5140   28.1090   44.8010 C   0  0  0  0  0  0  0  0  0  0  0  0
   58.0900   26.8530   45.2560 C   0  0  0  0  0  0  0  0  0  0  0  0
   58.8032   26.0168   45.3011 H   0  0  0  0  0  0  0  0  0  0  0  0
   56.7660   26.6600   45.6520 C   0  0  0  0  0  0  0  0  0  0  0  0
   56.4334   25.6677   45.9908 H   0  0  0  0  0  0  0  0  0  0  0  0
   55.8890   27.6930   45.6200 N   0  0  0  0  0  0  0  0  0  0  0  0
   56.2720   28.9400   45.2450 C   0  0  0  0  0  0  0  0  0  0  0  0
   55.5334   29.7550   45.2303 H   0  0  0  0  0  0  0  0  0  0  0  0
   57.6000   29.2000   44.8760 C   0  0  0  0  0  0  0  0  0  0  0  0
   58.0160   30.5670   44.7770 N   0  0  0  0  0  0  0  0  0  0  0  0
   59.0280   30.8190   44.8510 H   0  0  0  0  0  0  0  0  0  0  0  0
   57.3650   31.3050   44.4320 H   0  0  0  0  0  0  0  0  0  0  0  0
   62.0310   28.6460   44.2540 N   0  0  0  0  0  0  0  0  0  0  0  0
   62.3730   29.2710   43.4900 H   0  0  0  0  0  0  0  0  0  0  0  0
   62.6460   27.8530   44.5390 H   0  0  0  0  0  0  0  0  0  0  0  0
   59.5820   34.1070   45.1930 C   0  0  0  0  0  0  0  0  0  0  0  0
   60.4451   34.4827   44.6239 H   0  0  0  0  0  0  0  0  0  0  0  0
  1  2  1  0
  2  3  1  0
  3  4  1  0
  4  5  1  0
  4  6  2  0
  6  7  1  0
  6  8  1  0
  8  9  2  3
  9 10  1  0
 10 11  1  0
 10 12  1  0
 10 13  1  0
 13 14  1  0
 13 15  1  0
 13 16  1  0
 16 17  1  0
 16 18  1  0
 16 19  1  0
 19 20  1  0
 19 21  1  0
 19 22  1  0
 22 23  1  0
 22 24  1  0
 22 25  1  0
 25 26  1  0
 25 27  1  0
 25 28  1  0
 28 29  1  0
 29 30  1  0
 30 31  2  0
 31 32  1  0
 32 33  1  0
 32 34  2  0
 34 35  1  0
 34 36  1  0
 36 37  1  0
 37 38  1  0
 37 39  2  0
 39 40  1  0
 40 41  1  0
 40 42  1  0
 29 43  2  0
 43 44  1  0
 43 45  1  0
  8 46  1  0
 46 47  1  0
 46  2  2  0
 39 31  1  0
M  CHG  3   3  -1  36  -1  43   1
M  END
>  <UniqueID>  (43) 
38

>  <SMILES>  (43) 
Nc1c[n-]cc/c1=N/C(=[NH2+])OCCCCCCN=c1cc[n-]cc1

>  <Energy>  (43) 
52.36328709457738

>  <Genealogy>  (43) 
Nc1c[n-]ccc1=NC(=[NH2+])OCCCCCCN=c1cc[n-]cc1 (protonated)
Nc1c[n-]cc/c1=N/C(=[NH2+])OCCCCCCN=c1cc[n-]cc1 (cis-trans isomerization)
Nc1c[n-]cc/c1=N/C(=[NH2+])OCCCCCCN=c1cc[n-]cc1 (3D coordinates assigned)
Nc1c[n-]cc/c1=N/C(=[NH2+])OCCCCCCN=c1cc[n-]cc1 (optimized conformer: 52.36328709457738 kcal/mol)

>  <smiles>  (43) 
N=C(N=c1cc[nH]cc1N)OCCCCCCN=c1cc[nH]cc1

>  <score_type>  (43) 
oracle

>  <origin>  (43) 
adg

>  <m_score__min__energy>  (43) 
-9.1799999999999997

>  <m_primary>  (43) 
energy

$$$$
43:0
     RDKit          3D

 39 41  0  0  0  0  0  0  0  0999 V2000
   55.1490   28.0740   44.9250 H   0  0  0  0  0  0  0  0  0  0  0  0
   55.2060   29.0060   44.5330 O   0  0  0  0  0  0  0  0  0  0  0  0
   56.2710   29.8720   44.7810 C   0  0  0  0  0  0  0  0  0  0  0  0
   56.0200   31.2060   44.8460 N   0  0  0  0  0  0  0  0  0  0  0  0
   56.9910   32.1210   45.1010 C   0  0  0  0  0  0  0  0  0  0  0  0
   56.6910   33.3440   45.1440 O   0  0  0  0  0  0  0  0  0  0  0  0
   58.3140   31.7010   45.3090 C   0  0  0  0  0  0  0  0  0  0  0  0
   59.4140   32.6950   45.5610 C   0  0  0  0  0  0  0  0  0  0  0  0
   59.5533   32.8208   46.6449 H   0  0  0  0  0  0  0  0  0  0  0  0
   60.3488   32.3292   45.1112 H   0  0  0  0  0  0  0  0  0  0  0  0
   59.1445   33.6620   45.1112 H   0  0  0  0  0  0  0  0  0  0  0  0
   58.6050   30.3340   45.2230 C   0  0  0  0  0  0  0  0  0  0  0  0
   59.6419   29.9886   45.3475 H   0  0  0  0  0  0  0  0  0  0  0  0
   57.5840   29.3990   44.9790 C   0  0  0  0  0  0  0  0  0  0  0  0
   57.9060   27.9580   44.8680 C   0  0  0  0  0  0  0  0  0  0  0  0
   58.0292   27.5375   43.8590 H   0  0  0  0  0  0  0  0  0  0  0  0
   58.0590   27.1240   45.9190 C   0  0  0  0  0  0  0  0  0  0  0  0
   58.8490   27.5030   47.1190 C   0  0  0  0  0  0  0  0  0  0  0  0
   58.5080   28.6350   47.8810 C   0  0  0  0  0  0  0  0  0  0  0  0
   57.6479   29.2542   47.5865 H   0  0  0  0  0  0  0  0  0  0  0  0
   59.2570   28.9770   49.0110 C   0  0  0  0  0  0  0  0  0  0  0  0
   58.9918   29.8699   49.5962 H   0  0  0  0  0  0  0  0  0  0  0  0
   60.3420   28.1860   49.3980 C   0  0  0  0  0  0  0  0  0  0  0  0
   60.9322   28.4581   50.2855 H   0  0  0  0  0  0  0  0  0  0  0  0
   60.6770   27.0500   48.6580 C   0  0  0  0  0  0  0  0  0  0  0  0
   61.5285   26.4255   48.9662 H   0  0  0  0  0  0  0  0  0  0  0  0
   59.9320   26.7050   47.5260 C   0  0  0  0  0  0  0  0  0  0  0  0
   60.1949   25.8047   46.9513 H   0  0  0  0  0  0  0  0  0  0  0  0
   57.4110   25.7860   45.8850 C   0  0  0  0  0  0  0  0  0  0  0  0
   58.2030   24.6240   45.8100 C   0  0  0  0  0  0  0  0  0  0  0  0
   59.2983   24.7120   45.7597 H   0  0  0  0  0  0  0  0  0  0  0  0
   57.6070   23.3590   45.7990 C   0  0  0  0  0  0  0  0  0  0  0  0
   58.2338   22.4571   45.7383 H   0  0  0  0  0  0  0  0  0  0  0  0
   56.2170   23.2390   45.8650 C   0  0  0  0  0  0  0  0  0  0  0  0
   55.7501   22.2430   45.8587 H   0  0  0  0  0  0  0  0  0  0  0  0
   55.4200   24.3830   45.9390 C   0  0  0  0  0  0  0  0  0  0  0  0
   54.3256   24.2852   45.9913 H   0  0  0  0  0  0  0  0  0  0  0  0
   56.0070   25.6540   45.9470 C   0  0  0  0  0  0  0  0  0  0  0  0
   55.1860   26.7760   45.9980 O   0  0  0  0  0  0  0  0  0  0  0  0
  1  2  1  0
  2  3  1  0
  3  4  1  0
  4  5  1  0
  5  6  2  0
  5  7  1  0
  7  8  1  0
  8  9  1  0
  8 10  1  0
  8 11  1  0
  7 12  2  0
 12 13  1  0
 12 14  1  0
 14 15  1  0
 15 16  1  0
 15 17  2  0
 17 18  1  0
 18 19  2  0
 19 20  1  0
 19 21  1  0
 21 22  1  0
 21 23  2  0
 23 24  1  0
 23 25  1  0
 25 26  1  0
 25 27  2  0
 27 28  1  0
 17 29  1  0
 29 30  2  0
 30 31  1  0
 30 32  1  0
 32 33  1  0
 32 34  2  0
 34 35  1  0
 34 36  1  0
 36 37  1  0
 36 38  2  0
 38 39  1  0
 14  3  2  0
 27 18  1  0
 38 29  1  0
M  CHG  2   4  -1  39  -1
M  END
>  <UniqueID>  (44) 
39

>  <SMILES>  (44) 
Cc1cc(/C=C(\c2ccccc2)c2ccccc2[O-])c(O)[n-]c1=O

>  <Energy>  (44) 
60.01357462887083

>  <Genealogy>  (44) 
Cc1cc(C=C(c2ccccc2)c2ccccc2[O-])c(O)[n-]c1=O (protonated)
Cc1cc(/C=C(\c2ccccc2)c2ccccc2[O-])c(O)[n-]c1=O (cis-trans isomerization)
Cc1cc(/C=C(\c2ccccc2)c2ccccc2[O-])c(O)[n-]c1=O (3D coordinates assigned)
Cc1cc(/C=C(\c2ccccc2)c2ccccc2[O-])c(O)[n-]c1=O (optimized conformer: 60.01357462887083 kcal/mol)

>  <smiles>  (44) 
Cc1cc(C=C(c2ccccc2)c2ccccc2O)c(O)[nH]c1=O

>  <score_type>  (44) 
oracle

>  <origin>  (44) 
adg

>  <m_score__min__energy>  (44) 
-14.289999999999999

>  <m_primary>  (44) 
energy

$$$$
44:0
     RDKit          3D

 69 72  0  0  0  0  0  0  0  0999 V2000
   57.6840   28.4240   43.6130 C   0  0  0  0  0  0  0  0  0  0  0  0
   58.2740   29.5160   44.0990 C   0  0  0  0  0  0  0  0  0  0  0  0
   57.4290   31.0610   44.1180 S   0  0  0  0  0  0  0  0  0  0  0  0
   57.2230   31.5180   42.6980 O   0  0  0  0  0  0  0  0  0  0  0  0
   56.0860   30.8750   44.7660 O   0  0  0  0  0  0  0  0  0  0  0  0
   58.3750   32.2310   45.0040 N   0  0  0  0  0  0  0  0  0  0  0  0
   58.5270   33.4720   44.2300 C   0  0  0  0  0  0  0  0  0  0  0  0
   59.5590   34.3870   44.9070 C   0  0  0  0  0  0  0  0  0  0  0  0
   59.4690   34.3690   46.3850 N   0  0  0  0  0  0  0  0  0  0  0  0
   60.7100   34.0150   47.1080 C   0  0  0  0  0  0  0  0  0  0  0  0
   60.6440   32.6710   47.8010 C   0  0  0  0  0  0  0  0  0  0  0  0
   60.4860   32.5930   49.1920 C   0  0  0  0  0  0  0  0  0  0  0  0
   60.4610   31.3520   49.8360 C   0  0  0  0  0  0  0  0  0  0  0  0
   60.5750   30.1630   49.0900 C   0  0  0  0  0  0  0  0  0  0  0  0
   60.5990   28.8980   49.6960 O   0  0  0  0  0  0  0  0  0  0  0  0
   61.3670   28.5700   50.8520 C   0  0  0  0  0  0  0  0  0  0  0  0
   60.6870   30.2390   47.6890 C   0  0  0  0  0  0  0  0  0  0  0  0
   60.7920   29.0820   46.9070 O   0  0  0  0  0  0  0  0  0  0  0  0
   59.7480   28.1650   46.7150 C   0  0  0  0  0  0  0  0  0  0  0  0
   58.4250   28.4630   47.0790 C   0  0  0  0  0  0  0  0  0  0  0  0
   57.3980   27.5520   46.8190 C   0  0  0  0  0  0  0  0  0  0  0  0
   57.6770   26.3150   46.2070 C   0  0  0  0  0  0  0  0  0  0  0  0
   56.5860   25.3610   45.8830 C   0  0  0  0  0  0  0  0  0  0  0  0
   55.3830   25.7170   46.0240 O   0  0  0  0  0  0  0  0  0  0  0  0
   56.8720   24.0170   45.4620 N   0  0  0  0  0  0  0  0  0  0  0  0
   56.1890   22.9060   46.1330 C   0  0  0  0  0  0  0  0  0  0  0  0
   57.0910   21.6710   46.1660 C   0  0  0  0  0  0  0  0  0  0  0  0
   57.6090   21.3390   44.7630 C   0  0  0  0  0  0  0  0  0  0  0  0
   58.3560   22.5370   44.1660 C   0  0  0  0  0  0  0  0  0  0  0  0
   57.4620   23.7810   44.1380 C   0  0  0  0  0  0  0  0  0  0  0  0
   59.0090   26.0150   45.8640 C   0  0  0  0  0  0  0  0  0  0  0  0
   60.0330   26.9350   46.1110 C   0  0  0  0  0  0  0  0  0  0  0  0
   60.7270   31.4840   47.0570 C   0  0  0  0  0  0  0  0  0  0  0  0
   58.2150   33.8340   46.9550 C   0  0  0  0  0  0  0  0  0  0  0  0
   57.7490   32.5020   46.3130 C   0  0  0  0  0  0  0  0  0  0  0  0
   58.2222   27.4647   43.6066 H   0  0  0  0  0  0  0  0  0  0  0  0
   56.6589   28.4821   43.2183 H   0  0  0  0  0  0  0  0  0  0  0  0
   59.2993   29.4515   44.4923 H   0  0  0  0  0  0  0  0  0  0  0  0
   59.3150   31.8000   45.1430 H   0  0  0  0  0  0  0  0  0  0  0  0
   58.8674   33.2281   43.2128 H   0  0  0  0  0  0  0  0  0  0  0  0
   57.5582   33.9909   44.1833 H   0  0  0  0  0  0  0  0  0  0  0  0
   60.5662   34.0564   44.6134 H   0  0  0  0  0  0  0  0  0  0  0  0
   59.3515   35.4159   44.5779 H   0  0  0  0  0  0  0  0  0  0  0  0
   61.5394   33.9937   46.3858 H   0  0  0  0  0  0  0  0  0  0  0  0
   60.8562   34.7748   47.8899 H   0  0  0  0  0  0  0  0  0  0  0  0
   60.3808   33.5157   49.7816 H   0  0  0  0  0  0  0  0  0  0  0  0
   60.3519   31.3043   50.9295 H   0  0  0  0  0  0  0  0  0  0  0  0
   60.7913   28.8159   51.7565 H   0  0  0  0  0  0  0  0  0  0  0  0
   61.5983   27.4946   50.8456 H   0  0  0  0  0  0  0  0  0  0  0  0
   62.3038   29.1465   50.8456 H   0  0  0  0  0  0  0  0  0  0  0  0
   58.1957   29.4193   47.5718 H   0  0  0  0  0  0  0  0  0  0  0  0
   56.3632   27.8032   47.0947 H   0  0  0  0  0  0  0  0  0  0  0  0
   55.9406   23.2017   47.1630 H   0  0  0  0  0  0  0  0  0  0  0  0
   55.2703   22.6635   45.5788 H   0  0  0  0  0  0  0  0  0  0  0  0
   57.9463   21.8666   46.8295 H   0  0  0  0  0  0  0  0  0  0  0  0
   56.5062   20.8167   46.5376 H   0  0  0  0  0  0  0  0  0  0  0  0
   58.2936   20.4802   44.8243 H   0  0  0  0  0  0  0  0  0  0  0  0
   56.7523   21.0975   44.1167 H   0  0  0  0  0  0  0  0  0  0  0  0
   59.2462   22.7471   44.7771 H   0  0  0  0  0  0  0  0  0  0  0  0
   58.6472   22.2906   43.1343 H   0  0  0  0  0  0  0  0  0  0  0  0
   58.0651   24.6544   43.8490 H   0  0  0  0  0  0  0  0  0  0  0  0
   56.6529   23.6228   43.4097 H   0  0  0  0  0  0  0  0  0  0  0  0
   59.2467   25.0477   45.3972 H   0  0  0  0  0  0  0  0  0  0  0  0
   61.0678   26.6906   45.8291 H   0  0  0  0  0  0  0  0  0  0  0  0
   60.8248   31.5347   45.9625 H   0  0  0  0  0  0  0  0  0  0  0  0
   58.3687   33.6644   48.0309 H   0  0  0  0  0  0  0  0  0  0  0  0
   57.4301   34.5773   46.7516 H   0  0  0  0  0  0  0  0  0  0  0  0
   58.0011   31.6783   46.9971 H   0  0  0  0  0  0  0  0  0  0  0  0
   56.6653   32.5852   46.1434 H   0  0  0  0  0  0  0  0  0  0  0  0
  1  2  2  0
  2  3  1  0
  3  4  2  0
  3  5  2  0
  3  6  1  0
  6  7  1  0
  7  8  1  0
  8  9  1  0
  9 10  1  0
 10 11  1  0
 11 12  2  0
 12 13  1  0
 13 14  2  0
 14 15  1  0
 15 16  1  0
 14 17  1  0
 17 18  1  0
 18 19  1  0
 19 20  2  0
 20 21  1  0
 21 22  2  0
 22 23  1  0
 23 24  2  0
 23 25  1  0
 25 26  1  0
 26 27  1  0
 27 28  1  0
 28 29  1  0
 29 30  1  0
 22 31  1  0
 31 32  2  0
 17 33  2  0
  9 34  1  0
 34 35  1  0
 35  6  1  0
 33 11  1  0
 32 19  1  0
 30 25  1  0
  1 36  1  0
  1 37  1  0
  2 38  1  0
  6 39  1  0
  7 40  1  0
  7 41  1  0
  8 42  1  0
  8 43  1  0
 10 44  1  0
 10 45  1  0
 12 46  1  0
 13 47  1  0
 16 48  1  0
 16 49  1  0
 16 50  1  0
 20 51  1  0
 21 52  1  0
 26 53  1  0
 26 54  1  0
 27 55  1  0
 27 56  1  0
 28 57  1  0
 28 58  1  0
 29 59  1  0
 29 60  1  0
 30 61  1  0
 30 62  1  0
 31 63  1  0
 32 64  1  0
 33 65  1  0
 34 66  1  0
 34 67  1  0
 35 68  1  0
 35 69  1  0
M  CHG  1   6   1
M  END
>  <UniqueID>  (45) 
40

>  <SMILES>  (45) 
C=CS(=O)(=O)[NH+]1CCN(Cc2ccc(OC)c(Oc3ccc(C(=O)N4CCCCC4)cc3)c2)CC1

>  <Energy>  (45) 
87.92781422378181

>  <Genealogy>  (45) 
C=CS(=O)(=O)[NH+]1CCN(Cc2ccc(OC)c(Oc3ccc(C(=O)N4CCCCC4)cc3)c2)CC1 (protonated)
C=CS(=O)(=O)[NH+]1CCN(Cc2ccc(OC)c(Oc3ccc(C(=O)N4CCCCC4)cc3)c2)CC1 (3D coordinates assigned)
C=CS(=O)(=O)[NH+]1CCN(Cc2ccc(OC)c(Oc3ccc(C(=O)N4CCCCC4)cc3)c2)CC1 (nonaromatic ring conformer: 87.92781422378181 kcal/mol)

>  <smiles>  (45) 
C=CS(=O)(=O)N1CCN(Cc2ccc(OC)c(Oc3ccc(C(=O)N4CCCCC4)cc3)c2)CC1

>  <score_type>  (45) 
oracle

>  <origin>  (45) 
adg

>  <m_score__min__energy>  (45) 
-8.9100000000000001

>  <m_primary>  (45) 
energy

$$$$
45:0
     RDKit          3D

 40 41  0  0  0  0  0  0  0  0999 V2000
   55.7890   23.1780   43.7740 C   0  0  0  0  0  0  0  0  0  0  0  0
   56.2510   24.4840   44.4080 C   0  0  0  0  0  0  0  0  0  0  0  0
   55.3450   24.8220   45.9120 S   0  0  0  0  0  0  0  0  0  0  0  0
   55.0700   26.2970   45.9940 O   0  0  0  0  0  0  0  0  0  0  0  0
   54.0330   24.0870   45.8770 O   0  0  0  0  0  0  0  0  0  0  0  0
   56.2510   24.3420   47.3190 N   0  0  0  0  0  0  0  0  0  0  0  0
   57.3850   25.2390   47.5610 C   0  0  0  0  0  0  0  0  0  0  0  0
   58.5060   24.9250   46.6230 C   0  0  0  0  0  0  0  0  0  0  0  0
   58.6750   23.7350   46.2390 O   0  0  0  0  0  0  0  0  0  0  0  0
   59.2930   25.9980   46.0830 N   0  0  0  0  0  0  0  0  0  0  0  0
   58.8970   27.1630   45.6480 C   0  0  0  0  0  0  0  0  0  0  0  0
   59.7880   28.1710   45.2220 C   0  0  0  0  0  0  0  0  0  0  0  0
   59.2810   29.3980   44.7910 C   0  0  0  0  0  0  0  0  0  0  0  0
   57.9030   29.6240   44.7800 C   0  0  0  0  0  0  0  0  0  0  0  0
   57.2500   31.1770   44.2740 S   0  0  0  0  0  0  0  0  0  0  0  0
   55.7640   31.1980   44.5070 O   0  0  0  0  0  0  0  0  0  0  0  0
   57.4960   31.3910   42.8070 O   0  0  0  0  0  0  0  0  0  0  0  0
   58.0320   32.4540   45.1950 C   0  0  0  0  0  0  0  0  0  0  0  0
   58.5060   33.6090   44.5540 C   0  0  0  0  0  0  0  0  0  0  0  0
   59.1110   34.6270   45.2990 C   0  0  0  0  0  0  0  0  0  0  0  0
   59.2370   34.4990   46.6860 C   0  0  0  0  0  0  0  0  0  0  0  0
   58.7580   33.3540   47.3300 C   0  0  0  0  0  0  0  0  0  0  0  0
   58.1550   32.3340   46.5870 C   0  0  0  0  0  0  0  0  0  0  0  0
   57.0490   28.6100   45.2230 C   0  0  0  0  0  0  0  0  0  0  0  0
   57.5610   27.4230   45.6420 N   0  0  0  0  0  0  0  0  0  0  0  0
   55.5339   22.4568   44.5644 H   0  0  0  0  0  0  0  0  0  0  0  0
   54.9030   23.3666   43.1499 H   0  0  0  0  0  0  0  0  0  0  0  0
   56.5965   22.7676   43.1499 H   0  0  0  0  0  0  0  0  0  0  0  0
   57.3231   24.4104   44.6428 H   0  0  0  0  0  0  0  0  0  0  0  0
   56.0675   25.3029   43.6969 H   0  0  0  0  0  0  0  0  0  0  0  0
   57.0636   26.2796   47.4066 H   0  0  0  0  0  0  0  0  0  0  0  0
   57.7350   25.1015   48.5947 H   0  0  0  0  0  0  0  0  0  0  0  0
   60.8732   27.9912   45.2295 H   0  0  0  0  0  0  0  0  0  0  0  0
   59.9691   30.1894   44.4590 H   0  0  0  0  0  0  0  0  0  0  0  0
   58.4017   33.7141   43.4640 H   0  0  0  0  0  0  0  0  0  0  0  0
   59.4877   35.5285   44.7936 H   0  0  0  0  0  0  0  0  0  0  0  0
   59.7133   35.2997   47.2708 H   0  0  0  0  0  0  0  0  0  0  0  0
   58.8555   33.2555   48.4212 H   0  0  0  0  0  0  0  0  0  0  0  0
   57.7762   31.4353   47.0957 H   0  0  0  0  0  0  0  0  0  0  0  0
   55.9612   28.7730   45.2325 H   0  0  0  0  0  0  0  0  0  0  0  0
  1  2  1  0
  2  3  1  0
  3  4  2  0
  3  5  2  0
  3  6  1  0
  6  7  1  0
  7  8  1  0
  8  9  2  0
  8 10  1  0
 10 11  2  3
 11 12  1  0
 12 13  2  0
 13 14  1  0
 14 15  1  0
 15 16  2  0
 15 17  2  0
 15 18  1  0
 18 19  2  0
 19 20  1  0
 20 21  2  0
 21 22  1  0
 22 23  2  0
 14 24  2  0
 24 25  1  0
 25 11  1  0
 23 18  1  0
  1 26  1  0
  1 27  1  0
  1 28  1  0
  2 29  1  0
  2 30  1  0
  7 31  1  0
  7 32  1  0
 12 33  1  0
 13 34  1  0
 19 35  1  0
 20 36  1  0
 21 37  1  0
 22 38  1  0
 23 39  1  0
 24 40  1  0
M  CHG  2   6  -1  25  -1
M  END
>  <UniqueID>  (46) 
41

>  <SMILES>  (46) 
CCS(=O)(=O)[N-]CC(=O)N=c1ccc(S(=O)(=O)c2ccccc2)c[n-]1

>  <Energy>  (46) 
40.114363649604854

>  <Genealogy>  (46) 
CCS(=O)(=O)[N-]CC(=O)N=c1ccc(S(=O)(=O)c2ccccc2)c[n-]1 (protonated)
CCS(=O)(=O)[N-]CC(=O)N=c1ccc(S(=O)(=O)c2ccccc2)c[n-]1 (3D coordinates assigned)
CCS(=O)(=O)[N-]CC(=O)N=c1ccc(S(=O)(=O)c2ccccc2)c[n-]1 (optimized conformer: 40.114363649604854 kcal/mol)

>  <smiles>  (46) 
CCS(=O)(=O)NCC(=O)N=c1ccc(S(=O)(=O)c2ccccc2)c[nH]1

>  <score_type>  (46) 
oracle

>  <origin>  (46) 
adg

>  <m_score__min__energy>  (46) 
-12.800000000000001

>  <m_primary>  (46) 
energy

$$$$
46:0
     RDKit          3D

 34 36  0  0  0  0  0  0  0  0999 V2000
   55.7620   24.0220   44.3210 C   0  0  0  0  0  0  0  0  0  0  0  0
   54.9460   24.7840   45.7080 S   0  0  0  0  0  0  0  0  0  0  0  0
   55.4250   24.1250   46.9690 O   0  0  0  0  0  0  0  0  0  0  0  0
   53.4570   24.6060   45.6050 O   0  0  0  0  0  0  0  0  0  0  0  0
   55.3390   26.4720   45.7780 N   0  0  0  0  0  0  0  0  0  0  0  0
   56.6610   27.0320   45.8160 C   0  0  0  0  0  0  0  0  0  0  0  0
   57.7920   26.2430   46.0890 C   0  0  0  0  0  0  0  0  0  0  0  0
   59.0630   26.8170   46.1040 C   0  0  0  0  0  0  0  0  0  0  0  0
   59.2210   28.1810   45.8610 C   0  0  0  0  0  0  0  0  0  0  0  0
   58.1050   28.9900   45.5980 C   0  0  0  0  0  0  0  0  0  0  0  0
   58.3110   30.4420   45.3940 C   0  0  0  0  0  0  0  0  0  0  0  0
   57.8470   31.0630   44.2220 C   0  0  0  0  0  0  0  0  0  0  0  0
   58.0570   32.4290   44.0130 C   0  0  0  0  0  0  0  0  0  0  0  0
   58.7410   33.1860   44.9690 C   0  0  0  0  0  0  0  0  0  0  0  0
   58.9480   34.5150   44.7720 N   0  0  0  0  0  0  0  0  0  0  0  0
   59.6150   35.2610   45.6920 C   0  0  0  0  0  0  0  0  0  0  0  0
   59.7970   36.4900   45.4900 O   0  0  0  0  0  0  0  0  0  0  0  0
   60.0870   34.6840   46.8270 N   0  0  0  0  0  0  0  0  0  0  0  0
   59.9050   33.3590   47.0710 C   0  0  0  0  0  0  0  0  0  0  0  0
   59.2210   32.5690   46.1400 C   0  0  0  0  0  0  0  0  0  0  0  0
   59.0110   31.1990   46.3490 C   0  0  0  0  0  0  0  0  0  0  0  0
   56.8170   28.4040   45.5540 C   0  0  0  0  0  0  0  0  0  0  0  0
   55.6820   29.1540   45.2330 O   0  0  0  0  0  0  0  0  0  0  0  0
   56.5205   23.3137   44.6857 H   0  0  0  0  0  0  0  0  0  0  0  0
   55.0218   23.4843   43.7102 H   0  0  0  0  0  0  0  0  0  0  0  0
   56.2478   24.7972   43.7102 H   0  0  0  0  0  0  0  0  0  0  0  0
   57.6740   25.1683   46.2917 H   0  0  0  0  0  0  0  0  0  0  0  0
   59.9443   26.1913   46.3083 H   0  0  0  0  0  0  0  0  0  0  0  0
   60.2270   28.6257   45.8756 H   0  0  0  0  0  0  0  0  0  0  0  0
   57.3148   30.4700   43.4637 H   0  0  0  0  0  0  0  0  0  0  0  0
   57.6840   32.9086   43.0960 H   0  0  0  0  0  0  0  0  0  0  0  0
   60.2939   32.9096   47.9966 H   0  0  0  0  0  0  0  0  0  0  0  0
   59.3940   30.7165   47.2603 H   0  0  0  0  0  0  0  0  0  0  0  0
   54.7630   28.9560   45.6080 H   0  0  0  0  0  0  0  0  0  0  0  0
  1  2  1  0
  2  3  2  0
  2  4  2  0
  2  5  1  0
  5  6  1  0
  6  7  2  0
  7  8  1  0
  8  9  2  0
  9 10  1  0
 10 11  1  0
 11 12  2  0
 12 13  1  0
 13 14  2  0
 14 15  1  0
 15 16  1  0
 16 17  2  0
 16 18  1  0
 18 19  2  0
 19 20  1  0
 20 21  2  0
 10 22  2  0
 22 23  1  0
 22  6  1  0
 21 11  1  0
 20 14  1  0
  1 24  1  0
  1 25  1  0
  1 26  1  0
  7 27  1  0
  8 28  1  0
  9 29  1  0
 12 30  1  0
 13 31  1  0
 19 32  1  0
 21 33  1  0
 23 34  1  0
M  CHG  2   5  -1  15  -1
M  END
>  <UniqueID>  (47) 
42

>  <SMILES>  (47) 
CS(=O)(=O)[N-]c1cccc(-c2ccc3[n-]c(=O)ncc3c2)c1O

>  <Energy>  (47) 
47.534582207612466

>  <Genealogy>  (47) 
CS(=O)(=O)[N-]c1cccc(-c2ccc3[n-]c(=O)ncc3c2)c1O (protonated)
CS(=O)(=O)[N-]c1cccc(-c2ccc3[n-]c(=O)ncc3c2)c1O (3D coordinates assigned)
CS(=O)(=O)[N-]c1cccc(-c2ccc3[n-]c(=O)ncc3c2)c1O (optimized conformer: 47.534582207612466 kcal/mol)

>  <smiles>  (47) 
CS(=O)(=O)Nc1cccc(-c2ccc3[nH]c(=O)ncc3c2)c1O

>  <score_type>  (47) 
oracle

>  <origin>  (47) 
adg

>  <m_score__min__energy>  (47) 
-12.42

>  <m_primary>  (47) 
energy

$$$$
47:0
     RDKit          3D

 48 51  0  0  0  0  0  0  0  0999 V2000
   59.2570   34.8050   51.3090 H   0  0  0  0  0  0  0  0  0  0  0  0
   58.5720   34.3790   51.9220 O   0  0  0  0  0  0  0  0  0  0  0  0
   58.1840   33.0450   51.7990 C   0  0  0  0  0  0  0  0  0  0  0  0
   57.0040   32.6260   52.4240 C   0  0  0  0  0  0  0  0  0  0  0  0
   56.4037   33.3471   52.9983 H   0  0  0  0  0  0  0  0  0  0  0  0
   56.5840   31.2980   52.3230 C   0  0  0  0  0  0  0  0  0  0  0  0
   55.6516   30.9771   52.8106 H   0  0  0  0  0  0  0  0  0  0  0  0
   57.3480   30.3780   51.6030 C   0  0  0  0  0  0  0  0  0  0  0  0
   57.0197   29.3308   51.5286 H   0  0  0  0  0  0  0  0  0  0  0  0
   58.5300   30.7850   50.9760 C   0  0  0  0  0  0  0  0  0  0  0  0
   59.1341   30.0536   50.4192 H   0  0  0  0  0  0  0  0  0  0  0  0
   58.9500   32.1250   51.0540 C   0  0  0  0  0  0  0  0  0  0  0  0
   60.1740   32.5610   50.4460 N   0  0  0  0  0  0  0  0  0  0  0  0
   60.3100   33.4410   49.3230 C   0  0  0  0  0  0  0  0  0  0  0  0
   59.8130   34.5990   49.3470 O   0  0  0  0  0  0  0  0  0  0  0  0
   61.0630   32.9860   48.1110 C   0  0  0  0  0  0  0  0  0  0  0  0
   62.0205   33.5249   48.0582 H   0  0  0  0  0  0  0  0  0  0  0  0
   61.2366   31.9027   48.1905 H   0  0  0  0  0  0  0  0  0  0  0  0
   60.2920   33.2510   46.8850 N   0  0  0  0  0  0  0  0  0  0  0  0
   59.4080   32.2620   46.3040 C   0  0  0  0  0  0  0  0  0  0  0  0
   59.5380   30.8870   46.5710 C   0  0  0  0  0  0  0  0  0  0  0  0
   60.3267   30.5334   47.2513 H   0  0  0  0  0  0  0  0  0  0  0  0
   58.6700   29.9690   45.9760 C   0  0  0  0  0  0  0  0  0  0  0  0
   58.7738   28.8970   46.1997 H   0  0  0  0  0  0  0  0  0  0  0  0
   57.6650   30.4020   45.0940 C   0  0  0  0  0  0  0  0  0  0  0  0
   56.7480   29.4170   44.4700 C   0  0  0  0  0  0  0  0  0  0  0  0
   56.5890   29.4290   43.2210 O   0  0  0  0  0  0  0  0  0  0  0  0
   56.0750   28.4040   45.2360 N   0  0  0  0  0  0  0  0  0  0  0  0
   56.6040   27.3010   45.6830 C   0  0  0  0  0  0  0  0  0  0  0  0
   57.9560   27.1750   45.8210 N   0  0  0  0  0  0  0  0  0  0  0  0
   58.5300   26.0400   46.2990 C   0  0  0  0  0  0  0  0  0  0  0  0
   59.6241   25.9737   46.3913 H   0  0  0  0  0  0  0  0  0  0  0  0
   57.7310   24.9580   46.6730 C   0  0  0  0  0  0  0  0  0  0  0  0
   58.1894   24.0345   47.0565 H   0  0  0  0  0  0  0  0  0  0  0  0
   56.3450   25.0610   46.5550 C   0  0  0  0  0  0  0  0  0  0  0  0
   55.7032   24.2178   46.8503 H   0  0  0  0  0  0  0  0  0  0  0  0
   55.7720   26.2370   46.0610 C   0  0  0  0  0  0  0  0  0  0  0  0
   54.3890   26.3400   45.9490 O   0  0  0  0  0  0  0  0  0  0  0  0
   57.5220   31.7770   44.8460 C   0  0  0  0  0  0  0  0  0  0  0  0
   56.7267   32.1305   44.1733 H   0  0  0  0  0  0  0  0  0  0  0  0
   58.3820   32.6990   45.4470 C   0  0  0  0  0  0  0  0  0  0  0  0
   58.2250   34.0660   45.1910 O   0  0  0  0  0  0  0  0  0  0  0  0
   58.9150   35.0560   45.9530 C   0  0  0  0  0  0  0  0  0  0  0  0
   58.3750   35.2313   46.8952 H   0  0  0  0  0  0  0  0  0  0  0  0
   58.9649   35.9877   45.3705 H   0  0  0  0  0  0  0  0  0  0  0  0
   60.3360   34.5850   46.2650 C   0  0  0  0  0  0  0  0  0  0  0  0
   60.8125   35.2945   46.9576 H   0  0  0  0  0  0  0  0  0  0  0  0
   60.9157   34.5337   45.3316 H   0  0  0  0  0  0  0  0  0  0  0  0
  1  2  1  0
  2  3  1  0
  3  4  2  0
  4  5  1  0
  4  6  1  0
  6  7  1  0
  6  8  2  0
  8  9  1  0
  8 10  1  0
 10 11  1  0
 10 12  2  0
 12 13  1  0
 13 14  1  0
 14 15  2  0
 14 16  1  0
 16 17  1  0
 16 18  1  0
 16 19  1  0
 19 20  1  0
 20 21  2  0
 21 22  1  0
 21 23  1  0
 23 24  1  0
 23 25  2  0
 25 26  1  0
 26 27  2  0
 26 28  1  0
 28 29  2  0
 29 30  1  0
 30 31  1  0
 31 32  1  0
 31 33  2  0
 33 34  1  0
 33 35  1  0
 35 36  1  0
 35 37  2  0
 37 38  1  0
 25 39  1  0
 39 40  1  0
 39 41  2  0
 41 42  1  0
 42 43  1  0
 43 44  1  0
 43 45  1  0
 43 46  1  0
 46 47  1  0
 46 48  1  0
 12  3  1  0
 46 19  1  0
 41 20  1  0
 37 29  1  0
M  CHG  3  13  -1  30  -1  38  -1
M  END
>  <UniqueID>  (48) 
43

>  <SMILES>  (48) 
O=C(CN1CCOc2cc(C(=O)/N=c3\[n-]cccc3[O-])ccc21)[N-]c1ccccc1O

>  <Energy>  (48) 
64.47061526460737

>  <Genealogy>  (48) 
O=C(CN1CCOc2cc(C(=O)N=c3[n-]cccc3[O-])ccc21)[N-]c1ccccc1O (protonated)
O=C(CN1CCOc2cc(C(=O)/N=c3\[n-]cccc3[O-])ccc21)[N-]c1ccccc1O (cis-trans isomerization)
O=C(CN1CCOc2cc(C(=O)/N=c3\[n-]cccc3[O-])ccc21)[N-]c1ccccc1O (3D coordinates assigned)
O=C(CN1CCOc2cc(C(=O)/N=c3\[n-]cccc3[O-])ccc21)[N-]c1ccccc1O (nonaromatic ring conformer: 64.47061526460737 kcal/mol)

>  <smiles>  (48) 
O=C(CN1CCOc2cc(C(=O)N=c3[nH]cccc3O)ccc21)Nc1ccccc1O

>  <score_type>  (48) 
oracle

>  <origin>  (48) 
adg

>  <m_score__min__energy>  (48) 
-13.81

>  <m_primary>  (48) 
energy

$$$$
48:0
     RDKit          3D

 31 32  0  0  0  0  0  0  0  0999 V2000
   61.1350   28.1860   45.3210 O   0  0  0  0  0  0  0  0  0  0  0  0
   60.3240   28.3810   46.2660 C   0  0  0  0  0  0  0  0  0  0  0  0
   60.7780   29.1690   47.4660 C   0  0  0  0  0  0  0  0  0  0  0  0
   60.7310   30.6470   47.1770 C   0  0  0  0  0  0  0  0  0  0  0  0
   61.8690   31.4460   47.3610 C   0  0  0  0  0  0  0  0  0  0  0  0
   61.8090   32.8290   47.1560 C   0  0  0  0  0  0  0  0  0  0  0  0
   63.4020   33.8550   47.4420 Br  0  0  0  0  0  0  0  0  0  0  0  0
   60.5960   33.4290   46.7620 C   0  0  0  0  0  0  0  0  0  0  0  0
   60.4980   34.8040   46.5490 O   0  0  0  0  0  0  0  0  0  0  0  0
   59.4570   32.6290   46.5790 C   0  0  0  0  0  0  0  0  0  0  0  0
   57.7910   33.4110   46.0570 Br  0  0  0  0  0  0  0  0  0  0  0  0
   59.5250   31.2480   46.7880 C   0  0  0  0  0  0  0  0  0  0  0  0
   58.9310   27.8970   46.1320 C   0  0  0  0  0  0  0  0  0  0  0  0
   57.9800   28.7340   45.5290 C   0  0  0  0  0  0  0  0  0  0  0  0
   56.6370   28.3420   45.4300 C   0  0  0  0  0  0  0  0  0  0  0  0
   55.6290   29.2890   44.8370 C   0  0  0  0  0  0  0  0  0  0  0  0
   56.2720   29.9380   43.1290 Br  0  0  0  0  0  0  0  0  0  0  0  0
   56.2390   27.1000   45.9560 C   0  0  0  0  0  0  0  0  0  0  0  0
   54.9040   26.7120   45.9020 O   0  0  0  0  0  0  0  0  0  0  0  0
   57.1860   26.2480   46.5400 C   0  0  0  0  0  0  0  0  0  0  0  0
   56.6410   24.5460   47.2340 Br  0  0  0  0  0  0  0  0  0  0  0  0
   58.5300   26.6370   46.6180 C   0  0  0  0  0  0  0  0  0  0  0  0
   59.4620   25.7600   47.1630 O   0  0  0  0  0  0  0  0  0  0  0  0
   60.1173   28.9455   48.3166 H   0  0  0  0  0  0  0  0  0  0  0  0
   61.8139   28.8866   47.7052 H   0  0  0  0  0  0  0  0  0  0  0  0
   62.8172   30.9813   47.6692 H   0  0  0  0  0  0  0  0  0  0  0  0
   60.0110   35.4260   47.1810 H   0  0  0  0  0  0  0  0  0  0  0  0
   58.6268   30.6290   46.6464 H   0  0  0  0  0  0  0  0  0  0  0  0
   58.2917   29.7101   45.1288 H   0  0  0  0  0  0  0  0  0  0  0  0
   54.6737   28.7632   44.6926 H   0  0  0  0  0  0  0  0  0  0  0  0
   55.4822   30.1396   45.5188 H   0  0  0  0  0  0  0  0  0  0  0  0
  1  2  2  0
  2  3  1  0
  3  4  1  0
  4  5  2  0
  5  6  1  0
  6  7  1  0
  6  8  2  0
  8  9  1  0
  8 10  1  0
 10 11  1  0
 10 12  2  0
  2 13  1  0
 13 14  2  0
 14 15  1  0
 15 16  1  0
 16 17  1  0
 15 18  2  0
 18 19  1  0
 18 20  1  0
 20 21  1  0
 20 22  2  0
 22 23  1  0
 12  4  1  0
 22 13  1  0
  3 24  1  0
  3 25  1  0
  5 26  1  0
  9 27  1  0
 12 28  1  0
 14 29  1  0
 16 30  1  0
 16 31  1  0
M  CHG  2  19  -1  23  -1
M  END
>  <UniqueID>  (49) 
44

>  <SMILES>  (49) 
O=C(Cc1cc(Br)c(O)c(Br)c1)c1cc(CBr)c([O-])c(Br)c1[O-]

>  <Energy>  (49) 
36.79233245554358

>  <Genealogy>  (49) 
O=C(Cc1cc(Br)c(O)c(Br)c1)c1cc(CBr)c([O-])c(Br)c1[O-] (protonated)
O=C(Cc1cc(Br)c(O)c(Br)c1)c1cc(CBr)c([O-])c(Br)c1[O-] (3D coordinates assigned)
O=C(Cc1cc(Br)c(O)c(Br)c1)c1cc(CBr)c([O-])c(Br)c1[O-] (optimized conformer: 36.79233245554358 kcal/mol)

>  <smiles>  (49) 
O=C(Cc1cc(Br)c(O)c(Br)c1)c1cc(CBr)c(O)c(Br)c1O

>  <score_type>  (49) 
oracle

>  <origin>  (49) 
adg

>  <m_score__min__energy>  (49) 
-12.91

>  <m_primary>  (49) 
energy

$$$$
49:0
     RDKit          3D

 48 50  0  0  0  0  0  0  0  0999 V2000
   55.4730   29.0030   44.8720 N   0  0  0  0  0  0  0  0  0  0  0  0
   56.6250   29.8160   45.0900 C   0  0  0  0  0  0  0  0  0  0  0  0
   57.2810   29.6820   46.1590 O   0  0  0  0  0  0  0  0  0  0  0  0
   57.0550   30.7800   44.0540 C   0  0  0  0  0  0  0  0  0  0  0  0
   56.6960   30.6400   42.6990 C   0  0  0  0  0  0  0  0  0  0  0  0
   57.2270   31.6190   41.8680 C   0  0  0  0  0  0  0  0  0  0  0  0
   58.1440   32.6710   42.8030 S   0  0  0  0  0  0  0  0  0  0  0  0
   57.8860   31.8860   44.2730 C   0  0  0  0  0  0  0  0  0  0  0  0
   58.3310   32.3680   45.5510 N   0  0  0  0  0  0  0  0  0  0  0  0
   58.4150   33.7640   45.8830 C   0  0  0  0  0  0  0  0  0  0  0  0
   58.1490   34.6460   45.0220 O   0  0  0  0  0  0  0  0  0  0  0  0
   58.8450   34.1880   47.2560 C   0  0  0  0  0  0  0  0  0  0  0  0
   59.1100   33.0330   48.1160 N   0  0  0  0  0  0  0  0  0  0  0  0
   60.5670   32.2020   47.6480 S   0  0  0  0  0  0  0  0  0  0  0  0
   61.5970   32.3300   48.7350 O   0  0  0  0  0  0  0  0  0  0  0  0
   61.1150   32.8420   46.4050 O   0  0  0  0  0  0  0  0  0  0  0  0
   60.2530   30.4980   47.3180 C   0  0  0  0  0  0  0  0  0  0  0  0
   60.4350   29.9910   46.0260 C   0  0  0  0  0  0  0  0  0  0  0  0
   60.1910   28.6410   45.7590 C   0  0  0  0  0  0  0  0  0  0  0  0
   59.7590   27.7800   46.7810 C   0  0  0  0  0  0  0  0  0  0  0  0
   59.5020   26.3490   46.5030 C   0  0  0  0  0  0  0  0  0  0  0  0
   60.4740   25.5630   46.3340 O   0  0  0  0  0  0  0  0  0  0  0  0
   58.1600   25.8370   46.4330 N   0  0  0  0  0  0  0  0  0  0  0  0
   57.2120   26.4270   45.4850 C   0  0  0  0  0  0  0  0  0  0  0  0
   55.7810   26.1760   45.9710 C   0  0  0  0  0  0  0  0  0  0  0  0
   55.5710   24.7970   46.2140 O   0  0  0  0  0  0  0  0  0  0  0  0
   56.3940   24.3670   47.2830 C   0  0  0  0  0  0  0  0  0  0  0  0
   57.8790   24.4830   46.9150 C   0  0  0  0  0  0  0  0  0  0  0  0
   59.5520   28.3010   48.0710 C   0  0  0  0  0  0  0  0  0  0  0  0
   59.8020   29.6500   48.3370 C   0  0  0  0  0  0  0  0  0  0  0  0
   54.5240   29.3300   45.1640 H   0  0  0  0  0  0  0  0  0  0  0  0
   56.0522   29.8274   42.3312 H   0  0  0  0  0  0  0  0  0  0  0  0
   57.0729   31.6927   40.7813 H   0  0  0  0  0  0  0  0  0  0  0  0
   58.6070   31.6760   46.2810 H   0  0  0  0  0  0  0  0  0  0  0  0
   59.7620   34.7900   47.1734 H   0  0  0  0  0  0  0  0  0  0  0  0
   58.0308   34.7744   47.7069 H   0  0  0  0  0  0  0  0  0  0  0  0
   60.7712   30.6574   45.2180 H   0  0  0  0  0  0  0  0  0  0  0  0
   60.3383   28.2502   44.7414 H   0  0  0  0  0  0  0  0  0  0  0  0
   57.3905   27.5101   45.4140 H   0  0  0  0  0  0  0  0  0  0  0  0
   57.3491   25.9672   44.4951 H   0  0  0  0  0  0  0  0  0  0  0  0
   55.6120   26.7368   46.9021 H   0  0  0  0  0  0  0  0  0  0  0  0
   55.0789   26.5095   45.1926 H   0  0  0  0  0  0  0  0  0  0  0  0
   56.1924   24.9915   48.1658 H   0  0  0  0  0  0  0  0  0  0  0  0
   56.1675   23.3121   47.4971 H   0  0  0  0  0  0  0  0  0  0  0  0
   58.4938   24.2754   47.8032 H   0  0  0  0  0  0  0  0  0  0  0  0
   58.1179   23.7563   46.1245 H   0  0  0  0  0  0  0  0  0  0  0  0
   59.1912   27.6428   48.8751 H   0  0  0  0  0  0  0  0  0  0  0  0
   59.6439   30.0471   49.3506 H   0  0  0  0  0  0  0  0  0  0  0  0
  1  2  1  0
  2  3  2  0
  2  4  1  0
  4  5  1  0
  5  6  2  0
  6  7  1  0
  7  8  1  0
  8  9  1  0
  9 10  1  0
 10 11  2  0
 10 12  1  0
 12 13  1  0
 13 14  1  0
 14 15  2  0
 14 16  2  0
 14 17  1  0
 17 18  2  0
 18 19  1  0
 19 20  2  0
 20 21  1  0
 21 22  2  0
 21 23  1  0
 23 24  1  0
 24 25  1  0
 25 26  1  0
 26 27  1  0
 27 28  1  0
 20 29  1  0
 29 30  2  0
  8  4  2  0
 30 17  1  0
 28 23  1  0
  1 31  1  0
  5 32  1  0
  6 33  1  0
  9 34  1  0
 12 35  1  0
 12 36  1  0
 18 37  1  0
 19 38  1  0
 24 39  1  0
 24 40  1  0
 25 41  1  0
 25 42  1  0
 27 43  1  0
 27 44  1  0
 28 45  1  0
 28 46  1  0
 29 47  1  0
 30 48  1  0
M  CHG  2   1  -1  13  -1
M  END
>  <UniqueID>  (50) 
45

>  <SMILES>  (50) 
[NH-]C(=O)c1ccsc1NC(=O)C[N-]S(=O)(=O)c1ccc(C(=O)N2CCOCC2)cc1

>  <Energy>  (50) 
82.41695564575718

>  <Genealogy>  (50) 
[NH-]C(=O)c1ccsc1NC(=O)C[N-]S(=O)(=O)c1ccc(C(=O)N2CCOCC2)cc1 (protonated)
[NH-]C(=O)c1ccsc1NC(=O)C[N-]S(=O)(=O)c1ccc(C(=O)N2CCOCC2)cc1 (3D coordinates assigned)
[NH-]C(=O)c1ccsc1NC(=O)C[N-]S(=O)(=O)c1ccc(C(=O)N2CCOCC2)cc1 (nonaromatic ring conformer: 82.41695564575718 kcal/mol)

>  <smiles>  (50) 
NC(=O)c1ccsc1NC(=O)CNS(=O)(=O)c1ccc(C(=O)N2CCOCC2)cc1

>  <score_type>  (50) 
oracle

>  <origin>  (50) 
adg

>  <m_score__min__energy>  (50) 
-14.390000000000001

>  <m_primary>  (50) 
energy

$$$$
50:0
     RDKit          3D

 50 53  0  0  0  0  0  0  0  0999 V2000
   67.9552   30.2426   51.3382 H   0  0  0  0  0  0  0  0  0  0  0  0
   67.1500   30.9710   51.1620 C   0  0  0  0  0  0  0  0  0  0  0  0
   67.4630   32.2870   50.8090 C   0  0  0  0  0  0  0  0  0  0  0  0
   68.5144   32.5916   50.7004 H   0  0  0  0  0  0  0  0  0  0  0  0
   66.4410   33.2160   50.5940 C   0  0  0  0  0  0  0  0  0  0  0  0
   66.6901   34.2484   50.3074 H   0  0  0  0  0  0  0  0  0  0  0  0
   65.0940   32.8350   50.7430 C   0  0  0  0  0  0  0  0  0  0  0  0
   64.0400   33.7330   50.5200 O   0  0  0  0  0  0  0  0  0  0  0  0
   63.2540   33.7890   49.3600 C   0  0  0  0  0  0  0  0  0  0  0  0
   63.8360   33.4160   48.1300 C   0  0  0  0  0  0  0  0  0  0  0  0
   64.8874   33.0938   48.1021 H   0  0  0  0  0  0  0  0  0  0  0  0
   63.0890   33.4510   46.9400 C   0  0  0  0  0  0  0  0  0  0  0  0
   63.5488   33.1697   45.9811 H   0  0  0  0  0  0  0  0  0  0  0  0
   61.7540   33.8490   46.9980 C   0  0  0  0  0  0  0  0  0  0  0  0
   60.9330   33.9390   45.9200 N   0  0  0  0  0  0  0  0  0  0  0  0
   59.6960   34.3470   46.2890 C   0  0  0  0  0  0  0  0  0  0  0  0
   58.7600   34.5730   45.4160 N   0  0  0  0  0  0  0  0  0  0  0  0
   57.6590   33.6970   45.1420 C   0  0  0  0  0  0  0  0  0  0  0  0
   56.6510   33.6710   45.8990 O   0  0  0  0  0  0  0  0  0  0  0  0
   57.6820   32.8590   43.9040 C   0  0  0  0  0  0  0  0  0  0  0  0
   58.5962   33.0710   43.3301 H   0  0  0  0  0  0  0  0  0  0  0  0
   56.8068   33.0891   43.2786 H   0  0  0  0  0  0  0  0  0  0  0  0
   57.6600   31.4100   44.3040 C   0  0  0  0  0  0  0  0  0  0  0  0
   58.3880   30.9770   45.4240 C   0  0  0  0  0  0  0  0  0  0  0  0
   58.8729   31.7145   46.0805 H   0  0  0  0  0  0  0  0  0  0  0  0
   58.4990   29.6140   45.7080 C   0  0  0  0  0  0  0  0  0  0  0  0
   59.0677   29.2824   46.5893 H   0  0  0  0  0  0  0  0  0  0  0  0
   57.8890   28.6680   44.8750 C   0  0  0  0  0  0  0  0  0  0  0  0
   58.1480   26.9540   45.1750 S   0  0  0  0  0  0  0  0  0  0  0  0
   59.5610   26.6940   45.6140 O   0  0  0  0  0  0  0  0  0  0  0  0
   57.8870   26.1880   43.9080 O   0  0  0  0  0  0  0  0  0  0  0  0
   57.0540   26.4200   46.4060 N   0  0  0  0  0  0  0  0  0  0  0  0
   55.8480   25.7150   46.1060 C   0  0  0  0  0  0  0  0  0  0  0  0
   54.7550   26.3320   46.0000 O   0  0  0  0  0  0  0  0  0  0  0  0
   55.8900   24.2440   45.8630 C   0  0  0  0  0  0  0  0  0  0  0  0
   55.9051   23.7135   46.8265 H   0  0  0  0  0  0  0  0  0  0  0  0
   55.0001   23.9412   45.2916 H   0  0  0  0  0  0  0  0  0  0  0  0
   56.7957   23.9925   45.2916 H   0  0  0  0  0  0  0  0  0  0  0  0
   57.1470   29.0980   43.7660 C   0  0  0  0  0  0  0  0  0  0  0  0
   56.6500   28.3601   43.1192 H   0  0  0  0  0  0  0  0  0  0  0  0
   57.0370   30.4610   43.4800 C   0  0  0  0  0  0  0  0  0  0  0  0
   56.4590   30.7916   42.6044 H   0  0  0  0  0  0  0  0  0  0  0  0
   59.5750   34.6240   47.9630 S   0  0  0  0  0  0  0  0  0  0  0  0
   61.1780   34.1920   48.2110 C   0  0  0  0  0  0  0  0  0  0  0  0
   61.8940   34.1680   49.4030 C   0  0  0  0  0  0  0  0  0  0  0  0
   61.4134   34.4373   50.3551 H   0  0  0  0  0  0  0  0  0  0  0  0
   64.7900   31.5080   51.0760 C   0  0  0  0  0  0  0  0  0  0  0  0
   63.7399   31.1939   51.1687 H   0  0  0  0  0  0  0  0  0  0  0  0
   65.8150   30.5810   51.2910 C   0  0  0  0  0  0  0  0  0  0  0  0
   65.5695   29.5436   51.5620 H   0  0  0  0  0  0  0  0  0  0  0  0
  1  2  1  0
  2  3  2  0
  3  4  1  0
  3  5  1  0
  5  6  1  0
  5  7  2  0
  7  8  1  0
  8  9  1  0
  9 10  2  0
 10 11  1  0
 10 12  1  0
 12 13  1  0
 12 14  2  0
 14 15  1  0
 15 16  1  0
 16 17  2  0
 17 18  1  0
 18 19  2  0
 18 20  1  0
 20 21  1  0
 20 22  1  0
 20 23  1  0
 23 24  2  0
 24 25  1  0
 24 26  1  0
 26 27  1  0
 26 28  2  0
 28 29  1  0
 29 30  2  0
 29 31  2  0
 29 32  1  0
 32 33  1  0
 33 34  2  0
 33 35  1  0
 35 36  1  0
 35 37  1  0
 35 38  1  0
 28 39  1  0
 39 40  1  0
 39 41  2  0
 41 42  1  0
 16 43  1  0
 43 44  1  0
 44 45  2  0
 45 46  1  0
  7 47  1  0
 47 48  1  0
 47 49  2  0
 49 50  1  0
 49  2  1  0
 45  9  1  0
 44 14  1  0
 41 23  1  0
M  CHG  2  15  -1  32  -1
M  END
>  <UniqueID>  (51) 
46

>  <SMILES>  (51) 
CC(=O)[N-]S(=O)(=O)c1ccc(CC(=O)/N=c2/[n-]c3ccc(Oc4ccccc4)cc3s2)cc1

>  <Energy>  (51) 
97.34521492911169

>  <Genealogy>  (51) 
CC(=O)[N-]S(=O)(=O)c1ccc(CC(=O)N=c2[n-]c3ccc(Oc4ccccc4)cc3s2)cc1 (protonated)
CC(=O)[N-]S(=O)(=O)c1ccc(CC(=O)/N=c2/[n-]c3ccc(Oc4ccccc4)cc3s2)cc1 (cis-trans isomerization)
CC(=O)[N-]S(=O)(=O)c1ccc(CC(=O)/N=c2/[n-]c3ccc(Oc4ccccc4)cc3s2)cc1 (3D coordinates assigned)
CC(=O)[N-]S(=O)(=O)c1ccc(CC(=O)/N=c2/[n-]c3ccc(Oc4ccccc4)cc3s2)cc1 (optimized conformer: 97.34521492911169 kcal/mol)

>  <smiles>  (51) 
CC(=O)NS(=O)(=O)c1ccc(CC(=O)N=c2[nH]c3ccc(Oc4ccccc4)cc3s2)cc1

>  <score_type>  (51) 
oracle

>  <origin>  (51) 
adg

>  <m_score__min__energy>  (51) 
-13.09

>  <m_primary>  (51) 
energy

$$$$
51:0
     RDKit          3D

 39 41  0  0  0  0  0  0  0  0999 V2000
   54.3490   26.6650   46.7560 H   0  0  0  0  0  0  0  0  0  0  0  0
   54.7190   26.3450   45.8680 O   0  0  0  0  0  0  0  0  0  0  0  0
   55.4340   25.1540   45.7560 C   0  0  0  0  0  0  0  0  0  0  0  0
   54.9060   24.1130   44.9820 C   0  0  0  0  0  0  0  0  0  0  0  0
   53.9753   24.2693   44.4169 H   0  0  0  0  0  0  0  0  0  0  0  0
   55.5530   22.8810   44.9240 C   0  0  0  0  0  0  0  0  0  0  0  0
   55.1412   22.0641   44.3132 H   0  0  0  0  0  0  0  0  0  0  0  0
   56.7280   22.6960   45.6490 C   0  0  0  0  0  0  0  0  0  0  0  0
   57.2359   21.7204   45.6326 H   0  0  0  0  0  0  0  0  0  0  0  0
   57.2470   23.7190   46.3760 N   0  0  0  0  0  0  0  0  0  0  0  0
   56.6650   24.9480   46.4370 C   0  0  0  0  0  0  0  0  0  0  0  0
   57.2720   25.8710   47.1360 N   0  0  0  0  0  0  0  0  0  0  0  0
   58.3210   26.7600   46.7270 C   0  0  0  0  0  0  0  0  0  0  0  0
   59.5140   26.3640   46.7990 O   0  0  0  0  0  0  0  0  0  0  0  0
   58.0220   28.0930   46.1470 C   0  0  0  0  0  0  0  0  0  0  0  0
   58.5740   29.2550   46.7140 C   0  0  0  0  0  0  0  0  0  0  0  0
   59.3103   29.1703   47.5269 H   0  0  0  0  0  0  0  0  0  0  0  0
   58.1920   30.5190   46.2500 C   0  0  0  0  0  0  0  0  0  0  0  0
   58.6326   31.4223   46.6970 H   0  0  0  0  0  0  0  0  0  0  0  0
   57.2530   30.6390   45.2210 C   0  0  0  0  0  0  0  0  0  0  0  0
   56.7770   31.9430   44.8660 N   0  0  0  0  0  0  0  0  0  0  0  0
   57.8070   33.3290   44.6900 S   0  0  0  0  0  0  0  0  0  0  0  0
   58.6900   33.1440   43.4890 O   0  0  0  0  0  0  0  0  0  0  0  0
   56.9530   34.5520   44.4970 O   0  0  0  0  0  0  0  0  0  0  0  0
   58.8210   33.4970   46.1230 C   0  0  0  0  0  0  0  0  0  0  0  0
   58.2720   33.3570   47.4060 C   0  0  0  0  0  0  0  0  0  0  0  0
   57.1904   33.1965   47.5258 H   0  0  0  0  0  0  0  0  0  0  0  0
   59.0970   33.4210   48.5330 C   0  0  0  0  0  0  0  0  0  0  0  0
   58.6628   33.3114   49.5377 H   0  0  0  0  0  0  0  0  0  0  0  0
   60.4730   33.6240   48.3860 C   0  0  0  0  0  0  0  0  0  0  0  0
   61.1213   33.6671   49.2736 H   0  0  0  0  0  0  0  0  0  0  0  0
   61.0230   33.7720   47.1100 C   0  0  0  0  0  0  0  0  0  0  0  0
   62.1047   33.9343   46.9935 H   0  0  0  0  0  0  0  0  0  0  0  0
   60.2000   33.7140   45.9810 C   0  0  0  0  0  0  0  0  0  0  0  0
   60.6350   33.8389   44.9784 H   0  0  0  0  0  0  0  0  0  0  0  0
   56.7620   29.4800   44.5990 C   0  0  0  0  0  0  0  0  0  0  0  0
   56.0735   29.5667   43.7455 H   0  0  0  0  0  0  0  0  0  0  0  0
   57.1430   28.2190   45.0580 C   0  0  0  0  0  0  0  0  0  0  0  0
   56.7526   27.3170   44.5640 H   0  0  0  0  0  0  0  0  0  0  0  0
  1  2  1  0
  2  3  1  0
  3  4  2  0
  4  5  1  0
  4  6  1  0
  6  7  1  0
  6  8  2  0
  8  9  1  0
  8 10  1  0
 10 11  1  0
 11 12  2  0
 12 13  1  0
 13 14  2  0
 13 15  1  0
 15 16  2  0
 16 17  1  0
 16 18  1  0
 18 19  1  0
 18 20  2  0
 20 21  1  0
 21 22  1  0
 22 23  2  0
 22 24  2  0
 22 25  1  0
 25 26  2  0
 26 27  1  0
 26 28  1  0
 28 29  1  0
 28 30  2  0
 30 31  1  0
 30 32  1  0
 32 33  1  0
 32 34  2  0
 34 35  1  0
 20 36  1  0
 36 37  1  0
 36 38  2  0
 38 39  1  0
 11  3  1  0
 38 15  1  0
 34 25  1  0
M  CHG  2  10  -1  21  -1
M  END
>  <UniqueID>  (52) 
47

>  <SMILES>  (52) 
O=C(/N=c1/[n-]cccc1O)c1ccc([N-]S(=O)(=O)c2ccccc2)cc1

>  <Energy>  (52) 
58.719259882759225

>  <Genealogy>  (52) 
O=C(N=c1[n-]cccc1O)c1ccc([N-]S(=O)(=O)c2ccccc2)cc1 (protonated)
O=C(/N=c1/[n-]cccc1O)c1ccc([N-]S(=O)(=O)c2ccccc2)cc1 (cis-trans isomerization)
O=C(/N=c1/[n-]cccc1O)c1ccc([N-]S(=O)(=O)c2ccccc2)cc1 (3D coordinates assigned)
O=C(/N=c1/[n-]cccc1O)c1ccc([N-]S(=O)(=O)c2ccccc2)cc1 (optimized conformer: 58.719259882759225 kcal/mol)

>  <smiles>  (52) 
O=C(N=c1[nH]cccc1O)c1ccc(NS(=O)(=O)c2ccccc2)cc1

>  <score_type>  (52) 
oracle

>  <origin>  (52) 
adg

>  <m_score__min__energy>  (52) 
-11.699999999999999

>  <m_primary>  (52) 
energy

$$$$
52:0
     RDKit          3D

 42 44  0  0  0  0  0  0  0  0999 V2000
   54.1894   24.6032   46.0703 H   0  0  0  0  0  0  0  0  0  0  0  0
   55.1690   24.9990   45.7640 C   0  0  0  0  0  0  0  0  0  0  0  0
   55.4670   26.3080   45.9750 N   0  0  0  0  0  0  0  0  0  0  0  0
   56.6660   26.8490   45.6280 C   0  0  0  0  0  0  0  0  0  0  0  0
   56.8670   28.1140   45.8640 N   0  0  0  0  0  0  0  0  0  0  0  0
   56.6510   29.4250   44.7440 S   0  0  0  0  0  0  0  0  0  0  0  0
   57.0310   28.9850   43.3570 O   0  0  0  0  0  0  0  0  0  0  0  0
   55.2140   29.8650   44.7690 O   0  0  0  0  0  0  0  0  0  0  0  0
   57.6840   30.7670   45.2200 C   0  0  0  0  0  0  0  0  0  0  0  0
   57.4070   32.0670   44.7740 C   0  0  0  0  0  0  0  0  0  0  0  0
   56.5351   32.2511   44.1291 H   0  0  0  0  0  0  0  0  0  0  0  0
   58.2350   33.1300   45.1460 C   0  0  0  0  0  0  0  0  0  0  0  0
   58.0158   34.1468   44.7881 H   0  0  0  0  0  0  0  0  0  0  0  0
   59.3470   32.9040   45.9760 C   0  0  0  0  0  0  0  0  0  0  0  0
   60.2110   33.9420   46.3590 O   0  0  0  0  0  0  0  0  0  0  0  0
   61.3590   33.7940   47.1550 C   0  0  0  0  0  0  0  0  0  0  0  0
   62.6230   33.5700   46.5800 C   0  0  0  0  0  0  0  0  0  0  0  0
   62.7209   33.4968   45.4868 H   0  0  0  0  0  0  0  0  0  0  0  0
   63.7540   33.4400   47.3880 C   0  0  0  0  0  0  0  0  0  0  0  0
   64.7377   33.2570   46.9309 H   0  0  0  0  0  0  0  0  0  0  0  0
   63.6380   33.5420   48.7760 C   0  0  0  0  0  0  0  0  0  0  0  0
   64.5289   33.4310   49.4116 H   0  0  0  0  0  0  0  0  0  0  0  0
   62.3910   33.7850   49.3580 C   0  0  0  0  0  0  0  0  0  0  0  0
   62.3046   33.8695   50.4513 H   0  0  0  0  0  0  0  0  0  0  0  0
   61.2470   33.9220   48.5540 C   0  0  0  0  0  0  0  0  0  0  0  0
   59.9070   34.1760   49.1840 C   0  0  0  0  0  0  0  0  0  0  0  0
   60.0072   34.1570   50.2793 H   0  0  0  0  0  0  0  0  0  0  0  0
   59.5336   35.1609   48.8670 H   0  0  0  0  0  0  0  0  0  0  0  0
   59.1990   33.3961   48.8670 H   0  0  0  0  0  0  0  0  0  0  0  0
   59.6360   31.6010   46.3970 C   0  0  0  0  0  0  0  0  0  0  0  0
   60.5197   31.4123   47.0242 H   0  0  0  0  0  0  0  0  0  0  0  0
   58.8080   30.5380   46.0250 C   0  0  0  0  0  0  0  0  0  0  0  0
   59.0396   29.5179   46.3654 H   0  0  0  0  0  0  0  0  0  0  0  0
   57.6400   26.0250   45.0310 C   0  0  0  0  0  0  0  0  0  0  0  0
   58.6174   26.4403   44.7443 H   0  0  0  0  0  0  0  0  0  0  0  0
   57.3550   24.6770   44.8060 C   0  0  0  0  0  0  0  0  0  0  0  0
   58.1146   24.0245   44.3508 H   0  0  0  0  0  0  0  0  0  0  0  0
   56.1050   24.1530   45.1580 C   0  0  0  0  0  0  0  0  0  0  0  0
   55.8030   22.6980   44.9590 C   0  0  0  0  0  0  0  0  0  0  0  0
   55.7012   22.2074   45.9382 H   0  0  0  0  0  0  0  0  0  0  0  0
   54.8637   22.5921   44.3964 H   0  0  0  0  0  0  0  0  0  0  0  0
   56.6225   22.2270   44.3964 H   0  0  0  0  0  0  0  0  0  0  0  0
  1  2  1  0
  2  3  1  0
  3  4  1  0
  4  5  2  0
  5  6  1  0
  6  7  2  0
  6  8  2  0
  6  9  1  0
  9 10  2  0
 10 11  1  0
 10 12  1  0
 12 13  1  0
 12 14  2  0
 14 15  1  0
 15 16  1  0
 16 17  2  0
 17 18  1  0
 17 19  1  0
 19 20  1  0
 19 21  2  0
 21 22  1  0
 21 23  1  0
 23 24  1  0
 23 25  2  0
 25 26  1  0
 26 27  1  0
 26 28  1  0
 26 29  1  0
 14 30  1  0
 30 31  1  0
 30 32  2  0
 32 33  1  0
  4 34  1  0
 34 35  1  0
 34 36  2  0
 36 37  1  0
 36 38  1  0
 38 39  1  0
 39 40  1  0
 39 41  1  0
 39 42  1  0
 38  2  2  0
 32  9  1  0
 25 16  1  0
M  CHG  1   3  -1
M  END
>  <UniqueID>  (53) 
48

>  <SMILES>  (53) 
Cc1cc/c(=N\S(=O)(=O)c2ccc(Oc3ccccc3C)cc2)[n-]c1

>  <Energy>  (53) 
56.856220345408516

>  <Genealogy>  (53) 
Cc1ccc(=NS(=O)(=O)c2ccc(Oc3ccccc3C)cc2)[n-]c1 (protonated)
Cc1cc/c(=N\S(=O)(=O)c2ccc(Oc3ccccc3C)cc2)[n-]c1 (cis-trans isomerization)
Cc1cc/c(=N\S(=O)(=O)c2ccc(Oc3ccccc3C)cc2)[n-]c1 (3D coordinates assigned)
Cc1cc/c(=N\S(=O)(=O)c2ccc(Oc3ccccc3C)cc2)[n-]c1 (optimized conformer: 56.856220345408516 kcal/mol)

>  <smiles>  (53) 
Cc1ccc(=NS(=O)(=O)c2ccc(Oc3ccccc3C)cc2)[nH]c1

>  <score_type>  (53) 
oracle

>  <origin>  (53) 
adg

>  <m_score__min__energy>  (53) 
-10.77

>  <m_primary>  (53) 
energy

$$$$
53:0
     RDKit          3D

 34 36  0  0  0  0  0  0  0  0999 V2000
   59.2600   34.6290   44.5000 C   0  0  0  0  0  0  0  0  0  0  0  0
   58.9450   33.9850   45.7800 N   0  0  0  0  0  0  0  0  0  0  0  0
   57.7470   33.1950   45.8860 C   0  0  0  0  0  0  0  0  0  0  0  0
   56.6550   33.7640   46.1640 O   0  0  0  0  0  0  0  0  0  0  0  0
   57.7760   31.7390   45.6320 C   0  0  0  0  0  0  0  0  0  0  0  0
   58.9230   30.9810   45.9090 C   0  0  0  0  0  0  0  0  0  0  0  0
   58.9040   29.6050   45.6600 C   0  0  0  0  0  0  0  0  0  0  0  0
   60.0310   28.8120   45.9220 C   0  0  0  0  0  0  0  0  0  0  0  0
   59.9950   27.4370   45.6670 C   0  0  0  0  0  0  0  0  0  0  0  0
   58.8370   26.8490   45.1510 C   0  0  0  0  0  0  0  0  0  0  0  0
   57.7080   27.6300   44.8860 C   0  0  0  0  0  0  0  0  0  0  0  0
   57.7320   29.0140   45.1390 C   0  0  0  0  0  0  0  0  0  0  0  0
   56.6220   29.8410   44.8910 C   0  0  0  0  0  0  0  0  0  0  0  0
   55.5520   29.3620   44.4270 O   0  0  0  0  0  0  0  0  0  0  0  0
   56.6890   31.1440   45.1440 O   0  0  0  0  0  0  0  0  0  0  0  0
   59.9220   33.9500   46.8460 C   0  0  0  0  0  0  0  0  0  0  0  0
   59.5300   34.2170   48.1730 C   0  0  0  0  0  0  0  0  0  0  0  0
   60.4680   34.1930   49.2090 C   0  0  0  0  0  0  0  0  0  0  0  0
   61.8080   33.9050   48.9360 C   0  0  0  0  0  0  0  0  0  0  0  0
   62.7160   33.8820   49.9420 F   0  0  0  0  0  0  0  0  0  0  0  0
   62.2100   33.6420   47.6250 C   0  0  0  0  0  0  0  0  0  0  0  0
   61.2770   33.6660   46.5840 C   0  0  0  0  0  0  0  0  0  0  0  0
   59.7363   35.6028   44.6869 H   0  0  0  0  0  0  0  0  0  0  0  0
   59.9467   33.9889   43.9267 H   0  0  0  0  0  0  0  0  0  0  0  0
   58.3331   34.7782   43.9267 H   0  0  0  0  0  0  0  0  0  0  0  0
   59.8246   31.4619   46.3163 H   0  0  0  0  0  0  0  0  0  0  0  0
   60.9440   29.2718   46.3284 H   0  0  0  0  0  0  0  0  0  0  0  0
   60.8801   26.8173   45.8731 H   0  0  0  0  0  0  0  0  0  0  0  0
   58.8137   25.7673   44.9525 H   0  0  0  0  0  0  0  0  0  0  0  0
   56.7996   27.1618   44.4791 H   0  0  0  0  0  0  0  0  0  0  0  0
   58.4773   34.4461   48.3953 H   0  0  0  0  0  0  0  0  0  0  0  0
   60.1508   34.4013   50.2415 H   0  0  0  0  0  0  0  0  0  0  0  0
   63.2647   33.4151   47.4104 H   0  0  0  0  0  0  0  0  0  0  0  0
   61.6030   33.4618   45.5535 H   0  0  0  0  0  0  0  0  0  0  0  0
  1  2  1  0
  2  3  1  0
  3  4  2  0
  3  5  1  0
  5  6  2  0
  6  7  1  0
  7  8  2  0
  8  9  1  0
  9 10  2  0
 10 11  1  0
 11 12  2  0
 12 13  1  0
 13 14  2  0
 13 15  1  0
  2 16  1  0
 16 17  2  0
 17 18  1  0
 18 19  2  0
 19 20  1  0
 19 21  1  0
 21 22  2  0
 15  5  1  0
 22 16  1  0
 12  7  1  0
  1 23  1  0
  1 24  1  0
  1 25  1  0
  6 26  1  0
  8 27  1  0
  9 28  1  0
 10 29  1  0
 11 30  1  0
 17 31  1  0
 18 32  1  0
 21 33  1  0
 22 34  1  0
M  END
>  <UniqueID>  (54) 
49

>  <SMILES>  (54) 
CN(C(=O)c1cc2ccccc2c(=O)o1)c1ccc(F)cc1

>  <Energy>  (54) 
50.70763240351947

>  <Genealogy>  (54) 
CN(C(=O)c1cc2ccccc2c(=O)o1)c1ccc(F)cc1 (3D coordinates assigned)
CN(C(=O)c1cc2ccccc2c(=O)o1)c1ccc(F)cc1 (optimized conformer: 50.70763240351947 kcal/mol)

>  <smiles>  (54) 
CN(C(=O)c1cc2ccccc2c(=O)o1)c1ccc(F)cc1

>  <score_type>  (54) 
oracle

>  <origin>  (54) 
adg

>  <m_score__min__energy>  (54) 
-8.0800000000000001

>  <m_primary>  (54) 
energy

$$$$
54:0
     RDKit          3D

 42 44  0  0  0  0  0  0  0  0999 V2000
   57.8900   29.8920   45.0670 C   0  0  0  0  0  0  0  0  0  0  0  0
   57.2200   31.0940   45.4330 O   0  0  0  0  0  0  0  0  0  0  0  0
   57.8650   32.3110   45.7070 C   0  0  0  0  0  0  0  0  0  0  0  0
   57.8630   33.3800   44.7890 C   0  0  0  0  0  0  0  0  0  0  0  0
   58.5130   34.5760   45.0990 C   0  0  0  0  0  0  0  0  0  0  0  0
   59.1640   34.7220   46.3240 C   0  0  0  0  0  0  0  0  0  0  0  0
   59.1730   33.6710   47.2420 C   0  0  0  0  0  0  0  0  0  0  0  0
   58.5300   32.4550   46.9380 C   0  0  0  0  0  0  0  0  0  0  0  0
   58.5240   31.3540   47.8590 N   0  0  0  0  0  0  0  0  0  0  0  0
   59.7290   31.0550   49.0700 S   0  0  0  0  0  0  0  0  0  0  0  0
   60.8680   32.0150   48.8800 O   0  0  0  0  0  0  0  0  0  0  0  0
   60.2440   29.6510   48.9220 O   0  0  0  0  0  0  0  0  0  0  0  0
   59.0320   31.3070   50.6680 C   0  0  0  0  0  0  0  0  0  0  0  0
   59.8500   31.5920   51.7690 C   0  0  0  0  0  0  0  0  0  0  0  0
   59.2830   31.7780   53.0310 C   0  0  0  0  0  0  0  0  0  0  0  0
   57.9000   31.6760   53.2030 C   0  0  0  0  0  0  0  0  0  0  0  0
   57.3520   31.8720   54.4650 O   0  0  0  0  0  0  0  0  0  0  0  0
   57.0720   31.3720   52.1110 C   0  0  0  0  0  0  0  0  0  0  0  0
   55.6530   31.2980   52.3150 N   0  0  0  0  0  0  0  0  0  0  0  0
   54.8630   30.1010   52.3590 C   0  0  0  0  0  0  0  0  0  0  0  0
   55.3910   28.9840   52.1070 O   0  0  0  0  0  0  0  0  0  0  0  0
   53.4350   30.1990   52.7280 C   0  0  0  0  0  0  0  0  0  0  0  0
   53.0260   29.5200   53.7090 O   0  0  0  0  0  0  0  0  0  0  0  0
   52.4650   31.0670   52.0210 C   0  0  0  0  0  0  0  0  0  0  0  0
   51.7690   32.1180   52.5980 C   0  0  0  0  0  0  0  0  0  0  0  0
   50.9600   32.7140   51.7000 N   0  0  0  0  0  0  0  0  0  0  0  0
   51.1460   32.0320   50.5560 C   0  0  0  0  0  0  0  0  0  0  0  0
   50.4850   32.3370   49.3750 O   0  0  0  0  0  0  0  0  0  0  0  0
   52.0560   31.0100   50.7000 C   0  0  0  0  0  0  0  0  0  0  0  0
   57.6460   31.2070   50.8380 C   0  0  0  0  0  0  0  0  0  0  0  0
   58.1923   29.3497   45.9750 H   0  0  0  0  0  0  0  0  0  0  0  0
   57.2131   29.2616   44.4716 H   0  0  0  0  0  0  0  0  0  0  0  0
   58.7821   30.1362   44.4716 H   0  0  0  0  0  0  0  0  0  0  0  0
   57.3469   33.2717   43.8236 H   0  0  0  0  0  0  0  0  0  0  0  0
   58.5118   35.4049   44.3758 H   0  0  0  0  0  0  0  0  0  0  0  0
   59.6712   35.6674   46.5669 H   0  0  0  0  0  0  0  0  0  0  0  0
   59.6848   33.7927   48.2080 H   0  0  0  0  0  0  0  0  0  0  0  0
   60.9396   31.6693   51.6390 H   0  0  0  0  0  0  0  0  0  0  0  0
   59.9272   32.0057   53.8931 H   0  0  0  0  0  0  0  0  0  0  0  0
   51.8645   32.4249   53.6500 H   0  0  0  0  0  0  0  0  0  0  0  0
   52.3878   30.2989   49.9291 H   0  0  0  0  0  0  0  0  0  0  0  0
   57.0023   30.9982   49.9708 H   0  0  0  0  0  0  0  0  0  0  0  0
  1  2  1  0
  2  3  1  0
  3  4  2  0
  4  5  1  0
  5  6  2  0
  6  7  1  0
  7  8  2  0
  8  9  1  0
  9 10  1  0
 10 11  2  0
 10 12  2  0
 10 13  1  0
 13 14  2  0
 14 15  1  0
 15 16  2  0
 16 17  1  0
 16 18  1  0
 18 19  1  0
 19 20  1  0
 20 21  2  0
 20 22  1  0
 22 23  2  0
 22 24  1  0
 24 25  2  0
 25 26  1  0
 26 27  1  0
 27 28  1  0
 27 29  2  0
 18 30  2  0
  8  3  1  0
 30 13  1  0
 29 24  1  0
  1 31  1  0
  1 32  1  0
  1 33  1  0
  4 34  1  0
  5 35  1  0
  6 36  1  0
  7 37  1  0
 14 38  1  0
 15 39  1  0
 25 40  1  0
 29 41  1  0
 30 42  1  0
M  CHG  5   9  -1  17  -1  19  -1  26  -1  28  -1
M  END
>  <UniqueID>  (55) 
50

>  <SMILES>  (55) 
COc1ccccc1[N-]S(=O)(=O)c1ccc([O-])c([N-]C(=O)C(=O)c2c[n-]c([O-])c2)c1

>  <Energy>  (55) 
77.57329022512812

>  <Genealogy>  (55) 
COc1ccccc1[N-]S(=O)(=O)c1ccc([O-])c([N-]C(=O)C(=O)c2c[n-]c([O-])c2)c1 (protonated)
COc1ccccc1[N-]S(=O)(=O)c1ccc([O-])c([N-]C(=O)C(=O)c2c[n-]c([O-])c2)c1 (3D coordinates assigned)
COc1ccccc1[N-]S(=O)(=O)c1ccc([O-])c([N-]C(=O)C(=O)c2c[n-]c([O-])c2)c1 (optimized conformer: 77.57329022512812 kcal/mol)

>  <smiles>  (55) 
COc1ccccc1NS(=O)(=O)c1ccc(O)c(NC(=O)C(=O)c2c[nH]c(O)c2)c1

>  <score_type>  (55) 
oracle

>  <origin>  (55) 
adg

>  <m_score__min__energy>  (55) 
-17.960000000000001

>  <m_primary>  (55) 
energy

$$$$
55:0
     RDKit          3D

 30 30  0  0  0  0  0  0  0  0999 V2000
   58.7801   25.9075   45.7750 H   0  0  0  0  0  0  0  0  0  0  0  0
   57.7360   25.6000   45.9340 C   0  0  0  0  0  0  0  0  0  0  0  0
   56.6830   26.6380   45.8710 C   0  0  0  0  0  0  0  0  0  0  0  0
   55.4650   26.3370   45.9960 O   0  0  0  0  0  0  0  0  0  0  0  0
   57.0590   28.0650   45.6020 C   0  0  0  0  0  0  0  0  0  0  0  0
   57.7920   28.3935   46.3535 H   0  0  0  0  0  0  0  0  0  0  0  0
   56.1532   28.6867   45.6567 H   0  0  0  0  0  0  0  0  0  0  0  0
   57.6720   28.2070   44.2050 C   0  0  0  0  0  0  0  0  0  0  0  0
   57.4822   27.2863   43.6337 H   0  0  0  0  0  0  0  0  0  0  0  0
   58.7533   28.3780   44.3128 H   0  0  0  0  0  0  0  0  0  0  0  0
   57.0620   29.3970   43.4550 C   0  0  0  0  0  0  0  0  0  0  0  0
   56.8666   29.1029   42.4132 H   0  0  0  0  0  0  0  0  0  0  0  0
   57.7730   30.2355   43.4936 H   0  0  0  0  0  0  0  0  0  0  0  0
   55.7530   29.8420   44.1010 C   0  0  0  0  0  0  0  0  0  0  0  0
   55.8541   29.8076   45.1958 H   0  0  0  0  0  0  0  0  0  0  0  0
   55.5197   30.8699   43.7864 H   0  0  0  0  0  0  0  0  0  0  0  0
   54.9416   29.1692   43.7864 H   0  0  0  0  0  0  0  0  0  0  0  0
   57.4850   24.3020   46.1750 C   0  0  0  0  0  0  0  0  0  0  0  0
   57.4060   23.8550   47.4570 F   0  0  0  0  0  0  0  0  0  0  0  0
   57.3390   23.3070   45.0830 C   0  0  0  0  0  0  0  0  0  0  0  0
   56.6900   23.6780   43.8950 C   0  0  0  0  0  0  0  0  0  0  0  0
   56.2873   24.6957   43.7851 H   0  0  0  0  0  0  0  0  0  0  0  0
   56.5540   22.7600   42.8530 C   0  0  0  0  0  0  0  0  0  0  0  0
   56.0383   23.0472   41.9248 H   0  0  0  0  0  0  0  0  0  0  0  0
   57.0770   21.4760   42.9980 C   0  0  0  0  0  0  0  0  0  0  0  0
   56.9703   20.7442   42.1837 H   0  0  0  0  0  0  0  0  0  0  0  0
   57.7190   21.1270   44.1450 N   0  0  0  0  0  0  0  0  0  0  0  0
   58.1160   20.1640   44.2330 H   0  0  0  0  0  0  0  0  0  0  0  0
   57.8640   22.0030   45.1760 C   0  0  0  0  0  0  0  0  0  0  0  0
   58.3944   21.6911   46.0878 H   0  0  0  0  0  0  0  0  0  0  0  0
  1  2  1  0
  2  3  1  0
  3  4  2  0
  3  5  1  0
  5  6  1  0
  5  7  1  0
  5  8  1  0
  8  9  1  0
  8 10  1  0
  8 11  1  0
 11 12  1  0
 11 13  1  0
 11 14  1  0
 14 15  1  0
 14 16  1  0
 14 17  1  0
  2 18  2  0
 18 19  1  0
 18 20  1  0
 20 21  2  0
 21 22  1  0
 21 23  1  0
 23 24  1  0
 23 25  2  0
 25 26  1  0
 25 27  1  0
 27 28  1  0
 27 29  2  0
 29 30  1  0
 29 20  1  0
M  CHG  1  27   1
M  END
>  <UniqueID>  (56) 
51

>  <SMILES>  (56) 
CCCCC(=O)/C=C(\F)c1ccc[nH+]c1

>  <Energy>  (56) 
22.863735261735748

>  <Genealogy>  (56) 
CCCCC(=O)C=C(F)c1ccc[nH+]c1 (protonated)
CCCCC(=O)/C=C(\F)c1ccc[nH+]c1 (cis-trans isomerization)
CCCCC(=O)/C=C(\F)c1ccc[nH+]c1 (3D coordinates assigned)
CCCCC(=O)/C=C(\F)c1ccc[nH+]c1 (optimized conformer: 22.863735261735748 kcal/mol)

>  <smiles>  (56) 
CCCCC(=O)C=C(F)c1cccnc1

>  <score_type>  (56) 
oracle

>  <origin>  (56) 
adg

>  <m_score__min__energy>  (56) 
-4.5899999999999999

>  <m_primary>  (56) 
energy

$$$$
56:0
     RDKit          3D

 63 67  0  0  0  0  0  0  0  0999 V2000
   61.1570   33.9040   47.3860 C   0  0  0  0  0  0  0  0  0  0  0  0
   60.7580   33.7730   48.8540 C   0  0  0  0  0  0  0  0  0  0  0  0
   59.2680   33.4070   49.0380 C   0  0  1  0  0  0  0  0  0  0  0  0
   58.7300   32.7920   47.7820 C   0  0  0  0  0  0  0  0  0  0  0  0
   57.9000   33.4440   47.0920 O   0  0  0  0  0  0  0  0  0  0  0  0
   59.1890   31.4980   47.3260 N   0  0  0  0  0  0  0  0  0  0  0  0
   59.5280   31.4020   45.8910 C   0  0  0  0  0  0  0  0  0  0  0  0
   58.4150   30.7220   45.1270 C   0  0  0  0  0  0  0  0  0  0  0  0
   57.2640   31.4500   44.7850 C   0  0  0  0  0  0  0  0  0  0  0  0
   56.2070   30.8350   44.1130 C   0  0  0  0  0  0  0  0  0  0  0  0
   56.2860   29.4850   43.7750 C   0  0  0  0  0  0  0  0  0  0  0  0
   57.4200   28.7450   44.1120 C   0  0  0  0  0  0  0  0  0  0  0  0
   58.4940   29.3510   44.7940 C   0  0  0  0  0  0  0  0  0  0  0  0
   59.6400   28.6250   45.1600 O   0  0  0  0  0  0  0  0  0  0  0  0
   60.9090   28.7450   44.5260 C   0  0  0  0  0  0  0  0  0  0  0  0
   59.4710   30.4210   48.2780 C   0  0  0  0  0  0  0  0  0  0  0  0
   59.7490   29.1020   47.8400 C   0  0  0  0  0  0  0  0  0  0  0  0
   60.0560   28.0760   48.7510 C   0  0  0  0  0  0  0  0  0  0  0  0
   60.3630   26.7390   48.3220 N   0  0  0  0  0  0  0  0  0  0  0  0
   60.2030   26.1990   47.0010 C   0  0  0  0  0  0  0  0  0  0  0  0
   61.2130   25.9740   46.2820 O   0  0  0  0  0  0  0  0  0  0  0  0
   58.8530   25.8490   46.5000 C   0  0  0  0  0  0  0  0  0  0  0  0
   57.7460   26.6660   46.7900 C   0  0  0  0  0  0  0  0  0  0  0  0
   56.4740   26.3210   46.3300 C   0  0  0  0  0  0  0  0  0  0  0  0
   56.2880   25.1600   45.5760 C   0  0  0  0  0  0  0  0  0  0  0  0
   57.3790   24.3330   45.2630 C   0  0  0  0  0  0  0  0  0  0  0  0
   57.1890   23.1360   44.4870 N   0  0  0  0  0  0  0  0  0  0  0  0
   56.3510   22.9450   43.4450 C   0  0  0  0  0  0  0  0  0  0  0  0
   56.4670   21.6980   42.9490 N   0  0  0  0  0  0  0  0  0  0  0  0
   57.3900   21.0930   43.6790 N   0  0  0  0  0  0  0  0  0  0  0  0
   57.8250   21.9550   44.6100 C   0  0  0  0  0  0  0  0  0  0  0  0
   58.6580   24.6860   45.7290 C   0  0  0  0  0  0  0  0  0  0  0  0
   60.0080   28.3370   50.1180 C   0  0  0  0  0  0  0  0  0  0  0  0
   59.6950   29.6100   50.5800 C   0  0  0  0  0  0  0  0  0  0  0  0
   59.4340   30.6490   49.6790 C   0  0  0  0  0  0  0  0  0  0  0  0
   59.0160   32.2200   50.3340 S   0  0  0  0  0  0  0  0  0  0  0  0
   59.8730   32.5310   51.5290 O   0  0  0  0  0  0  0  0  0  0  0  0
   57.5690   32.2210   50.7400 O   0  0  0  0  0  0  0  0  0  0  0  0
   62.2002   34.2465   47.3187 H   0  0  0  0  0  0  0  0  0  0  0  0
   61.0593   32.9266   46.8909 H   0  0  0  0  0  0  0  0  0  0  0  0
   60.4990   34.6333   46.8909 H   0  0  0  0  0  0  0  0  0  0  0  0
   61.3729   32.9871   49.3168 H   0  0  0  0  0  0  0  0  0  0  0  0
   60.9206   34.7510   49.3305 H   0  0  0  0  0  0  0  0  0  0  0  0
   58.7521   34.3449   49.2912 H   0  0  0  0  0  0  0  0  0  0  0  0
   59.6788   32.4137   45.4865 H   0  0  0  0  0  0  0  0  0  0  0  0
   60.4477   30.8084   45.7823 H   0  0  0  0  0  0  0  0  0  0  0  0
   57.1949   32.5155   45.0494 H   0  0  0  0  0  0  0  0  0  0  0  0
   55.3108   31.4159   43.8498 H   0  0  0  0  0  0  0  0  0  0  0  0
   55.4535   29.0025   43.2420 H   0  0  0  0  0  0  0  0  0  0  0  0
   57.4760   27.6799   43.8431 H   0  0  0  0  0  0  0  0  0  0  0  0
   61.6956   28.8194   45.2913 H   0  0  0  0  0  0  0  0  0  0  0  0
   61.0905   27.8600   43.8984 H   0  0  0  0  0  0  0  0  0  0  0  0
   60.9214   29.6483   43.8984 H   0  0  0  0  0  0  0  0  0  0  0  0
   59.7240   28.8761   46.7637 H   0  0  0  0  0  0  0  0  0  0  0  0
   57.8831   27.5824   47.3828 H   0  0  0  0  0  0  0  0  0  0  0  0
   55.6141   26.9665   46.5624 H   0  0  0  0  0  0  0  0  0  0  0  0
   55.2806   24.8918   45.2251 H   0  0  0  0  0  0  0  0  0  0  0  0
   55.6633   23.7085   43.0525 H   0  0  0  0  0  0  0  0  0  0  0  0
   57.7140   20.1110   43.5360 H   0  0  0  0  0  0  0  0  0  0  0  0
   58.5916   21.7297   45.3660 H   0  0  0  0  0  0  0  0  0  0  0  0
   59.5187   24.0448   45.4881 H   0  0  0  0  0  0  0  0  0  0  0  0
   60.2190   27.5311   50.8363 H   0  0  0  0  0  0  0  0  0  0  0  0
   59.6521   29.8025   51.6622 H   0  0  0  0  0  0  0  0  0  0  0  0
  1  2  1  0
  2  3  1  0
  3  4  1  0
  4  5  2  0
  4  6  1  0
  6  7  1  0
  7  8  1  0
  8  9  2  0
  9 10  1  0
 10 11  2  0
 11 12  1  0
 12 13  2  0
 13 14  1  0
 14 15  1  0
  6 16  1  0
 16 17  2  0
 17 18  1  0
 18 19  1  0
 19 20  1  0
 20 21  2  0
 20 22  1  0
 22 23  2  0
 23 24  1  0
 24 25  2  0
 25 26  1  0
 26 27  1  0
 27 28  1  0
 28 29  2  0
 29 30  1  0
 30 31  2  0
 26 32  2  0
 18 33  2  0
 33 34  1  0
 34 35  2  0
 35 36  1  0
 36 37  2  0
 36 38  2  0
 36  3  1  0
 13  8  1  0
 35 16  1  0
 32 22  1  0
 31 27  1  0
  1 39  1  0
  1 40  1  0
  1 41  1  0
  2 42  1  0
  2 43  1  0
  3 44  1  1
  7 45  1  0
  7 46  1  0
  9 47  1  0
 10 48  1  0
 11 49  1  0
 12 50  1  0
 15 51  1  0
 15 52  1  0
 15 53  1  0
 17 54  1  0
 23 55  1  0
 24 56  1  0
 25 57  1  0
 28 58  1  0
 30 59  1  0
 31 60  1  0
 32 61  1  0
 33 62  1  0
 34 63  1  0
M  CHG  2  19  -1  30   1
M  END
>  <UniqueID>  (57) 
52

>  <SMILES>  (57) 
CC[C@H]1C(=O)N(Cc2ccccc2OC)c2cc([N-]C(=O)c3cccc(-n4cn[nH+]c4)c3)ccc2S1(=O)=O

>  <Energy>  (57) 
115.72207627978405

>  <Genealogy>  (57) 
CCC1C(=O)N(Cc2ccccc2OC)c2cc([N-]C(=O)c3cccc(-n4cn[nH+]c4)c3)ccc2S1(=O)=O (protonated)
CC[C@H]1C(=O)N(Cc2ccccc2OC)c2cc([N-]C(=O)c3cccc(-n4cn[nH+]c4)c3)ccc2S1(=O)=O (chirality)
CC[C@H]1C(=O)N(Cc2ccccc2OC)c2cc([N-]C(=O)c3cccc(-n4cn[nH+]c4)c3)ccc2S1(=O)=O (3D coordinates assigned)
CC[C@H]1C(=O)N(Cc2ccccc2OC)c2cc([N-]C(=O)c3cccc(-n4cn[nH+]c4)c3)ccc2S1(=O)=O (nonaromatic ring conformer: 115.72207627978405 kcal/mol)

>  <smiles>  (57) 
CCC1C(=O)N(Cc2ccccc2OC)c2cc(NC(=O)c3cccc(-n4cnnc4)c3)ccc2S1(=O)=O

>  <score_type>  (57) 
oracle

>  <origin>  (57) 
adg

>  <m_score__min__energy>  (57) 
-10.039999999999999

>  <m_primary>  (57) 
energy

$$$$
57:0
     RDKit          3D

 74 78  0  0  1  0  0  0  0  0999 V2000
   57.6290   28.9380   52.5860 O   0  0  0  0  0  0  0  0  0  0  0  0
   56.4780   29.4390   52.5240 C   0  0  0  0  0  0  0  0  0  0  0  0
   55.3240   28.6880   52.9600 N   0  0  0  0  0  0  0  0  0  0  0  0
   54.2080   29.3480   53.0100 C   0  0  0  0  0  0  0  0  0  0  0  0
   53.8320   30.0180   54.1700 C   0  0  0  0  0  0  0  0  0  0  0  0
   52.6460   30.7180   54.2210 C   0  0  0  0  0  0  0  0  0  0  0  0
   51.8190   30.7580   53.1160 C   0  0  0  0  0  0  0  0  0  0  0  0
   50.3020   31.6330   53.1290 Cl  0  0  0  0  0  0  0  0  0  0  0  0
   52.2070   30.0920   51.9810 C   0  0  0  0  0  0  0  0  0  0  0  0
   53.3720   29.4140   51.9570 N   0  0  0  0  0  0  0  0  0  0  0  0
   56.2580   30.7640   52.0250 N   0  0  0  0  0  0  0  0  0  0  0  0
   57.3680   31.5220   51.5940 C   0  0  0  0  0  0  0  0  0  0  0  0
   57.6910   32.7750   52.0280 C   0  0  0  0  0  0  0  0  0  0  0  0
   58.8050   33.4800   51.5660 C   0  0  0  0  0  0  0  0  0  0  0  0
   59.6490   32.8750   50.6000 C   0  0  0  0  0  0  0  0  0  0  0  0
   60.7010   33.4960   49.9970 N   0  0  0  0  0  0  0  0  0  0  0  0
   61.0790   33.5930   48.8410 C   0  0  0  0  0  0  0  0  0  0  0  0
   62.4220   33.6500   48.5980 N   0  0  0  0  0  0  0  0  0  0  0  0
   62.9500   33.7650   47.3760 C   0  0  0  0  0  0  0  0  0  0  0  0
   62.1120   33.8290   46.3300 N   0  0  0  0  0  0  0  0  0  0  0  0
   60.7850   33.7750   46.5360 C   0  0  0  0  0  0  0  0  0  0  0  0
   59.9790   33.8410   45.4290 C   0  0  0  0  0  0  0  0  0  0  0  0
   58.6230   33.7830   45.6260 C   0  0  0  0  0  0  0  0  0  0  0  0
   57.8160   33.8530   44.5070 O   0  0  0  0  0  0  0  0  0  0  0  0
   57.7910   32.9500   43.4420 C   0  0  0  0  0  0  0  0  0  0  0  0
   58.4380   31.6360   43.7640 C   0  0  0  0  0  0  0  0  0  0  0  0
   57.4940   30.6920   44.4670 C   0  0  0  0  0  0  0  0  0  0  0  0
   57.8210   29.3080   44.3130 N   0  0  0  0  0  0  0  0  0  0  0  0
   59.2270   29.0380   44.5710 C   0  0  0  0  0  0  0  0  0  0  0  0
   59.6050   29.4800   45.9810 C   0  0  0  0  0  0  0  0  0  0  0  0
   58.5550   29.0960   46.9140 N   0  0  0  0  0  0  0  0  0  0  0  0
   59.0100   28.7870   48.2270 C   0  0  0  0  0  0  0  0  0  0  0  0
   60.3350   28.0590   48.2390 C   0  0  0  0  0  0  0  0  0  0  0  0
   60.3850   27.0650   47.2630 O   0  0  0  0  0  0  0  0  0  0  0  0
   57.7800   27.9950   46.3710 C   0  0  0  0  0  0  0  0  0  0  0  0
   56.9930   28.5210   45.1950 C   0  0  0  0  0  0  0  0  0  0  0  0
   58.0070   33.6650   46.8370 C   0  0  0  0  0  0  0  0  0  0  0  0
   58.8550   33.6000   47.9580 C   0  0  0  0  0  0  0  0  0  0  0  0
   60.2070   33.6560   47.7880 C   0  0  0  0  0  0  0  0  0  0  0  0
   59.3100   31.5690   50.1500 C   0  0  0  0  0  0  0  0  0  0  0  0
   58.1960   30.9260   50.6450 C   0  0  0  0  0  0  0  0  0  0  0  0
   54.4867   29.9887   55.0535 H   0  0  0  0  0  0  0  0  0  0  0  0
   52.3580   31.2452   55.1425 H   0  0  0  0  0  0  0  0  0  0  0  0
   51.5654   30.1113   51.0877 H   0  0  0  0  0  0  0  0  0  0  0  0
   53.6270   28.9160   51.0550 H   0  0  0  0  0  0  0  0  0  0  0  0
   55.2700   31.1160   52.0030 H   0  0  0  0  0  0  0  0  0  0  0  0
   57.0430   33.2527   52.7776 H   0  0  0  0  0  0  0  0  0  0  0  0
   59.0242   34.4889   51.9456 H   0  0  0  0  0  0  0  0  0  0  0  0
   63.1060   33.6020   49.3950 H   0  0  0  0  0  0  0  0  0  0  0  0
   64.0397   33.8060   47.2317 H   0  0  0  0  0  0  0  0  0  0  0  0
   60.4045   33.9370   44.4192 H   0  0  0  0  0  0  0  0  0  0  0  0
   56.7425   32.7647   43.1658 H   0  0  0  0  0  0  0  0  0  0  0  0
   58.3627   33.4017   42.6179 H   0  0  0  0  0  0  0  0  0  0  0  0
   58.7743   31.1679   42.8271 H   0  0  0  0  0  0  0  0  0  0  0  0
   59.2834   31.8329   44.4397 H   0  0  0  0  0  0  0  0  0  0  0  0
   57.5044   30.9308   45.5407 H   0  0  0  0  0  0  0  0  0  0  0  0
   56.5054   30.8348   44.0063 H   0  0  0  0  0  0  0  0  0  0  0  0
   59.4134   27.9589   44.4676 H   0  0  0  0  0  0  0  0  0  0  0  0
   59.8360   29.5988   43.8467 H   0  0  0  0  0  0  0  0  0  0  0  0
   60.5491   28.9979   46.2745 H   0  0  0  0  0  0  0  0  0  0  0  0
   59.7269   30.5731   45.9996 H   0  0  0  0  0  0  0  0  0  0  0  0
   59.1213   29.7260   48.7891 H   0  0  0  0  0  0  0  0  0  0  0  0
   58.2646   28.1195   48.6841 H   0  0  0  0  0  0  0  0  0  0  0  0
   61.1416   28.7832   48.0521 H   0  0  0  0  0  0  0  0  0  0  0  0
   60.4552   27.5809   49.2224 H   0  0  0  0  0  0  0  0  0  0  0  0
   59.8290   27.2500   46.4910 H   0  0  0  0  0  0  0  0  0  0  0  0
   58.4534   27.1903   46.0409 H   0  0  0  0  0  0  0  0  0  0  0  0
   57.1023   27.5879   47.1359 H   0  0  0  0  0  0  0  0  0  0  0  0
   56.5795   27.6708   44.6328 H   0  0  0  0  0  0  0  0  0  0  0  0
   56.1885   29.1655   45.5790 H   0  0  0  0  0  0  0  0  0  0  0  0
   56.9119   33.6231   46.9318 H   0  0  0  0  0  0  0  0  0  0  0  0
   58.4290   33.5044   48.9677 H   0  0  0  0  0  0  0  0  0  0  0  0
   59.9416   31.0685   49.4013 H   0  0  0  0  0  0  0  0  0  0  0  0
   57.9543   29.9163   50.2815 H   0  0  0  0  0  0  0  0  0  0  0  0
  1  2  2  0
  2  3  1  0
  3  4  2  0
  4  5  1  0
  5  6  2  0
  6  7  1  0
  7  8  1  0
  7  9  2  0
  9 10  1  0
  2 11  1  0
 11 12  1  0
 12 13  2  0
 13 14  1  0
 14 15  2  0
 15 16  1  0
 16 17  2  0
 17 18  1  0
 18 19  1  0
 19 20  2  0
 20 21  1  0
 21 22  2  0
 22 23  1  0
 23 24  1  0
 24 25  1  0
 25 26  1  0
 26 27  1  0
 27 28  1  0
 28 29  1  0
 29 30  1  0
 30 31  1  0
 31 32  1  0
 32 33  1  0
 33 34  1  0
 31 35  1  0
 35 36  1  0
 23 37  2  0
 37 38  1  0
 38 39  2  0
 15 40  1  0
 40 41  2  0
 10  4  1  0
 41 12  1  0
 39 17  1  0
 39 21  1  0
 36 28  1  0
  5 42  1  0
  6 43  1  0
  9 44  1  0
 10 45  1  0
 11 46  1  0
 13 47  1  0
 14 48  1  0
 18 49  1  0
 19 50  1  0
 22 51  1  0
 25 52  1  0
 25 53  1  0
 26 54  1  0
 26 55  1  0
 27 56  1  0
 27 57  1  0
 29 58  1  0
 29 59  1  0
 30 60  1  0
 30 61  1  0
 32 62  1  0
 32 63  1  0
 33 64  1  0
 33 65  1  0
 34 66  1  0
 35 67  1  0
 35 68  1  0
 36 69  1  0
 36 70  1  0
 37 71  1  0
 38 72  1  0
 40 73  1  0
 41 74  1  0
M  END
>  <smiles>  (58) 
O=C(N=c1ccc(Cl)c[nH]1)Nc1ccc(N=c2[nH]cnc3cc(OCCCN4CCN(CCO)CC4)ccc23)cc1

>  <score_type>  (58) 
oracle

>  <origin>  (58) 
adg

>  <m_score__min__energy>  (58) 
-9.7200000000000006

>  <m_primary>  (58) 
energy

$$$$
58:0
     RDKit          3D

 58 61  0  0  0  0  0  0  0  0999 V2000
   57.4440   31.5530   43.2640 O   0  0  0  0  0  0  0  0  0  0  0  0
   57.1360   31.5270   44.4870 C   0  0  0  0  0  0  0  0  0  0  0  0
   56.6690   32.7740   45.1650 C   0  0  0  0  0  0  0  0  0  0  0  0
   57.8460   33.5100   45.7440 C   0  0  0  0  0  0  0  0  0  0  0  0
   58.1750   33.3630   47.1020 C   0  0  0  0  0  0  0  0  0  0  0  0
   59.2430   34.0810   47.6500 C   0  0  0  0  0  0  0  0  0  0  0  0
   59.9810   34.9570   46.8500 C   0  0  0  0  0  0  0  0  0  0  0  0
   59.6530   35.1190   45.5010 C   0  0  0  0  0  0  0  0  0  0  0  0
   58.5870   34.4020   44.9500 C   0  0  0  0  0  0  0  0  0  0  0  0
   57.2950   30.3290   45.2490 N   0  0  0  0  0  0  0  0  0  0  0  0
   58.2440   30.2080   46.3500 C   0  0  0  0  0  0  0  0  0  0  0  0
   58.4550   28.7540   46.6950 C   0  0  0  0  0  0  0  0  0  0  0  0
   57.5760   27.7840   46.1810 C   0  0  0  0  0  0  0  0  0  0  0  0
   57.7290   26.4260   46.5100 C   0  0  0  0  0  0  0  0  0  0  0  0
   56.8430   25.4390   45.9500 N   0  0  0  0  0  0  0  0  0  0  0  0
   55.5160   25.5690   45.7250 C   0  0  0  0  0  0  0  0  0  0  0  0
   54.7780   26.7130   46.0060 O   0  0  0  0  0  0  0  0  0  0  0  0
   54.9990   24.4020   45.2040 C   0  0  0  0  0  0  0  0  0  0  0  0
   53.6800   24.1770   44.8230 O   0  0  0  0  0  0  0  0  0  0  0  0
   56.0410   23.5010   45.1200 C   0  0  0  0  0  0  0  0  0  0  0  0
   55.9890   22.1210   44.6170 C   0  0  0  0  0  0  0  0  0  0  0  0
   56.0840   21.9250   43.3770 O   0  0  0  0  0  0  0  0  0  0  0  0
   55.7770   20.9400   45.5420 C   0  0  0  0  0  0  0  0  0  0  0  0
   56.9800   19.9570   45.5390 C   0  0  0  0  0  0  0  0  0  0  0  0
   57.9150   20.1880   46.7320 C   0  0  0  0  0  0  0  0  0  0  0  0
   57.1820   19.9910   48.0740 C   0  0  0  0  0  0  0  0  0  0  0  0
   55.6810   20.3410   48.0120 C   0  0  0  0  0  0  0  0  0  0  0  0
   55.3990   21.4220   46.9650 C   0  0  0  0  0  0  0  0  0  0  0  0
   57.1610   24.1820   45.5660 C   0  0  0  0  0  0  0  0  0  0  0  0
   58.4530   23.6640   45.5810 O   0  0  0  0  0  0  0  0  0  0  0  0
   58.7620   26.0470   47.3800 C   0  0  0  0  0  0  0  0  0  0  0  0
   59.6260   27.0050   47.9130 C   0  0  0  0  0  0  0  0  0  0  0  0
   59.4760   28.3540   47.5800 C   0  0  0  0  0  0  0  0  0  0  0  0
   60.3440   29.2880   48.1370 O   0  0  0  0  0  0  0  0  0  0  0  0
   56.1591   33.4183   44.4337 H   0  0  0  0  0  0  0  0  0  0  0  0
   55.9725   32.5087   45.9741 H   0  0  0  0  0  0  0  0  0  0  0  0
   57.5905   32.6807   47.7366 H   0  0  0  0  0  0  0  0  0  0  0  0
   59.5021   33.9559   48.7117 H   0  0  0  0  0  0  0  0  0  0  0  0
   60.8213   35.5200   47.2824 H   0  0  0  0  0  0  0  0  0  0  0  0
   60.2337   35.8107   44.8730 H   0  0  0  0  0  0  0  0  0  0  0  0
   58.3268   34.5366   43.8897 H   0  0  0  0  0  0  0  0  0  0  0  0
   59.2044   30.6547   46.0533 H   0  0  0  0  0  0  0  0  0  0  0  0
   57.8434   30.7325   47.2300 H   0  0  0  0  0  0  0  0  0  0  0  0
   56.7582   28.0920   45.5129 H   0  0  0  0  0  0  0  0  0  0  0  0
   53.0370   24.9480   44.6890 H   0  0  0  0  0  0  0  0  0  0  0  0
   54.9271   20.3594   45.1540 H   0  0  0  0  0  0  0  0  0  0  0  0
   56.5967   18.9269   45.5827 H   0  0  0  0  0  0  0  0  0  0  0  0
   57.5563   20.1290   44.6180 H   0  0  0  0  0  0  0  0  0  0  0  0
   58.7508   19.4752   46.6738 H   0  0  0  0  0  0  0  0  0  0  0  0
   58.2793   21.2250   46.6879 H   0  0  0  0  0  0  0  0  0  0  0  0
   57.2818   18.9374   48.3739 H   0  0  0  0  0  0  0  0  0  0  0  0
   57.6446   20.6766   48.7992 H   0  0  0  0  0  0  0  0  0  0  0  0
   55.1133   19.4353   47.7523 H   0  0  0  0  0  0  0  0  0  0  0  0
   55.3758   20.7261   48.9961 H   0  0  0  0  0  0  0  0  0  0  0  0
   54.3277   21.6706   46.9863 H   0  0  0  0  0  0  0  0  0  0  0  0
   56.0085   22.3056   47.2055 H   0  0  0  0  0  0  0  0  0  0  0  0
   58.8921   24.9871   47.6441 H   0  0  0  0  0  0  0  0  0  0  0  0
   60.4290   26.6966   48.5986 H   0  0  0  0  0  0  0  0  0  0  0  0
  1  2  2  0
  2  3  1  0
  3  4  1  0
  4  5  2  0
  5  6  1  0
  6  7  2  0
  7  8  1  0
  8  9  2  0
  2 10  1  0
 10 11  1  0
 11 12  1  0
 12 13  2  0
 13 14  1  0
 14 15  1  0
 15 16  1  0
 16 17  1  0
 16 18  2  0
 18 19  1  0
 18 20  1  0
 20 21  1  0
 21 22  2  0
 21 23  1  0
 23 24  1  0
 24 25  1  0
 25 26  1  0
 26 27  1  0
 27 28  1  0
 20 29  2  0
 29 30  1  0
 14 31  2  0
 31 32  1  0
 32 33  2  0
 33 34  1  0
  9  4  1  0
 33 12  1  0
 29 15  1  0
 28 23  1  0
  3 35  1  0
  3 36  1  0
  5 37  1  0
  6 38  1  0
  7 39  1  0
  8 40  1  0
  9 41  1  0
 11 42  1  0
 11 43  1  0
 13 44  1  0
 19 45  1  0
 23 46  1  0
 24 47  1  0
 24 48  1  0
 25 49  1  0
 25 50  1  0
 26 51  1  0
 26 52  1  0
 27 53  1  0
 27 54  1  0
 28 55  1  0
 28 56  1  0
 31 57  1  0
 32 58  1  0
M  CHG  4  10  -1  17  -1  30  -1  34  -1
M  END
>  <UniqueID>  (59) 
53

>  <SMILES>  (59) 
O=C(Cc1ccccc1)[N-]Cc1cc(-n2c([O-])c(O)c(C(=O)C3CCCCC3)c2[O-])ccc1[O-]

>  <Energy>  (59) 
100.4861502543635

>  <Genealogy>  (59) 
O=C(Cc1ccccc1)[N-]Cc1cc(-n2c([O-])c(O)c(C(=O)C3CCCCC3)c2[O-])ccc1[O-] (protonated)
O=C(Cc1ccccc1)[N-]Cc1cc(-n2c([O-])c(O)c(C(=O)C3CCCCC3)c2[O-])ccc1[O-] (3D coordinates assigned)
O=C(Cc1ccccc1)[N-]Cc1cc(-n2c([O-])c(O)c(C(=O)C3CCCCC3)c2[O-])ccc1[O-] (nonaromatic ring conformer: 100.4861502543635 kcal/mol)

>  <smiles>  (59) 
O=C(Cc1ccccc1)NCc1cc(-n2c(O)c(O)c(C(=O)C3CCCCC3)c2O)ccc1O

>  <score_type>  (59) 
oracle

>  <origin>  (59) 
adg

>  <m_score__min__energy>  (59) 
-15.52

>  <m_primary>  (59) 
energy

$$$$
59:0
     RDKit          3D

 58 62  0  0  0  0  0  0  0  0999 V2000
   57.3480   28.0910   46.1600 O   0  0  0  0  0  0  0  0  0  0  0  0
   57.4270   29.2220   45.6120 C   0  0  0  0  0  0  0  0  0  0  0  0
   58.6920   30.0220   45.7230 C   0  0  0  0  0  0  0  0  0  0  0  0
   58.4090   31.4940   45.5490 C   0  0  0  0  0  0  0  0  0  0  0  0
   59.2730   32.4450   46.1130 C   0  0  0  0  0  0  0  0  0  0  0  0
   59.0460   33.8180   45.9210 C   0  0  0  0  0  0  0  0  0  0  0  0
   59.9890   34.8360   46.5090 C   0  0  0  0  0  0  0  0  0  0  0  0
   60.9800   34.2010   47.4960 C   0  0  0  0  0  0  0  0  0  0  0  0
   62.2230   33.6420   46.7940 C   0  0  0  0  0  0  0  0  0  0  0  0
   63.1620   33.0450   47.7930 C   0  0  0  0  0  0  0  0  0  0  0  0
   63.2440   31.7230   48.0410 N   0  0  0  0  0  0  0  0  0  0  0  0
   64.2010   31.6080   48.9100 O   0  0  0  0  0  0  0  0  0  0  0  0
   64.6910   32.7920   49.1830 C   0  0  0  0  0  0  0  0  0  0  0  0
   65.8300   33.0330   50.1200 C   0  0  0  0  0  0  0  0  0  0  0  0
   65.3060   33.3470   51.5270 C   0  0  0  0  0  0  0  0  0  0  0  0
   64.4430   32.2100   52.0930 C   0  0  0  0  0  0  0  0  0  0  0  0
   62.9780   32.4260   51.8140 C   0  0  0  0  0  0  0  0  0  0  0  0
   62.2160   33.2370   52.6660 C   0  0  0  0  0  0  0  0  0  0  0  0
   60.8530   33.4080   52.4240 C   0  0  0  0  0  0  0  0  0  0  0  0
   60.2540   32.7650   51.3350 C   0  0  0  0  0  0  0  0  0  0  0  0
   58.8840   32.9170   51.0690 C   0  0  0  0  0  0  0  0  0  0  0  0
   58.3070   32.2620   49.9780 C   0  0  0  0  0  0  0  0  0  0  0  0
   59.0900   31.4510   49.1500 C   0  0  0  0  0  0  0  0  0  0  0  0
   60.4540   31.2930   49.4080 C   0  0  0  0  0  0  0  0  0  0  0  0
   61.0480   31.9470   50.4980 C   0  0  0  0  0  0  0  0  0  0  0  0
   62.3790   31.7980   50.7590 N   0  0  0  0  0  0  0  0  0  0  0  0
   64.0700   33.7620   48.4860 N   0  0  0  0  0  0  0  0  0  0  0  0
   57.9600   34.2340   45.1370 C   0  0  0  0  0  0  0  0  0  0  0  0
   57.1040   33.2930   44.5590 C   0  0  0  0  0  0  0  0  0  0  0  0
   57.3160   31.9240   44.7680 C   0  0  0  0  0  0  0  0  0  0  0  0
   56.4340   30.9030   44.1010 C   0  0  0  0  0  0  0  0  0  0  0  0
   56.3370   29.7200   44.8940 O   0  0  0  0  0  0  0  0  0  0  0  0
   59.1392   29.8549   46.7140 H   0  0  0  0  0  0  0  0  0  0  0  0
   59.3852   29.6992   44.9323 H   0  0  0  0  0  0  0  0  0  0  0  0
   60.1349   32.1128   46.7102 H   0  0  0  0  0  0  0  0  0  0  0  0
   60.5548   35.3089   45.6928 H   0  0  0  0  0  0  0  0  0  0  0  0
   59.3894   35.5762   47.0590 H   0  0  0  0  0  0  0  0  0  0  0  0
   61.2968   34.9658   48.2204 H   0  0  0  0  0  0  0  0  0  0  0  0
   60.4693   33.3634   47.9935 H   0  0  0  0  0  0  0  0  0  0  0  0
   61.9161   32.8666   46.0766 H   0  0  0  0  0  0  0  0  0  0  0  0
   62.7350   34.4618   46.2688 H   0  0  0  0  0  0  0  0  0  0  0  0
   66.4625   32.1340   50.1608 H   0  0  0  0  0  0  0  0  0  0  0  0
   66.4159   33.8904   49.7573 H   0  0  0  0  0  0  0  0  0  0  0  0
   66.1638   33.5074   52.1966 H   0  0  0  0  0  0  0  0  0  0  0  0
   64.6765   34.2465   51.4594 H   0  0  0  0  0  0  0  0  0  0  0  0
   64.7570   31.2617   51.6323 H   0  0  0  0  0  0  0  0  0  0  0  0
   64.5829   32.1856   53.1838 H   0  0  0  0  0  0  0  0  0  0  0  0
   62.6913   33.7370   53.5228 H   0  0  0  0  0  0  0  0  0  0  0  0
   60.2508   34.0464   53.0872 H   0  0  0  0  0  0  0  0  0  0  0  0
   58.2646   33.5519   51.7196 H   0  0  0  0  0  0  0  0  0  0  0  0
   57.2339   32.3845   49.7697 H   0  0  0  0  0  0  0  0  0  0  0  0
   58.6306   30.9362   48.2933 H   0  0  0  0  0  0  0  0  0  0  0  0
   61.0647   30.6533   48.7539 H   0  0  0  0  0  0  0  0  0  0  0  0
   62.9570   31.1840   50.1390 H   0  0  0  0  0  0  0  0  0  0  0  0
   57.7811   35.3074   44.9762 H   0  0  0  0  0  0  0  0  0  0  0  0
   56.2606   33.6283   43.9376 H   0  0  0  0  0  0  0  0  0  0  0  0
   55.4290   31.3289   43.9646 H   0  0  0  0  0  0  0  0  0  0  0  0
   56.8740   30.6395   43.1279 H   0  0  0  0  0  0  0  0  0  0  0  0
  1  2  2  0
  2  3  1  0
  3  4  1  0
  4  5  2  0
  5  6  1  0
  6  7  1  0
  7  8  1  0
  8  9  1  0
  9 10  1  0
 10 11  2  0
 11 12  1  0
 12 13  1  0
 13 14  1  0
 14 15  1  0
 15 16  1  0
 16 17  1  0
 17 18  2  0
 18 19  1  0
 19 20  2  0
 20 21  1  0
 21 22  2  0
 22 23  1  0
 23 24  2  0
 24 25  1  0
 25 26  2  0
 13 27  2  0
  6 28  2  0
 28 29  1  0
 29 30  2  0
 30 31  1  0
 31 32  1  0
 32  2  1  0
 30  4  1  0
 27 10  1  0
 26 17  1  0
 25 20  1  0
  3 33  1  0
  3 34  1  0
  5 35  1  0
  7 36  1  0
  7 37  1  0
  8 38  1  0
  8 39  1  0
  9 40  1  0
  9 41  1  0
 14 42  1  0
 14 43  1  0
 15 44  1  0
 15 45  1  0
 16 46  1  0
 16 47  1  0
 18 48  1  0
 19 49  1  0
 21 50  1  0
 22 51  1  0
 23 52  1  0
 24 53  1  0
 26 54  1  0
 28 55  1  0
 29 56  1  0
 31 57  1  0
 31 58  1  0
M  CHG  1  26   1
M  END
>  <UniqueID>  (60) 
54

>  <SMILES>  (60) 
O=C1Cc2cc(CCCc3noc(CCCc4ccc5ccccc5[nH+]4)n3)ccc2CO1

>  <Energy>  (60) 
89.50830621620113

>  <Genealogy>  (60) 
O=C1Cc2cc(CCCc3noc(CCCc4ccc5ccccc5[nH+]4)n3)ccc2CO1 (protonated)
O=C1Cc2cc(CCCc3noc(CCCc4ccc5ccccc5[nH+]4)n3)ccc2CO1 (3D coordinates assigned)
O=C1Cc2cc(CCCc3noc(CCCc4ccc5ccccc5[nH+]4)n3)ccc2CO1 (nonaromatic ring conformer: 89.50830621620113 kcal/mol)

>  <smiles>  (60) 
O=C1Cc2cc(CCCc3noc(CCCc4ccc5ccccc5n4)n3)ccc2CO1

>  <score_type>  (60) 
oracle

>  <origin>  (60) 
adg

>  <m_score__min__energy>  (60) 
-8.1799999999999997

>  <m_primary>  (60) 
energy

$$$$
60:0
     RDKit          3D

 55 58  0  0  0  0  0  0  0  0999 V2000
   56.8030   30.0210   43.8930 C   0  0  0  0  0  0  0  0  0  0  0  0
   57.0960   30.4800   45.2080 O   0  0  0  0  0  0  0  0  0  0  0  0
   57.7050   31.7090   45.5070 C   0  0  0  0  0  0  0  0  0  0  0  0
   57.0810   32.9390   45.2160 C   0  0  0  0  0  0  0  0  0  0  0  0
   57.7240   34.1450   45.5080 C   0  0  0  0  0  0  0  0  0  0  0  0
   58.9920   34.1390   46.0900 C   0  0  0  0  0  0  0  0  0  0  0  0
   59.6190   32.9280   46.3870 C   0  0  0  0  0  0  0  0  0  0  0  0
   58.9820   31.7100   46.1020 C   0  0  0  0  0  0  0  0  0  0  0  0
   59.6400   30.4740   46.4280 N   0  0  0  0  0  0  0  0  0  0  0  0
   60.2560   29.6590   45.3790 C   0  0  0  0  0  0  0  0  0  0  0  0
   59.9040   28.1680   45.5670 C   0  0  0  0  0  0  0  0  0  0  0  0
   59.7140   27.7480   46.9890 N   0  0  0  0  0  0  0  0  0  0  0  0
   58.2750   27.5700   47.3380 C   0  0  0  0  0  0  0  0  0  0  0  0
   57.3740   27.3340   46.1050 C   0  0  0  0  0  0  0  0  0  0  0  0
   57.0210   25.9090   45.9360 N   0  0  0  0  0  0  0  0  0  0  0  0
   55.7060   25.5160   45.9050 C   0  0  0  0  0  0  0  0  0  0  0  0
   54.7750   26.3610   45.9920 O   0  0  0  0  0  0  0  0  0  0  0  0
   55.3860   24.2050   45.7830 N   0  0  0  0  0  0  0  0  0  0  0  0
   56.3340   23.2420   45.6970 C   0  0  0  0  0  0  0  0  0  0  0  0
   57.6920   23.5990   45.7020 C   0  0  0  0  0  0  0  0  0  0  0  0
   58.0150   24.9660   45.8270 C   0  0  0  0  0  0  0  0  0  0  0  0
   59.2260   25.3240   45.8450 O   0  0  0  0  0  0  0  0  0  0  0  0
   58.7260   22.5310   45.6020 C   0  0  0  0  0  0  0  0  0  0  0  0
   59.9540   22.8150   45.6070 O   0  0  0  0  0  0  0  0  0  0  0  0
   58.3170   21.0940   45.4420 C   0  0  0  0  0  0  0  0  0  0  0  0
   56.9490   20.8370   46.0760 C   0  0  0  0  0  0  0  0  0  0  0  0
   55.9030   21.8090   45.5230 C   0  0  0  0  0  0  0  0  0  0  0  0
   60.3840   28.6700   47.9370 C   0  0  0  0  0  0  0  0  0  0  0  0
   59.8190   30.0940   47.8320 C   0  0  0  0  0  0  0  0  0  0  0  0
   56.2120   29.0951   43.9510 H   0  0  0  0  0  0  0  0  0  0  0  0
   56.2282   30.7898   43.3558 H   0  0  0  0  0  0  0  0  0  0  0  0
   57.7424   29.8233   43.3558 H   0  0  0  0  0  0  0  0  0  0  0  0
   56.0818   32.9497   44.7562 H   0  0  0  0  0  0  0  0  0  0  0  0
   57.2296   35.1005   45.2786 H   0  0  0  0  0  0  0  0  0  0  0  0
   59.4979   35.0895   46.3150 H   0  0  0  0  0  0  0  0  0  0  0  0
   60.6182   32.9280   46.8471 H   0  0  0  0  0  0  0  0  0  0  0  0
   59.8888   29.9955   44.3982 H   0  0  0  0  0  0  0  0  0  0  0  0
   61.3484   29.7740   45.4384 H   0  0  0  0  0  0  0  0  0  0  0  0
   58.9708   27.9644   45.0215 H   0  0  0  0  0  0  0  0  0  0  0  0
   60.7613   27.5946   45.1845 H   0  0  0  0  0  0  0  0  0  0  0  0
   60.1950   26.8260   47.1130 H   0  0  0  0  0  0  0  0  0  0  0  0
   58.1827   26.7035   48.0094 H   0  0  0  0  0  0  0  0  0  0  0  0
   57.9371   28.5012   47.8162 H   0  0  0  0  0  0  0  0  0  0  0  0
   56.4486   27.9163   46.2259 H   0  0  0  0  0  0  0  0  0  0  0  0
   57.9331   27.6515   45.2125 H   0  0  0  0  0  0  0  0  0  0  0  0
   58.2674   20.8518   44.3701 H   0  0  0  0  0  0  0  0  0  0  0  0
   59.0609   20.4607   45.9475 H   0  0  0  0  0  0  0  0  0  0  0  0
   56.6364   19.8060   45.8540 H   0  0  0  0  0  0  0  0  0  0  0  0
   57.0300   20.9865   47.1628 H   0  0  0  0  0  0  0  0  0  0  0  0
   55.7585   21.6069   44.4514 H   0  0  0  0  0  0  0  0  0  0  0  0
   54.9658   21.6606   46.0795 H   0  0  0  0  0  0  0  0  0  0  0  0
   60.2331   28.3003   48.9620 H   0  0  0  0  0  0  0  0  0  0  0  0
   61.4545   28.7043   47.6865 H   0  0  0  0  0  0  0  0  0  0  0  0
   58.8469   30.1363   48.3450 H   0  0  0  0  0  0  0  0  0  0  0  0
   60.5270   30.7927   48.3017 H   0  0  0  0  0  0  0  0  0  0  0  0
  1  2  1  0
  2  3  1  0
  3  4  2  0
  4  5  1  0
  5  6  2  0
  6  7  1  0
  7  8  2  0
  8  9  1  0
  9 10  1  0
 10 11  1  0
 11 12  1  0
 12 13  1  0
 13 14  1  0
 14 15  1  0
 15 16  1  0
 16 17  2  0
 16 18  1  0
 18 19  1  0
 19 20  2  0
 20 21  1  0
 21 22  2  0
 20 23  1  0
 23 24  2  0
 23 25  1  0
 25 26  1  0
 26 27  1  0
 12 28  1  0
 28 29  1  0
  8  3  1  0
 29  9  1  0
 21 15  1  0
 27 19  1  0
  1 30  1  0
  1 31  1  0
  1 32  1  0
  4 33  1  0
  5 34  1  0
  6 35  1  0
  7 36  1  0
 10 37  1  0
 10 38  1  0
 11 39  1  0
 11 40  1  0
 12 41  1  0
 13 42  1  0
 13 43  1  0
 14 44  1  0
 14 45  1  0
 25 46  1  0
 25 47  1  0
 26 48  1  0
 26 49  1  0
 27 50  1  0
 27 51  1  0
 28 52  1  0
 28 53  1  0
 29 54  1  0
 29 55  1  0
M  CHG  2  12   1  18  -1
M  END
>  <UniqueID>  (61) 
55

>  <SMILES>  (61) 
COc1ccccc1N1CC[NH+](CCn2c(=O)[n-]c3c(c2=O)C(=O)CCC3)CC1

>  <Energy>  (61) 
75.59963524294322

>  <Genealogy>  (61) 
COc1ccccc1N1CC[NH+](CCn2c(=O)[n-]c3c(c2=O)C(=O)CCC3)CC1 (protonated)
COc1ccccc1N1CC[NH+](CCn2c(=O)[n-]c3c(c2=O)C(=O)CCC3)CC1 (3D coordinates assigned)
COc1ccccc1N1CC[NH+](CCn2c(=O)[n-]c3c(c2=O)C(=O)CCC3)CC1 (nonaromatic ring conformer: 75.59963524294322 kcal/mol)

>  <smiles>  (61) 
COc1ccccc1N1CCN(CCn2c(=O)[nH]c3c(c2=O)C(=O)CCC3)CC1

>  <score_type>  (61) 
oracle

>  <origin>  (61) 
adg

>  <m_score__min__energy>  (61) 
-8.6899999999999995

>  <m_primary>  (61) 
energy

$$$$
61:0
     RDKit          3D

 39 40  0  0  0  0  0  0  0  0999 V2000
   59.4650   28.2890   45.1950 C   0  0  0  0  0  0  0  0  0  0  0  0
   58.1060   27.7530   45.5140 C   0  0  0  0  0  0  0  0  0  0  0  0
   57.8930   26.6590   46.2650 N   0  0  0  0  0  0  0  0  0  0  0  0
   56.5550   26.5300   46.3040 C   0  0  0  0  0  0  0  0  0  0  0  0
   55.9710   25.6040   46.9260 O   0  0  0  0  0  0  0  0  0  0  0  0
   55.8950   27.4830   45.6180 N   0  0  0  0  0  0  0  0  0  0  0  0
   56.8750   28.2620   45.1130 C   0  0  0  0  0  0  0  0  0  0  0  0
   56.6400   29.4660   44.2760 C   0  0  0  0  0  0  0  0  0  0  0  0
   56.6010   29.3460   43.0240 O   0  0  0  0  0  0  0  0  0  0  0  0
   56.4530   30.7770   44.8300 N   0  0  0  0  0  0  0  0  0  0  0  0
   57.0710   32.0110   44.3620 C   0  0  0  0  0  0  0  0  0  0  0  0
   58.1140   32.4460   45.3490 C   0  0  0  0  0  0  0  0  0  0  0  0
   58.8780   31.4930   46.0390 C   0  0  0  0  0  0  0  0  0  0  0  0
   59.8730   31.8990   46.9330 C   0  0  0  0  0  0  0  0  0  0  0  0
   60.1320   33.2630   47.1400 C   0  0  0  0  0  0  0  0  0  0  0  0
   61.1540   33.6820   48.0640 N   0  0  0  0  0  0  0  0  0  0  0  0
   60.7800   34.2160   49.3730 C   0  0  0  0  0  0  0  0  0  0  0  0
   62.8390   33.5100   47.6560 S   0  0  0  0  0  0  0  0  0  0  0  0
   63.2580   31.7900   47.4610 C   0  0  0  0  0  0  0  0  0  0  0  0
   63.1180   34.2050   46.3530 O   0  0  0  0  0  0  0  0  0  0  0  0
   63.6860   34.1230   48.7350 O   0  0  0  0  0  0  0  0  0  0  0  0
   59.3720   34.2150   46.4400 C   0  0  0  0  0  0  0  0  0  0  0  0
   58.3770   33.8100   45.5470 C   0  0  0  0  0  0  0  0  0  0  0  0
   60.0041   28.5016   46.1300 H   0  0  0  0  0  0  0  0  0  0  0  0
   60.0249   27.5443   44.6102 H   0  0  0  0  0  0  0  0  0  0  0  0
   59.3658   29.2154   44.6102 H   0  0  0  0  0  0  0  0  0  0  0  0
   58.6040   26.0450   46.7190 H   0  0  0  0  0  0  0  0  0  0  0  0
   57.5407   31.8386   43.3824 H   0  0  0  0  0  0  0  0  0  0  0  0
   56.3047   32.7942   44.2650 H   0  0  0  0  0  0  0  0  0  0  0  0
   58.6932   30.4210   45.8758 H   0  0  0  0  0  0  0  0  0  0  0  0
   60.4576   31.1436   47.4786 H   0  0  0  0  0  0  0  0  0  0  0  0
   61.2188   33.5895   50.1636 H   0  0  0  0  0  0  0  0  0  0  0  0
   61.1556   35.2453   49.4700 H   0  0  0  0  0  0  0  0  0  0  0  0
   59.6843   34.2148   49.4700 H   0  0  0  0  0  0  0  0  0  0  0  0
   63.3711   31.3256   48.4517 H   0  0  0  0  0  0  0  0  0  0  0  0
   62.4582   31.2785   46.9054 H   0  0  0  0  0  0  0  0  0  0  0  0
   64.2035   31.7036   46.9054 H   0  0  0  0  0  0  0  0  0  0  0  0
   59.5619   35.2872   46.5963 H   0  0  0  0  0  0  0  0  0  0  0  0
   57.7965   34.5646   44.9960 H   0  0  0  0  0  0  0  0  0  0  0  0
  1  2  1  0
  2  3  1  0
  3  4  1  0
  4  5  2  0
  4  6  1  0
  6  7  1  0
  7  8  1  0
  8  9  2  0
  8 10  1  0
 10 11  1  0
 11 12  1  0
 12 13  2  0
 13 14  1  0
 14 15  2  0
 15 16  1  0
 16 17  1  0
 16 18  1  0
 18 19  1  0
 18 20  2  0
 18 21  2  0
 15 22  1  0
 22 23  2  0
  7  2  2  0
 23 12  1  0
  1 24  1  0
  1 25  1  0
  1 26  1  0
  3 27  1  0
 11 28  1  0
 11 29  1  0
 13 30  1  0
 14 31  1  0
 17 32  1  0
 17 33  1  0
 17 34  1  0
 19 35  1  0
 19 36  1  0
 19 37  1  0
 22 38  1  0
 23 39  1  0
M  CHG  2   6  -1  10  -1
M  END
>  <UniqueID>  (62) 
56

>  <SMILES>  (62) 
Cc1[nH]c(=O)[n-]c1C(=O)[N-]Cc1ccc(N(C)S(C)(=O)=O)cc1

>  <Energy>  (62) 
67.59681015671798

>  <Genealogy>  (62) 
Cc1[nH]c(=O)[n-]c1C(=O)[N-]Cc1ccc(N(C)S(C)(=O)=O)cc1 (protonated)
Cc1[nH]c(=O)[n-]c1C(=O)[N-]Cc1ccc(N(C)S(C)(=O)=O)cc1 (3D coordinates assigned)
Cc1[nH]c(=O)[n-]c1C(=O)[N-]Cc1ccc(N(C)S(C)(=O)=O)cc1 (optimized conformer: 67.59681015671798 kcal/mol)

>  <smiles>  (62) 
Cc1[nH]c(=O)[nH]c1C(=O)NCc1ccc(N(C)S(C)(=O)=O)cc1

>  <score_type>  (62) 
oracle

>  <origin>  (62) 
adg

>  <m_score__min__energy>  (62) 
-11.390000000000001

>  <m_primary>  (62) 
energy

$$$$
62:0
     RDKit          3D

 43 45  0  0  0  0  0  0  0  0999 V2000
   61.1445   31.0763   51.6442 H   0  0  0  0  0  0  0  0  0  0  0  0
   60.1670   30.5800   51.7340 C   0  0  0  0  0  0  0  0  0  0  0  0
   59.7260   29.4800   52.9280 S   0  0  0  0  0  0  0  0  0  0  0  0
   58.1720   29.2690   52.3060 C   0  0  0  0  0  0  0  0  0  0  0  0
   57.2370   28.5040   52.7890 N   0  0  0  0  0  0  0  0  0  0  0  0
   55.9940   28.9110   53.3850 C   0  0  0  0  0  0  0  0  0  0  0  0
   55.5090   28.3030   54.3770 O   0  0  0  0  0  0  0  0  0  0  0  0
   55.2900   30.1090   52.8440 C   0  0  0  0  0  0  0  0  0  0  0  0
   55.5158   30.9836   53.4718 H   0  0  0  0  0  0  0  0  0  0  0  0
   55.6279   30.3043   51.8156 H   0  0  0  0  0  0  0  0  0  0  0  0
   53.8850   29.8670   52.8500 O   0  0  0  0  0  0  0  0  0  0  0  0
   52.9740   30.4550   51.9610 C   0  0  0  0  0  0  0  0  0  0  0  0
   52.7730   29.9700   50.6530 C   0  0  0  0  0  0  0  0  0  0  0  0
   53.3408   29.0970   50.2987 H   0  0  0  0  0  0  0  0  0  0  0  0
   51.8540   30.5950   49.8040 C   0  0  0  0  0  0  0  0  0  0  0  0
   51.6999   30.2118   48.7845 H   0  0  0  0  0  0  0  0  0  0  0  0
   51.1300   31.7070   50.2490 C   0  0  0  0  0  0  0  0  0  0  0  0
   50.2200   32.3250   49.3990 O   0  0  0  0  0  0  0  0  0  0  0  0
   51.3230   32.1930   51.5470 C   0  0  0  0  0  0  0  0  0  0  0  0
   50.6070   33.2990   51.9940 O   0  0  0  0  0  0  0  0  0  0  0  0
   52.2410   31.5670   52.3980 C   0  0  0  0  0  0  0  0  0  0  0  0
   52.3885   31.9508   53.4183 H   0  0  0  0  0  0  0  0  0  0  0  0
   57.9750   30.0220   51.2030 N   0  0  0  0  0  0  0  0  0  0  0  0
   59.0770   30.7550   50.8750 C   0  0  0  0  0  0  0  0  0  0  0  0
   59.0910   31.6670   49.7010 C   0  0  0  0  0  0  0  0  0  0  0  0
   58.7120   31.1810   48.4330 C   0  0  0  0  0  0  0  0  0  0  0  0
   58.4130   30.1282   48.3226 H   0  0  0  0  0  0  0  0  0  0  0  0
   58.7110   32.0250   47.3060 C   0  0  0  0  0  0  0  0  0  0  0  0
   58.3390   31.5770   46.0300 O   0  0  0  0  0  0  0  0  0  0  0  0
   58.9280   30.4660   45.3620 C   0  0  0  0  0  0  0  0  0  0  0  0
   59.3076   29.7500   46.1059 H   0  0  0  0  0  0  0  0  0  0  0  0
   58.1722   29.9741   44.7320 H   0  0  0  0  0  0  0  0  0  0  0  0
   59.7593   30.8155   44.7320 H   0  0  0  0  0  0  0  0  0  0  0  0
   59.0890   33.3600   47.4550 C   0  0  0  0  0  0  0  0  0  0  0  0
   59.0918   34.0260   46.5796 H   0  0  0  0  0  0  0  0  0  0  0  0
   59.4630   33.8580   48.7020 C   0  0  0  0  0  0  0  0  0  0  0  0
   59.7556   34.9137   48.8013 H   0  0  0  0  0  0  0  0  0  0  0  0
   59.4700   33.0230   49.8360 C   0  0  0  0  0  0  0  0  0  0  0  0
   59.8630   33.5060   51.0970 O   0  0  0  0  0  0  0  0  0  0  0  0
   58.9670   33.8610   52.1450 C   0  0  0  0  0  0  0  0  0  0  0  0
   59.4460   33.6712   53.1169 H   0  0  0  0  0  0  0  0  0  0  0  0
   58.7122   34.9280   52.0639 H   0  0  0  0  0  0  0  0  0  0  0  0
   58.0506   33.2580   52.0639 H   0  0  0  0  0  0  0  0  0  0  0  0
  1  2  1  0
  2  3  1  0
  3  4  1  0
  4  5  2  0
  5  6  1  0
  6  7  2  0
  6  8  1  0
  8  9  1  0
  8 10  1  0
  8 11  1  0
 11 12  1  0
 12 13  2  0
 13 14  1  0
 13 15  1  0
 15 16  1  0
 15 17  2  0
 17 18  1  0
 17 19  1  0
 19 20  1  0
 19 21  2  0
 21 22  1  0
  4 23  1  0
 23 24  1  0
 24 25  1  0
 25 26  2  0
 26 27  1  0
 26 28  1  0
 28 29  1  0
 29 30  1  0
 30 31  1  0
 30 32  1  0
 30 33  1  0
 28 34  2  0
 34 35  1  0
 34 36  1  0
 36 37  1  0
 36 38  2  0
 38 39  1  0
 39 40  1  0
 40 41  1  0
 40 42  1  0
 40 43  1  0
 24  2  2  0
 38 25  1  0
 21 12  1  0
M  CHG  3  18  -1  20  -1  23  -1
M  END
>  <UniqueID>  (63) 
57

>  <SMILES>  (63) 
COc1ccc(OC)c(-c2cs/c(=N\C(=O)COc3ccc([O-])c([O-])c3)[n-]2)c1

>  <Energy>  (63) 
80.4826620316966

>  <Genealogy>  (63) 
COc1ccc(OC)c(-c2csc(=NC(=O)COc3ccc([O-])c([O-])c3)[n-]2)c1 (protonated)
COc1ccc(OC)c(-c2cs/c(=N\C(=O)COc3ccc([O-])c([O-])c3)[n-]2)c1 (cis-trans isomerization)
COc1ccc(OC)c(-c2cs/c(=N\C(=O)COc3ccc([O-])c([O-])c3)[n-]2)c1 (3D coordinates assigned)
COc1ccc(OC)c(-c2cs/c(=N\C(=O)COc3ccc([O-])c([O-])c3)[n-]2)c1 (optimized conformer: 80.4826620316966 kcal/mol)

>  <smiles>  (63) 
COc1ccc(OC)c(-c2csc(=NC(=O)COc3ccc(O)c(O)c3)[nH]2)c1

>  <score_type>  (63) 
oracle

>  <origin>  (63) 
adg

>  <m_score__min__energy>  (63) 
-17.07

>  <m_primary>  (63) 
energy

$$$$
63:0
     RDKit          3D

 29 30  0  0  0  0  0  0  0  0999 V2000
   54.7690   26.3310   45.9720 N   0  0  0  0  0  0  0  0  0  0  0  0
   56.3300   25.5990   46.0950 S   0  0  0  0  0  0  0  0  0  0  0  0
   56.6790   24.9350   44.7910 O   0  0  0  0  0  0  0  0  0  0  0  0
   56.3080   24.5550   47.1760 O   0  0  0  0  0  0  0  0  0  0  0  0
   57.5290   26.8310   46.4730 C   0  0  0  0  0  0  0  0  0  0  0  0
   58.4520   26.6250   47.5070 C   0  0  0  0  0  0  0  0  0  0  0  0
   59.3800   27.6180   47.8250 C   0  0  0  0  0  0  0  0  0  0  0  0
   59.3970   28.8190   47.1110 C   0  0  0  0  0  0  0  0  0  0  0  0
   58.4910   29.0330   46.0620 C   0  0  0  0  0  0  0  0  0  0  0  0
   58.5080   30.2890   45.3620 N   0  0  0  0  0  0  0  0  0  0  0  0
   57.3310   30.9520   44.8750 C   0  0  0  0  0  0  0  0  0  0  0  0
   56.2310   30.3410   44.8010 O   0  0  0  0  0  0  0  0  0  0  0  0
   57.4060   32.3860   44.4470 C   0  0  0  0  0  0  0  0  0  0  0  0
   58.2740   33.1530   45.3950 C   0  0  0  0  0  0  0  0  0  0  0  0
   57.8010   34.2060   46.1750 C   0  0  0  0  0  0  0  0  0  0  0  0
   59.0660   34.7480   47.1460 S   0  0  0  0  0  0  0  0  0  0  0  0
   60.1410   33.6140   46.5330 C   0  0  0  0  0  0  0  0  0  0  0  0
   61.3410   33.5040   46.8940 O   0  0  0  0  0  0  0  0  0  0  0  0
   59.5770   32.8180   45.6030 N   0  0  0  0  0  0  0  0  0  0  0  0
   57.5420   28.0390   45.7610 C   0  0  0  0  0  0  0  0  0  0  0  0
   54.7300   27.0860   46.6920 H   0  0  0  0  0  0  0  0  0  0  0  0
   58.4452   25.6794   48.0689 H   0  0  0  0  0  0  0  0  0  0  0  0
   60.1002   27.4546   48.6402 H   0  0  0  0  0  0  0  0  0  0  0  0
   60.1250   29.6009   47.3731 H   0  0  0  0  0  0  0  0  0  0  0  0
   59.4360   30.7150   45.1390 H   0  0  0  0  0  0  0  0  0  0  0  0
   57.8317   32.4431   43.4343 H   0  0  0  0  0  0  0  0  0  0  0  0
   56.3948   32.8191   44.4488 H   0  0  0  0  0  0  0  0  0  0  0  0
   56.7791   34.6127   46.1594 H   0  0  0  0  0  0  0  0  0  0  0  0
   56.8056   28.2105   44.9621 H   0  0  0  0  0  0  0  0  0  0  0  0
  1  2  1  0
  2  3  2  0
  2  4  2  0
  2  5  1  0
  5  6  2  0
  6  7  1  0
  7  8  2  0
  8  9  1  0
  9 10  1  0
 10 11  1  0
 11 12  2  0
 11 13  1  0
 13 14  1  0
 14 15  2  0
 15 16  1  0
 16 17  1  0
 17 18  2  0
 17 19  1  0
  9 20  2  0
 20  5  1  0
 19 14  1  0
  1 21  1  0
  6 22  1  0
  7 23  1  0
  8 24  1  0
 10 25  1  0
 13 26  1  0
 13 27  1  0
 15 28  1  0
 20 29  1  0
M  CHG  2   1  -1  19  -1
M  END
>  <UniqueID>  (64) 
58

>  <SMILES>  (64) 
[NH-]S(=O)(=O)c1cccc(NC(=O)Cc2csc(=O)[n-]2)c1

>  <Energy>  (64) 
59.944716291741486

>  <Genealogy>  (64) 
[NH-]S(=O)(=O)c1cccc(NC(=O)Cc2csc(=O)[n-]2)c1 (protonated)
[NH-]S(=O)(=O)c1cccc(NC(=O)Cc2csc(=O)[n-]2)c1 (3D coordinates assigned)
[NH-]S(=O)(=O)c1cccc(NC(=O)Cc2csc(=O)[n-]2)c1 (optimized conformer: 59.944716291741486 kcal/mol)

>  <smiles>  (64) 
NS(=O)(=O)c1cccc(NC(=O)Cc2csc(=O)[nH]2)c1

>  <score_type>  (64) 
oracle

>  <origin>  (64) 
adg

>  <m_score__min__energy>  (64) 
-12.119999999999999

>  <m_primary>  (64) 
energy

$$$$
64:0
     RDKit          3D

 33 34  0  0  0  0  0  0  0  0999 V2000
   58.5917   30.9530   43.7669 H   0  0  0  0  0  0  0  0  0  0  0  0
   57.7880   31.6320   44.0880 C   0  0  0  0  0  0  0  0  0  0  0  0
   56.6550   31.1480   44.4980 N   0  0  0  0  0  0  0  0  0  0  0  0
   56.2910   29.7600   44.4830 C   0  0  0  0  0  0  0  0  0  0  0  0
   55.1310   29.4420   44.8610 O   0  0  0  0  0  0  0  0  0  0  0  0
   57.2560   28.6910   44.0230 C   0  0  0  0  0  0  0  0  0  0  0  0
   56.7433   28.0418   43.2980 H   0  0  0  0  0  0  0  0  0  0  0  0
   58.1232   29.1961   43.5726 H   0  0  0  0  0  0  0  0  0  0  0  0
   57.7630   27.8390   45.1610 C   0  0  0  0  0  0  0  0  0  0  0  0
   59.1430   27.7690   45.4230 C   0  0  0  0  0  0  0  0  0  0  0  0
   59.8461   28.3530   44.8110 H   0  0  0  0  0  0  0  0  0  0  0  0
   59.6260   26.9620   46.4560 C   0  0  0  0  0  0  0  0  0  0  0  0
   60.7060   26.9195   46.6602 H   0  0  0  0  0  0  0  0  0  0  0  0
   58.7400   26.2090   47.2300 C   0  0  0  0  0  0  0  0  0  0  0  0
   59.1225   25.5764   48.0445 H   0  0  0  0  0  0  0  0  0  0  0  0
   57.3680   26.2590   46.9700 C   0  0  0  0  0  0  0  0  0  0  0  0
   56.6723   25.6634   47.5794 H   0  0  0  0  0  0  0  0  0  0  0  0
   56.8760   27.0650   45.9360 C   0  0  0  0  0  0  0  0  0  0  0  0
   55.5090   27.0880   45.6850 O   0  0  0  0  0  0  0  0  0  0  0  0
   58.0010   33.1110   44.0520 C   0  0  0  0  0  0  0  0  0  0  0  0
   58.7240   33.3538   43.2593 H   0  0  0  0  0  0  0  0  0  0  0  0
   57.0391   33.6051   43.8507 H   0  0  0  0  0  0  0  0  0  0  0  0
   58.5320   33.5970   45.3730 C   0  0  0  0  0  0  0  0  0  0  0  0
   59.2950   34.7760   45.4400 C   0  0  0  0  0  0  0  0  0  0  0  0
   59.5263   35.3318   44.5193 H   0  0  0  0  0  0  0  0  0  0  0  0
   59.7610   35.2450   46.6720 C   0  0  0  0  0  0  0  0  0  0  0  0
   60.3631   36.1644   46.7182 H   0  0  0  0  0  0  0  0  0  0  0  0
   59.4620   34.5460   47.8450 C   0  0  0  0  0  0  0  0  0  0  0  0
   59.8319   34.9142   48.8133 H   0  0  0  0  0  0  0  0  0  0  0  0
   58.6930   33.3790   47.7890 C   0  0  0  0  0  0  0  0  0  0  0  0
   58.4561   32.8320   48.7135 H   0  0  0  0  0  0  0  0  0  0  0  0
   58.2250   32.9070   46.5580 C   0  0  0  0  0  0  0  0  0  0  0  0
   57.6147   31.9927   46.5176 H   0  0  0  0  0  0  0  0  0  0  0  0
  1  2  1  0
  2  3  2  0
  3  4  1  0
  4  5  2  0
  4  6  1  0
  6  7  1  0
  6  8  1  0
  6  9  1  0
  9 10  2  0
 10 11  1  0
 10 12  1  0
 12 13  1  0
 12 14  2  0
 14 15  1  0
 14 16  1  0
 16 17  1  0
 16 18  2  0
 18 19  1  0
  2 20  1  0
 20 21  1  0
 20 22  1  0
 20 23  1  0
 23 24  2  0
 24 25  1  0
 24 26  1  0
 26 27  1  0
 26 28  2  0
 28 29  1  0
 28 30  1  0
 30 31  1  0
 30 32  2  0
 32 33  1  0
 18  9  1  0
 32 23  1  0
M  CHG  1  19  -1
M  END
>  <UniqueID>  (65) 
59

>  <SMILES>  (65) 
O=C(Cc1ccccc1[O-])/N=C/Cc1ccccc1

>  <Energy>  (65) 
32.27491528189196

>  <Genealogy>  (65) 
O=C(Cc1ccccc1[O-])N=CCc1ccccc1 (protonated)
O=C(Cc1ccccc1[O-])/N=C/Cc1ccccc1 (cis-trans isomerization)
O=C(Cc1ccccc1[O-])/N=C/Cc1ccccc1 (3D coordinates assigned)
O=C(Cc1ccccc1[O-])/N=C/Cc1ccccc1 (optimized conformer: 32.27491528189196 kcal/mol)

>  <smiles>  (65) 
O=C(Cc1ccccc1O)N=CCc1ccccc1

>  <score_type>  (65) 
oracle

>  <origin>  (65) 
adg

>  <m_score__min__energy>  (65) 
-11.51

>  <m_primary>  (65) 
energy

$$$$
65:0
     RDKit          3D

 54 57  0  0  0  0  0  0  0  0999 V2000
   59.2580   34.3790   53.1140 C   0  0  0  0  0  0  0  0  0  0  0  0
   59.6810   33.2920   52.1690 C   0  0  0  0  0  0  0  0  0  0  0  0
   58.9150   32.1280   52.0410 C   0  0  0  0  0  0  0  0  0  0  0  0
   59.2920   31.1330   51.1380 C   0  0  0  0  0  0  0  0  0  0  0  0
   60.4390   31.2800   50.3470 C   0  0  0  0  0  0  0  0  0  0  0  0
   60.7720   30.2140   49.4940 O   0  0  0  0  0  0  0  0  0  0  0  0
   59.9760   29.7230   48.4520 C   0  0  0  0  0  0  0  0  0  0  0  0
   59.3650   28.4770   48.6320 C   0  0  0  0  0  0  0  0  0  0  0  0
   58.5100   27.9570   47.6600 C   0  0  0  0  0  0  0  0  0  0  0  0
   58.2760   28.6660   46.4800 C   0  0  0  0  0  0  0  0  0  0  0  0
   57.1170   28.0450   45.3080 S   0  0  0  0  0  0  0  0  0  0  0  0
   56.2140   27.0580   45.9910 O   0  0  0  0  0  0  0  0  0  0  0  0
   57.8200   27.3520   44.1740 O   0  0  0  0  0  0  0  0  0  0  0  0
   56.1670   29.3560   44.6840 N   0  0  0  0  0  0  0  0  0  0  0  0
   56.6720   30.4190   44.1360 C   0  0  0  0  0  0  0  0  0  0  0  0
   56.8580   30.4600   42.7480 C   0  0  0  0  0  0  0  0  0  0  0  0
   57.3810   31.6130   42.1600 C   0  0  0  0  0  0  0  0  0  0  0  0
   57.7180   32.7100   42.9560 C   0  0  0  0  0  0  0  0  0  0  0  0
   57.5280   32.6330   44.3370 C   0  0  0  0  0  0  0  0  0  0  0  0
   57.0150   31.5020   44.8910 N   0  0  0  0  0  0  0  0  0  0  0  0
   58.9240   29.8890   46.2650 C   0  0  0  0  0  0  0  0  0  0  0  0
   59.7850   30.4290   47.2360 C   0  0  0  0  0  0  0  0  0  0  0  0
   60.5340   31.7040   46.8980 C   0  0  0  0  0  0  0  0  0  0  0  0
   59.6050   32.7790   46.4830 N   0  0  2  0  0  0  0  0  0  0  0  0
   60.2690   33.8290   45.6840 C   0  0  0  0  0  0  0  0  0  0  0  0
   59.7780   35.1910   46.1840 C   0  0  0  0  0  0  0  0  0  0  0  0
   59.2620   34.9520   47.5900 C   0  0  0  0  0  0  0  0  0  0  0  0
   59.0950   33.4830   47.6240 C   0  0  0  0  0  0  0  0  0  0  0  0
   58.5170   32.9140   48.5400 O   0  0  0  0  0  0  0  0  0  0  0  0
   61.1910   32.4780   50.4400 C   0  0  0  0  0  0  0  0  0  0  0  0
   62.5650   32.8320   49.3970 Cl  0  0  0  0  0  0  0  0  0  0  0  0
   60.8050   33.4710   51.3500 C   0  0  0  0  0  0  0  0  0  0  0  0
   59.3914   34.0361   54.1506 H   0  0  0  0  0  0  0  0  0  0  0  0
   59.8733   35.2744   52.9419 H   0  0  0  0  0  0  0  0  0  0  0  0
   58.1993   34.6230   52.9419 H   0  0  0  0  0  0  0  0  0  0  0  0
   58.0117   31.9967   52.6548 H   0  0  0  0  0  0  0  0  0  0  0  0
   58.6814   30.2226   51.0462 H   0  0  0  0  0  0  0  0  0  0  0  0
   59.5608   27.9019   49.5490 H   0  0  0  0  0  0  0  0  0  0  0  0
   58.0191   26.9863   47.8235 H   0  0  0  0  0  0  0  0  0  0  0  0
   56.5942   29.5912   42.1270 H   0  0  0  0  0  0  0  0  0  0  0  0
   57.5276   31.6575   41.0707 H   0  0  0  0  0  0  0  0  0  0  0  0
   58.1281   33.6234   42.5005 H   0  0  0  0  0  0  0  0  0  0  0  0
   57.7933   33.4874   44.9771 H   0  0  0  0  0  0  0  0  0  0  0  0
   58.7570   30.4339   45.3242 H   0  0  0  0  0  0  0  0  0  0  0  0
   61.0938   32.0366   47.7846 H   0  0  0  0  0  0  0  0  0  0  0  0
   61.2178   31.4940   46.0624 H   0  0  0  0  0  0  0  0  0  0  0  0
   58.7930   32.3800   45.9560 H   0  0  0  0  0  0  0  0  0  0  0  0
   61.3597   33.7577   45.8078 H   0  0  0  0  0  0  0  0  0  0  0  0
   60.0281   33.7055   44.6178 H   0  0  0  0  0  0  0  0  0  0  0  0
   60.6056   35.9155   46.1974 H   0  0  0  0  0  0  0  0  0  0  0  0
   58.9963   35.6051   45.5302 H   0  0  0  0  0  0  0  0  0  0  0  0
   59.9905   35.2868   48.3431 H   0  0  0  0  0  0  0  0  0  0  0  0
   58.3381   35.5038   47.8179 H   0  0  0  0  0  0  0  0  0  0  0  0
   61.3894   34.4001   51.4226 H   0  0  0  0  0  0  0  0  0  0  0  0
  1  2  1  0
  2  3  2  0
  3  4  1  0
  4  5  2  0
  5  6  1  0
  6  7  1  0
  7  8  2  0
  8  9  1  0
  9 10  2  0
 10 11  1  0
 11 12  2  0
 11 13  2  0
 11 14  1  0
 14 15  2  3
 15 16  1  0
 16 17  2  0
 17 18  1  0
 18 19  2  0
 19 20  1  0
 10 21  1  0
 21 22  2  0
 22 23  1  0
 23 24  1  0
 24 25  1  0
 25 26  1  0
 26 27  1  0
 27 28  1  0
 28 29  2  0
  5 30  1  0
 30 31  1  0
 30 32  2  0
 32  2  1  0
 22  7  1  0
 28 24  1  0
 20 15  1  0
  1 33  1  0
  1 34  1  0
  1 35  1  0
  3 36  1  0
  4 37  1  0
  8 38  1  0
  9 39  1  0
 16 40  1  0
 17 41  1  0
 18 42  1  0
 19 43  1  0
 21 44  1  0
 23 45  1  0
 23 46  1  0
 24 47  1  6
 25 48  1  0
 25 49  1  0
 26 50  1  0
 26 51  1  0
 27 52  1  0
 27 53  1  0
 32 54  1  0
M  CHG  2  20  -1  24   1
M  END
>  <UniqueID>  (66) 
60

>  <SMILES>  (66) 
Cc1ccc(Oc2ccc(S(=O)(=O)N=c3cccc[n-]3)cc2C[N@@H+]2CCCC2=O)c(Cl)c1

>  <Energy>  (66) 
75.08771028797099

>  <Genealogy>  (66) 
Cc1ccc(Oc2ccc(S(=O)(=O)N=c3cccc[n-]3)cc2C[NH+]2CCCC2=O)c(Cl)c1 (protonated)
Cc1ccc(Oc2ccc(S(=O)(=O)N=c3cccc[n-]3)cc2C[N@@H+]2CCCC2=O)c(Cl)c1 (chirality)
Cc1ccc(Oc2ccc(S(=O)(=O)N=c3cccc[n-]3)cc2C[N@@H+]2CCCC2=O)c(Cl)c1 (3D coordinates assigned)
Cc1ccc(Oc2ccc(S(=O)(=O)N=c3cccc[n-]3)cc2C[N@@H+]2CCCC2=O)c(Cl)c1 (nonaromatic ring conformer: 75.08771028797099 kcal/mol)

>  <smiles>  (66) 
Cc1ccc(Oc2ccc(S(=O)(=O)N=c3cccc[nH]3)cc2CN2CCCC2=O)c(Cl)c1

>  <score_type>  (66) 
oracle

>  <origin>  (66) 
adg

>  <m_score__min__energy>  (66) 
-10.01

>  <m_primary>  (66) 
energy

$$$$
66:0
     RDKit          3D

 54 57  0  0  0  0  0  0  0  0999 V2000
   58.1260   26.5338   48.3963 H   0  0  0  0  0  0  0  0  0  0  0  0
   58.3660   27.0980   47.4830 C   0  0  0  0  0  0  0  0  0  0  0  0
   59.4880   27.8630   47.4330 N   0  0  0  0  0  0  0  0  0  0  0  0
   59.8330   28.5710   46.3230 C   0  0  0  0  0  0  0  0  0  0  0  0
   60.9790   29.3770   46.3170 O   0  0  0  0  0  0  0  0  0  0  0  0
   61.0160   30.6840   46.8240 C   0  0  0  0  0  0  0  0  0  0  0  0
   62.1750   31.1320   47.4680 C   0  0  0  0  0  0  0  0  0  0  0  0
   63.0549   30.4750   47.5318 H   0  0  0  0  0  0  0  0  0  0  0  0
   62.2190   32.4120   48.0310 C   0  0  0  0  0  0  0  0  0  0  0  0
   63.1287   32.7544   48.5460 H   0  0  0  0  0  0  0  0  0  0  0  0
   61.1080   33.2570   47.9400 C   0  0  0  0  0  0  0  0  0  0  0  0
   61.1349   34.2500   48.4125 H   0  0  0  0  0  0  0  0  0  0  0  0
   59.9620   32.8440   47.2500 C   0  0  0  0  0  0  0  0  0  0  0  0
   58.8200   33.7090   47.2050 N   0  0  0  0  0  0  0  0  0  0  0  0
   57.7400   33.5810   46.2700 C   0  0  0  0  0  0  0  0  0  0  0  0
   57.2180   34.6100   45.7640 O   0  0  0  0  0  0  0  0  0  0  0  0
   57.1720   32.2970   45.9860 N   0  0  0  0  0  0  0  0  0  0  0  0
   57.0370   31.7420   44.8140 C   0  0  0  0  0  0  0  0  0  0  0  0
   56.3360   30.5790   44.7270 N   0  0  0  0  0  0  0  0  0  0  0  0
   56.1270   29.9420   43.5450 C   0  0  0  0  0  0  0  0  0  0  0  0
   55.5571   29.0014   43.5213 H   0  0  0  0  0  0  0  0  0  0  0  0
   56.6340   30.4790   42.3620 C   0  0  0  0  0  0  0  0  0  0  0  0
   56.4684   29.9639   41.4043 H   0  0  0  0  0  0  0  0  0  0  0  0
   57.3550   31.6780   42.4020 C   0  0  0  0  0  0  0  0  0  0  0  0
   57.8490   32.3050   41.1320 C   0  0  0  0  0  0  0  0  0  0  0  0
   58.5132   33.1480   41.3734 H   0  0  0  0  0  0  0  0  0  0  0  0
   58.4035   31.5576   40.5456 H   0  0  0  0  0  0  0  0  0  0  0  0
   56.9926   32.6692   40.5456 H   0  0  0  0  0  0  0  0  0  0  0  0
   57.5440   32.3260   43.6320 C   0  0  0  0  0  0  0  0  0  0  0  0
   58.0839   33.2834   43.6756 H   0  0  0  0  0  0  0  0  0  0  0  0
   59.9230   31.5590   46.6870 C   0  0  0  0  0  0  0  0  0  0  0  0
   59.0299   31.2331   46.1337 H   0  0  0  0  0  0  0  0  0  0  0  0
   59.0430   28.4770   45.1730 C   0  0  0  0  0  0  0  0  0  0  0  0
   59.3346   29.0085   44.2552 H   0  0  0  0  0  0  0  0  0  0  0  0
   57.8810   27.7030   45.1990 C   0  0  0  0  0  0  0  0  0  0  0  0
   57.2532   27.6234   44.2993 H   0  0  0  0  0  0  0  0  0  0  0  0
   57.5140   27.0270   46.3720 C   0  0  0  0  0  0  0  0  0  0  0  0
   56.2750   26.2250   46.4270 C   0  0  0  0  0  0  0  0  0  0  0  0
   55.2030   26.7130   45.9810 O   0  0  0  0  0  0  0  0  0  0  0  0
   56.2660   24.8880   46.9430 N   0  0  0  0  0  0  0  0  0  0  0  0
   57.3090   23.9010   46.6800 C   0  0  0  0  0  0  0  0  0  0  0  0
   58.2941   24.3890   46.7192 H   0  0  0  0  0  0  0  0  0  0  0  0
   57.2630   23.1071   47.4400 H   0  0  0  0  0  0  0  0  0  0  0  0
   57.1000   23.3040   45.3190 C   0  0  0  0  0  0  0  0  0  0  0  0
   56.1430   23.8510   44.4470 C   0  0  0  0  0  0  0  0  0  0  0  0
   55.5659   24.7363   44.7523 H   0  0  0  0  0  0  0  0  0  0  0  0
   55.9220   23.2740   43.1930 C   0  0  0  0  0  0  0  0  0  0  0  0
   55.1749   23.7082   42.5123 H   0  0  0  0  0  0  0  0  0  0  0  0
   56.6500   22.1450   42.8030 C   0  0  0  0  0  0  0  0  0  0  0  0
   56.4797   21.6950   41.8138 H   0  0  0  0  0  0  0  0  0  0  0  0
   57.5940   21.5890   43.6710 C   0  0  0  0  0  0  0  0  0  0  0  0
   58.1641   20.6994   43.3652 H   0  0  0  0  0  0  0  0  0  0  0  0
   57.8150   22.1620   44.9280 C   0  0  0  0  0  0  0  0  0  0  0  0
   58.5518   21.7157   45.6120 H   0  0  0  0  0  0  0  0  0  0  0  0
  1  2  1  0
  2  3  2  0
  3  4  1  0
  4  5  1  0
  5  6  1  0
  6  7  2  0
  7  8  1  0
  7  9  1  0
  9 10  1  0
  9 11  2  0
 11 12  1  0
 11 13  1  0
 13 14  1  0
 14 15  1  0
 15 16  2  0
 15 17  1  0
 17 18  2  0
 18 19  1  0
 19 20  1  0
 20 21  1  0
 20 22  2  0
 22 23  1  0
 22 24  1  0
 24 25  1  0
 25 26  1  0
 25 27  1  0
 25 28  1  0
 24 29  2  0
 29 30  1  0
 13 31  2  0
 31 32  1  0
  4 33  2  0
 33 34  1  0
 33 35  1  0
 35 36  1  0
 35 37  2  0
 37 38  1  0
 38 39  2  0
 38 40  1  0
 40 41  1  0
 41 42  1  0
 41 43  1  0
 41 44  1  0
 44 45  2  0
 45 46  1  0
 45 47  1  0
 47 48  1  0
 47 49  2  0
 49 50  1  0
 49 51  1  0
 51 52  1  0
 51 53  2  0
 53 54  1  0
 37  2  1  0
 53 44  1  0
 31  6  1  0
 29 18  1  0
M  CHG  3  14  -1  19  -1  40  -1
M  END
>  <UniqueID>  (67) 
61

>  <SMILES>  (67) 
Cc1cc[n-]/c(=N/C(=O)[N-]c2cccc(Oc3ccc(C(=O)[N-]Cc4ccccc4)cn3)c2)c1

>  <Energy>  (67) 
77.33241091271027

>  <Genealogy>  (67) 
Cc1cc[n-]c(=NC(=O)[N-]c2cccc(Oc3ccc(C(=O)[N-]Cc4ccccc4)cn3)c2)c1 (protonated)
Cc1cc[n-]/c(=N/C(=O)[N-]c2cccc(Oc3ccc(C(=O)[N-]Cc4ccccc4)cn3)c2)c1 (cis-trans isomerization)
Cc1cc[n-]/c(=N/C(=O)[N-]c2cccc(Oc3ccc(C(=O)[N-]Cc4ccccc4)cn3)c2)c1 (3D coordinates assigned)
Cc1cc[n-]/c(=N/C(=O)[N-]c2cccc(Oc3ccc(C(=O)[N-]Cc4ccccc4)cn3)c2)c1 (optimized conformer: 77.33241091271027 kcal/mol)

>  <smiles>  (67) 
Cc1cc[nH]c(=NC(=O)Nc2cccc(Oc3ccc(C(=O)NCc4ccccc4)cn3)c2)c1

>  <score_type>  (67) 
oracle

>  <origin>  (67) 
adg

>  <m_score__min__energy>  (67) 
-13.48

>  <m_primary>  (67) 
energy

$$$$
67:0
     RDKit          3D

 50 52  0  0  0  0  0  0  0  0999 V2000
   58.4730   27.0540   42.8250 O   0  0  0  0  0  0  0  0  0  0  0  0
   57.9880   27.2370   43.9790 C   0  0  0  0  0  0  0  0  0  0  0  0
   58.2040   26.1370   44.9570 C   0  0  0  0  0  0  0  0  0  0  0  0
   57.6530   24.8690   44.4010 C   0  0  0  0  0  0  0  0  0  0  0  0
   57.8960   23.7240   45.1670 C   0  0  0  0  0  0  0  0  0  0  0  0
   57.4280   22.5040   44.7410 C   0  0  0  0  0  0  0  0  0  0  0  0
   57.6320   21.4700   45.4070 O   0  0  0  0  0  0  0  0  0  0  0  0
   56.7250   22.4930   43.5430 C   0  0  0  0  0  0  0  0  0  0  0  0
   56.2710   21.3940   43.1040 O   0  0  0  0  0  0  0  0  0  0  0  0
   56.5170   23.6260   42.8420 N   0  0  0  0  0  0  0  0  0  0  0  0
   56.9670   24.8110   43.2460 N   0  0  0  0  0  0  0  0  0  0  0  0
   57.2800   28.3980   44.3570 N   0  0  0  0  0  0  0  0  0  0  0  0
   57.0150   29.5240   43.4890 C   0  0  0  0  0  0  0  0  0  0  0  0
   57.4360   30.7810   44.1450 C   0  0  0  0  0  0  0  0  0  0  0  0
   57.8080   30.8880   45.4630 C   0  0  0  0  0  0  0  0  0  0  0  0
   58.1980   32.1000   46.0370 C   0  0  0  0  0  0  0  0  0  0  0  0
   58.2090   33.2300   45.2430 C   0  0  0  0  0  0  0  0  0  0  0  0
   58.6060   34.5730   45.7440 C   0  0  0  0  0  0  0  0  0  0  0  0
   59.9900   34.6960   46.0720 N   0  0  0  0  0  0  0  0  0  0  0  0
   60.2550   34.5230   47.4860 C   0  0  0  0  0  0  0  0  0  0  0  0
   61.5590   33.9130   47.7550 C   0  0  0  0  0  0  0  0  0  0  0  0
   61.8830   33.5000   49.0420 C   0  0  0  0  0  0  0  0  0  0  0  0
   63.1110   32.9200   49.3190 C   0  0  0  0  0  0  0  0  0  0  0  0
   64.0600   32.7300   48.3340 C   0  0  0  0  0  0  0  0  0  0  0  0
   63.7430   33.1420   47.0390 C   0  0  0  0  0  0  0  0  0  0  0  0
   62.5160   33.7160   46.7860 C   0  0  0  0  0  0  0  0  0  0  0  0
   57.8340   33.1470   43.9020 C   0  0  0  0  0  0  0  0  0  0  0  0
   57.4520   31.9340   43.3600 C   0  0  0  0  0  0  0  0  0  0  0  0
   59.2814   26.0184   45.1448 H   0  0  0  0  0  0  0  0  0  0  0  0
   57.6939   26.3778   45.9013 H   0  0  0  0  0  0  0  0  0  0  0  0
   58.4604   23.7999   46.1081 H   0  0  0  0  0  0  0  0  0  0  0  0
   55.9790   23.5280   41.9530 H   0  0  0  0  0  0  0  0  0  0  0  0
   56.8010   25.6830   42.6970 H   0  0  0  0  0  0  0  0  0  0  0  0
   56.9270   28.4290   45.3490 H   0  0  0  0  0  0  0  0  0  0  0  0
   57.5737   29.3988   42.5498 H   0  0  0  0  0  0  0  0  0  0  0  0
   55.9362   29.5710   43.2791 H   0  0  0  0  0  0  0  0  0  0  0  0
   57.7983   29.9845   46.0904 H   0  0  0  0  0  0  0  0  0  0  0  0
   58.4895   32.1533   47.0963 H   0  0  0  0  0  0  0  0  0  0  0  0
   58.3699   35.3138   44.9659 H   0  0  0  0  0  0  0  0  0  0  0  0
   58.0470   34.7372   46.6771 H   0  0  0  0  0  0  0  0  0  0  0  0
   60.5650   34.0110   45.5700 H   0  0  0  0  0  0  0  0  0  0  0  0
   60.2230   35.5095   47.9716 H   0  0  0  0  0  0  0  0  0  0  0  0
   59.4865   33.8436   47.8833 H   0  0  0  0  0  0  0  0  0  0  0  0
   61.1531   33.6356   49.8537 H   0  0  0  0  0  0  0  0  0  0  0  0
   63.3350   32.6034   50.3484 H   0  0  0  0  0  0  0  0  0  0  0  0
   65.0326   32.2696   48.5624 H   0  0  0  0  0  0  0  0  0  0  0  0
   64.4694   33.0092   46.2237 H   0  0  0  0  0  0  0  0  0  0  0  0
   62.2901   34.0328   45.7571 H   0  0  0  0  0  0  0  0  0  0  0  0
   57.8423   34.0498   43.2736 H   0  0  0  0  0  0  0  0  0  0  0  0
   57.1584   31.8776   42.3014 H   0  0  0  0  0  0  0  0  0  0  0  0
  1  2  2  0
  2  3  1  0
  3  4  1  0
  4  5  2  0
  5  6  1  0
  6  7  2  0
  6  8  1  0
  8  9  2  0
  8 10  1  0
 10 11  1  0
  2 12  1  0
 12 13  1  0
 13 14  1  0
 14 15  2  0
 15 16  1  0
 16 17  2  0
 17 18  1  0
 18 19  1  0
 19 20  1  0
 20 21  1  0
 21 22  2  0
 22 23  1  0
 23 24  2  0
 24 25  1  0
 25 26  2  0
 17 27  1  0
 27 28  2  0
 11  4  1  0
 28 14  1  0
 26 21  1  0
  3 29  1  0
  3 30  1  0
  5 31  1  0
 10 32  1  0
 11 33  1  0
 12 34  1  0
 13 35  1  0
 13 36  1  0
 15 37  1  0
 16 38  1  0
 18 39  1  0
 18 40  1  0
 19 41  1  0
 20 42  1  0
 20 43  1  0
 22 44  1  0
 23 45  1  0
 24 46  1  0
 25 47  1  0
 26 48  1  0
 27 49  1  0
 28 50  1  0
M  END
>  <smiles>  (68) 
O=C(Cc1cc(=O)c(=O)[nH][nH]1)NCc1ccc(CNCc2ccccc2)cc1

>  <score_type>  (68) 
oracle

>  <origin>  (68) 
adg

>  <m_score__min__energy>  (68) 
-8.8699999999999992

>  <m_primary>  (68) 
energy

$$$$
68:0
     RDKit          3D

 34 36  0  0  0  0  0  0  0  0999 V2000
   58.4777   35.9669   46.5112 H   0  0  0  0  0  0  0  0  0  0  0  0
   58.8590   34.9420   46.3920 C   0  0  0  0  0  0  0  0  0  0  0  0
   60.0850   34.6160   46.8760 N   0  0  0  0  0  0  0  0  0  0  0  0
   60.5990   33.3620   46.7520 C   0  0  0  0  0  0  0  0  0  0  0  0
   61.7760   33.0560   47.2200 N   0  0  0  0  0  0  0  0  0  0  0  0
   62.4620   33.5940   48.3640 C   0  0  0  0  0  0  0  0  0  0  0  0
   64.0070   33.1150   48.6270 S   0  0  0  0  0  0  0  0  0  0  0  0
   61.8400   34.5220   49.2670 N   0  0  0  0  0  0  0  0  0  0  0  0
   60.9820   34.9170   48.8220 H   0  0  0  0  0  0  0  0  0  0  0  0
   62.5180   35.2810   49.5060 H   0  0  0  0  0  0  0  0  0  0  0  0
   61.5600   34.0460   50.1550 H   0  0  0  0  0  0  0  0  0  0  0  0
   59.8470   32.3710   46.1070 C   0  0  0  0  0  0  0  0  0  0  0  0
   60.2554   31.3553   45.9992 H   0  0  0  0  0  0  0  0  0  0  0  0
   58.5710   32.6720   45.5970 C   0  0  0  0  0  0  0  0  0  0  0  0
   57.7810   31.6160   44.9130 C   0  0  0  0  0  0  0  0  0  0  0  0
   57.2000   30.6020   45.6130 N   0  0  0  0  0  0  0  0  0  0  0  0
   56.5140   29.7600   44.8100 C   0  0  0  0  0  0  0  0  0  0  0  0
   55.8970   28.6950   45.2260 N   0  0  0  0  0  0  0  0  0  0  0  0
   56.5390   27.4810   45.6490 C   0  0  0  0  0  0  0  0  0  0  0  0
   57.9380   27.4140   45.6160 C   0  0  0  0  0  0  0  0  0  0  0  0
   58.5194   28.2848   45.2789 H   0  0  0  0  0  0  0  0  0  0  0  0
   58.5990   26.2470   46.0090 C   0  0  0  0  0  0  0  0  0  0  0  0
   59.6982   26.2072   45.9947 H   0  0  0  0  0  0  0  0  0  0  0  0
   57.8660   25.1310   46.4200 C   0  0  0  0  0  0  0  0  0  0  0  0
   58.3879   24.2175   46.7410 H   0  0  0  0  0  0  0  0  0  0  0  0
   56.4690   25.1760   46.4230 C   0  0  0  0  0  0  0  0  0  0  0  0
   55.8933   24.2938   46.7397 H   0  0  0  0  0  0  0  0  0  0  0  0
   55.8000   26.3380   46.0250 C   0  0  0  0  0  0  0  0  0  0  0  0
   54.4110   26.3370   45.9760 O   0  0  0  0  0  0  0  0  0  0  0  0
   56.6050   30.2130   43.2000 S   0  0  0  0  0  0  0  0  0  0  0  0
   57.5520   31.5640   43.5320 C   0  0  0  0  0  0  0  0  0  0  0  0
   57.9275   32.2842   42.7902 H   0  0  0  0  0  0  0  0  0  0  0  0
   58.0810   33.9820   45.7440 C   0  0  0  0  0  0  0  0  0  0  0  0
   57.0892   34.2485   45.3500 H   0  0  0  0  0  0  0  0  0  0  0  0
  1  2  1  0
  2  3  1  0
  3  4  1  0
  4  5  2  0
  5  6  1  0
  6  7  2  0
  6  8  1  0
  8  9  1  0
  8 10  1  0
  8 11  1  0
  4 12  1  0
 12 13  1  0
 12 14  2  0
 14 15  1  0
 15 16  1  0
 16 17  1  0
 17 18  2  3
 18 19  1  0
 19 20  2  0
 20 21  1  0
 20 22  1  0
 22 23  1  0
 22 24  2  0
 24 25  1  0
 24 26  1  0
 26 27  1  0
 26 28  2  0
 28 29  1  0
 17 30  1  0
 30 31  1  0
 31 32  1  0
 14 33  1  0
 33 34  1  0
 33  2  2  0
 31 15  2  0
 28 19  1  0
M  CHG  4   3  -1   8   1  16  -1  29  -1
M  END
>  <UniqueID>  (69) 
62

>  <SMILES>  (69) 
[NH3+]C(=S)/N=c1/cc(-c2csc(=Nc3ccccc3[O-])[n-]2)cc[n-]1

>  <Energy>  (69) 
80.78979390493666

>  <Genealogy>  (69) 
[NH3+]C(=S)N=c1cc(-c2csc(=Nc3ccccc3[O-])[n-]2)cc[n-]1 (protonated)
[NH3+]C(=S)/N=c1/cc(-c2csc(=Nc3ccccc3[O-])[n-]2)cc[n-]1 (cis-trans isomerization)
[NH3+]C(=S)/N=c1/cc(-c2csc(=Nc3ccccc3[O-])[n-]2)cc[n-]1 (3D coordinates assigned)
[NH3+]C(=S)/N=c1/cc(-c2csc(=Nc3ccccc3[O-])[n-]2)cc[n-]1 (optimized conformer: 80.78979390493666 kcal/mol)

>  <smiles>  (69) 
NC(=S)N=c1cc(-c2csc(=Nc3ccccc3O)[nH]2)cc[nH]1

>  <score_type>  (69) 
oracle

>  <origin>  (69) 
adg

>  <m_score__min__energy>  (69) 
-14.32

>  <m_primary>  (69) 
energy

$$$$
69:0
     RDKit          3D

 60 62  0  0  0  0  0  0  0  0999 V2000
   60.7670   34.0320   46.8480 H   0  0  0  0  0  0  0  0  0  0  0  0
   61.5300   33.5190   46.3490 N   0  0  0  0  0  0  0  0  0  0  0  0
   62.3700   32.7450   46.9640 C   0  0  0  0  0  0  0  0  0  0  0  0
   61.8930   31.6060   47.7850 C   0  0  0  0  0  0  0  0  0  0  0  0
   61.1970   30.5580   47.1600 C   0  0  0  0  0  0  0  0  0  0  0  0
   61.0329   30.5906   46.0728 H   0  0  0  0  0  0  0  0  0  0  0  0
   60.7070   29.4690   47.9000 C   0  0  0  0  0  0  0  0  0  0  0  0
   60.0090   28.3970   47.2290 N   0  0  0  0  0  0  0  0  0  0  0  0
   58.6340   28.5790   46.8560 C   0  0  0  0  0  0  0  0  0  0  0  0
   57.7670   27.7860   47.3150 O   0  0  0  0  0  0  0  0  0  0  0  0
   58.2340   29.6550   45.9170 C   0  0  0  0  0  0  0  0  0  0  0  0
   57.8590   29.3510   44.5980 C   0  0  0  0  0  0  0  0  0  0  0  0
   57.8808   28.3078   44.2498 H   0  0  0  0  0  0  0  0  0  0  0  0
   57.4590   30.3650   43.7270 C   0  0  0  0  0  0  0  0  0  0  0  0
   57.1711   30.1170   42.6947 H   0  0  0  0  0  0  0  0  0  0  0  0
   57.4220   31.6930   44.1580 C   0  0  0  0  0  0  0  0  0  0  0  0
   57.0996   32.4836   43.4645 H   0  0  0  0  0  0  0  0  0  0  0  0
   57.7940   32.0260   45.4720 C   0  0  0  0  0  0  0  0  0  0  0  0
   57.7490   33.4350   45.9470 C   0  0  0  0  0  0  0  0  0  0  0  0
   58.5870   33.8330   46.8510 N   0  0  0  0  0  0  0  0  0  0  0  0
   59.4670   33.3090   47.0580 H   0  0  0  0  0  0  0  0  0  0  0  0
   56.8080   34.3690   45.4060 N   0  0  0  0  0  0  0  0  0  0  0  0
   56.7660   35.3500   45.7720 H   0  0  0  0  0  0  0  0  0  0  0  0
   56.2320   34.1430   44.5670 H   0  0  0  0  0  0  0  0  0  0  0  0
   58.1950   30.9950   46.3460 C   0  0  0  0  0  0  0  0  0  0  0  0
   58.4818   31.2416   47.3789 H   0  0  0  0  0  0  0  0  0  0  0  0
   60.7270   27.2330   46.7040 C   0  0  0  0  0  0  0  0  0  0  0  0
   61.1018   26.6253   47.5408 H   0  0  0  0  0  0  0  0  0  0  0  0
   60.0447   26.6283   46.0885 H   0  0  0  0  0  0  0  0  0  0  0  0
   61.5736   27.5713   46.0885 H   0  0  0  0  0  0  0  0  0  0  0  0
   60.9040   29.4510   49.2900 C   0  0  0  0  0  0  0  0  0  0  0  0
   60.5029   28.6187   49.8870 H   0  0  0  0  0  0  0  0  0  0  0  0
   61.6050   30.4810   49.9210 C   0  0  0  0  0  0  0  0  0  0  0  0
   61.7500   30.4532   51.0110 H   0  0  0  0  0  0  0  0  0  0  0  0
   62.1280   31.5550   49.1750 C   0  0  0  0  0  0  0  0  0  0  0  0
   62.9040   32.5660   49.7710 O   0  0  0  0  0  0  0  0  0  0  0  0
   62.5030   33.9260   49.9510 C   0  0  0  0  0  0  0  0  0  0  0  0
   62.7857   34.2532   50.9624 H   0  0  0  0  0  0  0  0  0  0  0  0
   63.0056   34.5423   49.1911 H   0  0  0  0  0  0  0  0  0  0  0  0
   61.0160   34.0780   49.7830 C   0  0  0  0  0  0  0  0  0  0  0  0
   60.5440   34.3280   48.6440 O   0  0  0  0  0  0  0  0  0  0  0  0
   60.1230   33.9960   50.9020 N   0  0  0  0  0  0  0  0  0  0  0  0
   59.2180   32.9150   51.1740 C   0  0  0  0  0  0  0  0  0  0  0  0
   58.5620   32.8670   52.4100 C   0  0  0  0  0  0  0  0  0  0  0  0
   58.7649   33.6391   53.1668 H   0  0  0  0  0  0  0  0  0  0  0  0
   57.6490   31.8420   52.6890 C   0  0  0  0  0  0  0  0  0  0  0  0
   57.1544   31.8038   53.6708 H   0  0  0  0  0  0  0  0  0  0  0  0
   57.3610   30.8650   51.7270 C   0  0  0  0  0  0  0  0  0  0  0  0
   56.4320   29.8610   52.0500 O   0  0  0  0  0  0  0  0  0  0  0  0
   55.1120   30.1110   52.5300 C   0  0  0  0  0  0  0  0  0  0  0  0
   55.1156   30.1103   53.6300 H   0  0  0  0  0  0  0  0  0  0  0  0
   54.7685   31.0902   52.1651 H   0  0  0  0  0  0  0  0  0  0  0  0
   54.4342   29.3253   52.1651 H   0  0  0  0  0  0  0  0  0  0  0  0
   58.0020   30.9260   50.4730 C   0  0  0  0  0  0  0  0  0  0  0  0
   57.7814   30.1675   49.7074 H   0  0  0  0  0  0  0  0  0  0  0  0
   58.9190   31.9490   50.1980 C   0  0  0  0  0  0  0  0  0  0  0  0
   59.4073   31.9963   49.2134 H   0  0  0  0  0  0  0  0  0  0  0  0
   63.7720   32.9660   46.7930 N   0  0  0  0  0  0  0  0  0  0  0  0
   64.4750   32.3940   47.3110 H   0  0  0  0  0  0  0  0  0  0  0  0
   64.1130   33.7180   46.1510 H   0  0  0  0  0  0  0  0  0  0  0  0
  1  2  1  0
  2  3  2  3
  3  4  1  0
  4  5  2  0
  5  6  1  0
  5  7  1  0
  7  8  1  0
  8  9  1  0
  9 10  2  0
  9 11  1  0
 11 12  2  0
 12 13  1  0
 12 14  1  0
 14 15  1  0
 14 16  2  0
 16 17  1  0
 16 18  1  0
 18 19  1  0
 19 20  2  0
 20 21  1  0
 19 22  1  0
 22 23  1  0
 22 24  1  0
 18 25  2  0
 25 26  1  0
  8 27  1  0
 27 28  1  0
 27 29  1  0
 27 30  1  0
  7 31  2  0
 31 32  1  0
 31 33  1  0
 33 34  1  0
 33 35  2  0
 35 36  1  0
 36 37  1  0
 37 38  1  0
 37 39  1  0
 37 40  1  0
 40 41  2  0
 40 42  1  0
 42 43  1  0
 43 44  2  0
 44 45  1  0
 44 46  1  0
 46 47  1  0
 46 48  2  0
 48 49  1  0
 49 50  1  0
 50 51  1  0
 50 52  1  0
 50 53  1  0
 48 54  1  0
 54 55  1  0
 54 56  2  0
 56 57  1  0
  3 58  1  0
 58 59  1  0
 58 60  1  0
 35  4  1  0
 56 43  1  0
 25 11  1  0
M  CHG  1  42  -1
M  END
>  <UniqueID>  (70) 
63

>  <SMILES>  (70) 
[H]/N=C(\N)c1cccc(C(=O)N(C)c2ccc(OCC(=O)[N-]c3ccc(OC)cc3)c(C(=N)N)c2)c1

>  <Energy>  (70) 
81.13383974788563

>  <Genealogy>  (70) 
COc1ccc([N-]C(=O)COc2ccc(N(C)C(=O)c3cccc(C(=N)N)c3)cc2C(=N)N)cc1 (protonated)
[H]/N=C(\N)c1cccc(C(=O)N(C)c2ccc(OCC(=O)[N-]c3ccc(OC)cc3)c(C(=N)N)c2)c1 (cis-trans isomerization)
[H]/N=C(\N)c1cccc(C(=O)N(C)c2ccc(OCC(=O)[N-]c3ccc(OC)cc3)c(C(=N)N)c2)c1 (3D coordinates assigned)
[H]/N=C(\N)c1cccc(C(=O)N(C)c2ccc(OCC(=O)[N-]c3ccc(OC)cc3)c(C(=N)N)c2)c1 (optimized conformer: 81.13383974788563 kcal/mol)

>  <smiles>  (70) 
COc1ccc(NC(=O)COc2ccc(N(C)C(=O)c3cccc(C(=N)N)c3)cc2C(=N)N)cc1

>  <score_type>  (70) 
oracle

>  <origin>  (70) 
adg

>  <m_score__min__energy>  (70) 
-11.029999999999999

>  <m_primary>  (70) 
energy

$$$$
70:0
     RDKit          3D

 34 35  0  0  0  0  0  0  0  0999 V2000
   58.8910   30.5950   47.8200 C   0  0  0  0  0  0  0  0  0  0  0  0
   58.8930   32.0180   47.3290 C   0  0  0  0  0  0  0  0  0  0  0  0
   59.7300   32.9450   47.9700 C   0  0  0  0  0  0  0  0  0  0  0  0
   59.8090   34.2610   47.5180 C   0  0  0  0  0  0  0  0  0  0  0  0
   59.0590   34.6700   46.4160 C   0  0  0  0  0  0  0  0  0  0  0  0
   58.2050   33.7680   45.7650 C   0  0  0  0  0  0  0  0  0  0  0  0
   57.3780   34.2350   44.5970 C   0  0  0  0  0  0  0  0  0  0  0  0
   58.0810   32.4470   46.2480 C   0  0  0  0  0  0  0  0  0  0  0  0
   57.1550   31.5560   45.6030 N   0  0  0  0  0  0  0  0  0  0  0  0
   57.4940   30.5580   44.6290 C   0  0  0  0  0  0  0  0  0  0  0  0
   57.4430   30.8680   43.4100 O   0  0  0  0  0  0  0  0  0  0  0  0
   57.8590   29.1730   45.0150 C   0  0  0  0  0  0  0  0  0  0  0  0
   59.2040   28.7900   45.0830 C   0  0  0  0  0  0  0  0  0  0  0  0
   59.5430   27.4880   45.4300 C   0  0  0  0  0  0  0  0  0  0  0  0
   58.5380   26.5690   45.7330 C   0  0  0  0  0  0  0  0  0  0  0  0
   58.8660   25.3860   46.0260 O   0  0  0  0  0  0  0  0  0  0  0  0
   57.2190   26.9480   45.7120 N   0  0  0  0  0  0  0  0  0  0  0  0
   56.1620   25.9670   46.0080 C   0  0  0  0  0  0  0  0  0  0  0  0
   56.8690   28.2230   45.3360 C   0  0  0  0  0  0  0  0  0  0  0  0
   55.5240   28.5780   45.2480 O   0  0  0  0  0  0  0  0  0  0  0  0
   58.8910   30.5867   48.9200 H   0  0  0  0  0  0  0  0  0  0  0  0
   57.9921   30.0805   47.4494 H   0  0  0  0  0  0  0  0  0  0  0  0
   59.7884   30.0780   47.4494 H   0  0  0  0  0  0  0  0  0  0  0  0
   60.3290   32.6298   48.8371 H   0  0  0  0  0  0  0  0  0  0  0  0
   60.4649   34.9790   48.0321 H   0  0  0  0  0  0  0  0  0  0  0  0
   59.1376   35.7062   46.0552 H   0  0  0  0  0  0  0  0  0  0  0  0
   56.4759   34.7444   44.9668 H   0  0  0  0  0  0  0  0  0  0  0  0
   57.9685   34.9330   43.9854 H   0  0  0  0  0  0  0  0  0  0  0  0
   57.0853   33.3689   43.9854 H   0  0  0  0  0  0  0  0  0  0  0  0
   59.9946   29.5220   44.8611 H   0  0  0  0  0  0  0  0  0  0  0  0
   60.5993   27.1831   45.4657 H   0  0  0  0  0  0  0  0  0  0  0  0
   56.0516   25.8645   47.0976 H   0  0  0  0  0  0  0  0  0  0  0  0
   55.2113   26.3100   45.5738 H   0  0  0  0  0  0  0  0  0  0  0  0
   56.4333   24.9934   45.5738 H   0  0  0  0  0  0  0  0  0  0  0  0
  1  2  1  0
  2  3  2  0
  3  4  1  0
  4  5  2  0
  5  6  1  0
  6  7  1  0
  6  8  2  0
  8  9  1  0
  9 10  1  0
 10 11  2  0
 10 12  1  0
 12 13  1  0
 13 14  2  0
 14 15  1  0
 15 16  2  0
 15 17  1  0
 17 18  1  0
 17 19  1  0
 19 20  1  0
  8  2  1  0
 19 12  2  0
  1 21  1  0
  1 22  1  0
  1 23  1  0
  3 24  1  0
  4 25  1  0
  5 26  1  0
  7 27  1  0
  7 28  1  0
  7 29  1  0
 13 30  1  0
 14 31  1  0
 18 32  1  0
 18 33  1  0
 18 34  1  0
M  CHG  2   9  -1  20  -1
M  END
>  <UniqueID>  (71) 
64

>  <SMILES>  (71) 
Cc1cccc(C)c1[N-]C(=O)c1ccc(=O)n(C)c1[O-]

>  <Energy>  (71) 
48.40163105546401

>  <Genealogy>  (71) 
Cc1cccc(C)c1[N-]C(=O)c1ccc(=O)n(C)c1[O-] (protonated)
Cc1cccc(C)c1[N-]C(=O)c1ccc(=O)n(C)c1[O-] (3D coordinates assigned)
Cc1cccc(C)c1[N-]C(=O)c1ccc(=O)n(C)c1[O-] (optimized conformer: 48.40163105546401 kcal/mol)

>  <smiles>  (71) 
Cc1cccc(C)c1NC(=O)c1ccc(=O)n(C)c1O

>  <score_type>  (71) 
oracle

>  <origin>  (71) 
adg

>  <m_score__min__energy>  (71) 
-12.69

>  <m_primary>  (71) 
energy

$$$$
71:0
     RDKit          3D

 62 65  0  0  0  0  0  0  0  0999 V2000
   58.5590   31.4070   47.6930 C   0  0  0  0  0  0  0  0  0  0  0  0
   58.6080   32.4100   46.5590 C   0  0  0  0  0  0  0  0  0  0  0  0
   59.2190   33.6810   46.7600 C   0  0  0  0  0  0  0  0  0  0  0  0
   59.9200   34.0610   48.0510 C   0  0  0  0  0  0  0  0  0  0  0  0
   61.4150   33.7790   48.0200 C   0  0  0  0  0  0  0  0  0  0  0  0
   62.1160   33.8330   46.7960 C   0  0  0  0  0  0  0  0  0  0  0  0
   63.4700   33.4960   46.7290 C   0  0  0  0  0  0  0  0  0  0  0  0
   64.1450   33.0860   47.8760 C   0  0  0  0  0  0  0  0  0  0  0  0
   63.4660   32.9910   49.0900 C   0  0  0  0  0  0  0  0  0  0  0  0
   62.1030   33.3210   49.1760 C   0  0  0  0  0  0  0  0  0  0  0  0
   61.4130   33.1600   50.4790 C   0  0  0  0  0  0  0  0  0  0  0  0
   61.3750   34.1500   51.2610 O   0  0  0  0  0  0  0  0  0  0  0  0
   60.8300   31.9010   50.9030 N   0  0  0  0  0  0  0  0  0  0  0  0
   61.5330   30.7470   50.2680 C   0  0  0  0  0  0  0  0  0  0  0  0
   60.5950   29.7820   49.5260 C   0  0  0  0  0  0  0  0  0  0  0  0
   59.4350   29.3520   50.4310 C   0  0  0  0  0  0  0  0  0  0  0  0
   58.7590   30.5400   51.1430 C   0  0  0  0  0  0  0  0  0  0  0  0
   59.3570   31.8920   50.7320 C   0  0  0  0  0  0  0  0  0  0  0  0
   59.2170   34.6220   45.7180 C   0  0  0  0  0  0  0  0  0  0  0  0
   58.6090   34.3350   44.4990 C   0  0  0  0  0  0  0  0  0  0  0  0
   58.0100   33.0960   44.2910 C   0  0  0  0  0  0  0  0  0  0  0  0
   58.0070   32.1260   45.3030 C   0  0  0  0  0  0  0  0  0  0  0  0
   57.3910   30.8180   44.9990 C   0  0  0  0  0  0  0  0  0  0  0  0
   56.1970   30.7960   44.5890 O   0  0  0  0  0  0  0  0  0  0  0  0
   58.1140   29.5790   45.1850 N   0  0  0  0  0  0  0  0  0  0  0  0
   57.3690   28.3220   45.3620 C   0  0  0  0  0  0  0  0  0  0  0  0
   58.1580   27.1450   44.7800 C   0  0  0  0  0  0  0  0  0  0  0  0
   59.5220   27.1290   45.3190 N   0  0  0  0  0  0  0  0  0  0  0  0
   60.2350   28.3500   44.9210 C   0  0  0  0  0  0  0  0  0  0  0  0
   59.5480   29.5830   45.5110 C   0  0  0  0  0  0  0  0  0  0  0  0
   58.5850   31.9397   48.6551 H   0  0  0  0  0  0  0  0  0  0  0  0
   57.6311   30.8203   47.6237 H   0  0  0  0  0  0  0  0  0  0  0  0
   59.4253   30.7326   47.6237 H   0  0  0  0  0  0  0  0  0  0  0  0
   59.7695   35.1361   48.2285 H   0  0  0  0  0  0  0  0  0  0  0  0
   59.4857   33.4479   48.8545 H   0  0  0  0  0  0  0  0  0  0  0  0
   61.5888   34.1448   45.8823 H   0  0  0  0  0  0  0  0  0  0  0  0
   64.0037   33.5546   45.7690 H   0  0  0  0  0  0  0  0  0  0  0  0
   65.2151   32.8368   47.8241 H   0  0  0  0  0  0  0  0  0  0  0  0
   64.0026   32.6544   49.9893 H   0  0  0  0  0  0  0  0  0  0  0  0
   60.9960   31.8340   51.9360 H   0  0  0  0  0  0  0  0  0  0  0  0
   62.2657   31.1407   49.5482 H   0  0  0  0  0  0  0  0  0  0  0  0
   62.0060   30.1740   51.0792 H   0  0  0  0  0  0  0  0  0  0  0  0
   60.1908   30.2847   48.6350 H   0  0  0  0  0  0  0  0  0  0  0  0
   61.1658   28.8883   49.2336 H   0  0  0  0  0  0  0  0  0  0  0  0
   58.6824   28.8366   49.8162 H   0  0  0  0  0  0  0  0  0  0  0  0
   59.8490   28.6929   51.2083 H   0  0  0  0  0  0  0  0  0  0  0  0
   57.6879   30.5377   50.8925 H   0  0  0  0  0  0  0  0  0  0  0  0
   58.9231   30.4178   52.2238 H   0  0  0  0  0  0  0  0  0  0  0  0
   59.1172   32.0842   49.6758 H   0  0  0  0  0  0  0  0  0  0  0  0
   58.9268   32.6733   51.3758 H   0  0  0  0  0  0  0  0  0  0  0  0
   59.7019   35.5981   45.8667 H   0  0  0  0  0  0  0  0  0  0  0  0
   58.6020   35.0892   43.6983 H   0  0  0  0  0  0  0  0  0  0  0  0
   57.5346   32.8760   43.3237 H   0  0  0  0  0  0  0  0  0  0  0  0
   57.1999   28.1493   46.4351 H   0  0  0  0  0  0  0  0  0  0  0  0
   56.4068   28.4011   44.8348 H   0  0  0  0  0  0  0  0  0  0  0  0
   57.6528   26.2041   45.0435 H   0  0  0  0  0  0  0  0  0  0  0  0
   58.2071   27.2535   43.6865 H   0  0  0  0  0  0  0  0  0  0  0  0
   60.0210   26.3170   44.8880 H   0  0  0  0  0  0  0  0  0  0  0  0
   61.2707   28.3013   45.2882 H   0  0  0  0  0  0  0  0  0  0  0  0
   60.2271   28.4271   43.8237 H   0  0  0  0  0  0  0  0  0  0  0  0
   59.6707   29.5775   46.6041 H   0  0  0  0  0  0  0  0  0  0  0  0
   60.0078   30.4857   45.0824 H   0  0  0  0  0  0  0  0  0  0  0  0
  1  2  1  0
  2  3  2  0
  3  4  1  0
  4  5  1  0
  5  6  2  0
  6  7  1  0
  7  8  2  0
  8  9  1  0
  9 10  2  0
 10 11  1  0
 11 12  2  0
 11 13  1  0
 13 14  1  0
 14 15  1  0
 15 16  1  0
 16 17  1  0
 17 18  1  0
  3 19  1  0
 19 20  2  0
 20 21  1  0
 21 22  2  0
 22 23  1  0
 23 24  2  0
 23 25  1  0
 25 26  1  0
 26 27  1  0
 27 28  1  0
 28 29  1  0
 29 30  1  0
 22  2  1  0
 30 25  1  0
 10  5  1  0
 18 13  1  0
  1 31  1  0
  1 32  1  0
  1 33  1  0
  4 34  1  0
  4 35  1  0
  6 36  1  0
  7 37  1  0
  8 38  1  0
  9 39  1  0
 13 40  1  0
 14 41  1  0
 14 42  1  0
 15 43  1  0
 15 44  1  0
 16 45  1  0
 16 46  1  0
 17 47  1  0
 17 48  1  0
 18 49  1  0
 18 50  1  0
 19 51  1  0
 20 52  1  0
 21 53  1  0
 26 54  1  0
 26 55  1  0
 27 56  1  0
 27 57  1  0
 28 58  1  0
 29 59  1  0
 29 60  1  0
 30 61  1  0
 30 62  1  0
M  CHG  1  13   1
M  END
>  <UniqueID>  (72) 
65

>  <SMILES>  (72) 
Cc1c(Cc2ccccc2C(=O)[NH+]2CCCCC2)cccc1C(=O)N1CCNCC1

>  <Energy>  (72) 
92.40719895807638

>  <Genealogy>  (72) 
Cc1c(Cc2ccccc2C(=O)[NH+]2CCCCC2)cccc1C(=O)N1CCNCC1 (protonated)
Cc1c(Cc2ccccc2C(=O)[NH+]2CCCCC2)cccc1C(=O)N1CCNCC1 (3D coordinates assigned)
Cc1c(Cc2ccccc2C(=O)[NH+]2CCCCC2)cccc1C(=O)N1CCNCC1 (nonaromatic ring conformer: 92.40719895807638 kcal/mol)

>  <smiles>  (72) 
Cc1c(Cc2ccccc2C(=O)N2CCCCC2)cccc1C(=O)N1CCNCC1

>  <score_type>  (72) 
oracle

>  <origin>  (72) 
adg

>  <m_score__min__energy>  (72) 
-8.6400000000000006

>  <m_primary>  (72) 
energy

$$$$
72:0
     RDKit          3D

 61 63  0  0  0  0  0  0  0  0999 V2000
   57.7830   31.8390   51.1480 C   0  0  0  0  0  0  0  0  0  0  0  0
   59.2190   32.2500   50.8450 C   0  0  0  0  0  0  0  0  0  0  0  0
   59.2820   33.5960   50.3710 O   0  0  0  0  0  0  0  0  0  0  0  0
   59.9560   33.9870   49.2110 C   0  0  0  0  0  0  0  0  0  0  0  0
   61.0970   34.5100   49.2960 O   0  0  0  0  0  0  0  0  0  0  0  0
   59.3370   33.7930   47.9240 N   0  0  0  0  0  0  0  0  0  0  0  0
   57.9510   33.3010   47.8630 C   0  0  0  0  0  0  0  0  0  0  0  0
   57.3620   33.4250   46.4510 C   0  0  0  0  0  0  0  0  0  0  0  0
   58.2770   32.7870   45.3770 C   0  0  0  0  0  0  0  0  0  0  0  0
   58.0670   31.2610   45.2780 C   0  0  0  0  0  0  0  0  0  0  0  0
   56.6470   30.9260   45.1210 N   0  0  0  0  0  0  0  0  0  0  0  0
   56.4960   29.3120   44.4880 S   0  0  0  0  0  0  0  0  0  0  0  0
   57.1990   29.2170   43.1630 O   0  0  0  0  0  0  0  0  0  0  0  0
   55.0430   29.0040   44.2690 O   0  0  0  0  0  0  0  0  0  0  0  0
   57.1960   28.1430   45.6170 C   0  0  0  0  0  0  0  0  0  0  0  0
   58.4900   28.3700   46.1200 C   0  0  0  0  0  0  0  0  0  0  0  0
   59.0340   27.5290   47.1000 C   0  0  0  0  0  0  0  0  0  0  0  0
   60.2810   27.8930   47.7090 N   0  0  0  0  0  0  0  0  0  0  0  0
   60.4330   28.9070   49.1060 S   0  0  0  0  0  0  0  0  0  0  0  0
   59.0710   29.3200   49.5670 O   0  0  0  0  0  0  0  0  0  0  0  0
   61.1050   28.1310   50.1960 O   0  0  0  0  0  0  0  0  0  0  0  0
   61.4130   30.3260   48.7360 C   0  0  0  0  0  0  0  0  0  0  0  0
   62.1360   30.9530   49.7570 C   0  0  0  0  0  0  0  0  0  0  0  0
   62.9940   32.0210   49.4600 C   0  0  0  0  0  0  0  0  0  0  0  0
   63.0940   32.5070   48.1480 C   0  0  0  0  0  0  0  0  0  0  0  0
   64.0110   33.6470   47.8160 C   0  0  0  0  0  0  0  0  0  0  0  0
   62.3440   31.8960   47.1330 C   0  0  0  0  0  0  0  0  0  0  0  0
   61.5180   30.8050   47.4220 C   0  0  0  0  0  0  0  0  0  0  0  0
   58.3180   26.3830   47.4980 C   0  0  0  0  0  0  0  0  0  0  0  0
   57.0380   26.1390   46.9870 C   0  0  0  0  0  0  0  0  0  0  0  0
   56.4620   27.0270   46.0730 C   0  0  0  0  0  0  0  0  0  0  0  0
   55.1620   26.7950   45.6300 O   0  0  0  0  0  0  0  0  0  0  0  0
   59.7840   33.1080   45.6010 C   0  0  0  0  0  0  0  0  0  0  0  0
   60.0290   34.1690   46.6820 C   0  0  0  0  0  0  0  0  0  0  0  0
   57.6358   31.7969   52.2373 H   0  0  0  0  0  0  0  0  0  0  0  0
   57.0913   32.5752   50.7127 H   0  0  0  0  0  0  0  0  0  0  0  0
   57.5855   30.8483   50.7127 H   0  0  0  0  0  0  0  0  0  0  0  0
   59.8181   32.1647   51.7636 H   0  0  0  0  0  0  0  0  0  0  0  0
   59.6134   31.5860   50.0617 H   0  0  0  0  0  0  0  0  0  0  0  0
   57.9356   32.2429   48.1632 H   0  0  0  0  0  0  0  0  0  0  0  0
   57.3409   33.9145   48.5423 H   0  0  0  0  0  0  0  0  0  0  0  0
   56.3850   32.9201   46.4292 H   0  0  0  0  0  0  0  0  0  0  0  0
   57.2648   34.4958   46.2187 H   0  0  0  0  0  0  0  0  0  0  0  0
   57.9795   33.2445   44.4219 H   0  0  0  0  0  0  0  0  0  0  0  0
   58.6233   30.8786   44.4095 H   0  0  0  0  0  0  0  0  0  0  0  0
   58.4311   30.7999   46.2080 H   0  0  0  0  0  0  0  0  0  0  0  0
   56.2390   31.5730   44.4040 H   0  0  0  0  0  0  0  0  0  0  0  0
   59.0809   29.2165   45.7401 H   0  0  0  0  0  0  0  0  0  0  0  0
   62.0307   30.6067   50.7958 H   0  0  0  0  0  0  0  0  0  0  0  0
   63.5923   32.4806   50.2605 H   0  0  0  0  0  0  0  0  0  0  0  0
   64.3790   34.1044   48.7462 H   0  0  0  0  0  0  0  0  0  0  0  0
   64.8630   33.2733   47.2292 H   0  0  0  0  0  0  0  0  0  0  0  0
   63.4634   34.3991   47.2292 H   0  0  0  0  0  0  0  0  0  0  0  0
   62.4057   32.2771   46.1030 H   0  0  0  0  0  0  0  0  0  0  0  0
   60.9483   30.3206   46.6153 H   0  0  0  0  0  0  0  0  0  0  0  0
   58.7664   25.6774   48.2129 H   0  0  0  0  0  0  0  0  0  0  0  0
   56.4826   25.2447   47.3058 H   0  0  0  0  0  0  0  0  0  0  0  0
   60.2968   32.1818   45.8995 H   0  0  0  0  0  0  0  0  0  0  0  0
   60.1728   33.5135   44.6553 H   0  0  0  0  0  0  0  0  0  0  0  0
   61.1088   34.2479   46.8765 H   0  0  0  0  0  0  0  0  0  0  0  0
   59.6406   35.1367   46.3318 H   0  0  0  0  0  0  0  0  0  0  0  0
  1  2  1  0
  2  3  1  0
  3  4  1  0
  4  5  2  0
  4  6  1  0
  6  7  1  0
  7  8  1  0
  8  9  1  0
  9 10  1  0
 10 11  1  0
 11 12  1  0
 12 13  2  0
 12 14  2  0
 12 15  1  0
 15 16  2  0
 16 17  1  0
 17 18  1  0
 18 19  1  0
 19 20  2  0
 19 21  2  0
 19 22  1  0
 22 23  2  0
 23 24  1  0
 24 25  2  0
 25 26  1  0
 25 27  1  0
 27 28  2  0
 17 29  2  0
 29 30  1  0
 30 31  2  0
 31 32  1  0
  9 33  1  0
 33 34  1  0
 34  6  1  0
 31 15  1  0
 28 22  1  0
  1 35  1  0
  1 36  1  0
  1 37  1  0
  2 38  1  0
  2 39  1  0
  7 40  1  0
  7 41  1  0
  8 42  1  0
  8 43  1  0
  9 44  1  0
 10 45  1  0
 10 46  1  0
 11 47  1  0
 16 48  1  0
 23 49  1  0
 24 50  1  0
 26 51  1  0
 26 52  1  0
 26 53  1  0
 27 54  1  0
 28 55  1  0
 29 56  1  0
 30 57  1  0
 33 58  1  0
 33 59  1  0
 34 60  1  0
 34 61  1  0
M  CHG  2  18  -1  32  -1
M  END
>  <UniqueID>  (73) 
66

>  <SMILES>  (73) 
CCOC(=O)N1CCC(CNS(=O)(=O)c2cc([N-]S(=O)(=O)c3ccc(C)cc3)ccc2[O-])CC1

>  <Energy>  (73) 
57.21413410041762

>  <Genealogy>  (73) 
CCOC(=O)N1CCC(CNS(=O)(=O)c2cc([N-]S(=O)(=O)c3ccc(C)cc3)ccc2[O-])CC1 (protonated)
CCOC(=O)N1CCC(CNS(=O)(=O)c2cc([N-]S(=O)(=O)c3ccc(C)cc3)ccc2[O-])CC1 (3D coordinates assigned)
CCOC(=O)N1CCC(CNS(=O)(=O)c2cc([N-]S(=O)(=O)c3ccc(C)cc3)ccc2[O-])CC1 (nonaromatic ring conformer: 57.21413410041762 kcal/mol)

>  <smiles>  (73) 
CCOC(=O)N1CCC(CNS(=O)(=O)c2cc(NS(=O)(=O)c3ccc(C)cc3)ccc2O)CC1

>  <score_type>  (73) 
oracle

>  <origin>  (73) 
adg

>  <m_score__min__energy>  (73) 
-14.630000000000001

>  <m_primary>  (73) 
energy

$$$$
73:0
     RDKit          3D

 71 75  0  0  0  0  0  0  0  0999 V2000
   58.0250   33.2080   47.0950 C   0  0  0  0  0  0  0  0  0  0  0  0
   59.3620   32.5180   47.0740 C   0  0  0  0  0  0  0  0  0  0  0  0
   60.5110   33.2880   47.3320 C   0  0  0  0  0  0  0  0  0  0  0  0
   61.7810   32.7000   47.3660 C   0  0  0  0  0  0  0  0  0  0  0  0
   63.0050   33.5430   47.6140 C   0  0  0  0  0  0  0  0  0  0  0  0
   64.1600   33.0180   46.8910 N   0  0  0  0  0  0  0  0  0  0  0  0
   61.9090   31.3300   47.1120 C   0  0  0  0  0  0  0  0  0  0  0  0
   60.7830   30.5550   46.8400 C   0  0  0  0  0  0  0  0  0  0  0  0
   59.4980   31.1290   46.8030 C   0  0  0  0  0  0  0  0  0  0  0  0
   58.3410   30.2490   46.4830 C   0  0  0  0  0  0  0  0  0  0  0  0
   57.4900   30.6300   45.6310 O   0  0  0  0  0  0  0  0  0  0  0  0
   58.1430   29.0420   47.1670 O   0  0  0  0  0  0  0  0  0  0  0  0
   59.0440   28.5130   48.1050 C   0  0  0  0  0  0  0  0  0  0  0  0
   59.7350   27.3220   47.8020 C   0  0  0  0  0  0  0  0  0  0  0  0
   59.4970   26.5940   46.5030 C   0  0  0  0  0  0  0  0  0  0  0  0
   58.2050   25.8410   46.5640 C   0  0  0  0  0  0  0  0  0  0  0  0
   58.1830   24.5630   47.0240 N   0  0  0  0  0  0  0  0  0  0  0  0
   57.0080   23.8910   47.1090 C   0  0  0  0  0  0  0  0  0  0  0  0
   56.9900   22.7070   47.5340 O   0  0  0  0  0  0  0  0  0  0  0  0
   55.8510   24.4960   46.7380 N   0  0  0  0  0  0  0  0  0  0  0  0
   55.8700   25.7740   46.2820 C   0  0  0  0  0  0  0  0  0  0  0  0
   54.7990   26.3360   45.9400 O   0  0  0  0  0  0  0  0  0  0  0  0
   57.0470   26.4450   46.1970 N   0  0  0  0  0  0  0  0  0  0  0  0
   60.6360   26.7860   48.7350 C   0  0  0  0  0  0  0  0  0  0  0  0
   60.8630   27.4320   49.9490 C   0  0  0  0  0  0  0  0  0  0  0  0
   60.1760   28.6050   50.2590 C   0  0  0  0  0  0  0  0  0  0  0  0
   59.2430   29.1430   49.3540 C   0  0  0  0  0  0  0  0  0  0  0  0
   58.4770   30.2800   49.6650 O   0  0  0  0  0  0  0  0  0  0  0  0
   57.9390   30.6030   50.9460 C   0  0  0  0  0  0  0  0  0  0  0  0
   58.3920   31.9650   51.4310 C   0  0  0  0  0  0  0  0  0  0  0  0
   57.4850   32.7280   52.1910 C   0  0  0  0  0  0  0  0  0  0  0  0
   57.8450   33.9790   52.6910 C   0  0  0  0  0  0  0  0  0  0  0  0
   59.1170   34.4880   52.4490 C   0  0  0  0  0  0  0  0  0  0  0  0
   60.0400   33.7440   51.7140 C   0  0  0  0  0  0  0  0  0  0  0  0
   59.7050   32.4710   51.2130 C   0  0  0  0  0  0  0  0  0  0  0  0
   60.7460   31.7350   50.3960 C   0  0  0  0  0  0  0  0  0  0  0  0
   61.9390   31.4970   51.1440 O   0  0  0  0  0  0  0  0  0  0  0  0
   63.1770   32.1190   50.9200 C   0  0  0  0  0  0  0  0  0  0  0  0
   63.3290   33.4500   51.3240 C   0  0  0  0  0  0  0  0  0  0  0  0
   64.5390   34.1210   51.1160 C   0  0  0  0  0  0  0  0  0  0  0  0
   65.6080   33.4610   50.5060 C   0  0  0  0  0  0  0  0  0  0  0  0
   65.4690   32.1300   50.1040 C   0  0  0  0  0  0  0  0  0  0  0  0
   64.2610   31.4570   50.3100 C   0  0  0  0  0  0  0  0  0  0  0  0
   57.7121   33.3695   48.1371 H   0  0  0  0  0  0  0  0  0  0  0  0
   58.1047   34.1776   46.5816 H   0  0  0  0  0  0  0  0  0  0  0  0
   57.2809   32.5813   46.5816 H   0  0  0  0  0  0  0  0  0  0  0  0
   60.4098   34.3688   47.5098 H   0  0  0  0  0  0  0  0  0  0  0  0
   62.8073   34.5713   47.2772 H   0  0  0  0  0  0  0  0  0  0  0  0
   63.2292   33.5253   48.6908 H   0  0  0  0  0  0  0  0  0  0  0  0
   65.0310   33.4070   47.3210 H   0  0  0  0  0  0  0  0  0  0  0  0
   64.1860   31.9790   47.0060 H   0  0  0  0  0  0  0  0  0  0  0  0
   62.9043   30.8618   47.1271 H   0  0  0  0  0  0  0  0  0  0  0  0
   60.9002   29.4777   46.6512 H   0  0  0  0  0  0  0  0  0  0  0  0
   59.4548   27.3227   45.6801 H   0  0  0  0  0  0  0  0  0  0  0  0
   60.3196   25.8839   46.3326 H   0  0  0  0  0  0  0  0  0  0  0  0
   61.1666   25.8499   48.5067 H   0  0  0  0  0  0  0  0  0  0  0  0
   61.5866   27.0150   50.6649 H   0  0  0  0  0  0  0  0  0  0  0  0
   60.3646   29.1125   51.2165 H   0  0  0  0  0  0  0  0  0  0  0  0
   56.8410   30.5976   50.8805 H   0  0  0  0  0  0  0  0  0  0  0  0
   58.3014   29.8518   51.6632 H   0  0  0  0  0  0  0  0  0  0  0  0
   56.4789   32.3320   52.3931 H   0  0  0  0  0  0  0  0  0  0  0  0
   57.1219   34.5645   53.2778 H   0  0  0  0  0  0  0  0  0  0  0  0
   59.3952   35.4786   52.8379 H   0  0  0  0  0  0  0  0  0  0  0  0
   61.0417   34.1565   51.5233 H   0  0  0  0  0  0  0  0  0  0  0  0
   60.3287   30.7691   50.0752 H   0  0  0  0  0  0  0  0  0  0  0  0
   61.0057   32.3618   49.5302 H   0  0  0  0  0  0  0  0  0  0  0  0
   62.4911   33.9726   51.8086 H   0  0  0  0  0  0  0  0  0  0  0  0
   64.6483   35.1686   51.4330 H   0  0  0  0  0  0  0  0  0  0  0  0
   66.5591   33.9888   50.3421 H   0  0  0  0  0  0  0  0  0  0  0  0
   66.3118   31.6106   49.6245 H   0  0  0  0  0  0  0  0  0  0  0  0
   64.1566   30.4082   49.9951 H   0  0  0  0  0  0  0  0  0  0  0  0
  1  2  1  0
  2  3  2  0
  3  4  1  0
  4  5  1  0
  5  6  1  0
  4  7  2  0
  7  8  1  0
  8  9  2  0
  9 10  1  0
 10 11  2  0
 10 12  1  0
 12 13  1  0
 13 14  1  0
 14 15  1  0
 15 16  1  0
 16 17  2  0
 17 18  1  0
 18 19  2  0
 18 20  1  0
 20 21  1  0
 21 22  2  0
 21 23  1  0
 14 24  2  0
 24 25  1  0
 25 26  2  0
 26 27  1  0
 27 28  1  0
 28 29  1  0
 29 30  1  0
 30 31  2  0
 31 32  1  0
 32 33  2  0
 33 34  1  0
 34 35  2  0
 35 36  1  0
 36 37  1  0
 37 38  1  0
 38 39  2  0
 39 40  1  0
 40 41  2  0
 41 42  1  0
 42 43  2  0
  9  2  1  0
 27 13  2  0
 35 30  1  0
 43 38  1  0
 23 16  1  0
  1 44  1  0
  1 45  1  0
  1 46  1  0
  3 47  1  0
  5 48  1  0
  5 49  1  0
  6 50  1  0
  6 51  1  0
  7 52  1  0
  8 53  1  0
 15 54  1  0
 15 55  1  0
 24 56  1  0
 25 57  1  0
 26 58  1  0
 29 59  1  0
 29 60  1  0
 31 61  1  0
 32 62  1  0
 33 63  1  0
 34 64  1  0
 36 65  1  0
 36 66  1  0
 39 67  1  0
 40 68  1  0
 41 69  1  0
 42 70  1  0
 43 71  1  0
M  CHG  2  20  -1  23  -1
M  END
>  <UniqueID>  (74) 
67

>  <SMILES>  (74) 
Cc1cc(CN)ccc1C(=O)Oc1c(Cc2nc(=O)[n-]c(=O)[n-]2)cccc1OCc1ccccc1COc1ccccc1

>  <Energy>  (74) 
84.51890090281354

>  <Genealogy>  (74) 
Cc1cc(CN)ccc1C(=O)Oc1c(Cc2nc(=O)[n-]c(=O)[n-]2)cccc1OCc1ccccc1COc1ccccc1 (protonated)
Cc1cc(CN)ccc1C(=O)Oc1c(Cc2nc(=O)[n-]c(=O)[n-]2)cccc1OCc1ccccc1COc1ccccc1 (3D coordinates assigned)
Cc1cc(CN)ccc1C(=O)Oc1c(Cc2nc(=O)[n-]c(=O)[n-]2)cccc1OCc1ccccc1COc1ccccc1 (optimized conformer: 84.51890090281354 kcal/mol)

>  <smiles>  (74) 
Cc1cc(CN)ccc1C(=O)Oc1c(Cc2nc(=O)[nH]c(=O)[nH]2)cccc1OCc1ccccc1COc1ccccc1

>  <score_type>  (74) 
oracle

>  <origin>  (74) 
adg

>  <m_score__min__energy>  (74) 
-13.9

>  <m_primary>  (74) 
energy

$$$$
74:0
     RDKit          3D

 48 51  0  0  0  0  0  0  0  0999 V2000
   65.7260   33.0530   50.3710 C   0  0  0  0  0  0  0  0  0  0  0  0
   64.5580   32.4950   49.6270 C   0  0  0  0  0  0  0  0  0  0  0  0
   63.4680   31.8550   50.1820 C   0  0  0  0  0  0  0  0  0  0  0  0
   62.6430   31.6200   49.0960 C   0  0  0  0  0  0  0  0  0  0  0  0
   61.2950   30.9740   49.1310 C   0  0  0  0  0  0  0  0  0  0  0  0
   60.5740   31.2390   47.8680 N   0  0  0  0  0  0  0  0  0  0  0  0
   60.1690   32.5110   47.5720 C   0  0  0  0  0  0  0  0  0  0  0  0
   60.4640   33.4470   48.3660 O   0  0  0  0  0  0  0  0  0  0  0  0
   59.3960   32.7710   46.4150 C   0  0  0  0  0  0  0  0  0  0  0  0
   58.9130   34.0760   46.0730 C   0  0  0  0  0  0  0  0  0  0  0  0
   59.2690   35.3280   46.8410 C   0  0  0  0  0  0  0  0  0  0  0  0
   58.0530   34.2250   44.9770 C   0  0  0  0  0  0  0  0  0  0  0  0
   57.6580   33.1280   44.2300 C   0  0  0  0  0  0  0  0  0  0  0  0
   58.1470   31.8630   44.5270 C   0  0  0  0  0  0  0  0  0  0  0  0
   59.0730   31.6620   45.5800 C   0  0  0  0  0  0  0  0  0  0  0  0
   59.6320   30.4230   45.8310 N   0  0  0  0  0  0  0  0  0  0  0  0
   59.5810   29.3030   44.8500 C   0  0  0  0  0  0  0  0  0  0  0  0
   58.8740   28.0870   45.4230 C   0  0  0  0  0  0  0  0  0  0  0  0
   59.6350   26.9890   45.8610 C   0  0  0  0  0  0  0  0  0  0  0  0
   59.0120   25.8570   46.3890 C   0  0  0  0  0  0  0  0  0  0  0  0
   57.6210   25.8090   46.4960 C   0  0  0  0  0  0  0  0  0  0  0  0
   56.8500   26.8950   46.0770 C   0  0  0  0  0  0  0  0  0  0  0  0
   57.4640   28.0380   45.5450 C   0  0  0  0  0  0  0  0  0  0  0  0
   56.6300   29.1440   45.1410 C   0  0  0  0  0  0  0  0  0  0  0  0
   55.9600   30.0310   44.8190 N   0  0  0  0  0  0  0  0  0  0  0  0
   60.2760   30.2030   47.0240 C   0  0  0  0  0  0  0  0  0  0  0  0
   60.6030   29.0260   47.3490 O   0  0  0  0  0  0  0  0  0  0  0  0
   63.2090   32.1030   48.0140 O   0  0  0  0  0  0  0  0  0  0  0  0
   64.3570   32.6360   48.3040 N   0  0  0  0  0  0  0  0  0  0  0  0
   65.5465   32.9673   51.4529 H   0  0  0  0  0  0  0  0  0  0  0  0
   66.6332   32.4910   50.1041 H   0  0  0  0  0  0  0  0  0  0  0  0
   65.8588   34.1118   50.1041 H   0  0  0  0  0  0  0  0  0  0  0  0
   63.2961   31.5939   51.2366 H   0  0  0  0  0  0  0  0  0  0  0  0
   61.4147   29.8883   49.2611 H   0  0  0  0  0  0  0  0  0  0  0  0
   60.7175   31.3891   49.9702 H   0  0  0  0  0  0  0  0  0  0  0  0
   59.2112   35.1248   47.9205 H   0  0  0  0  0  0  0  0  0  0  0  0
   60.2913   35.6396   46.5807 H   0  0  0  0  0  0  0  0  0  0  0  0
   58.5635   36.1309   46.5807 H   0  0  0  0  0  0  0  0  0  0  0  0
   57.6869   35.2264   44.7064 H   0  0  0  0  0  0  0  0  0  0  0  0
   56.9526   33.2596   43.3963 H   0  0  0  0  0  0  0  0  0  0  0  0
   57.8091   31.0007   43.9335 H   0  0  0  0  0  0  0  0  0  0  0  0
   59.0412   29.6393   43.9525 H   0  0  0  0  0  0  0  0  0  0  0  0
   60.6137   29.0152   44.6037 H   0  0  0  0  0  0  0  0  0  0  0  0
   60.7320   27.0223   45.7869 H   0  0  0  0  0  0  0  0  0  0  0  0
   59.6181   25.0013   46.7213 H   0  0  0  0  0  0  0  0  0  0  0  0
   57.1321   24.9151   46.9106 H   0  0  0  0  0  0  0  0  0  0  0  0
   55.7543   26.8538   46.1647 H   0  0  0  0  0  0  0  0  0  0  0  0
   64.9920   33.1010   47.6180 H   0  0  0  0  0  0  0  0  0  0  0  0
  1  2  1  0
  2  3  1  0
  3  4  2  0
  4  5  1  0
  5  6  1  0
  6  7  1  0
  7  8  2  0
  7  9  1  0
  9 10  2  0
 10 11  1  0
 10 12  1  0
 12 13  2  0
 13 14  1  0
 14 15  2  0
 15 16  1  0
 16 17  1  0
 17 18  1  0
 18 19  2  0
 19 20  1  0
 20 21  2  0
 21 22  1  0
 22 23  2  0
 23 24  1  0
 24 25  3  0
 16 26  1  0
 26 27  2  0
  4 28  1  0
 28 29  1  0
 29  2  2  0
 26  6  1  0
 15  9  1  0
 23 18  1  0
  1 30  1  0
  1 31  1  0
  1 32  1  0
  3 33  1  0
  5 34  1  0
  5 35  1  0
 11 36  1  0
 11 37  1  0
 11 38  1  0
 12 39  1  0
 13 40  1  0
 14 41  1  0
 17 42  1  0
 17 43  1  0
 19 44  1  0
 20 45  1  0
 21 46  1  0
 22 47  1  0
 29 48  1  0
M  CHG  1  29   1
M  END
>  <UniqueID>  (75) 
68

>  <SMILES>  (75) 
Cc1cc(Cn2c(=O)c3c(C)cccc3n(Cc3ccccc3C#N)c2=O)o[nH+]1

>  <Energy>  (75) 
106.23234761256086

>  <Genealogy>  (75) 
Cc1cc(Cn2c(=O)c3c(C)cccc3n(Cc3ccccc3C#N)c2=O)o[nH+]1 (protonated)
Cc1cc(Cn2c(=O)c3c(C)cccc3n(Cc3ccccc3C#N)c2=O)o[nH+]1 (3D coordinates assigned)
Cc1cc(Cn2c(=O)c3c(C)cccc3n(Cc3ccccc3C#N)c2=O)o[nH+]1 (optimized conformer: 106.23234761256086 kcal/mol)

>  <smiles>  (75) 
Cc1cc(Cn2c(=O)c3c(C)cccc3n(Cc3ccccc3C#N)c2=O)on1

>  <score_type>  (75) 
oracle

>  <origin>  (75) 
adg

>  <m_score__min__energy>  (75) 
-7.8600000000000003

>  <m_primary>  (75) 
energy

$$$$
75:0
     RDKit          3D

 55 58  0  0  0  0  0  0  0  0999 V2000
   54.7670   27.4880   46.3680 H   0  0  0  0  0  0  0  0  0  0  0  0
   55.0900   26.6010   46.0010 O   0  0  0  0  0  0  0  0  0  0  0  0
   56.4430   26.2640   45.9710 C   0  0  0  0  0  0  0  0  0  0  0  0
   56.8070   24.9110   45.9570 C   0  0  0  0  0  0  0  0  0  0  0  0
   56.0312   24.1345   46.0293 H   0  0  0  0  0  0  0  0  0  0  0  0
   58.1460   24.5450   45.8520 C   0  0  0  0  0  0  0  0  0  0  0  0
   58.4333   23.4832   45.8449 H   0  0  0  0  0  0  0  0  0  0  0  0
   59.1180   25.5380   45.7560 C   0  0  0  0  0  0  0  0  0  0  0  0
   60.1779   25.2617   45.6550 H   0  0  0  0  0  0  0  0  0  0  0  0
   58.7580   26.8470   45.7870 N   0  0  0  0  0  0  0  0  0  0  0  0
   57.4630   27.2510   45.9110 C   0  0  0  0  0  0  0  0  0  0  0  0
   57.2320   28.5350   45.9300 N   0  0  0  0  0  0  0  0  0  0  0  0
   56.4270   29.3090   45.0310 C   0  0  0  0  0  0  0  0  0  0  0  0
   55.2140   29.0070   44.8640 O   0  0  0  0  0  0  0  0  0  0  0  0
   56.9900   30.5070   44.3650 C   0  0  0  0  0  0  0  0  0  0  0  0
   57.1210   30.5530   42.9670 C   0  0  0  0  0  0  0  0  0  0  0  0
   56.8183   29.6860   42.3615 H   0  0  0  0  0  0  0  0  0  0  0  0
   57.6330   31.6920   42.3400 C   0  0  0  0  0  0  0  0  0  0  0  0
   57.7338   31.7165   41.2449 H   0  0  0  0  0  0  0  0  0  0  0  0
   58.0170   32.7990   43.0990 C   0  0  0  0  0  0  0  0  0  0  0  0
   58.4236   33.6913   42.6004 H   0  0  0  0  0  0  0  0  0  0  0  0
   57.8860   32.7770   44.4950 C   0  0  0  0  0  0  0  0  0  0  0  0
   58.2830   33.9720   45.3210 C   0  0  0  0  0  0  0  0  0  0  0  0
   58.8961   34.6484   44.7074 H   0  0  0  0  0  0  0  0  0  0  0  0
   57.3725   34.4876   45.6604 H   0  0  0  0  0  0  0  0  0  0  0  0
   59.0600   33.5500   46.5020 N   0  0  0  0  0  0  0  0  0  0  0  0
   58.1820   33.2180   47.6370 C   0  0  0  0  0  0  0  0  0  0  0  0
   57.7027   34.1366   48.0063 H   0  0  0  0  0  0  0  0  0  0  0  0
   57.4161   32.5034   47.3011 H   0  0  0  0  0  0  0  0  0  0  0  0
   59.0020   32.5780   48.7760 C   0  0  0  0  0  0  0  0  0  0  0  0
   58.5837   32.9112   49.7372 H   0  0  0  0  0  0  0  0  0  0  0  0
   58.9365   31.4870   48.6514 H   0  0  0  0  0  0  0  0  0  0  0  0
   60.4400   32.9390   48.7380 N   0  0  0  0  0  0  0  0  0  0  0  0
   61.2590   31.9650   47.9810 C   0  0  0  0  0  0  0  0  0  0  0  0
   61.0577   32.0819   46.9059 H   0  0  0  0  0  0  0  0  0  0  0  0
   62.3216   32.1554   48.1923 H   0  0  0  0  0  0  0  0  0  0  0  0
   60.9260   30.5540   48.3970 C   0  0  0  0  0  0  0  0  0  0  0  0
   60.3050   29.6820   47.4830 C   0  0  0  0  0  0  0  0  0  0  0  0
   60.0150   30.0960   46.2240 F   0  0  0  0  0  0  0  0  0  0  0  0
   59.9810   28.3760   47.8630 C   0  0  0  0  0  0  0  0  0  0  0  0
   59.5006   27.6981   47.1422 H   0  0  0  0  0  0  0  0  0  0  0  0
   60.2660   27.9300   49.1560 C   0  0  0  0  0  0  0  0  0  0  0  0
   60.0138   26.9007   49.4509 H   0  0  0  0  0  0  0  0  0  0  0  0
   60.8710   28.7910   50.0740 C   0  0  0  0  0  0  0  0  0  0  0  0
   61.0872   28.4402   51.0939 H   0  0  0  0  0  0  0  0  0  0  0  0
   61.2030   30.0970   49.7020 C   0  0  0  0  0  0  0  0  0  0  0  0
   61.7850   30.9170   50.6160 F   0  0  0  0  0  0  0  0  0  0  0  0
   60.6340   34.3340   48.2880 C   0  0  0  0  0  0  0  0  0  0  0  0
   60.1552   35.0082   49.0134 H   0  0  0  0  0  0  0  0  0  0  0  0
   61.7169   34.5151   48.2200 H   0  0  0  0  0  0  0  0  0  0  0  0
   60.0260   34.5970   46.8910 C   0  0  0  0  0  0  0  0  0  0  0  0
   59.5102   35.5685   46.9054 H   0  0  0  0  0  0  0  0  0  0  0  0
   60.8457   34.5925   46.1574 H   0  0  0  0  0  0  0  0  0  0  0  0
   57.3830   31.6270   45.1230 C   0  0  0  0  0  0  0  0  0  0  0  0
   57.2948   31.6002   46.2191 H   0  0  0  0  0  0  0  0  0  0  0  0
  1  2  1  0
  2  3  1  0
  3  4  2  0
  4  5  1  0
  4  6  1  0
  6  7  1  0
  6  8  2  0
  8  9  1  0
  8 10  1  0
 10 11  1  0
 11 12  2  0
 12 13  1  0
 13 14  2  0
 13 15  1  0
 15 16  2  0
 16 17  1  0
 16 18  1  0
 18 19  1  0
 18 20  2  0
 20 21  1  0
 20 22  1  0
 22 23  1  0
 23 24  1  0
 23 25  1  0
 23 26  1  0
 26 27  1  0
 27 28  1  0
 27 29  1  0
 27 30  1  0
 30 31  1  0
 30 32  1  0
 30 33  1  0
 33 34  1  0
 34 35  1  0
 34 36  1  0
 34 37  1  0
 37 38  2  0
 38 39  1  0
 38 40  1  0
 40 41  1  0
 40 42  2  0
 42 43  1  0
 42 44  1  0
 44 45  1  0
 44 46  2  0
 46 47  1  0
 33 48  1  0
 48 49  1  0
 48 50  1  0
 48 51  1  0
 51 52  1  0
 51 53  1  0
 22 54  2  0
 54 55  1  0
 11  3  1  0
 54 15  1  0
 51 26  1  0
 46 37  1  0
M  CHG  1  10  -1
M  END
>  <UniqueID>  (76) 
69

>  <SMILES>  (76) 
O=C(/N=c1/[n-]cccc1O)c1cccc(CN2CCN(Cc3c(F)cccc3F)CC2)c1

>  <Energy>  (76) 
83.69332477630462

>  <Genealogy>  (76) 
O=C(N=c1[n-]cccc1O)c1cccc(CN2CCN(Cc3c(F)cccc3F)CC2)c1 (protonated)
O=C(/N=c1/[n-]cccc1O)c1cccc(CN2CCN(Cc3c(F)cccc3F)CC2)c1 (cis-trans isomerization)
O=C(/N=c1/[n-]cccc1O)c1cccc(CN2CCN(Cc3c(F)cccc3F)CC2)c1 (3D coordinates assigned)
O=C(/N=c1/[n-]cccc1O)c1cccc(CN2CCN(Cc3c(F)cccc3F)CC2)c1 (nonaromatic ring conformer: 83.69332477630462 kcal/mol)

>  <smiles>  (76) 
O=C(N=c1[nH]cccc1O)c1cccc(CN2CCN(Cc3c(F)cccc3F)CC2)c1

>  <score_type>  (76) 
oracle

>  <origin>  (76) 
adg

>  <m_score__min__energy>  (76) 
-12.720000000000001

>  <m_primary>  (76) 
energy

$$$$
76:0
     RDKit          3D

 48 49  0  0  0  0  0  0  0  0999 V2000
   55.1350   29.3330   44.4610 N   0  0  0  0  0  0  0  0  0  0  0  0
   56.7040   29.8660   43.9700 S   0  0  0  0  0  0  0  0  0  0  0  0
   57.5550   28.6730   43.6320 O   0  0  0  0  0  0  0  0  0  0  0  0
   56.5790   30.7310   42.7480 O   0  0  0  0  0  0  0  0  0  0  0  0
   57.4490   30.7840   45.2750 C   0  0  0  0  0  0  0  0  0  0  0  0
   58.0950   30.1220   46.3260 C   0  0  0  0  0  0  0  0  0  0  0  0
   58.6690   30.8510   47.3720 C   0  0  0  0  0  0  0  0  0  0  0  0
   58.6040   32.2570   47.3810 C   0  0  0  0  0  0  0  0  0  0  0  0
   59.1980   33.0480   48.4860 C   0  0  0  0  0  0  0  0  0  0  0  0
   59.9300   34.0360   48.2070 O   0  0  0  0  0  0  0  0  0  0  0  0
   58.9700   32.6950   49.8620 N   0  0  0  0  0  0  0  0  0  0  0  0
   59.4300   33.5210   50.9790 C   0  0  0  0  0  0  0  0  0  0  0  0
   59.3890   32.7370   52.3000 C   0  0  0  0  0  0  0  0  0  0  0  0
   59.1890   31.2250   52.1170 C   0  0  0  0  0  0  0  0  0  0  0  0
   57.7510   30.8680   51.8970 C   0  0  0  0  0  0  0  0  0  0  0  0
   57.4030   30.2830   50.8340 O   0  0  0  0  0  0  0  0  0  0  0  0
   56.7780   31.2140   52.8840 N   0  0  0  0  0  0  0  0  0  0  0  0
   56.0980   30.2250   53.7070 C   0  0  0  0  0  0  0  0  0  0  0  0
   55.1170   29.4320   52.8460 C   0  0  0  0  0  0  0  0  0  0  0  0
   53.9110   30.2670   52.5110 C   0  0  0  0  0  0  0  0  0  0  0  0
   52.9370   30.5320   53.4880 C   0  0  0  0  0  0  0  0  0  0  0  0
   51.8360   31.3400   53.1860 C   0  0  0  0  0  0  0  0  0  0  0  0
   51.7090   31.9010   51.9120 C   0  0  0  0  0  0  0  0  0  0  0  0
   50.6180   32.7120   51.6150 O   0  0  0  0  0  0  0  0  0  0  0  0
   52.6810   31.6520   50.9380 C   0  0  0  0  0  0  0  0  0  0  0  0
   53.7800   30.8400   51.2350 C   0  0  0  0  0  0  0  0  0  0  0  0
   57.9340   32.9120   46.3320 C   0  0  0  0  0  0  0  0  0  0  0  0
   57.3630   32.1810   45.2870 C   0  0  0  0  0  0  0  0  0  0  0  0
   55.2050   29.0650   45.4700 H   0  0  0  0  0  0  0  0  0  0  0  0
   58.1512   29.0234   46.3289 H   0  0  0  0  0  0  0  0  0  0  0  0
   59.1747   30.3222   48.1933 H   0  0  0  0  0  0  0  0  0  0  0  0
   58.4340   31.8300   50.0930 H   0  0  0  0  0  0  0  0  0  0  0  0
   60.4633   33.8444   50.7850 H   0  0  0  0  0  0  0  0  0  0  0  0
   58.7630   34.3911   51.0681 H   0  0  0  0  0  0  0  0  0  0  0  0
   60.3393   32.8996   52.8296 H   0  0  0  0  0  0  0  0  0  0  0  0
   58.5226   33.1087   52.8667 H   0  0  0  0  0  0  0  0  0  0  0  0
   59.7738   30.8929   51.2465 H   0  0  0  0  0  0  0  0  0  0  0  0
   59.5243   30.7257   53.0380 H   0  0  0  0  0  0  0  0  0  0  0  0
   56.8393   29.5396   54.1437 H   0  0  0  0  0  0  0  0  0  0  0  0
   55.5491   30.7343   54.5128 H   0  0  0  0  0  0  0  0  0  0  0  0
   55.6170   29.1290   51.9142 H   0  0  0  0  0  0  0  0  0  0  0  0
   54.7890   28.5450   53.4079 H   0  0  0  0  0  0  0  0  0  0  0  0
   53.0407   30.1021   54.4952 H   0  0  0  0  0  0  0  0  0  0  0  0
   51.0699   31.5340   53.9512 H   0  0  0  0  0  0  0  0  0  0  0  0
   52.5809   32.0957   49.9364 H   0  0  0  0  0  0  0  0  0  0  0  0
   54.5443   30.6493   50.4672 H   0  0  0  0  0  0  0  0  0  0  0  0
   57.8589   34.0094   46.3343 H   0  0  0  0  0  0  0  0  0  0  0  0
   56.8441   32.7052   44.4709 H   0  0  0  0  0  0  0  0  0  0  0  0
  1  2  1  0
  2  3  2  0
  2  4  2  0
  2  5  1  0
  5  6  2  0
  6  7  1  0
  7  8  2  0
  8  9  1  0
  9 10  2  0
  9 11  1  0
 11 12  1  0
 12 13  1  0
 13 14  1  0
 14 15  1  0
 15 16  2  0
 15 17  1  0
 17 18  1  0
 18 19  1  0
 19 20  1  0
 20 21  2  0
 21 22  1  0
 22 23  2  0
 23 24  1  0
 23 25  1  0
 25 26  2  0
  8 27  1  0
 27 28  2  0
 28  5  1  0
 26 20  1  0
  1 29  1  0
  6 30  1  0
  7 31  1  0
 11 32  1  0
 12 33  1  0
 12 34  1  0
 13 35  1  0
 13 36  1  0
 14 37  1  0
 14 38  1  0
 18 39  1  0
 18 40  1  0
 19 41  1  0
 19 42  1  0
 21 43  1  0
 22 44  1  0
 25 45  1  0
 26 46  1  0
 27 47  1  0
 28 48  1  0
M  CHG  3   1  -1  17  -1  24  -1
M  END
>  <UniqueID>  (77) 
70

>  <SMILES>  (77) 
[NH-]S(=O)(=O)c1ccc(C(=O)NCCCC(=O)[N-]CCc2ccc([O-])cc2)cc1

>  <Energy>  (77) 
38.38241118685745

>  <Genealogy>  (77) 
[NH-]S(=O)(=O)c1ccc(C(=O)NCCCC(=O)[N-]CCc2ccc([O-])cc2)cc1 (protonated)
[NH-]S(=O)(=O)c1ccc(C(=O)NCCCC(=O)[N-]CCc2ccc([O-])cc2)cc1 (3D coordinates assigned)
[NH-]S(=O)(=O)c1ccc(C(=O)NCCCC(=O)[N-]CCc2ccc([O-])cc2)cc1 (optimized conformer: 38.38241118685745 kcal/mol)

>  <smiles>  (77) 
NS(=O)(=O)c1ccc(C(=O)NCCCC(=O)NCCc2ccc(O)cc2)cc1

>  <score_type>  (77) 
oracle

>  <origin>  (77) 
adg

>  <m_score__min__energy>  (77) 
-16.190000000000001

>  <m_primary>  (77) 
energy

$$$$
77:0
     RDKit          3D

 34 35  0  0  0  0  0  0  0  0999 V2000
   56.5390   21.8230   44.3590 C   0  0  0  0  0  0  0  0  0  0  0  0
   57.0200   22.2640   45.7480 C   0  0  0  0  0  0  0  0  0  0  0  0
   56.1670   21.6450   46.8630 C   0  0  0  0  0  0  0  0  0  0  0  0
   57.0920   23.7870   45.8680 C   0  0  0  0  0  0  0  0  0  0  0  0
   58.3280   24.4690   45.9320 C   0  0  0  0  0  0  0  0  0  0  0  0
   59.5340   23.7760   45.8740 O   0  0  0  0  0  0  0  0  0  0  0  0
   58.3560   25.8230   46.0530 N   0  0  0  0  0  0  0  0  0  0  0  0
   57.2300   26.5780   46.1210 C   0  0  0  0  0  0  0  0  0  0  0  0
   57.3690   28.0420   46.2670 C   0  0  0  0  0  0  0  0  0  0  0  0
   58.2940   28.4970   46.9920 O   0  0  0  0  0  0  0  0  0  0  0  0
   56.5010   28.9670   45.5980 N   0  0  0  0  0  0  0  0  0  0  0  0
   56.8790   29.8840   44.5600 C   0  0  0  0  0  0  0  0  0  0  0  0
   57.8500   30.8810   44.7680 C   0  0  0  0  0  0  0  0  0  0  0  0
   58.2000   31.7490   43.7290 C   0  0  0  0  0  0  0  0  0  0  0  0
   57.5970   31.6210   42.4740 C   0  0  0  0  0  0  0  0  0  0  0  0
   58.0380   32.7110   41.1720 Cl  0  0  0  0  0  0  0  0  0  0  0  0
   56.6490   30.6160   42.2550 C   0  0  0  0  0  0  0  0  0  0  0  0
   56.2980   29.7460   43.2930 C   0  0  0  0  0  0  0  0  0  0  0  0
   55.9780   25.9520   46.0260 C   0  0  0  0  0  0  0  0  0  0  0  0
   54.8040   26.7020   46.0180 O   0  0  0  0  0  0  0  0  0  0  0  0
   55.9090   24.5590   45.9120 C   0  0  0  0  0  0  0  0  0  0  0  0
   54.7770   24.0080   45.8410 O   0  0  0  0  0  0  0  0  0  0  0  0
   55.7322   21.0833   44.4681 H   0  0  0  0  0  0  0  0  0  0  0  0
   56.1631   22.6968   43.8066 H   0  0  0  0  0  0  0  0  0  0  0  0
   57.3770   21.3728   43.8066 H   0  0  0  0  0  0  0  0  0  0  0  0
   58.0447   21.8839   45.8725 H   0  0  0  0  0  0  0  0  0  0  0  0
   56.5731   21.9397   47.8419 H   0  0  0  0  0  0  0  0  0  0  0  0
   55.1306   22.0027   46.7733 H   0  0  0  0  0  0  0  0  0  0  0  0
   56.1857   20.5488   46.7733 H   0  0  0  0  0  0  0  0  0  0  0  0
   60.2850   24.0860   45.2700 H   0  0  0  0  0  0  0  0  0  0  0  0
   58.3350   30.9778   45.7505 H   0  0  0  0  0  0  0  0  0  0  0  0
   58.9513   32.5342   43.8994 H   0  0  0  0  0  0  0  0  0  0  0  0
   56.1792   30.5096   41.2661 H   0  0  0  0  0  0  0  0  0  0  0  0
   55.5615   28.9490   43.1130 H   0  0  0  0  0  0  0  0  0  0  0  0
  1  2  1  0
  2  3  1  0
  2  4  1  0
  4  5  2  0
  5  6  1  0
  5  7  1  0
  7  8  1  0
  8  9  1  0
  9 10  2  0
  9 11  1  0
 11 12  1  0
 12 13  2  0
 13 14  1  0
 14 15  2  0
 15 16  1  0
 15 17  1  0
 17 18  2  0
  8 19  2  0
 19 20  1  0
 19 21  1  0
 21 22  2  0
 21  4  1  0
 18 12  1  0
  1 23  1  0
  1 24  1  0
  1 25  1  0
  2 26  1  0
  3 27  1  0
  3 28  1  0
  3 29  1  0
  6 30  1  0
 13 31  1  0
 14 32  1  0
 17 33  1  0
 18 34  1  0
M  CHG  3   7  -1  11  -1  20  -1
M  END
>  <UniqueID>  (78) 
71

>  <SMILES>  (78) 
CC(C)c1c(O)[n-]c(C(=O)[N-]c2ccc(Cl)cc2)c([O-])c1=O

>  <Energy>  (78) 
42.82292338966437

>  <Genealogy>  (78) 
CC(C)c1c(O)[n-]c(C(=O)[N-]c2ccc(Cl)cc2)c([O-])c1=O (protonated)
CC(C)c1c(O)[n-]c(C(=O)[N-]c2ccc(Cl)cc2)c([O-])c1=O (3D coordinates assigned)
CC(C)c1c(O)[n-]c(C(=O)[N-]c2ccc(Cl)cc2)c([O-])c1=O (optimized conformer: 42.82292338966437 kcal/mol)

>  <smiles>  (78) 
CC(C)c1c(O)[nH]c(C(=O)Nc2ccc(Cl)cc2)c(O)c1=O

>  <score_type>  (78) 
oracle

>  <origin>  (78) 
adg

>  <m_score__min__energy>  (78) 
-13.19

>  <m_primary>  (78) 
energy

$$$$
78:0
     RDKit          3D

 71 74  0  0  0  0  0  0  0  0999 V2000
   56.3660   23.3490   45.8500 C   0  0  0  0  0  0  0  0  0  0  0  0
   57.2850   23.8560   44.7190 C   0  0  0  0  0  0  0  0  0  0  0  0
   58.6720   23.1950   44.9030 C   0  0  0  0  0  0  0  0  0  0  0  0
   56.7270   23.3860   43.3570 C   0  0  0  0  0  0  0  0  0  0  0  0
   57.3380   25.3970   44.7610 C   0  0  0  0  0  0  0  0  0  0  0  0
   57.7730   26.1750   43.6630 C   0  0  0  0  0  0  0  0  0  0  0  0
   57.8180   27.5700   43.7400 C   0  0  0  0  0  0  0  0  0  0  0  0
   57.4370   28.2340   44.9140 C   0  0  0  0  0  0  0  0  0  0  0  0
   57.4690   29.7130   45.0100 C   0  0  0  0  0  0  0  0  0  0  0  0
   56.4090   30.3600   44.7890 O   0  0  0  0  0  0  0  0  0  0  0  0
   58.6820   30.4100   45.3460 N   0  0  0  0  0  0  0  0  0  0  0  0
   58.7440   31.8200   45.6190 C   0  0  0  0  0  0  0  0  0  0  0  0
   58.3910   32.7310   44.6130 C   0  0  0  0  0  0  0  0  0  0  0  0
   58.4800   34.1050   44.8410 C   0  0  0  0  0  0  0  0  0  0  0  0
   58.9200   34.5850   46.0770 C   0  0  0  0  0  0  0  0  0  0  0  0
   59.2760   33.6920   47.1000 C   0  0  0  0  0  0  0  0  0  0  0  0
   59.7580   34.2050   48.4440 C   0  0  0  0  0  0  0  0  0  0  0  0
   61.2340   34.2390   48.5750 N   0  0  0  0  0  0  0  0  0  0  0  0
   61.9500   33.5830   47.4560 C   0  0  0  0  0  0  0  0  0  0  0  0
   63.4160   33.3210   47.8110 C   0  0  0  0  0  0  0  0  0  0  0  0
   63.5030   32.3130   48.9860 C   0  0  0  0  0  0  0  0  0  0  0  0
   64.8600   32.3410   49.6690 C   0  0  0  0  0  0  0  0  0  0  0  0
   65.6250   33.3280   49.4720 O   0  0  0  0  0  0  0  0  0  0  0  0
   65.2870   31.2840   50.5660 N   0  0  0  0  0  0  0  0  0  0  0  0
   66.6520   31.3320   51.1110 C   0  0  0  0  0  0  0  0  0  0  0  0
   67.1160   29.9310   51.5200 C   0  0  0  0  0  0  0  0  0  0  0  0
   66.1650   29.3130   52.3630 O   0  0  0  0  0  0  0  0  0  0  0  0
   64.9740   29.0880   51.6400 C   0  0  0  0  0  0  0  0  0  0  0  0
   64.3170   30.4150   51.2520 C   0  0  0  0  0  0  0  0  0  0  0  0
   62.3550   32.5130   50.0130 C   0  0  0  0  0  0  0  0  0  0  0  0
   61.7420   33.9190   49.9330 C   0  0  0  0  0  0  0  0  0  0  0  0
   59.2160   32.3080   46.8500 C   0  0  0  0  0  0  0  0  0  0  0  0
   57.0050   27.4740   46.0100 C   0  0  0  0  0  0  0  0  0  0  0  0
   56.9710   26.0790   45.9410 C   0  0  0  0  0  0  0  0  0  0  0  0
   56.8132   23.5957   46.8242 H   0  0  0  0  0  0  0  0  0  0  0  0
   55.3810   23.8313   45.7660 H   0  0  0  0  0  0  0  0  0  0  0  0
   56.2487   22.2585   45.7660 H   0  0  0  0  0  0  0  0  0  0  0  0
   58.8893   23.0914   45.9763 H   0  0  0  0  0  0  0  0  0  0  0  0
   58.6699   22.2011   44.4317 H   0  0  0  0  0  0  0  0  0  0  0  0
   59.4427   23.8226   44.4317 H   0  0  0  0  0  0  0  0  0  0  0  0
   55.8954   22.6855   43.5235 H   0  0  0  0  0  0  0  0  0  0  0  0
   56.3656   24.2559   42.7889 H   0  0  0  0  0  0  0  0  0  0  0  0
   57.5228   22.8820   42.7889 H   0  0  0  0  0  0  0  0  0  0  0  0
   58.0809   25.6742   42.7333 H   0  0  0  0  0  0  0  0  0  0  0  0
   58.1559   28.1526   42.8703 H   0  0  0  0  0  0  0  0  0  0  0  0
   59.5870   29.8880   45.3400 H   0  0  0  0  0  0  0  0  0  0  0  0
   58.0417   32.3603   43.6380 H   0  0  0  0  0  0  0  0  0  0  0  0
   58.2029   34.8120   44.0452 H   0  0  0  0  0  0  0  0  0  0  0  0
   58.9879   35.6692   46.2497 H   0  0  0  0  0  0  0  0  0  0  0  0
   59.3734   35.2260   48.5841 H   0  0  0  0  0  0  0  0  0  0  0  0
   59.3838   33.5068   49.2072 H   0  0  0  0  0  0  0  0  0  0  0  0
   61.4595   32.6249   47.2294 H   0  0  0  0  0  0  0  0  0  0  0  0
   61.9183   34.2524   46.5837 H   0  0  0  0  0  0  0  0  0  0  0  0
   63.9347   32.9051   46.9346 H   0  0  0  0  0  0  0  0  0  0  0  0
   63.8907   34.2672   48.1100 H   0  0  0  0  0  0  0  0  0  0  0  0
   63.3803   31.3134   48.5435 H   0  0  0  0  0  0  0  0  0  0  0  0
   67.3338   31.7298   50.3449 H   0  0  0  0  0  0  0  0  0  0  0  0
   66.6580   31.9819   51.9985 H   0  0  0  0  0  0  0  0  0  0  0  0
   67.2498   29.3175   50.6168 H   0  0  0  0  0  0  0  0  0  0  0  0
   68.0663   30.0202   52.0668 H   0  0  0  0  0  0  0  0  0  0  0  0
   65.2076   28.5204   50.7272 H   0  0  0  0  0  0  0  0  0  0  0  0
   64.2771   28.5209   52.2746 H   0  0  0  0  0  0  0  0  0  0  0  0
   63.4686   30.2172   50.5804 H   0  0  0  0  0  0  0  0  0  0  0  0
   63.9660   30.9205   52.1637 H   0  0  0  0  0  0  0  0  0  0  0  0
   61.5676   31.7715   49.8127 H   0  0  0  0  0  0  0  0  0  0  0  0
   62.7779   32.3863   51.0205 H   0  0  0  0  0  0  0  0  0  0  0  0
   60.9069   33.9813   50.6462 H   0  0  0  0  0  0  0  0  0  0  0  0
   62.5334   34.6439   50.1743 H   0  0  0  0  0  0  0  0  0  0  0  0
   59.5421   31.6004   47.6265 H   0  0  0  0  0  0  0  0  0  0  0  0
   56.6896   27.9812   46.9337 H   0  0  0  0  0  0  0  0  0  0  0  0
   56.6526   25.5020   46.8218 H   0  0  0  0  0  0  0  0  0  0  0  0
  1  2  1  0
  2  3  1  0
  2  4  1  0
  2  5  1  0
  5  6  2  0
  6  7  1  0
  7  8  2  0
  8  9  1  0
  9 10  2  0
  9 11  1  0
 11 12  1  0
 12 13  2  0
 13 14  1  0
 14 15  2  0
 15 16  1  0
 16 17  1  0
 17 18  1  0
 18 19  1  0
 19 20  1  0
 20 21  1  0
 21 22  1  0
 22 23  2  0
 22 24  1  0
 24 25  1  0
 25 26  1  0
 26 27  1  0
 27 28  1  0
 28 29  1  0
 21 30  1  0
 30 31  1  0
 16 32  2  0
  8 33  1  0
 33 34  2  0
 34  5  1  0
 32 12  1  0
 31 18  1  0
 29 24  1  0
  1 35  1  0
  1 36  1  0
  1 37  1  0
  3 38  1  0
  3 39  1  0
  3 40  1  0
  4 41  1  0
  4 42  1  0
  4 43  1  0
  6 44  1  0
  7 45  1  0
 11 46  1  0
 13 47  1  0
 14 48  1  0
 15 49  1  0
 17 50  1  0
 17 51  1  0
 19 52  1  0
 19 53  1  0
 20 54  1  0
 20 55  1  0
 21 56  1  0
 25 57  1  0
 25 58  1  0
 26 59  1  0
 26 60  1  0
 28 61  1  0
 28 62  1  0
 29 63  1  0
 29 64  1  0
 30 65  1  0
 30 66  1  0
 31 67  1  0
 31 68  1  0
 32 69  1  0
 33 70  1  0
 34 71  1  0
M  END
>  <UniqueID>  (79) 
72

>  <SMILES>  (79) 
CC(C)(C)c1ccc(C(=O)Nc2cccc(CN3CCC(C(=O)N4CCOCC4)CC3)c2)cc1

>  <Energy>  (79) 
95.32994401478528

>  <Genealogy>  (79) 
CC(C)(C)c1ccc(C(=O)Nc2cccc(CN3CCC(C(=O)N4CCOCC4)CC3)c2)cc1 (3D coordinates assigned)
CC(C)(C)c1ccc(C(=O)Nc2cccc(CN3CCC(C(=O)N4CCOCC4)CC3)c2)cc1 (nonaromatic ring conformer: 95.32994401478528 kcal/mol)

>  <smiles>  (79) 
CC(C)(C)c1ccc(C(=O)Nc2cccc(CN3CCC(C(=O)N4CCOCC4)CC3)c2)cc1

>  <score_type>  (79) 
oracle

>  <origin>  (79) 
adg

>  <m_score__min__energy>  (79) 
-10.17

>  <m_primary>  (79) 
energy

$$$$
79:0
     RDKit          3D

 48 51  0  0  0  0  0  0  0  0999 V2000
   59.2172   29.0957   48.5034 H   0  0  0  0  0  0  0  0  0  0  0  0
   59.6720   29.6200   47.6500 C   0  0  0  0  0  0  0  0  0  0  0  0
   59.2360   29.3840   46.4510 N   0  0  0  0  0  0  0  0  0  0  0  0
   58.0530   28.6240   46.1850 C   0  0  0  0  0  0  0  0  0  0  0  0
   56.9340   28.9870   45.4200 C   0  0  0  0  0  0  0  0  0  0  0  0
   56.6240   30.3170   44.8640 C   0  0  0  0  0  0  0  0  0  0  0  0
   55.5360   30.5010   44.2540 O   0  0  0  0  0  0  0  0  0  0  0  0
   57.5320   31.4040   45.0500 N   0  0  0  0  0  0  0  0  0  0  0  0
   57.1030   32.7740   45.2880 C   0  0  0  0  0  0  0  0  0  0  0  0
   57.0496   33.3149   44.3317 H   0  0  0  0  0  0  0  0  0  0  0  0
   56.1094   32.7752   45.7599 H   0  0  0  0  0  0  0  0  0  0  0  0
   58.0950   33.4480   46.1930 C   0  0  0  0  0  0  0  0  0  0  0  0
   58.2010   33.0660   47.5400 C   0  0  0  0  0  0  0  0  0  0  0  0
   57.5321   32.2921   47.9445 H   0  0  0  0  0  0  0  0  0  0  0  0
   59.1540   33.6660   48.3690 C   0  0  0  0  0  0  0  0  0  0  0  0
   59.2253   33.3721   49.4266 H   0  0  0  0  0  0  0  0  0  0  0  0
   60.0180   34.6410   47.8540 C   0  0  0  0  0  0  0  0  0  0  0  0
   60.7556   35.1240   48.5118 H   0  0  0  0  0  0  0  0  0  0  0  0
   59.9440   35.0010   46.5050 C   0  0  0  0  0  0  0  0  0  0  0  0
   60.6385   35.7485   46.0940 H   0  0  0  0  0  0  0  0  0  0  0  0
   58.9820   34.4060   45.6790 C   0  0  0  0  0  0  0  0  0  0  0  0
   58.9214   34.6921   44.6186 H   0  0  0  0  0  0  0  0  0  0  0  0
   56.0690   27.9440   45.3460 N   0  0  0  0  0  0  0  0  0  0  0  0
   55.1430   27.9270   44.8720 H   0  0  0  0  0  0  0  0  0  0  0  0
   56.6220   26.9520   46.0740 C   0  0  0  0  0  0  0  0  0  0  0  0
   56.0930   25.6830   46.3070 C   0  0  0  0  0  0  0  0  0  0  0  0
   55.1230   25.3862   45.8815 H   0  0  0  0  0  0  0  0  0  0  0  0
   56.8390   24.7930   47.1040 C   0  0  0  0  0  0  0  0  0  0  0  0
   56.4515   23.7833   47.3047 H   0  0  0  0  0  0  0  0  0  0  0  0
   58.0830   25.1890   47.6480 C   0  0  0  0  0  0  0  0  0  0  0  0
   58.6560   24.4860   48.2705 H   0  0  0  0  0  0  0  0  0  0  0  0
   58.5920   26.4760   47.3980 C   0  0  0  0  0  0  0  0  0  0  0  0
   59.5599   26.7953   47.8118 H   0  0  0  0  0  0  0  0  0  0  0  0
   57.8270   27.3340   46.6070 C   0  0  0  0  0  0  0  0  0  0  0  0
   60.7690   30.5810   47.8890 C   0  0  0  0  0  0  0  0  0  0  0  0
   61.3860   30.6150   49.1470 C   0  0  0  0  0  0  0  0  0  0  0  0
   61.0244   29.9575   49.9513 H   0  0  0  0  0  0  0  0  0  0  0  0
   62.4600   31.4810   49.3860 C   0  0  0  0  0  0  0  0  0  0  0  0
   62.9380   31.4987   50.3766 H   0  0  0  0  0  0  0  0  0  0  0  0
   62.9300   32.3260   48.3700 C   0  0  0  0  0  0  0  0  0  0  0  0
   64.0640   33.2710   48.6270 C   0  0  0  0  0  0  0  0  0  0  0  0
   64.2049   33.3884   49.7116 H   0  0  0  0  0  0  0  0  0  0  0  0
   64.9848   32.8692   48.1790 H   0  0  0  0  0  0  0  0  0  0  0  0
   63.8349   34.2492   48.1790 H   0  0  0  0  0  0  0  0  0  0  0  0
   62.3010   32.3120   47.1160 C   0  0  0  0  0  0  0  0  0  0  0  0
   62.6495   32.9865   46.3200 H   0  0  0  0  0  0  0  0  0  0  0  0
   61.2310   31.4420   46.8750 C   0  0  0  0  0  0  0  0  0  0  0  0
   60.7479   31.4309   45.8868 H   0  0  0  0  0  0  0  0  0  0  0  0
  1  2  1  0
  2  3  2  0
  3  4  1  0
  4  5  2  0
  5  6  1  0
  6  7  2  0
  6  8  1  0
  8  9  1  0
  9 10  1  0
  9 11  1  0
  9 12  1  0
 12 13  2  0
 13 14  1  0
 13 15  1  0
 15 16  1  0
 15 17  2  0
 17 18  1  0
 17 19  1  0
 19 20  1  0
 19 21  2  0
 21 22  1  0
  5 23  1  0
 23 24  1  0
 23 25  1  0
 25 26  2  0
 26 27  1  0
 26 28  1  0
 28 29  1  0
 28 30  2  0
 30 31  1  0
 30 32  1  0
 32 33  1  0
 32 34  2  0
  2 35  1  0
 35 36  2  0
 36 37  1  0
 36 38  1  0
 38 39  1  0
 38 40  2  0
 40 41  1  0
 41 42  1  0
 41 43  1  0
 41 44  1  0
 40 45  1  0
 45 46  1  0
 45 47  2  0
 47 48  1  0
 34  4  1  0
 47 35  1  0
 21 12  1  0
 34 25  1  0
M  CHG  1   8  -1
M  END
>  <UniqueID>  (80) 
73

>  <SMILES>  (80) 
Cc1ccc(/C=N/c2c(C(=O)[N-]Cc3ccccc3)[nH]c3ccccc23)cc1

>  <Energy>  (80) 
85.20830790418644

>  <Genealogy>  (80) 
Cc1ccc(C=Nc2c(C(=O)[N-]Cc3ccccc3)[nH]c3ccccc23)cc1 (protonated)
Cc1ccc(/C=N/c2c(C(=O)[N-]Cc3ccccc3)[nH]c3ccccc23)cc1 (cis-trans isomerization)
Cc1ccc(/C=N/c2c(C(=O)[N-]Cc3ccccc3)[nH]c3ccccc23)cc1 (3D coordinates assigned)
Cc1ccc(/C=N/c2c(C(=O)[N-]Cc3ccccc3)[nH]c3ccccc23)cc1 (optimized conformer: 85.20830790418644 kcal/mol)

>  <smiles>  (80) 
Cc1ccc(C=Nc2c(C(=O)NCc3ccccc3)[nH]c3ccccc23)cc1

>  <score_type>  (80) 
oracle

>  <origin>  (80) 
adg

>  <m_score__min__energy>  (80) 
-10.75

>  <m_primary>  (80) 
energy

$$$$
80:0
     RDKit          3D

 33 34  0  0  0  0  0  0  0  0999 V2000
   55.1380   27.9190   44.9700 H   0  0  0  0  0  0  0  0  0  0  0  0
   55.5880   28.8120   45.1310 O   0  0  0  0  0  0  0  0  0  0  0  0
   56.9590   29.0040   44.9440 C   0  0  0  0  0  0  0  0  0  0  0  0
   57.4830   30.3050   44.8020 C   0  0  0  0  0  0  0  0  0  0  0  0
   56.6040   31.3990   44.8620 O   0  0  0  0  0  0  0  0  0  0  0  0
   56.9990   32.7350   45.1560 C   0  0  0  0  0  0  0  0  0  0  0  0
   57.0400   32.8737   46.2464 H   0  0  0  0  0  0  0  0  0  0  0  0
   57.9924   32.9271   44.7243 H   0  0  0  0  0  0  0  0  0  0  0  0
   56.2698   33.4364   44.7243 H   0  0  0  0  0  0  0  0  0  0  0  0
   58.8670   30.4740   44.6040 C   0  0  0  0  0  0  0  0  0  0  0  0
   59.2850   31.4859   44.4977 H   0  0  0  0  0  0  0  0  0  0  0  0
   59.7110   29.3640   44.5420 C   0  0  0  0  0  0  0  0  0  0  0  0
   60.7903   29.5045   44.3829 H   0  0  0  0  0  0  0  0  0  0  0  0
   59.1910   28.0780   44.6810 C   0  0  0  0  0  0  0  0  0  0  0  0
   59.8617   27.2081   44.6226 H   0  0  0  0  0  0  0  0  0  0  0  0
   57.8170   27.8860   44.8950 C   0  0  0  0  0  0  0  0  0  0  0  0
   57.2730   26.4860   45.0100 C   0  0  0  0  0  0  0  0  0  0  0  0
   56.4443   26.3580   44.2980 H   0  0  0  0  0  0  0  0  0  0  0  0
   58.0751   25.7681   44.7835 H   0  0  0  0  0  0  0  0  0  0  0  0
   56.7740   26.2410   46.4000 C   0  0  0  0  0  0  0  0  0  0  0  0
   57.4450   26.6590   47.3810 O   0  0  0  0  0  0  0  0  0  0  0  0
   55.5600   25.4930   46.5880 N   0  0  0  0  0  0  0  0  0  0  0  0
   54.9260   24.7940   45.6940 C   0  0  0  0  0  0  0  0  0  0  0  0
   53.5680   24.8200   45.6760 N   0  0  0  0  0  0  0  0  0  0  0  0
   52.8780   24.0960   44.7570 C   0  0  0  0  0  0  0  0  0  0  0  0
   51.3880   24.1610   44.7230 C   0  0  0  0  0  0  0  0  0  0  0  0
   50.9982   24.1780   45.7515 H   0  0  0  0  0  0  0  0  0  0  0  0
   51.0727   25.0738   44.1962 H   0  0  0  0  0  0  0  0  0  0  0  0
   50.9944   23.2792   44.1962 H   0  0  0  0  0  0  0  0  0  0  0  0
   53.5500   23.3610   43.8350 N   0  0  0  0  0  0  0  0  0  0  0  0
   54.9060   23.3310   43.8460 C   0  0  0  0  0  0  0  0  0  0  0  0
   55.5280   22.6420   42.9960 O   0  0  0  0  0  0  0  0  0  0  0  0
   55.5910   24.0450   44.7730 N   0  0  0  0  0  0  0  0  0  0  0  0
  1  2  1  0
  2  3  1  0
  3  4  2  0
  4  5  1  0
  5  6  1  0
  6  7  1  0
  6  8  1  0
  6  9  1  0
  4 10  1  0
 10 11  1  0
 10 12  2  0
 12 13  1  0
 12 14  1  0
 14 15  1  0
 14 16  2  0
 16 17  1  0
 17 18  1  0
 17 19  1  0
 17 20  1  0
 20 21  2  0
 20 22  1  0
 22 23  2  0
 23 24  1  0
 24 25  1  0
 25 26  1  0
 26 27  1  0
 26 28  1  0
 26 29  1  0
 25 30  2  0
 30 31  1  0
 31 32  2  0
 31 33  1  0
 16  3  1  0
 33 23  1  0
M  CHG  2  24  -1  33  -1
M  END
>  <UniqueID>  (81) 
74

>  <SMILES>  (81) 
COc1cccc(CC(=O)/N=c2/[n-]c(C)nc(=O)[n-]2)c1O

>  <Energy>  (81) 
33.44415054822256

>  <Genealogy>  (81) 
COc1cccc(CC(=O)N=c2[n-]c(C)nc(=O)[n-]2)c1O (protonated)
COc1cccc(CC(=O)/N=c2/[n-]c(C)nc(=O)[n-]2)c1O (cis-trans isomerization)
COc1cccc(CC(=O)/N=c2/[n-]c(C)nc(=O)[n-]2)c1O (3D coordinates assigned)
COc1cccc(CC(=O)/N=c2/[n-]c(C)nc(=O)[n-]2)c1O (optimized conformer: 33.44415054822256 kcal/mol)

>  <smiles>  (81) 
COc1cccc(CC(=O)N=c2[nH]c(C)nc(=O)[nH]2)c1O

>  <score_type>  (81) 
oracle

>  <origin>  (81) 
adg

>  <m_score__min__energy>  (81) 
-11.01

>  <m_primary>  (81) 
energy

$$$$
81:0
     RDKit          3D

 91 93  0  0  0  0  0  0  0  0999 V2000
   58.7580   27.1050   44.0250 C   0  0  0  0  0  0  0  0  0  0  0  0
   59.7670   27.4770   45.0660 C   0  0  0  0  0  0  0  0  0  0  0  0
   60.6690   28.2360   44.7600 O   0  0  0  0  0  0  0  0  0  0  0  0
   59.7230   26.9070   46.4610 C   0  0  2  0  0  0  0  0  0  0  0  0
   58.8530   25.7380   46.5300 N   0  0  0  0  0  0  0  0  0  0  0  0
   57.4600   25.7230   46.8760 C   0  0  0  0  0  0  0  0  0  0  0  0
   57.1140   25.1940   47.9660 O   0  0  0  0  0  0  0  0  0  0  0  0
   56.4130   26.3550   46.0150 C   0  0  0  0  0  0  0  0  0  0  0  0
   55.1480   25.6810   46.2400 N   0  0  0  0  0  0  0  0  0  0  0  0
   54.7780   24.4550   45.5970 C   0  0  0  0  0  0  0  0  0  0  0  0
   54.8310   24.3570   44.3430 O   0  0  0  0  0  0  0  0  0  0  0  0
   54.3040   23.2810   46.4140 C   0  0  2  0  0  0  0  0  0  0  0  0
   55.3300   22.9670   47.5130 C   0  0  0  0  0  0  0  0  0  0  0  0
   54.6610   22.4010   48.7380 C   0  0  0  0  0  0  0  0  0  0  0  0
   55.4270   21.8330   49.7700 C   0  0  0  0  0  0  0  0  0  0  0  0
   54.8020   21.3040   50.9050 C   0  0  0  0  0  0  0  0  0  0  0  0
   53.4090   21.3520   51.0230 C   0  0  0  0  0  0  0  0  0  0  0  0
   52.6420   21.9270   50.0060 C   0  0  0  0  0  0  0  0  0  0  0  0
   53.2610   22.4550   48.8690 C   0  0  0  0  0  0  0  0  0  0  0  0
   54.1280   22.1150   45.5480 N   0  0  0  0  0  0  0  0  0  0  0  0
   55.0730   21.0400   45.4770 C   0  0  0  0  0  0  0  0  0  0  0  0
   54.6740   19.8420   45.5560 O   0  0  0  0  0  0  0  0  0  0  0  0
   56.5260   21.3650   45.2280 C   0  0  0  0  0  0  0  0  0  0  0  0
   56.8680   22.0360   43.8600 C   0  0  0  0  0  0  0  0  0  0  0  0
   57.7620   21.1240   42.9950 C   0  0  0  0  0  0  0  0  0  0  0  0
   57.5690   23.3950   44.0790 C   0  0  0  0  0  0  0  0  0  0  0  0
   55.6220   22.2750   43.1070 N   0  0  0  0  0  0  0  0  0  0  0  0
   59.2490   27.9370   47.4450 C   0  0  0  0  0  0  0  0  0  0  0  0
   59.4640   27.7690   48.6730 O   0  0  0  0  0  0  0  0  0  0  0  0
   58.5160   29.0820   46.9940 N   0  0  0  0  0  0  0  0  0  0  0  0
   59.1730   30.2630   46.4420 C   0  0  1  0  0  0  0  0  0  0  0  0
   58.5540   30.7820   45.1190 C   0  0  0  0  0  0  0  0  0  0  0  0
   57.5990   29.8380   44.3720 C   0  0  0  0  0  0  0  0  0  0  0  0
   56.1540   30.2400   44.4860 C   0  0  0  0  0  0  0  0  0  0  0  0
   55.1480   29.2480   44.6800 N   0  0  0  0  0  0  0  0  0  0  0  0
   55.8340   31.4600   44.5020 O   0  0  0  0  0  0  0  0  0  0  0  0
   59.3950   31.3470   47.4870 C   0  0  0  0  0  0  0  0  0  0  0  0
   58.3500   31.8390   47.9940 O   0  0  0  0  0  0  0  0  0  0  0  0
   60.6870   31.8340   47.9550 N   0  0  0  0  0  0  0  0  0  0  0  0
   61.3760   31.0060   48.9750 C   0  0  0  0  0  0  0  0  0  0  0  0
   62.7420   31.5170   49.3770 C   0  0  0  0  0  0  0  0  0  0  0  0
   63.3680   30.9750   50.5110 C   0  0  0  0  0  0  0  0  0  0  0  0
   64.6470   31.3920   50.8810 C   0  0  0  0  0  0  0  0  0  0  0  0
   65.3170   32.3560   50.1240 C   0  0  0  0  0  0  0  0  0  0  0  0
   64.7030   32.9070   48.9940 C   0  0  0  0  0  0  0  0  0  0  0  0
   63.4120   32.4950   48.6220 C   0  0  0  0  0  0  0  0  0  0  0  0
   62.7600   33.0600   47.3980 C   0  0  0  0  0  0  0  0  0  0  0  0
   61.2380   33.1540   47.5870 C   0  0  2  0  0  0  0  0  0  0  0  0
   60.8840   34.2050   48.6100 C   0  0  0  0  0  0  0  0  0  0  0  0
   59.5170   34.5410   48.8310 N   0  0  0  0  0  0  0  0  0  0  0  0
   61.7810   34.7620   49.3010 O   0  0  0  0  0  0  0  0  0  0  0  0
   57.8340   26.7643   44.5151 H   0  0  0  0  0  0  0  0  0  0  0  0
   58.5385   27.9813   43.3974 H   0  0  0  0  0  0  0  0  0  0  0  0
   59.1599   26.2959   43.3974 H   0  0  0  0  0  0  0  0  0  0  0  0
   60.7478   26.6019   46.7193 H   0  0  0  0  0  0  0  0  0  0  0  0
   56.3152   27.4195   46.2743 H   0  0  0  0  0  0  0  0  0  0  0  0
   56.6986   26.2667   44.9564 H   0  0  0  0  0  0  0  0  0  0  0  0
   53.3400   23.5295   46.8820 H   0  0  0  0  0  0  0  0  0  0  0  0
   56.0542   22.2336   47.1287 H   0  0  0  0  0  0  0  0  0  0  0  0
   55.8365   23.9022   47.7938 H   0  0  0  0  0  0  0  0  0  0  0  0
   56.5234   21.8040   49.6854 H   0  0  0  0  0  0  0  0  0  0  0  0
   55.4063   20.8504   51.7044 H   0  0  0  0  0  0  0  0  0  0  0  0
   52.9176   20.9375   51.9156 H   0  0  0  0  0  0  0  0  0  0  0  0
   51.5467   21.9643   50.1005 H   0  0  0  0  0  0  0  0  0  0  0  0
   52.6526   22.9134   48.0755 H   0  0  0  0  0  0  0  0  0  0  0  0
   56.8571   22.0461   46.0258 H   0  0  0  0  0  0  0  0  0  0  0  0
   57.0417   20.3935   45.2115 H   0  0  0  0  0  0  0  0  0  0  0  0
   58.3816   20.4919   43.6480 H   0  0  0  0  0  0  0  0  0  0  0  0
   57.1296   20.4861   42.3600 H   0  0  0  0  0  0  0  0  0  0  0  0
   58.4123   21.7436   42.3600 H   0  0  0  0  0  0  0  0  0  0  0  0
   57.6680   23.5869   45.1576 H   0  0  0  0  0  0  0  0  0  0  0  0
   58.5673   23.3712   43.6177 H   0  0  0  0  0  0  0  0  0  0  0  0
   56.9709   24.1946   43.6177 H   0  0  0  0  0  0  0  0  0  0  0  0
   54.8070   22.2460   43.7590 H   0  0  0  0  0  0  0  0  0  0  0  0
   55.6620   23.2230   42.6680 H   0  0  0  0  0  0  0  0  0  0  0  0
   60.1752   29.9239   46.1411 H   0  0  0  0  0  0  0  0  0  0  0  0
   57.9955   31.7003   45.3530 H   0  0  0  0  0  0  0  0  0  0  0  0
   59.4088   30.9159   44.4397 H   0  0  0  0  0  0  0  0  0  0  0  0
   57.8765   29.8314   43.3076 H   0  0  0  0  0  0  0  0  0  0  0  0
   57.6976   28.8440   44.8326 H   0  0  0  0  0  0  0  0  0  0  0  0
   54.4100   29.3610   45.4110 H   0  0  0  0  0  0  0  0  0  0  0  0
   60.7435   30.9713   49.8743 H   0  0  0  0  0  0  0  0  0  0  0  0
   61.5324   30.0160   48.5218 H   0  0  0  0  0  0  0  0  0  0  0  0
   62.8461   30.2159   51.1122 H   0  0  0  0  0  0  0  0  0  0  0  0
   65.1288   30.9607   51.7708 H   0  0  0  0  0  0  0  0  0  0  0  0
   66.3263   32.6816   50.4160 H   0  0  0  0  0  0  0  0  0  0  0  0
   65.2316   33.6638   48.3959 H   0  0  0  0  0  0  0  0  0  0  0  0
   63.1627   34.0655   47.2060 H   0  0  0  0  0  0  0  0  0  0  0  0
   62.9701   32.3955   46.5469 H   0  0  0  0  0  0  0  0  0  0  0  0
   60.7839   33.4604   46.6331 H   0  0  0  0  0  0  0  0  0  0  0  0
   58.7590   33.8570   48.6420 H   0  0  0  0  0  0  0  0  0  0  0  0
  1  2  1  0
  2  3  2  0
  2  4  1  0
  4  5  1  0
  5  6  1  0
  6  7  2  0
  6  8  1  0
  8  9  1  0
  9 10  1  0
 10 11  2  0
 10 12  1  0
 12 13  1  0
 13 14  1  0
 14 15  2  0
 15 16  1  0
 16 17  2  0
 17 18  1  0
 18 19  2  0
 12 20  1  0
 20 21  1  0
 21 22  2  0
 21 23  1  0
 23 24  1  0
 24 25  1  0
 24 26  1  0
 24 27  1  0
  4 28  1  0
 28 29  2  0
 28 30  1  0
 30 31  1  0
 31 32  1  0
 32 33  1  0
 33 34  1  0
 34 35  1  0
 34 36  2  0
 31 37  1  0
 37 38  2  0
 37 39  1  0
 39 40  1  0
 40 41  1  0
 41 42  2  0
 42 43  1  0
 43 44  2  0
 44 45  1  0
 45 46  2  0
 46 47  1  0
 47 48  1  0
 48 49  1  0
 49 50  1  0
 49 51  2  0
 19 14  1  0
 48 39  1  0
 46 41  1  0
  1 52  1  0
  1 53  1  0
  1 54  1  0
  4 55  1  1
  8 56  1  0
  8 57  1  0
 12 58  1  1
 13 59  1  0
 13 60  1  0
 15 61  1  0
 16 62  1  0
 17 63  1  0
 18 64  1  0
 19 65  1  0
 23 66  1  0
 23 67  1  0
 25 68  1  0
 25 69  1  0
 25 70  1  0
 26 71  1  0
 26 72  1  0
 26 73  1  0
 27 74  1  0
 27 75  1  0
 31 76  1  6
 32 77  1  0
 32 78  1  0
 33 79  1  0
 33 80  1  0
 35 81  1  0
 40 82  1  0
 40 83  1  0
 42 84  1  0
 43 85  1  0
 44 86  1  0
 45 87  1  0
 47 88  1  0
 47 89  1  0
 48 90  1  6
 50 91  1  0
M  CHG  6   5  -1   9  -1  20  -1  30  -1  35  -1  50  -1
M  END
>  <UniqueID>  (82) 
75

>  <SMILES>  (82) 
CC(=O)[C@H]([N-]C(=O)C[N-]C(=O)[C@H](Cc1ccccc1)[N-]C(=O)CC(C)(C)N)C(=O)[N-]C(CCC([NH-])=O)C(=O)N1Cc2ccccc2CC1C([NH-])=O

>  <Energy>  (82) 
88.43022272452284

>  <Genealogy>  (82) 
CC(=O)C([N-]C(=O)C[N-]C(=O)C(Cc1ccccc1)[N-]C(=O)CC(C)(C)N)C(=O)[N-]C(CCC([NH-])=O)C(=O)N1Cc2ccccc2CC1C([NH-])=O (protonated)
CC(=O)[C@H]([N-]C(=O)C[N-]C(=O)[C@H](Cc1ccccc1)[N-]C(=O)CC(C)(C)N)C(=O)[N-]C(CCC([NH-])=O)C(=O)N1Cc2ccccc2CC1C([NH-])=O (chirality)
CC(=O)[C@H]([N-]C(=O)C[N-]C(=O)[C@H](Cc1ccccc1)[N-]C(=O)CC(C)(C)N)C(=O)[N-]C(CCC([NH-])=O)C(=O)N1Cc2ccccc2CC1C([NH-])=O (3D coordinates assigned)
CC(=O)[C@H]([N-]C(=O)C[N-]C(=O)[C@H](Cc1ccccc1)[N-]C(=O)CC(C)(C)N)C(=O)[N-]C(CCC([NH-])=O)C(=O)N1Cc2ccccc2CC1C([NH-])=O (nonaromatic ring conformer: 88.43022272452284 kcal/mol)

>  <smiles>  (82) 
CC(=O)C(NC(=O)CNC(=O)C(Cc1ccccc1)NC(=O)CC(C)(C)N)C(=O)NC(CCC(N)=O)C(=O)N1Cc2ccccc2CC1C(N)=O

>  <score_type>  (82) 
oracle

>  <origin>  (82) 
adg

>  <m_score__min__energy>  (82) 
-19.399999999999999

>  <m_primary>  (82) 
energy

$$$$
82:0
     RDKit          3D

 50 53  0  0  0  0  0  0  0  0999 V2000
   60.4240   29.6990   45.9290 C   0  0  0  0  0  0  0  0  0  0  0  0
   59.1180   30.2720   45.5940 N   0  0  0  0  0  0  0  0  0  0  0  0
   58.0450   29.6300   45.0570 C   0  0  0  0  0  0  0  0  0  0  0  0
   57.9820   28.1770   44.7990 C   0  0  0  0  0  0  0  0  0  0  0  0
   57.9570   27.7580   43.6110 O   0  0  0  0  0  0  0  0  0  0  0  0
   58.0170   27.2270   45.8700 N   0  0  0  0  0  0  0  0  0  0  0  0
   59.0070   27.2170   46.9030 C   0  0  0  0  0  0  0  0  0  0  0  0
   60.1750   26.4810   46.9480 C   0  0  0  0  0  0  0  0  0  0  0  0
   60.8050   26.7480   48.1090 N   0  0  0  0  0  0  0  0  0  0  0  0
   60.0700   27.6320   48.7720 N   0  0  0  0  0  0  0  0  0  0  0  0
   60.3710   28.0740   50.1310 C   0  0  0  0  0  0  0  0  0  0  0  0
   59.9250   29.4910   50.3310 C   0  0  0  0  0  0  0  0  0  0  0  0
   58.6920   29.7570   50.3430 O   0  0  0  0  0  0  0  0  0  0  0  0
   60.8970   30.5330   50.4860 N   0  0  0  0  0  0  0  0  0  0  0  0
   60.8920   31.7880   49.7940 C   0  0  0  0  0  0  0  0  0  0  0  0
   61.9410   32.0650   48.9070 C   0  0  0  0  0  0  0  0  0  0  0  0
   61.9780   33.2770   48.2120 C   0  0  0  0  0  0  0  0  0  0  0  0
   63.3920   33.6280   46.9770 Br  0  0  0  0  0  0  0  0  0  0  0  0
   60.9740   34.2290   48.4130 C   0  0  0  0  0  0  0  0  0  0  0  0
   59.9420   33.9750   49.3210 C   0  0  0  0  0  0  0  0  0  0  0  0
   59.9000   32.7630   50.0260 C   0  0  0  0  0  0  0  0  0  0  0  0
   58.8990   32.5440   50.9700 O   0  0  0  0  0  0  0  0  0  0  0  0
   58.9670   27.9460   48.0660 C   0  0  0  0  0  0  0  0  0  0  0  0
   57.0390   30.5500   44.7380 C   0  0  0  0  0  0  0  0  0  0  0  0
   55.6880   30.2740   44.1340 C   0  0  0  0  0  0  0  0  0  0  0  0
   55.2400   28.9990   44.5030 O   0  0  0  0  0  0  0  0  0  0  0  0
   57.5520   31.7870   45.0710 C   0  0  0  0  0  0  0  0  0  0  0  0
   57.0060   33.0650   44.9350 C   0  0  0  0  0  0  0  0  0  0  0  0
   57.7910   34.1610   45.3320 C   0  0  0  0  0  0  0  0  0  0  0  0
   59.0900   33.9610   45.8440 C   0  0  0  0  0  0  0  0  0  0  0  0
   59.6160   32.6630   45.9690 C   0  0  0  0  0  0  0  0  0  0  0  0
   58.8120   31.5870   45.5780 C   0  0  0  0  0  0  0  0  0  0  0  0
   60.5337   29.6509   47.0225 H   0  0  0  0  0  0  0  0  0  0  0  0
   60.4986   28.6855   45.5080 H   0  0  0  0  0  0  0  0  0  0  0  0
   61.2203   30.3304   45.5080 H   0  0  0  0  0  0  0  0  0  0  0  0
   60.5311   25.7926   46.1674 H   0  0  0  0  0  0  0  0  0  0  0  0
   59.8469   27.4246   50.8477 H   0  0  0  0  0  0  0  0  0  0  0  0
   61.4575   28.0160   50.2924 H   0  0  0  0  0  0  0  0  0  0  0  0
   62.7401   31.3241   48.7569 H   0  0  0  0  0  0  0  0  0  0  0  0
   60.9962   35.1777   47.8567 H   0  0  0  0  0  0  0  0  0  0  0  0
   59.1585   34.7297   49.4836 H   0  0  0  0  0  0  0  0  0  0  0  0
   58.7540   31.6340   51.3880 H   0  0  0  0  0  0  0  0  0  0  0  0
   58.1805   28.6545   48.3652 H   0  0  0  0  0  0  0  0  0  0  0  0
   54.9706   31.0277   44.4907 H   0  0  0  0  0  0  0  0  0  0  0  0
   55.7706   30.3201   43.0381 H   0  0  0  0  0  0  0  0  0  0  0  0
   55.9020   28.3510   44.1420 H   0  0  0  0  0  0  0  0  0  0  0  0
   55.9935   33.2093   44.5300 H   0  0  0  0  0  0  0  0  0  0  0  0
   57.3898   35.1814   45.2429 H   0  0  0  0  0  0  0  0  0  0  0  0
   59.6962   34.8271   46.1478 H   0  0  0  0  0  0  0  0  0  0  0  0
   60.6299   32.4985   46.3627 H   0  0  0  0  0  0  0  0  0  0  0  0
  1  2  1  0
  2  3  1  0
  3  4  1  0
  4  5  2  0
  4  6  1  0
  6  7  1  0
  7  8  1  0
  8  9  2  0
  9 10  1  0
 10 11  1  0
 11 12  1  0
 12 13  2  0
 12 14  1  0
 14 15  1  0
 15 16  2  0
 16 17  1  0
 17 18  1  0
 17 19  2  0
 19 20  1  0
 20 21  2  0
 21 22  1  0
 10 23  1  0
  3 24  2  0
 24 25  1  0
 25 26  1  0
 24 27  1  0
 27 28  2  0
 28 29  1  0
 29 30  2  0
 30 31  1  0
 31 32  2  0
 32  2  1  0
 23  7  2  0
 32 27  1  0
 21 15  1  0
  1 33  1  0
  1 34  1  0
  1 35  1  0
  8 36  1  0
 11 37  1  0
 11 38  1  0
 16 39  1  0
 19 40  1  0
 20 41  1  0
 22 42  1  0
 23 43  1  0
 25 44  1  0
 25 45  1  0
 26 46  1  0
 28 47  1  0
 29 48  1  0
 30 49  1  0
 31 50  1  0
M  CHG  2   6  -1  14  -1
M  END
>  <UniqueID>  (83) 
76

>  <SMILES>  (83) 
Cn1c(C(=O)[N-]c2cnn(CC(=O)[N-]c3cc(Br)ccc3O)c2)c(CO)c2ccccc21

>  <Energy>  (83) 
127.03152557479044

>  <Genealogy>  (83) 
Cn1c(C(=O)[N-]c2cnn(CC(=O)[N-]c3cc(Br)ccc3O)c2)c(CO)c2ccccc21 (protonated)
Cn1c(C(=O)[N-]c2cnn(CC(=O)[N-]c3cc(Br)ccc3O)c2)c(CO)c2ccccc21 (3D coordinates assigned)
Cn1c(C(=O)[N-]c2cnn(CC(=O)[N-]c3cc(Br)ccc3O)c2)c(CO)c2ccccc21 (optimized conformer: 127.03152557479044 kcal/mol)

>  <smiles>  (83) 
Cn1c(C(=O)Nc2cnn(CC(=O)Nc3cc(Br)ccc3O)c2)c(CO)c2ccccc21

>  <score_type>  (83) 
oracle

>  <origin>  (83) 
adg

>  <m_score__min__energy>  (83) 
-12.619999999999999

>  <m_primary>  (83) 
energy

$$$$
83:0
     RDKit          3D

 35 36  0  0  0  0  0  0  0  0999 V2000
   56.2690   30.0580   42.9310 C   0  0  0  0  0  0  0  0  0  0  0  0
   57.1690   31.1520   43.4940 C   0  0  0  0  0  0  0  0  0  0  0  0
   56.6410   31.6560   44.7190 O   0  0  0  0  0  0  0  0  0  0  0  0
   57.1230   32.8080   45.3540 C   0  0  0  0  0  0  0  0  0  0  0  0
   56.6520   33.9380   45.0490 O   0  0  0  0  0  0  0  0  0  0  0  0
   58.2070   32.6900   46.3580 C   0  0  0  0  0  0  0  0  0  0  0  0
   58.7290   33.8690   46.9250 C   0  0  0  0  0  0  0  0  0  0  0  0
   59.7130   33.8100   47.9140 C   0  0  0  0  0  0  0  0  0  0  0  0
   60.1960   32.5770   48.3460 C   0  0  0  0  0  0  0  0  0  0  0  0
   59.7020   31.3980   47.7870 C   0  0  0  0  0  0  0  0  0  0  0  0
   58.7080   31.4370   46.7940 C   0  0  0  0  0  0  0  0  0  0  0  0
   58.2860   30.2110   46.1720 N   0  0  0  0  0  0  0  0  0  0  0  0
   59.2090   29.2120   45.7090 C   0  0  0  0  0  0  0  0  0  0  0  0
   60.4380   29.3170   45.9740 O   0  0  0  0  0  0  0  0  0  0  0  0
   58.7250   28.0620   44.9170 C   0  0  0  0  0  0  0  0  0  0  0  0
   59.1930   27.8720   43.7610 O   0  0  0  0  0  0  0  0  0  0  0  0
   57.7400   27.0960   45.4570 C   0  0  0  0  0  0  0  0  0  0  0  0
   58.1490   25.7980   45.7930 C   0  0  0  0  0  0  0  0  0  0  0  0
   57.2550   24.9050   46.2870 N   0  0  0  0  0  0  0  0  0  0  0  0
   55.9520   25.2410   46.4540 C   0  0  0  0  0  0  0  0  0  0  0  0
   55.1390   24.3980   46.9170 O   0  0  0  0  0  0  0  0  0  0  0  0
   55.5200   26.4820   46.1150 N   0  0  0  0  0  0  0  0  0  0  0  0
   56.3760   27.4130   45.6160 C   0  0  0  0  0  0  0  0  0  0  0  0
   55.9290   28.5400   45.2780 O   0  0  0  0  0  0  0  0  0  0  0  0
   55.8092   29.4991   43.7594 H   0  0  0  0  0  0  0  0  0  0  0  0
   55.4806   30.5134   42.3137 H   0  0  0  0  0  0  0  0  0  0  0  0
   56.8678   29.3722   42.3137 H   0  0  0  0  0  0  0  0  0  0  0  0
   58.1714   30.7373   43.6760 H   0  0  0  0  0  0  0  0  0  0  0  0
   57.2238   31.9752   42.7664 H   0  0  0  0  0  0  0  0  0  0  0  0
   58.3574   34.8469   46.5850 H   0  0  0  0  0  0  0  0  0  0  0  0
   60.1073   34.7386   48.3526 H   0  0  0  0  0  0  0  0  0  0  0  0
   60.9677   32.5328   49.1287 H   0  0  0  0  0  0  0  0  0  0  0  0
   60.0944   30.4282   48.1268 H   0  0  0  0  0  0  0  0  0  0  0  0
   57.2610   30.0290   46.0820 H   0  0  0  0  0  0  0  0  0  0  0  0
   59.1995   25.5021   45.6555 H   0  0  0  0  0  0  0  0  0  0  0  0
  1  2  1  0
  2  3  1  0
  3  4  1  0
  4  5  2  0
  4  6  1  0
  6  7  2  0
  7  8  1  0
  8  9  2  0
  9 10  1  0
 10 11  2  0
 11 12  1  0
 12 13  1  0
 13 14  2  0
 13 15  1  0
 15 16  2  0
 15 17  1  0
 17 18  2  0
 18 19  1  0
 19 20  1  0
 20 21  2  0
 20 22  1  0
 22 23  1  0
 23 24  2  0
 11  6  1  0
 23 17  1  0
  1 25  1  0
  1 26  1  0
  1 27  1  0
  2 28  1  0
  2 29  1  0
  7 30  1  0
  8 31  1  0
  9 32  1  0
 10 33  1  0
 12 34  1  0
 18 35  1  0
M  CHG  2  19  -1  22  -1
M  END
>  <UniqueID>  (84) 
77

>  <SMILES>  (84) 
CCOC(=O)c1ccccc1NC(=O)C(=O)c1c[n-]c(=O)[n-]c1=O

>  <Energy>  (84) 
46.300988475547214

>  <Genealogy>  (84) 
CCOC(=O)c1ccccc1NC(=O)C(=O)c1c[n-]c(=O)[n-]c1=O (protonated)
CCOC(=O)c1ccccc1NC(=O)C(=O)c1c[n-]c(=O)[n-]c1=O (3D coordinates assigned)
CCOC(=O)c1ccccc1NC(=O)C(=O)c1c[n-]c(=O)[n-]c1=O (optimized conformer: 46.300988475547214 kcal/mol)

>  <smiles>  (84) 
CCOC(=O)c1ccccc1NC(=O)C(=O)c1c[nH]c(=O)[nH]c1=O

>  <score_type>  (84) 
oracle

>  <origin>  (84) 
adg

>  <m_score__min__energy>  (84) 
-11.35

>  <m_primary>  (84) 
energy

$$$$
84:0
     RDKit          3D

 52 54  0  0  1  0  0  0  0  0999 V2000
   56.9100   34.4950   44.8660 C   0  0  0  0  0  0  0  0  0  0  0  0
   57.5940   33.3430   45.5000 C   0  0  0  0  0  0  0  0  0  0  0  0
   57.2520   32.0950   45.1760 N   0  0  0  0  0  0  0  0  0  0  0  0
   57.8560   31.0220   45.7360 C   0  0  0  0  0  0  0  0  0  0  0  0
   57.4670   29.6660   45.3660 C   0  0  0  0  0  0  0  0  0  0  0  0
   56.3170   29.2020   45.5510 O   0  0  0  0  0  0  0  0  0  0  0  0
   58.4410   28.8310   44.7650 N   0  0  0  0  0  0  0  0  0  0  0  0
   58.0980   27.4950   44.3880 C   0  0  0  0  0  0  0  0  0  0  0  0
   58.1070   27.1060   43.0830 C   0  0  0  0  0  0  0  0  0  0  0  0
   57.7720   25.8160   42.7660 C   0  0  0  0  0  0  0  0  0  0  0  0
   57.4250   24.9120   43.7650 C   0  0  0  0  0  0  0  0  0  0  0  0
   56.9930   23.2510   43.3550 Cl  0  0  0  0  0  0  0  0  0  0  0  0
   57.4190   25.3210   45.0910 C   0  0  0  0  0  0  0  0  0  0  0  0
   57.7590   26.6280   45.4240 C   0  0  0  0  0  0  0  0  0  0  0  0
   57.7610   27.1740   47.0880 Cl  0  0  0  0  0  0  0  0  0  0  0  0
   58.8740   31.1760   46.6870 C   0  0  0  0  0  0  0  0  0  0  0  0
   59.4540   29.9660   47.2000 C   0  0  0  0  0  0  0  0  0  0  0  0
   60.1420   29.2670   46.3710 O   0  0  0  0  0  0  0  0  0  0  0  0
   59.3560   29.4510   48.5030 N   0  0  0  0  0  0  0  0  0  0  0  0
   60.0590   28.2060   48.7880 C   0  0  0  0  0  0  0  0  0  0  0  0
   58.5880   30.0250   49.5820 C   0  0  0  0  0  0  0  0  0  0  0  0
   59.2010   32.4580   47.0000 C   0  0  0  0  0  0  0  0  0  0  0  0
   60.0810   32.7230   47.8460 N   0  0  0  0  0  0  0  0  0  0  0  0
   61.4330   32.9900   47.6980 C   0  0  0  0  0  0  0  0  0  0  0  0
   62.0460   33.7770   46.7580 C   0  0  0  0  0  0  0  0  0  0  0  0
   63.4000   34.0300   46.7220 C   0  0  0  0  0  0  0  0  0  0  0  0
   64.2280   33.4770   47.6710 C   0  0  0  0  0  0  0  0  0  0  0  0
   63.6530   32.6790   48.6380 C   0  0  0  0  0  0  0  0  0  0  0  0
   62.2990   32.4340   48.6630 C   0  0  0  0  0  0  0  0  0  0  0  0
   61.7360   31.5750   49.7650 C   0  0  0  0  0  0  0  0  0  0  0  0
   58.5620   33.5120   46.4060 N   0  0  0  0  0  0  0  0  0  0  0  0
   56.5143   35.1614   45.6466 H   0  0  0  0  0  0  0  0  0  0  0  0
   57.6263   35.0478   44.2404 H   0  0  0  0  0  0  0  0  0  0  0  0
   56.0818   34.1307   44.2404 H   0  0  0  0  0  0  0  0  0  0  0  0
   59.4000   29.2070   44.6080 H   0  0  0  0  0  0  0  0  0  0  0  0
   58.3803   27.8198   42.2920 H   0  0  0  0  0  0  0  0  0  0  0  0
   57.7774   25.4928   41.7146 H   0  0  0  0  0  0  0  0  0  0  0  0
   57.1441   24.6083   45.8825 H   0  0  0  0  0  0  0  0  0  0  0  0
   60.1361   28.0694   49.8768 H   0  0  0  0  0  0  0  0  0  0  0  0
   59.5036   27.3630   48.3511 H   0  0  0  0  0  0  0  0  0  0  0  0
   61.0677   28.2462   48.3511 H   0  0  0  0  0  0  0  0  0  0  0  0
   59.0139   29.7067   50.5450 H   0  0  0  0  0  0  0  0  0  0  0  0
   58.6201   31.1223   49.5117 H   0  0  0  0  0  0  0  0  0  0  0  0
   57.5447   29.6835   49.5117 H   0  0  0  0  0  0  0  0  0  0  0  0
   61.4161   34.2364   45.9820 H   0  0  0  0  0  0  0  0  0  0  0  0
   63.8186   34.6740   45.9346 H   0  0  0  0  0  0  0  0  0  0  0  0
   65.3118   33.6648   47.6592 H   0  0  0  0  0  0  0  0  0  0  0  0
   64.2935   32.2266   49.4094 H   0  0  0  0  0  0  0  0  0  0  0  0
   62.0148   32.0005   50.7403 H   0  0  0  0  0  0  0  0  0  0  0  0
   60.6398   31.5410   49.6797 H   0  0  0  0  0  0  0  0  0  0  0  0
   62.1422   30.5563   49.6797 H   0  0  0  0  0  0  0  0  0  0  0  0
   58.8160   34.4990   46.6480 H   0  0  0  0  0  0  0  0  0  0  0  0
  1  2  1  0
  2  3  2  0
  3  4  1  0
  4  5  1  0
  5  6  2  0
  5  7  1  0
  7  8  1  0
  8  9  2  0
  9 10  1  0
 10 11  2  0
 11 12  1  0
 11 13  1  0
 13 14  2  0
 14 15  1  0
  4 16  2  0
 16 17  1  0
 17 18  2  0
 17 19  1  0
 19 20  1  0
 19 21  1  0
 16 22  1  0
 22 23  2  0
 23 24  1  0
 24 25  2  0
 25 26  1  0
 26 27  2  0
 27 28  1  0
 28 29  2  0
 29 30  1  0
 22 31  1  0
 31  2  1  0
 14  8  1  0
 29 24  1  0
  1 32  1  0
  1 33  1  0
  1 34  1  0
  7 35  1  0
  9 36  1  0
 10 37  1  0
 13 38  1  0
 20 39  1  0
 20 40  1  0
 20 41  1  0
 21 42  1  0
 21 43  1  0
 21 44  1  0
 25 45  1  0
 26 46  1  0
 27 47  1  0
 28 48  1  0
 30 49  1  0
 30 50  1  0
 30 51  1  0
 31 52  1  0
M  END
>  <smiles>  (85) 
Cc1nc(C(=O)Nc2ccc(Cl)cc2Cl)c(C(=O)N(C)C)c(=Nc2ccccc2C)[nH]1

>  <score_type>  (85) 
oracle

>  <origin>  (85) 
adg

>  <m_score__min__energy>  (85) 
-8.6199999999999992

>  <m_primary>  (85) 
energy

$$$$
85:0
     RDKit          3D

 37 39  0  0  0  0  0  0  0  0999 V2000
   59.0730   31.4030   48.5730 C   0  0  0  0  0  0  0  0  0  0  0  0
   58.7020   31.6270   47.1660 N   0  0  0  0  0  0  0  0  0  0  0  0
   58.1500   30.5840   46.4720 C   0  0  0  0  0  0  0  0  0  0  0  0
   57.7740   30.7160   45.1330 C   0  0  0  0  0  0  0  0  0  0  0  0
   57.0510   29.3210   44.3140 S   0  0  0  0  0  0  0  0  0  0  0  0
   56.2500   29.8240   43.1450 O   0  0  0  0  0  0  0  0  0  0  0  0
   56.1220   28.5830   45.2380 O   0  0  0  0  0  0  0  0  0  0  0  0
   58.3130   28.2510   43.7420 N   0  0  0  0  0  0  0  0  0  0  0  0
   59.5520   28.4250   44.5110 C   0  0  0  0  0  0  0  0  0  0  0  0
   59.5340   27.4130   45.6470 C   0  0  0  0  0  0  0  0  0  0  0  0
   58.4960   26.3770   45.2540 C   0  0  0  0  0  0  0  0  0  0  0  0
   57.9310   26.8440   43.9200 C   0  0  0  0  0  0  0  0  0  0  0  0
   57.9530   31.9490   44.4910 C   0  0  0  0  0  0  0  0  0  0  0  0
   57.6010   32.0910   43.2880 O   0  0  0  0  0  0  0  0  0  0  0  0
   58.5210   33.0240   45.1940 C   0  0  0  0  0  0  0  0  0  0  0  0
   58.7170   34.2740   44.5700 C   0  0  0  0  0  0  0  0  0  0  0  0
   59.2800   35.3360   45.2750 C   0  0  0  0  0  0  0  0  0  0  0  0
   59.6540   35.1720   46.6060 C   0  0  0  0  0  0  0  0  0  0  0  0
   59.4690   33.9440   47.2440 C   0  0  0  0  0  0  0  0  0  0  0  0
   58.8990   32.8470   46.5530 C   0  0  0  0  0  0  0  0  0  0  0  0
   58.3169   31.8595   49.2287 H   0  0  0  0  0  0  0  0  0  0  0  0
   59.1254   30.3222   48.7708 H   0  0  0  0  0  0  0  0  0  0  0  0
   60.0539   31.8599   48.7708 H   0  0  0  0  0  0  0  0  0  0  0  0
   57.9991   29.6202   46.9802 H   0  0  0  0  0  0  0  0  0  0  0  0
   58.4840   28.4550   42.7290 H   0  0  0  0  0  0  0  0  0  0  0  0
   60.4234   28.2469   43.8637 H   0  0  0  0  0  0  0  0  0  0  0  0
   59.6206   29.4490   44.9068 H   0  0  0  0  0  0  0  0  0  0  0  0
   60.5224   26.9432   45.7585 H   0  0  0  0  0  0  0  0  0  0  0  0
   59.2925   27.8863   46.6102 H   0  0  0  0  0  0  0  0  0  0  0  0
   58.9637   25.3872   45.1468 H   0  0  0  0  0  0  0  0  0  0  0  0
   57.7091   26.2817   46.0167 H   0  0  0  0  0  0  0  0  0  0  0  0
   58.3476   26.2363   43.1032 H   0  0  0  0  0  0  0  0  0  0  0  0
   56.8363   26.7370   43.9063 H   0  0  0  0  0  0  0  0  0  0  0  0
   58.4232   34.4114   43.5189 H   0  0  0  0  0  0  0  0  0  0  0  0
   59.4293   36.3063   44.7787 H   0  0  0  0  0  0  0  0  0  0  0  0
   60.0974   36.0141   47.1576 H   0  0  0  0  0  0  0  0  0  0  0  0
   59.7695   33.8271   48.2957 H   0  0  0  0  0  0  0  0  0  0  0  0
  1  2  1  0
  2  3  1  0
  3  4  2  0
  4  5  1  0
  5  6  2  0
  5  7  2  0
  5  8  1  0
  8  9  1  0
  9 10  1  0
 10 11  1  0
 11 12  1  0
  4 13  1  0
 13 14  2  0
 13 15  1  0
 15 16  2  0
 16 17  1  0
 17 18  2  0
 18 19  1  0
 19 20  2  0
 20  2  1  0
 12  8  1  0
 20 15  1  0
  1 21  1  0
  1 22  1  0
  1 23  1  0
  3 24  1  0
  8 25  1  0
  9 26  1  0
  9 27  1  0
 10 28  1  0
 10 29  1  0
 11 30  1  0
 11 31  1  0
 12 32  1  0
 12 33  1  0
 16 34  1  0
 17 35  1  0
 18 36  1  0
 19 37  1  0
M  CHG  1   8   1
M  END
>  <UniqueID>  (86) 
78

>  <SMILES>  (86) 
Cn1cc(S(=O)(=O)[NH+]2CCCC2)c(=O)c2ccccc21

>  <Energy>  (86) 
49.45421333103175

>  <Genealogy>  (86) 
Cn1cc(S(=O)(=O)[NH+]2CCCC2)c(=O)c2ccccc21 (protonated)
Cn1cc(S(=O)(=O)[NH+]2CCCC2)c(=O)c2ccccc21 (3D coordinates assigned)
Cn1cc(S(=O)(=O)[NH+]2CCCC2)c(=O)c2ccccc21 (nonaromatic ring conformer: 49.45421333103175 kcal/mol)

>  <smiles>  (86) 
Cn1cc(S(=O)(=O)N2CCCC2)c(=O)c2ccccc21

>  <score_type>  (86) 
oracle

>  <origin>  (86) 
adg

>  <m_score__min__energy>  (86) 
-6.3899999999999997

>  <m_primary>  (86) 
energy

$$$$
86:0
     RDKit          3D

 37 39  0  0  0  0  0  0  0  0999 V2000
   59.6130   35.7680   47.1210 O   0  0  0  0  0  0  0  0  0  0  0  0
   59.8720   34.5790   47.4440 C   0  0  0  0  0  0  0  0  0  0  0  0
   58.7920   33.6390   47.5390 N   0  0  0  0  0  0  0  0  0  0  0  0
   58.7380   32.3520   46.9080 C   0  0  0  0  0  0  0  0  0  0  0  0
   58.1490   32.1720   45.6500 C   0  0  0  0  0  0  0  0  0  0  0  0
   58.1210   30.9000   45.0770 C   0  0  0  0  0  0  0  0  0  0  0  0
   58.6630   29.8280   45.7310 N   0  0  0  0  0  0  0  0  0  0  0  0
   58.6300   28.5400   45.0870 C   0  0  0  0  0  0  0  0  0  0  0  0
   59.3130   28.3560   44.0420 O   0  0  0  0  0  0  0  0  0  0  0  0
   57.8160   27.4210   45.6270 C   0  0  0  0  0  0  0  0  0  0  0  0
   58.4630   26.3350   46.2420 C   0  0  0  0  0  0  0  0  0  0  0  0
   57.7250   25.2640   46.7500 C   0  0  0  0  0  0  0  0  0  0  0  0
   56.3330   25.2670   46.6570 C   0  0  0  0  0  0  0  0  0  0  0  0
   55.6710   26.3460   46.0660 C   0  0  0  0  0  0  0  0  0  0  0  0
   54.2830   26.3360   45.9930 O   0  0  0  0  0  0  0  0  0  0  0  0
   56.4050   27.4320   45.5560 C   0  0  0  0  0  0  0  0  0  0  0  0
   55.7400   28.5280   44.9990 O   0  0  0  0  0  0  0  0  0  0  0  0
   59.2000   29.9800   46.9850 C   0  0  0  0  0  0  0  0  0  0  0  0
   59.6530   28.9860   47.6170 O   0  0  0  0  0  0  0  0  0  0  0  0
   59.2430   31.2430   47.5860 C   0  0  0  0  0  0  0  0  0  0  0  0
   61.2700   34.2090   47.7530 C   0  0  0  0  0  0  0  0  0  0  0  0
   62.1640   33.8050   46.7470 C   0  0  0  0  0  0  0  0  0  0  0  0
   63.4710   33.4570   47.0890 C   0  0  0  0  0  0  0  0  0  0  0  0
   63.8760   33.4990   48.4240 C   0  0  0  0  0  0  0  0  0  0  0  0
   62.9580   33.8840   49.4020 C   0  0  0  0  0  0  0  0  0  0  0  0
   61.6890   34.2230   49.0500 N   0  0  0  0  0  0  0  0  0  0  0  0
   57.7110   33.0286   45.1167 H   0  0  0  0  0  0  0  0  0  0  0  0
   57.6583   30.7580   44.0892 H   0  0  0  0  0  0  0  0  0  0  0  0
   59.5599   26.3289   46.3237 H   0  0  0  0  0  0  0  0  0  0  0  0
   58.2419   24.4167   47.2242 H   0  0  0  0  0  0  0  0  0  0  0  0
   55.7551   24.4175   47.0501 H   0  0  0  0  0  0  0  0  0  0  0  0
   54.7750   28.4790   44.6960 H   0  0  0  0  0  0  0  0  0  0  0  0
   59.6742   31.3608   48.5911 H   0  0  0  0  0  0  0  0  0  0  0  0
   61.8358   33.7634   45.6979 H   0  0  0  0  0  0  0  0  0  0  0  0
   64.1815   33.1499   46.3074 H   0  0  0  0  0  0  0  0  0  0  0  0
   64.9063   33.2319   48.7019 H   0  0  0  0  0  0  0  0  0  0  0  0
   63.2613   33.9133   50.4590 H   0  0  0  0  0  0  0  0  0  0  0  0
  1  2  2  0
  2  3  1  0
  3  4  1  0
  4  5  1  0
  5  6  2  0
  6  7  1  0
  7  8  1  0
  8  9  2  0
  8 10  1  0
 10 11  2  0
 11 12  1  0
 12 13  2  0
 13 14  1  0
 14 15  1  0
 14 16  2  0
 16 17  1  0
  7 18  1  0
 18 19  2  0
 18 20  1  0
  2 21  1  0
 21 22  2  0
 22 23  1  0
 23 24  2  0
 24 25  1  0
 25 26  2  0
 20  4  2  0
 26 21  1  0
 16 10  1  0
  5 27  1  0
  6 28  1  0
 11 29  1  0
 12 30  1  0
 13 31  1  0
 17 32  1  0
 20 33  1  0
 22 34  1  0
 23 35  1  0
 24 36  1  0
 25 37  1  0
M  CHG  2   3  -1  15  -1
M  END
>  <UniqueID>  (87) 
79

>  <SMILES>  (87) 
O=C([N-]c1ccn(C(=O)c2cccc([O-])c2O)c(=O)c1)c1ccccn1

>  <Energy>  (87) 
58.20302346814414

>  <Genealogy>  (87) 
O=C([N-]c1ccn(C(=O)c2cccc([O-])c2O)c(=O)c1)c1ccccn1 (protonated)
O=C([N-]c1ccn(C(=O)c2cccc([O-])c2O)c(=O)c1)c1ccccn1 (3D coordinates assigned)
O=C([N-]c1ccn(C(=O)c2cccc([O-])c2O)c(=O)c1)c1ccccn1 (optimized conformer: 58.20302346814414 kcal/mol)

>  <smiles>  (87) 
O=C(Nc1ccn(C(=O)c2cccc(O)c2O)c(=O)c1)c1ccccn1

>  <score_type>  (87) 
oracle

>  <origin>  (87) 
adg

>  <m_score__min__energy>  (87) 
-13.51

>  <m_primary>  (87) 
energy

$$$$
87:0
     RDKit          3D

 24 24  0  0  0  0  0  0  0  0999 V2000
   59.1065   35.1032   46.2760 H   0  0  0  0  0  0  0  0  0  0  0  0
   58.6430   34.1380   46.0240 C   0  0  0  0  0  0  0  0  0  0  0  0
   57.4380   33.8870   44.8750 S   0  0  0  0  0  0  0  0  0  0  0  0
   57.3550   32.2350   45.1570 C   0  0  0  0  0  0  0  0  0  0  0  0
   56.5600   31.4440   44.4950 N   0  0  0  0  0  0  0  0  0  0  0  0
   56.5360   30.0080   44.4950 C   0  0  0  0  0  0  0  0  0  0  0  0
   55.5180   29.3680   44.8710 O   0  0  0  0  0  0  0  0  0  0  0  0
   57.7270   29.2560   43.9940 C   0  0  0  0  0  0  0  0  0  0  0  0
   58.0068   29.6395   43.0017 H   0  0  0  0  0  0  0  0  0  0  0  0
   57.4730   28.1878   43.9282 H   0  0  0  0  0  0  0  0  0  0  0  0
   58.8270   29.4160   44.8870 O   0  0  0  0  0  0  0  0  0  0  0  0
   58.9910   28.6490   46.0470 C   0  0  0  0  0  0  0  0  0  0  0  0
   58.2370   28.8170   47.0440 O   0  0  0  0  0  0  0  0  0  0  0  0
   60.1040   27.6610   46.1220 C   0  0  0  0  0  0  0  0  0  0  0  0
   60.3388   27.4525   47.1762 H   0  0  0  0  0  0  0  0  0  0  0  0
   59.8011   26.7289   45.6226 H   0  0  0  0  0  0  0  0  0  0  0  0
   60.9936   28.0722   45.6226 H   0  0  0  0  0  0  0  0  0  0  0  0
   58.2430   31.8510   46.1060 N   0  0  0  0  0  0  0  0  0  0  0  0
   58.4220   30.8710   46.4130 H   0  0  0  0  0  0  0  0  0  0  0  0
   58.9490   32.9060   46.5990 C   0  0  0  0  0  0  0  0  0  0  0  0
   60.0340   32.7340   47.6140 C   0  0  0  0  0  0  0  0  0  0  0  0
   59.6049   32.8020   48.6246 H   0  0  0  0  0  0  0  0  0  0  0  0
   60.5069   31.7497   47.4820 H   0  0  0  0  0  0  0  0  0  0  0  0
   60.7882   33.5238   47.4820 H   0  0  0  0  0  0  0  0  0  0  0  0
  1  2  1  0
  2  3  1  0
  3  4  1  0
  4  5  2  0
  5  6  1  0
  6  7  2  0
  6  8  1  0
  8  9  1  0
  8 10  1  0
  8 11  1  0
 11 12  1  0
 12 13  2  0
 12 14  1  0
 14 15  1  0
 14 16  1  0
 14 17  1  0
  4 18  1  0
 18 19  1  0
 18 20  1  0
 20 21  1  0
 21 22  1  0
 21 23  1  0
 21 24  1  0
 20  2  2  0
M  END
>  <UniqueID>  (88) 
80

>  <SMILES>  (88) 
CC(=O)OCC(=O)/N=c1\[nH]c(C)cs1

>  <Energy>  (88) 
50.6895207299104

>  <Genealogy>  (88) 
CC(=O)OCC(=O)/N=c1\[nH]c(C)cs1 (cis-trans isomerization)
CC(=O)OCC(=O)/N=c1\[nH]c(C)cs1 (3D coordinates assigned)
CC(=O)OCC(=O)/N=c1\[nH]c(C)cs1 (optimized conformer: 50.6895207299104 kcal/mol)

>  <smiles>  (88) 
CC(=O)OCC(=O)N=c1[nH]c(C)cs1

>  <score_type>  (88) 
oracle

>  <origin>  (88) 
adg

>  <m_score__min__energy>  (88) 
-5.21

>  <m_primary>  (88) 
energy

$$$$
88:0
     RDKit          3D

 60 63  0  0  0  0  0  0  0  0999 V2000
   55.4830   29.7340   44.0760 O   0  0  0  0  0  0  0  0  0  0  0  0
   56.5500   30.1450   44.6010 C   0  0  0  0  0  0  0  0  0  0  0  0
   56.6660   31.5390   44.9030 N   0  0  0  0  0  0  0  0  0  0  0  0
   57.7350   32.4030   44.4130 C   0  0  0  0  0  0  0  0  0  0  0  0
   57.8780   33.6300   45.3350 C   0  0  0  0  0  0  0  0  0  0  0  0
   57.0280   33.4770   46.6260 C   0  0  0  0  0  0  0  0  0  0  0  0
   57.8960   33.0740   47.8210 C   0  0  0  0  0  0  0  0  0  0  0  0
   58.8980   34.1210   48.1290 N   0  0  0  0  0  0  0  0  0  0  0  0
   59.9090   33.6120   49.0750 C   0  0  0  0  0  0  0  0  0  0  0  0
   59.2640   33.2960   50.3980 C   0  0  0  0  0  0  0  0  0  0  0  0
   58.5590   32.0910   50.5640 C   0  0  0  0  0  0  0  0  0  0  0  0
   57.9560   31.7860   51.7890 C   0  0  0  0  0  0  0  0  0  0  0  0
   58.0450   32.6860   52.8550 C   0  0  0  0  0  0  0  0  0  0  0  0
   58.7280   33.8960   52.6940 C   0  0  0  0  0  0  0  0  0  0  0  0
   59.3360   34.2010   51.4710 C   0  0  0  0  0  0  0  0  0  0  0  0
   59.5150   34.7530   46.9240 C   0  0  0  0  0  0  0  0  0  0  0  0
   59.3700   33.9000   45.6530 C   0  0  0  0  0  0  0  0  0  0  0  0
   57.6120   29.1700   44.9520 C   0  0  0  0  0  0  0  0  0  0  0  0
   58.2430   28.4330   43.9400 C   0  0  0  0  0  0  0  0  0  0  0  0
   59.1920   27.4590   44.2610 C   0  0  0  0  0  0  0  0  0  0  0  0
   59.5220   27.2120   45.5960 C   0  0  0  0  0  0  0  0  0  0  0  0
   58.9020   27.9450   46.6240 C   0  0  0  0  0  0  0  0  0  0  0  0
   59.1990   27.7250   48.0100 N   0  0  0  0  0  0  0  0  0  0  0  0
   59.4560   28.9540   49.2070 S   0  0  0  0  0  0  0  0  0  0  0  0
   58.1530   29.5980   49.5820 O   0  0  0  0  0  0  0  0  0  0  0  0
   60.0380   28.3210   50.4400 O   0  0  0  0  0  0  0  0  0  0  0  0
   60.5970   30.1390   48.5800 C   0  0  0  0  0  0  0  0  0  0  0  0
   60.4150   30.6580   47.2880 C   0  0  0  0  0  0  0  0  0  0  0  0
   61.2860   31.6340   46.7890 C   0  0  0  0  0  0  0  0  0  0  0  0
   62.3380   32.1030   47.5800 C   0  0  0  0  0  0  0  0  0  0  0  0
   63.4120   33.3440   46.9620 Cl  0  0  0  0  0  0  0  0  0  0  0  0
   62.5310   31.5860   48.8660 C   0  0  0  0  0  0  0  0  0  0  0  0
   61.6640   30.6040   49.3650 C   0  0  0  0  0  0  0  0  0  0  0  0
   57.9440   28.9070   46.2940 C   0  0  0  0  0  0  0  0  0  0  0  0
   58.6814   31.8425   44.4015 H   0  0  0  0  0  0  0  0  0  0  0  0
   57.4918   32.7401   43.3946 H   0  0  0  0  0  0  0  0  0  0  0  0
   57.4844   34.5075   44.8010 H   0  0  0  0  0  0  0  0  0  0  0  0
   56.5372   34.4363   46.8473 H   0  0  0  0  0  0  0  0  0  0  0  0
   56.2816   32.6867   46.4578 H   0  0  0  0  0  0  0  0  0  0  0  0
   57.2510   32.9244   48.6994 H   0  0  0  0  0  0  0  0  0  0  0  0
   58.4277   32.1445   47.5692 H   0  0  0  0  0  0  0  0  0  0  0  0
   60.3646   32.6988   48.6646 H   0  0  0  0  0  0  0  0  0  0  0  0
   60.6821   34.3801   49.2248 H   0  0  0  0  0  0  0  0  0  0  0  0
   58.4810   31.3835   49.7253 H   0  0  0  0  0  0  0  0  0  0  0  0
   57.4119   30.8381   51.9134 H   0  0  0  0  0  0  0  0  0  0  0  0
   57.5778   32.4426   53.8206 H   0  0  0  0  0  0  0  0  0  0  0  0
   58.7873   34.6087   53.5298 H   0  0  0  0  0  0  0  0  0  0  0  0
   59.8727   35.1534   51.3489 H   0  0  0  0  0  0  0  0  0  0  0  0
   59.0288   35.7244   46.7508 H   0  0  0  0  0  0  0  0  0  0  0  0
   60.5911   34.8604   47.1253 H   0  0  0  0  0  0  0  0  0  0  0  0
   59.8276   34.4338   44.8070 H   0  0  0  0  0  0  0  0  0  0  0  0
   59.8741   32.9362   45.8174 H   0  0  0  0  0  0  0  0  0  0  0  0
   57.9894   28.6227   42.8866 H   0  0  0  0  0  0  0  0  0  0  0  0
   59.6809   26.8849   43.4601 H   0  0  0  0  0  0  0  0  0  0  0  0
   60.2682   26.4427   45.8436 H   0  0  0  0  0  0  0  0  0  0  0  0
   59.5840   30.2960   46.6648 H   0  0  0  0  0  0  0  0  0  0  0  0
   61.1420   32.0318   45.7736 H   0  0  0  0  0  0  0  0  0  0  0  0
   63.3636   31.9504   49.4857 H   0  0  0  0  0  0  0  0  0  0  0  0
   61.8202   30.1965   50.3747 H   0  0  0  0  0  0  0  0  0  0  0  0
   57.4413   29.4677   47.0959 H   0  0  0  0  0  0  0  0  0  0  0  0
  1  2  2  0
  2  3  1  0
  3  4  1  0
  4  5  1  0
  5  6  1  0
  6  7  1  0
  7  8  1  0
  8  9  1  0
  9 10  1  0
 10 11  2  0
 11 12  1  0
 12 13  2  0
 13 14  1  0
 14 15  2  0
  8 16  1  0
 16 17  1  0
  2 18  1  0
 18 19  2  0
 19 20  1  0
 20 21  2  0
 21 22  1  0
 22 23  1  0
 23 24  1  0
 24 25  2  0
 24 26  2  0
 24 27  1  0
 27 28  2  0
 28 29  1  0
 29 30  2  0
 30 31  1  0
 30 32  1  0
 32 33  2  0
 22 34  2  0
 17  5  1  0
 34 18  1  0
 15 10  1  0
 33 27  1  0
  4 35  1  0
  4 36  1  0
  5 37  1  0
  6 38  1  0
  6 39  1  0
  7 40  1  0
  7 41  1  0
  9 42  1  0
  9 43  1  0
 11 44  1  0
 12 45  1  0
 13 46  1  0
 14 47  1  0
 15 48  1  0
 16 49  1  0
 16 50  1  0
 17 51  1  0
 17 52  1  0
 19 53  1  0
 20 54  1  0
 21 55  1  0
 28 56  1  0
 29 57  1  0
 32 58  1  0
 33 59  1  0
 34 60  1  0
M  CHG  2   3  -1  23  -1
M  END
>  <UniqueID>  (89) 
81

>  <SMILES>  (89) 
O=C([N-]CC1CCN(Cc2ccccc2)CC1)c1cccc([N-]S(=O)(=O)c2ccc(Cl)cc2)c1

>  <Energy>  (89) 
79.91576459764124

>  <Genealogy>  (89) 
O=C([N-]CC1CCN(Cc2ccccc2)CC1)c1cccc([N-]S(=O)(=O)c2ccc(Cl)cc2)c1 (protonated)
O=C([N-]CC1CCN(Cc2ccccc2)CC1)c1cccc([N-]S(=O)(=O)c2ccc(Cl)cc2)c1 (3D coordinates assigned)
O=C([N-]CC1CCN(Cc2ccccc2)CC1)c1cccc([N-]S(=O)(=O)c2ccc(Cl)cc2)c1 (nonaromatic ring conformer: 79.91576459764124 kcal/mol)

>  <smiles>  (89) 
O=C(NCC1CCN(Cc2ccccc2)CC1)c1cccc(NS(=O)(=O)c2ccc(Cl)cc2)c1

>  <score_type>  (89) 
oracle

>  <origin>  (89) 
adg

>  <m_score__min__energy>  (89) 
-12.81

>  <m_primary>  (89) 
energy

$$$$
89:0
     RDKit          3D

 36 37  0  0  0  0  0  0  0  0999 V2000
   59.2660   27.2150   45.0850 O   0  0  0  0  0  0  0  0  0  0  0  0
   58.2670   26.4970   45.3480 C   0  0  0  0  0  0  0  0  0  0  0  0
   56.9360   27.0740   45.6700 C   0  0  0  0  0  0  0  0  0  0  0  0
   56.6300   28.3310   45.4940 N   0  0  0  0  0  0  0  0  0  0  0  0
   56.9620   29.2030   44.3650 C   0  0  0  0  0  0  0  0  0  0  0  0
   57.5220   30.5250   44.8310 C   0  0  0  0  0  0  0  0  0  0  0  0
   57.2720   31.6930   44.0940 C   0  0  0  0  0  0  0  0  0  0  0  0
   57.7560   32.9270   44.5350 C   0  0  0  0  0  0  0  0  0  0  0  0
   58.4690   33.0220   45.7400 C   0  0  0  0  0  0  0  0  0  0  0  0
   59.0280   34.3560   46.1770 C   0  0  0  0  0  0  0  0  0  0  0  0
   60.4890   34.3870   46.1030 N   0  0  0  0  0  0  0  0  0  0  0  0
   61.4180   33.9540   46.9190 C   0  0  0  0  0  0  0  0  0  0  0  0
   62.6360   33.6640   46.3710 N   0  0  0  0  0  0  0  0  0  0  0  0
   63.6760   33.1870   47.1050 C   0  0  0  0  0  0  0  0  0  0  0  0
   63.5300   32.9810   48.4710 C   0  0  0  0  0  0  0  0  0  0  0  0
   62.3130   33.2730   49.0760 C   0  0  0  0  0  0  0  0  0  0  0  0
   61.2420   33.7650   48.3240 C   0  0  0  0  0  0  0  0  0  0  0  0
   59.7870   34.1360   49.2430 Cl  0  0  0  0  0  0  0  0  0  0  0  0
   58.7300   31.8510   46.4740 C   0  0  0  0  0  0  0  0  0  0  0  0
   58.2400   30.6180   46.0350 C   0  0  0  0  0  0  0  0  0  0  0  0
   55.9010   26.1950   46.2460 C   0  0  0  0  0  0  0  0  0  0  0  0
   54.6870   26.3370   45.9380 O   0  0  0  0  0  0  0  0  0  0  0  0
   56.2600   25.1890   47.1370 O   0  0  0  0  0  0  0  0  0  0  0  0
   58.3829   25.4032   45.3393 H   0  0  0  0  0  0  0  0  0  0  0  0
   57.7100   28.7009   43.7338 H   0  0  0  0  0  0  0  0  0  0  0  0
   56.0396   29.4000   43.7990 H   0  0  0  0  0  0  0  0  0  0  0  0
   56.6905   31.6363   43.1620 H   0  0  0  0  0  0  0  0  0  0  0  0
   57.5770   33.8305   43.9336 H   0  0  0  0  0  0  0  0  0  0  0  0
   58.6222   35.1426   45.5238 H   0  0  0  0  0  0  0  0  0  0  0  0
   58.7366   34.5205   47.2248 H   0  0  0  0  0  0  0  0  0  0  0  0
   62.7850   33.8020   45.3460 H   0  0  0  0  0  0  0  0  0  0  0  0
   64.6357   32.9636   46.6160 H   0  0  0  0  0  0  0  0  0  0  0  0
   64.3681   32.5911   49.0673 H   0  0  0  0  0  0  0  0  0  0  0  0
   62.1914   33.1153   50.1578 H   0  0  0  0  0  0  0  0  0  0  0  0
   59.3231   31.9060   47.3988 H   0  0  0  0  0  0  0  0  0  0  0  0
   58.4177   29.7142   46.6362 H   0  0  0  0  0  0  0  0  0  0  0  0
  1  2  2  0
  2  3  1  0
  3  4  2  3
  4  5  1  0
  5  6  1  0
  6  7  2  0
  7  8  1  0
  8  9  2  0
  9 10  1  0
 10 11  1  0
 11 12  2  3
 12 13  1  0
 13 14  1  0
 14 15  2  0
 15 16  1  0
 16 17  2  0
 17 18  1  0
  9 19  1  0
 19 20  2  0
  3 21  1  0
 21 22  2  0
 21 23  1  0
 20  6  1  0
 17 12  1  0
  2 24  1  0
  5 25  1  0
  5 26  1  0
  7 27  1  0
  8 28  1  0
 10 29  1  0
 10 30  1  0
 13 31  1  0
 14 32  1  0
 15 33  1  0
 16 34  1  0
 19 35  1  0
 20 36  1  0
M  CHG  1  23  -1
M  END
>  <UniqueID>  (90) 
82

>  <SMILES>  (90) 
O=CC(=NCc1ccc(CN=c2[nH]cccc2Cl)cc1)C(=O)[O-]

>  <Energy>  (90) 
49.691560145977355

>  <Genealogy>  (90) 
O=CC(=NCc1ccc(CN=c2[nH]cccc2Cl)cc1)C(=O)[O-] (protonated)
O=CC(=NCc1ccc(CN=c2[nH]cccc2Cl)cc1)C(=O)[O-] (3D coordinates assigned)
O=CC(=NCc1ccc(CN=c2[nH]cccc2Cl)cc1)C(=O)[O-] (optimized conformer: 49.691560145977355 kcal/mol)

>  <smiles>  (90) 
O=CC(=NCc1ccc(CN=c2[nH]cccc2Cl)cc1)C(=O)O

>  <score_type>  (90) 
oracle

>  <origin>  (90) 
adg

>  <m_score__min__energy>  (90) 
-10.140000000000001

>  <m_primary>  (90) 
energy

$$$$
90:0
     RDKit          3D

 45 47  0  0  0  0  0  0  0  0999 V2000
   54.3800   25.9630   46.3220 H   0  0  0  0  0  0  0  0  0  0  0  0
   53.6890   25.7100   45.6540 O   0  0  0  0  0  0  0  0  0  0  0  0
   54.0390   24.4400   45.1770 C   0  0  0  0  0  0  0  0  0  0  0  0
   53.9561   24.4331   44.0801 H   0  0  0  0  0  0  0  0  0  0  0  0
   53.3570   23.7003   45.6217 H   0  0  0  0  0  0  0  0  0  0  0  0
   55.4730   24.0770   45.5720 C   0  0  0  0  0  0  0  0  0  0  0  0
   56.1288   24.1981   44.6972 H   0  0  0  0  0  0  0  0  0  0  0  0
   55.4872   23.0344   45.9223 H   0  0  0  0  0  0  0  0  0  0  0  0
   55.9530   24.9400   46.6540 N   0  0  0  0  0  0  0  0  0  0  0  0
   56.5670   26.0750   46.4920 C   0  0  0  0  0  0  0  0  0  0  0  0
   56.0670   27.0330   45.6620 N   0  0  0  0  0  0  0  0  0  0  0  0
   56.6850   28.2300   45.4860 C   0  0  0  0  0  0  0  0  0  0  0  0
   56.2567   28.9715   44.7955 H   0  0  0  0  0  0  0  0  0  0  0  0
   57.8680   28.5240   46.1820 C   0  0  0  0  0  0  0  0  0  0  0  0
   58.5390   29.8280   45.9860 C   0  0  0  0  0  0  0  0  0  0  0  0
   59.7820   29.8540   45.7820 O   0  0  0  0  0  0  0  0  0  0  0  0
   57.8250   31.0720   46.0190 N   0  0  0  0  0  0  0  0  0  0  0  0
   58.3750   32.3680   45.7450 C   0  0  0  0  0  0  0  0  0  0  0  0
   57.5630   33.2930   45.0750 C   0  0  0  0  0  0  0  0  0  0  0  0
   56.5597   32.9927   44.7387 H   0  0  0  0  0  0  0  0  0  0  0  0
   58.0130   34.5900   44.8300 C   0  0  0  0  0  0  0  0  0  0  0  0
   57.3792   35.2958   44.2730 H   0  0  0  0  0  0  0  0  0  0  0  0
   59.2640   34.9920   45.2900 C   0  0  0  0  0  0  0  0  0  0  0  0
   59.6168   36.0161   45.0984 H   0  0  0  0  0  0  0  0  0  0  0  0
   60.0710   34.0970   45.9940 C   0  0  0  0  0  0  0  0  0  0  0  0
   61.0427   34.4349   46.3835 H   0  0  0  0  0  0  0  0  0  0  0  0
   59.6590   32.7640   46.2140 C   0  0  0  0  0  0  0  0  0  0  0  0
   60.4660   31.8930   47.0470 N   0  0  0  0  0  0  0  0  0  0  0  0
   61.1890   31.3840   46.4970 H   0  0  0  0  0  0  0  0  0  0  0  0
   59.8270   31.1710   47.4560 H   0  0  0  0  0  0  0  0  0  0  0  0
   61.1560   32.6150   48.0940 C   0  0  0  0  0  0  0  0  0  0  0  0
   60.4330   33.3980   49.0140 C   0  0  0  0  0  0  0  0  0  0  0  0
   59.3397   33.4785   48.9228 H   0  0  0  0  0  0  0  0  0  0  0  0
   61.0960   34.0740   50.0430 C   0  0  0  0  0  0  0  0  0  0  0  0
   60.5237   34.6885   50.7535 H   0  0  0  0  0  0  0  0  0  0  0  0
   62.4830   33.9710   50.1710 C   0  0  0  0  0  0  0  0  0  0  0  0
   63.0017   34.5033   50.9819 H   0  0  0  0  0  0  0  0  0  0  0  0
   63.2120   33.1910   49.2680 C   0  0  0  0  0  0  0  0  0  0  0  0
   64.9540   33.0670   49.4250 Cl  0  0  0  0  0  0  0  0  0  0  0  0
   62.5530   32.5140   48.2370 C   0  0  0  0  0  0  0  0  0  0  0  0
   63.1306   31.8978   47.5323 H   0  0  0  0  0  0  0  0  0  0  0  0
   58.4080   27.5430   47.0260 C   0  0  0  0  0  0  0  0  0  0  0  0
   59.3487   27.7378   47.5618 H   0  0  0  0  0  0  0  0  0  0  0  0
   57.7550   26.3200   47.1880 C   0  0  0  0  0  0  0  0  0  0  0  0
   58.1720   25.5542   47.8585 H   0  0  0  0  0  0  0  0  0  0  0  0
  1  2  1  0
  2  3  1  0
  3  4  1  0
  3  5  1  0
  3  6  1  0
  6  7  1  0
  6  8  1  0
  6  9  1  0
  9 10  2  0
 10 11  1  0
 11 12  1  0
 12 13  1  0
 12 14  2  0
 14 15  1  0
 15 16  2  0
 15 17  1  0
 17 18  1  0
 18 19  2  0
 19 20  1  0
 19 21  1  0
 21 22  1  0
 21 23  2  0
 23 24  1  0
 23 25  1  0
 25 26  1  0
 25 27  2  0
 27 28  1  0
 28 29  1  0
 28 30  1  0
 28 31  1  0
 31 32  2  0
 32 33  1  0
 32 34  1  0
 34 35  1  0
 34 36  2  0
 36 37  1  0
 36 38  1  0
 38 39  1  0
 38 40  2  0
 40 41  1  0
 14 42  1  0
 42 43  1  0
 42 44  2  0
 44 45  1  0
 44 10  1  0
 27 18  1  0
 40 31  1  0
M  CHG  3  11  -1  17  -1  28   1
M  END
>  <UniqueID>  (91) 
83

>  <SMILES>  (91) 
O=C([N-]c1ccccc1[NH2+]c1cccc(Cl)c1)c1cc/c(=N/CCO)[n-]c1

>  <Energy>  (91) 
60.583077051941814

>  <Genealogy>  (91) 
O=C([N-]c1ccccc1[NH2+]c1cccc(Cl)c1)c1ccc(=NCCO)[n-]c1 (protonated)
O=C([N-]c1ccccc1[NH2+]c1cccc(Cl)c1)c1cc/c(=N/CCO)[n-]c1 (cis-trans isomerization)
O=C([N-]c1ccccc1[NH2+]c1cccc(Cl)c1)c1cc/c(=N/CCO)[n-]c1 (3D coordinates assigned)
O=C([N-]c1ccccc1[NH2+]c1cccc(Cl)c1)c1cc/c(=N/CCO)[n-]c1 (optimized conformer: 60.583077051941814 kcal/mol)

>  <smiles>  (91) 
O=C(Nc1ccccc1Nc1cccc(Cl)c1)c1ccc(=NCCO)[nH]c1

>  <score_type>  (91) 
oracle

>  <origin>  (91) 
adg

>  <m_score__min__energy>  (91) 
-9.6199999999999992

>  <m_primary>  (91) 
energy

$$$$
91:0
     RDKit          3D

 40 41  0  0  0  0  0  0  0  0999 V2000
   60.4600   26.3420   46.6290 C   0  0  0  0  0  0  0  0  0  0  0  0
   59.3400   27.1420   47.2920 C   0  0  0  0  0  0  0  0  0  0  0  0
   58.6600   28.0530   46.2940 C   0  0  0  0  0  0  0  0  0  0  0  0
   59.3390   29.2220   45.9080 C   0  0  0  0  0  0  0  0  0  0  0  0
   58.7790   30.0980   45.0340 N   0  0  0  0  0  0  0  0  0  0  0  0
   57.5440   29.8880   44.5030 C   0  0  0  0  0  0  0  0  0  0  0  0
   56.9700   30.8780   43.5250 C   0  0  0  0  0  0  0  0  0  0  0  0
   57.8770   32.0350   43.3720 N   0  0  0  0  0  0  0  0  0  0  0  0
   58.1340   32.3450   41.9550 C   0  0  0  0  0  0  0  0  0  0  0  0
   57.4120   33.2210   44.1280 C   0  0  0  0  0  0  0  0  0  0  0  0
   58.1820   33.4680   45.4090 C   0  0  0  0  0  0  0  0  0  0  0  0
   59.2830   34.3380   45.4290 C   0  0  0  0  0  0  0  0  0  0  0  0
   59.9880   34.5490   46.6160 C   0  0  0  0  0  0  0  0  0  0  0  0
   59.5820   33.8910   47.7780 C   0  0  0  0  0  0  0  0  0  0  0  0
   58.5090   33.0570   47.7490 N   0  0  0  0  0  0  0  0  0  0  0  0
   57.8080   32.8340   46.6050 C   0  0  0  0  0  0  0  0  0  0  0  0
   56.8350   28.7280   44.8360 C   0  0  0  0  0  0  0  0  0  0  0  0
   57.3850   27.7880   45.7210 C   0  0  0  0  0  0  0  0  0  0  0  0
   56.5790   26.5720   45.9940 C   0  0  0  0  0  0  0  0  0  0  0  0
   55.3210   26.5790   45.9940 O   0  0  0  0  0  0  0  0  0  0  0  0
   61.0950   25.8884   47.4042 H   0  0  0  0  0  0  0  0  0  0  0  0
   60.0237   25.5499   46.0027 H   0  0  0  0  0  0  0  0  0  0  0  0
   61.0677   27.0116   46.0027 H   0  0  0  0  0  0  0  0  0  0  0  0
   58.5971   26.4449   47.7070 H   0  0  0  0  0  0  0  0  0  0  0  0
   59.7764   27.7605   48.0902 H   0  0  0  0  0  0  0  0  0  0  0  0
   60.3377   29.4301   46.3195 H   0  0  0  0  0  0  0  0  0  0  0  0
   59.3160   30.9550   44.7720 H   0  0  0  0  0  0  0  0  0  0  0  0
   56.8386   30.3887   42.5486 H   0  0  0  0  0  0  0  0  0  0  0  0
   55.9998   31.2323   43.9034 H   0  0  0  0  0  0  0  0  0  0  0  0
   58.8347   33.1902   41.8858 H   0  0  0  0  0  0  0  0  0  0  0  0
   58.5711   31.4649   41.4606 H   0  0  0  0  0  0  0  0  0  0  0  0
   57.1882   32.6114   41.4606 H   0  0  0  0  0  0  0  0  0  0  0  0
   57.5169   34.1064   43.4837 H   0  0  0  0  0  0  0  0  0  0  0  0
   56.3669   33.0304   44.4133 H   0  0  0  0  0  0  0  0  0  0  0  0
   59.5913   34.8547   44.5081 H   0  0  0  0  0  0  0  0  0  0  0  0
   60.8542   35.2267   46.6349 H   0  0  0  0  0  0  0  0  0  0  0  0
   60.1309   34.0475   48.7183 H   0  0  0  0  0  0  0  0  0  0  0  0
   56.9437   32.1536   46.6166 H   0  0  0  0  0  0  0  0  0  0  0  0
   55.8401   28.5520   44.4011 H   0  0  0  0  0  0  0  0  0  0  0  0
   57.1022   25.6276   46.2046 H   0  0  0  0  0  0  0  0  0  0  0  0
  1  2  1  0
  2  3  1  0
  3  4  2  0
  4  5  1  0
  5  6  2  0
  6  7  1  0
  7  8  1  0
  8  9  1  0
  8 10  1  0
 10 11  1  0
 11 12  2  0
 12 13  1  0
 13 14  2  0
 14 15  1  0
 15 16  2  0
  6 17  1  0
 17 18  2  0
 18 19  1  0
 19 20  2  0
 18  3  1  0
 16 11  1  0
  1 21  1  0
  1 22  1  0
  1 23  1  0
  2 24  1  0
  2 25  1  0
  4 26  1  0
  5 27  1  0
  7 28  1  0
  7 29  1  0
  9 30  1  0
  9 31  1  0
  9 32  1  0
 10 33  1  0
 10 34  1  0
 12 35  1  0
 13 36  1  0
 14 37  1  0
 16 38  1  0
 17 39  1  0
 19 40  1  0
M  CHG  1   5   1
M  END
>  <UniqueID>  (92) 
84

>  <SMILES>  (92) 
CCc1c[nH+]c(CN(C)Cc2cccnc2)cc1C=O

>  <Energy>  (92) 
45.09332433342505

>  <Genealogy>  (92) 
CCc1c[nH+]c(CN(C)Cc2cccnc2)cc1C=O (protonated)
CCc1c[nH+]c(CN(C)Cc2cccnc2)cc1C=O (3D coordinates assigned)
CCc1c[nH+]c(CN(C)Cc2cccnc2)cc1C=O (optimized conformer: 45.09332433342505 kcal/mol)

>  <smiles>  (92) 
CCc1cnc(CN(C)Cc2cccnc2)cc1C=O

>  <score_type>  (92) 
oracle

>  <origin>  (92) 
adg

>  <m_score__min__energy>  (92) 
-5.5499999999999998

>  <m_primary>  (92) 
energy

$$$$
92:0
     RDKit          3D

 50 52  0  0  0  0  0  0  0  0999 V2000
   57.9360   26.8680   43.8490 N   0  0  0  0  0  0  0  0  0  0  0  0
   57.6540   26.3400   45.4730 S   0  0  0  0  0  0  0  0  0  0  0  0
   58.1640   24.9340   45.6160 O   0  0  0  0  0  0  0  0  0  0  0  0
   56.1740   26.3610   45.7340 O   0  0  0  0  0  0  0  0  0  0  0  0
   58.4670   27.3750   46.6590 C   0  0  0  0  0  0  0  0  0  0  0  0
   59.4150   26.8290   47.5400 C   0  0  0  0  0  0  0  0  0  0  0  0
   60.0610   27.6400   48.4750 C   0  0  0  0  0  0  0  0  0  0  0  0
   59.7640   29.0010   48.5410 C   0  0  0  0  0  0  0  0  0  0  0  0
   58.8200   29.5560   47.6760 C   0  0  0  0  0  0  0  0  0  0  0  0
   58.1550   28.7510   46.7320 C   0  0  0  0  0  0  0  0  0  0  0  0
   57.1590   29.2850   45.8440 N   0  0  0  0  0  0  0  0  0  0  0  0
   57.3870   29.9360   44.2490 S   0  0  0  0  0  0  0  0  0  0  0  0
   56.6680   29.0450   43.2760 O   0  0  0  0  0  0  0  0  0  0  0  0
   58.8430   29.9520   43.8800 O   0  0  0  0  0  0  0  0  0  0  0  0
   56.6790   31.5750   44.1230 C   0  0  0  0  0  0  0  0  0  0  0  0
   57.7340   32.6230   43.7670 C   0  0  0  0  0  0  0  0  0  0  0  0
   58.4150   33.1370   45.0080 C   0  0  0  0  0  0  0  0  0  0  0  0
   59.2270   34.2810   44.9520 C   0  0  0  0  0  0  0  0  0  0  0  0
   59.8680   34.7470   46.1030 C   0  0  0  0  0  0  0  0  0  0  0  0
   59.7270   34.0620   47.3200 C   0  0  0  0  0  0  0  0  0  0  0  0
   60.3930   34.5800   48.5670 C   0  0  0  0  0  0  0  0  0  0  0  0
   61.7950   34.0470   48.6690 C   0  0  0  0  0  0  0  0  0  0  0  0
   62.4790   34.0860   49.8970 C   0  0  0  0  0  0  0  0  0  0  0  0
   63.7710   33.5580   50.0010 C   0  0  0  0  0  0  0  0  0  0  0  0
   64.3830   32.9800   48.8840 C   0  0  0  0  0  0  0  0  0  0  0  0
   63.7040   32.9270   47.6620 C   0  0  0  0  0  0  0  0  0  0  0  0
   62.4130   33.4530   47.5540 C   0  0  0  0  0  0  0  0  0  0  0  0
   58.9200   32.9150   47.3750 C   0  0  0  0  0  0  0  0  0  0  0  0
   58.2710   32.4530   46.2260 C   0  0  0  0  0  0  0  0  0  0  0  0
   58.3250   27.8370   43.8960 H   0  0  0  0  0  0  0  0  0  0  0  0
   57.0100   26.9180   43.3640 H   0  0  0  0  0  0  0  0  0  0  0  0
   59.6500   25.7554   47.4930 H   0  0  0  0  0  0  0  0  0  0  0  0
   60.8043   27.2054   49.1596 H   0  0  0  0  0  0  0  0  0  0  0  0
   60.2753   29.6388   49.2770 H   0  0  0  0  0  0  0  0  0  0  0  0
   58.5938   30.6310   47.7323 H   0  0  0  0  0  0  0  0  0  0  0  0
   55.9048   31.5694   43.3417 H   0  0  0  0  0  0  0  0  0  0  0  0
   56.2511   31.8390   45.1014 H   0  0  0  0  0  0  0  0  0  0  0  0
   58.4856   32.1681   43.1050 H   0  0  0  0  0  0  0  0  0  0  0  0
   57.2389   33.4651   43.2612 H   0  0  0  0  0  0  0  0  0  0  0  0
   59.3592   34.8127   43.9981 H   0  0  0  0  0  0  0  0  0  0  0  0
   60.4864   35.6555   46.0550 H   0  0  0  0  0  0  0  0  0  0  0  0
   60.4241   35.6790   48.5321 H   0  0  0  0  0  0  0  0  0  0  0  0
   59.8188   34.2472   49.4442 H   0  0  0  0  0  0  0  0  0  0  0  0
   61.9970   34.5330   50.7789 H   0  0  0  0  0  0  0  0  0  0  0  0
   64.3054   33.5976   50.9617 H   0  0  0  0  0  0  0  0  0  0  0  0
   65.3991   32.5667   48.9664 H   0  0  0  0  0  0  0  0  0  0  0  0
   64.1864   32.4709   46.7849 H   0  0  0  0  0  0  0  0  0  0  0  0
   61.8789   33.4020   46.5937 H   0  0  0  0  0  0  0  0  0  0  0  0
   58.7975   32.3770   48.3266 H   0  0  0  0  0  0  0  0  0  0  0  0
   57.6450   31.5499   46.2763 H   0  0  0  0  0  0  0  0  0  0  0  0
  1  2  1  0
  2  3  2  0
  2  4  2  0
  2  5  1  0
  5  6  2  0
  6  7  1  0
  7  8  2  0
  8  9  1  0
  9 10  2  0
 10 11  1  0
 11 12  1  0
 12 13  2  0
 12 14  2  0
 12 15  1  0
 15 16  1  0
 16 17  1  0
 17 18  2  0
 18 19  1  0
 19 20  2  0
 20 21  1  0
 21 22  1  0
 22 23  2  0
 23 24  1  0
 24 25  2  0
 25 26  1  0
 26 27  2  0
 20 28  1  0
 28 29  2  0
 10  5  1  0
 29 17  1  0
 27 22  1  0
  1 30  1  0
  1 31  1  0
  6 32  1  0
  7 33  1  0
  8 34  1  0
  9 35  1  0
 15 36  1  0
 15 37  1  0
 16 38  1  0
 16 39  1  0
 18 40  1  0
 19 41  1  0
 21 42  1  0
 21 43  1  0
 23 44  1  0
 24 45  1  0
 25 46  1  0
 26 47  1  0
 27 48  1  0
 28 49  1  0
 29 50  1  0
M  CHG  1  11  -1
M  END
>  <UniqueID>  (93) 
85

>  <SMILES>  (93) 
NS(=O)(=O)c1ccccc1[N-]S(=O)(=O)CCc1ccc(Cc2ccccc2)cc1

>  <Energy>  (93) 
48.51589835215394

>  <Genealogy>  (93) 
NS(=O)(=O)c1ccccc1[N-]S(=O)(=O)CCc1ccc(Cc2ccccc2)cc1 (protonated)
NS(=O)(=O)c1ccccc1[N-]S(=O)(=O)CCc1ccc(Cc2ccccc2)cc1 (3D coordinates assigned)
NS(=O)(=O)c1ccccc1[N-]S(=O)(=O)CCc1ccc(Cc2ccccc2)cc1 (optimized conformer: 48.51589835215394 kcal/mol)

>  <smiles>  (93) 
NS(=O)(=O)c1ccccc1NS(=O)(=O)CCc1ccc(Cc2ccccc2)cc1

>  <score_type>  (93) 
oracle

>  <origin>  (93) 
adg

>  <m_score__min__energy>  (93) 
-12.050000000000001

>  <m_primary>  (93) 
energy

$$$$
93:0
     RDKit          3D

 55 59  0  0  0  0  0  0  0  0999 V2000
   60.6394   26.1066   49.1279 H   0  0  0  0  0  0  0  0  0  0  0  0
   60.3260   27.1240   48.8510 C   0  0  0  0  0  0  0  0  0  0  0  0
   60.7830   28.1910   49.5560 N   0  0  0  0  0  0  0  0  0  0  0  0
   60.4110   29.4590   49.2280 C   0  0  0  0  0  0  0  0  0  0  0  0
   60.8530   30.4810   49.8990 N   0  0  0  0  0  0  0  0  0  0  0  0
   61.3220   31.7310   49.2980 C   0  0  0  0  0  0  0  0  0  0  0  0
   61.9075   32.2371   50.0797 H   0  0  0  0  0  0  0  0  0  0  0  0
   60.1630   32.5970   48.8200 C   0  0  0  0  0  0  0  0  0  0  0  0
   59.3168   31.9671   48.5083 H   0  0  0  0  0  0  0  0  0  0  0  0
   59.7958   33.2597   49.6175 H   0  0  0  0  0  0  0  0  0  0  0  0
   60.7010   33.3890   47.6340 C   0  0  0  0  0  0  0  0  0  0  0  0
   59.9587   33.4055   46.8224 H   0  0  0  0  0  0  0  0  0  0  0  0
   60.9111   34.4304   47.9192 H   0  0  0  0  0  0  0  0  0  0  0  0
   61.9730   32.6830   47.1680 C   0  0  0  0  0  0  0  0  0  0  0  0
   61.8768   32.3862   46.1132 H   0  0  0  0  0  0  0  0  0  0  0  0
   62.8462   33.3468   47.2506 H   0  0  0  0  0  0  0  0  0  0  0  0
   62.1380   31.4500   48.0470 C   0  0  0  0  0  0  0  0  0  0  0  0
   61.7560   30.5565   47.5315 H   0  0  0  0  0  0  0  0  0  0  0  0
   63.1945   31.2562   48.2839 H   0  0  0  0  0  0  0  0  0  0  0  0
   59.5650   29.6630   48.1860 N   0  0  0  0  0  0  0  0  0  0  0  0
   59.0650   28.6250   47.4610 C   0  0  0  0  0  0  0  0  0  0  0  0
   58.1580   28.9140   46.3320 C   0  0  0  0  0  0  0  0  0  0  0  0
   57.9290   30.1630   45.8910 N   0  0  0  0  0  0  0  0  0  0  0  0
   57.1160   29.9960   44.8270 C   0  0  0  0  0  0  0  0  0  0  0  0
   56.6090   31.1580   44.0180 C   0  0  0  0  0  0  0  0  0  0  0  0
   55.5445   30.9456   44.1963 H   0  0  0  0  0  0  0  0  0  0  0  0
   57.4720   32.4110   44.0410 C   0  0  0  0  0  0  0  0  0  0  0  0
   57.0004   33.4044   44.0124 H   0  0  0  0  0  0  0  0  0  0  0  0
   58.2571   32.8030   44.7043 H   0  0  0  0  0  0  0  0  0  0  0  0
   57.4510   31.5230   42.8060 C   0  0  0  0  0  0  0  0  0  0  0  0
   56.9645   31.8745   41.8842 H   0  0  0  0  0  0  0  0  0  0  0  0
   58.2152   31.0071   42.2062 H   0  0  0  0  0  0  0  0  0  0  0  0
   56.8090   28.7040   44.5750 N   0  0  0  0  0  0  0  0  0  0  0  0
   57.4590   28.0210   45.5340 C   0  0  0  0  0  0  0  0  0  0  0  0
   57.3440   26.5560   45.6870 C   0  0  0  0  0  0  0  0  0  0  0  0
   58.4880   25.7630   45.5200 C   0  0  0  0  0  0  0  0  0  0  0  0
   59.4489   26.2345   45.2664 H   0  0  0  0  0  0  0  0  0  0  0  0
   58.4130   24.3790   45.6740 C   0  0  0  0  0  0  0  0  0  0  0  0
   59.3157   23.7636   45.5459 H   0  0  0  0  0  0  0  0  0  0  0  0
   57.1970   23.7720   45.9900 C   0  0  0  0  0  0  0  0  0  0  0  0
   57.1490   22.6806   46.1189 H   0  0  0  0  0  0  0  0  0  0  0  0
   56.0320   24.5450   46.1450 C   0  0  0  0  0  0  0  0  0  0  0  0
   54.7660   23.9310   46.4530 N   0  0  0  0  0  0  0  0  0  0  0  0
   54.1000   24.4220   47.0880 H   0  0  0  0  0  0  0  0  0  0  0  0
   54.3570   22.3020   46.0150 S   0  0  0  0  0  0  0  0  0  0  0  0
   52.9170   22.2620   45.5850 O   0  0  0  0  0  0  0  0  0  0  0  0
   55.2180   21.8440   44.8710 O   0  0  0  0  0  0  0  0  0  0  0  0
   54.5570   21.2200   47.4160 C   0  0  0  0  0  0  0  0  0  0  0  0
   54.4499   21.7993   48.3449 H   0  0  0  0  0  0  0  0  0  0  0  0
   53.7891   20.4330   47.3841 H   0  0  0  0  0  0  0  0  0  0  0  0
   55.5555   20.7595   47.3841 H   0  0  0  0  0  0  0  0  0  0  0  0
   56.1080   25.9400   45.9670 C   0  0  0  0  0  0  0  0  0  0  0  0
   54.9520   26.7110   46.0580 O   0  0  0  0  0  0  0  0  0  0  0  0
   59.4610   27.3180   47.7780 C   0  0  0  0  0  0  0  0  0  0  0  0
   59.0954   26.4630   47.1905 H   0  0  0  0  0  0  0  0  0  0  0  0
  1  2  1  0
  2  3  1  0
  3  4  1  0
  4  5  2  0
  5  6  1  0
  6  7  1  0
  6  8  1  0
  8  9  1  0
  8 10  1  0
  8 11  1  0
 11 12  1  0
 11 13  1  0
 11 14  1  0
 14 15  1  0
 14 16  1  0
 14 17  1  0
 17 18  1  0
 17 19  1  0
  4 20  1  0
 20 21  2  0
 21 22  1  0
 22 23  1  0
 23 24  1  0
 24 25  1  0
 25 26  1  0
 25 27  1  0
 27 28  1  0
 27 29  1  0
 27 30  1  0
 30 31  1  0
 30 32  1  0
 24 33  2  0
 33 34  1  0
 34 35  1  0
 35 36  2  0
 36 37  1  0
 36 38  1  0
 38 39  1  0
 38 40  2  0
 40 41  1  0
 40 42  1  0
 42 43  1  0
 43 44  1  0
 43 45  1  0
 45 46  2  0
 45 47  2  0
 45 48  1  0
 48 49  1  0
 48 50  1  0
 48 51  1  0
 42 52  2  0
 52 53  1  0
 21 54  1  0
 54 55  1  0
 54  2  2  0
 17  6  1  0
 34 22  2  0
 52 35  1  0
 30 25  1  0
M  CHG  3   3  -1  23  -1  53  -1
M  END
>  <UniqueID>  (94) 
86

>  <SMILES>  (94) 
CS(=O)(=O)Nc1cccc(-c2nc(C3CC3)[n-]c2-c2cc[n-]/c(=N\C3CCCC3)n2)c1[O-]

>  <Energy>  (94) 
359.63311074413485

>  <Genealogy>  (94) 
CS(=O)(=O)Nc1cccc(-c2nc(C3CC3)[n-]c2-c2cc[n-]c(=NC3CCCC3)n2)c1[O-] (protonated)
CS(=O)(=O)Nc1cccc(-c2nc(C3CC3)[n-]c2-c2cc[n-]/c(=N\C3CCCC3)n2)c1[O-] (cis-trans isomerization)
CS(=O)(=O)Nc1cccc(-c2nc(C3CC3)[n-]c2-c2cc[n-]/c(=N\C3CCCC3)n2)c1[O-] (3D coordinates assigned)
CS(=O)(=O)Nc1cccc(-c2nc(C3CC3)[n-]c2-c2cc[n-]/c(=N\C3CCCC3)n2)c1[O-] (nonaromatic ring conformer: 359.63311074413485 kcal/mol)

>  <smiles>  (94) 
CS(=O)(=O)Nc1cccc(-c2nc(C3CC3)[nH]c2-c2cc[nH]c(=NC3CCCC3)n2)c1O

>  <score_type>  (94) 
oracle

>  <origin>  (94) 
adg

>  <m_score__min__energy>  (94) 
-15.16

>  <m_primary>  (94) 
energy

$$$$
94:0
     RDKit          3D

 34 35  0  0  1  0  0  0  0  0999 V2000
   50.2340   25.2560   43.5170 C   0  0  0  0  0  0  0  0  0  0  0  0
   51.2050   24.1390   43.8320 C   0  0  0  0  0  0  0  0  0  0  0  0
   52.0100   24.4250   44.9510 O   0  0  0  0  0  0  0  0  0  0  0  0
   53.3800   24.2400   44.8820 C   0  0  0  0  0  0  0  0  0  0  0  0
   53.9850   23.3790   44.0580 N   0  0  0  0  0  0  0  0  0  0  0  0
   55.3450   23.2800   44.0740 C   0  0  0  0  0  0  0  0  0  0  0  0
   55.8890   22.4570   43.2850 O   0  0  0  0  0  0  0  0  0  0  0  0
   56.0980   24.0190   44.8920 N   0  0  0  0  0  0  0  0  0  0  0  0
   55.4820   24.8850   45.7210 C   0  0  0  0  0  0  0  0  0  0  0  0
   56.1210   25.6410   46.5460 N   0  0  0  0  0  0  0  0  0  0  0  0
   57.1030   26.5640   46.0850 C   0  0  0  0  0  0  0  0  0  0  0  0
   58.4500   26.3930   46.4020 C   0  0  0  0  0  0  0  0  0  0  0  0
   59.3460   27.3300   45.9180 C   0  0  0  0  0  0  0  0  0  0  0  0
   58.9430   28.4100   45.1440 C   0  0  0  0  0  0  0  0  0  0  0  0
   57.5930   28.5370   44.8560 C   0  0  0  0  0  0  0  0  0  0  0  0
   56.9980   29.8830   43.8760 S   0  0  0  0  0  0  0  0  0  0  0  0
   56.4050   29.3060   42.3710 N   0  0  0  0  0  0  0  0  0  0  0  0
   55.8430   30.4880   44.6210 O   0  0  0  0  0  0  0  0  0  0  0  0
   58.0810   30.9010   43.6790 O   0  0  0  0  0  0  0  0  0  0  0  0
   56.6570   27.6220   45.3180 C   0  0  0  0  0  0  0  0  0  0  0  0
   54.1310   24.9990   45.7200 N   0  0  0  0  0  0  0  0  0  0  0  0
   49.8571   25.6896   44.4550 H   0  0  0  0  0  0  0  0  0  0  0  0
   50.7474   26.0344   42.9335 H   0  0  0  0  0  0  0  0  0  0  0  0
   49.3917   24.8560   42.9335 H   0  0  0  0  0  0  0  0  0  0  0  0
   50.6335   23.2210   44.0337 H   0  0  0  0  0  0  0  0  0  0  0  0
   51.8696   24.0186   42.9638 H   0  0  0  0  0  0  0  0  0  0  0  0
   57.1490   23.9660   44.9300 H   0  0  0  0  0  0  0  0  0  0  0  0
   58.7881   25.5442   47.0145 H   0  0  0  0  0  0  0  0  0  0  0  0
   60.4141   27.2153   46.1546 H   0  0  0  0  0  0  0  0  0  0  0  0
   59.6732   29.1430   44.7705 H   0  0  0  0  0  0  0  0  0  0  0  0
   56.3710   28.2570   42.3310 H   0  0  0  0  0  0  0  0  0  0  0  0
   55.4450   29.6800   42.2520 H   0  0  0  0  0  0  0  0  0  0  0  0
   55.5893   27.7366   45.0796 H   0  0  0  0  0  0  0  0  0  0  0  0
   53.6660   25.6820   46.3760 H   0  0  0  0  0  0  0  0  0  0  0  0
  1  2  1  0
  2  3  1  0
  3  4  1  0
  4  5  2  0
  5  6  1  0
  6  7  2  0
  6  8  1  0
  8  9  1  0
  9 10  2  0
 10 11  1  0
 11 12  2  0
 12 13  1  0
 13 14  2  0
 14 15  1  0
 15 16  1  0
 16 17  1  0
 16 18  2  0
 16 19  2  0
 15 20  2  0
  9 21  1  0
 21  4  1  0
 20 11  1  0
  1 22  1  0
  1 23  1  0
  1 24  1  0
  2 25  1  0
  2 26  1  0
  8 27  1  0
 12 28  1  0
 13 29  1  0
 14 30  1  0
 17 31  1  0
 17 32  1  0
 20 33  1  0
 21 34  1  0
M  END
>  <smiles>  (95) 
CCOc1nc(=O)[nH]c(=Nc2cccc(S(N)(=O)=O)c2)[nH]1

>  <score_type>  (95) 
oracle

>  <origin>  (95) 
adg

>  <m_score__min__energy>  (95) 
-7.6100000000000003

>  <m_primary>  (95) 
energy

$$$$
