0:0
     RDKit          3D

 61 64  0  0  0  0  0  0  0  0999 V2000
   54.0360   26.2150   46.3720 H   0  0  0  0  0  0  0  0  0  0  0  0
   53.6820   25.4990   45.7440 O   0  0  0  0  0  0  0  0  0  0  0  0
   54.0450   24.1580   45.8800 C   0  0  0  0  0  0  0  0  0  0  0  0
   55.3910   23.8160   46.0800 C   0  0  0  0  0  0  0  0  0  0  0  0
   56.1550   24.6067   46.1134 H   0  0  0  0  0  0  0  0  0  0  0  0
   55.7720   22.4730   46.2380 C   0  0  0  0  0  0  0  0  0  0  0  0
   57.2000   22.1430   46.4300 C   0  0  0  0  0  0  0  0  0  0  0  0
   57.4785   21.2353   46.9855 H   0  0  0  0  0  0  0  0  0  0  0  0
   58.1300   22.9130   45.9500 N   0  0  0  0  0  0  0  0  0  0  0  0
   58.0240   24.3210   45.6660 C   0  0  0  0  0  0  0  0  0  0  0  0
   57.8320   24.8290   44.3660 C   0  0  0  0  0  0  0  0  0  0  0  0
   57.7413   24.1359   43.5166 H   0  0  0  0  0  0  0  0  0  0  0  0
   57.7560   26.2080   44.1480 C   0  0  0  0  0  0  0  0  0  0  0  0
   57.5928   26.5865   43.1281 H   0  0  0  0  0  0  0  0  0  0  0  0
   57.8860   27.1270   45.2210 C   0  0  0  0  0  0  0  0  0  0  0  0
   57.8340   28.5710   45.0010 N   0  0  0  0  0  0  0  0  0  0  0  0
   58.6420   29.4650   45.8650 C   0  0  0  0  0  0  0  0  0  0  0  0
   58.2316   29.4233   46.8847 H   0  0  0  0  0  0  0  0  0  0  0  0
   59.6803   29.1059   45.8098 H   0  0  0  0  0  0  0  0  0  0  0  0
   58.6560   30.9300   45.4110 C   0  0  0  0  0  0  0  0  0  0  0  0
   58.9860   31.5646   46.2467 H   0  0  0  0  0  0  0  0  0  0  0  0
   59.3467   31.0320   44.5610 H   0  0  0  0  0  0  0  0  0  0  0  0
   57.3160   31.3500   44.9860 N   0  0  0  0  0  0  0  0  0  0  0  0
   57.2070   32.8130   44.7890 C   0  0  0  0  0  0  0  0  0  0  0  0
   57.4523   33.0398   43.7410 H   0  0  0  0  0  0  0  0  0  0  0  0
   56.1768   33.0932   45.0540 H   0  0  0  0  0  0  0  0  0  0  0  0
   58.1250   33.6270   45.6800 C   0  0  0  0  0  0  0  0  0  0  0  0
   58.9970   34.5810   45.1230 C   0  0  0  0  0  0  0  0  0  0  0  0
   59.0109   34.7407   44.0347 H   0  0  0  0  0  0  0  0  0  0  0  0
   59.8460   35.3270   45.9470 C   0  0  0  0  0  0  0  0  0  0  0  0
   60.5223   36.0742   45.5062 H   0  0  0  0  0  0  0  0  0  0  0  0
   59.8360   35.1240   47.3310 C   0  0  0  0  0  0  0  0  0  0  0  0
   60.5029   35.7131   47.9777 H   0  0  0  0  0  0  0  0  0  0  0  0
   58.9790   34.1730   47.8930 C   0  0  0  0  0  0  0  0  0  0  0  0
   58.9745   34.0126   48.9812 H   0  0  0  0  0  0  0  0  0  0  0  0
   58.1270   33.4250   47.0730 C   0  0  0  0  0  0  0  0  0  0  0  0
   57.4560   32.6760   47.5188 H   0  0  0  0  0  0  0  0  0  0  0  0
   56.9300   30.5830   43.7950 C   0  0  0  0  0  0  0  0  0  0  0  0
   55.9929   30.9877   43.3850 H   0  0  0  0  0  0  0  0  0  0  0  0
   57.7223   30.6577   43.0356 H   0  0  0  0  0  0  0  0  0  0  0  0
   56.7280   29.1210   44.1810 C   0  0  0  0  0  0  0  0  0  0  0  0
   55.7934   29.0377   44.7551 H   0  0  0  0  0  0  0  0  0  0  0  0
   56.6954   28.5399   43.2476 H   0  0  0  0  0  0  0  0  0  0  0  0
   58.0880   26.5960   46.5190 C   0  0  0  0  0  0  0  0  0  0  0  0
   58.1938   27.2807   47.3734 H   0  0  0  0  0  0  0  0  0  0  0  0
   58.1550   25.2170   46.7310 C   0  0  0  0  0  0  0  0  0  0  0  0
   58.3129   24.8312   47.7489 H   0  0  0  0  0  0  0  0  0  0  0  0
   54.7860   21.4710   46.2000 C   0  0  0  0  0  0  0  0  0  0  0  0
   55.0725   20.4167   46.3277 H   0  0  0  0  0  0  0  0  0  0  0  0
   53.4450   21.8070   46.0010 C   0  0  0  0  0  0  0  0  0  0  0  0
   52.6818   21.0152   45.9780 H   0  0  0  0  0  0  0  0  0  0  0  0
   53.0630   23.1480   45.8300 C   0  0  0  0  0  0  0  0  0  0  0  0
   51.6800   23.4770   45.6030 N   0  0  0  0  0  0  0  0  0  0  0  0
   50.6570   23.0040   46.5420 C   0  0  0  0  0  0  0  0  0  0  0  0
   51.0039   23.1644   47.5735 H   0  0  0  0  0  0  0  0  0  0  0  0
   49.7231   23.5617   46.3783 H   0  0  0  0  0  0  0  0  0  0  0  0
   50.4770   21.9313   46.3783 H   0  0  0  0  0  0  0  0  0  0  0  0
   51.2920   24.3440   44.4840 C   0  0  0  0  0  0  0  0  0  0  0  0
   50.8721   25.2823   44.8756 H   0  0  0  0  0  0  0  0  0  0  0  0
   52.1764   24.5666   43.8689 H   0  0  0  0  0  0  0  0  0  0  0  0
   50.5368   23.8329   43.8689 H   0  0  0  0  0  0  0  0  0  0  0  0
  1  2  1  0
  2  3  1  0
  3  4  2  0
  4  5  1  0
  4  6  1  0
  6  7  1  0
  7  8  1  0
  7  9  2  0
  9 10  1  0
 10 11  2  0
 11 12  1  0
 11 13  1  0
 13 14  1  0
 13 15  2  0
 15 16  1  0
 16 17  1  0
 17 18  1  0
 17 19  1  0
 17 20  1  0
 20 21  1  0
 20 22  1  0
 20 23  1  0
 23 24  1  0
 24 25  1  0
 24 26  1  0
 24 27  1  0
 27 28  2  0
 28 29  1  0
 28 30  1  0
 30 31  1  0
 30 32  2  0
 32 33  1  0
 32 34  1  0
 34 35  1  0
 34 36  2  0
 36 37  1  0
 23 38  1  0
 38 39  1  0
 38 40  1  0
 38 41  1  0
 41 42  1  0
 41 43  1  0
 15 44  1  0
 44 45  1  0
 44 46  2  0
 46 47  1  0
  6 48  2  0
 48 49  1  0
 48 50  1  0
 50 51  1  0
 50 52  2  0
 52 53  1  0
 53 54  1  0
 54 55  1  0
 54 56  1  0
 54 57  1  0
 53 58  1  0
 58 59  1  0
 58 60  1  0
 58 61  1  0
 52  3  1  0
 46 10  1  0
 41 16  1  0
 36 27  1  0
M  END
>  <UniqueID>  (1) 
1

>  <SMILES>  (1) 
CN(C)c1ccc(/C=N/c2ccc(N3CCN(Cc4ccccc4)CC3)cc2)cc1O

>  <Energy>  (1) 
80.56387440045228

>  <Genealogy>  (1) 
CN(C)c1ccc(/C=N/c2ccc(N3CCN(Cc4ccccc4)CC3)cc2)cc1O (cis-trans isomerization)
CN(C)c1ccc(/C=N/c2ccc(N3CCN(Cc4ccccc4)CC3)cc2)cc1O (3D coordinates assigned)
CN(C)c1ccc(/C=N/c2ccc(N3CCN(Cc4ccccc4)CC3)cc2)cc1O (nonaromatic ring conformer: 80.56387440045228 kcal/mol)

>  <smiles>  (1) 
CN(C)c1ccc(C=Nc2ccc(N3CCN(Cc4ccccc4)CC3)cc2)cc1O

>  <score_type>  (1) 
oracle

>  <origin>  (1) 
adg

>  <m_score__min__energy>  (1) 
-9.6999999999999993

>  <m_primary>  (1) 
energy

$$$$
1:0
     RDKit          3D

 82 86  0  0  0  0  0  0  0  0999 V2000
   58.0690   33.8900   46.9280 C   0  0  0  0  0  0  0  0  0  0  0  0
   58.6270   34.0670   45.5740 N   0  0  0  0  0  0  0  0  0  0  0  0
   60.0900   33.9140   45.6270 C   0  0  0  0  0  0  0  0  0  0  0  0
   58.0480   33.0810   44.6340 C   0  0  0  0  0  0  0  0  0  0  0  0
   57.0250   32.1850   45.3460 C   0  0  0  0  0  0  0  0  0  0  0  0
   56.4530   31.2140   44.4180 N   0  0  0  0  0  0  0  0  0  0  0  0
   56.3300   29.8060   44.6650 C   0  0  0  0  0  0  0  0  0  0  0  0
   55.1830   29.3260   44.8650 O   0  0  0  0  0  0  0  0  0  0  0  0
   57.5210   28.9300   44.7450 C   0  0  0  0  0  0  0  0  0  0  0  0
   58.7880   29.3630   44.8270 C   0  0  0  0  0  0  0  0  0  0  0  0
   59.4230   29.9110   46.0470 C   0  0  0  0  0  0  0  0  0  0  0  0
   60.7540   30.3600   46.0410 C   0  0  0  0  0  0  0  0  0  0  0  0
   61.3180   30.9030   47.1970 C   0  0  0  0  0  0  0  0  0  0  0  0
   60.5530   31.0200   48.3610 C   0  0  0  0  0  0  0  0  0  0  0  0
   59.2170   30.6040   48.3790 C   0  0  0  0  0  0  0  0  0  0  0  0
   58.4980   30.7470   49.5760 O   0  0  0  0  0  0  0  0  0  0  0  0
   58.6810   29.9710   50.7610 C   0  0  0  0  0  0  0  0  0  0  0  0
   60.1330   29.9650   51.1920 C   0  0  0  0  0  0  0  0  0  0  0  0
   60.6010   31.0540   51.9520 C   0  0  0  0  0  0  0  0  0  0  0  0
   61.9190   31.1040   52.3980 C   0  0  0  0  0  0  0  0  0  0  0  0
   62.8010   30.0770   52.0810 C   0  0  0  0  0  0  0  0  0  0  0  0
   62.3720   29.0030   51.3020 C   0  0  0  0  0  0  0  0  0  0  0  0
   61.0420   28.9240   50.8360 C   0  0  0  0  0  0  0  0  0  0  0  0
   60.6770   27.7720   49.9620 C   0  0  0  0  0  0  0  0  0  0  0  0
   60.7170   26.5910   50.3970 O   0  0  0  0  0  0  0  0  0  0  0  0
   60.3270   28.0120   48.5920 N   0  0  0  0  0  0  0  0  0  0  0  0
   59.7700   27.0730   47.6620 C   0  0  0  0  0  0  0  0  0  0  0  0
   60.5760   26.2160   46.8920 C   0  0  0  0  0  0  0  0  0  0  0  0
   59.9950   25.2870   46.0240 C   0  0  0  0  0  0  0  0  0  0  0  0
   58.6000   25.1910   45.9240 C   0  0  0  0  0  0  0  0  0  0  0  0
   58.0050   24.2590   45.0590 C   0  0  0  0  0  0  0  0  0  0  0  0
   56.6090   24.1650   44.9720 C   0  0  0  0  0  0  0  0  0  0  0  0
   55.8650   22.9980   43.8800 S   0  0  0  0  0  0  0  0  0  0  0  0
   56.5520   23.0750   42.5460 O   0  0  0  0  0  0  0  0  0  0  0  0
   54.4240   23.3700   43.6730 O   0  0  0  0  0  0  0  0  0  0  0  0
   55.9530   21.3590   44.4880 N   0  0  0  0  0  0  0  0  0  0  0  0
   55.1980   21.1830   45.7420 C   0  0  0  0  0  0  0  0  0  0  0  0
   55.9950   21.6080   47.0000 C   0  0  0  0  0  0  0  0  0  0  0  0
   57.3580   21.8730   46.7350 O   0  0  0  0  0  0  0  0  0  0  0  0
   57.9060   20.8200   45.9780 C   0  0  0  0  0  0  0  0  0  0  0  0
   57.3360   20.8390   44.5500 C   0  0  0  0  0  0  0  0  0  0  0  0
   55.8060   25.0000   45.7590 C   0  0  0  0  0  0  0  0  0  0  0  0
   56.3870   25.9350   46.6200 C   0  0  0  0  0  0  0  0  0  0  0  0
   57.7830   26.0380   46.7100 C   0  0  0  0  0  0  0  0  0  0  0  0
   58.3760   26.9670   47.5770 C   0  0  0  0  0  0  0  0  0  0  0  0
   58.6490   30.0730   47.2050 C   0  0  0  0  0  0  0  0  0  0  0  0
   58.8377   34.1338   47.6761 H   0  0  0  0  0  0  0  0  0  0  0  0
   57.2050   34.5582   47.0588 H   0  0  0  0  0  0  0  0  0  0  0  0
   57.7482   32.8460   47.0588 H   0  0  0  0  0  0  0  0  0  0  0  0
   60.4173   33.8798   46.6766 H   0  0  0  0  0  0  0  0  0  0  0  0
   60.3796   32.9807   45.1220 H   0  0  0  0  0  0  0  0  0  0  0  0
   60.5664   34.7672   45.1220 H   0  0  0  0  0  0  0  0  0  0  0  0
   57.5490   33.6158   43.8124 H   0  0  0  0  0  0  0  0  0  0  0  0
   58.8586   32.4487   44.2426 H   0  0  0  0  0  0  0  0  0  0  0  0
   57.5242   31.6490   46.1667 H   0  0  0  0  0  0  0  0  0  0  0  0
   56.2151   32.8172   45.7389 H   0  0  0  0  0  0  0  0  0  0  0  0
   57.3544   27.8427   44.7366 H   0  0  0  0  0  0  0  0  0  0  0  0
   59.4031   29.3065   43.9168 H   0  0  0  0  0  0  0  0  0  0  0  0
   61.3541   30.2835   45.1223 H   0  0  0  0  0  0  0  0  0  0  0  0
   62.3654   31.2391   47.1918 H   0  0  0  0  0  0  0  0  0  0  0  0
   61.0049   31.4426   49.2705 H   0  0  0  0  0  0  0  0  0  0  0  0
   58.0687   30.3989   51.5684 H   0  0  0  0  0  0  0  0  0  0  0  0
   58.3755   28.9355   50.5503 H   0  0  0  0  0  0  0  0  0  0  0  0
   59.9147   31.8780   52.1972 H   0  0  0  0  0  0  0  0  0  0  0  0
   62.2628   31.9568   53.0017 H   0  0  0  0  0  0  0  0  0  0  0  0
   63.8384   30.1118   52.4452 H   0  0  0  0  0  0  0  0  0  0  0  0
   63.0826   28.2032   51.0461 H   0  0  0  0  0  0  0  0  0  0  0  0
   61.6713   26.2770   46.9732 H   0  0  0  0  0  0  0  0  0  0  0  0
   60.6346   24.6290   45.4174 H   0  0  0  0  0  0  0  0  0  0  0  0
   58.6372   23.5993   44.4465 H   0  0  0  0  0  0  0  0  0  0  0  0
   54.2824   21.7902   45.6868 H   0  0  0  0  0  0  0  0  0  0  0  0
   54.9774   20.1100   45.8424 H   0  0  0  0  0  0  0  0  0  0  0  0
   55.5361   22.5184   47.4130 H   0  0  0  0  0  0  0  0  0  0  0  0
   55.9582   20.7674   47.7085 H   0  0  0  0  0  0  0  0  0  0  0  0
   58.9991   20.9347   45.9343 H   0  0  0  0  0  0  0  0  0  0  0  0
   57.6472   19.8631   46.4548 H   0  0  0  0  0  0  0  0  0  0  0  0
   57.9786   21.4759   43.9243 H   0  0  0  0  0  0  0  0  0  0  0  0
   57.3138   19.7998   44.1902 H   0  0  0  0  0  0  0  0  0  0  0  0
   54.7106   24.9194   45.6990 H   0  0  0  0  0  0  0  0  0  0  0  0
   55.7480   26.5917   47.2286 H   0  0  0  0  0  0  0  0  0  0  0  0
   57.7409   27.6181   48.1957 H   0  0  0  0  0  0  0  0  0  0  0  0
   57.5881   29.7825   47.1962 H   0  0  0  0  0  0  0  0  0  0  0  0
  1  2  1  0
  2  3  1  0
  2  4  1  0
  4  5  1  0
  5  6  1  0
  6  7  1  0
  7  8  2  0
  7  9  1  0
  9 10  2  3
 10 11  1  0
 11 12  2  0
 12 13  1  0
 13 14  2  0
 14 15  1  0
 15 16  1  0
 16 17  1  0
 17 18  1  0
 18 19  2  0
 19 20  1  0
 20 21  2  0
 21 22  1  0
 22 23  2  0
 23 24  1  0
 24 25  2  0
 24 26  1  0
 26 27  1  0
 27 28  2  0
 28 29  1  0
 29 30  2  0
 30 31  1  0
 31 32  2  0
 32 33  1  0
 33 34  2  0
 33 35  2  0
 33 36  1  0
 36 37  1  0
 37 38  1  0
 38 39  1  0
 39 40  1  0
 40 41  1  0
 32 42  1  0
 42 43  2  0
 43 44  1  0
 44 45  2  0
 15 46  2  0
 46 11  1  0
 23 18  1  0
 45 27  1  0
 44 30  1  0
 41 36  1  0
  1 47  1  0
  1 48  1  0
  1 49  1  0
  3 50  1  0
  3 51  1  0
  3 52  1  0
  4 53  1  0
  4 54  1  0
  5 55  1  0
  5 56  1  0
  9 57  1  0
 10 58  1  0
 12 59  1  0
 13 60  1  0
 14 61  1  0
 17 62  1  0
 17 63  1  0
 19 64  1  0
 20 65  1  0
 21 66  1  0
 22 67  1  0
 28 68  1  0
 29 69  1  0
 31 70  1  0
 37 71  1  0
 37 72  1  0
 38 73  1  0
 38 74  1  0
 40 75  1  0
 40 76  1  0
 41 77  1  0
 41 78  1  0
 42 79  1  0
 43 80  1  0
 45 81  1  0
 46 82  1  0
M  CHG  2   6  -1  26  -1
M  END
>  <UniqueID>  (2) 
2

>  <SMILES>  (2) 
CN(C)CC[N-]C(=O)C=Cc1cccc(OCc2ccccc2C(=O)[N-]c2ccc3cc(S(=O)(=O)N4CCOCC4)ccc3c2)c1

>  <Energy>  (2) 
115.12032890802058

>  <Genealogy>  (2) 
CN(C)CC[N-]C(=O)C=Cc1cccc(OCc2ccccc2C(=O)[N-]c2ccc3cc(S(=O)(=O)N4CCOCC4)ccc3c2)c1 (protonated)
CN(C)CC[N-]C(=O)C=Cc1cccc(OCc2ccccc2C(=O)[N-]c2ccc3cc(S(=O)(=O)N4CCOCC4)ccc3c2)c1 (3D coordinates assigned)
CN(C)CC[N-]C(=O)C=Cc1cccc(OCc2ccccc2C(=O)[N-]c2ccc3cc(S(=O)(=O)N4CCOCC4)ccc3c2)c1 (nonaromatic ring conformer: 115.12032890802058 kcal/mol)

>  <smiles>  (2) 
CN(C)CCNC(=O)C=Cc1cccc(OCc2ccccc2C(=O)Nc2ccc3cc(S(=O)(=O)N4CCOCC4)ccc3c2)c1

>  <score_type>  (2) 
oracle

>  <origin>  (2) 
adg

>  <m_score__min__energy>  (2) 
-13.279999999999999

>  <m_primary>  (2) 
energy

$$$$
2:0
     RDKit          3D

 57 59  0  0  0  0  0  0  0  0999 V2000
   59.8900   35.1920   46.4030 C   0  0  0  0  0  0  0  0  0  0  0  0
   58.7160   34.5690   47.1490 C   0  0  0  0  0  0  0  0  0  0  0  0
   58.4730   33.2070   46.6660 N   0  0  0  0  0  0  0  0  0  0  0  0
   57.8910   33.2150   45.0280 S   0  0  0  0  0  0  0  0  0  0  0  0
   56.6910   34.1140   44.9330 O   0  0  0  0  0  0  0  0  0  0  0  0
   58.9600   33.7420   44.1110 O   0  0  0  0  0  0  0  0  0  0  0  0
   57.4220   31.5840   44.5540 C   0  0  0  0  0  0  0  0  0  0  0  0
   57.0490   31.3300   43.2290 C   0  0  0  0  0  0  0  0  0  0  0  0
   56.6680   30.0440   42.8410 C   0  0  0  0  0  0  0  0  0  0  0  0
   56.6420   29.0090   43.7780 C   0  0  0  0  0  0  0  0  0  0  0  0
   56.9910   29.2500   45.1130 C   0  0  0  0  0  0  0  0  0  0  0  0
   56.9820   28.1490   46.0350 N   0  0  0  0  0  0  0  0  0  0  0  0
   56.3870   26.8600   45.8290 C   0  0  0  0  0  0  0  0  0  0  0  0
   55.1510   26.6900   45.9940 O   0  0  0  0  0  0  0  0  0  0  0  0
   57.2180   25.7300   45.3110 C   0  0  0  0  0  0  0  0  0  0  0  0
   58.2710   25.3770   46.2600 N   0  0  0  0  0  0  0  0  0  0  0  0
   59.6210   25.8620   46.2330 C   0  0  0  0  0  0  0  0  0  0  0  0
   60.5510   25.0540   45.9730 O   0  0  0  0  0  0  0  0  0  0  0  0
   59.9610   27.2590   46.5550 C   0  0  0  0  0  0  0  0  0  0  0  0
   60.2950   28.1700   45.5420 C   0  0  0  0  0  0  0  0  0  0  0  0
   60.6200   29.4920   45.8590 C   0  0  0  0  0  0  0  0  0  0  0  0
   60.6480   29.9100   47.1960 C   0  0  0  0  0  0  0  0  0  0  0  0
   61.1080   31.5670   47.6030 S   0  0  0  0  0  0  0  0  0  0  0  0
   60.1160   32.1300   48.5840 O   0  0  0  0  0  0  0  0  0  0  0  0
   61.0620   32.4120   46.3610 O   0  0  0  0  0  0  0  0  0  0  0  0
   62.7070   31.6400   48.3090 N   0  0  0  0  0  0  0  0  0  0  0  0
   63.3760   32.9070   47.9500 C   0  0  0  0  0  0  0  0  0  0  0  0
   64.5360   33.2020   48.9190 C   0  0  0  0  0  0  0  0  0  0  0  0
   64.1440   33.3150   50.2850 O   0  0  0  0  0  0  0  0  0  0  0  0
   62.9070   32.6790   50.5810 C   0  0  0  0  0  0  0  0  0  0  0  0
   62.6790   31.3910   49.7680 C   0  0  0  0  0  0  0  0  0  0  0  0
   60.3350   28.9950   48.2110 C   0  0  0  0  0  0  0  0  0  0  0  0
   59.9980   27.6770   47.8930 C   0  0  0  0  0  0  0  0  0  0  0  0
   57.4020   30.5420   45.4950 C   0  0  0  0  0  0  0  0  0  0  0  0
   60.6208   35.5798   47.1279 H   0  0  0  0  0  0  0  0  0  0  0  0
   60.3692   34.4296   45.7713 H   0  0  0  0  0  0  0  0  0  0  0  0
   59.5272   36.0163   45.7713 H   0  0  0  0  0  0  0  0  0  0  0  0
   58.9448   34.5374   48.2245 H   0  0  0  0  0  0  0  0  0  0  0  0
   57.8165   35.1773   46.9734 H   0  0  0  0  0  0  0  0  0  0  0  0
   57.0561   32.1459   42.4913 H   0  0  0  0  0  0  0  0  0  0  0  0
   56.3880   29.8459   41.7958 H   0  0  0  0  0  0  0  0  0  0  0  0
   56.3453   27.9969   43.4655 H   0  0  0  0  0  0  0  0  0  0  0  0
   56.5727   24.8543   45.1475 H   0  0  0  0  0  0  0  0  0  0  0  0
   57.6876   26.0441   44.3671 H   0  0  0  0  0  0  0  0  0  0  0  0
   60.3012   27.8421   44.4920 H   0  0  0  0  0  0  0  0  0  0  0  0
   60.8545   30.2065   45.0562 H   0  0  0  0  0  0  0  0  0  0  0  0
   63.7711   32.8296   46.9263 H   0  0  0  0  0  0  0  0  0  0  0  0
   62.6435   33.7251   48.0148 H   0  0  0  0  0  0  0  0  0  0  0  0
   65.2693   32.3862   48.8372 H   0  0  0  0  0  0  0  0  0  0  0  0
   64.9496   34.1788   48.6277 H   0  0  0  0  0  0  0  0  0  0  0  0
   62.8916   32.4247   51.6511 H   0  0  0  0  0  0  0  0  0  0  0  0
   62.1047   33.3821   50.3126 H   0  0  0  0  0  0  0  0  0  0  0  0
   63.4693   30.6684   50.0196 H   0  0  0  0  0  0  0  0  0  0  0  0
   61.6835   31.0002   50.0255 H   0  0  0  0  0  0  0  0  0  0  0  0
   60.3548   29.3163   49.2628 H   0  0  0  0  0  0  0  0  0  0  0  0
   59.7606   26.9637   48.6961 H   0  0  0  0  0  0  0  0  0  0  0  0
   57.7082   30.7353   46.5337 H   0  0  0  0  0  0  0  0  0  0  0  0
  1  2  1  0
  2  3  1  0
  3  4  1  0
  4  5  2  0
  4  6  2  0
  4  7  1  0
  7  8  2  0
  8  9  1  0
  9 10  2  0
 10 11  1  0
 11 12  1  0
 12 13  1  0
 13 14  2  0
 13 15  1  0
 15 16  1  0
 16 17  1  0
 17 18  2  0
 17 19  1  0
 19 20  2  0
 20 21  1  0
 21 22  2  0
 22 23  1  0
 23 24  2  0
 23 25  2  0
 23 26  1  0
 26 27  1  0
 27 28  1  0
 28 29  1  0
 29 30  1  0
 30 31  1  0
 22 32  1  0
 32 33  2  0
 11 34  2  0
 34  7  1  0
 33 19  1  0
 31 26  1  0
  1 35  1  0
  1 36  1  0
  1 37  1  0
  2 38  1  0
  2 39  1  0
  8 40  1  0
  9 41  1  0
 10 42  1  0
 15 43  1  0
 15 44  1  0
 20 45  1  0
 21 46  1  0
 27 47  1  0
 27 48  1  0
 28 49  1  0
 28 50  1  0
 30 51  1  0
 30 52  1  0
 31 53  1  0
 31 54  1  0
 32 55  1  0
 33 56  1  0
 34 57  1  0
M  CHG  3   3  -1  12  -1  16  -1
M  END
>  <UniqueID>  (3) 
3

>  <SMILES>  (3) 
CC[N-]S(=O)(=O)c1cccc([N-]C(=O)C[N-]C(=O)c2ccc(S(=O)(=O)N3CCOCC3)cc2)c1

>  <Energy>  (3) 
73.48745444214903

>  <Genealogy>  (3) 
CC[N-]S(=O)(=O)c1cccc([N-]C(=O)C[N-]C(=O)c2ccc(S(=O)(=O)N3CCOCC3)cc2)c1 (protonated)
CC[N-]S(=O)(=O)c1cccc([N-]C(=O)C[N-]C(=O)c2ccc(S(=O)(=O)N3CCOCC3)cc2)c1 (3D coordinates assigned)
CC[N-]S(=O)(=O)c1cccc([N-]C(=O)C[N-]C(=O)c2ccc(S(=O)(=O)N3CCOCC3)cc2)c1 (nonaromatic ring conformer: 73.48745444214903 kcal/mol)

>  <smiles>  (3) 
CCNS(=O)(=O)c1cccc(NC(=O)CNC(=O)c2ccc(S(=O)(=O)N3CCOCC3)cc2)c1

>  <score_type>  (3) 
oracle

>  <origin>  (3) 
adg

>  <m_score__min__energy>  (3) 
-14.17

>  <m_primary>  (3) 
energy

$$$$
3:0
     RDKit          3D

 69 72  0  0  0  0  0  0  0  0999 V2000
   63.1040   34.0840   46.3480 C   0  0  0  0  0  0  0  0  0  0  0  0
   62.8110   33.4270   47.6700 C   0  0  0  0  0  0  0  0  0  0  0  0
   63.5980   32.3310   48.0650 C   0  0  0  0  0  0  0  0  0  0  0  0
   63.4020   31.7260   49.3080 C   0  0  0  0  0  0  0  0  0  0  0  0
   62.4230   32.2130   50.1750 C   0  0  0  0  0  0  0  0  0  0  0  0
   61.6210   33.2880   49.7890 C   0  0  0  0  0  0  0  0  0  0  0  0
   61.7740   33.8740   48.5260 C   0  0  0  0  0  0  0  0  0  0  0  0
   60.8670   34.9250   48.1600 N   0  0  0  0  0  0  0  0  0  0  0  0
   59.9130   34.8930   47.0880 C   0  0  0  0  0  0  0  0  0  0  0  0
   59.6600   35.9680   46.4820 O   0  0  0  0  0  0  0  0  0  0  0  0
   59.2040   33.6530   46.6840 C   0  0  0  0  0  0  0  0  0  0  0  0
   58.2090   33.7120   45.6940 C   0  0  0  0  0  0  0  0  0  0  0  0
   57.5450   32.5520   45.2860 C   0  0  0  0  0  0  0  0  0  0  0  0
   57.8640   31.3230   45.8650 C   0  0  0  0  0  0  0  0  0  0  0  0
   58.8400   31.2480   46.8650 C   0  0  0  0  0  0  0  0  0  0  0  0
   59.2390   29.6830   47.5660 S   0  0  0  0  0  0  0  0  0  0  0  0
   58.4710   29.4360   48.8360 O   0  0  0  0  0  0  0  0  0  0  0  0
   60.7050   29.6590   47.8960 O   0  0  0  0  0  0  0  0  0  0  0  0
   58.9040   28.4250   46.4170 N   0  0  0  0  0  0  0  0  0  0  0  0
   57.9270   27.3690   46.5010 C   0  0  0  0  0  0  0  0  0  0  0  0
   56.7750   27.4400   45.6820 C   0  0  0  0  0  0  0  0  0  0  0  0
   56.5070   28.5980   44.7820 C   0  0  0  0  0  0  0  0  0  0  0  0
   55.2520   29.2740   44.8350 N   0  0  0  0  0  0  0  0  0  0  0  0
   57.3840   29.0080   43.9760 O   0  0  0  0  0  0  0  0  0  0  0  0
   55.8620   26.3780   45.7030 C   0  0  0  0  0  0  0  0  0  0  0  0
   56.0800   25.2830   46.5320 C   0  0  0  0  0  0  0  0  0  0  0  0
   57.1670   25.2340   47.3560 N   0  0  0  0  0  0  0  0  0  0  0  0
   57.3790   24.0180   48.1600 C   0  0  0  0  0  0  0  0  0  0  0  0
   57.0630   22.8070   47.3400 C   0  0  0  0  0  0  0  0  0  0  0  0
   57.9190   22.3490   46.5370 O   0  0  0  0  0  0  0  0  0  0  0  0
   55.8050   22.1470   47.5150 N   0  0  0  0  0  0  0  0  0  0  0  0
   54.8100   22.0090   46.4590 C   0  0  0  0  0  0  0  0  0  0  0  0
   55.4660   22.0400   45.0980 C   0  0  0  0  0  0  0  0  0  0  0  0
   55.3020   23.1880   44.3000 C   0  0  0  0  0  0  0  0  0  0  0  0
   55.8880   23.2690   43.0360 C   0  0  0  0  0  0  0  0  0  0  0  0
   56.6450   22.2070   42.5480 C   0  0  0  0  0  0  0  0  0  0  0  0
   56.8170   21.0580   43.3200 C   0  0  0  0  0  0  0  0  0  0  0  0
   56.2400   20.9550   44.5980 C   0  0  0  0  0  0  0  0  0  0  0  0
   56.4390   19.6640   45.3670 C   0  0  0  0  0  0  0  0  0  0  0  0
   57.4750   19.8080   46.3890 N   0  0  0  0  0  0  0  0  0  0  0  0
   58.0820   26.2570   47.3650 C   0  0  0  0  0  0  0  0  0  0  0  0
   59.0610   26.2040   48.1550 O   0  0  0  0  0  0  0  0  0  0  0  0
   59.4960   32.4150   47.2850 C   0  0  0  0  0  0  0  0  0  0  0  0
   63.5464   35.0760   46.5216 H   0  0  0  0  0  0  0  0  0  0  0  0
   63.8101   33.4623   45.7781 H   0  0  0  0  0  0  0  0  0  0  0  0
   62.1696   34.1939   45.7781 H   0  0  0  0  0  0  0  0  0  0  0  0
   64.3755   31.9465   47.3884 H   0  0  0  0  0  0  0  0  0  0  0  0
   64.0195   30.8651   49.6039 H   0  0  0  0  0  0  0  0  0  0  0  0
   62.2834   31.7496   51.1628 H   0  0  0  0  0  0  0  0  0  0  0  0
   60.8620   33.6786   50.4828 H   0  0  0  0  0  0  0  0  0  0  0  0
   57.9506   34.6784   45.2366 H   0  0  0  0  0  0  0  0  0  0  0  0
   56.7699   32.6077   44.5075 H   0  0  0  0  0  0  0  0  0  0  0  0
   57.3466   30.4103   45.5343 H   0  0  0  0  0  0  0  0  0  0  0  0
   54.7240   29.3600   45.7320 H   0  0  0  0  0  0  0  0  0  0  0  0
   54.9691   26.4103   45.0613 H   0  0  0  0  0  0  0  0  0  0  0  0
   55.3671   24.4454   46.5236 H   0  0  0  0  0  0  0  0  0  0  0  0
   58.4286   23.9744   48.4864 H   0  0  0  0  0  0  0  0  0  0  0  0
   56.7183   24.0440   49.0391 H   0  0  0  0  0  0  0  0  0  0  0  0
   54.2821   21.0520   46.5834 H   0  0  0  0  0  0  0  0  0  0  0  0
   54.1021   22.8480   46.5290 H   0  0  0  0  0  0  0  0  0  0  0  0
   54.7048   24.0313   44.6772 H   0  0  0  0  0  0  0  0  0  0  0  0
   55.7517   24.1730   42.4243 H   0  0  0  0  0  0  0  0  0  0  0  0
   57.1080   22.2742   41.5524 H   0  0  0  0  0  0  0  0  0  0  0  0
   57.4117   20.2217   42.9238 H   0  0  0  0  0  0  0  0  0  0  0  0
   55.4920   19.3872   45.8534 H   0  0  0  0  0  0  0  0  0  0  0  0
   56.7559   18.8839   44.6592 H   0  0  0  0  0  0  0  0  0  0  0  0
   57.1330   20.4620   47.1290 H   0  0  0  0  0  0  0  0  0  0  0  0
   58.3240   20.2400   45.9580 H   0  0  0  0  0  0  0  0  0  0  0  0
   60.2439   32.3615   48.0899 H   0  0  0  0  0  0  0  0  0  0  0  0
  1  2  1  0
  2  3  2  0
  3  4  1  0
  4  5  2  0
  5  6  1  0
  6  7  2  0
  7  8  1  0
  8  9  1  0
  9 10  2  0
  9 11  1  0
 11 12  2  0
 12 13  1  0
 13 14  2  0
 14 15  1  0
 15 16  1  0
 16 17  2  0
 16 18  2  0
 16 19  1  0
 19 20  1  0
 20 21  2  0
 21 22  1  0
 22 23  1  0
 22 24  2  0
 21 25  1  0
 25 26  2  0
 26 27  1  0
 27 28  1  0
 28 29  1  0
 29 30  2  0
 29 31  1  0
 31 32  1  0
 32 33  1  0
 33 34  2  0
 34 35  1  0
 35 36  2  0
 36 37  1  0
 37 38  2  0
 38 39  1  0
 39 40  1  0
 27 41  1  0
 41 42  2  0
 15 43  2  0
  7  2  1  0
 43 11  1  0
 41 20  1  0
 38 33  1  0
  1 44  1  0
  1 45  1  0
  1 46  1  0
  3 47  1  0
  4 48  1  0
  5 49  1  0
  6 50  1  0
 12 51  1  0
 13 52  1  0
 14 53  1  0
 23 54  1  0
 25 55  1  0
 26 56  1  0
 28 57  1  0
 28 58  1  0
 32 59  1  0
 32 60  1  0
 34 61  1  0
 35 62  1  0
 36 63  1  0
 37 64  1  0
 39 65  1  0
 39 66  1  0
 40 67  1  0
 40 68  1  0
 43 69  1  0
M  CHG  4   8  -1  19  -1  23  -1  31  -1
M  END
>  <UniqueID>  (4) 
4

>  <SMILES>  (4) 
Cc1ccccc1[N-]C(=O)c1cccc(S(=O)(=O)[N-]c2c(C([NH-])=O)ccn(CC(=O)[N-]Cc3ccccc3CN)c2=O)c1

>  <Energy>  (4) 
90.37635954509517

>  <Genealogy>  (4) 
Cc1ccccc1[N-]C(=O)c1cccc(S(=O)(=O)[N-]c2c(C([NH-])=O)ccn(CC(=O)[N-]Cc3ccccc3CN)c2=O)c1 (protonated)
Cc1ccccc1[N-]C(=O)c1cccc(S(=O)(=O)[N-]c2c(C([NH-])=O)ccn(CC(=O)[N-]Cc3ccccc3CN)c2=O)c1 (3D coordinates assigned)
Cc1ccccc1[N-]C(=O)c1cccc(S(=O)(=O)[N-]c2c(C([NH-])=O)ccn(CC(=O)[N-]Cc3ccccc3CN)c2=O)c1 (optimized conformer: 90.37635954509517 kcal/mol)

>  <smiles>  (4) 
Cc1ccccc1NC(=O)c1cccc(S(=O)(=O)Nc2c(C(N)=O)ccn(CC(=O)NCc3ccccc3CN)c2=O)c1

>  <score_type>  (4) 
oracle

>  <origin>  (4) 
adg

>  <m_score__min__energy>  (4) 
-15.619999999999999

>  <m_primary>  (4) 
energy

$$$$
4:0
     RDKit          3D

 74 78  0  0  0  0  0  0  0  0999 V2000
   56.0990   31.5450   52.5100 C   0  0  0  0  0  0  0  0  0  0  0  0
   56.5210   31.2790   51.1770 O   0  0  0  0  0  0  0  0  0  0  0  0
   57.8560   31.0750   50.7880 C   0  0  0  0  0  0  0  0  0  0  0  0
   58.5420   31.9930   49.9690 C   0  0  0  0  0  0  0  0  0  0  0  0
   59.8790   31.7620   49.5990 C   0  0  0  0  0  0  0  0  0  0  0  0
   60.5920   32.6590   48.7720 C   0  0  0  0  0  0  0  0  0  0  0  0
   59.9420   33.8410   48.2760 N   0  0  0  0  0  0  0  0  0  0  0  0
   59.2660   33.8940   47.0060 C   0  0  0  0  0  0  0  0  0  0  0  0
   59.5000   34.9330   46.0890 C   0  0  0  0  0  0  0  0  0  0  0  0
   58.8240   34.9370   44.8690 C   0  0  0  0  0  0  0  0  0  0  0  0
   57.9410   33.9490   44.5750 N   0  0  0  0  0  0  0  0  0  0  0  0
   57.6780   32.9330   45.4430 C   0  0  0  0  0  0  0  0  0  0  0  0
   56.8390   31.9850   45.1440 N   0  0  0  0  0  0  0  0  0  0  0  0
   57.1300   30.6020   44.8840 C   0  0  0  0  0  0  0  0  0  0  0  0
   56.1680   29.7930   44.8040 O   0  0  0  0  0  0  0  0  0  0  0  0
   58.5140   30.1110   44.5380 C   0  0  0  0  0  0  0  0  0  0  0  0
   59.0330   29.1700   45.5940 C   0  0  0  0  0  0  0  0  0  0  0  0
   59.9290   28.1440   45.2460 C   0  0  0  0  0  0  0  0  0  0  0  0
   60.3950   27.2520   46.2170 C   0  0  0  0  0  0  0  0  0  0  0  0
   59.9600   27.3690   47.5420 C   0  0  0  0  0  0  0  0  0  0  0  0
   60.4200   26.4810   48.5060 O   0  0  0  0  0  0  0  0  0  0  0  0
   59.0600   28.3800   47.8940 C   0  0  0  0  0  0  0  0  0  0  0  0
   58.5950   29.2760   46.9260 C   0  0  0  0  0  0  0  0  0  0  0  0
   58.3540   32.8840   46.6690 C   0  0  0  0  0  0  0  0  0  0  0  0
   61.9350   32.3730   48.4220 C   0  0  0  0  0  0  0  0  0  0  0  0
   62.7580   33.2960   47.5970 C   0  0  0  0  0  0  0  0  0  0  0  0
   64.1150   33.5590   47.9490 N   0  0  0  0  0  0  0  0  0  0  0  0
   62.2660   33.8720   46.5890 O   0  0  0  0  0  0  0  0  0  0  0  0
   62.5110   31.1810   48.8930 C   0  0  0  0  0  0  0  0  0  0  0  0
   61.8040   30.3360   49.6850 N   0  0  0  0  0  0  0  0  0  0  0  0
   60.5220   30.5920   50.0500 C   0  0  0  0  0  0  0  0  0  0  0  0
   59.8440   29.6840   50.8670 C   0  0  0  0  0  0  0  0  0  0  0  0
   58.5070   29.9170   51.2410 C   0  0  0  0  0  0  0  0  0  0  0  0
   57.7800   29.0360   52.0630 O   0  0  0  0  0  0  0  0  0  0  0  0
   58.0760   28.6870   53.4180 C   0  0  0  0  0  0  0  0  0  0  0  0
   58.1240   29.9280   54.3190 C   0  0  0  0  0  0  0  0  0  0  0  0
   59.5080   30.5930   54.3480 C   0  0  0  0  0  0  0  0  0  0  0  0
   59.5760   31.7260   53.3990 N   0  0  0  0  0  0  0  0  0  0  0  0
   58.8880   32.9040   53.9600 C   0  0  0  0  0  0  0  0  0  0  0  0
   58.9190   34.0750   52.9530 C   0  0  0  0  0  0  0  0  0  0  0  0
   59.8110   33.8430   51.8780 O   0  0  0  0  0  0  0  0  0  0  0  0
   61.0700   33.4520   52.3830 C   0  0  0  0  0  0  0  0  0  0  0  0
   60.9770   32.0710   53.0600 C   0  0  0  0  0  0  0  0  0  0  0  0
   56.8120   31.0956   53.2169 H   0  0  0  0  0  0  0  0  0  0  0  0
   56.0584   32.6323   52.6717 H   0  0  0  0  0  0  0  0  0  0  0  0
   55.1005   31.1127   52.6717 H   0  0  0  0  0  0  0  0  0  0  0  0
   58.0274   32.8987   49.6157 H   0  0  0  0  0  0  0  0  0  0  0  0
   59.9110   34.6760   48.9040 H   0  0  0  0  0  0  0  0  0  0  0  0
   60.2107   35.7368   46.3315 H   0  0  0  0  0  0  0  0  0  0  0  0
   59.0070   35.7430   44.1432 H   0  0  0  0  0  0  0  0  0  0  0  0
   58.4779   29.5841   43.5731 H   0  0  0  0  0  0  0  0  0  0  0  0
   59.1887   30.9778   44.4789 H   0  0  0  0  0  0  0  0  0  0  0  0
   60.2655   28.0423   44.2037 H   0  0  0  0  0  0  0  0  0  0  0  0
   61.1038   26.4580   45.9392 H   0  0  0  0  0  0  0  0  0  0  0  0
   58.7169   28.4707   48.9352 H   0  0  0  0  0  0  0  0  0  0  0  0
   57.8840   30.0666   47.2077 H   0  0  0  0  0  0  0  0  0  0  0  0
   58.1694   32.0538   47.3666 H   0  0  0  0  0  0  0  0  0  0  0  0
   64.9010   33.0700   47.4660 H   0  0  0  0  0  0  0  0  0  0  0  0
   63.5458   30.9303   48.6168 H   0  0  0  0  0  0  0  0  0  0  0  0
   60.3594   28.7790   51.2212 H   0  0  0  0  0  0  0  0  0  0  0  0
   57.2974   28.0048   53.7900 H   0  0  0  0  0  0  0  0  0  0  0  0
   59.0637   28.2034   53.4427 H   0  0  0  0  0  0  0  0  0  0  0  0
   57.3910   30.6595   53.9481 H   0  0  0  0  0  0  0  0  0  0  0  0
   57.8937   29.6008   55.3437 H   0  0  0  0  0  0  0  0  0  0  0  0
   59.7070   30.9636   55.3644 H   0  0  0  0  0  0  0  0  0  0  0  0
   60.2601   29.8461   54.0539 H   0  0  0  0  0  0  0  0  0  0  0  0
   57.8424   32.6426   54.1800 H   0  0  0  0  0  0  0  0  0  0  0  0
   59.4022   33.2123   54.8822 H   0  0  0  0  0  0  0  0  0  0  0  0
   57.9068   34.2177   52.5468 H   0  0  0  0  0  0  0  0  0  0  0  0
   59.2691   34.9686   53.4906 H   0  0  0  0  0  0  0  0  0  0  0  0
   61.7919   33.4007   51.5546 H   0  0  0  0  0  0  0  0  0  0  0  0
   61.3985   34.1912   53.1284 H   0  0  0  0  0  0  0  0  0  0  0  0
   61.3770   31.3092   52.3747 H   0  0  0  0  0  0  0  0  0  0  0  0
   61.5599   32.1035   53.9923 H   0  0  0  0  0  0  0  0  0  0  0  0
  1  2  1  0
  2  3  1  0
  3  4  2  0
  4  5  1  0
  5  6  2  0
  6  7  1  0
  7  8  1  0
  8  9  1  0
  9 10  2  0
 10 11  1  0
 11 12  1  0
 12 13  2  3
 13 14  1  0
 14 15  2  0
 14 16  1  0
 16 17  1  0
 17 18  2  0
 18 19  1  0
 19 20  2  0
 20 21  1  0
 20 22  1  0
 22 23  2  0
 12 24  1  0
  6 25  1  0
 25 26  1  0
 26 27  1  0
 26 28  2  0
 25 29  2  0
 29 30  1  0
 30 31  2  0
 31 32  1  0
 32 33  2  0
 33 34  1  0
 34 35  1  0
 35 36  1  0
 36 37  1  0
 37 38  1  0
 38 39  1  0
 39 40  1  0
 40 41  1  0
 41 42  1  0
 42 43  1  0
 33  3  1  0
 43 38  1  0
 31  5  1  0
 24  8  2  0
 23 17  1  0
  1 44  1  0
  1 45  1  0
  1 46  1  0
  4 47  1  0
  7 48  1  0
  9 49  1  0
 10 50  1  0
 16 51  1  0
 16 52  1  0
 18 53  1  0
 19 54  1  0
 22 55  1  0
 23 56  1  0
 24 57  1  0
 27 58  1  0
 29 59  1  0
 32 60  1  0
 35 61  1  0
 35 62  1  0
 36 63  1  0
 36 64  1  0
 37 65  1  0
 37 66  1  0
 39 67  1  0
 39 68  1  0
 40 69  1  0
 40 70  1  0
 42 71  1  0
 42 72  1  0
 43 73  1  0
 43 74  1  0
M  CHG  3  11  -1  21  -1  27  -1
M  END
>  <UniqueID>  (5) 
5

>  <SMILES>  (5) 
COc1cc2c(Nc3cc[n-]c(=NC(=O)Cc4ccc([O-])cc4)c3)c(C([NH-])=O)cnc2cc1OCCCN1CCOCC1

>  <Energy>  (5) 
107.65165545443162

>  <Genealogy>  (5) 
COc1cc2c(Nc3cc[n-]c(=NC(=O)Cc4ccc([O-])cc4)c3)c(C([NH-])=O)cnc2cc1OCCCN1CCOCC1 (protonated)
COc1cc2c(Nc3cc[n-]c(=NC(=O)Cc4ccc([O-])cc4)c3)c(C([NH-])=O)cnc2cc1OCCCN1CCOCC1 (3D coordinates assigned)
COc1cc2c(Nc3cc[n-]c(=NC(=O)Cc4ccc([O-])cc4)c3)c(C([NH-])=O)cnc2cc1OCCCN1CCOCC1 (nonaromatic ring conformer: 107.65165545443162 kcal/mol)

>  <smiles>  (5) 
COc1cc2c(Nc3cc[nH]c(=NC(=O)Cc4ccc(O)cc4)c3)c(C(N)=O)cnc2cc1OCCCN1CCOCC1

>  <score_type>  (5) 
oracle

>  <origin>  (5) 
adg

>  <m_score__min__energy>  (5) 
-15.880000000000001

>  <m_primary>  (5) 
energy

$$$$
5:0
     RDKit          3D

 41 43  0  0  0  0  0  0  0  0999 V2000
   58.9720   26.5130   47.4210 O   0  0  0  0  0  0  0  0  0  0  0  0
   59.1770   27.5510   46.7320 C   0  0  0  0  0  0  0  0  0  0  0  0
   58.7390   27.5800   45.2920 C   0  0  0  0  0  0  0  0  0  0  0  0
   57.6300   28.5660   45.0860 C   0  0  0  0  0  0  0  0  0  0  0  0
   57.8070   29.8240   44.6460 N   0  0  0  0  0  0  0  0  0  0  0  0
   56.5470   30.3080   44.5740 C   0  0  0  0  0  0  0  0  0  0  0  0
   56.2930   31.4820   44.1990 O   0  0  0  0  0  0  0  0  0  0  0  0
   55.5830   29.4330   44.9330 N   0  0  0  0  0  0  0  0  0  0  0  0
   56.2860   28.3340   45.2510 C   0  0  0  0  0  0  0  0  0  0  0  0
   55.7140   27.1390   45.6740 O   0  0  0  0  0  0  0  0  0  0  0  0
   59.8310   28.6810   47.3360 N   0  0  0  0  0  0  0  0  0  0  0  0
   60.8070   29.4910   46.6030 C   0  0  0  0  0  0  0  0  0  0  0  0
   60.4960   30.9630   46.8580 C   0  0  0  0  0  0  0  0  0  0  0  0
   60.5550   31.3090   48.2970 N   0  0  0  0  0  0  0  0  0  0  0  0
   59.4740   32.6300   48.6740 S   0  0  0  0  0  0  0  0  0  0  0  0
   58.3200   32.1100   49.4860 O   0  0  0  0  0  0  0  0  0  0  0  0
   60.2020   33.6520   49.5030 O   0  0  0  0  0  0  0  0  0  0  0  0
   58.8540   33.4030   47.2130 C   0  0  0  0  0  0  0  0  0  0  0  0
   57.5220   33.2050   46.8200 C   0  0  0  0  0  0  0  0  0  0  0  0
   57.0370   33.8040   45.6530 C   0  0  0  0  0  0  0  0  0  0  0  0
   57.8770   34.6080   44.8770 C   0  0  0  0  0  0  0  0  0  0  0  0
   59.2010   34.8180   45.2700 C   0  0  0  0  0  0  0  0  0  0  0  0
   59.6910   34.2180   46.4350 C   0  0  0  0  0  0  0  0  0  0  0  0
   60.3970   30.1770   49.2410 C   0  0  0  0  0  0  0  0  0  0  0  0
   59.4910   29.0490   48.7140 C   0  0  0  0  0  0  0  0  0  0  0  0
   59.5945   27.8645   44.6618 H   0  0  0  0  0  0  0  0  0  0  0  0
   58.3729   26.5796   45.0177 H   0  0  0  0  0  0  0  0  0  0  0  0
   54.7500   27.1100   45.9820 H   0  0  0  0  0  0  0  0  0  0  0  0
   61.8228   29.2589   46.9557 H   0  0  0  0  0  0  0  0  0  0  0  0
   60.7489   29.2723   45.5265 H   0  0  0  0  0  0  0  0  0  0  0  0
   61.2290   31.5785   46.3159 H   0  0  0  0  0  0  0  0  0  0  0  0
   59.4715   31.1561   46.5072 H   0  0  0  0  0  0  0  0  0  0  0  0
   56.8573   32.5770   47.4313 H   0  0  0  0  0  0  0  0  0  0  0  0
   55.9933   33.6423   45.3454 H   0  0  0  0  0  0  0  0  0  0  0  0
   57.4955   35.0752   43.9571 H   0  0  0  0  0  0  0  0  0  0  0  0
   59.8594   35.4562   44.6624 H   0  0  0  0  0  0  0  0  0  0  0  0
   60.7340   34.3853   46.7418 H   0  0  0  0  0  0  0  0  0  0  0  0
   61.3920   29.7552   49.4461 H   0  0  0  0  0  0  0  0  0  0  0  0
   59.9151   30.5787   50.1445 H   0  0  0  0  0  0  0  0  0  0  0  0
   59.6096   28.1657   49.3587 H   0  0  0  0  0  0  0  0  0  0  0  0
   58.4517   29.4090   48.7268 H   0  0  0  0  0  0  0  0  0  0  0  0
  1  2  2  0
  2  3  1  0
  3  4  1  0
  4  5  1  0
  5  6  1  0
  6  7  2  0
  6  8  1  0
  8  9  1  0
  9 10  1  0
  2 11  1  0
 11 12  1  0
 12 13  1  0
 13 14  1  0
 14 15  1  0
 15 16  2  0
 15 17  2  0
 15 18  1  0
 18 19  2  0
 19 20  1  0
 20 21  2  0
 21 22  1  0
 22 23  2  0
 14 24  1  0
 24 25  1  0
  9  4  2  0
 25 11  1  0
 23 18  1  0
  3 26  1  0
  3 27  1  0
 10 28  1  0
 12 29  1  0
 12 30  1  0
 13 31  1  0
 13 32  1  0
 19 33  1  0
 20 34  1  0
 21 35  1  0
 22 36  1  0
 23 37  1  0
 24 38  1  0
 24 39  1  0
 25 40  1  0
 25 41  1  0
M  CHG  2   5  -1   8  -1
M  END
>  <UniqueID>  (6) 
6

>  <SMILES>  (6) 
O=C(Cc1[n-]c(=O)[n-]c1O)N1CCN(S(=O)(=O)c2ccccc2)CC1

>  <Energy>  (6) 
76.52705111016361

>  <Genealogy>  (6) 
O=C(Cc1[n-]c(=O)[n-]c1O)N1CCN(S(=O)(=O)c2ccccc2)CC1 (protonated)
O=C(Cc1[n-]c(=O)[n-]c1O)N1CCN(S(=O)(=O)c2ccccc2)CC1 (3D coordinates assigned)
O=C(Cc1[n-]c(=O)[n-]c1O)N1CCN(S(=O)(=O)c2ccccc2)CC1 (nonaromatic ring conformer: 76.52705111016361 kcal/mol)

>  <smiles>  (6) 
O=C(Cc1[nH]c(=O)[nH]c1O)N1CCN(S(=O)(=O)c2ccccc2)CC1

>  <score_type>  (6) 
oracle

>  <origin>  (6) 
adg

>  <m_score__min__energy>  (6) 
-13.699999999999999

>  <m_primary>  (6) 
energy

$$$$
6:0
     RDKit          3D

 65 68  0  0  0  0  0  0  0  0999 V2000
   54.9760   26.2380   45.9830 O   0  0  0  0  0  0  0  0  0  0  0  0
   56.1980   25.9400   46.0130 C   0  0  0  0  0  0  0  0  0  0  0  0
   56.7670   25.4030   47.2070 N   0  0  0  0  0  0  0  0  0  0  0  0
   58.1590   25.6260   47.5750 C   0  0  0  0  0  0  0  0  0  0  0  0
   58.3880   27.0870   47.8310 C   0  0  0  0  0  0  0  0  0  0  0  0
   57.5160   27.9220   47.4630 O   0  0  0  0  0  0  0  0  0  0  0  0
   59.5970   27.5320   48.4690 N   0  0  0  0  0  0  0  0  0  0  0  0
   59.9870   28.9140   48.5530 C   0  0  0  0  0  0  0  0  0  0  0  0
   61.0630   29.3770   47.7820 C   0  0  0  0  0  0  0  0  0  0  0  0
   61.4650   30.7140   47.8610 C   0  0  0  0  0  0  0  0  0  0  0  0
   60.7910   31.6010   48.7040 C   0  0  0  0  0  0  0  0  0  0  0  0
   59.6970   31.1590   49.4590 C   0  0  0  0  0  0  0  0  0  0  0  0
   58.8630   32.2690   50.5450 S   0  0  0  0  0  0  0  0  0  0  0  0
   59.4380   33.6460   50.3580 O   0  0  0  0  0  0  0  0  0  0  0  0
   57.4030   32.3130   50.1870 O   0  0  0  0  0  0  0  0  0  0  0  0
   59.0850   31.7440   52.2030 N   0  0  0  0  0  0  0  0  0  0  0  0
   59.6220   30.3700   52.2890 C   0  0  0  0  0  0  0  0  0  0  0  0
   58.5260   29.3090   52.5060 C   0  0  0  0  0  0  0  0  0  0  0  0
   57.3100   29.7290   51.9300 O   0  0  0  0  0  0  0  0  0  0  0  0
   56.7870   30.8360   52.6450 C   0  0  0  0  0  0  0  0  0  0  0  0
   57.8520   31.9040   52.9940 C   0  0  0  0  0  0  0  0  0  0  0  0
   59.2870   29.8220   49.3670 C   0  0  0  0  0  0  0  0  0  0  0  0
   57.0130   26.2070   44.8670 N   0  0  0  0  0  0  0  0  0  0  0  0
   57.9140   27.3150   44.7430 C   0  0  0  0  0  0  0  0  0  0  0  0
   59.3060   27.1540   44.8540 C   0  0  0  0  0  0  0  0  0  0  0  0
   60.1460   28.2700   44.8100 C   0  0  0  0  0  0  0  0  0  0  0  0
   59.6070   29.5490   44.6480 C   0  0  0  0  0  0  0  0  0  0  0  0
   58.2230   29.7140   44.4960 C   0  0  0  0  0  0  0  0  0  0  0  0
   57.5340   31.3280   44.3390 S   0  0  0  0  0  0  0  0  0  0  0  0
   56.1120   31.3190   44.8310 O   0  0  0  0  0  0  0  0  0  0  0  0
   57.5340   31.7200   42.8880 O   0  0  0  0  0  0  0  0  0  0  0  0
   58.4870   32.4680   45.2560 N   0  0  0  0  0  0  0  0  0  0  0  0
   57.9000   32.6570   46.5920 C   0  0  0  0  0  0  0  0  0  0  0  0
   58.6790   33.7350   47.3530 C   0  0  0  0  0  0  0  0  0  0  0  0
   58.6770   34.9560   46.6400 O   0  0  0  0  0  0  0  0  0  0  0  0
   59.3080   34.7770   45.3870 C   0  0  0  0  0  0  0  0  0  0  0  0
   58.5450   33.7510   44.5400 C   0  0  0  0  0  0  0  0  0  0  0  0
   57.3840   28.5930   44.5290 C   0  0  0  0  0  0  0  0  0  0  0  0
   58.3923   25.0545   48.4855 H   0  0  0  0  0  0  0  0  0  0  0  0
   58.8102   25.2943   46.7529 H   0  0  0  0  0  0  0  0  0  0  0  0
   60.1690   26.8250   48.9820 H   0  0  0  0  0  0  0  0  0  0  0  0
   61.5935   28.6848   47.1116 H   0  0  0  0  0  0  0  0  0  0  0  0
   62.3140   31.0682   47.2579 H   0  0  0  0  0  0  0  0  0  0  0  0
   61.1199   32.6483   48.7750 H   0  0  0  0  0  0  0  0  0  0  0  0
   60.1513   30.1410   51.3523 H   0  0  0  0  0  0  0  0  0  0  0  0
   60.2938   30.3326   53.1592 H   0  0  0  0  0  0  0  0  0  0  0  0
   58.8400   28.3637   52.0392 H   0  0  0  0  0  0  0  0  0  0  0  0
   58.3772   29.1678   53.5867 H   0  0  0  0  0  0  0  0  0  0  0  0
   56.0067   31.3098   52.0313 H   0  0  0  0  0  0  0  0  0  0  0  0
   56.3920   30.4497   53.5962 H   0  0  0  0  0  0  0  0  0  0  0  0
   57.4314   32.9009   52.7957 H   0  0  0  0  0  0  0  0  0  0  0  0
   58.1150   31.7826   54.0552 H   0  0  0  0  0  0  0  0  0  0  0  0
   58.4102   29.4801   49.9364 H   0  0  0  0  0  0  0  0  0  0  0  0
   59.7347   26.1483   44.9757 H   0  0  0  0  0  0  0  0  0  0  0  0
   61.2345   28.1412   44.9032 H   0  0  0  0  0  0  0  0  0  0  0  0
   60.2692   30.4273   44.6397 H   0  0  0  0  0  0  0  0  0  0  0  0
   56.8503   32.9692   46.4889 H   0  0  0  0  0  0  0  0  0  0  0  0
   57.9518   31.7099   47.1490 H   0  0  0  0  0  0  0  0  0  0  0  0
   58.2111   33.8912   48.3362 H   0  0  0  0  0  0  0  0  0  0  0  0
   59.7196   33.3989   47.4722 H   0  0  0  0  0  0  0  0  0  0  0  0
   59.3328   35.7389   44.8540 H   0  0  0  0  0  0  0  0  0  0  0  0
   60.3307   34.4083   45.5545 H   0  0  0  0  0  0  0  0  0  0  0  0
   57.5232   34.1147   44.3565 H   0  0  0  0  0  0  0  0  0  0  0  0
   59.0632   33.6112   43.5799 H   0  0  0  0  0  0  0  0  0  0  0  0
   56.3005   28.7177   44.3857 H   0  0  0  0  0  0  0  0  0  0  0  0
  1  2  2  0
  2  3  1  0
  3  4  1  0
  4  5  1  0
  5  6  2  0
  5  7  1  0
  7  8  1  0
  8  9  2  0
  9 10  1  0
 10 11  2  0
 11 12  1  0
 12 13  1  0
 13 14  2  0
 13 15  2  0
 13 16  1  0
 16 17  1  0
 17 18  1  0
 18 19  1  0
 19 20  1  0
 20 21  1  0
 12 22  2  0
  2 23  1  0
 23 24  1  0
 24 25  2  0
 25 26  1  0
 26 27  2  0
 27 28  1  0
 28 29  1  0
 29 30  2  0
 29 31  2  0
 29 32  1  0
 32 33  1  0
 33 34  1  0
 34 35  1  0
 35 36  1  0
 36 37  1  0
 28 38  2  0
 22  8  1  0
 38 24  1  0
 21 16  1  0
 37 32  1  0
  4 39  1  0
  4 40  1  0
  7 41  1  0
  9 42  1  0
 10 43  1  0
 11 44  1  0
 17 45  1  0
 17 46  1  0
 18 47  1  0
 18 48  1  0
 20 49  1  0
 20 50  1  0
 21 51  1  0
 21 52  1  0
 22 53  1  0
 25 54  1  0
 26 55  1  0
 27 56  1  0
 33 57  1  0
 33 58  1  0
 34 59  1  0
 34 60  1  0
 36 61  1  0
 36 62  1  0
 37 63  1  0
 37 64  1  0
 38 65  1  0
M  CHG  2   3  -1  23  -1
M  END
>  <UniqueID>  (7) 
7

>  <SMILES>  (7) 
O=C([N-]CC(=O)Nc1cccc(S(=O)(=O)N2CCOCC2)c1)[N-]c1cccc(S(=O)(=O)N2CCOCC2)c1

>  <Energy>  (7) 
81.76562574584108

>  <Genealogy>  (7) 
O=C([N-]CC(=O)Nc1cccc(S(=O)(=O)N2CCOCC2)c1)[N-]c1cccc(S(=O)(=O)N2CCOCC2)c1 (protonated)
O=C([N-]CC(=O)Nc1cccc(S(=O)(=O)N2CCOCC2)c1)[N-]c1cccc(S(=O)(=O)N2CCOCC2)c1 (3D coordinates assigned)
O=C([N-]CC(=O)Nc1cccc(S(=O)(=O)N2CCOCC2)c1)[N-]c1cccc(S(=O)(=O)N2CCOCC2)c1 (nonaromatic ring conformer: 81.76562574584108 kcal/mol)

>  <smiles>  (7) 
O=C(CNC(=O)Nc1cccc(S(=O)(=O)N2CCOCC2)c1)Nc1cccc(S(=O)(=O)N2CCOCC2)c1

>  <score_type>  (7) 
oracle

>  <origin>  (7) 
adg

>  <m_score__min__energy>  (7) 
-13.869999999999999

>  <m_primary>  (7) 
energy

$$$$
7:0
     RDKit          3D

 48 50  0  0  0  0  0  0  0  0999 V2000
   56.3150   29.7130   42.8270 C   0  0  0  0  0  0  0  0  0  0  0  0
   56.2650   29.4780   44.3040 C   0  0  0  0  0  0  0  0  0  0  0  0
   55.1450   29.3640   44.8680 O   0  0  0  0  0  0  0  0  0  0  0  0
   57.4710   29.3960   45.0850 N   0  0  0  0  0  0  0  0  0  0  0  0
   58.1630   28.2760   45.4010 C   0  0  0  0  0  0  0  0  0  0  0  0
   57.7820   26.8800   45.0100 C   0  0  0  0  0  0  0  0  0  0  0  0
   59.3030   28.6010   46.1110 C   0  0  0  0  0  0  0  0  0  0  0  0
   59.3180   29.9760   46.2220 C   0  0  0  0  0  0  0  0  0  0  0  0
   58.1860   30.4380   45.5740 C   0  0  0  0  0  0  0  0  0  0  0  0
   57.7760   31.8590   45.5260 C   0  0  0  0  0  0  0  0  0  0  0  0
   56.6790   32.1670   44.9890 O   0  0  0  0  0  0  0  0  0  0  0  0
   58.5780   32.8850   46.1410 N   0  0  0  0  0  0  0  0  0  0  0  0
   57.9070   34.0370   46.7580 C   0  0  0  0  0  0  0  0  0  0  0  0
   58.9040   34.9400   47.5010 C   0  0  0  0  0  0  0  0  0  0  0  0
   59.9560   34.1100   48.2680 C   0  0  0  0  0  0  0  0  0  0  0  0
   59.3020   33.3380   49.4420 C   0  0  0  0  0  0  0  0  0  0  0  0
   59.8510   31.9380   49.5780 C   0  0  0  0  0  0  0  0  0  0  0  0
   61.1880   31.7260   49.9580 C   0  0  0  0  0  0  0  0  0  0  0  0
   61.6850   30.4270   50.0920 C   0  0  0  0  0  0  0  0  0  0  0  0
   60.8550   29.3300   49.8460 C   0  0  0  0  0  0  0  0  0  0  0  0
   59.5260   29.5310   49.4660 C   0  0  0  0  0  0  0  0  0  0  0  0
   59.0230   30.8290   49.3310 C   0  0  0  0  0  0  0  0  0  0  0  0
   60.7430   33.1680   47.3120 C   0  0  0  0  0  0  0  0  0  0  0  0
   60.0360   32.9050   45.9710 C   0  0  0  0  0  0  0  0  0  0  0  0
   56.5403   30.7718   42.6316 H   0  0  0  0  0  0  0  0  0  0  0  0
   57.0992   29.0831   42.3818 H   0  0  0  0  0  0  0  0  0  0  0  0
   55.3423   29.4569   42.3818 H   0  0  0  0  0  0  0  0  0  0  0  0
   57.6176   26.2775   45.9155 H   0  0  0  0  0  0  0  0  0  0  0  0
   56.8580   26.9055   44.4138 H   0  0  0  0  0  0  0  0  0  0  0  0
   58.5909   26.4325   44.4138 H   0  0  0  0  0  0  0  0  0  0  0  0
   60.0518   27.9007   46.5096 H   0  0  0  0  0  0  0  0  0  0  0  0
   60.0812   30.5862   46.7272 H   0  0  0  0  0  0  0  0  0  0  0  0
   57.4105   34.6244   45.9716 H   0  0  0  0  0  0  0  0  0  0  0  0
   57.1749   33.6594   47.4870 H   0  0  0  0  0  0  0  0  0  0  0  0
   59.4183   35.5817   46.7704 H   0  0  0  0  0  0  0  0  0  0  0  0
   58.3447   35.5460   48.2290 H   0  0  0  0  0  0  0  0  0  0  0  0
   60.6897   34.8050   48.7023 H   0  0  0  0  0  0  0  0  0  0  0  0
   59.4926   33.8859   50.3766 H   0  0  0  0  0  0  0  0  0  0  0  0
   58.2240   33.2604   49.2372 H   0  0  0  0  0  0  0  0  0  0  0  0
   61.8456   32.5865   50.1506 H   0  0  0  0  0  0  0  0  0  0  0  0
   62.7313   30.2676   50.3916 H   0  0  0  0  0  0  0  0  0  0  0  0
   61.2483   28.3082   49.9516 H   0  0  0  0  0  0  0  0  0  0  0  0
   58.8737   28.6667   49.2725 H   0  0  0  0  0  0  0  0  0  0  0  0
   57.9760   30.9827   49.0306 H   0  0  0  0  0  0  0  0  0  0  0  0
   61.7213   33.6257   47.1034 H   0  0  0  0  0  0  0  0  0  0  0  0
   60.8297   32.1972   47.8219 H   0  0  0  0  0  0  0  0  0  0  0  0
   60.3046   33.7006   45.2604 H   0  0  0  0  0  0  0  0  0  0  0  0
   60.3584   31.9244   45.5908 H   0  0  0  0  0  0  0  0  0  0  0  0
  1  2  1  0
  2  3  2  0
  2  4  1  0
  4  5  1  0
  5  6  1  0
  5  7  2  0
  7  8  1  0
  8  9  2  0
  9 10  1  0
 10 11  2  0
 10 12  1  0
 12 13  1  0
 13 14  1  0
 14 15  1  0
 15 16  1  0
 16 17  1  0
 17 18  2  0
 18 19  1  0
 19 20  2  0
 20 21  1  0
 21 22  2  0
 15 23  1  0
 23 24  1  0
  9  4  1  0
 24 12  1  0
 22 17  1  0
  1 25  1  0
  1 26  1  0
  1 27  1  0
  6 28  1  0
  6 29  1  0
  6 30  1  0
  7 31  1  0
  8 32  1  0
 13 33  1  0
 13 34  1  0
 14 35  1  0
 14 36  1  0
 15 37  1  0
 16 38  1  0
 16 39  1  0
 18 40  1  0
 19 41  1  0
 20 42  1  0
 21 43  1  0
 22 44  1  0
 23 45  1  0
 23 46  1  0
 24 47  1  0
 24 48  1  0
M  END
>  <UniqueID>  (8) 
8

>  <SMILES>  (8) 
CC(=O)n1c(C)ccc1C(=O)N1CCC(Cc2ccccc2)CC1

>  <Energy>  (8) 
82.80568912022606

>  <Genealogy>  (8) 
CC(=O)n1c(C)ccc1C(=O)N1CCC(Cc2ccccc2)CC1 (3D coordinates assigned)
CC(=O)n1c(C)ccc1C(=O)N1CCC(Cc2ccccc2)CC1 (nonaromatic ring conformer: 82.80568912022606 kcal/mol)

>  <smiles>  (8) 
CC(=O)n1c(C)ccc1C(=O)N1CCC(Cc2ccccc2)CC1

>  <score_type>  (8) 
oracle

>  <origin>  (8) 
adg

>  <m_score__min__energy>  (8) 
-7.9100000000000001

>  <m_primary>  (8) 
energy

$$$$
8:0
     RDKit          3D

 47 50  0  0  0  0  0  0  0  0999 V2000
   57.8470   32.3180   43.4400 C   0  0  0  0  0  0  0  0  0  0  0  0
   58.2590   33.1100   44.6470 C   0  0  0  0  0  0  0  0  0  0  0  0
   59.0730   34.2390   44.5060 C   0  0  0  0  0  0  0  0  0  0  0  0
   59.4740   34.9400   45.6450 C   0  0  0  0  0  0  0  0  0  0  0  0
   59.0890   34.5170   46.8770 N   0  0  0  0  0  0  0  0  0  0  0  0
   58.3130   33.4140   47.0590 C   0  0  0  0  0  0  0  0  0  0  0  0
   58.0030   33.0690   48.2760 N   0  0  0  0  0  0  0  0  0  0  0  0
   58.8940   31.9930   49.3080 S   0  0  0  0  0  0  0  0  0  0  0  0
   58.0560   31.6560   50.5110 O   0  0  0  0  0  0  0  0  0  0  0  0
   60.1500   32.6800   49.7640 O   0  0  0  0  0  0  0  0  0  0  0  0
   59.3340   30.5340   48.4240 C   0  0  0  0  0  0  0  0  0  0  0  0
   60.1580   30.6250   47.2960 C   0  0  0  0  0  0  0  0  0  0  0  0
   60.4930   29.4760   46.5730 C   0  0  0  0  0  0  0  0  0  0  0  0
   60.0180   28.2170   46.9830 C   0  0  0  0  0  0  0  0  0  0  0  0
   60.3240   27.0240   46.2390 N   0  0  0  0  0  0  0  0  0  0  0  0
   59.3320   26.1970   45.6040 C   0  0  0  0  0  0  0  0  0  0  0  0
   59.1570   24.8670   46.0270 C   0  0  0  0  0  0  0  0  0  0  0  0
   58.1680   24.0640   45.4550 C   0  0  0  0  0  0  0  0  0  0  0  0
   57.3340   24.5820   44.4650 C   0  0  0  0  0  0  0  0  0  0  0  0
   57.4860   25.9040   44.0420 C   0  0  0  0  0  0  0  0  0  0  0  0
   58.4850   26.7220   44.5980 C   0  0  0  0  0  0  0  0  0  0  0  0
   58.6150   28.1470   44.1140 C   0  0  0  0  0  0  0  0  0  0  0  0
   57.2890   28.8360   44.1540 C   0  0  0  0  0  0  0  0  0  0  0  0
   56.5880   29.0670   45.2790 N   0  0  0  0  0  0  0  0  0  0  0  0
   55.5030   29.7060   44.8700 N   0  0  0  0  0  0  0  0  0  0  0  0
   55.5430   29.8610   43.5550 N   0  0  0  0  0  0  0  0  0  0  0  0
   56.6540   29.3260   43.0750 N   0  0  0  0  0  0  0  0  0  0  0  0
   59.1840   28.1340   48.1070 C   0  0  0  0  0  0  0  0  0  0  0  0
   58.8510   29.2830   48.8290 C   0  0  0  0  0  0  0  0  0  0  0  0
   57.8850   32.6850   45.9300 C   0  0  0  0  0  0  0  0  0  0  0  0
   57.3616   31.3849   43.7619 H   0  0  0  0  0  0  0  0  0  0  0  0
   57.1420   32.9089   42.8368 H   0  0  0  0  0  0  0  0  0  0  0  0
   58.7356   32.0799   42.8368 H   0  0  0  0  0  0  0  0  0  0  0  0
   59.3940   34.5712   43.5077 H   0  0  0  0  0  0  0  0  0  0  0  0
   60.1031   35.8368   45.5444 H   0  0  0  0  0  0  0  0  0  0  0  0
   60.5436   31.6046   46.9771 H   0  0  0  0  0  0  0  0  0  0  0  0
   61.1304   29.5569   45.6802 H   0  0  0  0  0  0  0  0  0  0  0  0
   61.3280   26.7640   46.1220 H   0  0  0  0  0  0  0  0  0  0  0  0
   59.8048   24.4558   46.8152 H   0  0  0  0  0  0  0  0  0  0  0  0
   58.0468   23.0219   45.7858 H   0  0  0  0  0  0  0  0  0  0  0  0
   56.5549   23.9481   44.0164 H   0  0  0  0  0  0  0  0  0  0  0  0
   56.8184   26.3088   43.2671 H   0  0  0  0  0  0  0  0  0  0  0  0
   59.3228   28.6860   44.7609 H   0  0  0  0  0  0  0  0  0  0  0  0
   58.9807   28.1386   43.0766 H   0  0  0  0  0  0  0  0  0  0  0  0
   58.7889   27.1572   48.4228 H   0  0  0  0  0  0  0  0  0  0  0  0
   58.2078   29.2050   49.7179 H   0  0  0  0  0  0  0  0  0  0  0  0
   57.2611   31.7878   46.0552 H   0  0  0  0  0  0  0  0  0  0  0  0
  1  2  1  0
  2  3  1  0
  3  4  2  0
  4  5  1  0
  5  6  1  0
  6  7  2  3
  7  8  1  0
  8  9  2  0
  8 10  2  0
  8 11  1  0
 11 12  2  0
 12 13  1  0
 13 14  2  0
 14 15  1  0
 15 16  1  0
 16 17  2  0
 17 18  1  0
 18 19  2  0
 19 20  1  0
 20 21  2  0
 21 22  1  0
 22 23  1  0
 23 24  1  0
 24 25  2  0
 25 26  1  0
 26 27  1  0
 14 28  1  0
 28 29  2  0
  6 30  1  0
 30  2  2  0
 29 11  1  0
 21 16  1  0
 27 23  2  0
  1 31  1  0
  1 32  1  0
  1 33  1  0
  3 34  1  0
  4 35  1  0
 12 36  1  0
 13 37  1  0
 15 38  1  0
 17 39  1  0
 18 40  1  0
 19 41  1  0
 20 42  1  0
 22 43  1  0
 22 44  1  0
 28 45  1  0
 29 46  1  0
 30 47  1  0
M  CHG  2   5  -1  26  -1
M  END
>  <UniqueID>  (9) 
9

>  <SMILES>  (9) 
Cc1cc[n-]c(=NS(=O)(=O)c2ccc(Nc3ccccc3Cc3nn[n-]n3)cc2)c1

>  <Energy>  (9) 
99.6026001672304

>  <Genealogy>  (9) 
Cc1cc[n-]c(=NS(=O)(=O)c2ccc(Nc3ccccc3Cc3nn[n-]n3)cc2)c1 (protonated)
Cc1cc[n-]c(=NS(=O)(=O)c2ccc(Nc3ccccc3Cc3nn[n-]n3)cc2)c1 (3D coordinates assigned)
Cc1cc[n-]c(=NS(=O)(=O)c2ccc(Nc3ccccc3Cc3nn[n-]n3)cc2)c1 (optimized conformer: 99.6026001672304 kcal/mol)

>  <smiles>  (9) 
Cc1cc[nH]c(=NS(=O)(=O)c2ccc(Nc3ccccc3Cc3nn[nH]n3)cc2)c1

>  <score_type>  (9) 
oracle

>  <origin>  (9) 
adg

>  <m_score__min__energy>  (9) 
-12.27

>  <m_primary>  (9) 
energy

$$$$
9:0
     RDKit          3D

 45 47  0  0  0  0  0  0  0  0999 V2000
   60.9560   34.2260   49.2530 C   0  0  0  0  0  0  0  0  0  0  0  0
   60.0060   34.8750   48.4160 O   0  0  0  0  0  0  0  0  0  0  0  0
   59.3380   34.2580   47.3450 C   0  0  0  0  0  0  0  0  0  0  0  0
   58.4140   33.2140   47.5350 C   0  0  0  0  0  0  0  0  0  0  0  0
   57.7790   32.6270   46.4360 C   0  0  0  0  0  0  0  0  0  0  0  0
   58.0510   33.0780   45.1350 C   0  0  0  0  0  0  0  0  0  0  0  0
   57.3970   32.4190   43.9540 C   0  0  0  0  0  0  0  0  0  0  0  0
   56.9950   31.0150   44.3050 C   0  0  0  0  0  0  0  0  0  0  0  0
   55.7800   30.7620   44.5190 O   0  0  0  0  0  0  0  0  0  0  0  0
   57.9280   29.9270   44.2610 N   0  0  0  0  0  0  0  0  0  0  0  0
   58.2560   29.0580   45.3520 C   0  0  0  0  0  0  0  0  0  0  0  0
   58.9920   29.5200   46.4550 C   0  0  0  0  0  0  0  0  0  0  0  0
   59.2710   28.6620   47.5210 C   0  0  0  0  0  0  0  0  0  0  0  0
   58.8120   27.3440   47.4990 C   0  0  0  0  0  0  0  0  0  0  0  0
   58.0720   26.8730   46.4040 C   0  0  0  0  0  0  0  0  0  0  0  0
   57.5580   25.5360   46.3760 N   0  0  0  0  0  0  0  0  0  0  0  0
   57.1270   24.8360   45.2040 C   0  0  0  0  0  0  0  0  0  0  0  0
   57.4450   25.2890   44.0750 O   0  0  0  0  0  0  0  0  0  0  0  0
   56.4470   23.4970   45.2890 C   0  0  0  0  0  0  0  0  0  0  0  0
   54.9580   23.6780   45.3160 C   0  0  0  0  0  0  0  0  0  0  0  0
   54.0880   22.6590   45.1950 N   0  0  0  0  0  0  0  0  0  0  0  0
   52.8840   23.2560   45.3050 C   0  0  0  0  0  0  0  0  0  0  0  0
   51.8000   22.6200   45.2370 O   0  0  0  0  0  0  0  0  0  0  0  0
   52.9300   24.5900   45.4920 N   0  0  0  0  0  0  0  0  0  0  0  0
   54.2490   24.8480   45.4990 C   0  0  0  0  0  0  0  0  0  0  0  0
   54.7670   26.1290   45.6670 O   0  0  0  0  0  0  0  0  0  0  0  0
   57.7660   27.7460   45.3520 C   0  0  0  0  0  0  0  0  0  0  0  0
   58.9760   34.1160   44.9480 C   0  0  0  0  0  0  0  0  0  0  0  0
   59.6090   34.7030   46.0470 C   0  0  0  0  0  0  0  0  0  0  0  0
   60.6971   34.4029   50.3073 H   0  0  0  0  0  0  0  0  0  0  0  0
   60.9461   33.1451   49.0494 H   0  0  0  0  0  0  0  0  0  0  0  0
   61.9594   34.6283   49.0494 H   0  0  0  0  0  0  0  0  0  0  0  0
   58.1903   32.8583   48.5516 H   0  0  0  0  0  0  0  0  0  0  0  0
   57.0623   31.8072   46.5920 H   0  0  0  0  0  0  0  0  0  0  0  0
   56.5035   32.9922   43.6659 H   0  0  0  0  0  0  0  0  0  0  0  0
   58.1094   32.3913   43.1163 H   0  0  0  0  0  0  0  0  0  0  0  0
   59.3496   30.5600   46.4795 H   0  0  0  0  0  0  0  0  0  0  0  0
   59.8539   29.0257   48.3800 H   0  0  0  0  0  0  0  0  0  0  0  0
   59.0311   26.6728   48.3425 H   0  0  0  0  0  0  0  0  0  0  0  0
   56.7244   22.8914   44.4136 H   0  0  0  0  0  0  0  0  0  0  0  0
   56.7655   22.9884   46.2109 H   0  0  0  0  0  0  0  0  0  0  0  0
   55.7110   26.3690   45.4010 H   0  0  0  0  0  0  0  0  0  0  0  0
   57.1362   27.3985   44.5198 H   0  0  0  0  0  0  0  0  0  0  0  0
   59.2041   34.4695   43.9316 H   0  0  0  0  0  0  0  0  0  0  0  0
   60.3264   35.5219   45.8899 H   0  0  0  0  0  0  0  0  0  0  0  0
  1  2  1  0
  2  3  1  0
  3  4  2  0
  4  5  1  0
  5  6  2  0
  6  7  1  0
  7  8  1  0
  8  9  2  0
  8 10  1  0
 10 11  1  0
 11 12  2  0
 12 13  1  0
 13 14  2  0
 14 15  1  0
 15 16  1  0
 16 17  1  0
 17 18  2  0
 17 19  1  0
 19 20  1  0
 20 21  1  0
 21 22  1  0
 22 23  2  0
 22 24  1  0
 24 25  1  0
 25 26  1  0
 15 27  2  0
  6 28  1  0
 28 29  2  0
 29  3  1  0
 27 11  1  0
 25 20  2  0
  1 30  1  0
  1 31  1  0
  1 32  1  0
  4 33  1  0
  5 34  1  0
  7 35  1  0
  7 36  1  0
 12 37  1  0
 13 38  1  0
 14 39  1  0
 19 40  1  0
 19 41  1  0
 26 42  1  0
 27 43  1  0
 28 44  1  0
 29 45  1  0
M  CHG  4  10  -1  16  -1  21  -1  24  -1
M  END
>  <UniqueID>  (10) 
10

>  <SMILES>  (10) 
COc1ccc(CC(=O)[N-]c2cccc([N-]C(=O)Cc3[n-]c(=O)[n-]c3O)c2)cc1

>  <Energy>  (10) 
82.71121093450486

>  <Genealogy>  (10) 
COc1ccc(CC(=O)[N-]c2cccc([N-]C(=O)Cc3[n-]c(=O)[n-]c3O)c2)cc1 (protonated)
COc1ccc(CC(=O)[N-]c2cccc([N-]C(=O)Cc3[n-]c(=O)[n-]c3O)c2)cc1 (3D coordinates assigned)
COc1ccc(CC(=O)[N-]c2cccc([N-]C(=O)Cc3[n-]c(=O)[n-]c3O)c2)cc1 (optimized conformer: 82.71121093450486 kcal/mol)

>  <smiles>  (10) 
COc1ccc(CC(=O)Nc2cccc(NC(=O)Cc3[nH]c(=O)[nH]c3O)c2)cc1

>  <score_type>  (10) 
oracle

>  <origin>  (10) 
adg

>  <m_score__min__energy>  (10) 
-15.779999999999999

>  <m_primary>  (10) 
energy

$$$$
10:0
     RDKit          3D

 42 44  0  0  0  0  0  0  0  0999 V2000
   58.1340   33.9020   44.1920 O   0  0  0  0  0  0  0  0  0  0  0  0
   57.7800   32.7530   44.5700 C   0  0  0  0  0  0  0  0  0  0  0  0
   57.6720   31.6450   43.5690 C   0  0  0  0  0  0  0  0  0  0  0  0
   57.0650   30.4280   44.2090 C   0  0  0  0  0  0  0  0  0  0  0  0
   55.7150   30.1500   44.2530 C   0  0  0  0  0  0  0  0  0  0  0  0
   55.5180   28.9750   44.8790 N   0  0  0  0  0  0  0  0  0  0  0  0
   56.7580   28.5670   45.2180 C   0  0  0  0  0  0  0  0  0  0  0  0
   57.0300   27.1320   45.9600 S   0  0  0  0  0  0  0  0  0  0  0  0
   57.7290   29.4390   44.8460 N   0  0  0  0  0  0  0  0  0  0  0  0
   59.1830   29.2890   45.0110 C   0  0  0  0  0  0  0  0  0  0  0  0
   59.6260   29.6860   46.3970 C   0  0  0  0  0  0  0  0  0  0  0  0
   58.7180   29.6550   47.4710 C   0  0  0  0  0  0  0  0  0  0  0  0
   59.1260   30.0520   48.7500 C   0  0  0  0  0  0  0  0  0  0  0  0
   60.4390   30.4780   48.9650 C   0  0  0  0  0  0  0  0  0  0  0  0
   61.3470   30.5120   47.9020 C   0  0  0  0  0  0  0  0  0  0  0  0
   60.9420   30.1220   46.6220 C   0  0  0  0  0  0  0  0  0  0  0  0
   57.5150   32.4930   45.9550 N   0  0  0  0  0  0  0  0  0  0  0  0
   57.6950   33.5050   46.9910 C   0  0  0  0  0  0  0  0  0  0  0  0
   59.1480   33.6180   47.3640 C   0  0  0  0  0  0  0  0  0  0  0  0
   60.1450   33.5880   46.3730 C   0  0  0  0  0  0  0  0  0  0  0  0
   61.4920   33.7140   46.7270 C   0  0  0  0  0  0  0  0  0  0  0  0
   61.8540   33.8570   48.0700 C   0  0  0  0  0  0  0  0  0  0  0  0
   60.8700   33.8720   49.0620 C   0  0  0  0  0  0  0  0  0  0  0  0
   59.5210   33.7580   48.7110 C   0  0  0  0  0  0  0  0  0  0  0  0
   57.0367   31.9712   42.7323 H   0  0  0  0  0  0  0  0  0  0  0  0
   58.6774   31.3941   43.1999 H   0  0  0  0  0  0  0  0  0  0  0  0
   54.9214   30.7900   43.8400 H   0  0  0  0  0  0  0  0  0  0  0  0
   59.4560   28.2379   44.8359 H   0  0  0  0  0  0  0  0  0  0  0  0
   59.6824   29.9493   44.2867 H   0  0  0  0  0  0  0  0  0  0  0  0
   57.6842   29.3178   47.3053 H   0  0  0  0  0  0  0  0  0  0  0  0
   58.4120   30.0285   49.5865 H   0  0  0  0  0  0  0  0  0  0  0  0
   60.7588   30.7869   49.9711 H   0  0  0  0  0  0  0  0  0  0  0  0
   62.3810   30.8460   48.0732 H   0  0  0  0  0  0  0  0  0  0  0  0
   61.6574   30.1568   45.7872 H   0  0  0  0  0  0  0  0  0  0  0  0
   57.1870   31.5420   46.2390 H   0  0  0  0  0  0  0  0  0  0  0  0
   57.3403   34.4761   46.6152 H   0  0  0  0  0  0  0  0  0  0  0  0
   57.1189   33.2121   47.8811 H   0  0  0  0  0  0  0  0  0  0  0  0
   59.8647   33.4651   45.3164 H   0  0  0  0  0  0  0  0  0  0  0  0
   62.2681   33.7006   45.9476 H   0  0  0  0  0  0  0  0  0  0  0  0
   62.9141   33.9577   48.3458 H   0  0  0  0  0  0  0  0  0  0  0  0
   61.1564   33.9735   50.1192 H   0  0  0  0  0  0  0  0  0  0  0  0
   58.7483   33.7781   49.4936 H   0  0  0  0  0  0  0  0  0  0  0  0
  1  2  2  0
  2  3  1  0
  3  4  1  0
  4  5  2  0
  5  6  1  0
  6  7  1  0
  7  8  2  0
  7  9  1  0
  9 10  1  0
 10 11  1  0
 11 12  2  0
 12 13  1  0
 13 14  2  0
 14 15  1  0
 15 16  2  0
  2 17  1  0
 17 18  1  0
 18 19  1  0
 19 20  2  0
 20 21  1  0
 21 22  2  0
 22 23  1  0
 23 24  2  0
  9  4  1  0
 16 11  1  0
 24 19  1  0
  3 25  1  0
  3 26  1  0
  5 27  1  0
 10 28  1  0
 10 29  1  0
 12 30  1  0
 13 31  1  0
 14 32  1  0
 15 33  1  0
 16 34  1  0
 17 35  1  0
 18 36  1  0
 18 37  1  0
 20 38  1  0
 21 39  1  0
 22 40  1  0
 23 41  1  0
 24 42  1  0
M  CHG  1   6  -1
M  END
>  <UniqueID>  (11) 
11

>  <SMILES>  (11) 
O=C(Cc1c[n-]c(=S)n1Cc1ccccc1)NCc1ccccc1

>  <Energy>  (11) 
66.91966896782482

>  <Genealogy>  (11) 
O=C(Cc1c[n-]c(=S)n1Cc1ccccc1)NCc1ccccc1 (protonated)
O=C(Cc1c[n-]c(=S)n1Cc1ccccc1)NCc1ccccc1 (3D coordinates assigned)
O=C(Cc1c[n-]c(=S)n1Cc1ccccc1)NCc1ccccc1 (optimized conformer: 66.91966896782482 kcal/mol)

>  <smiles>  (11) 
O=C(Cc1c[nH]c(=S)n1Cc1ccccc1)NCc1ccccc1

>  <score_type>  (11) 
oracle

>  <origin>  (11) 
adg

>  <m_score__min__energy>  (11) 
-9.5600000000000005

>  <m_primary>  (11) 
energy

$$$$
11:0
     RDKit          3D

 34 36  0  0  0  0  0  0  0  0999 V2000
   57.5018   21.6897   43.8068 H   0  0  0  0  0  0  0  0  0  0  0  0
   57.6750   22.7170   44.1600 C   0  0  0  0  0  0  0  0  0  0  0  0
   58.8560   23.1990   45.2610 S   0  0  0  0  0  0  0  0  0  0  0  0
   58.4030   24.8240   45.2000 C   0  0  0  0  0  0  0  0  0  0  0  0
   58.9430   25.8110   45.8570 N   0  0  0  0  0  0  0  0  0  0  0  0
   58.2850   26.7810   46.6900 C   0  0  0  0  0  0  0  0  0  0  0  0
   58.3490   26.6930   47.9460 O   0  0  0  0  0  0  0  0  0  0  0  0
   57.5220   27.8930   46.0600 C   0  0  0  0  0  0  0  0  0  0  0  0
   56.1980   27.7280   45.6000 C   0  0  0  0  0  0  0  0  0  0  0  0
   55.5400   26.5090   45.7190 O   0  0  0  0  0  0  0  0  0  0  0  0
   55.5380   28.7710   45.0340 N   0  0  0  0  0  0  0  0  0  0  0  0
   56.1040   29.9950   44.8790 C   0  0  0  0  0  0  0  0  0  0  0  0
   55.4240   30.9250   44.3670 O   0  0  0  0  0  0  0  0  0  0  0  0
   57.4250   30.2180   45.3080 C   0  0  0  0  0  0  0  0  0  0  0  0
   58.0860   31.5380   45.1480 C   0  0  0  0  0  0  0  0  0  0  0  0
   58.0290   32.2250   43.9230 C   0  0  0  0  0  0  0  0  0  0  0  0
   57.4880   31.7832   43.0732 H   0  0  0  0  0  0  0  0  0  0  0  0
   58.6550   33.4650   43.7780 C   0  0  0  0  0  0  0  0  0  0  0  0
   58.6003   33.9980   42.8173 H   0  0  0  0  0  0  0  0  0  0  0  0
   59.3500   34.0300   44.8490 C   0  0  0  0  0  0  0  0  0  0  0  0
   59.8285   35.0138   44.7342 H   0  0  0  0  0  0  0  0  0  0  0  0
   59.4400   33.3470   46.0710 C   0  0  0  0  0  0  0  0  0  0  0  0
   60.1560   33.9700   47.2340 C   0  0  0  0  0  0  0  0  0  0  0  0
   59.7247   33.5948   48.1738 H   0  0  0  0  0  0  0  0  0  0  0  0
   61.2235   33.7083   47.1902 H   0  0  0  0  0  0  0  0  0  0  0  0
   60.0444   35.0635   47.1902 H   0  0  0  0  0  0  0  0  0  0  0  0
   58.7950   32.1090   46.2200 C   0  0  0  0  0  0  0  0  0  0  0  0
   58.8446   31.5809   47.1837 H   0  0  0  0  0  0  0  0  0  0  0  0
   58.1220   29.1560   45.9030 C   0  0  0  0  0  0  0  0  0  0  0  0
   59.1532   29.3130   46.2521 H   0  0  0  0  0  0  0  0  0  0  0  0
   57.3660   25.0050   44.3540 N   0  0  0  0  0  0  0  0  0  0  0  0
   56.9230   25.9310   44.1620 H   0  0  0  0  0  0  0  0  0  0  0  0
   56.9580   23.8440   43.7760 C   0  0  0  0  0  0  0  0  0  0  0  0
   56.1245   23.8000   43.0595 H   0  0  0  0  0  0  0  0  0  0  0  0
  1  2  1  0
  2  3  1  0
  3  4  1  0
  4  5  2  0
  5  6  1  0
  6  7  2  0
  6  8  1  0
  8  9  2  0
  9 10  1  0
  9 11  1  0
 11 12  1  0
 12 13  2  0
 12 14  1  0
 14 15  1  0
 15 16  2  0
 16 17  1  0
 16 18  1  0
 18 19  1  0
 18 20  2  0
 20 21  1  0
 20 22  1  0
 22 23  1  0
 23 24  1  0
 23 25  1  0
 23 26  1  0
 22 27  2  0
 27 28  1  0
 14 29  2  0
 29 30  1  0
  4 31  1  0
 31 32  1  0
 31 33  1  0
 33 34  1  0
 33  2  2  0
 29  8  1  0
 27 15  1  0
M  CHG  2  10  -1  11  -1
M  END
>  <UniqueID>  (12) 
12

>  <SMILES>  (12) 
Cc1cccc(-c2cc(C(=O)/N=c3/[nH]ccs3)c([O-])[n-]c2=O)c1

>  <Energy>  (12) 
79.3459288403325

>  <Genealogy>  (12) 
Cc1cccc(-c2cc(C(=O)N=c3[nH]ccs3)c([O-])[n-]c2=O)c1 (protonated)
Cc1cccc(-c2cc(C(=O)/N=c3/[nH]ccs3)c([O-])[n-]c2=O)c1 (cis-trans isomerization)
Cc1cccc(-c2cc(C(=O)/N=c3/[nH]ccs3)c([O-])[n-]c2=O)c1 (3D coordinates assigned)
Cc1cccc(-c2cc(C(=O)/N=c3/[nH]ccs3)c([O-])[n-]c2=O)c1 (optimized conformer: 79.3459288403325 kcal/mol)

>  <smiles>  (12) 
Cc1cccc(-c2cc(C(=O)N=c3[nH]ccs3)c(O)[nH]c2=O)c1

>  <score_type>  (12) 
oracle

>  <origin>  (12) 
adg

>  <m_score__min__energy>  (12) 
-12.35

>  <m_primary>  (12) 
energy

$$$$
12:0
     RDKit          3D

 44 46  0  0  0  0  0  0  0  0999 V2000
   60.7720   29.6050   49.7130 C   0  0  0  0  0  0  0  0  0  0  0  0
   60.1850   30.6330   48.3860 S   0  0  0  0  0  0  0  0  0  0  0  0
   58.9780   31.4060   48.8370 O   0  0  0  0  0  0  0  0  0  0  0  0
   61.2700   31.6000   48.0020 O   0  0  0  0  0  0  0  0  0  0  0  0
   59.7520   29.6210   47.0100 C   0  0  0  0  0  0  0  0  0  0  0  0
   60.7590   29.1100   46.1820 C   0  0  0  0  0  0  0  0  0  0  0  0
   60.4260   28.3280   45.0730 C   0  0  0  0  0  0  0  0  0  0  0  0
   59.0870   28.0600   44.7790 C   0  0  0  0  0  0  0  0  0  0  0  0
   58.0670   28.5720   45.5970 C   0  0  0  0  0  0  0  0  0  0  0  0
   56.6230   28.3000   45.2600 C   0  0  0  0  0  0  0  0  0  0  0  0
   56.0130   29.4600   44.6070 N   0  0  0  0  0  0  0  0  0  0  0  0
   56.6220   30.5350   44.1930 C   0  0  0  0  0  0  0  0  0  0  0  0
   56.7520   30.7360   42.8550 N   0  0  0  0  0  0  0  0  0  0  0  0
   57.3950   31.8250   42.3620 C   0  0  0  0  0  0  0  0  0  0  0  0
   57.4980   31.9820   41.1170 O   0  0  0  0  0  0  0  0  0  0  0  0
   57.9440   32.7620   43.2350 C   0  0  0  0  0  0  0  0  0  0  0  0
   57.8040   32.5540   44.6080 C   0  0  0  0  0  0  0  0  0  0  0  0
   58.3670   33.4820   45.5370 N   0  0  0  0  0  0  0  0  0  0  0  0
   59.4070   34.5290   45.5470 C   0  0  0  0  0  0  0  0  0  0  0  0
   59.2620   34.8790   46.9970 C   0  0  0  0  0  0  0  0  0  0  0  0
   60.4800   34.5560   47.8830 C   0  0  0  0  0  0  0  0  0  0  0  0
   60.1030   34.0180   49.1270 O   0  0  0  0  0  0  0  0  0  0  0  0
   58.2010   33.8200   46.9630 C   0  0  0  0  0  0  0  0  0  0  0  0
   57.1380   31.4570   45.0630 N   0  0  0  0  0  0  0  0  0  0  0  0
   58.4090   29.3410   46.7230 C   0  0  0  0  0  0  0  0  0  0  0  0
   60.5093   30.0651   50.6770 H   0  0  0  0  0  0  0  0  0  0  0  0
   60.3050   28.6116   49.6414 H   0  0  0  0  0  0  0  0  0  0  0  0
   61.8649   29.5024   49.6414 H   0  0  0  0  0  0  0  0  0  0  0  0
   61.8145   29.3247   46.4051 H   0  0  0  0  0  0  0  0  0  0  0  0
   61.2206   27.9222   44.4296 H   0  0  0  0  0  0  0  0  0  0  0  0
   58.8306   27.4455   43.9034 H   0  0  0  0  0  0  0  0  0  0  0  0
   56.5677   27.4348   44.5830 H   0  0  0  0  0  0  0  0  0  0  0  0
   56.0768   28.0930   46.1921 H   0  0  0  0  0  0  0  0  0  0  0  0
   58.4755   33.6452   42.8510 H   0  0  0  0  0  0  0  0  0  0  0  0
   60.4057   34.1385   45.3018 H   0  0  0  0  0  0  0  0  0  0  0  0
   59.3021   35.3478   44.8200 H   0  0  0  0  0  0  0  0  0  0  0  0
   59.1018   35.9026   47.3666 H   0  0  0  0  0  0  0  0  0  0  0  0
   61.1158   33.8268   47.3595 H   0  0  0  0  0  0  0  0  0  0  0  0
   61.0205   35.4955   48.0706 H   0  0  0  0  0  0  0  0  0  0  0  0
   60.0760   33.0320   49.0250 H   0  0  0  0  0  0  0  0  0  0  0  0
   58.4238   32.9735   47.6292 H   0  0  0  0  0  0  0  0  0  0  0  0
   57.1932   34.1082   47.2966 H   0  0  0  0  0  0  0  0  0  0  0  0
   57.0320   31.3480   46.0930 H   0  0  0  0  0  0  0  0  0  0  0  0
   57.6175   29.7255   47.3831 H   0  0  0  0  0  0  0  0  0  0  0  0
  1  2  1  0
  2  3  2  0
  2  4  2  0
  2  5  1  0
  5  6  2  0
  6  7  1  0
  7  8  2  0
  8  9  1  0
  9 10  1  0
 10 11  1  0
 11 12  2  3
 12 13  1  0
 13 14  1  0
 14 15  2  0
 14 16  1  0
 16 17  2  0
 17 18  1  0
 18 19  1  0
 19 20  1  0
 20 21  1  0
 21 22  1  0
 20 23  1  0
 17 24  1  0
  9 25  2  0
 25  5  1  0
 24 12  1  0
 23 18  1  0
  1 26  1  0
  1 27  1  0
  1 28  1  0
  6 29  1  0
  7 30  1  0
  8 31  1  0
 10 32  1  0
 10 33  1  0
 16 34  1  0
 19 35  1  0
 19 36  1  0
 20 37  1  0
 21 38  1  0
 21 39  1  0
 22 40  1  0
 23 41  1  0
 23 42  1  0
 24 43  1  0
 25 44  1  0
M  CHG  1  13  -1
M  END
>  <UniqueID>  (13) 
13

>  <SMILES>  (13) 
CS(=O)(=O)c1cccc(CN=c2[n-]c(=O)cc(N3CC(CO)C3)[nH]2)c1

>  <Energy>  (13) 
86.70904152275644

>  <Genealogy>  (13) 
CS(=O)(=O)c1cccc(CN=c2[n-]c(=O)cc(N3CC(CO)C3)[nH]2)c1 (protonated)
CS(=O)(=O)c1cccc(CN=c2[n-]c(=O)cc(N3CC(CO)C3)[nH]2)c1 (3D coordinates assigned)
CS(=O)(=O)c1cccc(CN=c2[n-]c(=O)cc(N3CC(CO)C3)[nH]2)c1 (nonaromatic ring conformer: 86.70904152275644 kcal/mol)

>  <smiles>  (13) 
CS(=O)(=O)c1cccc(CN=c2[nH]c(N3CC(CO)C3)cc(=O)[nH]2)c1

>  <score_type>  (13) 
oracle

>  <origin>  (13) 
adg

>  <m_score__min__energy>  (13) 
-10.02

>  <m_primary>  (13) 
energy

$$$$
13:0
     RDKit          3D

 40 42  0  0  0  0  0  0  0  0999 V2000
   53.3380   24.5020   45.3940 N   0  0  0  0  0  0  0  0  0  0  0  0
   54.0950   23.7280   46.3290 C   0  0  0  0  0  0  0  0  0  0  0  0
   53.6350   22.6270   46.7290 O   0  0  0  0  0  0  0  0  0  0  0  0
   55.3310   24.2070   46.8800 N   0  0  0  0  0  0  0  0  0  0  0  0
   56.0320   25.2140   46.4510 C   0  0  0  0  0  0  0  0  0  0  0  0
   55.4400   26.3760   46.0640 N   0  0  0  0  0  0  0  0  0  0  0  0
   56.1710   27.4250   45.6090 C   0  0  0  0  0  0  0  0  0  0  0  0
   55.5210   28.6000   45.2470 O   0  0  0  0  0  0  0  0  0  0  0  0
   57.5680   27.3230   45.5180 C   0  0  0  0  0  0  0  0  0  0  0  0
   58.4050   28.5180   45.1210 C   0  0  0  0  0  0  0  0  0  0  0  0
   58.9770   29.1610   46.3460 C   0  0  0  0  0  0  0  0  0  0  0  0
   58.2660   29.9020   47.2650 C   0  0  0  0  0  0  0  0  0  0  0  0
   59.1420   30.4460   48.1280 N   0  0  0  0  0  0  0  0  0  0  0  0
   58.8600   31.4010   49.1660 C   0  0  0  0  0  0  0  0  0  0  0  0
   58.2820   31.0280   50.2230 O   0  0  0  0  0  0  0  0  0  0  0  0
   59.2780   32.8420   49.0320 C   0  0  0  0  0  0  0  0  0  0  0  0
   58.9580   33.3770   47.6570 C   0  0  0  0  0  0  0  0  0  0  0  0
   59.9210   34.1020   46.9340 C   0  0  0  0  0  0  0  0  0  0  0  0
   59.6350   34.5690   45.6480 C   0  0  0  0  0  0  0  0  0  0  0  0
   58.3820   34.3290   45.0770 C   0  0  0  0  0  0  0  0  0  0  0  0
   57.4120   33.6260   45.7960 C   0  0  0  0  0  0  0  0  0  0  0  0
   57.6950   33.1550   47.0800 C   0  0  0  0  0  0  0  0  0  0  0  0
   60.3500   29.9990   47.7220 C   0  0  0  0  0  0  0  0  0  0  0  0
   61.4340   30.3090   48.2840 O   0  0  0  0  0  0  0  0  0  0  0  0
   60.2960   29.2140   46.6260 N   0  0  0  0  0  0  0  0  0  0  0  0
   58.1600   26.1090   45.9170 C   0  0  0  0  0  0  0  0  0  0  0  0
   59.4090   25.9560   45.8780 O   0  0  0  0  0  0  0  0  0  0  0  0
   57.3800   25.0900   46.3610 N   0  0  0  0  0  0  0  0  0  0  0  0
   53.5600   25.5060   45.2140 H   0  0  0  0  0  0  0  0  0  0  0  0
   52.4740   24.1040   44.9660 H   0  0  0  0  0  0  0  0  0  0  0  0
   59.2238   28.1893   44.4641 H   0  0  0  0  0  0  0  0  0  0  0  0
   57.7740   29.2447   44.5883 H   0  0  0  0  0  0  0  0  0  0  0  0
   57.1733   30.0266   47.2885 H   0  0  0  0  0  0  0  0  0  0  0  0
   58.7442   33.4420   49.7838 H   0  0  0  0  0  0  0  0  0  0  0  0
   60.3653   32.9054   49.1864 H   0  0  0  0  0  0  0  0  0  0  0  0
   60.9050   34.3029   47.3827 H   0  0  0  0  0  0  0  0  0  0  0  0
   60.3975   35.1265   45.0842 H   0  0  0  0  0  0  0  0  0  0  0  0
   58.1599   34.6931   44.0630 H   0  0  0  0  0  0  0  0  0  0  0  0
   56.4233   33.4431   45.3498 H   0  0  0  0  0  0  0  0  0  0  0  0
   56.9253   32.6071   47.6433 H   0  0  0  0  0  0  0  0  0  0  0  0
  1  2  1  0
  2  3  2  0
  2  4  1  0
  4  5  2  3
  5  6  1  0
  6  7  1  0
  7  8  1  0
  7  9  2  0
  9 10  1  0
 10 11  1  0
 11 12  2  0
 12 13  1  0
 13 14  1  0
 14 15  2  0
 14 16  1  0
 16 17  1  0
 17 18  2  0
 18 19  1  0
 19 20  2  0
 20 21  1  0
 21 22  2  0
 13 23  1  0
 23 24  2  0
 23 25  1  0
  9 26  1  0
 26 27  2  0
 26 28  1  0
 28  5  1  0
 25 11  1  0
 22 17  1  0
  1 29  1  0
  1 30  1  0
 10 31  1  0
 10 32  1  0
 12 33  1  0
 16 34  1  0
 16 35  1  0
 18 36  1  0
 19 37  1  0
 20 38  1  0
 21 39  1  0
 22 40  1  0
M  CHG  4   6  -1   8  -1  25  -1  28  -1
M  END
>  <UniqueID>  (14) 
14

>  <SMILES>  (14) 
NC(=O)N=c1[n-]c([O-])c(Cc2cn(C(=O)Cc3ccccc3)c(=O)[n-]2)c(=O)[n-]1

>  <Energy>  (14) 
74.85099471294942

>  <Genealogy>  (14) 
NC(=O)N=c1[n-]c([O-])c(Cc2cn(C(=O)Cc3ccccc3)c(=O)[n-]2)c(=O)[n-]1 (protonated)
NC(=O)N=c1[n-]c([O-])c(Cc2cn(C(=O)Cc3ccccc3)c(=O)[n-]2)c(=O)[n-]1 (3D coordinates assigned)
NC(=O)N=c1[n-]c([O-])c(Cc2cn(C(=O)Cc3ccccc3)c(=O)[n-]2)c(=O)[n-]1 (optimized conformer: 74.85099471294942 kcal/mol)

>  <smiles>  (14) 
NC(=O)N=c1[nH]c(O)c(Cc2cn(C(=O)Cc3ccccc3)c(=O)[nH]2)c(=O)[nH]1

>  <score_type>  (14) 
oracle

>  <origin>  (14) 
adg

>  <m_score__min__energy>  (14) 
-17.219999999999999

>  <m_primary>  (14) 
energy

$$$$
14:0
     RDKit          3D

 46 48  0  0  0  0  0  0  0  0999 V2000
   59.2530   34.9750   45.5850 C   0  0  0  0  0  0  0  0  0  0  0  0
   58.8750   34.3040   46.7830 O   0  0  0  0  0  0  0  0  0  0  0  0
   59.7600   33.5950   47.6120 C   0  0  0  0  0  0  0  0  0  0  0  0
   60.3490   34.1820   48.7450 C   0  0  0  0  0  0  0  0  0  0  0  0
   61.2420   33.4560   49.5280 C   0  0  0  0  0  0  0  0  0  0  0  0
   61.5360   32.1310   49.2120 C   0  0  0  0  0  0  0  0  0  0  0  0
   60.9210   31.4990   48.1150 C   0  0  0  0  0  0  0  0  0  0  0  0
   61.2530   30.0440   47.8340 C   0  0  0  0  0  0  0  0  0  0  0  0
   60.0860   29.1600   48.0590 N   0  0  0  0  0  0  0  0  0  0  0  0
   59.9740   28.7930   49.4790 C   0  0  0  0  0  0  0  0  0  0  0  0
   60.0520   27.9730   47.1680 C   0  0  0  0  0  0  0  0  0  0  0  0
   58.6580   27.5410   46.7600 C   0  0  0  0  0  0  0  0  0  0  0  0
   58.1720   26.2770   47.1330 C   0  0  0  0  0  0  0  0  0  0  0  0
   56.8780   25.8890   46.7840 C   0  0  0  0  0  0  0  0  0  0  0  0
   56.0630   26.7460   46.0400 C   0  0  0  0  0  0  0  0  0  0  0  0
   54.7730   26.3480   45.7080 O   0  0  0  0  0  0  0  0  0  0  0  0
   56.5450   27.9950   45.6240 C   0  0  0  0  0  0  0  0  0  0  0  0
   55.6750   28.8590   44.8760 N   0  0  0  0  0  0  0  0  0  0  0  0
   56.0480   29.7120   43.7850 C   0  0  0  0  0  0  0  0  0  0  0  0
   55.8040   29.3780   42.5960 O   0  0  0  0  0  0  0  0  0  0  0  0
   56.6720   31.0150   44.0550 C   0  0  0  0  0  0  0  0  0  0  0  0
   56.6500   31.6460   45.2430 N   0  0  0  0  0  0  0  0  0  0  0  0
   57.3060   32.7610   45.0650 O   0  0  0  0  0  0  0  0  0  0  0  0
   57.7620   32.9200   43.8530 N   0  0  0  0  0  0  0  0  0  0  0  0
   57.3700   31.8220   43.1930 C   0  0  0  0  0  0  0  0  0  0  0  0
   57.6170   31.5960   41.9790 O   0  0  0  0  0  0  0  0  0  0  0  0
   57.8410   28.3940   45.9990 C   0  0  0  0  0  0  0  0  0  0  0  0
   60.0640   32.2640   47.2790 C   0  0  0  0  0  0  0  0  0  0  0  0
   59.5040   31.7510   46.1040 O   0  0  0  0  0  0  0  0  0  0  0  0
   59.7785   35.9078   45.8374 H   0  0  0  0  0  0  0  0  0  0  0  0
   59.9187   34.3269   44.9962 H   0  0  0  0  0  0  0  0  0  0  0  0
   58.3537   35.2085   44.9962 H   0  0  0  0  0  0  0  0  0  0  0  0
   60.1032   35.2198   49.0142 H   0  0  0  0  0  0  0  0  0  0  0  0
   61.7174   33.9300   50.3994 H   0  0  0  0  0  0  0  0  0  0  0  0
   62.2570   31.5726   49.8270 H   0  0  0  0  0  0  0  0  0  0  0  0
   61.5755   29.9483   46.7867 H   0  0  0  0  0  0  0  0  0  0  0  0
   62.0528   29.7365   48.5237 H   0  0  0  0  0  0  0  0  0  0  0  0
   60.2383   29.6591   50.1035 H   0  0  0  0  0  0  0  0  0  0  0  0
   58.9409   28.4849   49.6977 H   0  0  0  0  0  0  0  0  0  0  0  0
   60.6590   27.9606   49.6977 H   0  0  0  0  0  0  0  0  0  0  0  0
   60.6202   28.2098   46.2564 H   0  0  0  0  0  0  0  0  0  0  0  0
   60.4871   27.1384   47.7373 H   0  0  0  0  0  0  0  0  0  0  0  0
   58.8146   25.5898   47.7029 H   0  0  0  0  0  0  0  0  0  0  0  0
   56.4981   24.9049   47.0957 H   0  0  0  0  0  0  0  0  0  0  0  0
   58.2176   29.3815   45.6940 H   0  0  0  0  0  0  0  0  0  0  0  0
   58.7440   32.1840   45.5980 H   0  0  0  0  0  0  0  0  0  0  0  0
  1  2  1  0
  2  3  1  0
  3  4  2  0
  4  5  1  0
  5  6  2  0
  6  7  1  0
  7  8  1  0
  8  9  1  0
  9 10  1  0
  9 11  1  0
 11 12  1  0
 12 13  2  0
 13 14  1  0
 14 15  2  0
 15 16  1  0
 15 17  1  0
 17 18  1  0
 18 19  1  0
 19 20  2  0
 19 21  1  0
 21 22  2  0
 22 23  1  0
 23 24  1  0
 24 25  1  0
 25 26  2  0
 17 27  2  0
  7 28  2  0
 28 29  1  0
 28  3  1  0
 27 12  1  0
 25 21  1  0
  1 30  1  0
  1 31  1  0
  1 32  1  0
  4 33  1  0
  5 34  1  0
  6 35  1  0
  8 36  1  0
  8 37  1  0
 10 38  1  0
 10 39  1  0
 10 40  1  0
 11 41  1  0
 11 42  1  0
 13 43  1  0
 14 44  1  0
 27 45  1  0
 29 46  1  0
M  CHG  3  16  -1  18  -1  24  -1
M  END
>  <UniqueID>  (15) 
15

>  <SMILES>  (15) 
COc1cccc(CN(C)Cc2ccc([O-])c([N-]C(=O)c3no[n-]c3=O)c2)c1O

>  <Energy>  (15) 
94.13624623797557

>  <Genealogy>  (15) 
COc1cccc(CN(C)Cc2ccc([O-])c([N-]C(=O)c3no[n-]c3=O)c2)c1O (protonated)
COc1cccc(CN(C)Cc2ccc([O-])c([N-]C(=O)c3no[n-]c3=O)c2)c1O (3D coordinates assigned)
COc1cccc(CN(C)Cc2ccc([O-])c([N-]C(=O)c3no[n-]c3=O)c2)c1O (optimized conformer: 94.13624623797557 kcal/mol)

>  <smiles>  (15) 
COc1cccc(CN(C)Cc2ccc(O)c(NC(=O)c3no[nH]c3=O)c2)c1O

>  <score_type>  (15) 
oracle

>  <origin>  (15) 
adg

>  <m_score__min__energy>  (15) 
-14.27

>  <m_primary>  (15) 
energy

$$$$
15:0
     RDKit          3D

 61 64  0  0  0  0  0  0  0  0999 V2000
   56.8540   31.2180   51.5920 C   0  0  0  0  0  0  0  0  0  0  0  0
   58.2320   30.7420   51.4150 N   0  0  0  0  0  0  0  0  0  0  0  0
   58.5550   29.3530   51.7680 C   0  0  0  0  0  0  0  0  0  0  0  0
   59.2550   31.6260   50.8840 C   0  0  0  0  0  0  0  0  0  0  0  0
   59.1100   33.0250   50.9690 C   0  0  0  0  0  0  0  0  0  0  0  0
   60.0860   33.8790   50.4530 C   0  0  0  0  0  0  0  0  0  0  0  0
   61.2240   33.3590   49.8270 C   0  0  0  0  0  0  0  0  0  0  0  0
   61.4030   31.9570   49.7490 C   0  0  0  0  0  0  0  0  0  0  0  0
   60.4150   31.1070   50.2700 C   0  0  0  0  0  0  0  0  0  0  0  0
   62.5860   31.3430   49.0180 C   0  0  0  0  0  0  0  0  0  0  0  0
   63.6810   32.3640   48.6800 C   0  0  0  0  0  0  0  0  0  0  0  0
   63.0500   33.6150   48.2570 N   0  0  0  0  0  0  0  0  0  0  0  0
   62.7130   33.8040   46.8700 C   0  0  0  0  0  0  0  0  0  0  0  0
   63.5360   34.3510   46.0870 O   0  0  0  0  0  0  0  0  0  0  0  0
   61.4630   33.3230   46.3720 N   0  0  0  0  0  0  0  0  0  0  0  0
   60.2780   34.1480   46.1960 C   0  0  0  0  0  0  0  0  0  0  0  0
   59.1760   33.2810   45.6650 C   0  0  0  0  0  0  0  0  0  0  0  0
   58.6530   33.5250   44.3900 C   0  0  0  0  0  0  0  0  0  0  0  0
   57.7180   32.6500   43.8280 C   0  0  0  0  0  0  0  0  0  0  0  0
   57.3110   31.5060   44.5300 C   0  0  0  0  0  0  0  0  0  0  0  0
   56.3670   30.5180   43.8990 C   0  0  0  0  0  0  0  0  0  0  0  0
   55.8900   29.5590   44.8910 N   0  0  0  0  0  0  0  0  0  0  0  0
   56.5410   28.3150   45.1750 C   0  0  0  0  0  0  0  0  0  0  0  0
   55.8800   27.3410   45.6300 O   0  0  0  0  0  0  0  0  0  0  0  0
   58.0000   28.1670   44.8580 C   0  0  0  0  0  0  0  0  0  0  0  0
   58.8360   27.9700   46.0920 C   0  0  0  0  0  0  0  0  0  0  0  0
   59.9710   27.1440   46.1300 C   0  0  0  0  0  0  0  0  0  0  0  0
   60.5740   27.0900   47.3780 C   0  0  0  0  0  0  0  0  0  0  0  0
   59.6880   28.0560   48.4290 S   0  0  0  0  0  0  0  0  0  0  0  0
   58.5340   28.5570   47.3160 C   0  0  0  0  0  0  0  0  0  0  0  0
   57.8360   31.2590   45.8100 C   0  0  0  0  0  0  0  0  0  0  0  0
   58.7630   32.1420   46.3720 C   0  0  0  0  0  0  0  0  0  0  0  0
   62.2760   34.2960   49.2970 C   0  0  0  0  0  0  0  0  0  0  0  0
   56.6281   31.2960   52.6657 H   0  0  0  0  0  0  0  0  0  0  0  0
   56.7441   32.2062   51.1214 H   0  0  0  0  0  0  0  0  0  0  0  0
   56.1576   30.5083   51.1214 H   0  0  0  0  0  0  0  0  0  0  0  0
   58.5792   29.2490   52.8628 H   0  0  0  0  0  0  0  0  0  0  0  0
   57.7890   28.6815   51.3528 H   0  0  0  0  0  0  0  0  0  0  0  0
   59.5386   29.0884   51.3528 H   0  0  0  0  0  0  0  0  0  0  0  0
   58.2157   33.4498   51.4484 H   0  0  0  0  0  0  0  0  0  0  0  0
   59.9596   34.9683   50.5391 H   0  0  0  0  0  0  0  0  0  0  0  0
   60.5471   30.0173   50.1985 H   0  0  0  0  0  0  0  0  0  0  0  0
   63.0225   30.5594   49.6547 H   0  0  0  0  0  0  0  0  0  0  0  0
   62.2097   30.9387   48.0667 H   0  0  0  0  0  0  0  0  0  0  0  0
   64.3026   32.5464   49.5690 H   0  0  0  0  0  0  0  0  0  0  0  0
   64.3156   31.9748   47.8702 H   0  0  0  0  0  0  0  0  0  0  0  0
   59.9786   34.5801   47.1623 H   0  0  0  0  0  0  0  0  0  0  0  0
   60.4876   34.9678   45.4931 H   0  0  0  0  0  0  0  0  0  0  0  0
   58.9796   34.4112   43.8260 H   0  0  0  0  0  0  0  0  0  0  0  0
   57.3004   32.8596   42.8322 H   0  0  0  0  0  0  0  0  0  0  0  0
   55.5074   31.0585   43.4759 H   0  0  0  0  0  0  0  0  0  0  0  0
   56.9008   29.9732   43.1064 H   0  0  0  0  0  0  0  0  0  0  0  0
   58.1320   27.2963   44.1988 H   0  0  0  0  0  0  0  0  0  0  0  0
   58.3338   29.0949   44.3706 H   0  0  0  0  0  0  0  0  0  0  0  0
   60.3457   26.5931   45.2547 H   0  0  0  0  0  0  0  0  0  0  0  0
   61.4756   26.5147   47.6349 H   0  0  0  0  0  0  0  0  0  0  0  0
   57.6885   29.2306   47.5194 H   0  0  0  0  0  0  0  0  0  0  0  0
   57.5167   30.3685   46.3713 H   0  0  0  0  0  0  0  0  0  0  0  0
   59.1707   31.9424   47.3740 H   0  0  0  0  0  0  0  0  0  0  0  0
   62.9459   34.5975   50.1157 H   0  0  0  0  0  0  0  0  0  0  0  0
   61.7943   35.1894   48.8729 H   0  0  0  0  0  0  0  0  0  0  0  0
  1  2  1  0
  2  3  1  0
  2  4  1  0
  4  5  2  0
  5  6  1  0
  6  7  2  0
  7  8  1  0
  8  9  2  0
  8 10  1  0
 10 11  1  0
 11 12  1  0
 12 13  1  0
 13 14  2  0
 13 15  1  0
 15 16  1  0
 16 17  1  0
 17 18  2  0
 18 19  1  0
 19 20  2  0
 20 21  1  0
 21 22  1  0
 22 23  1  0
 23 24  2  0
 23 25  1  0
 25 26  1  0
 26 27  1  0
 27 28  2  0
 28 29  1  0
 29 30  1  0
 20 31  1  0
 31 32  2  0
 12 33  1  0
  9  4  1  0
 32 17  1  0
 33  7  1  0
 30 26  2  0
  1 34  1  0
  1 35  1  0
  1 36  1  0
  3 37  1  0
  3 38  1  0
  3 39  1  0
  5 40  1  0
  6 41  1  0
  9 42  1  0
 10 43  1  0
 10 44  1  0
 11 45  1  0
 11 46  1  0
 16 47  1  0
 16 48  1  0
 18 49  1  0
 19 50  1  0
 21 51  1  0
 21 52  1  0
 25 53  1  0
 25 54  1  0
 27 55  1  0
 28 56  1  0
 30 57  1  0
 31 58  1  0
 32 59  1  0
 33 60  1  0
 33 61  1  0
M  CHG  2  15  -1  22  -1
M  END
>  <UniqueID>  (16) 
16

>  <SMILES>  (16) 
CN(C)c1ccc2c(c1)CCN(C(=O)[N-]Cc1ccc(C[N-]C(=O)Cc3ccsc3)cc1)C2

>  <Energy>  (16) 
86.60588992336695

>  <Genealogy>  (16) 
CN(C)c1ccc2c(c1)CCN(C(=O)[N-]Cc1ccc(C[N-]C(=O)Cc3ccsc3)cc1)C2 (protonated)
CN(C)c1ccc2c(c1)CCN(C(=O)[N-]Cc1ccc(C[N-]C(=O)Cc3ccsc3)cc1)C2 (3D coordinates assigned)
CN(C)c1ccc2c(c1)CCN(C(=O)[N-]Cc1ccc(C[N-]C(=O)Cc3ccsc3)cc1)C2 (nonaromatic ring conformer: 86.60588992336695 kcal/mol)

>  <smiles>  (16) 
CN(C)c1ccc2c(c1)CCN(C(=O)NCc1ccc(CNC(=O)Cc3ccsc3)cc1)C2

>  <score_type>  (16) 
oracle

>  <origin>  (16) 
adg

>  <m_score__min__energy>  (16) 
-12.789999999999999

>  <m_primary>  (16) 
energy

$$$$
16:0
     RDKit          3D

 35 36  0  0  0  0  0  0  0  0999 V2000
   54.6110   29.4530   45.1750 H   0  0  0  0  0  0  0  0  0  0  0  0
   55.5980   29.2740   44.8830 N   0  0  0  0  0  0  0  0  0  0  0  0
   56.2340   28.2150   45.2620 C   0  0  0  0  0  0  0  0  0  0  0  0
   57.5950   28.2000   45.2810 N   0  0  0  0  0  0  0  0  0  0  0  0
   58.2810   27.0970   45.6830 C   0  0  0  0  0  0  0  0  0  0  0  0
   59.7760   27.1050   45.6580 C   0  0  0  0  0  0  0  0  0  0  0  0
   60.1602   27.0985   46.6887 H   0  0  0  0  0  0  0  0  0  0  0  0
   60.1391   26.2131   45.1263 H   0  0  0  0  0  0  0  0  0  0  0  0
   60.3600   28.6040   44.8010 S   0  0  0  0  0  0  0  0  0  0  0  0
   59.7160   29.7300   46.0490 C   0  0  0  0  0  0  0  0  0  0  0  0
   60.3160   29.7030   47.3630 S   0  0  0  0  0  0  0  0  0  0  0  0
   58.5570   30.5590   45.7430 N   0  0  0  0  0  0  0  0  0  0  0  0
   57.7120   29.9590   45.9030 H   0  0  0  0  0  0  0  0  0  0  0  0
   58.5220   30.9410   44.3080 C   0  0  0  0  0  0  0  0  0  0  0  0
   59.5371   31.2121   43.9822 H   0  0  0  0  0  0  0  0  0  0  0  0
   58.1479   30.0866   43.7248 H   0  0  0  0  0  0  0  0  0  0  0  0
   57.5870   32.1350   44.0850 C   0  0  0  0  0  0  0  0  0  0  0  0
   57.5271   32.3469   43.0073 H   0  0  0  0  0  0  0  0  0  0  0  0
   56.5954   31.8796   44.4869 H   0  0  0  0  0  0  0  0  0  0  0  0
   58.0800   33.3430   44.7880 N   0  0  0  0  0  0  0  0  0  0  0  0
   56.9730   34.2760   45.0490 C   0  0  0  0  0  0  0  0  0  0  0  0
   56.8378   34.3900   46.1347 H   0  0  0  0  0  0  0  0  0  0  0  0
   57.2055   35.2546   44.6037 H   0  0  0  0  0  0  0  0  0  0  0  0
   56.0479   33.8811   44.6037 H   0  0  0  0  0  0  0  0  0  0  0  0
   58.8450   33.0470   46.0270 C   0  0  0  0  0  0  0  0  0  0  0  0
   59.9149   32.9938   45.7772 H   0  0  0  0  0  0  0  0  0  0  0  0
   58.6386   33.8514   46.7484 H   0  0  0  0  0  0  0  0  0  0  0  0
   58.4220   31.7160   46.6750 C   0  0  0  0  0  0  0  0  0  0  0  0
   59.0556   31.5353   47.5558 H   0  0  0  0  0  0  0  0  0  0  0  0
   57.3606   31.8009   46.9511 H   0  0  0  0  0  0  0  0  0  0  0  0
   57.5770   25.9480   46.0640 C   0  0  0  0  0  0  0  0  0  0  0  0
   58.1114   25.0391   46.3775 H   0  0  0  0  0  0  0  0  0  0  0  0
   56.1820   25.9820   46.0370 C   0  0  0  0  0  0  0  0  0  0  0  0
   55.5180   24.9690   46.3800 O   0  0  0  0  0  0  0  0  0  0  0  0
   55.5390   27.1100   45.6390 N   0  0  0  0  0  0  0  0  0  0  0  0
  1  2  1  0
  2  3  2  0
  3  4  1  0
  4  5  1  0
  5  6  1  0
  6  7  1  0
  6  8  1  0
  6  9  1  0
  9 10  1  0
 10 11  2  0
 10 12  1  0
 12 13  1  0
 12 14  1  0
 14 15  1  0
 14 16  1  0
 14 17  1  0
 17 18  1  0
 17 19  1  0
 17 20  1  0
 20 21  1  0
 21 22  1  0
 21 23  1  0
 21 24  1  0
 20 25  1  0
 25 26  1  0
 25 27  1  0
 25 28  1  0
 28 29  1  0
 28 30  1  0
  5 31  2  0
 31 32  1  0
 31 33  1  0
 33 34  2  0
 33 35  1  0
 35  3  1  0
 28 12  1  0
M  CHG  3   4  -1  12   1  35  -1
M  END
>  <UniqueID>  (17) 
17

>  <SMILES>  (17) 
[H]/N=c1\[n-]c(CSC(=S)[NH+]2CCN(C)CC2)cc(=O)[n-]1

>  <Energy>  (17) 
45.35369605413194

>  <Genealogy>  (17) 
CN1CC[NH+](C(=S)SCc2cc(=O)[n-]c(=N)[n-]2)CC1 (protonated)
[H]/N=c1\[n-]c(CSC(=S)[NH+]2CCN(C)CC2)cc(=O)[n-]1 (cis-trans isomerization)
[H]/N=c1\[n-]c(CSC(=S)[NH+]2CCN(C)CC2)cc(=O)[n-]1 (3D coordinates assigned)
[H]/N=c1\[n-]c(CSC(=S)[NH+]2CCN(C)CC2)cc(=O)[n-]1 (nonaromatic ring conformer: 45.35369605413194 kcal/mol)

>  <smiles>  (17) 
CN1CCN(C(=S)SCc2cc(=O)[nH]c(=N)[nH]2)CC1

>  <score_type>  (17) 
oracle

>  <origin>  (17) 
adg

>  <m_score__min__energy>  (17) 
-9.0099999999999998

>  <m_primary>  (17) 
energy

$$$$
17:0
     RDKit          3D

 47 49  0  0  0  0  0  0  0  0999 V2000
   58.0500   25.5870   47.1410 O   0  0  0  0  0  0  0  0  0  0  0  0
   57.5990   26.2680   46.1800 C   0  0  0  0  0  0  0  0  0  0  0  0
   56.4870   25.7720   45.4170 N   0  0  0  0  0  0  0  0  0  0  0  0
   55.7740   24.5490   45.7790 C   0  0  0  0  0  0  0  0  0  0  0  0
   56.2000   23.4070   44.8870 C   0  0  0  0  0  0  0  0  0  0  0  0
   56.2060   23.6120   43.4960 C   0  0  0  0  0  0  0  0  0  0  0  0
   56.6020   22.5920   42.6280 C   0  0  0  0  0  0  0  0  0  0  0  0
   56.9950   21.3540   43.1370 C   0  0  0  0  0  0  0  0  0  0  0  0
   56.9910   21.1320   44.5150 C   0  0  0  0  0  0  0  0  0  0  0  0
   56.5960   22.1460   45.3980 C   0  0  0  0  0  0  0  0  0  0  0  0
   56.6170   21.7400   47.2740 Br  0  0  0  0  0  0  0  0  0  0  0  0
   58.2430   27.5620   45.8460 C   0  0  0  0  0  0  0  0  0  0  0  0
   59.6390   27.7180   45.9120 C   0  0  0  0  0  0  0  0  0  0  0  0
   60.2290   28.9410   45.5850 C   0  0  0  0  0  0  0  0  0  0  0  0
   59.4380   30.0180   45.1800 C   0  0  0  0  0  0  0  0  0  0  0  0
   58.0480   29.8750   45.0920 C   0  0  0  0  0  0  0  0  0  0  0  0
   57.0480   31.2270   44.5480 S   0  0  0  0  0  0  0  0  0  0  0  0
   55.6130   30.7840   44.4760 O   0  0  0  0  0  0  0  0  0  0  0  0
   57.4780   31.6360   43.1660 O   0  0  0  0  0  0  0  0  0  0  0  0
   57.1840   32.5970   45.6260 N   0  0  0  0  0  0  0  0  0  0  0  0
   58.1660   32.3140   46.6960 C   0  0  0  0  0  0  0  0  0  0  0  0
   58.6180   33.5990   47.3950 C   0  0  0  0  0  0  0  0  0  0  0  0
   59.3260   34.5460   46.4090 C   0  0  0  0  0  0  0  0  0  0  0  0
   58.8820   34.3300   44.9520 C   0  0  0  0  0  0  0  0  0  0  0  0
   57.4220   33.8590   44.8820 C   0  0  0  0  0  0  0  0  0  0  0  0
   57.4550   28.6500   45.4290 C   0  0  0  0  0  0  0  0  0  0  0  0
   56.1980   26.2590   44.5400 H   0  0  0  0  0  0  0  0  0  0  0  0
   55.9987   24.2948   46.8254 H   0  0  0  0  0  0  0  0  0  0  0  0
   54.6939   24.7155   45.6538 H   0  0  0  0  0  0  0  0  0  0  0  0
   55.8958   24.5851   43.0875 H   0  0  0  0  0  0  0  0  0  0  0  0
   56.6040   22.7650   41.5417 H   0  0  0  0  0  0  0  0  0  0  0  0
   57.3082   20.5523   42.4520 H   0  0  0  0  0  0  0  0  0  0  0  0
   57.3003   20.1535   44.9110 H   0  0  0  0  0  0  0  0  0  0  0  0
   60.2698   26.8722   46.2229 H   0  0  0  0  0  0  0  0  0  0  0  0
   61.3212   29.0562   45.6468 H   0  0  0  0  0  0  0  0  0  0  0  0
   59.9078   30.9806   44.9296 H   0  0  0  0  0  0  0  0  0  0  0  0
   57.7038   31.6466   47.4383 H   0  0  0  0  0  0  0  0  0  0  0  0
   59.0476   31.8402   46.2397 H   0  0  0  0  0  0  0  0  0  0  0  0
   57.7379   34.1089   47.8139 H   0  0  0  0  0  0  0  0  0  0  0  0
   59.3263   33.3322   48.1933 H   0  0  0  0  0  0  0  0  0  0  0  0
   59.1003   35.5839   46.6950 H   0  0  0  0  0  0  0  0  0  0  0  0
   60.4040   34.3334   46.4617 H   0  0  0  0  0  0  0  0  0  0  0  0
   58.9803   35.2778   44.4024 H   0  0  0  0  0  0  0  0  0  0  0  0
   59.5207   33.5546   44.5038 H   0  0  0  0  0  0  0  0  0  0  0  0
   56.7796   34.6437   45.3081 H   0  0  0  0  0  0  0  0  0  0  0  0
   57.1884   33.6668   43.8244 H   0  0  0  0  0  0  0  0  0  0  0  0
   56.3624   28.5386   45.3667 H   0  0  0  0  0  0  0  0  0  0  0  0
  1  2  2  0
  2  3  1  0
  3  4  1  0
  4  5  1  0
  5  6  2  0
  6  7  1  0
  7  8  2  0
  8  9  1  0
  9 10  2  0
 10 11  1  0
  2 12  1  0
 12 13  2  0
 13 14  1  0
 14 15  2  0
 15 16  1  0
 16 17  1  0
 17 18  2  0
 17 19  2  0
 17 20  1  0
 20 21  1  0
 21 22  1  0
 22 23  1  0
 23 24  1  0
 24 25  1  0
 16 26  2  0
 10  5  1  0
 26 12  1  0
 25 20  1  0
  3 27  1  0
  4 28  1  0
  4 29  1  0
  6 30  1  0
  7 31  1  0
  8 32  1  0
  9 33  1  0
 13 34  1  0
 14 35  1  0
 15 36  1  0
 21 37  1  0
 21 38  1  0
 22 39  1  0
 22 40  1  0
 23 41  1  0
 23 42  1  0
 24 43  1  0
 24 44  1  0
 25 45  1  0
 25 46  1  0
 26 47  1  0
M  END
>  <UniqueID>  (18) 
18

>  <SMILES>  (18) 
O=C(NCc1ccccc1Br)c1cccc(S(=O)(=O)N2CCCCC2)c1

>  <Energy>  (18) 
54.82268885639852

>  <Genealogy>  (18) 
O=C(NCc1ccccc1Br)c1cccc(S(=O)(=O)N2CCCCC2)c1 (3D coordinates assigned)
O=C(NCc1ccccc1Br)c1cccc(S(=O)(=O)N2CCCCC2)c1 (nonaromatic ring conformer: 54.82268885639852 kcal/mol)

>  <smiles>  (18) 
O=C(NCc1ccccc1Br)c1cccc(S(=O)(=O)N2CCCCC2)c1

>  <score_type>  (18) 
oracle

>  <origin>  (18) 
adg

>  <m_score__min__energy>  (18) 
-9.7200000000000006

>  <m_primary>  (18) 
energy

$$$$
18:0
     RDKit          3D

 42 44  0  0  0  0  0  0  0  0999 V2000
   58.8190   35.3450   46.8760 O   0  0  0  0  0  0  0  0  0  0  0  0
   59.5110   34.3910   46.4330 C   0  0  0  0  0  0  0  0  0  0  0  0
   60.9410   34.5280   46.4340 N   0  0  0  0  0  0  0  0  0  0  0  0
   61.7750   33.9420   47.2450 C   0  0  0  0  0  0  0  0  0  0  0  0
   62.8760   33.2930   46.7670 N   0  0  0  0  0  0  0  0  0  0  0  0
   63.7600   32.6660   47.5870 C   0  0  0  0  0  0  0  0  0  0  0  0
   63.5490   32.6630   48.9660 C   0  0  0  0  0  0  0  0  0  0  0  0
   62.4270   33.3050   49.4870 C   0  0  0  0  0  0  0  0  0  0  0  0
   61.5270   33.9490   48.6320 C   0  0  0  0  0  0  0  0  0  0  0  0
   60.4090   34.5840   49.1760 O   0  0  0  0  0  0  0  0  0  0  0  0
   58.8240   33.2020   45.8660 C   0  0  0  0  0  0  0  0  0  0  0  0
   58.8820   31.9550   46.5130 C   0  0  0  0  0  0  0  0  0  0  0  0
   58.2260   30.8450   45.9750 C   0  0  0  0  0  0  0  0  0  0  0  0
   57.5240   30.9580   44.7680 C   0  0  0  0  0  0  0  0  0  0  0  0
   56.6700   29.5720   44.0930 S   0  0  0  0  0  0  0  0  0  0  0  0
   55.4010   29.3630   44.8700 O   0  0  0  0  0  0  0  0  0  0  0  0
   56.3170   29.8270   42.6540 O   0  0  0  0  0  0  0  0  0  0  0  0
   57.6440   28.1340   44.1970 N   0  0  0  0  0  0  0  0  0  0  0  0
   57.4930   27.4760   45.4960 C   0  0  0  0  0  0  0  0  0  0  0  0
   56.9880   26.0660   45.3190 C   0  0  0  0  0  0  0  0  0  0  0  0
   57.8440   25.0640   44.8280 C   0  0  0  0  0  0  0  0  0  0  0  0
   57.3840   23.7520   44.6810 C   0  0  0  0  0  0  0  0  0  0  0  0
   56.0680   23.4290   45.0150 C   0  0  0  0  0  0  0  0  0  0  0  0
   55.2040   24.4180   45.4880 C   0  0  0  0  0  0  0  0  0  0  0  0
   55.6550   25.7350   45.6370 C   0  0  0  0  0  0  0  0  0  0  0  0
   54.7750   26.7060   46.1020 O   0  0  0  0  0  0  0  0  0  0  0  0
   57.5040   32.1840   44.0920 C   0  0  0  0  0  0  0  0  0  0  0  0
   58.1430   33.3000   44.6400 C   0  0  0  0  0  0  0  0  0  0  0  0
   64.6410   32.1614   47.1638 H   0  0  0  0  0  0  0  0  0  0  0  0
   64.2613   32.1588   49.6357 H   0  0  0  0  0  0  0  0  0  0  0  0
   62.2491   33.3051   50.5725 H   0  0  0  0  0  0  0  0  0  0  0  0
   59.8120   35.1910   48.6290 H   0  0  0  0  0  0  0  0  0  0  0  0
   59.4485   31.8526   47.4504 H   0  0  0  0  0  0  0  0  0  0  0  0
   58.2608   29.8794   46.5008 H   0  0  0  0  0  0  0  0  0  0  0  0
   58.4683   27.4500   46.0040 H   0  0  0  0  0  0  0  0  0  0  0  0
   56.7663   28.0409   46.0983 H   0  0  0  0  0  0  0  0  0  0  0  0
   58.8807   25.3138   44.5582 H   0  0  0  0  0  0  0  0  0  0  0  0
   58.0609   22.9725   44.3012 H   0  0  0  0  0  0  0  0  0  0  0  0
   55.7114   22.3942   44.9054 H   0  0  0  0  0  0  0  0  0  0  0  0
   54.1655   24.1618   45.7445 H   0  0  0  0  0  0  0  0  0  0  0  0
   56.9838   32.2693   43.1266 H   0  0  0  0  0  0  0  0  0  0  0  0
   58.1128   34.2622   44.1079 H   0  0  0  0  0  0  0  0  0  0  0  0
  1  2  2  0
  2  3  1  0
  3  4  2  3
  4  5  1  0
  5  6  1  0
  6  7  2  0
  7  8  1  0
  8  9  2  0
  9 10  1  0
  2 11  1  0
 11 12  2  0
 12 13  1  0
 13 14  2  0
 14 15  1  0
 15 16  2  0
 15 17  2  0
 15 18  1  0
 18 19  1  0
 19 20  1  0
 20 21  2  0
 21 22  1  0
 22 23  2  0
 23 24  1  0
 24 25  2  0
 25 26  1  0
 14 27  1  0
 27 28  2  0
  9  4  1  0
 28 11  1  0
 25 20  1  0
  6 29  1  0
  7 30  1  0
  8 31  1  0
 10 32  1  0
 12 33  1  0
 13 34  1  0
 19 35  1  0
 19 36  1  0
 21 37  1  0
 22 38  1  0
 23 39  1  0
 24 40  1  0
 27 41  1  0
 28 42  1  0
M  CHG  3   5  -1  18  -1  26  -1
M  END
>  <UniqueID>  (19) 
19

>  <SMILES>  (19) 
O=C(N=c1[n-]cccc1O)c1ccc(S(=O)(=O)[N-]Cc2ccccc2[O-])cc1

>  <Energy>  (19) 
50.081753896882525

>  <Genealogy>  (19) 
O=C(N=c1[n-]cccc1O)c1ccc(S(=O)(=O)[N-]Cc2ccccc2[O-])cc1 (protonated)
O=C(N=c1[n-]cccc1O)c1ccc(S(=O)(=O)[N-]Cc2ccccc2[O-])cc1 (3D coordinates assigned)
O=C(N=c1[n-]cccc1O)c1ccc(S(=O)(=O)[N-]Cc2ccccc2[O-])cc1 (optimized conformer: 50.081753896882525 kcal/mol)

>  <smiles>  (19) 
O=C(N=c1[nH]cccc1O)c1ccc(S(=O)(=O)NCc2ccccc2O)cc1

>  <score_type>  (19) 
oracle

>  <origin>  (19) 
adg

>  <m_score__min__energy>  (19) 
-15.19

>  <m_primary>  (19) 
energy

$$$$
19:0
     RDKit          3D

 48 50  0  0  0  0  0  0  0  0999 V2000
   58.0930   32.5510   41.6540 C   0  0  0  0  0  0  0  0  0  0  0  0
   57.7730   31.8640   42.9450 C   0  0  0  0  0  0  0  0  0  0  0  0
   57.4520   30.5610   43.0260 N   0  0  0  0  0  0  0  0  0  0  0  0
   57.1910   30.3000   44.3200 C   0  0  0  0  0  0  0  0  0  0  0  0
   56.7440   28.9570   44.8370 C   0  0  0  0  0  0  0  0  0  0  0  0
   57.8330   27.9530   44.9540 N   0  0  0  0  0  0  0  0  0  0  0  0
   59.1410   28.3990   44.4140 C   0  0  0  0  0  0  0  0  0  0  0  0
   60.1680   28.7330   45.5180 C   0  0  0  0  0  0  0  0  0  0  0  0
   59.4700   29.1420   46.7460 N   0  0  0  0  0  0  0  0  0  0  0  0
   60.3340   29.8290   47.7270 C   0  0  0  0  0  0  0  0  0  0  0  0
   60.2720   31.3310   47.6370 C   0  0  0  0  0  0  0  0  0  0  0  0
   61.2710   32.1620   47.1460 C   0  0  0  0  0  0  0  0  0  0  0  0
   60.9240   33.5180   47.1750 C   0  0  0  0  0  0  0  0  0  0  0  0
   59.6530   33.7590   47.6800 C   0  0  0  0  0  0  0  0  0  0  0  0
   58.9610   32.2810   48.0910 S   0  0  0  0  0  0  0  0  0  0  0  0
   58.6750   28.0430   47.3310 C   0  0  0  0  0  0  0  0  0  0  0  0
   57.9680   27.2080   46.2330 C   0  0  1  0  0  0  0  0  0  0  0  0
   56.6490   26.5880   46.7260 C   0  0  0  0  0  0  0  0  0  0  0  0
   55.6880   26.6410   45.7090 O   0  0  0  0  0  0  0  0  0  0  0  0
   57.3710   31.4390   45.0860 C   0  0  0  0  0  0  0  0  0  0  0  0
   57.7310   32.4480   44.2070 C   0  0  0  0  0  0  0  0  0  0  0  0
   57.9930   33.8620   44.5560 C   0  0  0  0  0  0  0  0  0  0  0  0
   59.3140   34.4050   44.4990 N   0  0  0  0  0  0  0  0  0  0  0  0
   57.0430   34.6070   44.9170 O   0  0  0  0  0  0  0  0  0  0  0  0
   58.5490   33.5300   41.8628 H   0  0  0  0  0  0  0  0  0  0  0  0
   58.7967   31.9347   41.0753 H   0  0  0  0  0  0  0  0  0  0  0  0
   57.1684   32.6931   41.0753 H   0  0  0  0  0  0  0  0  0  0  0  0
   57.4050   29.8840   42.2320 H   0  0  0  0  0  0  0  0  0  0  0  0
   56.3005   29.1017   45.8332 H   0  0  0  0  0  0  0  0  0  0  0  0
   56.0272   28.5599   44.1032 H   0  0  0  0  0  0  0  0  0  0  0  0
   59.5522   27.5964   43.7841 H   0  0  0  0  0  0  0  0  0  0  0  0
   58.9630   29.3208   43.8408 H   0  0  0  0  0  0  0  0  0  0  0  0
   60.7812   27.8439   45.7263 H   0  0  0  0  0  0  0  0  0  0  0  0
   60.8110   29.5574   45.1761 H   0  0  0  0  0  0  0  0  0  0  0  0
   60.0205   29.5279   48.7375 H   0  0  0  0  0  0  0  0  0  0  0  0
   61.3706   29.5350   47.5056 H   0  0  0  0  0  0  0  0  0  0  0  0
   62.2371   31.7920   46.7722 H   0  0  0  0  0  0  0  0  0  0  0  0
   61.5955   34.3180   46.8299 H   0  0  0  0  0  0  0  0  0  0  0  0
   59.1801   34.7458   47.7921 H   0  0  0  0  0  0  0  0  0  0  0  0
   59.3431   27.3850   47.9060 H   0  0  0  0  0  0  0  0  0  0  0  0
   57.9041   28.4822   47.9813 H   0  0  0  0  0  0  0  0  0  0  0  0
   58.6262   26.3559   46.0079 H   0  0  0  0  0  0  0  0  0  0  0  0
   56.8224   25.5394   47.0096 H   0  0  0  0  0  0  0  0  0  0  0  0
   56.2862   27.1536   47.5969 H   0  0  0  0  0  0  0  0  0  0  0  0
   56.1920   26.7180   44.8570 H   0  0  0  0  0  0  0  0  0  0  0  0
   57.2519   31.5259   46.1761 H   0  0  0  0  0  0  0  0  0  0  0  0
   59.4740   35.4100   44.7350 H   0  0  0  0  0  0  0  0  0  0  0  0
   60.1410   33.8200   44.2520 H   0  0  0  0  0  0  0  0  0  0  0  0
  1  2  1  0
  2  3  1  0
  3  4  1  0
  4  5  1  0
  5  6  1  0
  6  7  1  0
  7  8  1  0
  8  9  1  0
  9 10  1  0
 10 11  1  0
 11 12  2  0
 12 13  1  0
 13 14  2  0
 14 15  1  0
  9 16  1  0
 16 17  1  0
 17 18  1  0
 18 19  1  0
  4 20  2  0
 20 21  1  0
 21 22  1  0
 22 23  1  0
 22 24  2  0
 21  2  2  0
 17  6  1  0
 15 11  1  0
  1 25  1  0
  1 26  1  0
  1 27  1  0
  3 28  1  0
  5 29  1  0
  5 30  1  0
  7 31  1  0
  7 32  1  0
  8 33  1  0
  8 34  1  0
 10 35  1  0
 10 36  1  0
 12 37  1  0
 13 38  1  0
 14 39  1  0
 16 40  1  0
 16 41  1  0
 17 42  1  6
 18 43  1  0
 18 44  1  0
 19 45  1  0
 20 46  1  0
 23 47  1  0
 23 48  1  0
M  END
>  <UniqueID>  (20) 
20

>  <SMILES>  (20) 
Cc1[nH]c(CN2CCN(Cc3cccs3)C[C@H]2CO)cc1C(N)=O

>  <Energy>  (20) 
113.70111806312373

>  <Genealogy>  (20) 
Cc1[nH]c(CN2CCN(Cc3cccs3)C[C@H]2CO)cc1C(N)=O (chirality)
Cc1[nH]c(CN2CCN(Cc3cccs3)C[C@H]2CO)cc1C(N)=O (3D coordinates assigned)
Cc1[nH]c(CN2CCN(Cc3cccs3)C[C@H]2CO)cc1C(N)=O (nonaromatic ring conformer: 113.70111806312373 kcal/mol)

>  <smiles>  (20) 
Cc1[nH]c(CN2CCN(Cc3cccs3)CC2CO)cc1C(N)=O

>  <score_type>  (20) 
oracle

>  <origin>  (20) 
adg

>  <m_score__min__energy>  (20) 
-7.9800000000000004

>  <m_primary>  (20) 
energy

$$$$
20:0
     RDKit          3D

 54 57  0  0  0  0  0  0  0  0999 V2000
   64.4067   31.1536   52.1215 H   0  0  0  0  0  0  0  0  0  0  0  0
   64.1130   31.4370   51.1000 C   0  0  0  0  0  0  0  0  0  0  0  0
   64.8780   32.3630   50.3840 C   0  0  0  0  0  0  0  0  0  0  0  0
   65.7747   32.8061   50.8418 H   0  0  0  0  0  0  0  0  0  0  0  0
   64.5040   32.7260   49.0870 C   0  0  0  0  0  0  0  0  0  0  0  0
   65.1080   33.4551   48.5270 H   0  0  0  0  0  0  0  0  0  0  0  0
   63.3600   32.1640   48.4950 C   0  0  0  0  0  0  0  0  0  0  0  0
   62.9670   32.5540   47.0960 C   0  0  0  0  0  0  0  0  0  0  0  0
   63.0584   31.6783   46.4366 H   0  0  0  0  0  0  0  0  0  0  0  0
   63.6320   33.3591   46.7502 H   0  0  0  0  0  0  0  0  0  0  0  0
   61.5870   33.0350   47.0690 N   0  0  0  0  0  0  0  0  0  0  0  0
   60.9300   32.6220   46.3660 H   0  0  0  0  0  0  0  0  0  0  0  0
   61.1170   34.0830   47.9300 C   0  0  0  0  0  0  0  0  0  0  0  0
   61.8930   34.6170   48.7680 O   0  0  0  0  0  0  0  0  0  0  0  0
   59.7120   34.5880   47.8010 C   0  0  0  0  0  0  0  0  0  0  0  0
   59.7168   35.5369   47.2445 H   0  0  0  0  0  0  0  0  0  0  0  0
   59.2934   34.7436   48.8063 H   0  0  0  0  0  0  0  0  0  0  0  0
   58.8690   33.5920   47.0710 C   0  0  0  0  0  0  0  0  0  0  0  0
   58.9700   32.2560   47.2450 N   0  0  0  0  0  0  0  0  0  0  0  0
   58.1510   31.5550   46.4620 N   0  0  0  0  0  0  0  0  0  0  0  0
   57.3890   32.3300   45.6610 C   0  0  0  0  0  0  0  0  0  0  0  0
   56.5620   31.8250   44.7940 N   0  0  0  0  0  0  0  0  0  0  0  0
   56.4590   30.4430   44.4180 C   0  0  0  0  0  0  0  0  0  0  0  0
   55.3860   29.8000   44.5840 O   0  0  0  0  0  0  0  0  0  0  0  0
   57.6370   29.7650   43.7910 C   0  0  0  0  0  0  0  0  0  0  0  0
   57.3046   29.2141   42.8988 H   0  0  0  0  0  0  0  0  0  0  0  0
   58.3788   30.5279   43.5122 H   0  0  0  0  0  0  0  0  0  0  0  0
   58.2720   28.8000   44.7620 C   0  0  0  0  0  0  0  0  0  0  0  0
   59.6340   28.9110   45.0860 C   0  0  0  0  0  0  0  0  0  0  0  0
   60.2446   29.7020   44.6263 H   0  0  0  0  0  0  0  0  0  0  0  0
   60.2160   28.0180   45.9920 C   0  0  0  0  0  0  0  0  0  0  0  0
   61.2833   28.1088   46.2424 H   0  0  0  0  0  0  0  0  0  0  0  0
   59.4460   27.0110   46.5800 C   0  0  0  0  0  0  0  0  0  0  0  0
   59.9079   26.3213   47.3018 H   0  0  0  0  0  0  0  0  0  0  0  0
   58.0920   26.8740   46.2570 C   0  0  0  0  0  0  0  0  0  0  0  0
   57.3440   25.8730   46.8980 O   0  0  0  0  0  0  0  0  0  0  0  0
   56.4770   24.9870   46.2470 C   0  0  0  0  0  0  0  0  0  0  0  0
   56.9090   23.6770   45.9960 C   0  0  0  0  0  0  0  0  0  0  0  0
   57.9198   23.3659   46.2984 H   0  0  0  0  0  0  0  0  0  0  0  0
   56.0600   22.7650   45.3630 C   0  0  0  0  0  0  0  0  0  0  0  0
   56.3987   21.7345   45.1802 H   0  0  0  0  0  0  0  0  0  0  0  0
   54.7810   23.1610   44.9620 C   0  0  0  0  0  0  0  0  0  0  0  0
   54.1107   22.4395   44.4721 H   0  0  0  0  0  0  0  0  0  0  0  0
   54.3530   24.4730   45.1830 C   0  0  0  0  0  0  0  0  0  0  0  0
   53.3492   24.7848   44.8588 H   0  0  0  0  0  0  0  0  0  0  0  0
   55.1990   25.3910   45.8160 C   0  0  0  0  0  0  0  0  0  0  0  0
   54.7720   26.7020   45.9990 O   0  0  0  0  0  0  0  0  0  0  0  0
   57.5110   27.7670   45.3390 C   0  0  0  0  0  0  0  0  0  0  0  0
   56.4503   27.6566   45.0693 H   0  0  0  0  0  0  0  0  0  0  0  0
   57.7300   33.9710   45.8840 S   0  0  0  0  0  0  0  0  0  0  0  0
   62.5980   31.2300   49.2190 C   0  0  0  0  0  0  0  0  0  0  0  0
   61.7036   30.7805   48.7630 H   0  0  0  0  0  0  0  0  0  0  0  0
   62.9740   30.8710   50.5170 C   0  0  0  0  0  0  0  0  0  0  0  0
   62.3732   30.1422   51.0808 H   0  0  0  0  0  0  0  0  0  0  0  0
  1  2  1  0
  2  3  2  0
  3  4  1  0
  3  5  1  0
  5  6  1  0
  5  7  2  0
  7  8  1  0
  8  9  1  0
  8 10  1  0
  8 11  1  0
 11 12  1  0
 11 13  1  0
 13 14  2  0
 13 15  1  0
 15 16  1  0
 15 17  1  0
 15 18  1  0
 18 19  2  0
 19 20  1  0
 20 21  1  0
 21 22  2  0
 22 23  1  0
 23 24  2  0
 23 25  1  0
 25 26  1  0
 25 27  1  0
 25 28  1  0
 28 29  2  0
 29 30  1  0
 29 31  1  0
 31 32  1  0
 31 33  2  0
 33 34  1  0
 33 35  1  0
 35 36  1  0
 36 37  1  0
 37 38  2  0
 38 39  1  0
 38 40  1  0
 40 41  1  0
 40 42  2  0
 42 43  1  0
 42 44  1  0
 44 45  1  0
 44 46  2  0
 46 47  1  0
 35 48  2  0
 48 49  1  0
 21 50  1  0
  7 51  1  0
 51 52  1  0
 51 53  2  0
 53 54  1  0
 53  2  1  0
 50 18  1  0
 48 28  1  0
 46 37  1  0
M  CHG  2  20  -1  47  -1
M  END
>  <UniqueID>  (21) 
21

>  <SMILES>  (21) 
O=C(Cc1cccc(Oc2ccccc2[O-])c1)/N=c1/[n-]nc(CC(=O)NCc2ccccc2)s1

>  <Energy>  (21) 
97.73088934541286

>  <Genealogy>  (21) 
O=C(Cc1cccc(Oc2ccccc2[O-])c1)N=c1[n-]nc(CC(=O)NCc2ccccc2)s1 (protonated)
O=C(Cc1cccc(Oc2ccccc2[O-])c1)/N=c1/[n-]nc(CC(=O)NCc2ccccc2)s1 (cis-trans isomerization)
O=C(Cc1cccc(Oc2ccccc2[O-])c1)/N=c1/[n-]nc(CC(=O)NCc2ccccc2)s1 (3D coordinates assigned)
O=C(Cc1cccc(Oc2ccccc2[O-])c1)/N=c1/[n-]nc(CC(=O)NCc2ccccc2)s1 (optimized conformer: 97.73088934541286 kcal/mol)

>  <smiles>  (21) 
O=C(Cc1cccc(Oc2ccccc2O)c1)N=c1[nH]nc(CC(=O)NCc2ccccc2)s1

>  <score_type>  (21) 
oracle

>  <origin>  (21) 
adg

>  <m_score__min__energy>  (21) 
-14.789999999999999

>  <m_primary>  (21) 
energy

$$$$
21:0
     RDKit          3D

 37 39  0  0  0  0  0  0  0  0999 V2000
   58.0010   31.6370   43.2210 O   0  0  0  0  0  0  0  0  0  0  0  0
   57.0520   31.4380   44.0250 C   0  0  0  0  0  0  0  0  0  0  0  0
   55.9760   30.4630   43.6700 C   0  0  0  0  0  0  0  0  0  0  0  0
   56.6680   29.0390   42.7590 S   0  0  0  0  0  0  0  0  0  0  0  0
   57.8400   28.5990   44.0450 C   0  0  0  0  0  0  0  0  0  0  0  0
   57.5030   27.6580   44.9670 N   0  0  0  0  0  0  0  0  0  0  0  0
   58.3560   27.3250   45.9710 C   0  0  0  0  0  0  0  0  0  0  0  0
   57.8520   26.1280   47.2040 S   0  0  0  0  0  0  0  0  0  0  0  0
   56.8680   25.2190   46.0190 C   0  0  0  0  0  0  0  0  0  0  0  0
   57.4740   24.5410   45.0090 N   0  0  0  0  0  0  0  0  0  0  0  0
   56.7430   23.8250   44.1140 C   0  0  0  0  0  0  0  0  0  0  0  0
   55.3530   23.7830   44.2280 C   0  0  0  0  0  0  0  0  0  0  0  0
   54.7490   24.4860   45.2700 C   0  0  0  0  0  0  0  0  0  0  0  0
   55.5150   25.1890   46.1440 N   0  0  0  0  0  0  0  0  0  0  0  0
   59.6020   27.9490   46.0590 C   0  0  0  0  0  0  0  0  0  0  0  0
   59.9370   28.9040   45.0990 C   0  0  0  0  0  0  0  0  0  0  0  0
   59.0530   29.2140   44.1110 N   0  0  0  0  0  0  0  0  0  0  0  0
   56.9380   32.1800   45.2060 O   0  0  0  0  0  0  0  0  0  0  0  0
   57.9880   32.8950   45.8020 C   0  0  0  0  0  0  0  0  0  0  0  0
   58.2190   34.2130   45.3810 C   0  0  0  0  0  0  0  0  0  0  0  0
   59.2560   34.9650   45.9410 C   0  0  0  0  0  0  0  0  0  0  0  0
   60.0670   34.4080   46.9340 C   0  0  0  0  0  0  0  0  0  0  0  0
   59.8270   33.1050   47.3810 C   0  0  0  0  0  0  0  0  0  0  0  0
   58.7860   32.3490   46.8280 C   0  0  0  0  0  0  0  0  0  0  0  0
   58.5280   31.1150   47.3330 F   0  0  0  0  0  0  0  0  0  0  0  0
   55.4966   30.1029   44.5923 H   0  0  0  0  0  0  0  0  0  0  0  0
   55.2391   30.9684   43.0284 H   0  0  0  0  0  0  0  0  0  0  0  0
   57.2462   23.2800   43.3017 H   0  0  0  0  0  0  0  0  0  0  0  0
   54.7472   23.2083   43.5120 H   0  0  0  0  0  0  0  0  0  0  0  0
   53.6550   24.4712   45.3838 H   0  0  0  0  0  0  0  0  0  0  0  0
   60.3034   27.6933   46.8669 H   0  0  0  0  0  0  0  0  0  0  0  0
   60.9148   29.4063   45.1402 H   0  0  0  0  0  0  0  0  0  0  0  0
   59.3100   29.9400   43.4060 H   0  0  0  0  0  0  0  0  0  0  0  0
   57.5795   34.6581   44.6045 H   0  0  0  0  0  0  0  0  0  0  0  0
   59.4338   35.9956   45.6000 H   0  0  0  0  0  0  0  0  0  0  0  0
   60.8930   34.9940   47.3633 H   0  0  0  0  0  0  0  0  0  0  0  0
   60.4587   32.6719   48.1705 H   0  0  0  0  0  0  0  0  0  0  0  0
  1  2  2  0
  2  3  1  0
  3  4  1  0
  4  5  1  0
  5  6  2  0
  6  7  1  0
  7  8  1  0
  8  9  1  0
  9 10  2  0
 10 11  1  0
 11 12  2  0
 12 13  1  0
 13 14  2  0
  7 15  2  0
 15 16  1  0
 16 17  2  0
  2 18  1  0
 18 19  1  0
 19 20  2  0
 20 21  1  0
 21 22  2  0
 22 23  1  0
 23 24  2  0
 24 25  1  0
 17  5  1  0
 24 19  1  0
 14  9  1  0
  3 26  1  0
  3 27  1  0
 11 28  1  0
 12 29  1  0
 13 30  1  0
 15 31  1  0
 16 32  1  0
 17 33  1  0
 20 34  1  0
 21 35  1  0
 22 36  1  0
 23 37  1  0
M  CHG  1  17   1
M  END
>  <UniqueID>  (22) 
22

>  <SMILES>  (22) 
O=C(CSc1nc(Sc2ncccn2)cc[nH+]1)Oc1ccccc1F

>  <Energy>  (22) 
37.33476659454412

>  <Genealogy>  (22) 
O=C(CSc1nc(Sc2ncccn2)cc[nH+]1)Oc1ccccc1F (protonated)
O=C(CSc1nc(Sc2ncccn2)cc[nH+]1)Oc1ccccc1F (3D coordinates assigned)
O=C(CSc1nc(Sc2ncccn2)cc[nH+]1)Oc1ccccc1F (optimized conformer: 37.33476659454412 kcal/mol)

>  <smiles>  (22) 
O=C(CSc1nccc(Sc2ncccn2)n1)Oc1ccccc1F

>  <score_type>  (22) 
oracle

>  <origin>  (22) 
adg

>  <m_score__min__energy>  (22) 
-6.4900000000000002

>  <m_primary>  (22) 
energy

$$$$
22:0
     RDKit          3D

 56 59  0  0  0  0  0  0  0  0999 V2000
   56.6580   22.8955   41.6096 H   0  0  0  0  0  0  0  0  0  0  0  0
   56.3640   22.5980   42.6270 C   0  0  0  0  0  0  0  0  0  0  0  0
   56.8970   21.4380   43.1980 C   0  0  0  0  0  0  0  0  0  0  0  0
   57.6067   20.8215   42.6268 H   0  0  0  0  0  0  0  0  0  0  0  0
   56.5300   21.0600   44.4930 C   0  0  0  0  0  0  0  0  0  0  0  0
   56.9459   20.1428   44.9354 H   0  0  0  0  0  0  0  0  0  0  0  0
   55.6310   21.8490   45.2310 C   0  0  0  0  0  0  0  0  0  0  0  0
   55.2000   21.4230   46.6020 C   0  0  0  0  0  0  0  0  0  0  0  0
   55.8909   20.6568   46.9836 H   0  0  0  0  0  0  0  0  0  0  0  0
   54.1836   21.0049   46.5572 H   0  0  0  0  0  0  0  0  0  0  0  0
   55.2160   22.5810   47.4900 N   0  0  0  0  0  0  0  0  0  0  0  0
   56.7840   23.3320   47.4670 S   0  0  0  0  0  0  0  0  0  0  0  0
   57.2660   23.4960   48.8810 O   0  0  0  0  0  0  0  0  0  0  0  0
   57.7690   22.4770   46.7200 O   0  0  0  0  0  0  0  0  0  0  0  0
   56.6840   24.9150   46.7180 C   0  0  0  0  0  0  0  0  0  0  0  0
   55.5200   25.5700   46.5140 N   0  0  0  0  0  0  0  0  0  0  0  0
   55.6810   26.7490   45.9170 N   0  0  0  0  0  0  0  0  0  0  0  0
   56.9770   27.0290   45.6480 C   0  0  0  0  0  0  0  0  0  0  0  0
   57.3820   28.1010   45.0350 N   0  0  0  0  0  0  0  0  0  0  0  0
   56.6570   29.3370   44.9550 C   0  0  0  0  0  0  0  0  0  0  0  0
   55.4000   29.2920   44.8630 O   0  0  0  0  0  0  0  0  0  0  0  0
   57.3410   30.6540   44.9140 C   0  0  0  0  0  0  0  0  0  0  0  0
   57.2810   31.4530   43.7640 C   0  0  0  0  0  0  0  0  0  0  0  0
   56.7407   31.0929   42.8761 H   0  0  0  0  0  0  0  0  0  0  0  0
   57.9020   32.7020   43.7380 C   0  0  0  0  0  0  0  0  0  0  0  0
   57.8473   33.3177   42.8281 H   0  0  0  0  0  0  0  0  0  0  0  0
   58.5960   33.1820   44.8600 C   0  0  0  0  0  0  0  0  0  0  0  0
   59.2170   34.5530   44.7960 C   0  0  0  0  0  0  0  0  0  0  0  0
   59.3863   34.9268   45.8166 H   0  0  0  0  0  0  0  0  0  0  0  0
   60.1772   34.4961   44.2623 H   0  0  0  0  0  0  0  0  0  0  0  0
   58.5409   35.2372   44.2623 H   0  0  0  0  0  0  0  0  0  0  0  0
   58.6390   32.3940   46.0360 C   0  0  0  0  0  0  0  0  0  0  0  0
   59.4550   32.9590   47.5050 S   0  0  0  0  0  0  0  0  0  0  0  0
   58.9660   34.3360   47.8730 O   0  0  0  0  0  0  0  0  0  0  0  0
   59.1320   32.0210   48.6350 O   0  0  0  0  0  0  0  0  0  0  0  0
   61.1800   33.0050   47.2390 N   0  0  0  0  0  0  0  0  0  0  0  0
   61.8180   33.8910   48.2250 C   0  0  0  0  0  0  0  0  0  0  0  0
   61.4503   34.9178   48.0819 H   0  0  0  0  0  0  0  0  0  0  0  0
   61.5683   33.5393   49.2369 H   0  0  0  0  0  0  0  0  0  0  0  0
   63.3500   33.8700   48.0500 C   0  0  0  0  0  0  0  0  0  0  0  0
   63.6954   34.8885   47.8191 H   0  0  0  0  0  0  0  0  0  0  0  0
   63.7947   33.5028   48.9867 H   0  0  0  0  0  0  0  0  0  0  0  0
   63.7510   33.0030   47.0050 O   0  0  0  0  0  0  0  0  0  0  0  0
   63.2810   31.6940   47.2620 C   0  0  0  0  0  0  0  0  0  0  0  0
   63.6165   31.0289   46.4527 H   0  0  0  0  0  0  0  0  0  0  0  0
   63.6850   31.3675   48.2316 H   0  0  0  0  0  0  0  0  0  0  0  0
   61.7410   31.6490   47.3410 C   0  0  0  0  0  0  0  0  0  0  0  0
   61.3540   31.0341   46.5151 H   0  0  0  0  0  0  0  0  0  0  0  0
   61.4469   31.2142   48.3077 H   0  0  0  0  0  0  0  0  0  0  0  0
   58.0100   31.1380   46.0490 C   0  0  0  0  0  0  0  0  0  0  0  0
   58.0422   30.5250   46.9618 H   0  0  0  0  0  0  0  0  0  0  0  0
   58.0040   25.7920   46.1430 S   0  0  0  0  0  0  0  0  0  0  0  0
   55.0880   23.0040   44.6430 C   0  0  0  0  0  0  0  0  0  0  0  0
   54.3674   23.6165   45.2048 H   0  0  0  0  0  0  0  0  0  0  0  0
   55.4580   23.3790   43.3490 C   0  0  0  0  0  0  0  0  0  0  0  0
   55.0359   24.2894   42.8985 H   0  0  0  0  0  0  0  0  0  0  0  0
  1  2  1  0
  2  3  2  0
  3  4  1  0
  3  5  1  0
  5  6  1  0
  5  7  2  0
  7  8  1  0
  8  9  1  0
  8 10  1  0
  8 11  1  0
 11 12  1  0
 12 13  2  0
 12 14  2  0
 12 15  1  0
 15 16  2  0
 16 17  1  0
 17 18  1  0
 18 19  2  0
 19 20  1  0
 20 21  2  0
 20 22  1  0
 22 23  2  0
 23 24  1  0
 23 25  1  0
 25 26  1  0
 25 27  2  0
 27 28  1  0
 28 29  1  0
 28 30  1  0
 28 31  1  0
 27 32  1  0
 32 33  1  0
 33 34  2  0
 33 35  2  0
 33 36  1  0
 36 37  1  0
 37 38  1  0
 37 39  1  0
 37 40  1  0
 40 41  1  0
 40 42  1  0
 40 43  1  0
 43 44  1  0
 44 45  1  0
 44 46  1  0
 44 47  1  0
 47 48  1  0
 47 49  1  0
 32 50  2  0
 50 51  1  0
 18 52  1  0
  7 53  1  0
 53 54  1  0
 53 55  2  0
 55 56  1  0
 55  2  1  0
 52 15  1  0
 50 22  1  0
 47 36  1  0
M  CHG  2  11  -1  17  -1
M  END
>  <UniqueID>  (23) 
23

>  <SMILES>  (23) 
Cc1ccc(C(=O)/N=c2\[n-]nc(S(=O)(=O)[N-]Cc3ccccc3)s2)cc1S(=O)(=O)N1CCOCC1

>  <Energy>  (23) 
107.1808267247641

>  <Genealogy>  (23) 
Cc1ccc(C(=O)N=c2[n-]nc(S(=O)(=O)[N-]Cc3ccccc3)s2)cc1S(=O)(=O)N1CCOCC1 (protonated)
Cc1ccc(C(=O)/N=c2\[n-]nc(S(=O)(=O)[N-]Cc3ccccc3)s2)cc1S(=O)(=O)N1CCOCC1 (cis-trans isomerization)
Cc1ccc(C(=O)/N=c2\[n-]nc(S(=O)(=O)[N-]Cc3ccccc3)s2)cc1S(=O)(=O)N1CCOCC1 (3D coordinates assigned)
Cc1ccc(C(=O)/N=c2\[n-]nc(S(=O)(=O)[N-]Cc3ccccc3)s2)cc1S(=O)(=O)N1CCOCC1 (nonaromatic ring conformer: 107.1808267247641 kcal/mol)

>  <smiles>  (23) 
Cc1ccc(C(=O)N=c2[nH]nc(S(=O)(=O)NCc3ccccc3)s2)cc1S(=O)(=O)N1CCOCC1

>  <score_type>  (23) 
oracle

>  <origin>  (23) 
adg

>  <m_score__min__energy>  (23) 
-14.44

>  <m_primary>  (23) 
energy

$$$$
23:0
     RDKit          3D

 47 49  0  0  0  0  0  0  0  0999 V2000
   57.4165   22.0433   45.2725 H   0  0  0  0  0  0  0  0  0  0  0  0
   56.8110   22.9540   45.3910 C   0  0  0  0  0  0  0  0  0  0  0  0
   60.0040   34.7800   46.8580 N   0  0  0  0  0  0  0  0  0  0  0  0
   59.9580   34.1720   48.0760 C   0  0  0  0  0  0  0  0  0  0  0  0
   60.6600   34.6210   49.0740 N   0  0  0  0  0  0  0  0  0  0  0  0
   57.9450   27.0800   46.8910 C   0  0  0  0  0  0  0  0  0  0  0  0
   58.8980   27.3420   47.6740 O   0  0  0  0  0  0  0  0  0  0  0  0
   57.6810   27.9570   45.7250 C   0  0  0  0  0  0  0  0  0  0  0  0
   57.7070   27.4340   44.4210 C   0  0  0  0  0  0  0  0  0  0  0  0
   57.9382   26.3702   44.2631 H   0  0  0  0  0  0  0  0  0  0  0  0
   57.4410   28.2570   43.3240 C   0  0  0  0  0  0  0  0  0  0  0  0
   57.4562   27.8378   42.3071 H   0  0  0  0  0  0  0  0  0  0  0  0
   57.1560   29.6100   43.5150 C   0  0  0  0  0  0  0  0  0  0  0  0
   56.9323   30.2489   42.6480 H   0  0  0  0  0  0  0  0  0  0  0  0
   57.1530   30.1590   44.8020 C   0  0  0  0  0  0  0  0  0  0  0  0
   56.8180   31.5470   44.9510 N   0  0  0  0  0  0  0  0  0  0  0  0
   57.6920   32.6720   44.7780 C   0  0  0  0  0  0  0  0  0  0  0  0
   57.7740   33.2460   43.6570 O   0  0  0  0  0  0  0  0  0  0  0  0
   58.4650   33.1910   45.9300 C   0  0  0  0  0  0  0  0  0  0  0  0
   59.2840   34.3240   45.7980 C   0  0  0  0  0  0  0  0  0  0  0  0
   59.3436   34.8459   44.8315 H   0  0  0  0  0  0  0  0  0  0  0  0
   57.2370   23.9490   46.2090 N   0  0  0  0  0  0  0  0  0  0  0  0
   56.5350   25.1020   46.3940 C   0  0  0  0  0  0  0  0  0  0  0  0
   57.0490   26.0000   47.1920 N   0  0  0  0  0  0  0  0  0  0  0  0
   61.7070   33.8590   49.7510 C   0  0  0  0  0  0  0  0  0  0  0  0
   61.4328   32.7939   49.7670 H   0  0  0  0  0  0  0  0  0  0  0  0
   61.8177   34.2254   50.7822 H   0  0  0  0  0  0  0  0  0  0  0  0
   63.0290   34.0330   49.0050 C   0  0  0  0  0  0  0  0  0  0  0  0
   63.8616   33.9549   49.7196 H   0  0  0  0  0  0  0  0  0  0  0  0
   63.0386   35.0206   48.5207 H   0  0  0  0  0  0  0  0  0  0  0  0
   63.1700   33.0330   48.0130 O   0  0  0  0  0  0  0  0  0  0  0  0
   63.2680   33.6190   46.7330 C   0  0  0  0  0  0  0  0  0  0  0  0
   63.4486   34.6991   46.8371 H   0  0  0  0  0  0  0  0  0  0  0  0
   64.1017   33.1592   46.1821 H   0  0  0  0  0  0  0  0  0  0  0  0
   62.3300   33.4555   46.1821 H   0  0  0  0  0  0  0  0  0  0  0  0
   55.2810   25.2450   45.7440 C   0  0  0  0  0  0  0  0  0  0  0  0
   59.0987   32.5509   49.2370 H   0  0  0  0  0  0  0  0  0  0  0  0
   54.8410   24.2330   44.8860 C   0  0  0  0  0  0  0  0  0  0  0  0
   53.8846   24.3440   44.3541 H   0  0  0  0  0  0  0  0  0  0  0  0
   57.3980   29.3260   45.9080 C   0  0  0  0  0  0  0  0  0  0  0  0
   57.3686   29.7459   46.9243 H   0  0  0  0  0  0  0  0  0  0  0  0
   59.1490   33.0460   48.2560 C   0  0  0  0  0  0  0  0  0  0  0  0
   54.4430   26.3300   45.9680 O   0  0  0  0  0  0  0  0  0  0  0  0
   58.4060   32.5550   47.1820 C   0  0  0  0  0  0  0  0  0  0  0  0
   57.7714   31.6665   47.3156 H   0  0  0  0  0  0  0  0  0  0  0  0
   55.6080   23.0840   44.7010 C   0  0  0  0  0  0  0  0  0  0  0  0
   55.2679   22.2905   44.0193 H   0  0  0  0  0  0  0  0  0  0  0  0
  1  2  1  0
  2  3  1  0
  3  4  1  0
  4  5  2  0
  5  6  1  0
  6  7  2  0
  6  8  1  0
  8  9  2  0
  9 10  1  0
  9 11  1  0
 11 12  1  0
 11 13  2  0
 13 14  1  0
 13 15  1  0
 15 16  1  0
 16 17  1  0
 17 18  2  0
 17 19  1  0
 19 20  2  0
 20 21  1  0
 20 22  1  0
 22 23  1  0
 23 24  2  0
 24 25  1  0
 25 26  1  0
 25 27  1  0
 25 28  1  0
 28 29  1  0
 28 30  1  0
 28 31  1  0
 31 32  1  0
 32 33  1  0
 32 34  1  0
 32 35  1  0
 23 36  1  0
 36 37  1  0
 36 38  2  0
 38 39  1  0
 15 40  2  0
 40 41  1  0
  4 42  1  0
 42 43  1  0
 42 44  2  0
 44 45  1  0
 44 46  1  0
 46 47  1  0
 46  2  2  0
 40  8  1  0
 38 19  1  0
M  CHG  4   3  -1  16  -1  22  -1  43  -1
M  END
>  <UniqueID>  (24) 
24

>  <SMILES>  (24) 
COCC/N=c1/ccc(C(=O)[N-]c2cccc(C(=O)/N=c3/[n-]cccc3[O-])c2)c[n-]1

>  <Energy>  (24) 
67.52921389573426

>  <Genealogy>  (24) 
COCCN=c1ccc(C(=O)[N-]c2cccc(C(=O)N=c3[n-]cccc3[O-])c2)c[n-]1 (protonated)
COCC/N=c1/ccc(C(=O)[N-]c2cccc(C(=O)/N=c3/[n-]cccc3[O-])c2)c[n-]1 (cis-trans isomerization)
COCC/N=c1/ccc(C(=O)[N-]c2cccc(C(=O)/N=c3/[n-]cccc3[O-])c2)c[n-]1 (3D coordinates assigned)
COCC/N=c1/ccc(C(=O)[N-]c2cccc(C(=O)/N=c3/[n-]cccc3[O-])c2)c[n-]1 (optimized conformer: 67.52921389573426 kcal/mol)

>  <smiles>  (24) 
COCCN=c1ccc(C(=O)Nc2cccc(C(=O)N=c3[nH]cccc3O)c2)c[nH]1

>  <score_type>  (24) 
oracle

>  <origin>  (24) 
adg

>  <m_score__min__energy>  (24) 
-15.33

>  <m_primary>  (24) 
energy

$$$$
24:0
     RDKit          3D

 68 72  0  0  1  0  0  0  0  0999 V2000
   55.8770   23.3130   47.7940 C   0  0  0  0  0  0  0  0  0  0  0  0
   57.1970   24.0420   47.9050 C   0  0  0  0  0  0  0  0  0  0  0  0
   57.3500   24.9450   46.7190 C   0  0  0  0  0  0  0  0  0  0  0  0
   57.1910   24.4690   45.4200 C   0  0  0  0  0  0  0  0  0  0  0  0
   57.3540   25.3840   44.4080 C   0  0  0  0  0  0  0  0  0  0  0  0
   57.6590   26.7150   44.6220 C   0  0  0  0  0  0  0  0  0  0  0  0
   57.8100   27.5920   43.4390 C   0  0  0  0  0  0  0  0  0  0  0  0
   58.1380   28.9580   43.7610 N   0  0  0  0  0  0  0  0  0  0  0  0
   57.2750   29.8550   44.4380 C   0  0  0  0  0  0  0  0  0  0  0  0
   56.1120   29.5050   44.8210 O   0  0  0  0  0  0  0  0  0  0  0  0
   57.6440   31.2360   44.7470 C   0  0  0  0  0  0  0  0  0  0  0  0
   57.7930   32.1340   43.7130 C   0  0  0  0  0  0  0  0  0  0  0  0
   58.1430   33.4700   43.9370 C   0  0  0  0  0  0  0  0  0  0  0  0
   58.3520   33.9210   45.2260 C   0  0  0  0  0  0  0  0  0  0  0  0
   58.1970   32.9960   46.2500 C   0  0  0  0  0  0  0  0  0  0  0  0
   58.4100   33.4450   47.6030 N   0  0  0  0  0  0  0  0  0  0  0  0
   59.7710   33.6040   47.9890 C   0  0  0  0  0  0  0  0  0  0  0  0
   60.7110   33.3560   47.1670 O   0  0  0  0  0  0  0  0  0  0  0  0
   60.0570   34.0640   49.3690 C   0  0  0  0  0  0  0  0  0  0  0  0
   59.2760   33.2990   50.3750 C   0  0  0  0  0  0  0  0  0  0  0  0
   58.9210   31.9850   50.0480 C   0  0  0  0  0  0  0  0  0  0  0  0
   58.1960   31.1940   50.9150 C   0  0  0  0  0  0  0  0  0  0  0  0
   57.8200   31.7280   52.1320 C   0  0  0  0  0  0  0  0  0  0  0  0
   57.0720   30.8680   52.9940 N   0  0  0  0  0  0  0  0  0  0  0  0
   55.8810   30.4740   52.6900 C   0  0  0  0  0  0  0  0  0  0  0  0
   55.0790   31.2300   51.9050 N   0  0  0  0  0  0  0  0  0  0  0  0
   53.8660   30.7500   51.6380 C   0  0  0  0  0  0  0  0  0  0  0  0
   53.4200   29.5840   52.1020 N   0  0  0  0  0  0  0  0  0  0  0  0
   54.2030   28.8180   52.8860 C   0  0  0  0  0  0  0  0  0  0  0  0
   53.7500   27.6020   53.3750 C   0  0  0  0  0  0  0  0  0  0  0  0
   54.6010   26.8610   54.1730 C   0  0  0  0  0  0  0  0  0  0  0  0
   55.8820   27.2930   54.4970 C   0  0  0  0  0  0  0  0  0  0  0  0
   56.3190   28.5200   53.9940 C   0  0  0  0  0  0  0  0  0  0  0  0
   55.4720   29.2590   53.1990 C   0  0  0  0  0  0  0  0  0  0  0  0
   58.1580   33.0200   52.4770 C   0  0  0  0  0  0  0  0  0  0  0  0
   58.8940   33.8210   51.5930 C   0  0  0  0  0  0  0  0  0  0  0  0
   57.8550   31.6930   46.0280 C   0  0  0  0  0  0  0  0  0  0  0  0
   57.8050   27.1300   45.9200 C   0  0  0  0  0  0  0  0  0  0  0  0
   57.6520   26.2530   46.9720 C   0  0  0  0  0  0  0  0  0  0  0  0
   55.4903   23.0994   48.8014 H   0  0  0  0  0  0  0  0  0  0  0  0
   55.1560   23.9408   47.2499 H   0  0  0  0  0  0  0  0  0  0  0  0
   56.0244   22.3684   47.2499 H   0  0  0  0  0  0  0  0  0  0  0  0
   57.2134   24.6388   48.8289 H   0  0  0  0  0  0  0  0  0  0  0  0
   58.0237   23.3169   47.9323 H   0  0  0  0  0  0  0  0  0  0  0  0
   56.9477   23.4160   45.2149 H   0  0  0  0  0  0  0  0  0  0  0  0
   57.2352   25.0383   43.3705 H   0  0  0  0  0  0  0  0  0  0  0  0
   58.6113   27.1838   42.8056 H   0  0  0  0  0  0  0  0  0  0  0  0
   56.8354   27.6100   42.9292 H   0  0  0  0  0  0  0  0  0  0  0  0
   59.0990   29.2920   43.4610 H   0  0  0  0  0  0  0  0  0  0  0  0
   57.6320   31.7905   42.6805 H   0  0  0  0  0  0  0  0  0  0  0  0
   58.2516   34.1605   43.0877 H   0  0  0  0  0  0  0  0  0  0  0  0
   58.6287   34.9656   45.4318 H   0  0  0  0  0  0  0  0  0  0  0  0
   57.6070   33.6390   48.2500 H   0  0  0  0  0  0  0  0  0  0  0  0
   61.1295   33.9314   49.5741 H   0  0  0  0  0  0  0  0  0  0  0  0
   59.7698   35.1232   49.4444 H   0  0  0  0  0  0  0  0  0  0  0  0
   59.2278   31.5729   49.0754 H   0  0  0  0  0  0  0  0  0  0  0  0
   57.9240   30.1633   50.6437 H   0  0  0  0  0  0  0  0  0  0  0  0
   55.4160   32.1440   51.5350 H   0  0  0  0  0  0  0  0  0  0  0  0
   53.1974   31.3477   51.0010 H   0  0  0  0  0  0  0  0  0  0  0  0
   52.7406   27.2371   53.1343 H   0  0  0  0  0  0  0  0  0  0  0  0
   54.2521   25.8946   54.5659 H   0  0  0  0  0  0  0  0  0  0  0  0
   56.5368   26.6818   55.1355 H   0  0  0  0  0  0  0  0  0  0  0  0
   57.3271   28.8915   54.2299 H   0  0  0  0  0  0  0  0  0  0  0  0
   57.8480   33.4243   53.4519 H   0  0  0  0  0  0  0  0  0  0  0  0
   59.1632   34.8518   51.8670 H   0  0  0  0  0  0  0  0  0  0  0  0
   57.7474   31.0039   46.8786 H   0  0  0  0  0  0  0  0  0  0  0  0
   58.0488   28.1827   46.1259 H   0  0  0  0  0  0  0  0  0  0  0  0
   57.7722   26.6036   48.0077 H   0  0  0  0  0  0  0  0  0  0  0  0
  1  2  1  0
  2  3  1  0
  3  4  2  0
  4  5  1  0
  5  6  2  0
  6  7  1  0
  7  8  1  0
  8  9  1  0
  9 10  2  0
  9 11  1  0
 11 12  2  0
 12 13  1  0
 13 14  2  0
 14 15  1  0
 15 16  1  0
 16 17  1  0
 17 18  2  0
 17 19  1  0
 19 20  1  0
 20 21  2  0
 21 22  1  0
 22 23  2  0
 23 24  1  0
 24 25  2  0
 25 26  1  0
 26 27  1  0
 27 28  2  0
 28 29  1  0
 29 30  2  0
 30 31  1  0
 31 32  2  0
 32 33  1  0
 33 34  2  0
 23 35  1  0
 35 36  2  0
 15 37  2  0
  6 38  1  0
 38 39  2  0
 39  3  1  0
 37 11  1  0
 36 20  1  0
 34 25  1  0
 34 29  1  0
  1 40  1  0
  1 41  1  0
  1 42  1  0
  2 43  1  0
  2 44  1  0
  4 45  1  0
  5 46  1  0
  7 47  1  0
  7 48  1  0
  8 49  1  0
 12 50  1  0
 13 51  1  0
 14 52  1  0
 16 53  1  0
 19 54  1  0
 19 55  1  0
 21 56  1  0
 22 57  1  0
 26 58  1  0
 27 59  1  0
 30 60  1  0
 31 61  1  0
 32 62  1  0
 33 63  1  0
 35 64  1  0
 36 65  1  0
 37 66  1  0
 38 67  1  0
 39 68  1  0
M  END
>  <smiles>  (25) 
CCc1ccc(CNC(=O)c2cccc(NC(=O)Cc3ccc(N=c4[nH]cnc5ccccc45)cc3)c2)cc1

>  <score_type>  (25) 
oracle

>  <origin>  (25) 
adg

>  <m_score__min__energy>  (25) 
-11.26

>  <m_primary>  (25) 
energy

$$$$
25:0
     RDKit          3D

 38 40  0  0  0  0  0  0  0  0999 V2000
   61.1030   30.3900   47.0390 C   0  0  0  0  0  0  0  0  0  0  0  0
   62.0610   31.4290   47.4650 C   0  0  0  0  0  0  0  0  0  0  0  0
   63.3610   31.5700   47.0990 N   0  0  0  0  0  0  0  0  0  0  0  0
   63.8580   32.6380   47.7150 N   0  0  0  0  0  0  0  0  0  0  0  0
   62.8800   33.1890   48.4800 C   0  0  0  0  0  0  0  0  0  0  0  0
   63.0270   34.4010   49.3300 C   0  0  0  0  0  0  0  0  0  0  0  0
   61.7160   32.4460   48.3480 C   0  0  0  0  0  0  0  0  0  0  0  0
   60.1540   32.7000   49.0850 S   0  0  0  0  0  0  0  0  0  0  0  0
   59.6510   31.3610   49.5360 O   0  0  0  0  0  0  0  0  0  0  0  0
   60.4620   33.4320   50.3870 O   0  0  0  0  0  0  0  0  0  0  0  0
   59.0520   33.5800   48.1610 N   0  0  0  0  0  0  0  0  0  0  0  0
   58.6190   33.3200   46.8610 C   0  0  0  0  0  0  0  0  0  0  0  0
   58.3950   34.2400   45.8680 C   0  0  0  0  0  0  0  0  0  0  0  0
   57.9570   33.9060   44.6010 C   0  0  0  0  0  0  0  0  0  0  0  0
   57.7250   32.5860   44.2960 C   0  0  0  0  0  0  0  0  0  0  0  0
   57.9360   31.6220   45.2650 C   0  0  0  0  0  0  0  0  0  0  0  0
   57.7000   30.2010   44.9790 C   0  0  0  0  0  0  0  0  0  0  0  0
   58.5170   29.3970   44.2150 C   0  0  0  0  0  0  0  0  0  0  0  0
   57.9540   28.1470   44.1870 C   0  0  0  0  0  0  0  0  0  0  0  0
   58.3580   27.0910   43.6080 O   0  0  0  0  0  0  0  0  0  0  0  0
   56.8280   28.2050   44.9180 N   0  0  0  0  0  0  0  0  0  0  0  0
   56.6690   29.4310   45.3950 N   0  0  0  0  0  0  0  0  0  0  0  0
   58.3740   31.9830   46.5220 C   0  0  0  0  0  0  0  0  0  0  0  0
   60.6621   29.9119   47.9261 H   0  0  0  0  0  0  0  0  0  0  0  0
   60.3062   30.8507   46.4367 H   0  0  0  0  0  0  0  0  0  0  0  0
   61.6268   29.6331   46.4367 H   0  0  0  0  0  0  0  0  0  0  0  0
   64.8160   33.0120   47.6450 H   0  0  0  0  0  0  0  0  0  0  0  0
   62.9919   34.1115   50.3906 H   0  0  0  0  0  0  0  0  0  0  0  0
   63.9905   34.8857   49.1139 H   0  0  0  0  0  0  0  0  0  0  0  0
   62.2073   35.1020   49.1139 H   0  0  0  0  0  0  0  0  0  0  0  0
   58.6190   34.4560   48.6180 H   0  0  0  0  0  0  0  0  0  0  0  0
   58.5740   35.3018   46.0931 H   0  0  0  0  0  0  0  0  0  0  0  0
   57.7957   34.6880   43.8444 H   0  0  0  0  0  0  0  0  0  0  0  0
   57.3756   32.2997   43.2930 H   0  0  0  0  0  0  0  0  0  0  0  0
   59.4500   29.7018   43.7184 H   0  0  0  0  0  0  0  0  0  0  0  0
   56.1770   27.4060   45.0840 H   0  0  0  0  0  0  0  0  0  0  0  0
   55.8690   29.7360   45.9940 H   0  0  0  0  0  0  0  0  0  0  0  0
   58.5352   31.2006   47.2782 H   0  0  0  0  0  0  0  0  0  0  0  0
  1  2  1  0
  2  3  2  0
  3  4  1  0
  4  5  1  0
  5  6  1  0
  5  7  2  0
  7  8  1  0
  8  9  2  0
  8 10  2  0
  8 11  1  0
 11 12  1  0
 12 13  2  0
 13 14  1  0
 14 15  2  0
 15 16  1  0
 16 17  1  0
 17 18  2  0
 18 19  1  0
 19 20  2  0
 19 21  1  0
 21 22  1  0
 16 23  2  0
  7  2  1  0
 23 12  1  0
 22 17  1  0
  1 24  1  0
  1 25  1  0
  1 26  1  0
  4 27  1  0
  6 28  1  0
  6 29  1  0
  6 30  1  0
 11 31  1  0
 13 32  1  0
 14 33  1  0
 15 34  1  0
 18 35  1  0
 21 36  1  0
 22 37  1  0
 23 38  1  0
M  END
>  <smiles>  (26) 
Cc1n[nH]c(C)c1S(=O)(=O)Nc1cccc(-c2cc(=O)[nH][nH]2)c1

>  <score_type>  (26) 
oracle

>  <origin>  (26) 
adg

>  <m_score__min__energy>  (26) 
-8.7699999999999996

>  <m_primary>  (26) 
energy

$$$$
26:0
     RDKit          3D

 49 53  0  0  0  0  0  0  0  0999 V2000
   58.7980   34.2310   53.0150 C   0  0  0  0  0  0  0  0  0  0  0  0
   59.7920   34.2120   51.9970 O   0  0  0  0  0  0  0  0  0  0  0  0
   59.7270   33.4220   50.8390 C   0  0  0  0  0  0  0  0  0  0  0  0
   59.7540   32.0140   50.8850 C   0  0  0  0  0  0  0  0  0  0  0  0
   59.6950   31.2700   49.7030 C   0  0  0  0  0  0  0  0  0  0  0  0
   59.5920   31.9200   48.4670 C   0  0  0  0  0  0  0  0  0  0  0  0
   59.5590   33.3210   48.4140 C   0  0  0  0  0  0  0  0  0  0  0  0
   59.6360   34.0660   49.6000 C   0  0  0  0  0  0  0  0  0  0  0  0
   59.5090   33.9920   47.0680 C   0  0  0  0  0  0  0  0  0  0  0  0
   58.5370   33.2660   46.1220 C   0  0  0  0  0  0  0  0  0  0  0  0
   58.6040   31.7980   46.2500 N   0  0  0  0  0  0  0  0  0  0  0  0
   57.7920   30.9960   45.3750 C   0  0  0  0  0  0  0  0  0  0  0  0
   57.0140   31.5650   44.5610 O   0  0  0  0  0  0  0  0  0  0  0  0
   57.8310   29.5160   45.4320 C   0  0  0  0  0  0  0  0  0  0  0  0
   59.0590   28.8330   45.3730 C   0  0  0  0  0  0  0  0  0  0  0  0
   59.1030   27.4370   45.4310 C   0  0  0  0  0  0  0  0  0  0  0  0
   57.9170   26.6970   45.5600 C   0  0  0  0  0  0  0  0  0  0  0  0
   57.9200   25.2860   45.6190 C   0  0  0  0  0  0  0  0  0  0  0  0
   58.9950   24.6290   45.5590 O   0  0  0  0  0  0  0  0  0  0  0  0
   56.6980   24.6230   45.7450 C   0  0  0  0  0  0  0  0  0  0  0  0
   55.5280   25.3290   45.8130 C   0  0  0  0  0  0  0  0  0  0  0  0
   55.5100   26.6840   45.7600 N   0  0  0  0  0  0  0  0  0  0  0  0
   56.6740   27.3840   45.6340 C   0  0  0  0  0  0  0  0  0  0  0  0
   56.6420   28.7810   45.5770 C   0  0  0  0  0  0  0  0  0  0  0  0
   54.3410   24.4590   45.9490 C   0  0  0  0  0  0  0  0  0  0  0  0
   54.9270   23.0330   45.9120 C   0  0  0  0  0  0  0  0  0  0  0  0
   56.4620   23.1620   45.8290 C   0  0  0  0  0  0  0  0  0  0  0  0
   59.5460   31.1530   47.1770 C   0  0  0  0  0  0  0  0  0  0  0  0
   59.2837   34.2217   54.0019 H   0  0  0  0  0  0  0  0  0  0  0  0
   58.1881   35.1410   52.9150 H   0  0  0  0  0  0  0  0  0  0  0  0
   58.1538   33.3450   52.9150 H   0  0  0  0  0  0  0  0  0  0  0  0
   59.8217   31.4985   51.8543 H   0  0  0  0  0  0  0  0  0  0  0  0
   59.7296   30.1713   49.7439 H   0  0  0  0  0  0  0  0  0  0  0  0
   59.6248   35.1651   49.5558 H   0  0  0  0  0  0  0  0  0  0  0  0
   59.1747   35.0319   47.1974 H   0  0  0  0  0  0  0  0  0  0  0  0
   60.5154   33.9612   46.6251 H   0  0  0  0  0  0  0  0  0  0  0  0
   57.5122   33.5925   46.3528 H   0  0  0  0  0  0  0  0  0  0  0  0
   58.8245   33.5220   45.0916 H   0  0  0  0  0  0  0  0  0  0  0  0
   59.9949   29.4035   45.2802 H   0  0  0  0  0  0  0  0  0  0  0  0
   60.0704   26.9164   45.3754 H   0  0  0  0  0  0  0  0  0  0  0  0
   55.6791   29.3083   45.6462 H   0  0  0  0  0  0  0  0  0  0  0  0
   53.8245   24.6463   46.9020 H   0  0  0  0  0  0  0  0  0  0  0  0
   53.5925   24.6329   45.1619 H   0  0  0  0  0  0  0  0  0  0  0  0
   54.6451   22.4878   46.8248 H   0  0  0  0  0  0  0  0  0  0  0  0
   54.5384   22.4778   45.0455 H   0  0  0  0  0  0  0  0  0  0  0  0
   56.9384   22.7405   46.7264 H   0  0  0  0  0  0  0  0  0  0  0  0
   56.8859   22.6160   44.9733 H   0  0  0  0  0  0  0  0  0  0  0  0
   59.2158   30.1227   47.3758 H   0  0  0  0  0  0  0  0  0  0  0  0
   60.5491   31.1389   46.7257 H   0  0  0  0  0  0  0  0  0  0  0  0
  1  2  1  0
  2  3  1  0
  3  4  2  0
  4  5  1  0
  5  6  2  0
  6  7  1  0
  7  8  2  0
  7  9  1  0
  9 10  1  0
 10 11  1  0
 11 12  1  0
 12 13  2  0
 12 14  1  0
 14 15  2  0
 15 16  1  0
 16 17  2  0
 17 18  1  0
 18 19  2  0
 18 20  1  0
 20 21  2  0
 21 22  1  0
 22 23  1  0
 23 24  2  0
 21 25  1  0
 25 26  1  0
 26 27  1  0
 11 28  1  0
  8  3  1  0
 24 14  1  0
 28  6  1  0
 23 17  1  0
 27 20  1  0
  1 29  1  0
  1 30  1  0
  1 31  1  0
  4 32  1  0
  5 33  1  0
  8 34  1  0
  9 35  1  0
  9 36  1  0
 10 37  1  0
 10 38  1  0
 15 39  1  0
 16 40  1  0
 24 41  1  0
 25 42  1  0
 25 43  1  0
 26 44  1  0
 26 45  1  0
 27 46  1  0
 27 47  1  0
 28 48  1  0
 28 49  1  0
M  CHG  1  22  -1
M  END
>  <UniqueID>  (27) 
25

>  <SMILES>  (27) 
COc1ccc2c(c1)CCN(C(=O)c1ccc3c(=O)c4c([n-]c3c1)CCC4)C2

>  <Energy>  (27) 
73.58347749591361

>  <Genealogy>  (27) 
COc1ccc2c(c1)CCN(C(=O)c1ccc3c(=O)c4c([n-]c3c1)CCC4)C2 (protonated)
COc1ccc2c(c1)CCN(C(=O)c1ccc3c(=O)c4c([n-]c3c1)CCC4)C2 (3D coordinates assigned)
COc1ccc2c(c1)CCN(C(=O)c1ccc3c(=O)c4c([n-]c3c1)CCC4)C2 (nonaromatic ring conformer: 73.58347749591361 kcal/mol)

>  <smiles>  (27) 
COc1ccc2c(c1)CCN(C(=O)c1ccc3c(=O)c4c([nH]c3c1)CCC4)C2

>  <score_type>  (27) 
oracle

>  <origin>  (27) 
adg

>  <m_score__min__energy>  (27) 
-10.279999999999999

>  <m_primary>  (27) 
energy

$$$$
27:0
     RDKit          3D

 57 59  0  0  0  0  0  0  0  0999 V2000
   61.9077   34.4756   45.5032 H   0  0  0  0  0  0  0  0  0  0  0  0
   62.0630   33.8380   46.3860 C   0  0  0  0  0  0  0  0  0  0  0  0
   60.9630   33.3690   47.1130 C   0  0  0  0  0  0  0  0  0  0  0  0
   59.9432   33.6366   46.7994 H   0  0  0  0  0  0  0  0  0  0  0  0
   61.1580   32.5610   48.2370 C   0  0  0  0  0  0  0  0  0  0  0  0
   60.2904   32.1940   48.8049 H   0  0  0  0  0  0  0  0  0  0  0  0
   62.4570   32.2160   48.6440 C   0  0  0  0  0  0  0  0  0  0  0  0
   62.6690   31.3220   49.8430 C   0  0  0  0  0  0  0  0  0  0  0  0
   63.4084   31.7942   50.5065 H   0  0  0  0  0  0  0  0  0  0  0  0
   63.0168   30.3472   49.4705 H   0  0  0  0  0  0  0  0  0  0  0  0
   61.3740   31.0760   50.6450 C   0  0  1  0  0  0  0  0  0  0  0  0
   60.5475   31.5840   50.1266 H   0  0  0  0  0  0  0  0  0  0  0  0
   61.0310   29.6080   50.6950 C   0  0  0  0  0  0  0  0  0  0  0  0
   60.7530   29.0530   51.7920 O   0  0  0  0  0  0  0  0  0  0  0  0
   61.1430   28.8300   49.4970 N   0  0  0  0  0  0  0  0  0  0  0  0
   60.0750   28.5010   48.5980 C   0  0  0  0  0  0  0  0  0  0  0  0
   59.8220   27.1520   48.3190 C   0  0  0  0  0  0  0  0  0  0  0  0
   60.4326   26.3715   48.7965 H   0  0  0  0  0  0  0  0  0  0  0  0
   58.7990   26.7910   47.4380 C   0  0  0  0  0  0  0  0  0  0  0  0
   58.5965   25.7283   47.2390 H   0  0  0  0  0  0  0  0  0  0  0  0
   58.0300   27.7790   46.8070 C   0  0  0  0  0  0  0  0  0  0  0  0
   56.7810   27.3360   45.6460 S   0  0  0  0  0  0  0  0  0  0  0  0
   55.8610   26.3270   46.2750 O   0  0  0  0  0  0  0  0  0  0  0  0
   57.3940   26.7230   44.4180 O   0  0  0  0  0  0  0  0  0  0  0  0
   55.8690   28.7410   45.2010 N   0  0  0  0  0  0  0  0  0  0  0  0
   56.3700   29.7140   44.5050 C   0  0  0  0  0  0  0  0  0  0  0  0
   56.8950   30.8330   45.0500 N   0  0  0  0  0  0  0  0  0  0  0  0
   57.3310   31.7010   44.0980 C   0  0  0  0  0  0  0  0  0  0  0  0
   57.8990   33.0380   44.4740 C   0  0  0  0  0  0  0  0  0  0  0  0
   57.4798   33.8089   43.8106 H   0  0  0  0  0  0  0  0  0  0  0  0
   58.9934   33.0017   44.3692 H   0  0  0  0  0  0  0  0  0  0  0  0
   57.5530   33.3780   45.9200 C   0  0  0  0  0  0  0  0  0  0  0  0
   58.1711   32.7706   46.5975 H   0  0  0  0  0  0  0  0  0  0  0  0
   57.7487   34.4449   46.1027 H   0  0  0  0  0  0  0  0  0  0  0  0
   56.4897   33.1637   46.1027 H   0  0  0  0  0  0  0  0  0  0  0  0
   57.1240   31.2690   42.7840 C   0  0  0  0  0  0  0  0  0  0  0  0
   57.5050   31.9930   41.5330 C   0  0  0  0  0  0  0  0  0  0  0  0
   58.0027   32.9387   41.7938 H   0  0  0  0  0  0  0  0  0  0  0  0
   58.1912   31.3683   40.9423 H   0  0  0  0  0  0  0  0  0  0  0  0
   56.6015   32.2048   40.9423 H   0  0  0  0  0  0  0  0  0  0  0  0
   56.4110   29.7410   42.8280 S   0  0  0  0  0  0  0  0  0  0  0  0
   58.3010   29.1300   47.0580 C   0  0  0  0  0  0  0  0  0  0  0  0
   57.7110   29.9097   46.5541 H   0  0  0  0  0  0  0  0  0  0  0  0
   59.3190   29.4920   47.9470 C   0  0  0  0  0  0  0  0  0  0  0  0
   59.5286   30.5550   48.1372 H   0  0  0  0  0  0  0  0  0  0  0  0
   61.4830   31.6520   51.9920 N   0  0  0  0  0  0  0  0  0  0  0  0
   61.4780   31.0160   52.8240 H   0  0  0  0  0  0  0  0  0  0  0  0
   61.8370   33.0240   52.2100 C   0  0  0  0  0  0  0  0  0  0  0  0
   61.9440   33.8220   51.2380 O   0  0  0  0  0  0  0  0  0  0  0  0
   62.1090   33.5100   53.5980 C   0  0  0  0  0  0  0  0  0  0  0  0
   61.7056   32.7892   54.3245 H   0  0  0  0  0  0  0  0  0  0  0  0
   63.1945   33.6105   53.7452 H   0  0  0  0  0  0  0  0  0  0  0  0
   61.6270   34.4877   53.7452 H   0  0  0  0  0  0  0  0  0  0  0  0
   63.5580   32.6860   47.9050 C   0  0  0  0  0  0  0  0  0  0  0  0
   64.5792   32.4155   48.2114 H   0  0  0  0  0  0  0  0  0  0  0  0
   63.3590   33.4960   46.7820 C   0  0  0  0  0  0  0  0  0  0  0  0
   64.2234   33.8642   46.2100 H   0  0  0  0  0  0  0  0  0  0  0  0
  1  2  1  0
  2  3  2  0
  3  4  1  0
  3  5  1  0
  5  6  1  0
  5  7  2  0
  7  8  1  0
  8  9  1  0
  8 10  1  0
  8 11  1  0
 11 12  1  6
 11 13  1  0
 13 14  2  0
 13 15  1  0
 15 16  1  0
 16 17  2  0
 17 18  1  0
 17 19  1  0
 19 20  1  0
 19 21  2  0
 21 22  1  0
 22 23  2  0
 22 24  2  0
 22 25  1  0
 25 26  2  0
 26 27  1  0
 27 28  1  0
 28 29  1  0
 29 30  1  0
 29 31  1  0
 29 32  1  0
 32 33  1  0
 32 34  1  0
 32 35  1  0
 28 36  2  0
 36 37  1  0
 37 38  1  0
 37 39  1  0
 37 40  1  0
 36 41  1  0
 21 42  1  0
 42 43  1  0
 42 44  2  0
 44 45  1  0
 11 46  1  0
 46 47  1  0
 46 48  1  0
 48 49  2  0
 48 50  1  0
 50 51  1  0
 50 52  1  0
 50 53  1  0
  7 54  1  0
 54 55  1  0
 54 56  2  0
 56 57  1  0
 56  2  1  0
 44 16  1  0
 41 26  1  0
M  CHG  2  15  -1  27  -1
M  END
>  <UniqueID>  (28) 
26

>  <SMILES>  (28) 
CCc1[n-]/c(=N\S(=O)(=O)c2ccc([N-]C(=O)[C@H](Cc3ccccc3)NC(C)=O)cc2)sc1C

>  <Energy>  (28) 
83.76414842053235

>  <Genealogy>  (28) 
CCc1[n-]c(=NS(=O)(=O)c2ccc([N-]C(=O)C(Cc3ccccc3)NC(C)=O)cc2)sc1C (protonated)
CCc1[n-]c(=NS(=O)(=O)c2ccc([N-]C(=O)[C@H](Cc3ccccc3)NC(C)=O)cc2)sc1C (chirality)
CCc1[n-]/c(=N\S(=O)(=O)c2ccc([N-]C(=O)[C@H](Cc3ccccc3)NC(C)=O)cc2)sc1C (cis-trans isomerization)
CCc1[n-]/c(=N\S(=O)(=O)c2ccc([N-]C(=O)[C@H](Cc3ccccc3)NC(C)=O)cc2)sc1C (3D coordinates assigned)
CCc1[n-]/c(=N\S(=O)(=O)c2ccc([N-]C(=O)[C@H](Cc3ccccc3)NC(C)=O)cc2)sc1C (optimized conformer: 83.76414842053235 kcal/mol)

>  <smiles>  (28) 
CCc1[nH]c(=NS(=O)(=O)c2ccc(NC(=O)C(Cc3ccccc3)NC(C)=O)cc2)sc1C

>  <score_type>  (28) 
oracle

>  <origin>  (28) 
adg

>  <m_score__min__energy>  (28) 
-12.300000000000001

>  <m_primary>  (28) 
energy

$$$$
28:0
     RDKit          3D

 71 75  0  0  0  0  0  0  0  0999 V2000
   61.1120   26.4630   49.9260 O   0  0  0  0  0  0  0  0  0  0  0  0
   60.5690   27.4880   49.4320 C   0  0  0  0  0  0  0  0  0  0  0  0
   60.1460   28.6170   50.3280 C   0  0  0  0  0  0  0  0  0  0  0  0
   58.8140   29.6170   49.5730 S   0  0  0  0  0  0  0  0  0  0  0  0
   58.3160   30.4160   51.1020 C   0  0  0  0  0  0  0  0  0  0  0  0
   59.1280   31.3360   51.6860 N   0  0  0  0  0  0  0  0  0  0  0  0
   58.7530   31.9690   52.8270 C   0  0  0  0  0  0  0  0  0  0  0  0
   57.5110   31.6920   53.4010 C   0  0  0  0  0  0  0  0  0  0  0  0
   56.6810   30.7540   52.7850 C   0  0  0  0  0  0  0  0  0  0  0  0
   55.4410   30.4550   53.3690 O   0  0  0  0  0  0  0  0  0  0  0  0
   54.2340   30.2410   52.6890 C   0  0  0  0  0  0  0  0  0  0  0  0
   53.3470   29.2000   53.0250 C   0  0  0  0  0  0  0  0  0  0  0  0
   52.1490   29.0370   52.3210 C   0  0  0  0  0  0  0  0  0  0  0  0
   51.8390   29.8970   51.2600 C   0  0  0  0  0  0  0  0  0  0  0  0
   52.7300   30.9110   50.8980 C   0  0  0  0  0  0  0  0  0  0  0  0
   53.9240   31.0780   51.6060 C   0  0  0  0  0  0  0  0  0  0  0  0
   57.1060   30.1270   51.6550 N   0  0  0  0  0  0  0  0  0  0  0  0
   60.2990   27.5500   48.0240 N   0  0  0  0  0  0  0  0  0  0  0  0
   60.7730   26.5110   47.1130 C   0  0  0  0  0  0  0  0  0  0  0  0
   59.8090   26.3010   45.9330 C   0  0  0  0  0  0  0  0  0  0  0  0
   58.5940   24.9490   46.1940 S   0  0  0  0  0  0  0  0  0  0  0  0
   57.1010   25.9930   46.2870 C   0  0  0  0  0  0  0  0  0  0  0  0
   57.4460   27.4330   46.1090 C   0  0  0  0  0  0  0  0  0  0  0  0
   57.8710   28.2480   47.1030 N   0  0  0  0  0  0  0  0  0  0  0  0
   58.2100   29.4660   46.6820 N   0  0  0  0  0  0  0  0  0  0  0  0
   58.0840   29.6160   45.3460 C   0  0  0  0  0  0  0  0  0  0  0  0
   58.3050   30.7500   44.7490 N   0  0  0  0  0  0  0  0  0  0  0  0
   57.5940   31.9770   44.9830 C   0  0  0  0  0  0  0  0  0  0  0  0
   56.3390   31.9720   44.8590 O   0  0  0  0  0  0  0  0  0  0  0  0
   58.2780   33.2130   45.4460 C   0  0  0  0  0  0  0  0  0  0  0  0
   58.6090   34.1910   44.4880 C   0  0  0  0  0  0  0  0  0  0  0  0
   59.2800   35.3550   44.8620 C   0  0  0  0  0  0  0  0  0  0  0  0
   59.6430   35.5570   46.1900 C   0  0  0  0  0  0  0  0  0  0  0  0
   59.3210   34.6050   47.1560 C   0  0  0  0  0  0  0  0  0  0  0  0
   58.6210   33.4350   46.8080 C   0  0  0  0  0  0  0  0  0  0  0  0
   58.2290   32.4750   47.9130 C   0  0  0  0  0  0  0  0  0  0  0  0
   59.2680   32.3480   48.8870 O   0  0  0  0  0  0  0  0  0  0  0  0
   60.6430   32.2820   48.6090 C   0  0  0  0  0  0  0  0  0  0  0  0
   61.1840   31.3950   47.6570 C   0  0  0  0  0  0  0  0  0  0  0  0
   62.5500   31.4320   47.3600 C   0  0  0  0  0  0  0  0  0  0  0  0
   63.3910   32.3290   48.0240 C   0  0  0  0  0  0  0  0  0  0  0  0
   62.8700   33.1840   48.9960 C   0  0  0  0  0  0  0  0  0  0  0  0
   61.5020   33.1590   49.2910 C   0  0  0  0  0  0  0  0  0  0  0  0
   57.5300   28.2000   44.6200 S   0  0  0  0  0  0  0  0  0  0  0  0
   59.7835   28.2005   51.2793 H   0  0  0  0  0  0  0  0  0  0  0  0
   61.0158   29.2707   50.4899 H   0  0  0  0  0  0  0  0  0  0  0  0
   59.4270   32.6993   53.2986 H   0  0  0  0  0  0  0  0  0  0  0  0
   57.1925   32.2033   54.3214 H   0  0  0  0  0  0  0  0  0  0  0  0
   53.5974   28.5113   53.8454 H   0  0  0  0  0  0  0  0  0  0  0  0
   51.4511   28.2340   52.6006 H   0  0  0  0  0  0  0  0  0  0  0  0
   50.8936   29.7743   50.7112 H   0  0  0  0  0  0  0  0  0  0  0  0
   52.4919   31.5777   50.0561 H   0  0  0  0  0  0  0  0  0  0  0  0
   54.6262   31.8720   51.3117 H   0  0  0  0  0  0  0  0  0  0  0  0
   59.7670   28.3710   47.6500 H   0  0  0  0  0  0  0  0  0  0  0  0
   61.7577   26.8044   46.7202 H   0  0  0  0  0  0  0  0  0  0  0  0
   60.8358   25.5673   47.6746 H   0  0  0  0  0  0  0  0  0  0  0  0
   59.2551   27.2369   45.7678 H   0  0  0  0  0  0  0  0  0  0  0  0
   60.4234   26.0144   45.0667 H   0  0  0  0  0  0  0  0  0  0  0  0
   56.4000   25.6902   45.4952 H   0  0  0  0  0  0  0  0  0  0  0  0
   56.6418   25.8617   47.2779 H   0  0  0  0  0  0  0  0  0  0  0  0
   58.3355   34.0351   43.4340 H   0  0  0  0  0  0  0  0  0  0  0  0
   59.5229   36.1154   44.1052 H   0  0  0  0  0  0  0  0  0  0  0  0
   60.1851   36.4697   46.4781 H   0  0  0  0  0  0  0  0  0  0  0  0
   59.6175   34.7703   48.2023 H   0  0  0  0  0  0  0  0  0  0  0  0
   57.3198   32.8492   48.4063 H   0  0  0  0  0  0  0  0  0  0  0  0
   58.0515   31.4860   47.4654 H   0  0  0  0  0  0  0  0  0  0  0  0
   60.5306   30.6722   47.1465 H   0  0  0  0  0  0  0  0  0  0  0  0
   62.9641   30.7523   46.6007 H   0  0  0  0  0  0  0  0  0  0  0  0
   64.4632   32.3611   47.7806 H   0  0  0  0  0  0  0  0  0  0  0  0
   63.5349   33.8782   49.5308 H   0  0  0  0  0  0  0  0  0  0  0  0
   61.0970   33.8308   50.0622 H   0  0  0  0  0  0  0  0  0  0  0  0
  1  2  2  0
  2  3  1  0
  3  4  1  0
  4  5  1  0
  5  6  2  0
  6  7  1  0
  7  8  2  0
  8  9  1  0
  9 10  1  0
 10 11  1  0
 11 12  2  0
 12 13  1  0
 13 14  2  0
 14 15  1  0
 15 16  2  0
  9 17  2  0
  2 18  1  0
 18 19  1  0
 19 20  1  0
 20 21  1  0
 21 22  1  0
 22 23  1  0
 23 24  2  0
 24 25  1  0
 25 26  1  0
 26 27  2  3
 27 28  1  0
 28 29  2  0
 28 30  1  0
 30 31  2  0
 31 32  1  0
 32 33  2  0
 33 34  1  0
 34 35  2  0
 35 36  1  0
 36 37  1  0
 37 38  1  0
 38 39  2  0
 39 40  1  0
 40 41  2  0
 41 42  1  0
 42 43  2  0
 26 44  1  0
 17  5  1  0
 44 23  1  0
 16 11  1  0
 35 30  1  0
 43 38  1  0
  3 45  1  0
  3 46  1  0
  7 47  1  0
  8 48  1  0
 12 49  1  0
 13 50  1  0
 14 51  1  0
 15 52  1  0
 16 53  1  0
 18 54  1  0
 19 55  1  0
 19 56  1  0
 20 57  1  0
 20 58  1  0
 22 59  1  0
 22 60  1  0
 31 61  1  0
 32 62  1  0
 33 63  1  0
 34 64  1  0
 36 65  1  0
 36 66  1  0
 39 67  1  0
 40 68  1  0
 41 69  1  0
 42 70  1  0
 43 71  1  0
M  CHG  1  25  -1
M  END
>  <UniqueID>  (29) 
27

>  <SMILES>  (29) 
O=C(CSc1nccc(Oc2ccccc2)n1)NCCSCc1n[n-]c(=NC(=O)c2ccccc2COc2ccccc2)s1

>  <Energy>  (29) 
104.47257626503249

>  <Genealogy>  (29) 
O=C(CSc1nccc(Oc2ccccc2)n1)NCCSCc1n[n-]c(=NC(=O)c2ccccc2COc2ccccc2)s1 (protonated)
O=C(CSc1nccc(Oc2ccccc2)n1)NCCSCc1n[n-]c(=NC(=O)c2ccccc2COc2ccccc2)s1 (3D coordinates assigned)
O=C(CSc1nccc(Oc2ccccc2)n1)NCCSCc1n[n-]c(=NC(=O)c2ccccc2COc2ccccc2)s1 (optimized conformer: 104.47257626503249 kcal/mol)

>  <smiles>  (29) 
O=C(CSc1nccc(Oc2ccccc2)n1)NCCSCc1n[nH]c(=NC(=O)c2ccccc2COc2ccccc2)s1

>  <score_type>  (29) 
oracle

>  <origin>  (29) 
adg

>  <m_score__min__energy>  (29) 
-10.27

>  <m_primary>  (29) 
energy

$$$$
29:0
     RDKit          3D

 58 61  0  0  1  0  0  0  0  0999 V2000
   55.8850   25.9290   46.4310 O   0  0  0  0  0  0  0  0  0  0  0  0
   57.0510   26.6750   46.3420 C   0  0  0  0  0  0  0  0  0  0  0  0
   57.4910   27.0260   45.0680 C   0  0  0  0  0  0  0  0  0  0  0  0
   58.6570   27.7740   44.9350 C   0  0  0  0  0  0  0  0  0  0  0  0
   59.3930   28.1810   46.0320 C   0  0  0  0  0  0  0  0  0  0  0  0
   60.6430   28.9850   45.8840 C   0  0  0  0  0  0  0  0  0  0  0  0
   60.3050   30.3830   45.5780 N   0  0  0  0  0  0  0  0  0  0  0  0
   59.6880   31.0610   46.4760 C   0  0  0  0  0  0  0  0  0  0  0  0
   60.1450   31.1610   47.7380 N   0  0  0  0  0  0  0  0  0  0  0  0
   59.4170   31.8990   48.5950 C   0  0  0  0  0  0  0  0  0  0  0  0
   59.8230   32.0190   49.8150 N   0  0  0  0  0  0  0  0  0  0  0  0
   60.6120   31.0420   50.4940 C   0  0  0  0  0  0  0  0  0  0  0  0
   62.0580   31.2980   50.1610 C   0  0  0  0  0  0  0  0  0  0  0  0
   62.2280   32.2330   49.0630 N   0  0  0  0  0  0  0  0  0  0  0  0
   62.8080   33.4300   49.5960 C   0  0  0  0  0  0  0  0  0  0  0  0
   64.2740   33.4360   49.2080 C   0  0  0  0  0  0  0  0  0  0  0  0
   64.3360   33.5980   47.8300 O   0  0  0  0  0  0  0  0  0  0  0  0
   63.7140   32.5790   47.1380 C   0  0  0  0  0  0  0  0  0  0  0  0
   63.0180   31.5920   48.0430 C   0  0  0  0  0  0  0  0  0  0  0  0
   58.2760   32.5240   48.2490 N   0  0  0  0  0  0  0  0  0  0  0  0
   57.7770   32.4550   47.0010 C   0  0  0  0  0  0  0  0  0  0  0  0
   58.5180   31.6930   46.0910 C   0  0  0  0  0  0  0  0  0  0  0  0
   58.0170   31.5890   44.7250 C   0  0  0  0  0  0  0  0  0  0  0  0
   58.4100   32.4440   43.7200 C   0  0  0  0  0  0  0  0  0  0  0  0
   57.8610   32.2430   42.4540 C   0  0  0  0  0  0  0  0  0  0  0  0
   56.9540   31.2210   42.2090 C   0  0  0  0  0  0  0  0  0  0  0  0
   56.5640   30.3660   43.2250 C   0  0  0  0  0  0  0  0  0  0  0  0
   57.1050   30.5580   44.4890 C   0  0  0  0  0  0  0  0  0  0  0  0
   56.7070   29.6920   45.5080 O   0  0  0  0  0  0  0  0  0  0  0  0
   58.9340   27.8200   47.2980 C   0  0  0  0  0  0  0  0  0  0  0  0
   57.7670   27.0690   47.4500 C   0  0  0  0  0  0  0  0  0  0  0  0
   55.0060   26.3320   46.7390 H   0  0  0  0  0  0  0  0  0  0  0  0
   56.9239   26.7158   44.1780 H   0  0  0  0  0  0  0  0  0  0  0  0
   59.0029   28.0493   43.9278 H   0  0  0  0  0  0  0  0  0  0  0  0
   61.2157   28.9451   46.8223 H   0  0  0  0  0  0  0  0  0  0  0  0
   61.2458   28.5698   45.0628 H   0  0  0  0  0  0  0  0  0  0  0  0
   61.0140   30.6970   48.0400 H   0  0  0  0  0  0  0  0  0  0  0  0
   60.4583   31.1272   51.5799 H   0  0  0  0  0  0  0  0  0  0  0  0
   60.3208   30.0293   50.1784 H   0  0  0  0  0  0  0  0  0  0  0  0
   62.5560   31.7084   51.0518 H   0  0  0  0  0  0  0  0  0  0  0  0
   62.4998   30.3398   49.8501 H   0  0  0  0  0  0  0  0  0  0  0  0
   62.3039   34.3120   49.1742 H   0  0  0  0  0  0  0  0  0  0  0  0
   62.6958   33.4620   50.6898 H   0  0  0  0  0  0  0  0  0  0  0  0
   64.7924   34.2672   49.7084 H   0  0  0  0  0  0  0  0  0  0  0  0
   64.7611   32.4978   49.5121 H   0  0  0  0  0  0  0  0  0  0  0  0
   62.9681   33.0197   46.4602 H   0  0  0  0  0  0  0  0  0  0  0  0
   64.4933   32.0299   46.5891 H   0  0  0  0  0  0  0  0  0  0  0  0
   62.3572   30.9597   47.4318 H   0  0  0  0  0  0  0  0  0  0  0  0
   63.7952   30.9999   48.5483 H   0  0  0  0  0  0  0  0  0  0  0  0
   57.7270   33.0920   48.9340 H   0  0  0  0  0  0  0  0  0  0  0  0
   56.8456   32.9653   46.7145 H   0  0  0  0  0  0  0  0  0  0  0  0
   59.1294   33.2545   43.9084 H   0  0  0  0  0  0  0  0  0  0  0  0
   58.1536   32.9102   41.6298 H   0  0  0  0  0  0  0  0  0  0  0  0
   56.5414   31.0895   41.1978 H   0  0  0  0  0  0  0  0  0  0  0  0
   55.8444   29.5558   43.0360 H   0  0  0  0  0  0  0  0  0  0  0  0
   55.8220   29.7560   45.9930 H   0  0  0  0  0  0  0  0  0  0  0  0
   59.4990   28.1311   48.1891 H   0  0  0  0  0  0  0  0  0  0  0  0
   57.4192   26.7918   48.4561 H   0  0  0  0  0  0  0  0  0  0  0  0
  1  2  1  0
  2  3  2  0
  3  4  1  0
  4  5  2  0
  5  6  1  0
  6  7  1  0
  7  8  2  0
  8  9  1  0
  9 10  1  0
 10 11  2  0
 11 12  1  0
 12 13  1  0
 13 14  1  0
 14 15  1  0
 15 16  1  0
 16 17  1  0
 17 18  1  0
 18 19  1  0
 10 20  1  0
 20 21  1  0
 21 22  2  0
 22 23  1  0
 23 24  2  0
 24 25  1  0
 25 26  2  0
 26 27  1  0
 27 28  2  0
 28 29  1  0
  5 30  1  0
 30 31  2  0
 31  2  1  0
 22  8  1  0
 28 23  1  0
 19 14  1  0
  1 32  1  0
  3 33  1  0
  4 34  1  0
  6 35  1  0
  6 36  1  0
  9 37  1  0
 12 38  1  0
 12 39  1  0
 13 40  1  0
 13 41  1  0
 15 42  1  0
 15 43  1  0
 16 44  1  0
 16 45  1  0
 18 46  1  0
 18 47  1  0
 19 48  1  0
 19 49  1  0
 20 50  1  0
 21 51  1  0
 24 52  1  0
 25 53  1  0
 26 54  1  0
 27 55  1  0
 29 56  1  0
 30 57  1  0
 31 58  1  0
M  END
>  <smiles>  (30) 
Oc1ccc(CN=c2[nH]c(=NCCN3CCOCC3)[nH]cc2-c2ccccc2O)cc1

>  <score_type>  (30) 
oracle

>  <origin>  (30) 
adg

>  <m_score__min__energy>  (30) 
-8.1500000000000004

>  <m_primary>  (30) 
energy

$$$$
30:0
     RDKit          3D

 46 48  0  0  0  0  0  0  0  0999 V2000
   56.6910   25.1910   46.2440 C   0  0  0  0  0  0  0  0  0  0  0  0
   56.9700   26.5870   45.7840 C   0  0  0  0  0  0  0  0  0  0  0  0
   58.2770   26.9920   45.4920 C   0  0  0  0  0  0  0  0  0  0  0  0
   58.5090   28.2960   45.0530 C   0  0  0  0  0  0  0  0  0  0  0  0
   57.4430   29.1920   44.9090 C   0  0  0  0  0  0  0  0  0  0  0  0
   57.7010   30.5710   44.4430 C   0  0  0  0  0  0  0  0  0  0  0  0
   57.7000   30.8060   43.2020 O   0  0  0  0  0  0  0  0  0  0  0  0
   57.9680   31.6400   45.3710 N   0  0  0  0  0  0  0  0  0  0  0  0
   57.5250   33.0070   45.0810 C   0  0  0  0  0  0  0  0  0  0  0  0
   58.7120   33.9770   45.1960 C   0  0  0  0  0  0  0  0  0  0  0  0
   59.5940   33.7320   46.3750 N   0  0  0  0  0  0  0  0  0  0  0  0
   59.9320   34.9800   47.1020 C   0  0  0  0  0  0  0  0  0  0  0  0
   60.4840   34.6740   48.5040 C   0  0  0  0  0  0  0  0  0  0  0  0
   61.8770   34.0990   48.4690 C   0  0  0  0  0  0  0  0  0  0  0  0
   62.6220   33.9780   49.6510 C   0  0  0  0  0  0  0  0  0  0  0  0
   63.9170   33.4540   49.5970 C   0  0  0  0  0  0  0  0  0  0  0  0
   64.4490   33.0600   48.4080 N   0  0  0  0  0  0  0  0  0  0  0  0
   63.7450   33.1640   47.2490 C   0  0  0  0  0  0  0  0  0  0  0  0
   62.4480   33.6830   47.2570 C   0  0  0  0  0  0  0  0  0  0  0  0
   59.0800   32.7030   47.3050 C   0  0  0  0  0  0  0  0  0  0  0  0
   58.7980   31.3960   46.5570 C   0  0  0  0  0  0  0  0  0  0  0  0
   56.1380   28.7320   45.1740 C   0  0  0  0  0  0  0  0  0  0  0  0
   55.1420   29.4810   44.9970 O   0  0  0  0  0  0  0  0  0  0  0  0
   55.9410   27.4570   45.6060 N   0  0  0  0  0  0  0  0  0  0  0  0
   56.6851   25.1616   47.3436 H   0  0  0  0  0  0  0  0  0  0  0  0
   55.7106   24.8685   45.8633 H   0  0  0  0  0  0  0  0  0  0  0  0
   57.4721   24.5165   45.8633 H   0  0  0  0  0  0  0  0  0  0  0  0
   59.1146   26.2884   45.6075 H   0  0  0  0  0  0  0  0  0  0  0  0
   59.5335   28.6212   44.8192 H   0  0  0  0  0  0  0  0  0  0  0  0
   57.1169   33.0494   44.0604 H   0  0  0  0  0  0  0  0  0  0  0  0
   56.7487   33.2973   45.8042 H   0  0  0  0  0  0  0  0  0  0  0  0
   59.3215   33.8850   44.2849 H   0  0  0  0  0  0  0  0  0  0  0  0
   58.2854   34.9826   45.3255 H   0  0  0  0  0  0  0  0  0  0  0  0
   60.6912   35.5339   46.5304 H   0  0  0  0  0  0  0  0  0  0  0  0
   59.0158   35.5788   47.2112 H   0  0  0  0  0  0  0  0  0  0  0  0
   60.5032   35.6073   49.0859 H   0  0  0  0  0  0  0  0  0  0  0  0
   59.8258   33.9215   48.9628 H   0  0  0  0  0  0  0  0  0  0  0  0
   62.1909   34.2928   50.6128 H   0  0  0  0  0  0  0  0  0  0  0  0
   64.5085   33.3598   50.5196 H   0  0  0  0  0  0  0  0  0  0  0  0
   65.4190   32.6710   48.3840 H   0  0  0  0  0  0  0  0  0  0  0  0
   64.1987   32.8381   46.3014 H   0  0  0  0  0  0  0  0  0  0  0  0
   61.8784   33.7649   46.3195 H   0  0  0  0  0  0  0  0  0  0  0  0
   59.8290   32.5170   48.0889 H   0  0  0  0  0  0  0  0  0  0  0  0
   58.1432   33.0652   47.7536 H   0  0  0  0  0  0  0  0  0  0  0  0
   59.7521   30.9477   46.2429 H   0  0  0  0  0  0  0  0  0  0  0  0
   58.2570   30.7151   47.2306 H   0  0  0  0  0  0  0  0  0  0  0  0
  1  2  1  0
  2  3  2  0
  3  4  1  0
  4  5  2  0
  5  6  1  0
  6  7  2  0
  6  8  1  0
  8  9  1  0
  9 10  1  0
 10 11  1  0
 11 12  1  0
 12 13  1  0
 13 14  1  0
 14 15  2  0
 15 16  1  0
 16 17  2  0
 17 18  1  0
 18 19  2  0
 11 20  1  0
 20 21  1  0
  5 22  1  0
 22 23  2  0
 22 24  1  0
 24  2  1  0
 21  8  1  0
 19 14  1  0
  1 25  1  0
  1 26  1  0
  1 27  1  0
  3 28  1  0
  4 29  1  0
  9 30  1  0
  9 31  1  0
 10 32  1  0
 10 33  1  0
 12 34  1  0
 12 35  1  0
 13 36  1  0
 13 37  1  0
 15 38  1  0
 16 39  1  0
 17 40  1  0
 18 41  1  0
 19 42  1  0
 20 43  1  0
 20 44  1  0
 21 45  1  0
 21 46  1  0
M  CHG  2  17   1  24  -1
M  END
>  <UniqueID>  (31) 
28

>  <SMILES>  (31) 
Cc1ccc(C(=O)N2CCN(CCc3cc[nH+]cc3)CC2)c(=O)[n-]1

>  <Energy>  (31) 
60.099604853352254

>  <Genealogy>  (31) 
Cc1ccc(C(=O)N2CCN(CCc3cc[nH+]cc3)CC2)c(=O)[n-]1 (protonated)
Cc1ccc(C(=O)N2CCN(CCc3cc[nH+]cc3)CC2)c(=O)[n-]1 (3D coordinates assigned)
Cc1ccc(C(=O)N2CCN(CCc3cc[nH+]cc3)CC2)c(=O)[n-]1 (nonaromatic ring conformer: 60.099604853352254 kcal/mol)

>  <smiles>  (31) 
Cc1ccc(C(=O)N2CCN(CCc3ccncc3)CC2)c(=O)[nH]1

>  <score_type>  (31) 
oracle

>  <origin>  (31) 
adg

>  <m_score__min__energy>  (31) 
-9.4299999999999997

>  <m_primary>  (31) 
energy

$$$$
31:0
     RDKit          3D

 37 38  0  0  0  0  0  0  0  0999 V2000
   54.8580   23.0340   47.1380 H   0  0  0  0  0  0  0  0  0  0  0  0
   54.8610   23.9930   46.8120 O   0  0  0  0  0  0  0  0  0  0  0  0
   56.0430   24.7160   46.6450 C   0  0  0  0  0  0  0  0  0  0  0  0
   57.2700   24.0910   46.8980 C   0  0  0  0  0  0  0  0  0  0  0  0
   57.3060   22.7660   47.3150 O   0  0  0  0  0  0  0  0  0  0  0  0
   58.4660   24.7990   46.7350 C   0  0  0  0  0  0  0  0  0  0  0  0
   59.4254   24.3070   46.9529 H   0  0  0  0  0  0  0  0  0  0  0  0
   58.4510   26.1280   46.2970 C   0  0  0  0  0  0  0  0  0  0  0  0
   59.7000   26.8200   46.1590 N   0  0  0  0  0  0  0  0  0  0  0  0
   59.8890   28.2410   46.0930 C   0  0  0  0  0  0  0  0  0  0  0  0
   60.1420   28.9020   47.1350 O   0  0  0  0  0  0  0  0  0  0  0  0
   57.4060   30.7550   45.2620 C   0  0  0  0  0  0  0  0  0  0  0  0
   58.4193   28.0472   43.4488 H   0  0  0  0  0  0  0  0  0  0  0  0
   57.5580   29.9790   44.1680 C   0  0  0  0  0  0  0  0  0  0  0  0
   56.7662   30.3727   46.0710 H   0  0  0  0  0  0  0  0  0  0  0  0
   58.5930   28.9120   44.1060 C   0  0  0  0  0  0  0  0  0  0  0  0
   59.7280   28.9600   44.8170 C   0  0  0  0  0  0  0  0  0  0  0  0
   60.5689   29.5571   44.4346 H   0  0  0  0  0  0  0  0  0  0  0  0
   58.0340   32.0800   45.4560 C   0  0  0  0  0  0  0  0  0  0  0  0
   58.8530   32.2930   46.5770 C   0  0  0  0  0  0  0  0  0  0  0  0
   59.0407   31.4695   47.2817 H   0  0  0  0  0  0  0  0  0  0  0  0
   59.4310   33.5460   46.8020 C   0  0  0  0  0  0  0  0  0  0  0  0
   60.0843   33.7008   47.6734 H   0  0  0  0  0  0  0  0  0  0  0  0
   59.1800   34.6030   45.9210 C   0  0  0  0  0  0  0  0  0  0  0  0
   59.7590   35.8460   46.1440 O   0  0  0  0  0  0  0  0  0  0  0  0
   58.3420   34.4090   44.8190 C   0  0  0  0  0  0  0  0  0  0  0  0
   58.1400   35.2415   44.1290 H   0  0  0  0  0  0  0  0  0  0  0  0
   57.7600   33.1570   44.5930 C   0  0  0  0  0  0  0  0  0  0  0  0
   57.0849   33.0139   43.7364 H   0  0  0  0  0  0  0  0  0  0  0  0
   56.6260   30.1850   42.9990 C   0  0  0  0  0  0  0  0  0  0  0  0
   55.6152   30.4084   43.3709 H   0  0  0  0  0  0  0  0  0  0  0  0
   56.9856   31.0253   42.3870 H   0  0  0  0  0  0  0  0  0  0  0  0
   56.5979   29.2714   42.3870 H   0  0  0  0  0  0  0  0  0  0  0  0
   57.2170   26.7630   46.0660 C   0  0  0  0  0  0  0  0  0  0  0  0
   57.1936   27.8170   45.7521 H   0  0  0  0  0  0  0  0  0  0  0  0
   56.0190   26.0590   46.2340 C   0  0  0  0  0  0  0  0  0  0  0  0
   54.8090   26.7010   45.9940 O   0  0  0  0  0  0  0  0  0  0  0  0
  1  2  1  0
  2  3  1  0
  3  4  2  0
  4  5  1  0
  4  6  1  0
  6  7  1  0
  6  8  2  0
  8  9  1  0
  9 10  1  0
 10 11  2  0
 10 12  1  0
 12 13  1  0
 12 14  2  0
 14 15  1  0
 14 16  1  0
 16 17  2  3
 17 18  1  0
 17 19  1  0
 19 20  2  0
 20 21  1  0
 20 22  1  0
 22 23  1  0
 22 24  2  0
 24 25  1  0
 24 26  1  0
 26 27  1  0
 26 28  2  0
 28 29  1  0
 16 30  1  0
 30 31  1  0
 30 32  1  0
 30 33  1  0
  8 34  1  0
 34 35  1  0
 34 36  2  0
 36 37  1  0
 36  3  1  0
 28 19  1  0
M  CHG  4   5  -1   9  -1  25  -1  37  -1
M  END
>  <UniqueID>  (32) 
29

>  <SMILES>  (32) 
CC(=Cc1ccc([O-])cc1)/C=C/C(=O)[N-]c1cc([O-])c(O)c([O-])c1

>  <Energy>  (32) 
47.29709535868546

>  <Genealogy>  (32) 
CC(C=CC(=O)[N-]c1cc([O-])c(O)c([O-])c1)=Cc1ccc([O-])cc1 (protonated)
CC(=Cc1ccc([O-])cc1)/C=C/C(=O)[N-]c1cc([O-])c(O)c([O-])c1 (cis-trans isomerization)
CC(=Cc1ccc([O-])cc1)/C=C/C(=O)[N-]c1cc([O-])c(O)c([O-])c1 (3D coordinates assigned)
CC(=Cc1ccc([O-])cc1)/C=C/C(=O)[N-]c1cc([O-])c(O)c([O-])c1 (optimized conformer: 47.29709535868546 kcal/mol)

>  <smiles>  (32) 
CC(C=CC(=O)Nc1cc(O)c(O)c(O)c1)=Cc1ccc(O)cc1

>  <score_type>  (32) 
oracle

>  <origin>  (32) 
adg

>  <m_score__min__energy>  (32) 
-14.789999999999999

>  <m_primary>  (32) 
energy

$$$$
32:0
     RDKit          3D

 67 71  0  0  0  0  0  0  0  0999 V2000
   63.0410   30.6640   52.5890 C   0  0  0  0  0  0  0  0  0  0  0  0
   61.6530   30.1730   52.6050 N   0  0  0  0  0  0  0  0  0  0  0  0
   60.6620   30.9090   51.9940 C   0  0  0  0  0  0  0  0  0  0  0  0
   60.9320   31.9970   51.4170 O   0  0  0  0  0  0  0  0  0  0  0  0
   59.3500   30.4310   52.0460 C   0  0  0  0  0  0  0  0  0  0  0  0
   59.0790   29.2910   52.7240 C   0  0  0  0  0  0  0  0  0  0  0  0
   57.7600   29.0440   52.7310 N   0  0  0  0  0  0  0  0  0  0  0  0
   57.2430   30.0770   52.0210 C   0  0  0  0  0  0  0  0  0  0  0  0
   55.9500   30.1700   51.8630 N   0  0  0  0  0  0  0  0  0  0  0  0
   54.8550   29.6030   52.6370 C   0  0  0  0  0  0  0  0  0  0  0  0
   53.6440   30.4750   52.4750 C   0  0  0  0  0  0  0  0  0  0  0  0
   52.7840   30.7040   53.5620 C   0  0  0  0  0  0  0  0  0  0  0  0
   51.6370   31.4870   53.4010 C   0  0  0  0  0  0  0  0  0  0  0  0
   51.3330   32.0380   52.1530 C   0  0  0  0  0  0  0  0  0  0  0  0
   50.1930   32.8160   51.9950 O   0  0  0  0  0  0  0  0  0  0  0  0
   52.1750   31.8020   51.0620 C   0  0  0  0  0  0  0  0  0  0  0  0
   53.3230   31.0190   51.2190 C   0  0  0  0  0  0  0  0  0  0  0  0
   58.1990   30.9540   51.5610 N   0  0  0  0  0  0  0  0  0  0  0  0
   58.0800   32.2210   50.8210 C   0  0  0  0  0  0  0  0  0  0  0  0
   58.6030   32.0680   49.4250 C   0  0  0  0  0  0  0  0  0  0  0  0
   58.7800   30.9170   48.9430 O   0  0  0  0  0  0  0  0  0  0  0  0
   58.9700   33.2350   48.6820 N   0  0  0  0  0  0  0  0  0  0  0  0
   58.7720   33.4420   47.2760 C   0  0  0  0  0  0  0  0  0  0  0  0
   59.1600   34.6340   46.6380 C   0  0  0  0  0  0  0  0  0  0  0  0
   58.9710   34.7860   45.2610 C   0  0  0  0  0  0  0  0  0  0  0  0
   58.4100   33.7510   44.5100 C   0  0  0  0  0  0  0  0  0  0  0  0
   58.0420   32.5500   45.1320 C   0  0  0  0  0  0  0  0  0  0  0  0
   57.3420   31.2360   44.1830 S   0  0  0  0  0  0  0  0  0  0  0  0
   55.9260   31.0020   44.6310 O   0  0  0  0  0  0  0  0  0  0  0  0
   57.3090   31.6380   42.7340 O   0  0  0  0  0  0  0  0  0  0  0  0
   58.2530   29.7560   44.3490 N   0  0  0  0  0  0  0  0  0  0  0  0
   58.4740   29.4410   45.7670 C   0  0  0  0  0  0  0  0  0  0  0  0
   59.2940   28.1390   45.8950 C   0  0  0  0  0  0  0  0  0  0  0  0
   59.4860   27.5010   44.6440 O   0  0  0  0  0  0  0  0  0  0  0  0
   58.2370   27.2990   44.0120 C   0  0  0  0  0  0  0  0  0  0  0  0
   57.5540   28.6430   43.6850 C   0  0  0  0  0  0  0  0  0  0  0  0
   58.2340   32.3980   46.5120 C   0  0  0  0  0  0  0  0  0  0  0  0
   60.0410   28.5590   53.3480 N   0  0  0  0  0  0  0  0  0  0  0  0
   59.6890   27.3590   54.1170 C   0  0  0  0  0  0  0  0  0  0  0  0
   61.3370   29.0220   53.3040 C   0  0  0  0  0  0  0  0  0  0  0  0
   62.2440   28.3930   53.9190 O   0  0  0  0  0  0  0  0  0  0  0  0
   63.3973   30.7900   53.6220 H   0  0  0  0  0  0  0  0  0  0  0  0
   63.6809   29.9377   52.0665 H   0  0  0  0  0  0  0  0  0  0  0  0
   63.0818   31.6311   52.0665 H   0  0  0  0  0  0  0  0  0  0  0  0
   54.6316   28.5892   52.2732 H   0  0  0  0  0  0  0  0  0  0  0  0
   55.1371   29.5496   53.6989 H   0  0  0  0  0  0  0  0  0  0  0  0
   53.0141   30.2653   54.5441 H   0  0  0  0  0  0  0  0  0  0  0  0
   50.9724   31.6698   54.2583 H   0  0  0  0  0  0  0  0  0  0  0  0
   51.9341   32.2328   50.0789 H   0  0  0  0  0  0  0  0  0  0  0  0
   53.9777   30.8279   50.3560 H   0  0  0  0  0  0  0  0  0  0  0  0
   57.0215   32.5176   50.7800 H   0  0  0  0  0  0  0  0  0  0  0  0
   58.6712   32.9907   51.3387 H   0  0  0  0  0  0  0  0  0  0  0  0
   59.6128   35.4479   47.2233 H   0  0  0  0  0  0  0  0  0  0  0  0
   59.2652   35.7241   44.7676 H   0  0  0  0  0  0  0  0  0  0  0  0
   58.2566   33.8784   43.4282 H   0  0  0  0  0  0  0  0  0  0  0  0
   59.0239   30.2665   46.2425 H   0  0  0  0  0  0  0  0  0  0  0  0
   57.5018   29.3067   46.2637 H   0  0  0  0  0  0  0  0  0  0  0  0
   60.2777   28.3808   46.3238 H   0  0  0  0  0  0  0  0  0  0  0  0
   58.7329   27.4493   46.5428 H   0  0  0  0  0  0  0  0  0  0  0  0
   58.3937   26.7394   43.0780 H   0  0  0  0  0  0  0  0  0  0  0  0
   57.5868   26.7352   44.6972 H   0  0  0  0  0  0  0  0  0  0  0  0
   57.5728   28.8024   42.5968 H   0  0  0  0  0  0  0  0  0  0  0  0
   56.5160   28.6101   44.0475 H   0  0  0  0  0  0  0  0  0  0  0  0
   57.9599   31.4508   46.9995 H   0  0  0  0  0  0  0  0  0  0  0  0
   59.7540   27.5806   55.1925 H   0  0  0  0  0  0  0  0  0  0  0  0
   58.6628   27.0515   53.8674 H   0  0  0  0  0  0  0  0  0  0  0  0
   60.3865   26.5458   53.8674 H   0  0  0  0  0  0  0  0  0  0  0  0
  1  2  1  0
  2  3  1  0
  3  4  2  0
  3  5  1  0
  5  6  2  0
  6  7  1  0
  7  8  1  0
  8  9  2  3
  9 10  1  0
 10 11  1  0
 11 12  2  0
 12 13  1  0
 13 14  2  0
 14 15  1  0
 14 16  1  0
 16 17  2  0
  8 18  1  0
 18 19  1  0
 19 20  1  0
 20 21  2  0
 20 22  1  0
 22 23  1  0
 23 24  2  0
 24 25  1  0
 25 26  2  0
 26 27  1  0
 27 28  1  0
 28 29  2  0
 28 30  2  0
 28 31  1  0
 31 32  1  0
 32 33  1  0
 33 34  1  0
 34 35  1  0
 35 36  1  0
 27 37  2  0
  6 38  1  0
 38 39  1  0
 38 40  1  0
 40 41  2  0
 40  2  1  0
 18  5  1  0
 37 23  1  0
 17 11  1  0
 36 31  1  0
  1 42  1  0
  1 43  1  0
  1 44  1  0
 10 45  1  0
 10 46  1  0
 12 47  1  0
 13 48  1  0
 16 49  1  0
 17 50  1  0
 19 51  1  0
 19 52  1  0
 24 53  1  0
 25 54  1  0
 26 55  1  0
 32 56  1  0
 32 57  1  0
 33 58  1  0
 33 59  1  0
 35 60  1  0
 35 61  1  0
 36 62  1  0
 36 63  1  0
 37 64  1  0
 39 65  1  0
 39 66  1  0
 39 67  1  0
M  CHG  3   7  -1  15  -1  22  -1
M  END
>  <UniqueID>  (33) 
30

>  <SMILES>  (33) 
Cn1c(=O)c2c([n-]c(=NCc3ccc([O-])cc3)n2CC(=O)[N-]c2cccc(S(=O)(=O)N3CCOCC3)c2)n(C)c1=O

>  <Energy>  (33) 
134.76265713409506

>  <Genealogy>  (33) 
Cn1c(=O)c2c([n-]c(=NCc3ccc([O-])cc3)n2CC(=O)[N-]c2cccc(S(=O)(=O)N3CCOCC3)c2)n(C)c1=O (protonated)
Cn1c(=O)c2c([n-]c(=NCc3ccc([O-])cc3)n2CC(=O)[N-]c2cccc(S(=O)(=O)N3CCOCC3)c2)n(C)c1=O (3D coordinates assigned)
Cn1c(=O)c2c([n-]c(=NCc3ccc([O-])cc3)n2CC(=O)[N-]c2cccc(S(=O)(=O)N3CCOCC3)c2)n(C)c1=O (nonaromatic ring conformer: 134.76265713409506 kcal/mol)

>  <smiles>  (33) 
Cn1c(=O)c2c([nH]c(=NCc3ccc(O)cc3)n2CC(=O)Nc2cccc(S(=O)(=O)N3CCOCC3)c2)n(C)c1=O

>  <score_type>  (33) 
oracle

>  <origin>  (33) 
adg

>  <m_score__min__energy>  (33) 
-16.300000000000001

>  <m_primary>  (33) 
energy

$$$$
33:0
     RDKit          3D

 19 19  0  0  0  0  0  0  0  0999 V2000
   60.6600   28.5720   44.8670 C   0  0  0  0  0  0  0  0  0  0  0  0
   59.3180   28.6360   44.8840 C   0  0  0  0  0  0  0  0  0  0  0  0
   58.6940   29.7230   44.3420 N   0  0  0  0  0  0  0  0  0  0  0  0
   57.3350   29.8470   44.3290 C   0  0  0  0  0  0  0  0  0  0  0  0
   56.6950   31.0640   43.7210 C   0  0  0  0  0  0  0  0  0  0  0  0
   56.5340   28.8370   44.8830 C   0  0  0  0  0  0  0  0  0  0  0  0
   55.1460   28.9750   44.8640 O   0  0  0  0  0  0  0  0  0  0  0  0
   57.1360   27.6980   45.4520 C   0  0  0  0  0  0  0  0  0  0  0  0
   56.3770   26.7260   45.9860 C   0  0  0  0  0  0  0  0  0  0  0  0
   58.5460   27.5980   45.4520 C   0  0  0  0  0  0  0  0  0  0  0  0
   59.1130   26.5870   45.9550 O   0  0  0  0  0  0  0  0  0  0  0  0
   61.1747   27.7018   45.3004 H   0  0  0  0  0  0  0  0  0  0  0  0
   61.2440   29.3899   44.4197 H   0  0  0  0  0  0  0  0  0  0  0  0
   59.2690   30.4910   43.9230 H   0  0  0  0  0  0  0  0  0  0  0  0
   56.3437   31.7320   44.5212 H   0  0  0  0  0  0  0  0  0  0  0  0
   57.4314   31.5932   43.0985 H   0  0  0  0  0  0  0  0  0  0  0  0
   55.8416   30.7572   43.0985 H   0  0  0  0  0  0  0  0  0  0  0  0
   56.8519   25.8383   46.4293 H   0  0  0  0  0  0  0  0  0  0  0  0
   55.2809   26.8181   45.9798 H   0  0  0  0  0  0  0  0  0  0  0  0
  1  2  2  0
  2  3  1  0
  3  4  1  0
  4  5  1  0
  4  6  2  0
  6  7  1  0
  6  8  1  0
  8  9  2  0
  8 10  1  0
 10 11  2  0
 10  2  1  0
  1 12  1  0
  1 13  1  0
  3 14  1  0
  5 15  1  0
  5 16  1  0
  5 17  1  0
  9 18  1  0
  9 19  1  0
M  CHG  1   7  -1
M  END
>  <UniqueID>  (34) 
31

>  <SMILES>  (34) 
C=c1[nH]c(C)c([O-])c(=C)c1=O

>  <Energy>  (34) 
23.369205197942694

>  <Genealogy>  (34) 
C=c1[nH]c(C)c([O-])c(=C)c1=O (protonated)
C=c1[nH]c(C)c([O-])c(=C)c1=O (3D coordinates assigned)
C=c1[nH]c(C)c([O-])c(=C)c1=O (optimized conformer: 23.369205197942694 kcal/mol)

>  <smiles>  (34) 
C=c1[nH]c(C)c(O)c(=C)c1=O

>  <score_type>  (34) 
oracle

>  <origin>  (34) 
adg

>  <m_score__min__energy>  (34) 
-8.8499999999999996

>  <m_primary>  (34) 
energy

$$$$
34:0
     RDKit          3D

 60 63  0  0  0  0  0  0  0  0999 V2000
   52.0840   22.9760   44.9260 C   0  0  0  0  0  0  0  0  0  0  0  0
   53.4150   23.2700   45.4450 N   0  0  0  0  0  0  0  0  0  0  0  0
   53.8770   24.4960   45.6510 N   0  0  0  0  0  0  0  0  0  0  0  0
   55.1250   24.3950   46.1610 C   0  0  0  0  0  0  0  0  0  0  0  0
   55.9200   25.5750   46.5350 C   0  0  0  0  0  0  0  0  0  0  0  0
   56.8160   25.4970   47.4130 O   0  0  0  0  0  0  0  0  0  0  0  0
   55.6040   26.8370   45.9340 N   0  0  0  0  0  0  0  0  0  0  0  0
   56.5510   27.8260   45.5060 C   0  0  0  0  0  0  0  0  0  0  0  0
   57.9050   27.6170   45.7900 C   0  0  0  0  0  0  0  0  0  0  0  0
   58.8710   28.5540   45.3960 C   0  0  0  0  0  0  0  0  0  0  0  0
   60.5710   28.2690   45.7710 S   0  0  0  0  0  0  0  0  0  0  0  0
   60.7420   26.8110   46.1000 O   0  0  0  0  0  0  0  0  0  0  0  0
   61.4160   28.5860   44.5680 O   0  0  0  0  0  0  0  0  0  0  0  0
   61.0690   29.2300   47.1500 N   0  0  0  0  0  0  0  0  0  0  0  0
   60.6670   28.6100   48.4260 C   0  0  0  0  0  0  0  0  0  0  0  0
   59.1480   28.7510   48.6940 C   0  0  0  0  0  0  0  0  0  0  0  0
   58.5320   29.7900   47.9450 O   0  0  0  0  0  0  0  0  0  0  0  0
   59.3710   30.9240   47.9020 C   0  0  0  0  0  0  0  0  0  0  0  0
   60.6060   30.6330   47.0340 C   0  0  0  0  0  0  0  0  0  0  0  0
   58.4710   29.7250   44.7400 C   0  0  0  0  0  0  0  0  0  0  0  0
   57.1180   29.9590   44.4830 C   0  0  0  0  0  0  0  0  0  0  0  0
   56.1530   29.0230   44.8720 C   0  0  0  0  0  0  0  0  0  0  0  0
   54.8100   29.3100   44.6610 O   0  0  0  0  0  0  0  0  0  0  0  0
   55.4610   23.0430   46.3000 C   0  0  0  0  0  0  0  0  0  0  0  0
   56.7400   22.4080   46.7670 C   0  0  0  0  0  0  0  0  0  0  0  0
   56.4740   21.5290   47.9470 C   0  0  0  0  0  0  0  0  0  0  0  0
   55.3830   20.8950   48.0160 O   0  0  0  0  0  0  0  0  0  0  0  0
   57.4780   21.3850   48.9680 N   0  0  0  0  0  0  0  0  0  0  0  0
   57.4710   22.0520   50.2760 C   0  0  0  0  0  0  0  0  0  0  0  0
   56.1510   21.8310   51.0220 C   0  0  0  0  0  0  0  0  0  0  0  0
   56.5320   21.5580   52.4680 C   0  0  0  0  0  0  0  0  0  0  0  0
   57.9230   20.9480   52.4160 C   0  0  0  0  0  0  0  0  0  0  0  0
   58.5990   21.5510   51.1910 C   0  0  0  0  0  0  0  0  0  0  0  0
   54.3450   22.3790   45.8290 C   0  0  0  0  0  0  0  0  0  0  0  0
   54.2120   21.1300   45.7360 O   0  0  0  0  0  0  0  0  0  0  0  0
   51.3891   22.8225   45.7647 H   0  0  0  0  0  0  0  0  0  0  0  0
   51.7358   23.8189   44.3109 H   0  0  0  0  0  0  0  0  0  0  0  0
   52.1233   22.0649   44.3109 H   0  0  0  0  0  0  0  0  0  0  0  0
   58.2148   26.7087   46.3276 H   0  0  0  0  0  0  0  0  0  0  0  0
   60.9234   27.5407   48.3962 H   0  0  0  0  0  0  0  0  0  0  0  0
   61.2016   29.1283   49.2357 H   0  0  0  0  0  0  0  0  0  0  0  0
   58.6596   27.7998   48.4360 H   0  0  0  0  0  0  0  0  0  0  0  0
   59.0305   29.0067   49.7574 H   0  0  0  0  0  0  0  0  0  0  0  0
   58.8161   31.7714   47.4732 H   0  0  0  0  0  0  0  0  0  0  0  0
   59.6977   31.1698   48.9232 H   0  0  0  0  0  0  0  0  0  0  0  0
   60.3525   30.8341   45.9827 H   0  0  0  0  0  0  0  0  0  0  0  0
   61.4208   31.2820   47.3874 H   0  0  0  0  0  0  0  0  0  0  0  0
   59.2244   30.4625   44.4263 H   0  0  0  0  0  0  0  0  0  0  0  0
   56.8096   30.8833   43.9725 H   0  0  0  0  0  0  0  0  0  0  0  0
   57.1658   21.8044   45.9519 H   0  0  0  0  0  0  0  0  0  0  0  0
   57.4496   23.1968   47.0573 H   0  0  0  0  0  0  0  0  0  0  0  0
   57.6126   23.1202   50.0547 H   0  0  0  0  0  0  0  0  0  0  0  0
   55.5187   22.7287   50.9556 H   0  0  0  0  0  0  0  0  0  0  0  0
   55.5773   20.9975   50.5906 H   0  0  0  0  0  0  0  0  0  0  0  0
   56.5447   22.4944   53.0451 H   0  0  0  0  0  0  0  0  0  0  0  0
   55.8116   20.8873   52.9590 H   0  0  0  0  0  0  0  0  0  0  0  0
   58.4858   21.2009   53.3267 H   0  0  0  0  0  0  0  0  0  0  0  0
   57.8802   19.8506   52.3540 H   0  0  0  0  0  0  0  0  0  0  0  0
   59.2481   22.3880   51.4880 H   0  0  0  0  0  0  0  0  0  0  0  0
   59.2293   20.8098   50.6779 H   0  0  0  0  0  0  0  0  0  0  0  0
  1  2  1  0
  2  3  1  0
  3  4  1  0
  4  5  1  0
  5  6  2  0
  5  7  1  0
  7  8  1  0
  8  9  2  0
  9 10  1  0
 10 11  1  0
 11 12  2  0
 11 13  2  0
 11 14  1  0
 14 15  1  0
 15 16  1  0
 16 17  1  0
 17 18  1  0
 18 19  1  0
 10 20  2  0
 20 21  1  0
 21 22  2  0
 22 23  1  0
  4 24  2  0
 24 25  1  0
 25 26  1  0
 26 27  2  0
 26 28  1  0
 28 29  1  0
 29 30  1  0
 30 31  1  0
 31 32  1  0
 32 33  1  0
 24 34  1  0
 34 35  2  0
 34  2  1  0
 22  8  1  0
 33 29  1  0
 19 14  1  0
  1 36  1  0
  1 37  1  0
  1 38  1  0
  9 39  1  0
 15 40  1  0
 15 41  1  0
 16 42  1  0
 16 43  1  0
 18 44  1  0
 18 45  1  0
 19 46  1  0
 19 47  1  0
 20 48  1  0
 21 49  1  0
 25 50  1  0
 25 51  1  0
 29 52  1  0
 30 53  1  0
 30 54  1  0
 31 55  1  0
 31 56  1  0
 32 57  1  0
 32 58  1  0
 33 59  1  0
 33 60  1  0
M  CHG  4   3  -1   7  -1  23  -1  28  -1
M  END
>  <UniqueID>  (35) 
32

>  <SMILES>  (35) 
Cn1[n-]c(C(=O)[N-]c2cc(S(=O)(=O)N3CCOCC3)ccc2[O-])c(CC(=O)[N-]C2CCCC2)c1=O

>  <Energy>  (35) 
108.46216044426045

>  <Genealogy>  (35) 
Cn1[n-]c(C(=O)[N-]c2cc(S(=O)(=O)N3CCOCC3)ccc2[O-])c(CC(=O)[N-]C2CCCC2)c1=O (protonated)
Cn1[n-]c(C(=O)[N-]c2cc(S(=O)(=O)N3CCOCC3)ccc2[O-])c(CC(=O)[N-]C2CCCC2)c1=O (3D coordinates assigned)
Cn1[n-]c(C(=O)[N-]c2cc(S(=O)(=O)N3CCOCC3)ccc2[O-])c(CC(=O)[N-]C2CCCC2)c1=O (nonaromatic ring conformer: 108.46216044426045 kcal/mol)

>  <smiles>  (35) 
Cn1[nH]c(C(=O)Nc2cc(S(=O)(=O)N3CCOCC3)ccc2O)c(CC(=O)NC2CCCC2)c1=O

>  <score_type>  (35) 
oracle

>  <origin>  (35) 
adg

>  <m_score__min__energy>  (35) 
-16.32

>  <m_primary>  (35) 
energy

$$$$
35:0
     RDKit          3D

 53 56  0  0  0  0  0  0  0  0999 V2000
   55.0280   21.4940   46.3050 C   0  0  0  0  0  0  0  0  0  0  0  0
   54.7530   22.5310   45.3280 N   0  0  0  0  0  0  0  0  0  0  0  0
   53.4250   23.0360   45.2320 C   0  0  0  0  0  0  0  0  0  0  0  0
   53.0000   24.2390   44.7970 N   0  0  0  0  0  0  0  0  0  0  0  0
   51.6420   24.2850   44.8820 C   0  0  0  0  0  0  0  0  0  0  0  0
   51.2490   23.0960   45.3710 N   0  0  0  0  0  0  0  0  0  0  0  0
   52.3200   22.3370   45.5850 N   0  0  0  0  0  0  0  0  0  0  0  0
   56.0400   23.1020   44.3330 S   0  0  0  0  0  0  0  0  0  0  0  0
   57.2050   22.1480   44.4640 O   0  0  0  0  0  0  0  0  0  0  0  0
   55.6400   23.0840   42.8870 O   0  0  0  0  0  0  0  0  0  0  0  0
   56.6020   24.6740   44.8520 C   0  0  0  0  0  0  0  0  0  0  0  0
   57.5490   25.3920   44.1480 C   0  0  0  0  0  0  0  0  0  0  0  0
   57.9100   26.6200   44.6620 C   0  0  0  0  0  0  0  0  0  0  0  0
   57.3560   27.1170   45.8240 C   0  0  0  0  0  0  0  0  0  0  0  0
   57.6940   28.3440   46.3690 O   0  0  0  0  0  0  0  0  0  0  0  0
   57.6040   29.5000   45.6010 C   0  0  0  0  0  0  0  0  0  0  0  0
   56.7250   29.5700   44.5480 C   0  0  0  0  0  0  0  0  0  0  0  0
   56.6630   30.7290   43.8100 C   0  0  0  0  0  0  0  0  0  0  0  0
   57.4710   31.8010   44.1250 C   0  0  0  0  0  0  0  0  0  0  0  0
   58.3740   31.7660   45.1870 C   0  0  0  0  0  0  0  0  0  0  0  0
   59.1990   32.8770   45.4990 N   0  0  0  0  0  0  0  0  0  0  0  0
   59.1830   33.9010   44.4690 C   0  0  0  0  0  0  0  0  0  0  0  0
   59.2450   35.3020   45.0600 C   0  0  0  0  0  0  0  0  0  0  0  0
   60.0170   35.2940   46.3540 C   0  0  0  0  0  0  0  0  0  0  0  0
   59.2150   34.9990   47.4490 O   0  0  0  0  0  0  0  0  0  0  0  0
   59.3010   33.6650   47.8250 C   0  0  0  0  0  0  0  0  0  0  0  0
   59.8820   32.7680   46.7640 C   0  0  0  0  0  0  0  0  0  0  0  0
   58.4040   30.5810   45.9020 C   0  0  0  0  0  0  0  0  0  0  0  0
   56.4340   26.3890   46.4850 N   0  0  0  0  0  0  0  0  0  0  0  0
   56.0560   25.1840   46.0140 C   0  0  0  0  0  0  0  0  0  0  0  0
   55.1950   24.5340   46.6560 O   0  0  0  0  0  0  0  0  0  0  0  0
   54.9185   21.9069   47.3187 H   0  0  0  0  0  0  0  0  0  0  0  0
   54.3188   20.6643   46.1685 H   0  0  0  0  0  0  0  0  0  0  0  0
   56.0551   21.1247   46.1685 H   0  0  0  0  0  0  0  0  0  0  0  0
   50.9936   25.1293   44.6049 H   0  0  0  0  0  0  0  0  0  0  0  0
   50.2690   22.7820   45.5650 H   0  0  0  0  0  0  0  0  0  0  0  0
   57.9945   25.0026   43.2207 H   0  0  0  0  0  0  0  0  0  0  0  0
   58.6619   27.2211   44.1298 H   0  0  0  0  0  0  0  0  0  0  0  0
   56.0813   28.7134   44.2990 H   0  0  0  0  0  0  0  0  0  0  0  0
   55.9645   30.8012   42.9633 H   0  0  0  0  0  0  0  0  0  0  0  0
   57.4008   32.7154   43.5176 H   0  0  0  0  0  0  0  0  0  0  0  0
   60.0507   33.7549   43.8089 H   0  0  0  0  0  0  0  0  0  0  0  0
   58.2397   33.8081   43.9108 H   0  0  0  0  0  0  0  0  0  0  0  0
   59.7422   35.9747   44.3457 H   0  0  0  0  0  0  0  0  0  0  0  0
   58.2207   35.6506   45.2584 H   0  0  0  0  0  0  0  0  0  0  0  0
   60.8129   34.5378   46.2855 H   0  0  0  0  0  0  0  0  0  0  0  0
   60.4299   36.3025   46.5036 H   0  0  0  0  0  0  0  0  0  0  0  0
   59.9358   33.5979   48.7208 H   0  0  0  0  0  0  0  0  0  0  0  0
   58.2734   33.3182   48.0085 H   0  0  0  0  0  0  0  0  0  0  0  0
   60.9382   33.0378   46.6166 H   0  0  0  0  0  0  0  0  0  0  0  0
   59.7681   31.7305   47.1114 H   0  0  0  0  0  0  0  0  0  0  0  0
   59.0992   30.4983   46.7504 H   0  0  0  0  0  0  0  0  0  0  0  0
   55.9900   26.7310   47.3710 H   0  0  0  0  0  0  0  0  0  0  0  0
  1  2  1  0
  2  3  1  0
  3  4  1  0
  4  5  2  0
  5  6  1  0
  6  7  1  0
  2  8  1  0
  8  9  2  0
  8 10  2  0
  8 11  1  0
 11 12  2  0
 12 13  1  0
 13 14  2  0
 14 15  1  0
 15 16  1  0
 16 17  2  0
 17 18  1  0
 18 19  2  0
 19 20  1  0
 20 21  1  0
 21 22  1  0
 22 23  1  0
 23 24  1  0
 24 25  1  0
 25 26  1  0
 26 27  1  0
 20 28  2  0
 14 29  1  0
 29 30  1  0
 30 31  2  0
  7  3  2  0
 30 11  1  0
 28 16  1  0
 27 21  1  0
  1 32  1  0
  1 33  1  0
  1 34  1  0
  5 35  1  0
  6 36  1  0
 12 37  1  0
 13 38  1  0
 17 39  1  0
 18 40  1  0
 19 41  1  0
 22 42  1  0
 22 43  1  0
 23 44  1  0
 23 45  1  0
 24 46  1  0
 24 47  1  0
 26 48  1  0
 26 49  1  0
 27 50  1  0
 27 51  1  0
 28 52  1  0
 29 53  1  0
M  END
>  <smiles>  (36) 
CN(c1nc[nH]n1)S(=O)(=O)c1ccc(Oc2cccc(N3CCCOCC3)c2)[nH]c1=O

>  <score_type>  (36) 
oracle

>  <origin>  (36) 
adg

>  <m_score__min__energy>  (36) 
-6.3700000000000001

>  <m_primary>  (36) 
energy

$$$$
36:0
     RDKit          3D

 49 52  0  0  0  0  0  0  0  0999 V2000
   57.3970   28.8120   43.4510 C   0  0  0  0  0  0  0  0  0  0  0  0
   57.0970   29.8070   44.5240 C   0  0  0  0  0  0  0  0  0  0  0  0
   55.9040   30.0000   44.8740 O   0  0  0  0  0  0  0  0  0  0  0  0
   58.1480   30.5690   45.1340 N   0  0  0  0  0  0  0  0  0  0  0  0
   59.2310   30.0880   45.8010 C   0  0  0  0  0  0  0  0  0  0  0  0
   59.6350   28.7500   45.8470 O   0  0  0  0  0  0  0  0  0  0  0  0
   59.1210   27.6610   47.0620 S   0  0  0  0  0  0  0  0  0  0  0  0
   60.3230   27.0600   47.7370 O   0  0  0  0  0  0  0  0  0  0  0  0
   58.3140   28.4130   48.0820 O   0  0  0  0  0  0  0  0  0  0  0  0
   58.1080   26.4020   46.3710 C   0  0  0  0  0  0  0  0  0  0  0  0
   56.7120   26.5320   46.3630 C   0  0  0  0  0  0  0  0  0  0  0  0
   55.9170   25.5230   45.8140 C   0  0  0  0  0  0  0  0  0  0  0  0
   56.5110   24.3840   45.2630 C   0  0  0  0  0  0  0  0  0  0  0  0
   57.9040   24.2550   45.2600 C   0  0  0  0  0  0  0  0  0  0  0  0
   58.7010   25.2630   45.8090 C   0  0  0  0  0  0  0  0  0  0  0  0
   59.9280   31.1190   46.4150 C   0  0  0  0  0  0  0  0  0  0  0  0
   61.4390   30.9810   47.3690 S   0  0  0  0  0  0  0  0  0  0  0  0
   60.5530   30.5500   48.8660 C   0  0  0  0  0  0  0  0  0  0  0  0
   59.4190   31.2800   49.2400 C   0  0  0  0  0  0  0  0  0  0  0  0
   58.7110   30.9340   50.3950 C   0  0  0  0  0  0  0  0  0  0  0  0
   59.1460   29.8660   51.1970 C   0  0  0  0  0  0  0  0  0  0  0  0
   58.3630   29.4680   52.4140 C   0  0  0  0  0  0  0  0  0  0  0  0
   60.2790   29.1320   50.8140 C   0  0  0  0  0  0  0  0  0  0  0  0
   60.9850   29.4800   49.6580 C   0  0  0  0  0  0  0  0  0  0  0  0
   59.2480   32.2730   46.0960 C   0  0  0  0  0  0  0  0  0  0  0  0
   59.4900   33.6000   46.4500 C   0  0  0  0  0  0  0  0  0  0  0  0
   58.5860   34.5750   45.9990 C   0  0  0  0  0  0  0  0  0  0  0  0
   57.4660   34.2080   45.2230 C   0  0  0  0  0  0  0  0  0  0  0  0
   57.2440   32.8610   44.8820 C   0  0  0  0  0  0  0  0  0  0  0  0
   58.1700   31.9080   45.3220 C   0  0  0  0  0  0  0  0  0  0  0  0
   57.6857   27.8545   43.9091 H   0  0  0  0  0  0  0  0  0  0  0  0
   56.5032   28.6651   42.8269 H   0  0  0  0  0  0  0  0  0  0  0  0
   58.2230   29.1837   42.8269 H   0  0  0  0  0  0  0  0  0  0  0  0
   56.2419   27.4302   46.7898 H   0  0  0  0  0  0  0  0  0  0  0  0
   54.8217   25.6250   45.8153 H   0  0  0  0  0  0  0  0  0  0  0  0
   55.8837   23.5898   44.8321 H   0  0  0  0  0  0  0  0  0  0  0  0
   58.3722   23.3596   44.8252 H   0  0  0  0  0  0  0  0  0  0  0  0
   59.7964   25.1624   45.8001 H   0  0  0  0  0  0  0  0  0  0  0  0
   59.0841   32.1276   48.6241 H   0  0  0  0  0  0  0  0  0  0  0  0
   57.8107   31.4998   50.6764 H   0  0  0  0  0  0  0  0  0  0  0  0
   58.9214   29.7518   53.3183 H   0  0  0  0  0  0  0  0  0  0  0  0
   57.3899   29.9809   52.4079 H   0  0  0  0  0  0  0  0  0  0  0  0
   58.2038   28.3796   52.4079 H   0  0  0  0  0  0  0  0  0  0  0  0
   60.6129   28.2803   51.4249 H   0  0  0  0  0  0  0  0  0  0  0  0
   61.8818   28.9115   49.3706 H   0  0  0  0  0  0  0  0  0  0  0  0
   60.3613   33.8741   47.0630 H   0  0  0  0  0  0  0  0  0  0  0  0
   58.7520   35.6325   46.2524 H   0  0  0  0  0  0  0  0  0  0  0  0
   56.7612   34.9807   44.8821 H   0  0  0  0  0  0  0  0  0  0  0  0
   56.3676   32.5653   44.2866 H   0  0  0  0  0  0  0  0  0  0  0  0
  1  2  1  0
  2  3  2  0
  2  4  1  0
  4  5  1  0
  5  6  1  0
  6  7  1  0
  7  8  2  0
  7  9  2  0
  7 10  1  0
 10 11  2  0
 11 12  1  0
 12 13  2  0
 13 14  1  0
 14 15  2  0
  5 16  2  0
 16 17  1  0
 17 18  1  0
 18 19  2  0
 19 20  1  0
 20 21  2  0
 21 22  1  0
 21 23  1  0
 23 24  2  0
 16 25  1  0
 25 26  2  0
 26 27  1  0
 27 28  2  0
 28 29  1  0
 29 30  2  0
 30  4  1  0
 15 10  1  0
 24 18  1  0
 30 25  1  0
  1 31  1  0
  1 32  1  0
  1 33  1  0
 11 34  1  0
 12 35  1  0
 13 36  1  0
 14 37  1  0
 15 38  1  0
 19 39  1  0
 20 40  1  0
 22 41  1  0
 22 42  1  0
 22 43  1  0
 23 44  1  0
 24 45  1  0
 26 46  1  0
 27 47  1  0
 28 48  1  0
 29 49  1  0
M  END
>  <UniqueID>  (37) 
33

>  <SMILES>  (37) 
CC(=O)n1c(OS(=O)(=O)c2ccccc2)c(Sc2ccc(C)cc2)c2ccccc21

>  <Energy>  (37) 
90.0172415940787

>  <Genealogy>  (37) 
CC(=O)n1c(OS(=O)(=O)c2ccccc2)c(Sc2ccc(C)cc2)c2ccccc21 (3D coordinates assigned)
CC(=O)n1c(OS(=O)(=O)c2ccccc2)c(Sc2ccc(C)cc2)c2ccccc21 (optimized conformer: 90.0172415940787 kcal/mol)

>  <smiles>  (37) 
CC(=O)n1c(OS(=O)(=O)c2ccccc2)c(Sc2ccc(C)cc2)c2ccccc21

>  <score_type>  (37) 
oracle

>  <origin>  (37) 
adg

>  <m_score__min__energy>  (37) 
-9.5899999999999999

>  <m_primary>  (37) 
energy

$$$$
37:0
     RDKit          3D

 61 64  0  0  0  0  0  0  0  0999 V2000
   56.8100   34.2920   44.9910 C   0  0  0  0  0  0  0  0  0  0  0  0
   57.8260   33.4980   45.7460 C   0  0  0  0  0  0  0  0  0  0  0  0
   58.1280   33.7400   47.0380 N   0  0  0  0  0  0  0  0  0  0  0  0
   58.9670   32.8010   47.4530 N   0  0  0  0  0  0  0  0  0  0  0  0
   59.3880   32.6980   48.8590 C   0  0  1  0  0  0  0  0  0  0  0  0
   58.9430   31.3840   49.4710 C   0  0  0  0  0  0  0  0  0  0  0  0
   57.9200   31.3820   50.2080 O   0  0  0  0  0  0  0  0  0  0  0  0
   59.6080   30.1350   49.1960 N   0  0  0  0  0  0  0  0  0  0  0  0
   61.0550   29.9720   49.3730 C   0  0  0  0  0  0  0  0  0  0  0  0
   61.3740   28.6680   50.1300 C   0  0  0  0  0  0  0  0  0  0  0  0
   60.4020   27.5810   49.8940 N   0  0  0  0  0  0  0  0  0  0  0  0
   59.6630   27.7340   48.6370 C   0  0  0  0  0  0  0  0  0  0  0  0
   58.8110   29.0040   48.7090 C   0  0  0  0  0  0  0  0  0  0  0  0
   60.8630   33.0220   49.0550 C   0  0  0  0  0  0  0  0  0  0  0  0
   61.7270   32.9140   47.9500 C   0  0  0  0  0  0  0  0  0  0  0  0
   63.0920   33.1840   48.0830 C   0  0  0  0  0  0  0  0  0  0  0  0
   63.6130   33.5680   49.3210 C   0  0  0  0  0  0  0  0  0  0  0  0
   64.9370   33.8270   49.4470 F   0  0  0  0  0  0  0  0  0  0  0  0
   62.7680   33.6860   50.4250 C   0  0  0  0  0  0  0  0  0  0  0  0
   61.4020   33.4170   50.2990 C   0  0  0  0  0  0  0  0  0  0  0  0
   59.1890   31.9460   46.4310 C   0  0  0  0  0  0  0  0  0  0  0  0
   59.8920   30.9020   46.5050 O   0  0  0  0  0  0  0  0  0  0  0  0
   58.4800   32.3470   45.3200 C   0  0  0  0  0  0  0  0  0  0  0  0
   58.2410   31.5420   44.0740 C   0  0  0  0  0  0  0  0  0  0  0  0
   58.2700   30.0750   44.4110 C   0  0  0  0  0  0  0  0  0  0  0  0
   59.4910   29.3840   44.4660 C   0  0  0  0  0  0  0  0  0  0  0  0
   59.5280   28.0500   44.8770 C   0  0  0  0  0  0  0  0  0  0  0  0
   58.3500   27.3990   45.2540 C   0  0  0  0  0  0  0  0  0  0  0  0
   57.1220   28.0820   45.2160 C   0  0  0  0  0  0  0  0  0  0  0  0
   55.8940   27.4650   45.6250 N   0  0  0  0  0  0  0  0  0  0  0  0
   55.6560   25.7610   45.8300 S   0  0  0  0  0  0  0  0  0  0  0  0
   56.5650   24.8990   44.5690 C   0  0  0  0  0  0  0  0  0  0  0  0
   56.1550   25.3330   47.1810 O   0  0  0  0  0  0  0  0  0  0  0  0
   54.1970   25.4290   45.6940 O   0  0  0  0  0  0  0  0  0  0  0  0
   57.0890   29.4120   44.7830 C   0  0  0  0  0  0  0  0  0  0  0  0
   56.1478   34.8095   45.7007 H   0  0  0  0  0  0  0  0  0  0  0  0
   57.3202   35.0332   44.3582 H   0  0  0  0  0  0  0  0  0  0  0  0
   56.2141   33.6178   44.3582 H   0  0  0  0  0  0  0  0  0  0  0  0
   58.8658   33.4818   49.4273 H   0  0  0  0  0  0  0  0  0  0  0  0
   61.5374   29.9418   48.3849 H   0  0  0  0  0  0  0  0  0  0  0  0
   61.4346   30.8209   49.9606 H   0  0  0  0  0  0  0  0  0  0  0  0
   62.3674   28.3182   49.8124 H   0  0  0  0  0  0  0  0  0  0  0  0
   61.3305   28.9052   51.2032 H   0  0  0  0  0  0  0  0  0  0  0  0
   60.9190   26.6710   49.8590 H   0  0  0  0  0  0  0  0  0  0  0  0
   60.3722   27.8130   47.7999 H   0  0  0  0  0  0  0  0  0  0  0  0
   59.0136   26.8602   48.4798 H   0  0  0  0  0  0  0  0  0  0  0  0
   58.4266   29.2385   47.7054 H   0  0  0  0  0  0  0  0  0  0  0  0
   57.9775   28.8321   49.4059 H   0  0  0  0  0  0  0  0  0  0  0  0
   61.3242   32.6140   46.9713 H   0  0  0  0  0  0  0  0  0  0  0  0
   63.7570   33.0940   47.2114 H   0  0  0  0  0  0  0  0  0  0  0  0
   63.1784   33.9920   51.3986 H   0  0  0  0  0  0  0  0  0  0  0  0
   60.7429   33.5136   51.1743 H   0  0  0  0  0  0  0  0  0  0  0  0
   57.2589   31.8020   43.6523 H   0  0  0  0  0  0  0  0  0  0  0  0
   59.0270   31.7646   43.3373 H   0  0  0  0  0  0  0  0  0  0  0  0
   60.4229   29.8959   44.1840 H   0  0  0  0  0  0  0  0  0  0  0  0
   60.4862   27.5104   44.9041 H   0  0  0  0  0  0  0  0  0  0  0  0
   58.3840   26.3494   45.5813 H   0  0  0  0  0  0  0  0  0  0  0  0
   57.2864   24.2149   45.0398 H   0  0  0  0  0  0  0  0  0  0  0  0
   55.8676   24.3226   43.9434 H   0  0  0  0  0  0  0  0  0  0  0  0
   57.1036   25.6260   43.9434 H   0  0  0  0  0  0  0  0  0  0  0  0
   56.1276   29.9442   44.7334 H   0  0  0  0  0  0  0  0  0  0  0  0
  1  2  1  0
  2  3  1  0
  3  4  1  0
  4  5  1  0
  5  6  1  0
  6  7  2  0
  6  8  1  0
  8  9  1  0
  9 10  1  0
 10 11  1  0
 11 12  1  0
 12 13  1  0
  5 14  1  0
 14 15  2  0
 15 16  1  0
 16 17  2  0
 17 18  1  0
 17 19  1  0
 19 20  2  0
  4 21  1  0
 21 22  2  0
 21 23  1  0
 23 24  1  0
 24 25  1  0
 25 26  2  0
 26 27  1  0
 27 28  2  0
 28 29  1  0
 29 30  1  0
 30 31  1  0
 31 32  1  0
 31 33  2  0
 31 34  2  0
 29 35  2  0
 23  2  2  0
 35 25  1  0
 13  8  1  0
 20 14  1  0
  1 36  1  0
  1 37  1  0
  1 38  1  0
  5 39  1  1
  9 40  1  0
  9 41  1  0
 10 42  1  0
 10 43  1  0
 11 44  1  0
 12 45  1  0
 12 46  1  0
 13 47  1  0
 13 48  1  0
 15 49  1  0
 16 50  1  0
 19 51  1  0
 20 52  1  0
 24 53  1  0
 24 54  1  0
 26 55  1  0
 27 56  1  0
 28 57  1  0
 32 58  1  0
 32 59  1  0
 32 60  1  0
 35 61  1  0
M  CHG  2   3  -1  30  -1
M  END
>  <UniqueID>  (38) 
34

>  <SMILES>  (38) 
Cc1[n-]n([C@@H](C(=O)N2CCNCC2)c2ccc(F)cc2)c(=O)c1Cc1cccc([N-]S(C)(=O)=O)c1

>  <Energy>  (38) 
99.4549005459186

>  <Genealogy>  (38) 
Cc1[n-]n(C(C(=O)N2CCNCC2)c2ccc(F)cc2)c(=O)c1Cc1cccc([N-]S(C)(=O)=O)c1 (protonated)
Cc1[n-]n([C@@H](C(=O)N2CCNCC2)c2ccc(F)cc2)c(=O)c1Cc1cccc([N-]S(C)(=O)=O)c1 (chirality)
Cc1[n-]n([C@@H](C(=O)N2CCNCC2)c2ccc(F)cc2)c(=O)c1Cc1cccc([N-]S(C)(=O)=O)c1 (3D coordinates assigned)
Cc1[n-]n([C@@H](C(=O)N2CCNCC2)c2ccc(F)cc2)c(=O)c1Cc1cccc([N-]S(C)(=O)=O)c1 (nonaromatic ring conformer: 99.4549005459186 kcal/mol)

>  <smiles>  (38) 
Cc1[nH]n(C(C(=O)N2CCNCC2)c2ccc(F)cc2)c(=O)c1Cc1cccc(NS(C)(=O)=O)c1

>  <score_type>  (38) 
oracle

>  <origin>  (38) 
adg

>  <m_score__min__energy>  (38) 
-12.630000000000001

>  <m_primary>  (38) 
energy

$$$$
38:0
     RDKit          3D

 32 33  0  0  0  0  0  0  0  0999 V2000
   59.6380   34.6640   49.3720 N   0  0  0  0  0  0  0  0  0  0  0  0
   59.3950   34.2310   48.0340 C   0  0  0  0  0  0  0  0  0  0  0  0
   59.4870   35.1320   46.9680 C   0  0  0  0  0  0  0  0  0  0  0  0
   59.2150   34.6690   45.6800 C   0  0  0  0  0  0  0  0  0  0  0  0
   59.2810   35.4540   44.6970 O   0  0  0  0  0  0  0  0  0  0  0  0
   58.8770   33.3680   45.4840 N   0  0  0  0  0  0  0  0  0  0  0  0
   58.8080   32.5010   46.5290 C   0  0  0  0  0  0  0  0  0  0  0  0
   58.3450   30.7940   46.2440 S   0  0  0  0  0  0  0  0  0  0  0  0
   57.7500   31.0520   44.5310 C   0  0  0  0  0  0  0  0  0  0  0  0
   57.2370   29.7530   43.9070 C   0  0  0  0  0  0  0  0  0  0  0  0
   56.4600   28.9320   44.8890 C   0  0  0  0  0  0  0  0  0  0  0  0
   55.2000   28.9790   44.8740 O   0  0  0  0  0  0  0  0  0  0  0  0
   57.1640   28.0930   45.8190 N   0  0  0  0  0  0  0  0  0  0  0  0
   57.2980   26.7990   45.7630 C   0  0  0  0  0  0  0  0  0  0  0  0
   58.5250   26.2270   45.5860 N   0  0  0  0  0  0  0  0  0  0  0  0
   58.6940   24.8800   45.5270 C   0  0  0  0  0  0  0  0  0  0  0  0
   57.5920   24.0320   45.6510 C   0  0  0  0  0  0  0  0  0  0  0  0
   56.3240   24.5850   45.8320 C   0  0  0  0  0  0  0  0  0  0  0  0
   56.1650   25.9720   45.8910 C   0  0  0  0  0  0  0  0  0  0  0  0
   54.8870   26.5000   46.0780 O   0  0  0  0  0  0  0  0  0  0  0  0
   59.0580   32.9360   47.7920 N   0  0  0  0  0  0  0  0  0  0  0  0
   59.3230   35.6090   49.6840 H   0  0  0  0  0  0  0  0  0  0  0  0
   60.1490   34.0550   50.0490 H   0  0  0  0  0  0  0  0  0  0  0  0
   59.7673   36.1815   47.1410 H   0  0  0  0  0  0  0  0  0  0  0  0
   56.9323   31.7877   44.5449 H   0  0  0  0  0  0  0  0  0  0  0  0
   58.5950   31.4121   43.9258 H   0  0  0  0  0  0  0  0  0  0  0  0
   56.5857   30.0001   43.0557 H   0  0  0  0  0  0  0  0  0  0  0  0
   58.1070   29.1635   43.5819 H   0  0  0  0  0  0  0  0  0  0  0  0
   59.6992   24.4577   45.3815 H   0  0  0  0  0  0  0  0  0  0  0  0
   57.7219   22.9406   45.6065 H   0  0  0  0  0  0  0  0  0  0  0  0
   55.4473   23.9276   45.9285 H   0  0  0  0  0  0  0  0  0  0  0  0
   54.7330   27.4680   46.3380 H   0  0  0  0  0  0  0  0  0  0  0  0
  1  2  1  0
  2  3  2  0
  3  4  1  0
  4  5  2  0
  4  6  1  0
  6  7  1  0
  7  8  1  0
  8  9  1  0
  9 10  1  0
 10 11  1  0
 11 12  2  0
 11 13  1  0
 13 14  2  3
 14 15  1  0
 15 16  1  0
 16 17  2  0
 17 18  1  0
 18 19  2  0
 19 20  1  0
  7 21  2  0
 21  2  1  0
 19 14  1  0
  1 22  1  0
  1 23  1  0
  3 24  1  0
  9 25  1  0
  9 26  1  0
 10 27  1  0
 10 28  1  0
 16 29  1  0
 17 30  1  0
 18 31  1  0
 20 32  1  0
M  CHG  2   6  -1  15  -1
M  END
>  <UniqueID>  (39) 
35

>  <SMILES>  (39) 
Nc1cc(=O)[n-]c(SCCC(=O)N=c2[n-]cccc2O)n1

>  <Energy>  (39) 
28.167588847856337

>  <Genealogy>  (39) 
Nc1cc(=O)[n-]c(SCCC(=O)N=c2[n-]cccc2O)n1 (protonated)
Nc1cc(=O)[n-]c(SCCC(=O)N=c2[n-]cccc2O)n1 (3D coordinates assigned)
Nc1cc(=O)[n-]c(SCCC(=O)N=c2[n-]cccc2O)n1 (optimized conformer: 28.167588847856337 kcal/mol)

>  <smiles>  (39) 
Nc1cc(=O)[nH]c(SCCC(=O)N=c2[nH]cccc2O)n1

>  <score_type>  (39) 
oracle

>  <origin>  (39) 
adg

>  <m_score__min__energy>  (39) 
-9.7300000000000004

>  <m_primary>  (39) 
energy

$$$$
39:0
     RDKit          3D

 34 36  0  0  0  0  0  0  0  0999 V2000
   58.9625   28.6431   44.5102 H   0  0  0  0  0  0  0  0  0  0  0  0
   58.3670   28.6460   45.4350 C   0  0  0  0  0  0  0  0  0  0  0  0
   58.3650   29.7040   46.1880 N   0  0  0  0  0  0  0  0  0  0  0  0
   58.1960   31.0630   45.7490 C   0  0  0  0  0  0  0  0  0  0  0  0
   57.8010   31.3840   44.4330 C   0  0  0  0  0  0  0  0  0  0  0  0
   57.6038   30.5793   43.7094 H   0  0  0  0  0  0  0  0  0  0  0  0
   57.6590   32.7180   44.0440 C   0  0  0  0  0  0  0  0  0  0  0  0
   57.3437   32.9593   43.0182 H   0  0  0  0  0  0  0  0  0  0  0  0
   57.9160   33.7460   44.9530 C   0  0  0  0  0  0  0  0  0  0  0  0
   57.7977   34.7954   44.6452 H   0  0  0  0  0  0  0  0  0  0  0  0
   58.3230   33.4410   46.2520 C   0  0  0  0  0  0  0  0  0  0  0  0
   58.5327   34.2525   46.9643 H   0  0  0  0  0  0  0  0  0  0  0  0
   58.4660   32.1070   46.6540 C   0  0  0  0  0  0  0  0  0  0  0  0
   58.9910   31.7560   48.3380 S   0  0  0  0  0  0  0  0  0  0  0  0
   60.7000   32.1820   48.0030 C   0  0  0  0  0  0  0  0  0  0  0  0
   61.5790   31.2150   47.4970 C   0  0  0  0  0  0  0  0  0  0  0  0
   61.2212   30.1920   47.3089 H   0  0  0  0  0  0  0  0  0  0  0  0
   62.9100   31.5490   47.2310 C   0  0  0  0  0  0  0  0  0  0  0  0
   63.5978   30.7894   46.8310 H   0  0  0  0  0  0  0  0  0  0  0  0
   63.3680   32.8480   47.4730 C   0  0  0  0  0  0  0  0  0  0  0  0
   64.4150   33.1103   47.2607 H   0  0  0  0  0  0  0  0  0  0  0  0
   62.4950   33.8140   47.9850 C   0  0  0  0  0  0  0  0  0  0  0  0
   62.8559   34.8351   48.1774 H   0  0  0  0  0  0  0  0  0  0  0  0
   61.1640   33.4810   48.2520 C   0  0  0  0  0  0  0  0  0  0  0  0
   60.4793   34.2399   48.6584 H   0  0  0  0  0  0  0  0  0  0  0  0
   57.5800   27.4390   45.7990 C   0  0  0  0  0  0  0  0  0  0  0  0
   56.1810   27.4470   45.6560 C   0  0  0  0  0  0  0  0  0  0  0  0
   55.5200   28.5710   45.1720 O   0  0  0  0  0  0  0  0  0  0  0  0
   55.4530   26.3500   45.9900 N   0  0  0  0  0  0  0  0  0  0  0  0
   56.0510   25.2300   46.4680 C   0  0  0  0  0  0  0  0  0  0  0  0
   55.3550   24.2270   46.7700 O   0  0  0  0  0  0  0  0  0  0  0  0
   57.3970   25.1900   46.6160 N   0  0  0  0  0  0  0  0  0  0  0  0
   58.1760   26.2570   46.2980 C   0  0  0  0  0  0  0  0  0  0  0  0
   59.4220   26.1690   46.4530 O   0  0  0  0  0  0  0  0  0  0  0  0
  1  2  1  0
  2  3  2  0
  3  4  1  0
  4  5  2  0
  5  6  1  0
  5  7  1  0
  7  8  1  0
  7  9  2  0
  9 10  1  0
  9 11  1  0
 11 12  1  0
 11 13  2  0
 13 14  1  0
 14 15  1  0
 15 16  2  0
 16 17  1  0
 16 18  1  0
 18 19  1  0
 18 20  2  0
 20 21  1  0
 20 22  1  0
 22 23  1  0
 22 24  2  0
 24 25  1  0
  2 26  1  0
 26 27  2  0
 27 28  1  0
 27 29  1  0
 29 30  1  0
 30 31  2  0
 30 32  1  0
 32 33  1  0
 33 34  2  0
 13  4  1  0
 24 15  1  0
 33 26  1  0
M  CHG  3  28  -1  29  -1  32  -1
M  END
>  <UniqueID>  (40) 
36

>  <SMILES>  (40) 
O=c1[n-]c([O-])c(/C=N/c2ccccc2Sc2ccccc2)c(=O)[n-]1

>  <Energy>  (40) 
38.777177070147154

>  <Genealogy>  (40) 
O=c1[n-]c([O-])c(C=Nc2ccccc2Sc2ccccc2)c(=O)[n-]1 (protonated)
O=c1[n-]c([O-])c(/C=N/c2ccccc2Sc2ccccc2)c(=O)[n-]1 (cis-trans isomerization)
O=c1[n-]c([O-])c(/C=N/c2ccccc2Sc2ccccc2)c(=O)[n-]1 (3D coordinates assigned)
O=c1[n-]c([O-])c(/C=N/c2ccccc2Sc2ccccc2)c(=O)[n-]1 (optimized conformer: 38.777177070147154 kcal/mol)

>  <smiles>  (40) 
O=c1[nH]c(O)c(C=Nc2ccccc2Sc2ccccc2)c(=O)[nH]1

>  <score_type>  (40) 
oracle

>  <origin>  (40) 
adg

>  <m_score__min__energy>  (40) 
-15.51

>  <m_primary>  (40) 
energy

$$$$
40:0
     RDKit          3D

 43 45  0  0  0  0  0  0  0  0999 V2000
   59.0327   31.8897   49.5135 H   0  0  0  0  0  0  0  0  0  0  0  0
   58.9550   32.5350   48.6260 C   0  0  0  0  0  0  0  0  0  0  0  0
   58.2600   32.1140   47.5390 N   0  0  0  0  0  0  0  0  0  0  0  0
   58.1300   32.8560   46.4040 C   0  0  0  0  0  0  0  0  0  0  0  0
   57.3870   32.3470   45.4570 N   0  0  0  0  0  0  0  0  0  0  0  0
   57.7050   31.9980   44.1050 C   0  0  0  0  0  0  0  0  0  0  0  0
   58.5180   32.6910   43.4380 O   0  0  0  0  0  0  0  0  0  0  0  0
   56.9820   30.8650   43.4480 C   0  0  0  0  0  0  0  0  0  0  0  0
   57.4076   30.6909   42.4487 H   0  0  0  0  0  0  0  0  0  0  0  0
   55.9155   31.1188   43.3581 H   0  0  0  0  0  0  0  0  0  0  0  0
   57.1260   29.6260   44.2710 C   0  0  0  0  0  0  0  0  0  0  0  0
   58.5510   28.7470   44.4580 S   0  0  0  0  0  0  0  0  0  0  0  0
   57.7950   27.5400   45.3520 C   0  0  0  0  0  0  0  0  0  0  0  0
   58.4130   26.4830   45.7910 N   0  0  0  0  0  0  0  0  0  0  0  0
   58.2220   25.1310   45.3420 C   0  0  0  0  0  0  0  0  0  0  0  0
   59.0940   24.0920   45.7070 C   0  0  0  0  0  0  0  0  0  0  0  0
   59.9434   24.2994   46.3745 H   0  0  0  0  0  0  0  0  0  0  0  0
   58.8880   22.7980   45.2270 C   0  0  0  0  0  0  0  0  0  0  0  0
   59.5708   21.9903   45.5293 H   0  0  0  0  0  0  0  0  0  0  0  0
   57.8180   22.5160   44.3620 C   0  0  0  0  0  0  0  0  0  0  0  0
   57.6280   21.1100   43.8580 C   0  0  0  0  0  0  0  0  0  0  0  0
   57.5352   20.4236   44.7125 H   0  0  0  0  0  0  0  0  0  0  0  0
   56.7149   21.0599   43.2466 H   0  0  0  0  0  0  0  0  0  0  0  0
   58.4950   20.8193   43.2466 H   0  0  0  0  0  0  0  0  0  0  0  0
   56.9650   23.5670   43.9520 C   0  0  0  0  0  0  0  0  0  0  0  0
   55.8150   23.3180   43.0090 C   0  0  0  0  0  0  0  0  0  0  0  0
   54.9015   23.1202   43.5890 H   0  0  0  0  0  0  0  0  0  0  0  0
   55.6622   24.2039   42.3751 H   0  0  0  0  0  0  0  0  0  0  0  0
   56.0424   22.4483   42.3751 H   0  0  0  0  0  0  0  0  0  0  0  0
   57.1800   24.8650   44.4480 C   0  0  0  0  0  0  0  0  0  0  0  0
   56.5186   25.6836   44.1280 H   0  0  0  0  0  0  0  0  0  0  0  0
   56.4690   27.7620   45.4950 N   0  0  0  0  0  0  0  0  0  0  0  0
   56.0970   28.9210   44.8900 C   0  0  0  0  0  0  0  0  0  0  0  0
   54.7760   29.3510   44.8880 O   0  0  0  0  0  0  0  0  0  0  0  0
   58.8200   34.1080   46.3240 C   0  0  0  0  0  0  0  0  0  0  0  0
   58.9570   34.9380   45.0720 C   0  0  0  0  0  0  0  0  0  0  0  0
   59.1305   35.9891   45.3460 H   0  0  0  0  0  0  0  0  0  0  0  0
   59.8064   34.5688   44.4785 H   0  0  0  0  0  0  0  0  0  0  0  0
   58.0341   34.8614   44.4785 H   0  0  0  0  0  0  0  0  0  0  0  0
   59.5020   34.5630   47.4680 C   0  0  0  0  0  0  0  0  0  0  0  0
   59.9890   35.5492   47.4536 H   0  0  0  0  0  0  0  0  0  0  0  0
   59.5680   33.7810   48.6170 C   0  0  0  0  0  0  0  0  0  0  0  0
   60.0998   34.1457   49.5082 H   0  0  0  0  0  0  0  0  0  0  0  0
  1  2  1  0
  2  3  1  0
  3  4  1  0
  4  5  2  0
  5  6  1  0
  6  7  2  0
  6  8  1  0
  8  9  1  0
  8 10  1  0
  8 11  1  0
 11 12  1  0
 12 13  1  0
 13 14  2  3
 14 15  1  0
 15 16  2  0
 16 17  1  0
 16 18  1  0
 18 19  1  0
 18 20  2  0
 20 21  1  0
 21 22  1  0
 21 23  1  0
 21 24  1  0
 20 25  1  0
 25 26  1  0
 26 27  1  0
 26 28  1  0
 26 29  1  0
 25 30  2  0
 30 31  1  0
 13 32  1  0
 32 33  1  0
 33 34  1  0
  4 35  1  0
 35 36  1  0
 36 37  1  0
 36 38  1  0
 36 39  1  0
 35 40  2  0
 40 41  1  0
 40 42  1  0
 42 43  1  0
 42  2  2  0
 33 11  2  0
 30 15  1  0
M  CHG  3   3  -1  32  -1  34  -1
M  END
>  <UniqueID>  (41) 
37

>  <SMILES>  (41) 
Cc1ccc(N=c2[n-]c([O-])c(CC(=O)/N=c3/[n-]cccc3C)s2)cc1C

>  <Energy>  (41) 
95.38965538362073

>  <Genealogy>  (41) 
Cc1ccc(N=c2[n-]c([O-])c(CC(=O)N=c3[n-]cccc3C)s2)cc1C (protonated)
Cc1ccc(N=c2[n-]c([O-])c(CC(=O)/N=c3/[n-]cccc3C)s2)cc1C (cis-trans isomerization)
Cc1ccc(N=c2[n-]c([O-])c(CC(=O)/N=c3/[n-]cccc3C)s2)cc1C (3D coordinates assigned)
Cc1ccc(N=c2[n-]c([O-])c(CC(=O)/N=c3/[n-]cccc3C)s2)cc1C (optimized conformer: 95.38965538362073 kcal/mol)

>  <smiles>  (41) 
Cc1ccc(N=c2[nH]c(O)c(CC(=O)N=c3[nH]cccc3C)s2)cc1C

>  <score_type>  (41) 
oracle

>  <origin>  (41) 
adg

>  <m_score__min__energy>  (41) 
-15.41

>  <m_primary>  (41) 
energy

$$$$
41:0
     RDKit          3D

 23 25  0  0  0  0  0  0  0  0999 V2000
   58.0300   31.7380   51.0390 O   0  0  0  0  0  0  0  0  0  0  0  0
   57.2520   30.9990   51.6960 C   0  0  0  0  0  0  0  0  0  0  0  0
   57.7360   30.2630   52.8070 C   0  0  0  0  0  0  0  0  0  0  0  0
   56.8870   29.4650   53.5240 N   0  0  0  0  0  0  0  0  0  0  0  0
   55.5910   29.3970   53.1340 C   0  0  0  0  0  0  0  0  0  0  0  0
   54.6070   28.6980   53.7230 N   0  0  0  0  0  0  0  0  0  0  0  0
   53.4900   28.9730   53.0030 C   0  0  0  0  0  0  0  0  0  0  0  0
   53.7840   29.8400   51.9480 C   0  0  0  0  0  0  0  0  0  0  0  0
   52.8180   30.4530   50.9840 C   0  0  0  0  0  0  0  0  0  0  0  0
   51.8260   31.2970   51.7200 C   0  0  0  0  0  0  0  0  0  0  0  0
   51.5180   31.1390   53.0190 N   0  0  0  0  0  0  0  0  0  0  0  0
   50.5450   32.0560   53.2190 C   0  0  0  0  0  0  0  0  0  0  0  0
   49.9910   32.2220   54.3370 O   0  0  0  0  0  0  0  0  0  0  0  0
   50.2080   32.7750   52.1270 N   0  0  0  0  0  0  0  0  0  0  0  0
   51.0250   32.2770   51.1850 C   0  0  0  0  0  0  0  0  0  0  0  0
   51.0320   32.7030   49.8630 O   0  0  0  0  0  0  0  0  0  0  0  0
   55.1300   30.1000   52.0660 C   0  0  0  0  0  0  0  0  0  0  0  0
   55.9350   30.9090   51.3370 N   0  0  0  0  0  0  0  0  0  0  0  0
   58.7958   30.3337   53.0929 H   0  0  0  0  0  0  0  0  0  0  0  0
   54.6810   28.0910   54.5680 H   0  0  0  0  0  0  0  0  0  0  0  0
   52.4904   28.5687   53.2204 H   0  0  0  0  0  0  0  0  0  0  0  0
   53.3678   31.0796   50.2663 H   0  0  0  0  0  0  0  0  0  0  0  0
   52.2849   29.6530   50.4494 H   0  0  0  0  0  0  0  0  0  0  0  0
  1  2  2  0
  2  3  1  0
  3  4  2  0
  4  5  1  0
  5  6  1  0
  6  7  1  0
  7  8  2  0
  8  9  1  0
  9 10  1  0
 10 11  1  0
 11 12  1  0
 12 13  2  0
 12 14  1  0
 14 15  1  0
 15 16  1  0
  8 17  1  0
 17 18  1  0
 18  2  1  0
 17  5  2  0
 15 10  2  0
  3 19  1  0
  6 20  1  0
  7 21  1  0
  9 22  1  0
  9 23  1  0
M  CHG  4  11  -1  14  -1  16  -1  18  -1
M  END
>  <UniqueID>  (42) 
38

>  <SMILES>  (42) 
O=c1cnc2[nH]cc(Cc3[n-]c(=O)[n-]c3[O-])c2[n-]1

>  <Energy>  (42) 
91.14345040571693

>  <Genealogy>  (42) 
O=c1cnc2[nH]cc(Cc3[n-]c(=O)[n-]c3[O-])c2[n-]1 (protonated)
O=c1cnc2[nH]cc(Cc3[n-]c(=O)[n-]c3[O-])c2[n-]1 (3D coordinates assigned)
O=c1cnc2[nH]cc(Cc3[n-]c(=O)[n-]c3[O-])c2[n-]1 (optimized conformer: 91.14345040571693 kcal/mol)

>  <smiles>  (42) 
O=c1cnc2[nH]cc(Cc3[nH]c(=O)[nH]c3O)c2[nH]1

>  <score_type>  (42) 
oracle

>  <origin>  (42) 
adg

>  <m_score__min__energy>  (42) 
-16.219999999999999

>  <m_primary>  (42) 
energy

$$$$
42:0
     RDKit          3D

 24 25  0  0  0  0  0  0  0  0999 V2000
   59.3600   32.6940   50.6180 C   0  0  0  0  0  0  0  0  0  0  0  0
   59.2960   33.1190   49.4820 C   0  0  0  0  0  0  0  0  0  0  0  0
   59.2410   33.6170   48.1350 C   0  0  0  0  0  0  0  0  0  0  0  0
   60.1220   34.5590   47.6470 C   0  0  0  0  0  0  0  0  0  0  0  0
   59.9990   34.9860   46.3320 C   0  0  0  0  0  0  0  0  0  0  0  0
   59.0240   34.5030   45.4860 C   0  0  0  0  0  0  0  0  0  0  0  0
   58.1530   33.5670   45.9820 C   0  0  0  0  0  0  0  0  0  0  0  0
   57.1260   32.9970   45.2400 O   0  0  0  0  0  0  0  0  0  0  0  0
   57.1540   31.6550   44.8800 C   0  0  0  0  0  0  0  0  0  0  0  0
   58.2700   30.9040   44.9180 N   0  0  0  0  0  0  0  0  0  0  0  0
   58.2130   29.5940   44.5480 C   0  0  0  0  0  0  0  0  0  0  0  0
   59.6780   28.6340   44.6060 Cl  0  0  0  0  0  0  0  0  0  0  0  0
   57.0660   29.0210   44.1400 N   0  0  0  0  0  0  0  0  0  0  0  0
   55.9560   29.7780   44.1030 C   0  0  0  0  0  0  0  0  0  0  0  0
   54.8030   29.3370   43.7290 N   0  0  0  0  0  0  0  0  0  0  0  0
   56.0310   31.0730   44.4730 N   0  0  0  0  0  0  0  0  0  0  0  0
   58.2580   33.1210   47.3030 C   0  0  0  0  0  0  0  0  0  0  0  0
   59.4180   32.3091   51.6468 H   0  0  0  0  0  0  0  0  0  0  0  0
   60.9134   34.9675   48.2926 H   0  0  0  0  0  0  0  0  0  0  0  0
   60.7059   35.7377   45.9510 H   0  0  0  0  0  0  0  0  0  0  0  0
   58.9470   34.8566   44.4472 H   0  0  0  0  0  0  0  0  0  0  0  0
   57.0030   28.0110   43.8500 H   0  0  0  0  0  0  0  0  0  0  0  0
   54.1890   28.9460   44.5020 H   0  0  0  0  0  0  0  0  0  0  0  0
   57.5511   32.3684   47.6823 H   0  0  0  0  0  0  0  0  0  0  0  0
  1  2  3  0
  2  3  1  0
  3  4  2  0
  4  5  1  0
  5  6  2  0
  6  7  1  0
  7  8  1  0
  8  9  1  0
  9 10  1  0
 10 11  2  0
 11 12  1  0
 11 13  1  0
 13 14  1  0
 14 15  2  3
 14 16  1  0
  7 17  2  0
 17  3  1  0
 16  9  2  0
  1 18  1  0
  4 19  1  0
  5 20  1  0
  6 21  1  0
 13 22  1  0
 15 23  1  0
 17 24  1  0
M  END
>  <smiles>  (43) 
C#Cc1cccc(Oc2nc(Cl)[nH]c(=N)n2)c1

>  <score_type>  (43) 
oracle

>  <origin>  (43) 
adg

>  <m_score__min__energy>  (43) 
-6.8300000000000001

>  <m_primary>  (43) 
energy

$$$$
43:0
     RDKit          3D

 30 31  0  0  0  0  0  0  0  0999 V2000
   59.4520   34.3090   45.1840 C   0  0  0  0  0  0  0  0  0  0  0  0
   57.9640   33.4180   44.7810 S   0  0  0  0  0  0  0  0  0  0  0  0
   58.0770   32.9040   43.3730 O   0  0  0  0  0  0  0  0  0  0  0  0
   56.7690   34.3250   44.8690 O   0  0  0  0  0  0  0  0  0  0  0  0
   57.7660   32.0680   45.8510 N   0  0  0  0  0  0  0  0  0  0  0  0
   57.7230   30.6880   45.4620 C   0  0  0  0  0  0  0  0  0  0  0  0
   57.4150   30.2850   44.1510 C   0  0  0  0  0  0  0  0  0  0  0  0
   57.3820   28.9260   43.8190 C   0  0  0  0  0  0  0  0  0  0  0  0
   57.6440   27.9510   44.7970 C   0  0  0  0  0  0  0  0  0  0  0  0
   57.6440   26.5480   44.4930 N   0  0  0  0  0  0  0  0  0  0  0  0
   57.3100   25.4780   45.3880 C   0  0  0  0  0  0  0  0  0  0  0  0
   58.1420   25.1090   46.2600 O   0  0  0  0  0  0  0  0  0  0  0  0
   56.0050   24.7700   45.2610 C   0  0  0  0  0  0  0  0  0  0  0  0
   54.7970   25.3950   45.6410 C   0  0  0  0  0  0  0  0  0  0  0  0
   54.7840   26.6950   46.1320 O   0  0  0  0  0  0  0  0  0  0  0  0
   53.6180   24.7320   45.5160 N   0  0  0  0  0  0  0  0  0  0  0  0
   53.5690   23.4690   45.0280 C   0  0  0  0  0  0  0  0  0  0  0  0
   52.4630   22.8790   44.9240 O   0  0  0  0  0  0  0  0  0  0  0  0
   54.7100   22.8420   44.6550 N   0  0  0  0  0  0  0  0  0  0  0  0
   55.9180   23.4530   44.7570 C   0  0  0  0  0  0  0  0  0  0  0  0
   56.9510   22.8200   44.4100 O   0  0  0  0  0  0  0  0  0  0  0  0
   57.9770   28.3560   46.0940 C   0  0  0  0  0  0  0  0  0  0  0  0
   58.0100   29.7140   46.4260 C   0  0  0  0  0  0  0  0  0  0  0  0
   59.5570   34.3719   46.2772 H   0  0  0  0  0  0  0  0  0  0  0  0
   60.3205   33.7822   44.7619 H   0  0  0  0  0  0  0  0  0  0  0  0
   59.3977   35.3233   44.7619 H   0  0  0  0  0  0  0  0  0  0  0  0
   57.1989   31.0416   43.3823 H   0  0  0  0  0  0  0  0  0  0  0  0
   57.1501   28.6195   42.7884 H   0  0  0  0  0  0  0  0  0  0  0  0
   58.2145   27.6010   46.8579 H   0  0  0  0  0  0  0  0  0  0  0  0
   58.2633   30.0192   47.4520 H   0  0  0  0  0  0  0  0  0  0  0  0
  1  2  1  0
  2  3  2  0
  2  4  2  0
  2  5  1  0
  5  6  1  0
  6  7  2  0
  7  8  1  0
  8  9  2  0
  9 10  1  0
 10 11  1  0
 11 12  2  0
 11 13  1  0
 13 14  2  0
 14 15  1  0
 14 16  1  0
 16 17  1  0
 17 18  2  0
 17 19  1  0
 19 20  1  0
 20 21  2  0
  9 22  1  0
 22 23  2  0
 23  6  1  0
 20 13  1  0
  1 24  1  0
  1 25  1  0
  1 26  1  0
  7 27  1  0
  8 28  1  0
 22 29  1  0
 23 30  1  0
M  CHG  5   5  -1  10  -1  15  -1  16  -1  19  -1
M  END
>  <UniqueID>  (44) 
39

>  <SMILES>  (44) 
CS(=O)(=O)[N-]c1ccc([N-]C(=O)c2c([O-])[n-]c(=O)[n-]c2=O)cc1

>  <Energy>  (44) 
39.181027234412696

>  <Genealogy>  (44) 
CS(=O)(=O)[N-]c1ccc([N-]C(=O)c2c([O-])[n-]c(=O)[n-]c2=O)cc1 (protonated)
CS(=O)(=O)[N-]c1ccc([N-]C(=O)c2c([O-])[n-]c(=O)[n-]c2=O)cc1 (3D coordinates assigned)
CS(=O)(=O)[N-]c1ccc([N-]C(=O)c2c([O-])[n-]c(=O)[n-]c2=O)cc1 (optimized conformer: 39.181027234412696 kcal/mol)

>  <smiles>  (44) 
CS(=O)(=O)Nc1ccc(NC(=O)c2c(O)[nH]c(=O)[nH]c2=O)cc1

>  <score_type>  (44) 
oracle

>  <origin>  (44) 
adg

>  <m_score__min__energy>  (44) 
-16.710000000000001

>  <m_primary>  (44) 
energy

$$$$
44:0
     RDKit          3D

 41 43  0  0  0  0  0  0  0  0999 V2000
   59.3540   30.9080   46.0580 O   0  0  0  0  0  0  0  0  0  0  0  0
   58.4240   30.5140   45.3060 C   0  0  0  0  0  0  0  0  0  0  0  0
   58.6110   29.2840   44.4540 C   0  0  0  0  0  0  0  0  0  0  0  0
   58.0360   28.0910   45.1020 N   0  0  0  0  0  0  0  0  0  0  0  0
   58.8840   27.1280   45.5770 C   0  0  0  0  0  0  0  0  0  0  0  0
   58.3880   25.9900   46.2140 C   0  0  0  0  0  0  0  0  0  0  0  0
   57.0060   25.8400   46.3940 C   0  0  0  0  0  0  0  0  0  0  0  0
   56.4430   24.6770   47.0190 N   0  0  0  0  0  0  0  0  0  0  0  0
   56.8190   23.3140   46.7870 C   0  0  0  0  0  0  0  0  0  0  0  0
   57.0420   22.5350   47.7540 O   0  0  0  0  0  0  0  0  0  0  0  0
   56.8940   22.8050   45.4120 C   0  0  0  0  0  0  0  0  0  0  0  0
   57.7650   21.8260   44.9470 C   0  0  0  0  0  0  0  0  0  0  0  0
   57.6050   21.5460   43.5840 C   0  0  0  0  0  0  0  0  0  0  0  0
   56.6130   22.3020   42.9730 C   0  0  0  0  0  0  0  0  0  0  0  0
   55.9350   23.3190   44.1280 S   0  0  0  0  0  0  0  0  0  0  0  0
   56.1490   26.8270   45.8990 C   0  0  0  0  0  0  0  0  0  0  0  0
   54.7710   26.6920   46.0460 O   0  0  0  0  0  0  0  0  0  0  0  0
   56.6790   27.9580   45.2620 C   0  0  0  0  0  0  0  0  0  0  0  0
   55.8930   28.8520   44.8430 O   0  0  0  0  0  0  0  0  0  0  0  0
   57.1830   31.2270   45.3170 N   0  0  0  0  0  0  0  0  0  0  0  0
   57.0190   32.5920   44.8320 C   0  0  0  0  0  0  0  0  0  0  0  0
   57.9360   33.5050   45.5930 C   0  0  0  0  0  0  0  0  0  0  0  0
   58.7510   34.4200   44.9050 C   0  0  0  0  0  0  0  0  0  0  0  0
   59.6280   35.2500   45.6090 C   0  0  0  0  0  0  0  0  0  0  0  0
   59.7050   35.1660   47.0030 C   0  0  0  0  0  0  0  0  0  0  0  0
   58.9070   34.2490   47.6930 C   0  0  0  0  0  0  0  0  0  0  0  0
   58.0290   33.4160   46.9920 C   0  0  0  0  0  0  0  0  0  0  0  0
   58.1139   29.4402   43.4852 H   0  0  0  0  0  0  0  0  0  0  0  0
   59.6896   29.1181   44.3157 H   0  0  0  0  0  0  0  0  0  0  0  0
   59.9701   27.2525   45.4552 H   0  0  0  0  0  0  0  0  0  0  0  0
   59.0790   25.2134   46.5736 H   0  0  0  0  0  0  0  0  0  0  0  0
   58.5054   21.3220   45.5855 H   0  0  0  0  0  0  0  0  0  0  0  0
   58.2080   20.7981   43.0482 H   0  0  0  0  0  0  0  0  0  0  0  0
   56.3206   22.2452   41.9141 H   0  0  0  0  0  0  0  0  0  0  0  0
   57.2661   32.6331   43.7609 H   0  0  0  0  0  0  0  0  0  0  0  0
   55.9768   32.9116   44.9794 H   0  0  0  0  0  0  0  0  0  0  0  0
   58.6986   34.4833   43.8081 H   0  0  0  0  0  0  0  0  0  0  0  0
   60.2582   35.9699   45.0662 H   0  0  0  0  0  0  0  0  0  0  0  0
   60.3935   35.8216   47.5563 H   0  0  0  0  0  0  0  0  0  0  0  0
   58.9696   34.1824   48.7892 H   0  0  0  0  0  0  0  0  0  0  0  0
   57.4095   32.6891   47.5376 H   0  0  0  0  0  0  0  0  0  0  0  0
  1  2  2  0
  2  3  1  0
  3  4  1  0
  4  5  1  0
  5  6  2  0
  6  7  1  0
  7  8  1  0
  8  9  1  0
  9 10  2  0
  9 11  1  0
 11 12  2  0
 12 13  1  0
 13 14  2  0
 14 15  1  0
  7 16  2  0
 16 17  1  0
 16 18  1  0
 18 19  2  0
  2 20  1  0
 20 21  1  0
 21 22  1  0
 22 23  2  0
 23 24  1  0
 24 25  2  0
 25 26  1  0
 26 27  2  0
 18  4  1  0
 27 22  1  0
 15 11  1  0
  3 28  1  0
  3 29  1  0
  5 30  1  0
  6 31  1  0
 12 32  1  0
 13 33  1  0
 14 34  1  0
 21 35  1  0
 21 36  1  0
 23 37  1  0
 24 38  1  0
 25 39  1  0
 26 40  1  0
 27 41  1  0
M  CHG  3   8  -1  17  -1  20  -1
M  END
>  <UniqueID>  (45) 
40

>  <SMILES>  (45) 
O=C(Cn1ccc([N-]C(=O)c2cccs2)c([O-])c1=O)[N-]Cc1ccccc1

>  <Energy>  (45) 
72.77908898700663

>  <Genealogy>  (45) 
O=C(Cn1ccc([N-]C(=O)c2cccs2)c([O-])c1=O)[N-]Cc1ccccc1 (protonated)
O=C(Cn1ccc([N-]C(=O)c2cccs2)c([O-])c1=O)[N-]Cc1ccccc1 (3D coordinates assigned)
O=C(Cn1ccc([N-]C(=O)c2cccs2)c([O-])c1=O)[N-]Cc1ccccc1 (optimized conformer: 72.77908898700663 kcal/mol)

>  <smiles>  (45) 
O=C(Cn1ccc(NC(=O)c2cccs2)c(O)c1=O)NCc1ccccc1

>  <score_type>  (45) 
oracle

>  <origin>  (45) 
adg

>  <m_score__min__energy>  (45) 
-15.51

>  <m_primary>  (45) 
energy

$$$$
45:0
     RDKit          3D

 59 63  0  0  1  0  0  0  0  0999 V2000
   53.5080   23.4750   45.2970 C   0  0  0  0  0  0  0  0  0  0  0  0
   54.6180   24.4710   45.4800 C   0  0  0  0  0  0  0  0  0  0  0  0
   54.3860   25.6660   45.7980 O   0  0  0  0  0  0  0  0  0  0  0  0
   55.9550   24.0360   45.2870 N   0  0  0  0  0  0  0  0  0  0  0  0
   56.9030   24.9110   45.4260 C   0  0  0  0  0  0  0  0  0  0  0  0
   56.9580   26.2470   45.2540 N   0  0  0  0  0  0  0  0  0  0  0  0
   58.0280   26.9220   45.4550 C   0  0  0  0  0  0  0  0  0  0  0  0
   58.1290   28.3950   45.2770 C   0  0  0  0  0  0  0  0  0  0  0  0
   59.3210   29.0550   45.4280 C   0  0  0  0  0  0  0  0  0  0  0  0
   59.3920   30.3840   45.2630 N   0  0  0  0  0  0  0  0  0  0  0  0
   58.3670   31.1660   44.9520 C   0  0  0  0  0  0  0  0  0  0  0  0
   58.4220   32.6080   44.7750 C   0  0  0  0  0  0  0  0  0  0  0  0
   58.0310   33.0400   43.6500 O   0  0  0  0  0  0  0  0  0  0  0  0
   58.8600   33.5460   45.7170 N   0  0  0  0  0  0  0  0  0  0  0  0
   59.9370   34.4790   45.5910 C   0  0  0  0  0  0  0  0  0  0  0  0
   61.1160   33.9470   46.4150 C   0  0  0  0  0  0  0  0  0  0  0  0
   60.5710   33.5750   47.7430 C   0  0  0  0  0  0  0  0  0  0  0  0
   61.5000   33.3820   48.7590 C   0  0  0  0  0  0  0  0  0  0  0  0
   61.0680   33.0330   50.0240 C   0  0  0  0  0  0  0  0  0  0  0  0
   59.7310   32.8640   50.3400 C   0  0  0  0  0  0  0  0  0  0  0  0
   59.1970   32.4230   51.9520 S   0  0  0  0  0  0  0  0  0  0  0  0
   58.3550   33.4610   52.6030 O   0  0  0  0  0  0  0  0  0  0  0  0
   60.4790   32.4380   52.7920 O   0  0  0  0  0  0  0  0  0  0  0  0
   58.6350   30.8240   52.0730 N   0  0  0  0  0  0  0  0  0  0  0  0
   57.4460   30.4350   52.2690 C   0  0  0  0  0  0  0  0  0  0  0  0
   57.2210   29.4420   53.1980 C   0  0  0  0  0  0  0  0  0  0  0  0
   55.9860   28.9440   53.4930 C   0  0  0  0  0  0  0  0  0  0  0  0
   54.9350   29.4840   52.8100 N   0  0  0  0  0  0  0  0  0  0  0  0
   55.1680   30.4490   51.9100 C   0  0  0  0  0  0  0  0  0  0  0  0
   56.3890   30.9340   51.6250 N   0  0  0  0  0  0  0  0  0  0  0  0
   58.8340   33.0660   49.2990 C   0  0  0  0  0  0  0  0  0  0  0  0
   59.2370   33.4150   48.0250 C   0  0  0  0  0  0  0  0  0  0  0  0
   58.1500   33.5950   47.0170 C   0  0  0  0  0  0  0  0  0  0  0  0
   57.1350   30.5480   44.7880 C   0  0  0  0  0  0  0  0  0  0  0  0
   55.9790   31.2390   44.4630 O   0  0  0  0  0  0  0  0  0  0  0  0
   57.0290   29.1580   44.9530 C   0  0  0  0  0  0  0  0  0  0  0  0
   59.2110   26.2420   45.8790 C   0  0  0  0  0  0  0  0  0  0  0  0
   58.6190   24.4740   45.9620 S   0  0  0  0  0  0  0  0  0  0  0  0
   53.1431   23.1476   46.2817 H   0  0  0  0  0  0  0  0  0  0  0  0
   52.6843   23.9426   44.7377 H   0  0  0  0  0  0  0  0  0  0  0  0
   53.8840   22.6056   44.7377 H   0  0  0  0  0  0  0  0  0  0  0  0
   56.0280   26.7130   44.9310 H   0  0  0  0  0  0  0  0  0  0  0  0
   60.2280   28.4891   45.6870 H   0  0  0  0  0  0  0  0  0  0  0  0
   60.2301   34.5719   44.5349 H   0  0  0  0  0  0  0  0  0  0  0  0
   59.6307   35.4711   45.9541 H   0  0  0  0  0  0  0  0  0  0  0  0
   61.5549   33.0657   45.9244 H   0  0  0  0  0  0  0  0  0  0  0  0
   61.9080   34.7045   46.5092 H   0  0  0  0  0  0  0  0  0  0  0  0
   62.5740   33.5066   48.5567 H   0  0  0  0  0  0  0  0  0  0  0  0
   61.8187   32.8830   50.8139 H   0  0  0  0  0  0  0  0  0  0  0  0
   58.0881   29.0269   53.7327 H   0  0  0  0  0  0  0  0  0  0  0  0
   55.8447   28.1500   54.2410 H   0  0  0  0  0  0  0  0  0  0  0  0
   53.9660   29.1280   53.0070 H   0  0  0  0  0  0  0  0  0  0  0  0
   54.3068   30.8705   51.3709 H   0  0  0  0  0  0  0  0  0  0  0  0
   57.7590   32.9430   49.4973 H   0  0  0  0  0  0  0  0  0  0  0  0
   57.4101   32.7843   47.0899 H   0  0  0  0  0  0  0  0  0  0  0  0
   57.5889   34.5303   47.1597 H   0  0  0  0  0  0  0  0  0  0  0  0
   55.9160   32.1580   44.0860 H   0  0  0  0  0  0  0  0  0  0  0  0
   56.0518   28.6703   44.8214 H   0  0  0  0  0  0  0  0  0  0  0  0
   60.2077   26.6523   46.0986 H   0  0  0  0  0  0  0  0  0  0  0  0
  1  2  1  0
  2  3  2  0
  2  4  1  0
  4  5  2  0
  5  6  1  0
  6  7  1  0
  7  8  1  0
  8  9  2  0
  9 10  1  0
 10 11  2  0
 11 12  1  0
 12 13  2  0
 12 14  1  0
 14 15  1  0
 15 16  1  0
 16 17  1  0
 17 18  2  0
 18 19  1  0
 19 20  2  0
 20 21  1  0
 21 22  2  0
 21 23  2  0
 21 24  1  0
 24 25  2  0
 25 26  1  0
 26 27  2  0
 27 28  1  0
 28 29  1  0
 29 30  2  0
 20 31  1  0
 31 32  2  0
 32 33  1  0
 11 34  1  0
 34 35  1  0
 34 36  2  0
  7 37  2  0
 37 38  1  0
 38  5  1  0
 36  8  1  0
 33 14  1  0
 32 17  1  0
 30 25  1  0
  1 39  1  0
  1 40  1  0
  1 41  1  0
  6 42  1  0
  9 43  1  0
 15 44  1  0
 15 45  1  0
 16 46  1  0
 16 47  1  0
 18 48  1  0
 19 49  1  0
 26 50  1  0
 27 51  1  0
 28 52  1  0
 29 53  1  0
 31 54  1  0
 33 55  1  0
 33 56  1  0
 35 57  1  0
 36 58  1  0
 37 59  1  0
M  END
>  <smiles>  (46) 
CC(=O)N=c1[nH]c(-c2cnc(C(=O)N3CCc4ccc(S(=O)(=O)N=c5cc[nH]cn5)cc4C3)c(O)c2)cs1

>  <score_type>  (46) 
oracle

>  <origin>  (46) 
adg

>  <m_score__min__energy>  (46) 
-11.210000000000001

>  <m_primary>  (46) 
energy

$$$$
46:0
     RDKit          3D

 44 45  0  0  0  0  0  0  0  0999 V2000
   55.1430   26.6990   46.0050 O   0  0  0  0  0  0  0  0  0  0  0  0
   56.1900   26.1550   46.4420 C   0  0  0  0  0  0  0  0  0  0  0  0
   56.1180   24.8700   46.9670 O   0  0  0  0  0  0  0  0  0  0  0  0
   57.4810   26.8530   46.2940 C   0  0  0  0  0  0  0  0  0  0  0  0
   58.3180   26.7410   45.2510 C   0  0  0  0  0  0  0  0  0  0  0  0
   58.1060   27.3040   43.9060 C   0  0  0  0  0  0  0  0  0  0  0  0
   58.0940   26.5630   42.8840 O   0  0  0  0  0  0  0  0  0  0  0  0
   58.0030   28.6910   43.7700 O   0  0  0  0  0  0  0  0  0  0  0  0
   56.8730   29.3250   43.1780 C   0  0  0  0  0  0  0  0  0  0  0  0
   56.0720   29.9950   44.2430 C   0  0  0  0  0  0  0  0  0  0  0  0
   55.1870   29.3460   44.8630 O   0  0  0  0  0  0  0  0  0  0  0  0
   56.3000   31.3830   44.5220 N   0  0  0  0  0  0  0  0  0  0  0  0
   57.3870   31.9380   45.2770 C   0  0  0  0  0  0  0  0  0  0  0  0
   58.2320   31.1410   46.0700 C   0  0  0  0  0  0  0  0  0  0  0  0
   59.2950   31.7200   46.7700 C   0  0  0  0  0  0  0  0  0  0  0  0
   59.5340   33.0990   46.6760 C   0  0  0  0  0  0  0  0  0  0  0  0
   60.8830   33.8380   47.5370 S   0  0  0  0  0  0  0  0  0  0  0  0
   60.3740   34.9470   48.4150 O   0  0  0  0  0  0  0  0  0  0  0  0
   61.8260   34.4270   46.5240 O   0  0  0  0  0  0  0  0  0  0  0  0
   61.7020   32.6150   48.4900 N   0  0  0  0  0  0  0  0  0  0  0  0
   62.4880   31.7020   47.6360 C   0  0  0  0  0  0  0  0  0  0  0  0
   63.7700   32.3730   47.0860 C   0  0  0  0  0  0  0  0  0  0  0  0
   64.1520   33.5380   47.7970 O   0  0  0  0  0  0  0  0  0  0  0  0
   64.0140   33.3300   49.1850 C   0  0  0  0  0  0  0  0  0  0  0  0
   62.5260   33.2180   49.5670 C   0  0  0  0  0  0  0  0  0  0  0  0
   58.7110   33.8880   45.8650 C   0  0  0  0  0  0  0  0  0  0  0  0
   57.6480   33.3090   45.1650 C   0  0  0  0  0  0  0  0  0  0  0  0
   57.7845   27.5246   47.1106 H   0  0  0  0  0  0  0  0  0  0  0  0
   59.2480   26.1769   45.4153 H   0  0  0  0  0  0  0  0  0  0  0  0
   57.2123   30.0737   42.4471 H   0  0  0  0  0  0  0  0  0  0  0  0
   56.2531   28.5733   42.6674 H   0  0  0  0  0  0  0  0  0  0  0  0
   58.0559   30.0574   46.1398 H   0  0  0  0  0  0  0  0  0  0  0  0
   59.9458   31.0922   47.3963 H   0  0  0  0  0  0  0  0  0  0  0  0
   60.9470   32.0480   48.9410 H   0  0  0  0  0  0  0  0  0  0  0  0
   62.7758   30.8218   48.2296 H   0  0  0  0  0  0  0  0  0  0  0  0
   61.8607   31.4190   46.7779 H   0  0  0  0  0  0  0  0  0  0  0  0
   64.5938   31.6462   47.1416 H   0  0  0  0  0  0  0  0  0  0  0  0
   63.5534   32.6828   46.0530 H   0  0  0  0  0  0  0  0  0  0  0  0
   64.5309   32.4003   49.4651 H   0  0  0  0  0  0  0  0  0  0  0  0
   64.4556   34.1843   49.7190 H   0  0  0  0  0  0  0  0  0  0  0  0
   62.4401   32.5926   50.4678 H   0  0  0  0  0  0  0  0  0  0  0  0
   62.1503   34.2369   49.7418 H   0  0  0  0  0  0  0  0  0  0  0  0
   58.9009   34.9680   45.7777 H   0  0  0  0  0  0  0  0  0  0  0  0
   57.0123   33.9351   44.5217 H   0  0  0  0  0  0  0  0  0  0  0  0
  1  2  2  0
  2  3  1  0
  2  4  1  0
  4  5  2  3
  5  6  1  0
  6  7  2  0
  6  8  1  0
  8  9  1  0
  9 10  1  0
 10 11  2  0
 10 12  1  0
 12 13  1  0
 13 14  2  0
 14 15  1  0
 15 16  2  0
 16 17  1  0
 17 18  2  0
 17 19  2  0
 17 20  1  0
 20 21  1  0
 21 22  1  0
 22 23  1  0
 23 24  1  0
 24 25  1  0
 16 26  1  0
 26 27  2  0
 27 13  1  0
 25 20  1  0
  4 28  1  0
  5 29  1  0
  9 30  1  0
  9 31  1  0
 14 32  1  0
 15 33  1  0
 20 34  1  0
 21 35  1  0
 21 36  1  0
 22 37  1  0
 22 38  1  0
 24 39  1  0
 24 40  1  0
 25 41  1  0
 25 42  1  0
 26 43  1  0
 27 44  1  0
M  CHG  3   3  -1  12  -1  20   1
M  END
>  <UniqueID>  (47) 
41

>  <SMILES>  (47) 
O=C([O-])C=CC(=O)OCC(=O)[N-]c1ccc(S(=O)(=O)[NH+]2CCOCC2)cc1

>  <Energy>  (47) 
59.076015609596894

>  <Genealogy>  (47) 
O=C([O-])C=CC(=O)OCC(=O)[N-]c1ccc(S(=O)(=O)[NH+]2CCOCC2)cc1 (protonated)
O=C([O-])C=CC(=O)OCC(=O)[N-]c1ccc(S(=O)(=O)[NH+]2CCOCC2)cc1 (3D coordinates assigned)
O=C([O-])C=CC(=O)OCC(=O)[N-]c1ccc(S(=O)(=O)[NH+]2CCOCC2)cc1 (nonaromatic ring conformer: 59.076015609596894 kcal/mol)

>  <smiles>  (47) 
O=C(O)C=CC(=O)OCC(=O)Nc1ccc(S(=O)(=O)N2CCOCC2)cc1

>  <score_type>  (47) 
oracle

>  <origin>  (47) 
adg

>  <m_score__min__energy>  (47) 
-11.699999999999999

>  <m_primary>  (47) 
energy

$$$$
47:0
     RDKit          3D

 48 51  0  0  0  0  0  0  0  0999 V2000
   56.3616   30.5448   44.1862 H   0  0  0  0  0  0  0  0  0  0  0  0
   56.6100   29.4760   44.2640 C   0  0  0  0  0  0  0  0  0  0  0  0
   55.8893   28.7177   43.9240 H   0  0  0  0  0  0  0  0  0  0  0  0
   57.7930   29.0970   44.7740 C   0  0  0  0  0  0  0  0  0  0  0  0
   58.2470   27.7800   44.9350 C   0  0  0  0  0  0  0  0  0  0  0  0
   57.5620   26.6490   44.6600 C   0  0  0  0  0  0  0  0  0  0  0  0
   57.3776   26.4175   43.6006 H   0  0  0  0  0  0  0  0  0  0  0  0
   57.0380   25.6940   45.6630 C   0  0  0  0  0  0  0  0  0  0  0  0
   57.6780   24.6060   46.1270 N   0  0  0  0  0  0  0  0  0  0  0  0
   56.7820   24.0480   46.9700 C   0  0  0  0  0  0  0  0  0  0  0  0
   57.0250   22.9950   47.6140 O   0  0  0  0  0  0  0  0  0  0  0  0
   55.6080   24.7060   47.0650 N   0  0  0  0  0  0  0  0  0  0  0  0
   55.7860   25.7420   46.2300 C   0  0  0  0  0  0  0  0  0  0  0  0
   54.8220   26.7140   45.9920 O   0  0  0  0  0  0  0  0  0  0  0  0
   59.5330   27.8790   45.4540 C   0  0  0  0  0  0  0  0  0  0  0  0
   60.2047   27.0448   45.7049 H   0  0  0  0  0  0  0  0  0  0  0  0
   59.8050   29.2250   45.5940 C   0  0  0  0  0  0  0  0  0  0  0  0
   61.0940   29.7810   46.1220 C   0  0  0  0  0  0  0  0  0  0  0  0
   61.0739   29.7723   47.2218 H   0  0  0  0  0  0  0  0  0  0  0  0
   61.9325   29.1645   45.7657 H   0  0  0  0  0  0  0  0  0  0  0  0
   61.2210   30.8139   45.7657 H   0  0  0  0  0  0  0  0  0  0  0  0
   58.7560   29.9660   45.1750 N   0  0  0  0  0  0  0  0  0  0  0  0
   58.6820   31.4020   45.1930 C   0  0  0  0  0  0  0  0  0  0  0  0
   58.1270   32.0940   44.1090 C   0  0  0  0  0  0  0  0  0  0  0  0
   57.7369   31.5363   43.2448 H   0  0  0  0  0  0  0  0  0  0  0  0
   58.0670   33.4880   44.1210 C   0  0  0  0  0  0  0  0  0  0  0  0
   57.6325   34.0261   43.2656 H   0  0  0  0  0  0  0  0  0  0  0  0
   58.5580   34.2020   45.2180 C   0  0  0  0  0  0  0  0  0  0  0  0
   58.5136   35.3011   45.2187 H   0  0  0  0  0  0  0  0  0  0  0  0
   59.1080   33.5250   46.3200 C   0  0  0  0  0  0  0  0  0  0  0  0
   59.6380   34.2750   47.4840 C   0  0  0  0  0  0  0  0  0  0  0  0
   59.0790   35.3490   47.8360 O   0  0  0  0  0  0  0  0  0  0  0  0
   60.7750   33.7950   48.2250 N   0  0  0  0  0  0  0  0  0  0  0  0
   62.1180   33.8420   47.6390 C   0  0  0  0  0  0  0  0  0  0  0  0
   62.7729   34.4519   48.2786 H   0  0  0  0  0  0  0  0  0  0  0  0
   62.0572   34.2860   46.6344 H   0  0  0  0  0  0  0  0  0  0  0  0
   62.6820   32.4550   47.5300 C   0  0  0  0  0  0  0  0  0  0  0  0
   63.6530   32.2360   46.7570 O   0  0  0  0  0  0  0  0  0  0  0  0
   62.1740   31.3960   48.3520 N   0  0  0  0  0  0  0  0  0  0  0  0
   62.6180   30.4520   48.2840 H   0  0  0  0  0  0  0  0  0  0  0  0
   60.9000   31.5080   49.0640 C   0  0  0  0  0  0  0  0  0  0  0  0
   60.9535   30.9171   49.9903 H   0  0  0  0  0  0  0  0  0  0  0  0
   60.1007   31.1310   48.4090 H   0  0  0  0  0  0  0  0  0  0  0  0
   60.5900   32.9640   49.4180 C   0  0  0  0  0  0  0  0  0  0  0  0
   61.2705   33.3032   50.2129 H   0  0  0  0  0  0  0  0  0  0  0  0
   59.5518   33.0475   49.7717 H   0  0  0  0  0  0  0  0  0  0  0  0
   59.1780   32.1200   46.2920 C   0  0  0  0  0  0  0  0  0  0  0  0
   59.6255   31.5795   47.1391 H   0  0  0  0  0  0  0  0  0  0  0  0
  1  2  1  0
  2  3  1  0
  2  4  2  0
  4  5  1  0
  5  6  2  0
  6  7  1  0
  6  8  1  0
  8  9  1  0
  9 10  1  0
 10 11  2  0
 10 12  1  0
 12 13  1  0
 13 14  1  0
  5 15  1  0
 15 16  1  0
 15 17  2  0
 17 18  1  0
 18 19  1  0
 18 20  1  0
 18 21  1  0
 17 22  1  0
 22 23  1  0
 23 24  2  0
 24 25  1  0
 24 26  1  0
 26 27  1  0
 26 28  2  0
 28 29  1  0
 28 30  1  0
 30 31  1  0
 31 32  2  0
 31 33  1  0
 33 34  1  0
 34 35  1  0
 34 36  1  0
 34 37  1  0
 37 38  2  0
 37 39  1  0
 39 40  1  0
 39 41  1  0
 41 42  1  0
 41 43  1  0
 41 44  1  0
 44 45  1  0
 44 46  1  0
 30 47  2  0
 47 48  1  0
 22  4  1  0
 47 23  1  0
 13  8  2  0
 44 33  1  0
M  CHG  3   9  -1  12  -1  14  -1
M  END
>  <UniqueID>  (48) 
42

>  <SMILES>  (48) 
C=c1/c(=C/c2[n-]c(=O)[n-]c2[O-])cc(C)n1-c1cccc(C(=O)N2CCNC(=O)C2)c1

>  <Energy>  (48) 
124.22457473202788

>  <Genealogy>  (48) 
C=c1c(=Cc2[n-]c(=O)[n-]c2[O-])cc(C)n1-c1cccc(C(=O)N2CCNC(=O)C2)c1 (protonated)
C=c1/c(=C/c2[n-]c(=O)[n-]c2[O-])cc(C)n1-c1cccc(C(=O)N2CCNC(=O)C2)c1 (cis-trans isomerization)
C=c1/c(=C/c2[n-]c(=O)[n-]c2[O-])cc(C)n1-c1cccc(C(=O)N2CCNC(=O)C2)c1 (3D coordinates assigned)
C=c1/c(=C/c2[n-]c(=O)[n-]c2[O-])cc(C)n1-c1cccc(C(=O)N2CCNC(=O)C2)c1 (nonaromatic ring conformer: 124.22457473202788 kcal/mol)

>  <smiles>  (48) 
C=c1c(=Cc2[nH]c(=O)[nH]c2O)cc(C)n1-c1cccc(C(=O)N2CCNC(=O)C2)c1

>  <score_type>  (48) 
oracle

>  <origin>  (48) 
adg

>  <m_score__min__energy>  (48) 
-16.82

>  <m_primary>  (48) 
energy

$$$$
48:0
     RDKit          3D

 59 62  0  0  0  0  0  0  0  0999 V2000
   53.9800   23.7290   44.8000 C   0  0  0  0  0  0  0  0  0  0  0  0
   54.8420   24.6920   45.5430 C   0  0  0  0  0  0  0  0  0  0  0  0
   56.0560   24.4100   46.1360 C   0  0  0  0  0  0  0  0  0  0  0  0
   56.4370   25.6320   46.6420 C   0  0  0  0  0  0  0  0  0  0  0  0
   57.5380   25.8520   47.2900 N   0  0  0  0  0  0  0  0  0  0  0  0
   58.5130   27.2660   47.0570 S   0  0  0  0  0  0  0  0  0  0  0  0
   58.4550   28.1370   48.2810 O   0  0  0  0  0  0  0  0  0  0  0  0
   59.9410   26.8480   46.8440 O   0  0  0  0  0  0  0  0  0  0  0  0
   57.9430   28.1510   45.6450 C   0  0  0  0  0  0  0  0  0  0  0  0
   57.8930   27.5240   44.3930 C   0  0  0  0  0  0  0  0  0  0  0  0
   57.4320   28.2230   43.2760 C   0  0  0  0  0  0  0  0  0  0  0  0
   57.0000   29.5450   43.4060 C   0  0  0  0  0  0  0  0  0  0  0  0
   57.0110   30.1740   44.6560 C   0  0  0  0  0  0  0  0  0  0  0  0
   56.5580   31.5320   44.7470 N   0  0  0  0  0  0  0  0  0  0  0  0
   57.3740   32.7080   44.6690 C   0  0  0  0  0  0  0  0  0  0  0  0
   57.8460   33.0960   43.5660 O   0  0  0  0  0  0  0  0  0  0  0  0
   57.6990   33.4630   45.9190 C   0  0  0  0  0  0  0  0  0  0  0  0
   59.1650   33.5290   46.1090 N   0  0  0  0  0  0  0  0  0  0  0  0
   59.7420   32.2100   46.4390 C   0  0  0  0  0  0  0  0  0  0  0  0
   59.3300   31.7220   47.8470 C   0  0  0  0  0  0  0  0  0  0  0  0
   58.8490   32.8290   48.6990 N   0  0  0  0  0  0  0  0  0  0  0  0
   58.7730   32.4100   50.1110 C   0  0  0  0  0  0  0  0  0  0  0  0
   59.7260   31.2690   50.3690 C   0  0  0  0  0  0  0  0  0  0  0  0
   61.1120   31.4980   50.3910 C   0  0  0  0  0  0  0  0  0  0  0  0
   61.9970   30.4500   50.6530 C   0  0  0  0  0  0  0  0  0  0  0  0
   61.5080   29.1640   50.8960 C   0  0  0  0  0  0  0  0  0  0  0  0
   60.1320   28.9240   50.8780 C   0  0  0  0  0  0  0  0  0  0  0  0
   59.2360   29.9710   50.6170 C   0  0  0  0  0  0  0  0  0  0  0  0
   57.8620   29.7270   50.6050 O   0  0  0  0  0  0  0  0  0  0  0  0
   59.7040   34.0170   48.5300 C   0  0  0  0  0  0  0  0  0  0  0  0
   59.5720   34.5620   47.0930 C   0  0  0  0  0  0  0  0  0  0  0  0
   57.5100   29.4790   45.7730 C   0  0  0  0  0  0  0  0  0  0  0  0
   55.5120   26.5720   46.3640 N   0  0  0  0  0  0  0  0  0  0  0  0
   54.5680   25.9690   45.7000 O   0  0  0  0  0  0  0  0  0  0  0  0
   53.4233   23.1070   45.5164 H   0  0  0  0  0  0  0  0  0  0  0  0
   53.2711   24.2837   44.1677 H   0  0  0  0  0  0  0  0  0  0  0  0
   54.6096   23.0857   44.1677 H   0  0  0  0  0  0  0  0  0  0  0  0
   56.5869   23.4481   46.1906 H   0  0  0  0  0  0  0  0  0  0  0  0
   58.2179   26.4781   44.2900 H   0  0  0  0  0  0  0  0  0  0  0  0
   57.4089   27.7320   42.2919 H   0  0  0  0  0  0  0  0  0  0  0  0
   56.6490   30.0950   42.5204 H   0  0  0  0  0  0  0  0  0  0  0  0
   57.2962   34.4837   45.8422 H   0  0  0  0  0  0  0  0  0  0  0  0
   57.2484   32.9454   46.7786 H   0  0  0  0  0  0  0  0  0  0  0  0
   59.3956   31.4769   45.6957 H   0  0  0  0  0  0  0  0  0  0  0  0
   60.8373   32.3104   46.4260 H   0  0  0  0  0  0  0  0  0  0  0  0
   58.5260   30.9785   47.7437 H   0  0  0  0  0  0  0  0  0  0  0  0
   60.2176   31.2850   48.3277 H   0  0  0  0  0  0  0  0  0  0  0  0
   59.0402   33.2595   50.7568 H   0  0  0  0  0  0  0  0  0  0  0  0
   57.7479   32.0778   50.3317 H   0  0  0  0  0  0  0  0  0  0  0  0
   61.5023   32.5087   50.2007 H   0  0  0  0  0  0  0  0  0  0  0  0
   63.0808   30.6373   50.6681 H   0  0  0  0  0  0  0  0  0  0  0  0
   62.2070   28.3399   51.1016 H   0  0  0  0  0  0  0  0  0  0  0  0
   59.7499   27.9104   51.0692 H   0  0  0  0  0  0  0  0  0  0  0  0
   57.4110   29.2650   49.8250 H   0  0  0  0  0  0  0  0  0  0  0  0
   59.3934   34.7939   49.2442 H   0  0  0  0  0  0  0  0  0  0  0  0
   60.7516   33.7372   48.7152 H   0  0  0  0  0  0  0  0  0  0  0  0
   58.8176   35.3626   47.0911 H   0  0  0  0  0  0  0  0  0  0  0  0
   60.5645   34.9272   46.7905 H   0  0  0  0  0  0  0  0  0  0  0  0
   57.5608   29.9795   46.7512 H   0  0  0  0  0  0  0  0  0  0  0  0
  1  2  1  0
  2  3  2  0
  3  4  1  0
  4  5  2  3
  5  6  1  0
  6  7  2  0
  6  8  2  0
  6  9  1  0
  9 10  2  0
 10 11  1  0
 11 12  2  0
 12 13  1  0
 13 14  1  0
 14 15  1  0
 15 16  2  0
 15 17  1  0
 17 18  1  0
 18 19  1  0
 19 20  1  0
 20 21  1  0
 21 22  1  0
 22 23  1  0
 23 24  2  0
 24 25  1  0
 25 26  2  0
 26 27  1  0
 27 28  2  0
 28 29  1  0
 21 30  1  0
 30 31  1  0
 13 32  2  0
  4 33  1  0
 33 34  1  0
 34  2  1  0
 32  9  1  0
 31 18  1  0
 28 23  1  0
  1 35  1  0
  1 36  1  0
  1 37  1  0
  3 38  1  0
 10 39  1  0
 11 40  1  0
 12 41  1  0
 17 42  1  0
 17 43  1  0
 19 44  1  0
 19 45  1  0
 20 46  1  0
 20 47  1  0
 22 48  1  0
 22 49  1  0
 24 50  1  0
 25 51  1  0
 26 52  1  0
 27 53  1  0
 29 54  1  0
 30 55  1  0
 30 56  1  0
 31 57  1  0
 31 58  1  0
 32 59  1  0
M  CHG  2  14  -1  33  -1
M  END
>  <UniqueID>  (49) 
43

>  <SMILES>  (49) 
Cc1cc(=NS(=O)(=O)c2cccc([N-]C(=O)CN3CCN(Cc4ccccc4O)CC3)c2)[n-]o1

>  <Energy>  (49) 
107.53347503215825

>  <Genealogy>  (49) 
Cc1cc(=NS(=O)(=O)c2cccc([N-]C(=O)CN3CCN(Cc4ccccc4O)CC3)c2)[n-]o1 (protonated)
Cc1cc(=NS(=O)(=O)c2cccc([N-]C(=O)CN3CCN(Cc4ccccc4O)CC3)c2)[n-]o1 (3D coordinates assigned)
Cc1cc(=NS(=O)(=O)c2cccc([N-]C(=O)CN3CCN(Cc4ccccc4O)CC3)c2)[n-]o1 (nonaromatic ring conformer: 107.53347503215825 kcal/mol)

>  <smiles>  (49) 
Cc1cc(=NS(=O)(=O)c2cccc(NC(=O)CN3CCN(Cc4ccccc4O)CC3)c2)[nH]o1

>  <score_type>  (49) 
oracle

>  <origin>  (49) 
adg

>  <m_score__min__energy>  (49) 
-13.039999999999999

>  <m_primary>  (49) 
energy

$$$$
49:0
     RDKit          3D

 75 80  0  0  0  0  0  0  0  0999 V2000
   58.5990   30.9660   48.3270 O   0  0  0  0  0  0  0  0  0  0  0  0
   59.5270   30.2930   48.8510 C   0  0  0  0  0  0  0  0  0  0  0  0
   59.9480   29.0580   48.2410 N   0  0  0  0  0  0  0  0  0  0  0  0
   59.2120   28.3700   47.2160 C   0  0  0  0  0  0  0  0  0  0  0  0
   59.6860   27.1380   46.7420 C   0  0  0  0  0  0  0  0  0  0  0  0
   58.9770   26.4340   45.7690 C   0  0  0  0  0  0  0  0  0  0  0  0
   57.7740   26.9430   45.2740 C   0  0  0  0  0  0  0  0  0  0  0  0
   57.2660   28.1550   45.7520 C   0  0  0  0  0  0  0  0  0  0  0  0
   56.0360   28.6020   45.2420 O   0  0  0  0  0  0  0  0  0  0  0  0
   55.8630   29.3510   44.0380 C   0  0  0  0  0  0  0  0  0  0  0  0
   56.6910   30.6020   44.0620 C   0  0  0  0  0  0  0  0  0  0  0  0
   57.2730   31.0960   42.8950 C   0  0  0  0  0  0  0  0  0  0  0  0
   58.0140   32.2760   42.9560 C   0  0  0  0  0  0  0  0  0  0  0  0
   58.5390   32.7180   41.8960 O   0  0  0  0  0  0  0  0  0  0  0  0
   58.1710   32.9350   44.1500 N   0  0  0  0  0  0  0  0  0  0  0  0
   58.8910   34.1030   44.2180 C   0  0  0  0  0  0  0  0  0  0  0  0
   59.0520   34.7700   45.4340 C   0  0  0  0  0  0  0  0  0  0  0  0
   58.4840   34.2420   46.5900 C   0  0  0  0  0  0  0  0  0  0  0  0
   57.7540   33.0590   46.5220 C   0  0  0  0  0  0  0  0  0  0  0  0
   57.6000   32.4120   45.2910 C   0  0  0  0  0  0  0  0  0  0  0  0
   56.8770   31.2650   45.2310 N   0  0  0  0  0  0  0  0  0  0  0  0
   57.9920   28.8710   46.7250 C   0  0  0  0  0  0  0  0  0  0  0  0
   60.2040   30.8090   50.0680 C   0  0  0  0  0  0  0  0  0  0  0  0
   59.7330   31.9550   50.7340 C   0  0  0  0  0  0  0  0  0  0  0  0
   60.3650   32.4120   51.8950 C   0  0  0  0  0  0  0  0  0  0  0  0
   61.4910   31.7460   52.3950 C   0  0  0  0  0  0  0  0  0  0  0  0
   62.3060   32.3360   53.8430 S   0  0  0  0  0  0  0  0  0  0  0  0
   62.3160   31.2450   54.8770 O   0  0  0  0  0  0  0  0  0  0  0  0
   61.5340   33.4940   54.4080 O   0  0  0  0  0  0  0  0  0  0  0  0
   63.9440   32.8550   53.5170 N   0  0  0  0  0  0  0  0  0  0  0  0
   64.7860   31.7970   52.9120 C   0  0  0  0  0  0  0  0  0  0  0  0
   65.3510   32.1860   51.5450 C   0  0  0  0  0  0  0  0  0  0  0  0
   64.2810   32.7930   50.7400 N   0  0  0  0  0  0  0  0  0  0  0  0
   64.6920   32.9460   49.3270 C   0  0  0  0  0  0  0  0  0  0  0  0
   63.5050   32.8000   48.4100 C   0  0  0  0  0  0  0  0  0  0  0  0
   62.7670   33.9310   48.0290 C   0  0  0  0  0  0  0  0  0  0  0  0
   61.6470   33.7980   47.2030 C   0  0  0  0  0  0  0  0  0  0  0  0
   61.2550   32.5340   46.7530 C   0  0  0  0  0  0  0  0  0  0  0  0
   61.9830   31.4020   47.1290 C   0  0  0  0  0  0  0  0  0  0  0  0
   63.1060   31.5330   47.9530 C   0  0  0  0  0  0  0  0  0  0  0  0
   63.8850   34.1010   51.3070 C   0  0  0  0  0  0  0  0  0  0  0  0
   64.0000   34.1710   52.8510 C   0  0  0  0  0  0  0  0  0  0  0  0
   61.9810   30.6220   51.7200 C   0  0  0  0  0  0  0  0  0  0  0  0
   61.3430   30.1550   50.5680 C   0  0  0  0  0  0  0  0  0  0  0  0
   60.9050   28.7000   48.4600 H   0  0  0  0  0  0  0  0  0  0  0  0
   60.6239   26.7240   47.1406 H   0  0  0  0  0  0  0  0  0  0  0  0
   59.3655   25.4769   45.3909 H   0  0  0  0  0  0  0  0  0  0  0  0
   57.2221   26.3862   44.5024 H   0  0  0  0  0  0  0  0  0  0  0  0
   56.1699   28.7324   43.1818 H   0  0  0  0  0  0  0  0  0  0  0  0
   54.8034   29.6325   43.9484 H   0  0  0  0  0  0  0  0  0  0  0  0
   57.1495   30.5630   41.9407 H   0  0  0  0  0  0  0  0  0  0  0  0
   59.3451   34.5168   43.3055 H   0  0  0  0  0  0  0  0  0  0  0  0
   59.6248   35.7080   45.4783 H   0  0  0  0  0  0  0  0  0  0  0  0
   58.6116   34.7576   47.5532 H   0  0  0  0  0  0  0  0  0  0  0  0
   57.3009   32.6353   47.4304 H   0  0  0  0  0  0  0  0  0  0  0  0
   57.6025   29.8277   47.1031 H   0  0  0  0  0  0  0  0  0  0  0  0
   58.8607   32.4960   50.3386 H   0  0  0  0  0  0  0  0  0  0  0  0
   59.9760   33.2983   52.4176 H   0  0  0  0  0  0  0  0  0  0  0  0
   65.6258   31.5875   53.5908 H   0  0  0  0  0  0  0  0  0  0  0  0
   64.1460   30.9149   52.7626 H   0  0  0  0  0  0  0  0  0  0  0  0
   66.1692   32.9094   51.6764 H   0  0  0  0  0  0  0  0  0  0  0  0
   65.7382   31.2917   51.0347 H   0  0  0  0  0  0  0  0  0  0  0  0
   65.1373   33.9419   49.1859 H   0  0  0  0  0  0  0  0  0  0  0  0
   65.4256   32.1630   49.0845 H   0  0  0  0  0  0  0  0  0  0  0  0
   63.0713   34.9274   48.3821 H   0  0  0  0  0  0  0  0  0  0  0  0
   61.0737   34.6889   46.9069 H   0  0  0  0  0  0  0  0  0  0  0  0
   60.3736   32.4304   46.1030 H   0  0  0  0  0  0  0  0  0  0  0  0
   61.6728   30.4071   46.7768 H   0  0  0  0  0  0  0  0  0  0  0  0
   63.6789   30.6402   48.2442 H   0  0  0  0  0  0  0  0  0  0  0  0
   64.5333   34.8775   50.8749 H   0  0  0  0  0  0  0  0  0  0  0  0
   62.8247   34.2524   51.0563 H   0  0  0  0  0  0  0  0  0  0  0  0
   64.9585   34.6470   53.1053 H   0  0  0  0  0  0  0  0  0  0  0  0
   63.1335   34.7463   53.2091 H   0  0  0  0  0  0  0  0  0  0  0  0
   62.8739   30.1031   52.0988 H   0  0  0  0  0  0  0  0  0  0  0  0
   61.7353   29.2684   50.0483 H   0  0  0  0  0  0  0  0  0  0  0  0
  1  2  2  0
  2  3  1  0
  3  4  1  0
  4  5  2  0
  5  6  1  0
  6  7  2  0
  7  8  1  0
  8  9  1  0
  9 10  1  0
 10 11  1  0
 11 12  2  0
 12 13  1  0
 13 14  2  0
 13 15  1  0
 15 16  1  0
 16 17  2  0
 17 18  1  0
 18 19  2  0
 19 20  1  0
 20 21  2  0
  8 22  2  0
  2 23  1  0
 23 24  2  0
 24 25  1  0
 25 26  2  0
 26 27  1  0
 27 28  2  0
 27 29  2  0
 27 30  1  0
 30 31  1  0
 31 32  1  0
 32 33  1  0
 33 34  1  0
 34 35  1  0
 35 36  2  0
 36 37  1  0
 37 38  2  0
 38 39  1  0
 39 40  2  0
 33 41  1  0
 41 42  1  0
 26 43  1  0
 43 44  2  0
 22  4  1  0
 44 23  1  0
 21 11  1  0
 42 30  1  0
 20 15  1  0
 40 35  1  0
  3 45  1  0
  5 46  1  0
  6 47  1  0
  7 48  1  0
 10 49  1  0
 10 50  1  0
 12 51  1  0
 16 52  1  0
 17 53  1  0
 18 54  1  0
 19 55  1  0
 22 56  1  0
 24 57  1  0
 25 58  1  0
 31 59  1  0
 31 60  1  0
 32 61  1  0
 32 62  1  0
 34 63  1  0
 34 64  1  0
 36 65  1  0
 37 66  1  0
 38 67  1  0
 39 68  1  0
 40 69  1  0
 41 70  1  0
 41 71  1  0
 42 72  1  0
 42 73  1  0
 43 74  1  0
 44 75  1  0
M  END
>  <UniqueID>  (50) 
44

>  <SMILES>  (50) 
O=C(Nc1cccc(OCc2cc(=O)n3ccccc3n2)c1)c1ccc(S(=O)(=O)N2CCN(Cc3ccccc3)CC2)cc1

>  <Energy>  (50) 
100.68595633219338

>  <Genealogy>  (50) 
O=C(Nc1cccc(OCc2cc(=O)n3ccccc3n2)c1)c1ccc(S(=O)(=O)N2CCN(Cc3ccccc3)CC2)cc1 (3D coordinates assigned)
O=C(Nc1cccc(OCc2cc(=O)n3ccccc3n2)c1)c1ccc(S(=O)(=O)N2CCN(Cc3ccccc3)CC2)cc1 (nonaromatic ring conformer: 100.68595633219338 kcal/mol)

>  <smiles>  (50) 
O=C(Nc1cccc(OCc2cc(=O)n3ccccc3n2)c1)c1ccc(S(=O)(=O)N2CCN(Cc3ccccc3)CC2)cc1

>  <score_type>  (50) 
oracle

>  <origin>  (50) 
adg

>  <m_score__min__energy>  (50) 
-10.34

>  <m_primary>  (50) 
energy

$$$$
50:0
     RDKit          3D

 42 44  0  0  0  0  0  0  0  0999 V2000
   56.3090   30.4720   44.6050 O   0  0  0  0  0  0  0  0  0  0  0  0
   57.3800   30.6200   45.2540 C   0  0  0  0  0  0  0  0  0  0  0  0
   57.9210   31.9880   45.4380 C   0  0  0  0  0  0  0  0  0  0  0  0
   58.3470   32.7540   44.3360 C   0  0  0  0  0  0  0  0  0  0  0  0
   58.8390   34.0490   44.5220 C   0  0  0  0  0  0  0  0  0  0  0  0
   58.9010   34.5990   45.8050 C   0  0  0  0  0  0  0  0  0  0  0  0
   58.4660   33.8540   46.9050 C   0  0  0  0  0  0  0  0  0  0  0  0
   57.9730   32.5580   46.7230 C   0  0  0  0  0  0  0  0  0  0  0  0
   58.0530   29.4190   45.8060 C   0  0  0  0  0  0  0  0  0  0  0  0
   59.0940   29.5410   46.7440 C   0  0  0  0  0  0  0  0  0  0  0  0
   59.7180   28.4020   47.2560 C   0  0  0  0  0  0  0  0  0  0  0  0
   59.3000   27.1310   46.8560 C   0  0  0  0  0  0  0  0  0  0  0  0
   58.2370   26.9850   45.9540 C   0  0  0  0  0  0  0  0  0  0  0  0
   57.8340   25.6670   45.5480 N   0  0  0  0  0  0  0  0  0  0  0  0
   56.4650   25.2380   45.4570 C   0  0  0  0  0  0  0  0  0  0  0  0
   55.5480   25.9190   45.9940 O   0  0  0  0  0  0  0  0  0  0  0  0
   56.1250   23.9390   44.7720 C   0  0  0  0  0  0  0  0  0  0  0  0
   56.5840   23.9530   43.3070 C   0  0  0  0  0  0  0  0  0  0  0  0
   56.2950   22.5940   42.6250 C   0  0  0  0  0  0  0  0  0  0  0  0
   55.8940   21.5840   43.5380 O   0  0  0  0  0  0  0  0  0  0  0  0
   56.8210   21.4950   44.6020 C   0  0  0  0  0  0  0  0  0  0  0  0
   56.7400   22.7340   45.5140 C   0  0  0  0  0  0  0  0  0  0  0  0
   57.6250   28.1360   45.4220 C   0  0  0  0  0  0  0  0  0  0  0  0
   58.2923   32.3306   43.3222 H   0  0  0  0  0  0  0  0  0  0  0  0
   59.1782   34.6366   43.6562 H   0  0  0  0  0  0  0  0  0  0  0  0
   59.2917   35.6171   45.9493 H   0  0  0  0  0  0  0  0  0  0  0  0
   58.5115   34.2877   47.9149 H   0  0  0  0  0  0  0  0  0  0  0  0
   57.6233   31.9800   47.5911 H   0  0  0  0  0  0  0  0  0  0  0  0
   59.4179   30.5385   47.0757 H   0  0  0  0  0  0  0  0  0  0  0  0
   60.5420   28.5061   47.9772 H   0  0  0  0  0  0  0  0  0  0  0  0
   59.8080   26.2390   47.2512 H   0  0  0  0  0  0  0  0  0  0  0  0
   58.5820   24.9530   45.3910 H   0  0  0  0  0  0  0  0  0  0  0  0
   55.0304   23.8324   44.7944 H   0  0  0  0  0  0  0  0  0  0  0  0
   56.0466   24.7476   42.7687 H   0  0  0  0  0  0  0  0  0  0  0  0
   57.6683   24.1364   43.2800 H   0  0  0  0  0  0  0  0  0  0  0  0
   55.4919   22.7370   41.8871 H   0  0  0  0  0  0  0  0  0  0  0  0
   57.2317   22.2578   42.1565 H   0  0  0  0  0  0  0  0  0  0  0  0
   56.6001   20.5963   45.1966 H   0  0  0  0  0  0  0  0  0  0  0  0
   57.8346   21.4390   44.1783 H   0  0  0  0  0  0  0  0  0  0  0  0
   56.1160   22.4952   46.3879 H   0  0  0  0  0  0  0  0  0  0  0  0
   57.7603   23.0026   45.8251 H   0  0  0  0  0  0  0  0  0  0  0  0
   56.8033   28.0303   44.6983 H   0  0  0  0  0  0  0  0  0  0  0  0
  1  2  2  0
  2  3  1  0
  3  4  2  0
  4  5  1  0
  5  6  2  0
  6  7  1  0
  7  8  2  0
  2  9  1  0
  9 10  2  0
 10 11  1  0
 11 12  2  0
 12 13  1  0
 13 14  1  0
 14 15  1  0
 15 16  2  0
 15 17  1  0
 17 18  1  0
 18 19  1  0
 19 20  1  0
 20 21  1  0
 21 22  1  0
 13 23  2  0
  8  3  1  0
 23  9  1  0
 22 17  1  0
  4 24  1  0
  5 25  1  0
  6 26  1  0
  7 27  1  0
  8 28  1  0
 10 29  1  0
 11 30  1  0
 12 31  1  0
 14 32  1  0
 17 33  1  0
 18 34  1  0
 18 35  1  0
 19 36  1  0
 19 37  1  0
 21 38  1  0
 21 39  1  0
 22 40  1  0
 22 41  1  0
 23 42  1  0
M  END
>  <UniqueID>  (51) 
45

>  <SMILES>  (51) 
O=C(c1ccccc1)c1cccc(NC(=O)C2CCOCC2)c1

>  <Energy>  (51) 
59.04324579254976

>  <Genealogy>  (51) 
O=C(c1ccccc1)c1cccc(NC(=O)C2CCOCC2)c1 (3D coordinates assigned)
O=C(c1ccccc1)c1cccc(NC(=O)C2CCOCC2)c1 (nonaromatic ring conformer: 59.04324579254976 kcal/mol)

>  <smiles>  (51) 
O=C(c1ccccc1)c1cccc(NC(=O)C2CCOCC2)c1

>  <score_type>  (51) 
oracle

>  <origin>  (51) 
adg

>  <m_score__min__energy>  (51) 
-9.1799999999999997

>  <m_primary>  (51) 
energy

$$$$
51:0
     RDKit          3D

 30 31  0  0  0  0  0  0  0  0999 V2000
   52.1740   22.1750   45.2420 N   0  0  0  0  0  0  0  0  0  0  0  0
   52.8060   23.7310   44.8350 S   0  0  0  0  0  0  0  0  0  0  0  0
   53.5780   23.6270   43.5500 O   0  0  0  0  0  0  0  0  0  0  0  0
   51.6830   24.7110   44.6560 O   0  0  0  0  0  0  0  0  0  0  0  0
   53.8710   24.2800   46.0890 N   0  0  0  0  0  0  0  0  0  0  0  0
   55.3030   24.3210   46.0040 C   0  0  0  0  0  0  0  0  0  0  0  0
   56.0740   23.1470   45.9820 C   0  0  0  0  0  0  0  0  0  0  0  0
   57.4640   23.2220   45.8980 C   0  0  0  0  0  0  0  0  0  0  0  0
   58.0990   24.4620   45.8350 C   0  0  0  0  0  0  0  0  0  0  0  0
   57.3520   25.6550   45.8550 C   0  0  0  0  0  0  0  0  0  0  0  0
   58.0580   26.9640   45.7860 C   0  0  0  0  0  0  0  0  0  0  0  0
   59.2790   27.0080   45.4720 O   0  0  0  0  0  0  0  0  0  0  0  0
   57.3420   28.1760   46.0820 N   0  0  0  0  0  0  0  0  0  0  0  0
   57.4220   29.3140   45.4540 C   0  0  0  0  0  0  0  0  0  0  0  0
   58.5420   30.0900   45.5340 N   0  0  0  0  0  0  0  0  0  0  0  0
   58.6450   31.2810   44.8860 C   0  0  0  0  0  0  0  0  0  0  0  0
   57.5850   31.7460   44.1070 C   0  0  0  0  0  0  0  0  0  0  0  0
   56.4250   30.9750   44.0030 C   0  0  0  0  0  0  0  0  0  0  0  0
   56.3360   29.7520   44.6780 C   0  0  0  0  0  0  0  0  0  0  0  0
   55.1820   28.9740   44.5810 O   0  0  0  0  0  0  0  0  0  0  0  0
   55.9410   25.5700   45.9400 C   0  0  0  0  0  0  0  0  0  0  0  0
   55.1590   26.7220   45.9630 O   0  0  0  0  0  0  0  0  0  0  0  0
   51.3950   21.9780   44.5740 H   0  0  0  0  0  0  0  0  0  0  0  0
   55.5798   22.1655   46.0312 H   0  0  0  0  0  0  0  0  0  0  0  0
   58.0622   22.2990   45.8814 H   0  0  0  0  0  0  0  0  0  0  0  0
   59.1960   24.5084   45.7689 H   0  0  0  0  0  0  0  0  0  0  0  0
   59.5644   31.8781   44.9760 H   0  0  0  0  0  0  0  0  0  0  0  0
   57.6620   32.7089   43.5807 H   0  0  0  0  0  0  0  0  0  0  0  0
   55.5821   31.3286   43.3911 H   0  0  0  0  0  0  0  0  0  0  0  0
   55.1430   28.0340   44.9560 H   0  0  0  0  0  0  0  0  0  0  0  0
  1  2  1  0
  2  3  2  0
  2  4  2  0
  2  5  1  0
  5  6  1  0
  6  7  2  0
  7  8  1  0
  8  9  2  0
  9 10  1  0
 10 11  1  0
 11 12  2  0
 11 13  1  0
 13 14  2  3
 14 15  1  0
 15 16  1  0
 16 17  2  0
 17 18  1  0
 18 19  2  0
 19 20  1  0
 10 21  2  0
 21 22  1  0
 21  6  1  0
 19 14  1  0
  1 23  1  0
  7 24  1  0
  8 25  1  0
  9 26  1  0
 16 27  1  0
 17 28  1  0
 18 29  1  0
 20 30  1  0
M  CHG  4   1  -1   5  -1  15  -1  22  -1
M  END
>  <UniqueID>  (52) 
46

>  <SMILES>  (52) 
[NH-]S(=O)(=O)[N-]c1cccc(C(=O)N=c2[n-]cccc2O)c1[O-]

>  <Energy>  (52) 
38.317752011272965

>  <Genealogy>  (52) 
[NH-]S(=O)(=O)[N-]c1cccc(C(=O)N=c2[n-]cccc2O)c1[O-] (protonated)
[NH-]S(=O)(=O)[N-]c1cccc(C(=O)N=c2[n-]cccc2O)c1[O-] (3D coordinates assigned)
[NH-]S(=O)(=O)[N-]c1cccc(C(=O)N=c2[n-]cccc2O)c1[O-] (optimized conformer: 38.317752011272965 kcal/mol)

>  <smiles>  (52) 
NS(=O)(=O)Nc1cccc(C(=O)N=c2[nH]cccc2O)c1O

>  <score_type>  (52) 
oracle

>  <origin>  (52) 
adg

>  <m_score__min__energy>  (52) 
-16.300000000000001

>  <m_primary>  (52) 
energy

$$$$
52:0
     RDKit          3D

 54 57  0  0  0  0  0  0  0  0999 V2000
   58.4277   31.4193   44.6786 H   0  0  0  0  0  0  0  0  0  0  0  0
   58.2510   30.3460   44.8420 C   0  0  0  0  0  0  0  0  0  0  0  0
   57.9426   29.7053   44.0027 H   0  0  0  0  0  0  0  0  0  0  0  0
   58.4120   29.8170   46.0680 C   0  0  0  0  0  0  0  0  0  0  0  0
   58.2200   28.4730   46.4080 C   0  0  0  0  0  0  0  0  0  0  0  0
   57.8050   27.4740   45.6020 C   0  0  0  0  0  0  0  0  0  0  0  0
   57.8962   27.6161   44.5150 H   0  0  0  0  0  0  0  0  0  0  0  0
   57.2370   26.2040   46.0880 C   0  0  0  0  0  0  0  0  0  0  0  0
   57.9880   25.1910   46.5540 N   0  0  0  0  0  0  0  0  0  0  0  0
   57.0750   24.2840   46.9640 C   0  0  0  0  0  0  0  0  0  0  0  0
   57.3980   23.1730   47.4570 O   0  0  0  0  0  0  0  0  0  0  0  0
   55.7900   24.6670   46.8110 N   0  0  0  0  0  0  0  0  0  0  0  0
   55.9070   25.8880   46.2680 C   0  0  0  0  0  0  0  0  0  0  0  0
   54.8250   26.7130   45.9880 O   0  0  0  0  0  0  0  0  0  0  0  0
   58.4770   28.3750   47.7660 C   0  0  0  0  0  0  0  0  0  0  0  0
   58.4139   27.4656   48.3816 H   0  0  0  0  0  0  0  0  0  0  0  0
   58.8270   29.6370   48.1970 C   0  0  0  0  0  0  0  0  0  0  0  0
   59.1100   29.9870   49.6270 C   0  0  0  0  0  0  0  0  0  0  0  0
   58.5572   29.3034   50.2881 H   0  0  0  0  0  0  0  0  0  0  0  0
   60.1886   29.8925   49.8211 H   0  0  0  0  0  0  0  0  0  0  0  0
   58.7918   31.0219   49.8211 H   0  0  0  0  0  0  0  0  0  0  0  0
   58.7890   30.5210   47.1710 N   0  0  0  0  0  0  0  0  0  0  0  0
   59.0450   31.9660   47.2850 C   0  0  0  0  0  0  0  0  0  0  0  0
   58.8009   32.4527   46.3292 H   0  0  0  0  0  0  0  0  0  0  0  0
   58.4181   32.3741   48.0915 H   0  0  0  0  0  0  0  0  0  0  0  0
   60.4920   32.2250   47.6170 C   0  0  0  0  0  0  0  0  0  0  0  0
   60.8550   33.3280   48.4050 C   0  0  0  0  0  0  0  0  0  0  0  0
   60.0777   34.0034   48.7918 H   0  0  0  0  0  0  0  0  0  0  0  0
   62.1990   33.5730   48.7010 C   0  0  0  0  0  0  0  0  0  0  0  0
   62.4705   34.4410   49.3197 H   0  0  0  0  0  0  0  0  0  0  0  0
   63.2060   32.7230   48.2170 C   0  0  0  0  0  0  0  0  0  0  0  0
   64.5780   33.0110   48.5430 N   0  0  0  0  0  0  0  0  0  0  0  0
   65.2660   33.1320   47.7660 H   0  0  0  0  0  0  0  0  0  0  0  0
   65.1840   33.2090   50.1570 S   0  0  0  0  0  0  0  0  0  0  0  0
   66.6030   33.7030   50.1110 O   0  0  0  0  0  0  0  0  0  0  0  0
   64.3420   34.2310   50.8680 O   0  0  0  0  0  0  0  0  0  0  0  0
   65.0740   31.6600   51.0410 C   0  0  0  0  0  0  0  0  0  0  0  0
   65.4777   30.8536   50.4111 H   0  0  0  0  0  0  0  0  0  0  0  0
   65.6543   31.7383   51.9722 H   0  0  0  0  0  0  0  0  0  0  0  0
   63.6440   31.3530   51.3820 C   0  0  0  0  0  0  0  0  0  0  0  0
   62.8960   32.2420   52.1730 C   0  0  0  0  0  0  0  0  0  0  0  0
   63.3515   33.1794   52.5248 H   0  0  0  0  0  0  0  0  0  0  0  0
   61.5740   31.9380   52.5140 C   0  0  0  0  0  0  0  0  0  0  0  0
   60.9894   32.6403   53.1265 H   0  0  0  0  0  0  0  0  0  0  0  0
   60.9950   30.7440   52.0780 C   0  0  0  0  0  0  0  0  0  0  0  0
   59.9545   30.5079   52.3455 H   0  0  0  0  0  0  0  0  0  0  0  0
   61.7370   29.8490   51.3020 C   0  0  0  0  0  0  0  0  0  0  0  0
   61.2805   28.9077   50.9622 H   0  0  0  0  0  0  0  0  0  0  0  0
   63.0580   30.1480   50.9570 C   0  0  0  0  0  0  0  0  0  0  0  0
   63.6407   29.4384   50.3512 H   0  0  0  0  0  0  0  0  0  0  0  0
   62.8380   31.6180   47.4260 C   0  0  0  0  0  0  0  0  0  0  0  0
   63.6143   30.9430   47.0364 H   0  0  0  0  0  0  0  0  0  0  0  0
   61.4940   31.3720   47.1320 C   0  0  0  0  0  0  0  0  0  0  0  0
   61.2201   30.5030   46.5157 H   0  0  0  0  0  0  0  0  0  0  0  0
  1  2  1  0
  2  3  1  0
  2  4  2  0
  4  5  1  0
  5  6  2  0
  6  7  1  0
  6  8  1  0
  8  9  1  0
  9 10  1  0
 10 11  2  0
 10 12  1  0
 12 13  1  0
 13 14  1  0
  5 15  1  0
 15 16  1  0
 15 17  2  0
 17 18  1  0
 18 19  1  0
 18 20  1  0
 18 21  1  0
 17 22  1  0
 22 23  1  0
 23 24  1  0
 23 25  1  0
 23 26  1  0
 26 27  2  0
 27 28  1  0
 27 29  1  0
 29 30  1  0
 29 31  2  0
 31 32  1  0
 32 33  1  0
 32 34  1  0
 34 35  2  0
 34 36  2  0
 34 37  1  0
 37 38  1  0
 37 39  1  0
 37 40  1  0
 40 41  2  0
 41 42  1  0
 41 43  1  0
 43 44  1  0
 43 45  2  0
 45 46  1  0
 45 47  1  0
 47 48  1  0
 47 49  2  0
 49 50  1  0
 31 51  1  0
 51 52  1  0
 51 53  2  0
 53 54  1  0
 22  4  1  0
 53 26  1  0
 13  8  2  0
 49 40  1  0
M  CHG  3   9  -1  12  -1  14  -1
M  END
>  <UniqueID>  (53) 
47

>  <SMILES>  (53) 
C=c1/c(=C/c2[n-]c(=O)[n-]c2[O-])cc(C)n1Cc1ccc(NS(=O)(=O)Cc2ccccc2)cc1

>  <Energy>  (53) 
120.69603111764285

>  <Genealogy>  (53) 
C=c1c(=Cc2[n-]c(=O)[n-]c2[O-])cc(C)n1Cc1ccc(NS(=O)(=O)Cc2ccccc2)cc1 (protonated)
C=c1/c(=C/c2[n-]c(=O)[n-]c2[O-])cc(C)n1Cc1ccc(NS(=O)(=O)Cc2ccccc2)cc1 (cis-trans isomerization)
C=c1/c(=C/c2[n-]c(=O)[n-]c2[O-])cc(C)n1Cc1ccc(NS(=O)(=O)Cc2ccccc2)cc1 (3D coordinates assigned)
C=c1/c(=C/c2[n-]c(=O)[n-]c2[O-])cc(C)n1Cc1ccc(NS(=O)(=O)Cc2ccccc2)cc1 (optimized conformer: 120.69603111764285 kcal/mol)

>  <smiles>  (53) 
C=c1c(=Cc2[nH]c(=O)[nH]c2O)cc(C)n1Cc1ccc(NS(=O)(=O)Cc2ccccc2)cc1

>  <score_type>  (53) 
oracle

>  <origin>  (53) 
adg

>  <m_score__min__energy>  (53) 
-18.539999999999999

>  <m_primary>  (53) 
energy

$$$$
53:0
     RDKit          3D

 36 38  0  0  0  0  0  0  0  0999 V2000
   59.1940   35.3650   44.9060 H   0  0  0  0  0  0  0  0  0  0  0  0
   58.6110   34.6440   44.4980 O   0  0  0  0  0  0  0  0  0  0  0  0
   58.4370   33.4080   45.1170 C   0  0  0  0  0  0  0  0  0  0  0  0
   57.6260   32.4290   44.5280 C   0  0  0  0  0  0  0  0  0  0  0  0
   57.1319   32.6366   43.5674 H   0  0  0  0  0  0  0  0  0  0  0  0
   57.4380   31.1860   45.1520 C   0  0  0  0  0  0  0  0  0  0  0  0
   56.5650   30.1700   44.5180 C   0  0  0  0  0  0  0  0  0  0  0  0
   56.2190   30.3260   43.3170 O   0  0  0  0  0  0  0  0  0  0  0  0
   56.1310   28.9880   45.2100 N   0  0  0  0  0  0  0  0  0  0  0  0
   56.8130   27.8880   45.3640 C   0  0  0  0  0  0  0  0  0  0  0  0
   58.1620   27.8620   45.1600 N   0  0  0  0  0  0  0  0  0  0  0  0
   58.8950   26.7290   45.3250 C   0  0  0  0  0  0  0  0  0  0  0  0
   59.9797   26.7447   45.1431 H   0  0  0  0  0  0  0  0  0  0  0  0
   58.2720   25.5460   45.7250 C   0  0  0  0  0  0  0  0  0  0  0  0
   58.8595   24.6258   45.8598 H   0  0  0  0  0  0  0  0  0  0  0  0
   56.8950   25.5440   45.9520 C   0  0  0  0  0  0  0  0  0  0  0  0
   56.3905   24.6196   46.2698 H   0  0  0  0  0  0  0  0  0  0  0  0
   56.1580   26.7180   45.7750 C   0  0  0  0  0  0  0  0  0  0  0  0
   54.7850   26.7150   46.0060 O   0  0  0  0  0  0  0  0  0  0  0  0
   58.1140   30.9150   46.3560 C   0  0  0  0  0  0  0  0  0  0  0  0
   58.0180   29.6970   46.9480 F   0  0  0  0  0  0  0  0  0  0  0  0
   58.9240   31.8900   46.9420 C   0  0  0  0  0  0  0  0  0  0  0  0
   59.4494   31.6697   47.8830 H   0  0  0  0  0  0  0  0  0  0  0  0
   59.0730   33.1500   46.3390 C   0  0  0  0  0  0  0  0  0  0  0  0
   59.8850   34.1460   46.9040 O   0  0  0  0  0  0  0  0  0  0  0  0
   61.1210   33.9250   47.5290 C   0  0  0  0  0  0  0  0  0  0  0  0
   61.3160   34.1640   48.9030 C   0  0  0  0  0  0  0  0  0  0  0  0
   60.4793   34.5222   49.5208 H   0  0  0  0  0  0  0  0  0  0  0  0
   62.5680   33.9480   49.4850 C   0  0  0  0  0  0  0  0  0  0  0  0
   62.7124   34.1280   50.5605 H   0  0  0  0  0  0  0  0  0  0  0  0
   63.6380   33.5030   48.7010 C   0  0  0  0  0  0  0  0  0  0  0  0
   64.8820   33.2870   49.2810 O   0  0  0  0  0  0  0  0  0  0  0  0
   63.4550   33.2810   47.3330 C   0  0  0  0  0  0  0  0  0  0  0  0
   64.2968   32.9352   46.7152 H   0  0  0  0  0  0  0  0  0  0  0  0
   62.2030   33.4980   46.7490 C   0  0  0  0  0  0  0  0  0  0  0  0
   62.0671   33.3323   45.6701 H   0  0  0  0  0  0  0  0  0  0  0  0
  1  2  1  0
  2  3  1  0
  3  4  2  0
  4  5  1  0
  4  6  1  0
  6  7  1  0
  7  8  2  0
  7  9  1  0
  9 10  2  0
 10 11  1  0
 11 12  1  0
 12 13  1  0
 12 14  2  0
 14 15  1  0
 14 16  1  0
 16 17  1  0
 16 18  2  0
 18 19  1  0
  6 20  2  0
 20 21  1  0
 20 22  1  0
 22 23  1  0
 22 24  2  0
 24 25  1  0
 25 26  1  0
 26 27  2  0
 27 28  1  0
 27 29  1  0
 29 30  1  0
 29 31  2  0
 31 32  1  0
 31 33  1  0
 33 34  1  0
 33 35  2  0
 35 36  1  0
 24  3  1  0
 35 26  1  0
 18 10  1  0
M  CHG  3  11  -1  19  -1  32  -1
M  END
>  <UniqueID>  (54) 
48

>  <SMILES>  (54) 
O=C(/N=c1\[n-]cccc1[O-])c1cc(O)c(Oc2ccc([O-])cc2)cc1F

>  <Energy>  (54) 
55.424920263411096

>  <Genealogy>  (54) 
O=C(N=c1[n-]cccc1[O-])c1cc(O)c(Oc2ccc([O-])cc2)cc1F (protonated)
O=C(/N=c1\[n-]cccc1[O-])c1cc(O)c(Oc2ccc([O-])cc2)cc1F (cis-trans isomerization)
O=C(/N=c1\[n-]cccc1[O-])c1cc(O)c(Oc2ccc([O-])cc2)cc1F (3D coordinates assigned)
O=C(/N=c1\[n-]cccc1[O-])c1cc(O)c(Oc2ccc([O-])cc2)cc1F (optimized conformer: 55.424920263411096 kcal/mol)

>  <smiles>  (54) 
O=C(N=c1[nH]cccc1O)c1cc(O)c(Oc2ccc(O)cc2)cc1F

>  <score_type>  (54) 
oracle

>  <origin>  (54) 
adg

>  <m_score__min__energy>  (54) 
-13.140000000000001

>  <m_primary>  (54) 
energy

$$$$
54:0
     RDKit          3D

 38 41  0  0  0  0  0  0  0  0999 V2000
   59.5800   29.3000   50.2140 O   0  0  0  0  0  0  0  0  0  0  0  0
   59.0100   30.0610   51.0400 C   0  0  0  0  0  0  0  0  0  0  0  0
   58.1500   29.5240   52.0510 N   0  0  0  0  0  0  0  0  0  0  0  0
   56.7580   29.8230   52.2400 C   0  0  0  0  0  0  0  0  0  0  0  0
   55.8560   28.8790   52.7660 C   0  0  0  0  0  0  0  0  0  0  0  0
   54.5040   29.2020   52.9120 C   0  0  0  0  0  0  0  0  0  0  0  0
   54.0320   30.4670   52.5330 C   0  0  0  0  0  0  0  0  0  0  0  0
   52.5710   30.8020   52.6540 C   0  0  0  0  0  0  0  0  0  0  0  0
   51.9720   31.0000   51.2970 C   0  0  0  0  0  0  0  0  0  0  0  0
   51.9740   29.8550   50.0600 S   0  0  0  0  0  0  0  0  0  0  0  0
   51.0660   30.8360   49.0400 C   0  0  0  0  0  0  0  0  0  0  0  0
   50.7160   30.5160   47.8750 O   0  0  0  0  0  0  0  0  0  0  0  0
   50.7400   32.0160   49.6070 N   0  0  0  0  0  0  0  0  0  0  0  0
   51.2390   32.1050   50.8680 C   0  0  0  0  0  0  0  0  0  0  0  0
   51.0220   33.2250   51.6610 O   0  0  0  0  0  0  0  0  0  0  0  0
   54.9260   31.3960   51.9760 C   0  0  0  0  0  0  0  0  0  0  0  0
   56.2770   31.0710   51.8290 C   0  0  0  0  0  0  0  0  0  0  0  0
   59.2080   31.4780   50.9840 N   0  0  0  0  0  0  0  0  0  0  0  0
   59.5770   32.2460   49.8290 C   0  0  0  0  0  0  0  0  0  0  0  0
   60.9120   32.6850   49.6120 C   0  0  0  0  0  0  0  0  0  0  0  0
   61.2340   33.4550   48.4790 C   0  0  0  0  0  0  0  0  0  0  0  0
   60.2060   33.7800   47.6010 C   0  0  0  0  0  0  0  0  0  0  0  0
   58.9280   33.3820   47.8130 C   0  0  0  0  0  0  0  0  0  0  0  0
   58.5670   32.6200   48.9210 C   0  0  0  0  0  0  0  0  0  0  0  0
   58.1240   33.8520   46.7930 O   0  0  0  0  0  0  0  0  0  0  0  0
   58.9490   34.5910   45.8820 C   0  0  0  0  0  0  0  0  0  0  0  0
   60.2710   34.5200   46.4350 O   0  0  0  0  0  0  0  0  0  0  0  0
   56.2166   27.8832   53.0633 H   0  0  0  0  0  0  0  0  0  0  0  0
   53.8061   28.4596   53.3266 H   0  0  0  0  0  0  0  0  0  0  0  0
   52.0504   29.9782   53.1643 H   0  0  0  0  0  0  0  0  0  0  0  0
   52.4625   31.7309   53.2332 H   0  0  0  0  0  0  0  0  0  0  0  0
   54.5614   32.3827   51.6544 H   0  0  0  0  0  0  0  0  0  0  0  0
   56.9686   31.8028   51.3862 H   0  0  0  0  0  0  0  0  0  0  0  0
   61.6982   32.4210   50.3346 H   0  0  0  0  0  0  0  0  0  0  0  0
   62.2656   33.7890   48.2939 H   0  0  0  0  0  0  0  0  0  0  0  0
   57.5217   32.3183   49.0829 H   0  0  0  0  0  0  0  0  0  0  0  0
   58.9238   34.1352   44.8812 H   0  0  0  0  0  0  0  0  0  0  0  0
   58.6061   35.6296   45.7644 H   0  0  0  0  0  0  0  0  0  0  0  0
  1  2  2  0
  2  3  1  0
  3  4  1  0
  4  5  2  0
  5  6  1  0
  6  7  2  0
  7  8  1  0
  8  9  1  0
  9 10  1  0
 10 11  1  0
 11 12  2  0
 11 13  1  0
 13 14  1  0
 14 15  1  0
  7 16  1  0
 16 17  2  0
  2 18  1  0
 18 19  1  0
 19 20  2  0
 20 21  1  0
 21 22  2  0
 22 23  1  0
 23 24  2  0
 23 25  1  0
 25 26  1  0
 26 27  1  0
 17  4  1  0
 24 19  1  0
 14  9  2  0
 27 22  1  0
  5 28  1  0
  6 29  1  0
  8 30  1  0
  8 31  1  0
 16 32  1  0
 17 33  1  0
 20 34  1  0
 21 35  1  0
 24 36  1  0
 26 37  1  0
 26 38  1  0
M  CHG  4   3  -1  13  -1  15  -1  18  -1
M  END
>  <UniqueID>  (55) 
49

>  <SMILES>  (55) 
O=C([N-]c1ccc(Cc2sc(=O)[n-]c2[O-])cc1)[N-]c1ccc2c(c1)OCO2

>  <Energy>  (55) 
106.17957820636558

>  <Genealogy>  (55) 
O=C([N-]c1ccc(Cc2sc(=O)[n-]c2[O-])cc1)[N-]c1ccc2c(c1)OCO2 (protonated)
O=C([N-]c1ccc(Cc2sc(=O)[n-]c2[O-])cc1)[N-]c1ccc2c(c1)OCO2 (3D coordinates assigned)
O=C([N-]c1ccc(Cc2sc(=O)[n-]c2[O-])cc1)[N-]c1ccc2c(c1)OCO2 (nonaromatic ring conformer: 106.17957820636558 kcal/mol)

>  <smiles>  (55) 
O=C(Nc1ccc(Cc2sc(=O)[nH]c2O)cc1)Nc1ccc2c(c1)OCO2

>  <score_type>  (55) 
oracle

>  <origin>  (55) 
adg

>  <m_score__min__energy>  (55) 
-16.18

>  <m_primary>  (55) 
energy

$$$$
55:0
     RDKit          3D

 40 43  0  0  0  0  0  0  0  0999 V2000
   64.4390   24.9030   52.4250 H   0  0  0  0  0  0  0  0  0  0  0  0
   63.4090   24.8670   52.2500 N   0  0  0  0  0  0  0  0  0  0  0  0
   62.6020   25.6930   52.8320 C   0  0  0  0  0  0  0  0  0  0  0  0
   62.8230   26.1670   54.0720 N   0  0  0  0  0  0  0  0  0  0  0  0
   61.7700   26.9740   54.2940 C   0  0  0  0  0  0  0  0  0  0  0  0
   61.5922   27.5507   55.2137 H   0  0  0  0  0  0  0  0  0  0  0  0
   60.9460   26.9640   53.1830 C   0  0  0  0  0  0  0  0  0  0  0  0
   59.6770   27.7120   52.9990 C   0  0  0  0  0  0  0  0  0  0  0  0
   58.5830   27.5250   53.8650 C   0  0  0  0  0  0  0  0  0  0  0  0
   58.6628   26.8114   54.6983 H   0  0  0  0  0  0  0  0  0  0  0  0
   57.3970   28.2380   53.6750 C   0  0  0  0  0  0  0  0  0  0  0  0
   56.5496   28.0825   54.3589 H   0  0  0  0  0  0  0  0  0  0  0  0
   57.2810   29.1510   52.6170 C   0  0  0  0  0  0  0  0  0  0  0  0
   56.0620   29.8910   52.4230 N   0  0  0  0  0  0  0  0  0  0  0  0
   55.9750   31.2080   52.1330 C   0  0  0  0  0  0  0  0  0  0  0  0
   57.1430   32.1300   51.9500 C   0  0  0  0  0  0  0  0  0  0  0  0
   57.5280   32.4339   52.9346 H   0  0  0  0  0  0  0  0  0  0  0  0
   57.9355   31.6113   51.3906 H   0  0  0  0  0  0  0  0  0  0  0  0
   56.8225   33.0212   51.3906 H   0  0  0  0  0  0  0  0  0  0  0  0
   54.6540   31.5950   52.0540 C   0  0  0  0  0  0  0  0  0  0  0  0
   54.2797   32.6120   51.8650 H   0  0  0  0  0  0  0  0  0  0  0  0
   53.8880   30.4590   52.2580 C   0  0  0  0  0  0  0  0  0  0  0  0
   52.5440   30.4600   52.1660 C   0  0  0  0  0  0  0  0  0  0  0  0
   51.9779   30.1791   53.0664 H   0  0  0  0  0  0  0  0  0  0  0  0
   51.7680   30.8050   50.9630 C   0  0  0  0  0  0  0  0  0  0  0  0
   51.7230   30.0630   49.8400 N   0  0  0  0  0  0  0  0  0  0  0  0
   51.0180   30.8350   48.9860 C   0  0  0  0  0  0  0  0  0  0  0  0
   50.7460   30.4710   47.8120 O   0  0  0  0  0  0  0  0  0  0  0  0
   50.6360   32.0300   49.4840 N   0  0  0  0  0  0  0  0  0  0  0  0
   51.1320   31.9990   50.7310 C   0  0  0  0  0  0  0  0  0  0  0  0
   51.0100   33.0450   51.6370 O   0  0  0  0  0  0  0  0  0  0  0  0
   54.7920   29.4220   52.5350 C   0  0  0  0  0  0  0  0  0  0  0  0
   54.5000   28.2020   53.0130 C   0  0  0  0  0  0  0  0  0  0  0  0
   55.3048   27.4730   53.1887 H   0  0  0  0  0  0  0  0  0  0  0  0
   53.4559   27.9313   53.2290 H   0  0  0  0  0  0  0  0  0  0  0  0
   58.3660   29.3410   51.7510 C   0  0  0  0  0  0  0  0  0  0  0  0
   58.2832   30.0555   50.9187 H   0  0  0  0  0  0  0  0  0  0  0  0
   59.5520   28.6280   51.9390 C   0  0  0  0  0  0  0  0  0  0  0  0
   60.3964   28.7843   51.2516 H   0  0  0  0  0  0  0  0  0  0  0  0
   61.4740   26.1480   52.2510 N   0  0  0  0  0  0  0  0  0  0  0  0
  1  2  1  0
  2  3  2  3
  3  4  1  0
  4  5  1  0
  5  6  1  0
  5  7  2  0
  7  8  1  0
  8  9  2  0
  9 10  1  0
  9 11  1  0
 11 12  1  0
 11 13  2  0
 13 14  1  0
 14 15  1  0
 15 16  1  0
 16 17  1  0
 16 18  1  0
 16 19  1  0
 15 20  2  0
 20 21  1  0
 20 22  1  0
 22 23  2  0
 23 24  1  0
 23 25  1  0
 25 26  1  0
 26 27  1  0
 27 28  2  0
 27 29  1  0
 29 30  1  0
 30 31  1  0
 22 32  1  0
 32 33  2  0
 33 34  1  0
 33 35  1  0
 13 36  1  0
 36 37  1  0
 36 38  2  0
 38 39  1  0
  7 40  1  0
 40  3  1  0
 38  8  1  0
 32 14  1  0
 30 25  2  0
M  CHG  5   4  -1  26  -1  29  -1  31  -1  40  -1
M  END
>  <UniqueID>  (56) 
50

>  <SMILES>  (56) 
C=c1/c(=C\c2[n-]c(=O)[n-]c2[O-])cc(C)n1-c1ccc(-c2c[n-]c(=N)[n-]2)cc1

>  <Energy>  (56) 
148.16435392377016

>  <Genealogy>  (56) 
C=c1c(=Cc2[n-]c(=O)[n-]c2[O-])cc(C)n1-c1ccc(-c2c[n-]c(=N)[n-]2)cc1 (protonated)
C=c1/c(=C\c2[n-]c(=O)[n-]c2[O-])cc(C)n1-c1ccc(-c2c[n-]c(=N)[n-]2)cc1 (cis-trans isomerization)
C=c1/c(=C\c2[n-]c(=O)[n-]c2[O-])cc(C)n1-c1ccc(-c2c[n-]c(=N)[n-]2)cc1 (3D coordinates assigned)
C=c1/c(=C\c2[n-]c(=O)[n-]c2[O-])cc(C)n1-c1ccc(-c2c[n-]c(=N)[n-]2)cc1 (optimized conformer: 148.16435392377016 kcal/mol)

>  <smiles>  (56) 
C=c1c(=Cc2[nH]c(=O)[nH]c2O)cc(C)n1-c1ccc(-c2c[nH]c(=N)[nH]2)cc1

>  <score_type>  (56) 
oracle

>  <origin>  (56) 
adg

>  <m_score__min__energy>  (56) 
-16.43

>  <m_primary>  (56) 
energy

$$$$
56:0
     RDKit          3D

 25 26  0  0  0  0  0  0  0  0999 V2000
   60.2590   27.0250   46.2710 C   0  0  0  0  0  0  0  0  0  0  0  0
   59.5650   28.1810   46.1980 C   0  0  0  0  0  0  0  0  0  0  0  0
   60.1450   29.2910   46.7380 N   0  0  0  0  0  0  0  0  0  0  0  0
   59.5880   30.5230   46.6360 C   0  0  0  0  0  0  0  0  0  0  0  0
   60.1860   31.5090   47.1490 O   0  0  0  0  0  0  0  0  0  0  0  0
   58.3950   30.6920   45.9940 N   0  0  0  0  0  0  0  0  0  0  0  0
   57.7860   32.0330   45.9230 C   0  0  0  0  0  0  0  0  0  0  0  0
   57.7160   29.6050   45.5110 C   0  0  0  0  0  0  0  0  0  0  0  0
   56.5360   29.7650   45.0920 O   0  0  0  0  0  0  0  0  0  0  0  0
   58.2960   28.3020   45.5470 C   0  0  0  0  0  0  0  0  0  0  0  0
   57.6420   27.2130   45.0460 C   0  0  0  0  0  0  0  0  0  0  0  0
   57.1450   26.0570   45.8220 C   0  0  0  0  0  0  0  0  0  0  0  0
   57.9220   25.0870   46.3410 N   0  0  0  0  0  0  0  0  0  0  0  0
   57.0540   24.3460   47.0640 C   0  0  0  0  0  0  0  0  0  0  0  0
   57.4070   23.3200   47.7000 O   0  0  0  0  0  0  0  0  0  0  0  0
   55.7820   24.7970   47.0590 N   0  0  0  0  0  0  0  0  0  0  0  0
   55.8610   25.8880   46.2790 C   0  0  0  0  0  0  0  0  0  0  0  0
   54.7820   26.7150   45.9970 O   0  0  0  0  0  0  0  0  0  0  0  0
   59.8349   26.1014   45.8503 H   0  0  0  0  0  0  0  0  0  0  0  0
   61.2485   27.0069   46.7512 H   0  0  0  0  0  0  0  0  0  0  0  0
   61.0660   29.2180   47.2320 H   0  0  0  0  0  0  0  0  0  0  0  0
   57.6139   32.4119   46.9412 H   0  0  0  0  0  0  0  0  0  0  0  0
   58.4626   32.7151   45.3874 H   0  0  0  0  0  0  0  0  0  0  0  0
   56.8271   31.9724   45.3874 H   0  0  0  0  0  0  0  0  0  0  0  0
   57.4682   27.1941   43.9600 H   0  0  0  0  0  0  0  0  0  0  0  0
  1  2  2  0
  2  3  1  0
  3  4  1  0
  4  5  2  0
  4  6  1  0
  6  7  1  0
  6  8  1  0
  8  9  2  0
  8 10  1  0
 10 11  2  3
 11 12  1  0
 12 13  1  0
 13 14  1  0
 14 15  2  0
 14 16  1  0
 16 17  1  0
 17 18  1  0
 10  2  1  0
 17 12  2  0
  1 19  1  0
  1 20  1  0
  3 21  1  0
  7 22  1  0
  7 23  1  0
  7 24  1  0
 11 25  1  0
M  CHG  3  13  -1  16  -1  18  -1
M  END
>  <UniqueID>  (57) 
51

>  <SMILES>  (57) 
C=c1[nH]c(=O)n(C)c(=O)c1=Cc1[n-]c(=O)[n-]c1[O-]

>  <Energy>  (57) 
80.03928803834658

>  <Genealogy>  (57) 
C=c1[nH]c(=O)n(C)c(=O)c1=Cc1[n-]c(=O)[n-]c1[O-] (protonated)
C=c1[nH]c(=O)n(C)c(=O)c1=Cc1[n-]c(=O)[n-]c1[O-] (3D coordinates assigned)
C=c1[nH]c(=O)n(C)c(=O)c1=Cc1[n-]c(=O)[n-]c1[O-] (optimized conformer: 80.03928803834658 kcal/mol)

>  <smiles>  (57) 
C=c1[nH]c(=O)n(C)c(=O)c1=Cc1[nH]c(=O)[nH]c1O

>  <score_type>  (57) 
oracle

>  <origin>  (57) 
adg

>  <m_score__min__energy>  (57) 
-14.949999999999999

>  <m_primary>  (57) 
energy

$$$$
57:0
     RDKit          3D

 15 15  0  0  0  0  0  0  0  0999 V2000
   59.4800   26.9120   46.2550 C   0  0  0  0  0  0  0  0  0  0  0  0
   58.4060   27.8020   45.7880 N   0  0  0  0  0  0  0  0  0  0  0  0
   58.7140   29.0940   45.4640 C   0  0  0  0  0  0  0  0  0  0  0  0
   57.7270   29.9680   45.0190 C   0  0  0  0  0  0  0  0  0  0  0  0
   56.4230   29.5020   44.9080 C   0  0  0  0  0  0  0  0  0  0  0  0
   55.5100   30.2710   44.5080 O   0  0  0  0  0  0  0  0  0  0  0  0
   56.1360   28.2140   45.2340 N   0  0  0  0  0  0  0  0  0  0  0  0
   57.1070   27.3620   45.6710 C   0  0  0  0  0  0  0  0  0  0  0  0
   56.6860   25.8140   46.0470 S   0  0  0  0  0  0  0  0  0  0  0  0
   59.4942   26.9002   47.3548 H   0  0  0  0  0  0  0  0  0  0  0  0
   59.3014   25.8935   45.8797 H   0  0  0  0  0  0  0  0  0  0  0  0
   60.4476   27.2767   45.8797 H   0  0  0  0  0  0  0  0  0  0  0  0
   59.7521   29.4460   45.5560 H   0  0  0  0  0  0  0  0  0  0  0  0
   57.9745   31.0080   44.7600 H   0  0  0  0  0  0  0  0  0  0  0  0
   55.1480   27.8780   45.1450 H   0  0  0  0  0  0  0  0  0  0  0  0
  1  2  1  0
  2  3  1  0
  3  4  2  0
  4  5  1  0
  5  6  2  0
  5  7  1  0
  7  8  1  0
  8  9  2  0
  8  2  1  0
  1 10  1  0
  1 11  1  0
  1 12  1  0
  3 13  1  0
  4 14  1  0
  7 15  1  0
M  END
>  <UniqueID>  (58) 
52

>  <SMILES>  (58) 
Cn1ccc(=O)[nH]c1=S

>  <Energy>  (58) 
17.430111812349317

>  <Genealogy>  (58) 
Cn1ccc(=O)[nH]c1=S (3D coordinates assigned)
Cn1ccc(=O)[nH]c1=S (optimized conformer: 17.430111812349317 kcal/mol)

>  <smiles>  (58) 
Cn1ccc(=O)[nH]c1=S

>  <score_type>  (58) 
oracle

>  <origin>  (58) 
adg

>  <m_score__min__energy>  (58) 
-4.4500000000000002

>  <m_primary>  (58) 
energy

$$$$
58:0
     RDKit          3D

 35 37  0  0  0  0  0  0  0  0999 V2000
   57.4080   23.2520   47.7720 O   0  0  0  0  0  0  0  0  0  0  0  0
   57.0640   24.2260   47.0520 C   0  0  0  0  0  0  0  0  0  0  0  0
   55.8640   24.8300   47.1730 N   0  0  0  0  0  0  0  0  0  0  0  0
   55.9240   25.7920   46.2380 C   0  0  0  0  0  0  0  0  0  0  0  0
   54.9020   26.7000   45.9950 O   0  0  0  0  0  0  0  0  0  0  0  0
   57.1300   25.7410   45.5810 C   0  0  0  0  0  0  0  0  0  0  0  0
   57.6120   26.6820   44.5210 C   0  0  0  0  0  0  0  0  0  0  0  0
   58.3440   27.8370   45.1480 C   0  0  0  0  0  0  0  0  0  0  0  0
   57.6960   29.0660   45.3370 C   0  0  0  0  0  0  0  0  0  0  0  0
   58.3820   30.1500   45.8920 C   0  0  0  0  0  0  0  0  0  0  0  0
   59.7320   30.0170   46.2710 C   0  0  0  0  0  0  0  0  0  0  0  0
   60.4670   31.0590   46.8610 O   0  0  0  0  0  0  0  0  0  0  0  0
   60.5250   31.3690   48.2560 C   0  0  0  0  0  0  0  0  0  0  0  0
   59.6300   32.5660   48.5970 C   0  0  0  0  0  0  0  0  0  0  0  0
   59.0760   33.2320   47.3750 C   0  0  0  0  0  0  0  0  0  0  0  0
   57.4380   33.4610   47.0500 S   0  0  0  0  0  0  0  0  0  0  0  0
   57.7510   34.1690   45.5570 C   0  0  0  0  0  0  0  0  0  0  0  0
   56.8610   34.5860   44.7710 O   0  0  0  0  0  0  0  0  0  0  0  0
   59.0690   34.2460   45.2820 N   0  0  0  0  0  0  0  0  0  0  0  0
   59.8090   33.7220   46.2960 C   0  0  0  0  0  0  0  0  0  0  0  0
   61.1990   33.6750   46.2450 O   0  0  0  0  0  0  0  0  0  0  0  0
   60.3830   28.7980   46.0510 C   0  0  0  0  0  0  0  0  0  0  0  0
   59.6980   27.7150   45.4940 C   0  0  0  0  0  0  0  0  0  0  0  0
   57.8720   24.7500   46.1040 N   0  0  0  0  0  0  0  0  0  0  0  0
   58.2913   26.1469   43.8412 H   0  0  0  0  0  0  0  0  0  0  0  0
   56.7469   27.0660   43.9605 H   0  0  0  0  0  0  0  0  0  0  0  0
   56.6409   29.1778   45.0466 H   0  0  0  0  0  0  0  0  0  0  0  0
   57.8655   31.1108   46.0333 H   0  0  0  0  0  0  0  0  0  0  0  0
   60.1887   30.4943   48.8320 H   0  0  0  0  0  0  0  0  0  0  0  0
   61.5632   31.6270   48.5120 H   0  0  0  0  0  0  0  0  0  0  0  0
   58.7928   32.2153   49.2183 H   0  0  0  0  0  0  0  0  0  0  0  0
   60.2467   33.3043   49.1306 H   0  0  0  0  0  0  0  0  0  0  0  0
   61.6910   32.7980   46.3620 H   0  0  0  0  0  0  0  0  0  0  0  0
   61.4445   28.6913   46.3192 H   0  0  0  0  0  0  0  0  0  0  0  0
   60.2226   26.7628   45.3261 H   0  0  0  0  0  0  0  0  0  0  0  0
  1  2  2  0
  2  3  1  0
  3  4  1  0
  4  5  1  0
  4  6  2  0
  6  7  1  0
  7  8  1  0
  8  9  2  0
  9 10  1  0
 10 11  2  0
 11 12  1  0
 12 13  1  0
 13 14  1  0
 14 15  1  0
 15 16  1  0
 16 17  1  0
 17 18  2  0
 17 19  1  0
 19 20  1  0
 20 21  1  0
 11 22  1  0
 22 23  2  0
  6 24  1  0
 24  2  1  0
 23  8  1  0
 20 15  2  0
  7 25  1  0
  7 26  1  0
  9 27  1  0
 10 28  1  0
 13 29  1  0
 13 30  1  0
 14 31  1  0
 14 32  1  0
 21 33  1  0
 22 34  1  0
 23 35  1  0
M  CHG  4   3  -1   5  -1  19  -1  24  -1
M  END
>  <UniqueID>  (59) 
53

>  <SMILES>  (59) 
O=c1[n-]c([O-])c(Cc2ccc(OCCc3sc(=O)[n-]c3O)cc2)[n-]1

>  <Energy>  (59) 
92.56123433002843

>  <Genealogy>  (59) 
O=c1[n-]c([O-])c(Cc2ccc(OCCc3sc(=O)[n-]c3O)cc2)[n-]1 (protonated)
O=c1[n-]c([O-])c(Cc2ccc(OCCc3sc(=O)[n-]c3O)cc2)[n-]1 (3D coordinates assigned)
O=c1[n-]c([O-])c(Cc2ccc(OCCc3sc(=O)[n-]c3O)cc2)[n-]1 (optimized conformer: 92.56123433002843 kcal/mol)

>  <smiles>  (59) 
O=c1[nH]c(O)c(Cc2ccc(OCCc3sc(=O)[nH]c3O)cc2)[nH]1

>  <score_type>  (59) 
oracle

>  <origin>  (59) 
adg

>  <m_score__min__energy>  (59) 
-15.9

>  <m_primary>  (59) 
energy

$$$$
59:0
     RDKit          3D

 43 44  0  0  0  0  0  0  0  0999 V2000
   63.3120   33.7890   47.0210 C   0  0  0  0  0  0  0  0  0  0  0  0
   61.9520   33.1800   46.9040 C   0  0  0  0  0  0  0  0  0  0  0  0
   60.9570   33.8090   46.1520 C   0  0  0  0  0  0  0  0  0  0  0  0
   59.6770   33.2290   46.0220 C   0  0  0  0  0  0  0  0  0  0  0  0
   58.5990   33.9480   45.2020 C   0  0  0  0  0  0  0  0  0  0  0  0
   57.2740   34.1640   45.9620 C   0  0  0  0  0  0  0  0  0  0  0  0
   58.3410   33.2000   43.8880 C   0  0  0  0  0  0  0  0  0  0  0  0
   59.4100   32.0200   46.7310 C   0  0  0  0  0  0  0  0  0  0  0  0
   58.0350   31.3870   46.8200 C   0  0  0  0  0  0  0  0  0  0  0  0
   57.6830   30.8440   45.5130 N   0  0  0  0  0  0  0  0  0  0  0  0
   57.0610   29.5700   45.3250 C   0  0  0  0  0  0  0  0  0  0  0  0
   55.8880   29.5200   44.8660 O   0  0  0  0  0  0  0  0  0  0  0  0
   57.7840   28.3100   45.6540 C   0  0  0  0  0  0  0  0  0  0  0  0
   59.1920   28.3190   45.6690 C   0  0  0  0  0  0  0  0  0  0  0  0
   59.9090   27.1720   45.9870 C   0  0  0  0  0  0  0  0  0  0  0  0
   59.2430   25.9920   46.2950 C   0  0  0  0  0  0  0  0  0  0  0  0
   57.8410   25.9430   46.2890 C   0  0  0  0  0  0  0  0  0  0  0  0
   57.1510   24.6530   46.6380 C   0  0  0  0  0  0  0  0  0  0  0  0
   57.1020   27.1070   45.9660 C   0  0  0  0  0  0  0  0  0  0  0  0
   55.7040   27.0780   45.9540 O   0  0  0  0  0  0  0  0  0  0  0  0
   60.4540   31.4330   47.4840 C   0  0  0  0  0  0  0  0  0  0  0  0
   60.2620   30.3670   48.1260 O   0  0  0  0  0  0  0  0  0  0  0  0
   61.6770   32.0170   47.5400 N   0  0  0  0  0  0  0  0  0  0  0  0
   63.5715   33.9052   48.0836 H   0  0  0  0  0  0  0  0  0  0  0  0
   64.0497   33.1353   46.5327 H   0  0  0  0  0  0  0  0  0  0  0  0
   63.3156   34.7747   46.5327 H   0  0  0  0  0  0  0  0  0  0  0  0
   61.1734   34.7666   45.6559 H   0  0  0  0  0  0  0  0  0  0  0  0
   58.9974   34.9516   44.9922 H   0  0  0  0  0  0  0  0  0  0  0  0
   57.4633   34.1331   47.0451 H   0  0  0  0  0  0  0  0  0  0  0  0
   56.8514   35.1429   45.6914 H   0  0  0  0  0  0  0  0  0  0  0  0
   56.5624   33.3700   45.6914 H   0  0  0  0  0  0  0  0  0  0  0  0
   57.9896   32.1813   44.1089 H   0  0  0  0  0  0  0  0  0  0  0  0
   57.5751   33.7340   43.3064 H   0  0  0  0  0  0  0  0  0  0  0  0
   59.2732   33.1483   43.3064 H   0  0  0  0  0  0  0  0  0  0  0  0
   58.0478   30.5781   47.5653 H   0  0  0  0  0  0  0  0  0  0  0  0
   57.2946   32.1418   47.1233 H   0  0  0  0  0  0  0  0  0  0  0  0
   59.7314   29.2463   45.4258 H   0  0  0  0  0  0  0  0  0  0  0  0
   61.0087   27.1982   45.9950 H   0  0  0  0  0  0  0  0  0  0  0  0
   59.8196   25.0893   46.5455 H   0  0  0  0  0  0  0  0  0  0  0  0
   57.0963   24.5507   47.7319 H   0  0  0  0  0  0  0  0  0  0  0  0
   56.1341   24.6560   46.2187 H   0  0  0  0  0  0  0  0  0  0  0  0
   57.7180   23.8088   46.2187 H   0  0  0  0  0  0  0  0  0  0  0  0
   55.1390   27.5500   45.2590 H   0  0  0  0  0  0  0  0  0  0  0  0
  1  2  1  0
  2  3  2  0
  3  4  1  0
  4  5  1  0
  5  6  1  0
  5  7  1  0
  4  8  2  0
  8  9  1  0
  9 10  1  0
 10 11  1  0
 11 12  2  0
 11 13  1  0
 13 14  2  0
 14 15  1  0
 15 16  2  0
 16 17  1  0
 17 18  1  0
 17 19  2  0
 19 20  1  0
  8 21  1  0
 21 22  2  0
 21 23  1  0
 23  2  1  0
 19 13  1  0
  1 24  1  0
  1 25  1  0
  1 26  1  0
  3 27  1  0
  5 28  1  0
  6 29  1  0
  6 30  1  0
  6 31  1  0
  7 32  1  0
  7 33  1  0
  7 34  1  0
  9 35  1  0
  9 36  1  0
 14 37  1  0
 15 38  1  0
 16 39  1  0
 18 40  1  0
 18 41  1  0
 18 42  1  0
 20 43  1  0
M  CHG  2  10  -1  23  -1
M  END
>  <UniqueID>  (60) 
54

>  <SMILES>  (60) 
Cc1cc(C(C)C)c(C[N-]C(=O)c2cccc(C)c2O)c(=O)[n-]1

>  <Energy>  (60) 
47.161340291232854

>  <Genealogy>  (60) 
Cc1cc(C(C)C)c(C[N-]C(=O)c2cccc(C)c2O)c(=O)[n-]1 (protonated)
Cc1cc(C(C)C)c(C[N-]C(=O)c2cccc(C)c2O)c(=O)[n-]1 (3D coordinates assigned)
Cc1cc(C(C)C)c(C[N-]C(=O)c2cccc(C)c2O)c(=O)[n-]1 (optimized conformer: 47.161340291232854 kcal/mol)

>  <smiles>  (60) 
Cc1cc(C(C)C)c(CNC(=O)c2cccc(C)c2O)c(=O)[nH]1

>  <score_type>  (60) 
oracle

>  <origin>  (60) 
adg

>  <m_score__min__energy>  (60) 
-11.34

>  <m_primary>  (60) 
energy

$$$$
60:0
     RDKit          3D

 28 29  0  0  0  0  0  0  0  0999 V2000
   59.1480   36.2350   47.1140 H   0  0  0  0  0  0  0  0  0  0  0  0
   59.6050   35.5000   46.5870 O   0  0  0  0  0  0  0  0  0  0  0  0
   58.8730   34.4430   46.0600 C   0  0  0  0  0  0  0  0  0  0  0  0
   57.8130   33.7980   46.6580 C   0  0  0  0  0  0  0  0  0  0  0  0
   57.3994   34.0274   47.6511 H   0  0  0  0  0  0  0  0  0  0  0  0
   57.3670   32.8380   45.8220 N   0  0  0  0  0  0  0  0  0  0  0  0
   58.1220   32.8690   44.7320 N   0  0  0  0  0  0  0  0  0  0  0  0
   57.9300   31.9840   43.5870 C   0  0  0  0  0  0  0  0  0  0  0  0
   58.7846   32.0931   42.9030 H   0  0  0  0  0  0  0  0  0  0  0  0
   56.9914   32.2640   43.0864 H   0  0  0  0  0  0  0  0  0  0  0  0
   57.8250   30.5170   44.0250 C   0  0  0  0  0  0  0  0  0  0  0  0
   58.5492   30.3353   44.8328 H   0  0  0  0  0  0  0  0  0  0  0  0
   58.0372   29.8860   43.1493 H   0  0  0  0  0  0  0  0  0  0  0  0
   56.4440   30.1710   44.5230 C   0  0  0  0  0  0  0  0  0  0  0  0
   55.5590   31.0680   44.5000 O   0  0  0  0  0  0  0  0  0  0  0  0
   56.0520   28.8430   44.9110 N   0  0  0  0  0  0  0  0  0  0  0  0
   56.7840   27.8920   45.4180 C   0  0  0  0  0  0  0  0  0  0  0  0
   58.1440   27.9800   45.4440 N   0  0  0  0  0  0  0  0  0  0  0  0
   58.9220   27.0080   45.9920 C   0  0  0  0  0  0  0  0  0  0  0  0
   60.0170   27.1124   45.9876 H   0  0  0  0  0  0  0  0  0  0  0  0
   58.3310   25.8780   46.5600 C   0  0  0  0  0  0  0  0  0  0  0  0
   58.9541   25.0871   47.0030 H   0  0  0  0  0  0  0  0  0  0  0  0
   56.9410   25.7640   46.5590 C   0  0  0  0  0  0  0  0  0  0  0  0
   56.4607   24.8809   47.0056 H   0  0  0  0  0  0  0  0  0  0  0  0
   56.1590   26.7730   45.9900 C   0  0  0  0  0  0  0  0  0  0  0  0
   54.7720   26.6600   45.9960 O   0  0  0  0  0  0  0  0  0  0  0  0
   59.0530   33.8370   44.8390 C   0  0  0  0  0  0  0  0  0  0  0  0
   59.8153   34.0946   44.0890 H   0  0  0  0  0  0  0  0  0  0  0  0
  1  2  1  0
  2  3  1  0
  3  4  1  0
  4  5  1  0
  4  6  2  0
  6  7  1  0
  7  8  1  0
  8  9  1  0
  8 10  1  0
  8 11  1  0
 11 12  1  0
 11 13  1  0
 11 14  1  0
 14 15  2  0
 14 16  1  0
 16 17  2  0
 17 18  1  0
 18 19  1  0
 19 20  1  0
 19 21  2  0
 21 22  1  0
 21 23  1  0
 23 24  1  0
 23 25  2  0
 25 26  1  0
  7 27  1  0
 27 28  1  0
 27  3  2  0
 25 17  1  0
M  CHG  2  18  -1  26  -1
M  END
>  <UniqueID>  (61) 
55

>  <SMILES>  (61) 
O=C(CCn1cc(O)cn1)/N=c1\[n-]cccc1[O-]

>  <Energy>  (61) 
61.56749672738311

>  <Genealogy>  (61) 
O=C(CCn1cc(O)cn1)N=c1[n-]cccc1[O-] (protonated)
O=C(CCn1cc(O)cn1)/N=c1\[n-]cccc1[O-] (cis-trans isomerization)
O=C(CCn1cc(O)cn1)/N=c1\[n-]cccc1[O-] (3D coordinates assigned)
O=C(CCn1cc(O)cn1)/N=c1\[n-]cccc1[O-] (optimized conformer: 61.56749672738311 kcal/mol)

>  <smiles>  (61) 
O=C(CCn1cc(O)cn1)N=c1[nH]cccc1O

>  <score_type>  (61) 
oracle

>  <origin>  (61) 
adg

>  <m_score__min__energy>  (61) 
-11.59

>  <m_primary>  (61) 
energy

$$$$
61:0
     RDKit          3D

 41 43  0  0  0  0  0  0  0  0999 V2000
   56.1010   26.1100   47.0700 O   0  0  0  0  0  0  0  0  0  0  0  0
   57.0360   25.3840   46.6430 C   0  0  0  0  0  0  0  0  0  0  0  0
   58.3270   25.4980   47.2570 N   0  0  0  0  0  0  0  0  0  0  0  0
   59.0360   26.7210   47.5040 C   0  0  0  0  0  0  0  0  0  0  0  0
   60.0260   26.7430   48.4930 C   0  0  0  0  0  0  0  0  0  0  0  0
   60.7330   27.9190   48.7570 C   0  0  0  0  0  0  0  0  0  0  0  0
   60.4470   29.0840   48.0410 C   0  0  0  0  0  0  0  0  0  0  0  0
   59.4440   29.0820   47.0620 C   0  0  0  0  0  0  0  0  0  0  0  0
   59.0710   30.5670   46.1910 S   0  0  0  0  0  0  0  0  0  0  0  0
   60.2080   31.5360   46.3680 O   0  0  0  0  0  0  0  0  0  0  0  0
   57.8200   31.1560   46.7780 O   0  0  0  0  0  0  0  0  0  0  0  0
   58.8290   30.2290   44.4890 N   0  0  0  0  0  0  0  0  0  0  0  0
   58.1730   31.3540   43.7870 C   0  0  0  0  0  0  0  0  0  0  0  0
   56.6640   31.1330   43.5830 C   0  0  0  0  0  0  0  0  0  0  0  0
   56.1290   30.3890   44.6540 O   0  0  0  0  0  0  0  0  0  0  0  0
   56.6140   29.0570   44.6160 C   0  0  0  0  0  0  0  0  0  0  0  0
   58.1220   28.9540   44.2810 C   0  0  0  0  0  0  0  0  0  0  0  0
   58.7280   27.9030   46.8080 C   0  0  0  0  0  0  0  0  0  0  0  0
   56.7590   24.3860   45.5770 C   0  0  0  0  0  0  0  0  0  0  0  0
   57.8030   23.6160   45.0370 C   0  0  0  0  0  0  0  0  0  0  0  0
   57.5390   22.6590   44.0580 C   0  0  0  0  0  0  0  0  0  0  0  0
   56.2250   22.4660   43.6280 C   0  0  0  0  0  0  0  0  0  0  0  0
   55.9690   21.6060   42.7450 O   0  0  0  0  0  0  0  0  0  0  0  0
   55.2210   23.2100   44.1600 N   0  0  0  0  0  0  0  0  0  0  0  0
   55.4480   24.1550   45.1130 C   0  0  0  0  0  0  0  0  0  0  0  0
   54.3780   24.8960   45.6080 O   0  0  0  0  0  0  0  0  0  0  0  0
   60.2486   25.8303   49.0652 H   0  0  0  0  0  0  0  0  0  0  0  0
   61.5159   27.9275   49.5297 H   0  0  0  0  0  0  0  0  0  0  0  0
   61.0108   30.0059   48.2463 H   0  0  0  0  0  0  0  0  0  0  0  0
   58.3169   32.2695   44.3796 H   0  0  0  0  0  0  0  0  0  0  0  0
   58.6328   31.4352   42.7910 H   0  0  0  0  0  0  0  0  0  0  0  0
   56.1583   32.1085   43.5305 H   0  0  0  0  0  0  0  0  0  0  0  0
   56.5073   30.5763   42.6473 H   0  0  0  0  0  0  0  0  0  0  0  0
   56.4447   28.5974   45.6009 H   0  0  0  0  0  0  0  0  0  0  0  0
   56.0697   28.5391   43.8125 H   0  0  0  0  0  0  0  0  0  0  0  0
   58.5763   28.1881   44.9268 H   0  0  0  0  0  0  0  0  0  0  0  0
   58.2131   28.6883   43.2175 H   0  0  0  0  0  0  0  0  0  0  0  0
   57.9212   27.9032   46.0603 H   0  0  0  0  0  0  0  0  0  0  0  0
   58.8340   23.7690   45.3885 H   0  0  0  0  0  0  0  0  0  0  0  0
   58.3575   22.0623   43.6290 H   0  0  0  0  0  0  0  0  0  0  0  0
   54.5000   25.5290   46.3880 H   0  0  0  0  0  0  0  0  0  0  0  0
  1  2  2  0
  2  3  1  0
  3  4  1  0
  4  5  2  0
  5  6  1  0
  6  7  2  0
  7  8  1  0
  8  9  1  0
  9 10  2  0
  9 11  2  0
  9 12  1  0
 12 13  1  0
 13 14  1  0
 14 15  1  0
 15 16  1  0
 16 17  1  0
  8 18  2  0
  2 19  1  0
 19 20  1  0
 20 21  2  0
 21 22  1  0
 22 23  2  0
 22 24  1  0
 24 25  1  0
 25 26  1  0
 18  4  1  0
 25 19  2  0
 17 12  1  0
  5 27  1  0
  6 28  1  0
  7 29  1  0
 13 30  1  0
 13 31  1  0
 14 32  1  0
 14 33  1  0
 16 34  1  0
 16 35  1  0
 17 36  1  0
 17 37  1  0
 18 38  1  0
 20 39  1  0
 21 40  1  0
 26 41  1  0
M  CHG  2   3  -1  24  -1
M  END
>  <UniqueID>  (62) 
56

>  <SMILES>  (62) 
O=C([N-]c1cccc(S(=O)(=O)N2CCOCC2)c1)c1ccc(=O)[n-]c1O

>  <Energy>  (62) 
59.045377846195976

>  <Genealogy>  (62) 
O=C([N-]c1cccc(S(=O)(=O)N2CCOCC2)c1)c1ccc(=O)[n-]c1O (protonated)
O=C([N-]c1cccc(S(=O)(=O)N2CCOCC2)c1)c1ccc(=O)[n-]c1O (3D coordinates assigned)
O=C([N-]c1cccc(S(=O)(=O)N2CCOCC2)c1)c1ccc(=O)[n-]c1O (nonaromatic ring conformer: 59.045377846195976 kcal/mol)

>  <smiles>  (62) 
O=C(Nc1cccc(S(=O)(=O)N2CCOCC2)c1)c1ccc(=O)[nH]c1O

>  <score_type>  (62) 
oracle

>  <origin>  (62) 
adg

>  <m_score__min__energy>  (62) 
-12.859999999999999

>  <m_primary>  (62) 
energy

$$$$
62:0
     RDKit          3D

 45 47  0  0  0  0  0  0  0  0999 V2000
   57.9183   29.4517   43.8691 H   0  0  0  0  0  0  0  0  0  0  0  0
   58.0800   29.0620   44.8850 C   0  0  0  0  0  0  0  0  0  0  0  0
   59.3800   29.3430   45.5350 C   0  0  0  0  0  0  0  0  0  0  0  0
   60.4310   29.3300   44.8370 O   0  0  0  0  0  0  0  0  0  0  0  0
   59.4710   29.6610   46.9840 C   0  0  0  0  0  0  0  0  0  0  0  0
   59.5560   28.6440   47.9530 C   0  0  0  0  0  0  0  0  0  0  0  0
   59.5072   27.5896   47.6435 H   0  0  0  0  0  0  0  0  0  0  0  0
   59.7020   28.9640   49.3060 C   0  0  0  0  0  0  0  0  0  0  0  0
   59.7500   28.1617   50.0570 H   0  0  0  0  0  0  0  0  0  0  0  0
   59.7870   30.2980   49.7070 C   0  0  0  0  0  0  0  0  0  0  0  0
   59.9091   30.5445   50.7720 H   0  0  0  0  0  0  0  0  0  0  0  0
   59.7170   31.3250   48.7540 C   0  0  0  0  0  0  0  0  0  0  0  0
   59.8790   32.7010   49.1140 N   0  0  0  0  0  0  0  0  0  0  0  0
   60.9440   33.8070   48.3060 S   0  0  0  0  0  0  0  0  0  0  0  0
   61.6980   34.5900   49.3450 O   0  0  0  0  0  0  0  0  0  0  0  0
   61.9270   33.0460   47.4630 O   0  0  0  0  0  0  0  0  0  0  0  0
   60.0180   34.9590   47.2890 C   0  0  0  0  0  0  0  0  0  0  0  0
   59.3981   35.5937   47.9393 H   0  0  0  0  0  0  0  0  0  0  0  0
   60.7315   35.5702   46.7169 H   0  0  0  0  0  0  0  0  0  0  0  0
   59.1250   34.2310   46.3160 C   0  0  0  0  0  0  0  0  0  0  0  0
   59.5100   34.0870   44.9720 C   0  0  0  0  0  0  0  0  0  0  0  0
   60.4900   34.4599   44.6394 H   0  0  0  0  0  0  0  0  0  0  0  0
   58.6510   33.4710   44.0560 C   0  0  0  0  0  0  0  0  0  0  0  0
   58.9552   33.3649   43.0042 H   0  0  0  0  0  0  0  0  0  0  0  0
   57.4070   32.9900   44.4740 C   0  0  0  0  0  0  0  0  0  0  0  0
   56.7298   32.5133   43.7500 H   0  0  0  0  0  0  0  0  0  0  0  0
   57.0240   33.1150   45.8120 C   0  0  0  0  0  0  0  0  0  0  0  0
   56.0476   32.7306   46.1420 H   0  0  0  0  0  0  0  0  0  0  0  0
   57.8800   33.7280   46.7320 C   0  0  0  0  0  0  0  0  0  0  0  0
   57.5779   33.8171   47.7859 H   0  0  0  0  0  0  0  0  0  0  0  0
   59.5390   31.0030   47.4040 C   0  0  0  0  0  0  0  0  0  0  0  0
   59.4510   31.8093   46.6609 H   0  0  0  0  0  0  0  0  0  0  0  0
   57.0860   28.3630   45.4540 C   0  0  0  0  0  0  0  0  0  0  0  0
   56.1233   28.8730   45.6058 H   0  0  0  0  0  0  0  0  0  0  0  0
   57.1950   26.9550   45.8910 C   0  0  0  0  0  0  0  0  0  0  0  0
   58.4660   26.3680   45.9820 C   0  0  0  0  0  0  0  0  0  0  0  0
   59.3601   26.9589   45.7341 H   0  0  0  0  0  0  0  0  0  0  0  0
   58.6030   25.0360   46.3860 C   0  0  0  0  0  0  0  0  0  0  0  0
   59.6037   24.5872   46.4700 H   0  0  0  0  0  0  0  0  0  0  0  0
   57.4690   24.2750   46.6830 C   0  0  0  0  0  0  0  0  0  0  0  0
   57.6070   22.9530   47.0890 O   0  0  0  0  0  0  0  0  0  0  0  0
   56.1960   24.8410   46.5670 C   0  0  0  0  0  0  0  0  0  0  0  0
   55.3047   24.2388   46.7972 H   0  0  0  0  0  0  0  0  0  0  0  0
   56.0530   26.1710   46.1590 C   0  0  0  0  0  0  0  0  0  0  0  0
   54.7740   26.6980   46.0020 O   0  0  0  0  0  0  0  0  0  0  0  0
  1  2  1  0
  2  3  1  0
  3  4  2  0
  3  5  1  0
  5  6  2  0
  6  7  1  0
  6  8  1  0
  8  9  1  0
  8 10  2  0
 10 11  1  0
 10 12  1  0
 12 13  1  0
 13 14  1  0
 14 15  2  0
 14 16  2  0
 14 17  1  0
 17 18  1  0
 17 19  1  0
 17 20  1  0
 20 21  2  0
 21 22  1  0
 21 23  1  0
 23 24  1  0
 23 25  2  0
 25 26  1  0
 25 27  1  0
 27 28  1  0
 27 29  2  0
 29 30  1  0
 12 31  2  0
 31 32  1  0
  2 33  2  0
 33 34  1  0
 33 35  1  0
 35 36  2  0
 36 37  1  0
 36 38  1  0
 38 39  1  0
 38 40  2  0
 40 41  1  0
 40 42  1  0
 42 43  1  0
 42 44  2  0
 44 45  1  0
 31  5  1  0
 44 35  1  0
 29 20  1  0
M  CHG  3  13  -1  41  -1  45  -1
M  END
>  <UniqueID>  (63) 
57

>  <SMILES>  (63) 
O=C(/C=C\c1ccc([O-])cc1[O-])c1cccc([N-]S(=O)(=O)Cc2ccccc2)c1

>  <Energy>  (63) 
56.45433374132763

>  <Genealogy>  (63) 
O=C(C=Cc1ccc([O-])cc1[O-])c1cccc([N-]S(=O)(=O)Cc2ccccc2)c1 (protonated)
O=C(/C=C\c1ccc([O-])cc1[O-])c1cccc([N-]S(=O)(=O)Cc2ccccc2)c1 (cis-trans isomerization)
O=C(/C=C\c1ccc([O-])cc1[O-])c1cccc([N-]S(=O)(=O)Cc2ccccc2)c1 (3D coordinates assigned)
O=C(/C=C\c1ccc([O-])cc1[O-])c1cccc([N-]S(=O)(=O)Cc2ccccc2)c1 (optimized conformer: 56.45433374132763 kcal/mol)

>  <smiles>  (63) 
O=C(C=Cc1ccc(O)cc1O)c1cccc(NS(=O)(=O)Cc2ccccc2)c1

>  <score_type>  (63) 
oracle

>  <origin>  (63) 
adg

>  <m_score__min__energy>  (63) 
-16.43

>  <m_primary>  (63) 
energy

$$$$
63:0
     RDKit          3D

 56 58  0  0  0  0  0  0  0  0999 V2000
   68.2270   33.6780   50.5780 C   0  0  0  0  0  0  0  0  0  0  0  0
   67.2530   32.8850   51.3250 N   0  0  0  0  0  0  0  0  0  0  0  0
   67.5270   31.5140   51.6360 C   0  0  0  0  0  0  0  0  0  0  0  0
   66.8440   30.4970   50.9560 C   0  0  0  0  0  0  0  0  0  0  0  0
   67.0990   29.1550   51.2550 C   0  0  0  0  0  0  0  0  0  0  0  0
   68.0360   28.8230   52.2370 C   0  0  0  0  0  0  0  0  0  0  0  0
   68.7160   29.8330   52.9240 C   0  0  0  0  0  0  0  0  0  0  0  0
   68.4600   31.1770   52.6320 C   0  0  0  0  0  0  0  0  0  0  0  0
   69.1260   32.1700   53.3410 O   0  0  0  0  0  0  0  0  0  0  0  0
   65.7800   33.6170   51.8790 S   0  0  0  0  0  0  0  0  0  0  0  0
   66.0310   35.0420   52.2880 O   0  0  0  0  0  0  0  0  0  0  0  0
   65.2630   32.8670   53.0740 O   0  0  0  0  0  0  0  0  0  0  0  0
   64.6040   33.5880   50.5720 C   0  0  0  0  0  0  0  0  0  0  0  0
   64.8680   32.8450   49.4180 C   0  0  0  0  0  0  0  0  0  0  0  0
   63.9320   32.8000   48.3800 C   0  0  0  0  0  0  0  0  0  0  0  0
   62.7170   33.5030   48.4810 C   0  0  0  0  0  0  0  0  0  0  0  0
   61.7450   33.4480   47.3600 C   0  0  0  0  0  0  0  0  0  0  0  0
   62.1180   33.8190   46.2110 O   0  0  0  0  0  0  0  0  0  0  0  0
   60.3940   32.9900   47.5570 N   0  0  0  0  0  0  0  0  0  0  0  0
   59.3650   33.0900   46.5580 C   0  0  0  0  0  0  0  0  0  0  0  0
   58.5820   34.2520   46.4920 C   0  0  0  0  0  0  0  0  0  0  0  0
   57.5830   34.3780   45.5230 C   0  0  0  0  0  0  0  0  0  0  0  0
   57.3760   33.3570   44.5940 C   0  0  0  0  0  0  0  0  0  0  0  0
   58.1890   32.2120   44.6100 C   0  0  0  0  0  0  0  0  0  0  0  0
   57.9690   31.1070   43.6550 C   0  0  0  0  0  0  0  0  0  0  0  0
   57.4810   29.8950   43.9660 C   0  0  0  0  0  0  0  0  0  0  0  0
   56.0630   29.5730   44.2180 C   0  0  0  0  0  0  0  0  0  0  0  0
   55.1430   30.0720   43.5150 O   0  0  0  0  0  0  0  0  0  0  0  0
   55.7460   28.6280   45.2450 N   0  0  0  0  0  0  0  0  0  0  0  0
   56.6100   27.5100   45.6080 C   0  0  0  0  0  0  0  0  0  0  0  0
   55.8070   26.3820   46.1760 C   0  0  0  0  0  0  0  0  0  0  0  0
   56.3570   25.5080   46.8960 O   0  0  0  0  0  0  0  0  0  0  0  0
   54.4360   26.3220   45.9500 O   0  0  0  0  0  0  0  0  0  0  0  0
   59.1680   32.0750   45.6040 C   0  0  0  0  0  0  0  0  0  0  0  0
   62.4490   34.2280   49.6580 C   0  0  0  0  0  0  0  0  0  0  0  0
   63.3870   34.2690   50.6940 C   0  0  0  0  0  0  0  0  0  0  0  0
   68.8825   34.2117   51.2819 H   0  0  0  0  0  0  0  0  0  0  0  0
   68.8329   33.0131   49.9449 H   0  0  0  0  0  0  0  0  0  0  0  0
   67.6988   34.4061   49.9449 H   0  0  0  0  0  0  0  0  0  0  0  0
   66.1043   30.7553   50.1839 H   0  0  0  0  0  0  0  0  0  0  0  0
   66.5617   28.3602   50.7169 H   0  0  0  0  0  0  0  0  0  0  0  0
   68.2386   27.7671   52.4695 H   0  0  0  0  0  0  0  0  0  0  0  0
   69.4542   29.5703   53.6961 H   0  0  0  0  0  0  0  0  0  0  0  0
   65.8154   32.2937   49.3259 H   0  0  0  0  0  0  0  0  0  0  0  0
   64.1472   32.2101   47.4769 H   0  0  0  0  0  0  0  0  0  0  0  0
   60.1360   32.5180   48.4520 H   0  0  0  0  0  0  0  0  0  0  0  0
   58.7555   35.0692   47.2076 H   0  0  0  0  0  0  0  0  0  0  0  0
   56.9588   35.2832   45.4923 H   0  0  0  0  0  0  0  0  0  0  0  0
   56.5737   33.4495   43.8472 H   0  0  0  0  0  0  0  0  0  0  0  0
   58.2262   31.2920   42.6016 H   0  0  0  0  0  0  0  0  0  0  0  0
   58.2029   29.0683   44.0395 H   0  0  0  0  0  0  0  0  0  0  0  0
   57.1416   27.1588   44.7113 H   0  0  0  0  0  0  0  0  0  0  0  0
   57.3276   27.8508   46.3689 H   0  0  0  0  0  0  0  0  0  0  0  0
   59.7872   31.1665   45.6383 H   0  0  0  0  0  0  0  0  0  0  0  0
   61.4952   34.7658   49.7631 H   0  0  0  0  0  0  0  0  0  0  0  0
   63.1677   34.8389   51.6090 H   0  0  0  0  0  0  0  0  0  0  0  0
  1  2  1  0
  2  3  1  0
  3  4  2  0
  4  5  1  0
  5  6  2  0
  6  7  1  0
  7  8  2  0
  8  9  1  0
  2 10  1  0
 10 11  2  0
 10 12  2  0
 10 13  1  0
 13 14  2  0
 14 15  1  0
 15 16  2  0
 16 17  1  0
 17 18  2  0
 17 19  1  0
 19 20  1  0
 20 21  2  0
 21 22  1  0
 22 23  2  0
 23 24  1  0
 24 25  1  0
 25 26  2  3
 26 27  1  0
 27 28  2  0
 27 29  1  0
 29 30  1  0
 30 31  1  0
 31 32  2  0
 31 33  1  0
 24 34  2  0
 16 35  1  0
 35 36  2  0
  8  3  1  0
 36 13  1  0
 34 20  1  0
  1 37  1  0
  1 38  1  0
  1 39  1  0
  4 40  1  0
  5 41  1  0
  6 42  1  0
  7 43  1  0
 14 44  1  0
 15 45  1  0
 19 46  1  0
 21 47  1  0
 22 48  1  0
 23 49  1  0
 25 50  1  0
 26 51  1  0
 30 52  1  0
 30 53  1  0
 34 54  1  0
 35 55  1  0
 36 56  1  0
M  CHG  3   9  -1  29  -1  33  -1
M  END
>  <UniqueID>  (64) 
58

>  <SMILES>  (64) 
CN(c1ccccc1[O-])S(=O)(=O)c1ccc(C(=O)Nc2cccc(C=CC(=O)[N-]CC(=O)[O-])c2)cc1

>  <Energy>  (64) 
76.25044933584073

>  <Genealogy>  (64) 
CN(c1ccccc1[O-])S(=O)(=O)c1ccc(C(=O)Nc2cccc(C=CC(=O)[N-]CC(=O)[O-])c2)cc1 (protonated)
CN(c1ccccc1[O-])S(=O)(=O)c1ccc(C(=O)Nc2cccc(C=CC(=O)[N-]CC(=O)[O-])c2)cc1 (3D coordinates assigned)
CN(c1ccccc1[O-])S(=O)(=O)c1ccc(C(=O)Nc2cccc(C=CC(=O)[N-]CC(=O)[O-])c2)cc1 (optimized conformer: 76.25044933584073 kcal/mol)

>  <smiles>  (64) 
CN(c1ccccc1O)S(=O)(=O)c1ccc(C(=O)Nc2cccc(C=CC(=O)NCC(=O)O)c2)cc1

>  <score_type>  (64) 
oracle

>  <origin>  (64) 
adg

>  <m_score__min__energy>  (64) 
-15.529999999999999

>  <m_primary>  (64) 
energy

$$$$
64:0
     RDKit          3D

 64 66  0  0  0  0  0  0  0  0999 V2000
   50.9280   22.2090   49.4830 C   0  0  0  0  0  0  0  0  0  0  0  0
   52.2840   22.2160   48.8430 C   0  0  0  0  0  0  0  0  0  0  0  0
   53.2810   22.5560   49.5320 O   0  0  0  0  0  0  0  0  0  0  0  0
   52.4880   21.8030   47.4860 N   0  0  0  0  0  0  0  0  0  0  0  0
   52.1070   22.5220   46.3020 C   0  0  0  0  0  0  0  0  0  0  0  0
   50.7930   22.4480   45.8090 C   0  0  0  0  0  0  0  0  0  0  0  0
   50.4260   23.1480   44.6570 C   0  0  0  0  0  0  0  0  0  0  0  0
   51.3600   23.9450   43.9960 C   0  0  0  0  0  0  0  0  0  0  0  0
   52.6610   24.0530   44.4910 C   0  0  0  0  0  0  0  0  0  0  0  0
   53.0490   23.3520   45.6480 C   0  0  0  0  0  0  0  0  0  0  0  0
   54.4350   23.4940   46.1520 C   0  0  0  0  0  0  0  0  0  0  0  0
   55.1800   22.5220   46.8020 C   0  0  0  0  0  0  0  0  0  0  0  0
   56.3670   23.1310   47.1610 C   0  0  0  0  0  0  0  0  0  0  0  0
   57.3930   22.5120   47.8650 O   0  0  0  0  0  0  0  0  0  0  0  0
   56.3970   24.4150   46.7560 N   0  0  0  0  0  0  0  0  0  0  0  0
   57.4600   25.3860   47.0310 C   0  0  0  0  0  0  0  0  0  0  0  0
   57.6500   26.3100   45.8660 C   0  0  0  0  0  0  0  0  0  0  0  0
   58.2250   25.8870   44.8260 O   0  0  0  0  0  0  0  0  0  0  0  0
   57.1310   27.6430   45.9130 N   0  0  0  0  0  0  0  0  0  0  0  0
   57.5560   28.7190   45.0230 C   0  0  2  0  0  0  0  0  0  0  0  0
   58.7620   29.4650   45.6300 C   0  0  0  0  0  0  0  0  0  0  0  0
   58.5590   29.8280   47.1180 C   0  0  0  0  0  0  0  0  0  0  0  0
   60.0140   30.6960   47.8140 S   0  0  0  0  0  0  0  0  0  0  0  0
   59.1380   32.2210   48.3190 C   0  0  0  0  0  0  0  0  0  0  0  0
   58.7570   33.0490   47.1210 C   0  0  0  0  0  0  0  0  0  0  0  0
   57.4240   33.0970   46.6770 C   0  0  0  0  0  0  0  0  0  0  0  0
   57.0800   33.8680   45.5630 C   0  0  0  0  0  0  0  0  0  0  0  0
   58.0640   34.5900   44.8800 C   0  0  0  0  0  0  0  0  0  0  0  0
   59.3920   34.5450   45.3130 C   0  0  0  0  0  0  0  0  0  0  0  0
   59.7390   33.7780   46.4280 C   0  0  0  0  0  0  0  0  0  0  0  0
   56.4030   29.6550   44.8040 C   0  0  0  0  0  0  0  0  0  0  0  0
   55.2360   29.3140   45.1400 O   0  0  0  0  0  0  0  0  0  0  0  0
   56.6470   30.9540   44.2580 N   0  0  0  0  0  0  0  0  0  0  0  0
   56.9760   31.1750   42.8580 C   0  0  0  0  0  0  0  0  0  0  0  0
   58.0940   32.1610   42.7520 C   0  0  0  0  0  0  0  0  0  0  0  0
   58.3490   32.6820   41.6780 O   0  0  0  0  0  0  0  0  0  0  0  0
   55.2100   24.6430   46.1520 C   0  0  0  0  0  0  0  0  0  0  0  0
   54.8170   25.8680   45.6140 O   0  0  0  0  0  0  0  0  0  0  0  0
   51.0391   22.2096   50.5774 H   0  0  0  0  0  0  0  0  0  0  0  0
   50.3705   23.1043   49.1706 H   0  0  0  0  0  0  0  0  0  0  0  0
   50.3797   21.3080   49.1706 H   0  0  0  0  0  0  0  0  0  0  0  0
   50.0471   21.8337   46.3346 H   0  0  0  0  0  0  0  0  0  0  0  0
   49.3989   23.0704   44.2709 H   0  0  0  0  0  0  0  0  0  0  0  0
   51.0717   24.4888   43.0843 H   0  0  0  0  0  0  0  0  0  0  0  0
   53.3900   24.6923   43.9715 H   0  0  0  0  0  0  0  0  0  0  0  0
   54.8861   21.4793   46.9928 H   0  0  0  0  0  0  0  0  0  0  0  0
   57.1889   25.9759   47.9190 H   0  0  0  0  0  0  0  0  0  0  0  0
   58.3993   24.8410   47.2061 H   0  0  0  0  0  0  0  0  0  0  0  0
   57.8693   28.3012   44.0548 H   0  0  0  0  0  0  0  0  0  0  0  0
   59.6511   28.8231   45.5437 H   0  0  0  0  0  0  0  0  0  0  0  0
   58.8807   30.4068   45.0742 H   0  0  0  0  0  0  0  0  0  0  0  0
   57.6786   30.4814   47.2077 H   0  0  0  0  0  0  0  0  0  0  0  0
   58.4183   28.8934   47.6807 H   0  0  0  0  0  0  0  0  0  0  0  0
   58.2267   31.9460   48.8702 H   0  0  0  0  0  0  0  0  0  0  0  0
   59.8101   32.8156   48.9553 H   0  0  0  0  0  0  0  0  0  0  0  0
   56.6487   32.5256   47.2083 H   0  0  0  0  0  0  0  0  0  0  0  0
   56.0345   33.9069   45.2232 H   0  0  0  0  0  0  0  0  0  0  0  0
   57.7925   35.1937   44.0014 H   0  0  0  0  0  0  0  0  0  0  0  0
   60.1648   35.1140   44.7754 H   0  0  0  0  0  0  0  0  0  0  0  0
   60.7855   33.7444   46.7652 H   0  0  0  0  0  0  0  0  0  0  0  0
   57.2834   30.2232   42.4002 H   0  0  0  0  0  0  0  0  0  0  0  0
   56.0925   31.5689   42.3343 H   0  0  0  0  0  0  0  0  0  0  0  0
   58.6873   32.4173   43.6421 H   0  0  0  0  0  0  0  0  0  0  0  0
   55.4690   26.4790   45.1400 H   0  0  0  0  0  0  0  0  0  0  0  0
  1  2  1  0
  2  3  2  0
  2  4  1  0
  4  5  1  0
  5  6  2  0
  6  7  1  0
  7  8  2  0
  8  9  1  0
  9 10  2  0
 10 11  1  0
 11 12  1  0
 12 13  2  0
 13 14  1  0
 13 15  1  0
 15 16  1  0
 16 17  1  0
 17 18  2  0
 17 19  1  0
 19 20  1  0
 20 21  1  0
 21 22  1  0
 22 23  1  0
 23 24  1  0
 24 25  1  0
 25 26  2  0
 26 27  1  0
 27 28  2  0
 28 29  1  0
 29 30  2  0
 20 31  1  0
 31 32  2  0
 31 33  1  0
 33 34  1  0
 34 35  1  0
 35 36  2  0
 15 37  1  0
 37 38  1  0
 10  5  1  0
 37 11  2  0
 30 25  1  0
  1 39  1  0
  1 40  1  0
  1 41  1  0
  6 42  1  0
  7 43  1  0
  8 44  1  0
  9 45  1  0
 12 46  1  0
 16 47  1  0
 16 48  1  0
 20 49  1  6
 21 50  1  0
 21 51  1  0
 22 52  1  0
 22 53  1  0
 24 54  1  0
 24 55  1  0
 26 56  1  0
 27 57  1  0
 28 58  1  0
 29 59  1  0
 30 60  1  0
 34 61  1  0
 34 62  1  0
 35 63  1  0
 38 64  1  0
M  CHG  4   4  -1  14  -1  19  -1  33  -1
M  END
>  <UniqueID>  (65) 
59

>  <SMILES>  (65) 
CC(=O)[N-]c1ccccc1-c1cc([O-])n(CC(=O)[N-][C@H](CCSCc2ccccc2)C(=O)[N-]CC=O)c1O

>  <Energy>  (65) 
89.48723242892079

>  <Genealogy>  (65) 
CC(=O)[N-]c1ccccc1-c1cc([O-])n(CC(=O)[N-]C(CCSCc2ccccc2)C(=O)[N-]CC=O)c1O (protonated)
CC(=O)[N-]c1ccccc1-c1cc([O-])n(CC(=O)[N-][C@H](CCSCc2ccccc2)C(=O)[N-]CC=O)c1O (chirality)
CC(=O)[N-]c1ccccc1-c1cc([O-])n(CC(=O)[N-][C@H](CCSCc2ccccc2)C(=O)[N-]CC=O)c1O (3D coordinates assigned)
CC(=O)[N-]c1ccccc1-c1cc([O-])n(CC(=O)[N-][C@H](CCSCc2ccccc2)C(=O)[N-]CC=O)c1O (optimized conformer: 89.48723242892079 kcal/mol)

>  <smiles>  (65) 
CC(=O)Nc1ccccc1-c1cc(O)n(CC(=O)NC(CCSCc2ccccc2)C(=O)NCC=O)c1O

>  <score_type>  (65) 
oracle

>  <origin>  (65) 
adg

>  <m_score__min__energy>  (65) 
-14.41

>  <m_primary>  (65) 
energy

$$$$
65:0
     RDKit          3D

 61 64  0  0  0  0  0  0  0  0999 V2000
   59.8957   28.2981   48.5409 H   0  0  0  0  0  0  0  0  0  0  0  0
   60.3130   28.8700   47.6990 C   0  0  0  0  0  0  0  0  0  0  0  0
   60.9043   28.3579   46.9256 H   0  0  0  0  0  0  0  0  0  0  0  0
   60.1020   30.1850   47.6160 C   0  0  0  0  0  0  0  0  0  0  0  0
   59.5095   30.6881   48.3943 H   0  0  0  0  0  0  0  0  0  0  0  0
   60.6610   30.9900   46.4760 C   0  0  0  0  0  0  0  0  0  0  0  0
   61.2652   31.8160   46.8793 H   0  0  0  0  0  0  0  0  0  0  0  0
   61.2826   30.3327   45.8502 H   0  0  0  0  0  0  0  0  0  0  0  0
   59.6090   31.5270   45.6740 O   0  0  0  0  0  0  0  0  0  0  0  0
   58.6620   30.7840   44.9500 C   0  0  0  0  0  0  0  0  0  0  0  0
   58.7230   29.3790   44.8490 C   0  0  0  0  0  0  0  0  0  0  0  0
   59.5240   28.8295   45.3652 H   0  0  0  0  0  0  0  0  0  0  0  0
   57.7700   28.6750   44.0950 C   0  0  0  0  0  0  0  0  0  0  0  0
   57.8390   27.2030   43.9750 C   0  0  0  0  0  0  0  0  0  0  0  0
   58.1000   26.6680   42.8640 O   0  0  0  0  0  0  0  0  0  0  0  0
   57.5240   26.3800   45.1090 N   0  0  0  0  0  0  0  0  0  0  0  0
   56.6980   25.3730   45.1840 C   0  0  0  0  0  0  0  0  0  0  0  0
   57.1550   24.1560   44.7760 N   0  0  0  0  0  0  0  0  0  0  0  0
   56.3800   23.0390   44.7920 C   0  0  0  0  0  0  0  0  0  0  0  0
   56.7939   22.0782   44.4520 H   0  0  0  0  0  0  0  0  0  0  0  0
   55.0610   23.1100   45.2390 C   0  0  0  0  0  0  0  0  0  0  0  0
   54.4315   22.2083   45.2628 H   0  0  0  0  0  0  0  0  0  0  0  0
   54.5510   24.3380   45.6550 C   0  0  0  0  0  0  0  0  0  0  0  0
   53.5123   24.4069   46.0105 H   0  0  0  0  0  0  0  0  0  0  0  0
   55.3530   25.4840   45.6230 C   0  0  0  0  0  0  0  0  0  0  0  0
   54.7910   26.6960   45.9990 O   0  0  0  0  0  0  0  0  0  0  0  0
   56.7430   29.3850   43.4560 C   0  0  0  0  0  0  0  0  0  0  0  0
   55.9932   28.8429   42.8610 H   0  0  0  0  0  0  0  0  0  0  0  0
   56.6650   30.7720   43.5690 C   0  0  0  0  0  0  0  0  0  0  0  0
   55.8445   31.3150   43.0772 H   0  0  0  0  0  0  0  0  0  0  0  0
   57.6290   31.4820   44.3080 C   0  0  0  0  0  0  0  0  0  0  0  0
   57.6020   32.8850   44.4270 O   0  0  0  0  0  0  0  0  0  0  0  0
   57.0430   33.6110   45.5230 C   0  0  0  0  0  0  0  0  0  0  0  0
   56.8221   34.6383   45.1976 H   0  0  0  0  0  0  0  0  0  0  0  0
   56.1238   33.1005   45.8464 H   0  0  0  0  0  0  0  0  0  0  0  0
   57.9980   33.6590   46.6890 C   0  0  0  0  0  0  0  0  0  0  0  0
   57.8590   32.7630   47.7580 C   0  0  0  0  0  0  0  0  0  0  0  0
   57.0311   32.0387   47.7598 H   0  0  0  0  0  0  0  0  0  0  0  0
   58.7650   32.7840   48.8210 C   0  0  0  0  0  0  0  0  0  0  0  0
   58.6361   32.0812   49.6573 H   0  0  0  0  0  0  0  0  0  0  0  0
   59.8430   33.6940   48.8370 C   0  0  0  0  0  0  0  0  0  0  0  0
   60.8110   33.6500   49.9800 C   0  0  0  0  0  0  0  0  0  0  0  0
   60.3590   33.8510   51.1400 O   0  0  0  0  0  0  0  0  0  0  0  0
   62.2300   33.3610   49.8470 N   0  0  0  0  0  0  0  0  0  0  0  0
   62.6650   33.4900   50.7940 H   0  0  0  0  0  0  0  0  0  0  0  0
   62.9630   34.2500   48.9230 C   0  0  0  0  0  0  0  0  0  0  0  0
   62.2510   34.8300   48.3175 H   0  0  0  0  0  0  0  0  0  0  0  0
   63.5931   34.9548   49.4853 H   0  0  0  0  0  0  0  0  0  0  0  0
   63.8200   33.3730   48.0180 C   0  0  0  0  0  0  0  0  0  0  0  0
   63.4164   33.3678   46.9947 H   0  0  0  0  0  0  0  0  0  0  0  0
   64.8541   33.7426   47.9548 H   0  0  0  0  0  0  0  0  0  0  0  0
   63.7580   31.9820   48.6180 C   0  0  0  0  0  0  0  0  0  0  0  0
   63.7059   31.2211   47.8253 H   0  0  0  0  0  0  0  0  0  0  0  0
   64.6503   31.7511   49.2184 H   0  0  0  0  0  0  0  0  0  0  0  0
   62.4920   31.9700   49.4520 C   0  0  0  0  0  0  0  0  0  0  0  0
   61.6516   31.5802   48.8589 H   0  0  0  0  0  0  0  0  0  0  0  0
   62.6074   31.3242   50.3350 H   0  0  0  0  0  0  0  0  0  0  0  0
   59.9800   34.5830   47.7510 C   0  0  0  0  0  0  0  0  0  0  0  0
   60.8122   35.3022   47.7389 H   0  0  0  0  0  0  0  0  0  0  0  0
   59.0700   34.5610   46.6890 C   0  0  0  0  0  0  0  0  0  0  0  0
   59.1970   35.2575   45.8471 H   0  0  0  0  0  0  0  0  0  0  0  0
  1  2  1  0
  2  3  1  0
  2  4  2  0
  4  5  1  0
  4  6  1  0
  6  7  1  0
  6  8  1  0
  6  9  1  0
  9 10  1  0
 10 11  2  0
 11 12  1  0
 11 13  1  0
 13 14  1  0
 14 15  2  0
 14 16  1  0
 16 17  2  0
 17 18  1  0
 18 19  1  0
 19 20  1  0
 19 21  2  0
 21 22  1  0
 21 23  1  0
 23 24  1  0
 23 25  2  0
 25 26  1  0
 13 27  2  0
 27 28  1  0
 27 29  1  0
 29 30  1  0
 29 31  2  0
 31 32  1  0
 32 33  1  0
 33 34  1  0
 33 35  1  0
 33 36  1  0
 36 37  2  0
 37 38  1  0
 37 39  1  0
 39 40  1  0
 39 41  2  0
 41 42  1  0
 42 43  2  0
 42 44  1  0
 44 45  1  0
 44 46  1  0
 46 47  1  0
 46 48  1  0
 46 49  1  0
 49 50  1  0
 49 51  1  0
 49 52  1  0
 52 53  1  0
 52 54  1  0
 52 55  1  0
 55 56  1  0
 55 57  1  0
 41 58  1  0
 58 59  1  0
 58 60  2  0
 60 61  1  0
 31 10  1  0
 60 36  1  0
 25 17  1  0
 55 44  1  0
M  CHG  3  18  -1  26  -1  44   1
M  END
>  <UniqueID>  (66) 
60

>  <SMILES>  (66) 
C=CCOc1cc(C(=O)/N=c2/[n-]cccc2[O-])ccc1OCc1ccc(C(=O)[NH+]2CCCC2)cc1

>  <Energy>  (66) 
87.39350182045526

>  <Genealogy>  (66) 
C=CCOc1cc(C(=O)N=c2[n-]cccc2[O-])ccc1OCc1ccc(C(=O)[NH+]2CCCC2)cc1 (protonated)
C=CCOc1cc(C(=O)/N=c2/[n-]cccc2[O-])ccc1OCc1ccc(C(=O)[NH+]2CCCC2)cc1 (cis-trans isomerization)
C=CCOc1cc(C(=O)/N=c2/[n-]cccc2[O-])ccc1OCc1ccc(C(=O)[NH+]2CCCC2)cc1 (3D coordinates assigned)
C=CCOc1cc(C(=O)/N=c2/[n-]cccc2[O-])ccc1OCc1ccc(C(=O)[NH+]2CCCC2)cc1 (nonaromatic ring conformer: 87.39350182045526 kcal/mol)

>  <smiles>  (66) 
C=CCOc1cc(C(=O)N=c2[nH]cccc2O)ccc1OCc1ccc(C(=O)N2CCCC2)cc1

>  <score_type>  (66) 
oracle

>  <origin>  (66) 
adg

>  <m_score__min__energy>  (66) 
-13.390000000000001

>  <m_primary>  (66) 
energy

$$$$
66:0
     RDKit          3D

 41 43  0  0  0  0  0  0  0  0999 V2000
   59.9300   33.3620   51.8700 C   0  0  0  0  0  0  0  0  0  0  0  0
   59.5800   33.3460   50.4160 C   0  0  0  0  0  0  0  0  0  0  0  0
   59.9500   34.2690   49.5420 C   0  0  0  0  0  0  0  0  0  0  0  0
   59.5420   33.9240   48.1290 C   0  0  1  0  0  0  0  0  0  0  0  0
   60.7330   33.6220   47.1400 C   0  0  2  0  0  0  0  0  0  0  0  0
   62.1420   33.6960   47.7850 C   0  0  0  0  0  0  0  0  0  0  0  0
   60.5880   34.3880   45.9400 O   0  0  0  0  0  0  0  0  0  0  0  0
   59.3120   34.9730   45.7240 C   0  0  0  0  0  0  0  0  0  0  0  0
   58.3130   34.0030   45.1590 C   0  0  0  0  0  0  0  0  0  0  0  0
   57.0890   34.3070   45.1680 O   0  0  0  0  0  0  0  0  0  0  0  0
   58.7450   32.7200   44.6750 N   0  0  0  0  0  0  0  0  0  0  0  0
   57.8580   31.7250   44.1380 C   0  0  0  0  0  0  0  0  0  0  0  0
   57.3900   30.7050   44.9810 C   0  0  0  0  0  0  0  0  0  0  0  0
   56.5440   29.7070   44.4850 C   0  0  0  0  0  0  0  0  0  0  0  0
   56.1710   29.7120   43.1400 C   0  0  0  0  0  0  0  0  0  0  0  0
   56.6490   30.7080   42.2860 C   0  0  0  0  0  0  0  0  0  0  0  0
   57.4960   31.7090   42.7740 C   0  0  0  0  0  0  0  0  0  0  0  0
   57.9930   32.6230   41.9060 F   0  0  0  0  0  0  0  0  0  0  0  0
   60.5490   32.2600   46.7770 O   0  0  0  0  0  0  0  0  0  0  0  0
   59.4780   31.6710   47.4090 C   0  0  0  0  0  0  0  0  0  0  0  0
   59.1660   30.4630   47.2400 O   0  0  0  0  0  0  0  0  0  0  0  0
   58.7460   32.6030   48.2830 C   0  0  2  0  0  0  0  0  0  0  0  0
   57.4030   32.7200   47.8840 O   0  0  0  0  0  0  0  0  0  0  0  0
   58.8850   32.2790   49.7300 C   0  0  0  0  0  0  0  0  0  0  0  0
   58.4480   31.2330   50.2800 O   0  0  0  0  0  0  0  0  0  0  0  0
   59.0086   33.3199   52.4694 H   0  0  0  0  0  0  0  0  0  0  0  0
   60.5604   32.4917   52.1050 H   0  0  0  0  0  0  0  0  0  0  0  0
   60.4784   34.2861   52.1050 H   0  0  0  0  0  0  0  0  0  0  0  0
   60.4941   35.1854   49.8145 H   0  0  0  0  0  0  0  0  0  0  0  0
   59.0036   34.7820   47.7000 H   0  0  0  0  0  0  0  0  0  0  0  0
   62.0444   33.6909   48.8807 H   0  0  0  0  0  0  0  0  0  0  0  0
   62.7374   32.8279   47.4658 H   0  0  0  0  0  0  0  0  0  0  0  0
   62.6432   34.6217   47.4658 H   0  0  0  0  0  0  0  0  0  0  0  0
   58.9312   35.3496   46.6848 H   0  0  0  0  0  0  0  0  0  0  0  0
   59.4393   35.7817   44.9893 H   0  0  0  0  0  0  0  0  0  0  0  0
   59.7250   32.4270   44.8870 H   0  0  0  0  0  0  0  0  0  0  0  0
   57.6904   30.6901   46.0391 H   0  0  0  0  0  0  0  0  0  0  0  0
   56.1726   28.9180   45.1555 H   0  0  0  0  0  0  0  0  0  0  0  0
   55.5002   28.9310   42.7526 H   0  0  0  0  0  0  0  0  0  0  0  0
   56.3584   30.7056   41.2251 H   0  0  0  0  0  0  0  0  0  0  0  0
   57.3960   33.1160   46.9730 H   0  0  0  0  0  0  0  0  0  0  0  0
  1  2  1  0
  2  3  2  0
  3  4  1  0
  4  5  1  0
  5  6  1  0
  5  7  1  6
  7  8  1  0
  8  9  1  0
  9 10  2  0
  9 11  1  0
 11 12  1  0
 12 13  2  0
 13 14  1  0
 14 15  2  0
 15 16  1  0
 16 17  2  0
 17 18  1  0
  5 19  1  0
 19 20  1  0
 20 21  2  0
 20 22  1  0
 22 23  1  6
 22 24  1  0
 24 25  2  0
 24  2  1  0
 22  4  1  0
 17 12  1  0
  1 26  1  0
  1 27  1  0
  1 28  1  0
  3 29  1  0
  4 30  1  6
  6 31  1  0
  6 32  1  0
  6 33  1  0
  8 34  1  0
  8 35  1  0
 11 36  1  0
 13 37  1  0
 14 38  1  0
 15 39  1  0
 16 40  1  0
 23 41  1  0
M  END
>  <UniqueID>  (67) 
61

>  <SMILES>  (67) 
CC1=C[C@@H]2C(O)(C(=O)O[C@@]2(C)OCC(=O)Nc2ccccc2F)C1=O

>  <Energy>  (67) 
75.91549184143449

>  <Genealogy>  (67) 
CC1=C[C@@H]2C(O)(C(=O)O[C@@]2(C)OCC(=O)Nc2ccccc2F)C1=O (chirality)
CC1=C[C@@H]2C(O)(C(=O)O[C@@]2(C)OCC(=O)Nc2ccccc2F)C1=O (3D coordinates assigned)
CC1=C[C@@H]2C(O)(C(=O)O[C@@]2(C)OCC(=O)Nc2ccccc2F)C1=O (nonaromatic ring conformer: 75.91549184143449 kcal/mol)

>  <smiles>  (67) 
CC1=CC2C(C)(OCC(=O)Nc3ccccc3F)OC(=O)C2(O)C1=O

>  <score_type>  (67) 
oracle

>  <origin>  (67) 
adg

>  <m_score__min__energy>  (67) 
-7.4900000000000002

>  <m_primary>  (67) 
energy

$$$$
67:0
     RDKit          3D

 50 52  0  0  0  0  0  0  0  0999 V2000
   59.9760   26.7470   48.4740 C   0  0  0  0  0  0  0  0  0  0  0  0
   60.2890   28.1040   47.8970 C   0  0  0  0  0  0  0  0  0  0  0  0
   60.4690   28.2220   46.5090 C   0  0  0  0  0  0  0  0  0  0  0  0
   60.7630   29.4550   45.9340 C   0  0  0  0  0  0  0  0  0  0  0  0
   60.8650   30.5920   46.7290 C   0  0  0  0  0  0  0  0  0  0  0  0
   60.6860   30.5100   48.1170 C   0  0  0  0  0  0  0  0  0  0  0  0
   60.7330   31.7080   48.9050 N   0  0  0  0  0  0  0  0  0  0  0  0
   59.4290   32.8480   48.8830 S   0  0  0  0  0  0  0  0  0  0  0  0
   58.3010   32.3570   49.7470 O   0  0  0  0  0  0  0  0  0  0  0  0
   59.9080   34.1650   49.4260 O   0  0  0  0  0  0  0  0  0  0  0  0
   58.8920   33.0700   47.2220 C   0  0  0  0  0  0  0  0  0  0  0  0
   59.6170   33.9050   46.3620 C   0  0  0  0  0  0  0  0  0  0  0  0
   59.2120   34.0660   45.0350 C   0  0  0  0  0  0  0  0  0  0  0  0
   58.0950   33.3770   44.5550 C   0  0  0  0  0  0  0  0  0  0  0  0
   57.3870   32.5070   45.3930 C   0  0  0  0  0  0  0  0  0  0  0  0
   56.2630   31.8020   44.8580 N   0  0  0  0  0  0  0  0  0  0  0  0
   56.2880   30.1670   44.2750 S   0  0  0  0  0  0  0  0  0  0  0  0
   55.1590   29.3630   44.8550 O   0  0  0  0  0  0  0  0  0  0  0  0
   56.1690   30.1710   42.7770 O   0  0  0  0  0  0  0  0  0  0  0  0
   57.8300   29.4140   44.7590 C   0  0  0  0  0  0  0  0  0  0  0  0
   57.6340   27.9420   44.9930 C   0  0  0  0  0  0  0  0  0  0  0  0
   57.2640   27.4670   46.2620 C   0  0  0  0  0  0  0  0  0  0  0  0
   57.1240   26.0940   46.4870 C   0  0  0  0  0  0  0  0  0  0  0  0
   57.3770   25.1860   45.4560 C   0  0  0  0  0  0  0  0  0  0  0  0
   57.7580   25.6480   44.1940 C   0  0  0  0  0  0  0  0  0  0  0  0
   57.8850   27.0210   43.9610 C   0  0  0  0  0  0  0  0  0  0  0  0
   57.7740   32.3740   46.7380 C   0  0  0  0  0  0  0  0  0  0  0  0
   60.4360   29.2520   48.7210 C   0  0  0  0  0  0  0  0  0  0  0  0
   60.3020   29.1520   50.2240 C   0  0  0  0  0  0  0  0  0  0  0  0
   59.9891   26.8037   49.5725 H   0  0  0  0  0  0  0  0  0  0  0  0
   58.9801   26.4254   48.1353 H   0  0  0  0  0  0  0  0  0  0  0  0
   60.7304   26.0217   48.1353 H   0  0  0  0  0  0  0  0  0  0  0  0
   60.3767   27.3313   45.8702 H   0  0  0  0  0  0  0  0  0  0  0  0
   60.9152   29.5306   44.8472 H   0  0  0  0  0  0  0  0  0  0  0  0
   61.0880   31.5638   46.2645 H   0  0  0  0  0  0  0  0  0  0  0  0
   61.6370   32.0150   49.3270 H   0  0  0  0  0  0  0  0  0  0  0  0
   60.5069   34.4349   46.7325 H   0  0  0  0  0  0  0  0  0  0  0  0
   59.7730   34.7360   44.3669 H   0  0  0  0  0  0  0  0  0  0  0  0
   57.7704   33.5189   43.5136 H   0  0  0  0  0  0  0  0  0  0  0  0
   58.5727   29.5600   43.9608 H   0  0  0  0  0  0  0  0  0  0  0  0
   58.1838   29.8828   45.6891 H   0  0  0  0  0  0  0  0  0  0  0  0
   57.0837   28.1778   47.0819 H   0  0  0  0  0  0  0  0  0  0  0  0
   56.8142   25.7284   47.4772 H   0  0  0  0  0  0  0  0  0  0  0  0
   57.2761   24.1059   45.6382 H   0  0  0  0  0  0  0  0  0  0  0  0
   57.9581   24.9318   43.3835 H   0  0  0  0  0  0  0  0  0  0  0  0
   58.1827   27.3821   42.9655 H   0  0  0  0  0  0  0  0  0  0  0  0
   57.1989   31.7227   47.4126 H   0  0  0  0  0  0  0  0  0  0  0  0
   61.0956   29.7442   50.7031 H   0  0  0  0  0  0  0  0  0  0  0  0
   59.3193   29.5393   50.5311 H   0  0  0  0  0  0  0  0  0  0  0  0
   60.3936   28.0997   50.5311 H   0  0  0  0  0  0  0  0  0  0  0  0
  1  2  1  0
  2  3  2  0
  3  4  1  0
  4  5  2  0
  5  6  1  0
  6  7  1  0
  7  8  1  0
  8  9  2  0
  8 10  2  0
  8 11  1  0
 11 12  2  0
 12 13  1  0
 13 14  2  0
 14 15  1  0
 15 16  1  0
 16 17  1  0
 17 18  2  0
 17 19  2  0
 17 20  1  0
 20 21  1  0
 21 22  2  0
 22 23  1  0
 23 24  2  0
 24 25  1  0
 25 26  2  0
 15 27  2  0
  6 28  2  0
 28 29  1  0
 28  2  1  0
 27 11  1  0
 26 21  1  0
  1 30  1  0
  1 31  1  0
  1 32  1  0
  3 33  1  0
  4 34  1  0
  5 35  1  0
  7 36  1  0
 12 37  1  0
 13 38  1  0
 14 39  1  0
 20 40  1  0
 20 41  1  0
 22 42  1  0
 23 43  1  0
 24 44  1  0
 25 45  1  0
 26 46  1  0
 27 47  1  0
 29 48  1  0
 29 49  1  0
 29 50  1  0
M  CHG  1  16  -1
M  END
>  <UniqueID>  (68) 
62

>  <SMILES>  (68) 
Cc1cccc(NS(=O)(=O)c2cccc([N-]S(=O)(=O)Cc3ccccc3)c2)c1C

>  <Energy>  (68) 
55.17115578760627

>  <Genealogy>  (68) 
Cc1cccc(NS(=O)(=O)c2cccc([N-]S(=O)(=O)Cc3ccccc3)c2)c1C (protonated)
Cc1cccc(NS(=O)(=O)c2cccc([N-]S(=O)(=O)Cc3ccccc3)c2)c1C (3D coordinates assigned)
Cc1cccc(NS(=O)(=O)c2cccc([N-]S(=O)(=O)Cc3ccccc3)c2)c1C (optimized conformer: 55.17115578760627 kcal/mol)

>  <smiles>  (68) 
Cc1cccc(NS(=O)(=O)c2cccc(NS(=O)(=O)Cc3ccccc3)c2)c1C

>  <score_type>  (68) 
oracle

>  <origin>  (68) 
adg

>  <m_score__min__energy>  (68) 
-11.1

>  <m_primary>  (68) 
energy

$$$$
68:0
     RDKit          3D

 68 71  0  0  0  0  0  0  0  0999 V2000
   58.1610   26.7720   44.0810 C   0  0  0  0  0  0  0  0  0  0  0  0
   57.7980   26.9750   45.5420 C   0  0  0  0  0  0  0  0  0  0  0  0
   57.1390   28.2290   45.6920 O   0  0  0  0  0  0  0  0  0  0  0  0
   57.2270   29.2880   44.7750 C   0  0  0  0  0  0  0  0  0  0  0  0
   56.2300   29.5260   43.8080 C   0  0  0  0  0  0  0  0  0  0  0  0
   56.3720   30.5770   42.8970 C   0  0  0  0  0  0  0  0  0  0  0  0
   57.5020   31.3980   42.9400 C   0  0  0  0  0  0  0  0  0  0  0  0
   58.4940   31.1710   43.8940 C   0  0  0  0  0  0  0  0  0  0  0  0
   58.3580   30.1240   44.8170 C   0  0  0  0  0  0  0  0  0  0  0  0
   59.3900   29.8860   45.7810 N   0  0  0  0  0  0  0  0  0  0  0  0
   60.6680   29.3400   45.3210 C   0  0  0  0  0  0  0  0  0  0  0  0
   59.1570   30.1720   47.1760 C   0  0  0  0  0  0  0  0  0  0  0  0
   59.1680   29.1200   48.1050 C   0  0  0  0  0  0  0  0  0  0  0  0
   58.8590   29.3500   49.4460 C   0  0  0  0  0  0  0  0  0  0  0  0
   58.5510   30.6430   49.8940 C   0  0  0  0  0  0  0  0  0  0  0  0
   58.1690   30.8700   51.3090 C   0  0  0  0  0  0  0  0  0  0  0  0
   58.9710   30.5480   52.2300 O   0  0  0  0  0  0  0  0  0  0  0  0
   56.8880   31.4270   51.6480 N   0  0  0  0  0  0  0  0  0  0  0  0
   56.2580   31.1820   52.9420 C   0  0  0  0  0  0  0  0  0  0  0  0
   54.9160   30.5330   52.7440 C   0  0  0  0  0  0  0  0  0  0  0  0
   54.1230   30.8850   51.6390 C   0  0  0  0  0  0  0  0  0  0  0  0
   52.8960   30.2520   51.4210 C   0  0  0  0  0  0  0  0  0  0  0  0
   52.4540   29.2580   52.3000 C   0  0  0  0  0  0  0  0  0  0  0  0
   51.2660   28.6420   52.0830 F   0  0  0  0  0  0  0  0  0  0  0  0
   53.2440   28.8930   53.3960 C   0  0  0  0  0  0  0  0  0  0  0  0
   54.4710   29.5260   53.6170 C   0  0  0  0  0  0  0  0  0  0  0  0
   58.5620   31.7030   48.9720 C   0  0  0  0  0  0  0  0  0  0  0  0
   58.8560   31.4780   47.6160 C   0  0  0  0  0  0  0  0  0  0  0  0
   58.9310   32.5750   46.6980 N   0  0  0  0  0  0  0  0  0  0  0  0
   59.6110   33.8130   46.9390 C   0  0  0  0  0  0  0  0  0  0  0  0
   59.0130   34.9110   46.7810 O   0  0  0  0  0  0  0  0  0  0  0  0
   61.0210   33.7970   47.3650 C   0  0  0  0  0  0  0  0  0  0  0  0
   62.0100   33.7290   46.3680 C   0  0  0  0  0  0  0  0  0  0  0  0
   63.3600   33.6330   46.7120 C   0  0  0  0  0  0  0  0  0  0  0  0
   63.7370   33.5920   48.0540 C   0  0  0  0  0  0  0  0  0  0  0  0
   62.7690   33.6690   49.0570 C   0  0  0  0  0  0  0  0  0  0  0  0
   61.4050   33.8030   48.7320 C   0  0  0  0  0  0  0  0  0  0  0  0
   60.3860   33.9050   49.8470 C   0  0  0  0  0  0  0  0  0  0  0  0
   59.4740   34.9390   49.5910 O   0  0  0  0  0  0  0  0  0  0  0  0
   59.1192   26.2361   44.0123 H   0  0  0  0  0  0  0  0  0  0  0  0
   57.3750   26.1825   43.5864 H   0  0  0  0  0  0  0  0  0  0  0  0
   58.2517   27.7503   43.5864 H   0  0  0  0  0  0  0  0  0  0  0  0
   57.1287   26.1662   45.8704 H   0  0  0  0  0  0  0  0  0  0  0  0
   58.7116   26.9625   46.1545 H   0  0  0  0  0  0  0  0  0  0  0  0
   55.3380   28.8834   43.7698 H   0  0  0  0  0  0  0  0  0  0  0  0
   55.5913   30.7583   42.1436 H   0  0  0  0  0  0  0  0  0  0  0  0
   57.6093   32.2237   42.2212 H   0  0  0  0  0  0  0  0  0  0  0  0
   59.3853   31.8150   43.9224 H   0  0  0  0  0  0  0  0  0  0  0  0
   61.2878   29.0752   46.1903 H   0  0  0  0  0  0  0  0  0  0  0  0
   60.4854   28.4413   44.7135 H   0  0  0  0  0  0  0  0  0  0  0  0
   61.1911   30.0932   44.7135 H   0  0  0  0  0  0  0  0  0  0  0  0
   59.4230   28.1030   47.7722 H   0  0  0  0  0  0  0  0  0  0  0  0
   58.8569   28.5109   50.1573 H   0  0  0  0  0  0  0  0  0  0  0  0
   56.3680   31.9940   50.9420 H   0  0  0  0  0  0  0  0  0  0  0  0
   56.8995   30.5179   53.5399 H   0  0  0  0  0  0  0  0  0  0  0  0
   56.1230   32.1398   53.4659 H   0  0  0  0  0  0  0  0  0  0  0  0
   54.4694   31.6624   50.9421 H   0  0  0  0  0  0  0  0  0  0  0  0
   52.2772   30.5360   50.5570 H   0  0  0  0  0  0  0  0  0  0  0  0
   52.8993   28.1073   54.0843 H   0  0  0  0  0  0  0  0  0  0  0  0
   55.0905   29.2344   54.4779 H   0  0  0  0  0  0  0  0  0  0  0  0
   58.3374   32.7234   49.3161 H   0  0  0  0  0  0  0  0  0  0  0  0
   61.7178   33.7516   45.3078 H   0  0  0  0  0  0  0  0  0  0  0  0
   64.1264   33.5897   45.9241 H   0  0  0  0  0  0  0  0  0  0  0  0
   64.7996   33.4988   48.3229 H   0  0  0  0  0  0  0  0  0  0  0  0
   63.0748   33.6245   50.1127 H   0  0  0  0  0  0  0  0  0  0  0  0
   59.8402   32.9532   49.9257 H   0  0  0  0  0  0  0  0  0  0  0  0
   60.9120   34.1219   50.7884 H   0  0  0  0  0  0  0  0  0  0  0  0
   59.7570   35.3490   48.7350 H   0  0  0  0  0  0  0  0  0  0  0  0
  1  2  1  0
  2  3  1  0
  3  4  1  0
  4  5  2  0
  5  6  1  0
  6  7  2  0
  7  8  1  0
  8  9  2  0
  9 10  1  0
 10 11  1  0
 10 12  1  0
 12 13  2  0
 13 14  1  0
 14 15  2  0
 15 16  1  0
 16 17  2  0
 16 18  1  0
 18 19  1  0
 19 20  1  0
 20 21  2  0
 21 22  1  0
 22 23  2  0
 23 24  1  0
 23 25  1  0
 25 26  2  0
 15 27  1  0
 27 28  2  0
 28 29  1  0
 29 30  1  0
 30 31  2  0
 30 32  1  0
 32 33  2  0
 33 34  1  0
 34 35  2  0
 35 36  1  0
 36 37  2  0
 37 38  1  0
 38 39  1  0
  9  4  1  0
 28 12  1  0
 37 32  1  0
 26 20  1  0
  1 40  1  0
  1 41  1  0
  1 42  1  0
  2 43  1  0
  2 44  1  0
  5 45  1  0
  6 46  1  0
  7 47  1  0
  8 48  1  0
 11 49  1  0
 11 50  1  0
 11 51  1  0
 13 52  1  0
 14 53  1  0
 18 54  1  0
 19 55  1  0
 19 56  1  0
 21 57  1  0
 22 58  1  0
 25 59  1  0
 26 60  1  0
 27 61  1  0
 33 62  1  0
 34 63  1  0
 35 64  1  0
 36 65  1  0
 38 66  1  0
 38 67  1  0
 39 68  1  0
M  CHG  1  29  -1
M  END
>  <UniqueID>  (69) 
63

>  <SMILES>  (69) 
CCOc1ccccc1N(C)c1ccc(C(=O)NCc2ccc(F)cc2)cc1[N-]C(=O)c1ccccc1CO

>  <Energy>  (69) 
88.77995779678693

>  <Genealogy>  (69) 
CCOc1ccccc1N(C)c1ccc(C(=O)NCc2ccc(F)cc2)cc1[N-]C(=O)c1ccccc1CO (protonated)
CCOc1ccccc1N(C)c1ccc(C(=O)NCc2ccc(F)cc2)cc1[N-]C(=O)c1ccccc1CO (3D coordinates assigned)
CCOc1ccccc1N(C)c1ccc(C(=O)NCc2ccc(F)cc2)cc1[N-]C(=O)c1ccccc1CO (optimized conformer: 88.77995779678693 kcal/mol)

>  <smiles>  (69) 
CCOc1ccccc1N(C)c1ccc(C(=O)NCc2ccc(F)cc2)cc1NC(=O)c1ccccc1CO

>  <score_type>  (69) 
oracle

>  <origin>  (69) 
adg

>  <m_score__min__energy>  (69) 
-10.880000000000001

>  <m_primary>  (69) 
energy

$$$$
69:0
     RDKit          3D

 30 31  0  0  0  0  0  0  0  0999 V2000
   57.3910   30.7950   44.1810 C   0  0  0  0  0  0  0  0  0  0  0  0
   57.8300   31.0040   45.6280 C   0  0  1  0  0  0  0  0  0  0  0  0
   58.8490   30.0580   45.9510 O   0  0  0  0  0  0  0  0  0  0  0  0
   58.5730   28.7690   46.4190 C   0  0  0  0  0  0  0  0  0  0  0  0
   58.4650   28.5390   47.6540 O   0  0  0  0  0  0  0  0  0  0  0  0
   58.4840   27.6430   45.4410 C   0  0  0  0  0  0  0  0  0  0  0  0
   57.2560   26.8380   45.7240 C   0  0  0  0  0  0  0  0  0  0  0  0
   57.2700   25.5980   46.2460 N   0  0  0  0  0  0  0  0  0  0  0  0
   55.9580   25.3200   46.4180 C   0  0  0  0  0  0  0  0  0  0  0  0
   55.5550   24.2250   46.8900 O   0  0  0  0  0  0  0  0  0  0  0  0
   55.1150   26.3080   46.0520 N   0  0  0  0  0  0  0  0  0  0  0  0
   55.9540   27.2650   45.6230 C   0  0  0  0  0  0  0  0  0  0  0  0
   55.5390   28.5080   45.1600 O   0  0  0  0  0  0  0  0  0  0  0  0
   58.3410   32.4140   45.8220 C   0  0  0  0  0  0  0  0  0  0  0  0
   58.6850   32.8720   47.1060 C   0  0  0  0  0  0  0  0  0  0  0  0
   59.1560   34.1760   47.2870 C   0  0  0  0  0  0  0  0  0  0  0  0
   59.2800   35.0350   46.1920 C   0  0  0  0  0  0  0  0  0  0  0  0
   58.9280   34.5930   44.9140 C   0  0  0  0  0  0  0  0  0  0  0  0
   58.4560   33.2910   44.7280 C   0  0  0  0  0  0  0  0  0  0  0  0
   56.3979   30.3222   44.1638 H   0  0  0  0  0  0  0  0  0  0  0  0
   57.3433   31.7670   43.6683 H   0  0  0  0  0  0  0  0  0  0  0  0
   58.1154   30.1452   43.6683 H   0  0  0  0  0  0  0  0  0  0  0  0
   56.9692   30.8545   46.2964 H   0  0  0  0  0  0  0  0  0  0  0  0
   58.4310   28.0471   44.4193 H   0  0  0  0  0  0  0  0  0  0  0  0
   59.3737   27.0029   45.5344 H   0  0  0  0  0  0  0  0  0  0  0  0
   58.5831   32.2015   47.9720 H   0  0  0  0  0  0  0  0  0  0  0  0
   59.4294   34.5262   48.2933 H   0  0  0  0  0  0  0  0  0  0  0  0
   59.6547   36.0591   46.3360 H   0  0  0  0  0  0  0  0  0  0  0  0
   59.0226   35.2711   44.0530 H   0  0  0  0  0  0  0  0  0  0  0  0
   58.1730   32.9501   43.7212 H   0  0  0  0  0  0  0  0  0  0  0  0
  1  2  1  0
  2  3  1  0
  3  4  1  0
  4  5  2  0
  4  6  1  0
  6  7  1  0
  7  8  1  0
  8  9  1  0
  9 10  2  0
  9 11  1  0
 11 12  1  0
 12 13  1  0
  2 14  1  0
 14 15  2  0
 15 16  1  0
 16 17  2  0
 17 18  1  0
 18 19  2  0
 12  7  2  0
 19 14  1  0
  1 20  1  0
  1 21  1  0
  1 22  1  0
  2 23  1  1
  6 24  1  0
  6 25  1  0
 15 26  1  0
 16 27  1  0
 17 28  1  0
 18 29  1  0
 19 30  1  0
M  CHG  3   8  -1  11  -1  13  -1
M  END
>  <UniqueID>  (70) 
64

>  <SMILES>  (70) 
C[C@@H](OC(=O)Cc1[n-]c(=O)[n-]c1[O-])c1ccccc1

>  <Energy>  (70) 
52.1830059289625

>  <Genealogy>  (70) 
CC(OC(=O)Cc1[n-]c(=O)[n-]c1[O-])c1ccccc1 (protonated)
C[C@@H](OC(=O)Cc1[n-]c(=O)[n-]c1[O-])c1ccccc1 (chirality)
C[C@@H](OC(=O)Cc1[n-]c(=O)[n-]c1[O-])c1ccccc1 (3D coordinates assigned)
C[C@@H](OC(=O)Cc1[n-]c(=O)[n-]c1[O-])c1ccccc1 (optimized conformer: 52.1830059289625 kcal/mol)

>  <smiles>  (70) 
CC(OC(=O)Cc1[nH]c(=O)[nH]c1O)c1ccccc1

>  <score_type>  (70) 
oracle

>  <origin>  (70) 
adg

>  <m_score__min__energy>  (70) 
-15.31

>  <m_primary>  (70) 
energy

$$$$
70:0
     RDKit          3D

 31 32  0  0  0  0  0  0  0  0999 V2000
   60.6497   30.5774   45.2057 H   0  0  0  0  0  0  0  0  0  0  0  0
   60.3790   29.7770   45.9100 C   0  0  0  0  0  0  0  0  0  0  0  0
   60.4240   30.0580   47.3560 C   0  0  0  0  0  0  0  0  0  0  0  0
   60.9180   29.1890   48.1250 O   0  0  0  0  0  0  0  0  0  0  0  0
   59.9130   31.3000   47.8740 N   0  0  0  0  0  0  0  0  0  0  0  0
   59.6990   32.3980   47.2080 C   0  0  0  0  0  0  0  0  0  0  0  0
   58.5640   32.5720   46.4700 N   0  0  0  0  0  0  0  0  0  0  0  0
   58.3240   33.7140   45.7680 C   0  0  0  0  0  0  0  0  0  0  0  0
   57.0620   33.8500   44.9760 C   0  0  0  0  0  0  0  0  0  0  0  0
   56.2069   33.9421   45.6618 H   0  0  0  0  0  0  0  0  0  0  0  0
   57.1219   34.7469   44.3420 H   0  0  0  0  0  0  0  0  0  0  0  0
   56.9294   32.9609   44.3420 H   0  0  0  0  0  0  0  0  0  0  0  0
   59.2610   34.7530   45.7930 C   0  0  0  0  0  0  0  0  0  0  0  0
   59.0778   35.6800   45.2299 H   0  0  0  0  0  0  0  0  0  0  0  0
   60.4310   34.6010   46.5400 C   0  0  0  0  0  0  0  0  0  0  0  0
   61.1761   35.4098   46.5679 H   0  0  0  0  0  0  0  0  0  0  0  0
   60.6530   33.4210   47.2510 C   0  0  0  0  0  0  0  0  0  0  0  0
   61.5724   33.2957   47.8418 H   0  0  0  0  0  0  0  0  0  0  0  0
   60.0200   28.5810   45.4220 C   0  0  0  0  0  0  0  0  0  0  0  0
   60.7705   28.0020   44.8638 H   0  0  0  0  0  0  0  0  0  0  0  0
   58.6680   27.9940   45.5920 C   0  0  0  0  0  0  0  0  0  0  0  0
   58.4610   26.7090   46.1340 C   0  0  0  0  0  0  0  0  0  0  0  0
   59.3225   26.1061   46.4570 H   0  0  0  0  0  0  0  0  0  0  0  0
   57.1660   26.1970   46.2630 C   0  0  0  0  0  0  0  0  0  0  0  0
   57.0128   25.1968   46.6944 H   0  0  0  0  0  0  0  0  0  0  0  0
   56.0660   26.9510   45.8460 C   0  0  0  0  0  0  0  0  0  0  0  0
   54.7820   26.4340   45.9780 O   0  0  0  0  0  0  0  0  0  0  0  0
   56.2600   28.2200   45.2920 C   0  0  0  0  0  0  0  0  0  0  0  0
   55.1700   28.9720   44.8700 O   0  0  0  0  0  0  0  0  0  0  0  0
   57.5540   28.7360   45.1610 C   0  0  0  0  0  0  0  0  0  0  0  0
   57.7012   29.7314   44.7167 H   0  0  0  0  0  0  0  0  0  0  0  0
  1  2  1  0
  2  3  1  0
  3  4  2  0
  3  5  1  0
  5  6  2  0
  6  7  1  0
  7  8  1  0
  8  9  1  0
  9 10  1  0
  9 11  1  0
  9 12  1  0
  8 13  2  0
 13 14  1  0
 13 15  1  0
 15 16  1  0
 15 17  2  0
 17 18  1  0
  2 19  2  0
 19 20  1  0
 19 21  1  0
 21 22  2  0
 22 23  1  0
 22 24  1  0
 24 25  1  0
 24 26  2  0
 26 27  1  0
 26 28  1  0
 28 29  1  0
 28 30  2  0
 30 31  1  0
 17  6  1  0
 30 21  1  0
M  CHG  3   7  -1  27  -1  29  -1
M  END
>  <UniqueID>  (71) 
65

>  <SMILES>  (71) 
Cc1ccc/c(=N/C(=O)/C=C/c2ccc([O-])c([O-])c2)[n-]1

>  <Energy>  (71) 
35.186132823094596

>  <Genealogy>  (71) 
Cc1cccc(=NC(=O)C=Cc2ccc([O-])c([O-])c2)[n-]1 (protonated)
Cc1ccc/c(=N/C(=O)/C=C/c2ccc([O-])c([O-])c2)[n-]1 (cis-trans isomerization)
Cc1ccc/c(=N/C(=O)/C=C/c2ccc([O-])c([O-])c2)[n-]1 (3D coordinates assigned)
Cc1ccc/c(=N/C(=O)/C=C/c2ccc([O-])c([O-])c2)[n-]1 (optimized conformer: 35.186132823094596 kcal/mol)

>  <smiles>  (71) 
Cc1cccc(=NC(=O)C=Cc2ccc(O)c(O)c2)[nH]1

>  <score_type>  (71) 
oracle

>  <origin>  (71) 
adg

>  <m_score__min__energy>  (71) 
-16.739999999999998

>  <m_primary>  (71) 
energy

$$$$
71:0
     RDKit          3D

 33 34  0  0  0  0  0  0  0  0999 V2000
   55.6226   28.6372   43.9825 H   0  0  0  0  0  0  0  0  0  0  0  0
   56.2650   28.8720   44.8440 C   0  0  0  0  0  0  0  0  0  0  0  0
   56.3790   30.1000   45.2370 N   0  0  0  0  0  0  0  0  0  0  0  0
   57.2380   30.9640   44.5980 O   0  0  0  0  0  0  0  0  0  0  0  0
   57.5530   32.2320   45.1590 C   0  0  0  0  0  0  0  0  0  0  0  0
   56.7658   32.5186   45.8718 H   0  0  0  0  0  0  0  0  0  0  0  0
   57.6184   32.9740   44.3496 H   0  0  0  0  0  0  0  0  0  0  0  0
   58.8830   32.1740   45.8810 C   0  0  0  0  0  0  0  0  0  0  0  0
   59.3470   30.9040   46.2770 C   0  0  0  0  0  0  0  0  0  0  0  0
   58.7763   30.0070   45.9947 H   0  0  0  0  0  0  0  0  0  0  0  0
   60.5180   30.7660   47.0210 C   0  0  0  0  0  0  0  0  0  0  0  0
   60.8720   29.7648   47.3077 H   0  0  0  0  0  0  0  0  0  0  0  0
   61.2390   31.8930   47.4010 C   0  0  0  0  0  0  0  0  0  0  0  0
   62.1618   31.7827   47.9894 H   0  0  0  0  0  0  0  0  0  0  0  0
   60.7920   33.1640   47.0360 C   0  0  0  0  0  0  0  0  0  0  0  0
   61.3639   34.0498   47.3496 H   0  0  0  0  0  0  0  0  0  0  0  0
   59.6210   33.3300   46.2730 C   0  0  0  0  0  0  0  0  0  0  0  0
   59.2220   34.7210   45.9360 C   0  0  0  0  0  0  0  0  0  0  0  0
   58.5480   34.9790   44.9060 O   0  0  0  0  0  0  0  0  0  0  0  0
   59.6450   35.7750   46.7380 O   0  0  0  0  0  0  0  0  0  0  0  0
   56.9850   27.7780   45.5350 C   0  0  0  0  0  0  0  0  0  0  0  0
   58.3890   27.7890   45.6190 C   0  0  0  0  0  0  0  0  0  0  0  0
   58.9562   28.6176   45.1699 H   0  0  0  0  0  0  0  0  0  0  0  0
   59.0670   26.7580   46.2670 C   0  0  0  0  0  0  0  0  0  0  0  0
   60.1652   26.7763   46.3263 H   0  0  0  0  0  0  0  0  0  0  0  0
   58.3580   25.7040   46.8400 C   0  0  0  0  0  0  0  0  0  0  0  0
   58.9032   24.8953   47.3487 H   0  0  0  0  0  0  0  0  0  0  0  0
   56.9600   25.6620   46.7760 C   0  0  0  0  0  0  0  0  0  0  0  0
   56.3020   24.5410   47.3930 N   0  0  0  0  0  0  0  0  0  0  0  0
   55.4860   23.7510   46.8160 C   0  0  0  0  0  0  0  0  0  0  0  0
   54.4600   22.7530   46.0760 S   0  0  0  0  0  0  0  0  0  0  0  0
   56.2670   26.7110   46.1160 C   0  0  0  0  0  0  0  0  0  0  0  0
   54.8780   26.7000   46.0340 O   0  0  0  0  0  0  0  0  0  0  0  0
  1  2  1  0
  2  3  2  0
  3  4  1  0
  4  5  1  0
  5  6  1  0
  5  7  1  0
  5  8  1  0
  8  9  2  0
  9 10  1  0
  9 11  1  0
 11 12  1  0
 11 13  2  0
 13 14  1  0
 13 15  1  0
 15 16  1  0
 15 17  2  0
 17 18  1  0
 18 19  2  0
 18 20  1  0
  2 21  1  0
 21 22  2  0
 22 23  1  0
 22 24  1  0
 24 25  1  0
 24 26  2  0
 26 27  1  0
 26 28  1  0
 28 29  1  0
 29 30  2  0
 30 31  2  0
 28 32  2  0
 32 33  1  0
 17  8  1  0
 32 21  1  0
M  CHG  2  20  -1  33  -1
M  END
>  <UniqueID>  (72) 
66

>  <SMILES>  (72) 
O=C([O-])c1ccccc1CO/N=C/c1cccc(N=C=S)c1[O-]

>  <Energy>  (72) 
40.45797545642495

>  <Genealogy>  (72) 
O=C([O-])c1ccccc1CON=Cc1cccc(N=C=S)c1[O-] (protonated)
O=C([O-])c1ccccc1CO/N=C/c1cccc(N=C=S)c1[O-] (cis-trans isomerization)
O=C([O-])c1ccccc1CO/N=C/c1cccc(N=C=S)c1[O-] (3D coordinates assigned)
O=C([O-])c1ccccc1CO/N=C/c1cccc(N=C=S)c1[O-] (optimized conformer: 40.45797545642495 kcal/mol)

>  <smiles>  (72) 
O=C(O)c1ccccc1CON=Cc1cccc(N=C=S)c1O

>  <score_type>  (72) 
oracle

>  <origin>  (72) 
adg

>  <m_score__min__energy>  (72) 
-13.949999999999999

>  <m_primary>  (72) 
energy

$$$$
72:0
     RDKit          3D

 47 49  0  0  0  0  0  0  0  0999 V2000
   58.9980   21.8150   45.2270 C   0  0  0  0  0  0  0  0  0  0  0  0
   57.7480   22.4730   44.7140 C   0  0  0  0  0  0  0  0  0  0  0  0
   57.1880   22.0470   43.5000 C   0  0  0  0  0  0  0  0  0  0  0  0
   56.0580   22.6790   42.9850 C   0  0  0  0  0  0  0  0  0  0  0  0
   55.4670   23.7350   43.6790 C   0  0  0  0  0  0  0  0  0  0  0  0
   56.0050   24.1790   44.9000 C   0  0  0  0  0  0  0  0  0  0  0  0
   55.2980   25.2570   45.6240 C   0  0  0  0  0  0  0  0  0  0  0  0
   54.0390   25.3060   45.6180 O   0  0  0  0  0  0  0  0  0  0  0  0
   56.0590   26.2510   46.3260 N   0  0  0  0  0  0  0  0  0  0  0  0
   57.0290   27.1460   45.7650 C   0  0  0  0  0  0  0  0  0  0  0  0
   58.3600   26.7180   45.6720 C   0  0  0  0  0  0  0  0  0  0  0  0
   59.3290   27.5440   45.0980 C   0  0  0  0  0  0  0  0  0  0  0  0
   58.9750   28.7980   44.5980 C   0  0  0  0  0  0  0  0  0  0  0  0
   57.6460   29.2330   44.6670 C   0  0  0  0  0  0  0  0  0  0  0  0
   57.2030   30.8000   43.9920 S   0  0  0  0  0  0  0  0  0  0  0  0
   55.8430   31.1810   44.5100 O   0  0  0  0  0  0  0  0  0  0  0  0
   57.1350   30.7130   42.4920 O   0  0  0  0  0  0  0  0  0  0  0  0
   58.3780   32.0020   44.4700 N   0  0  0  0  0  0  0  0  0  0  0  0
   57.9220   33.3700   44.1130 C   0  0  0  0  0  0  0  0  0  0  0  0
   57.3790   34.1550   45.3160 C   0  0  0  0  0  0  0  0  0  0  0  0
   58.4450   34.2880   46.4160 C   0  0  0  0  0  0  0  0  0  0  0  0
   59.3910   33.0750   46.4750 C   0  0  0  0  0  0  0  0  0  0  0  0
   58.7230   31.8230   45.8980 C   0  0  0  0  0  0  0  0  0  0  0  0
   56.6720   28.4030   45.2430 C   0  0  0  0  0  0  0  0  0  0  0  0
   57.1790   23.5640   45.4040 C   0  0  0  0  0  0  0  0  0  0  0  0
   57.8200   24.0300   46.5550 O   0  0  0  0  0  0  0  0  0  0  0  0
   58.9897   21.8194   46.3270 H   0  0  0  0  0  0  0  0  0  0  0  0
   59.0412   20.7773   44.8648 H   0  0  0  0  0  0  0  0  0  0  0  0
   59.8780   22.3668   44.8648 H   0  0  0  0  0  0  0  0  0  0  0  0
   57.6437   21.2093   42.9517 H   0  0  0  0  0  0  0  0  0  0  0  0
   55.6306   22.3442   42.0283 H   0  0  0  0  0  0  0  0  0  0  0  0
   54.5721   24.2247   43.2674 H   0  0  0  0  0  0  0  0  0  0  0  0
   58.6433   25.7258   46.0532 H   0  0  0  0  0  0  0  0  0  0  0  0
   60.3739   27.2053   45.0399 H   0  0  0  0  0  0  0  0  0  0  0  0
   59.7419   29.4461   44.1487 H   0  0  0  0  0  0  0  0  0  0  0  0
   58.7727   33.9233   43.6885 H   0  0  0  0  0  0  0  0  0  0  0  0
   57.0991   33.2643   43.3907 H   0  0  0  0  0  0  0  0  0  0  0  0
   57.0783   35.1595   44.9836 H   0  0  0  0  0  0  0  0  0  0  0  0
   56.5168   33.6105   45.7286 H   0  0  0  0  0  0  0  0  0  0  0  0
   59.0420   35.1909   46.2204 H   0  0  0  0  0  0  0  0  0  0  0  0
   57.9211   34.3485   47.3813 H   0  0  0  0  0  0  0  0  0  0  0  0
   60.2976   33.2984   45.8934 H   0  0  0  0  0  0  0  0  0  0  0  0
   59.6436   32.8812   47.5279 H   0  0  0  0  0  0  0  0  0  0  0  0
   59.4137   30.9724   45.9950 H   0  0  0  0  0  0  0  0  0  0  0  0
   57.7939   31.6385   46.4572 H   0  0  0  0  0  0  0  0  0  0  0  0
   55.6247   28.7366   45.2866 H   0  0  0  0  0  0  0  0  0  0  0  0
   57.5680   24.8880   47.0280 H   0  0  0  0  0  0  0  0  0  0  0  0
  1  2  1  0
  2  3  2  0
  3  4  1  0
  4  5  2  0
  5  6  1  0
  6  7  1  0
  7  8  2  0
  7  9  1  0
  9 10  1  0
 10 11  2  0
 11 12  1  0
 12 13  2  0
 13 14  1  0
 14 15  1  0
 15 16  2  0
 15 17  2  0
 15 18  1  0
 18 19  1  0
 19 20  1  0
 20 21  1  0
 21 22  1  0
 22 23  1  0
 14 24  2  0
  6 25  2  0
 25 26  1  0
 25  2  1  0
 24 10  1  0
 23 18  1  0
  1 27  1  0
  1 28  1  0
  1 29  1  0
  3 30  1  0
  4 31  1  0
  5 32  1  0
 11 33  1  0
 12 34  1  0
 13 35  1  0
 19 36  1  0
 19 37  1  0
 20 38  1  0
 20 39  1  0
 21 40  1  0
 21 41  1  0
 22 42  1  0
 22 43  1  0
 23 44  1  0
 23 45  1  0
 24 46  1  0
 26 47  1  0
M  CHG  1   9  -1
M  END
>  <UniqueID>  (73) 
67

>  <SMILES>  (73) 
Cc1cccc(C(=O)[N-]c2cccc(S(=O)(=O)N3CCCCC3)c2)c1O

>  <Energy>  (73) 
62.57920349638971

>  <Genealogy>  (73) 
Cc1cccc(C(=O)[N-]c2cccc(S(=O)(=O)N3CCCCC3)c2)c1O (protonated)
Cc1cccc(C(=O)[N-]c2cccc(S(=O)(=O)N3CCCCC3)c2)c1O (3D coordinates assigned)
Cc1cccc(C(=O)[N-]c2cccc(S(=O)(=O)N3CCCCC3)c2)c1O (nonaromatic ring conformer: 62.57920349638971 kcal/mol)

>  <smiles>  (73) 
Cc1cccc(C(=O)Nc2cccc(S(=O)(=O)N3CCCCC3)c2)c1O

>  <score_type>  (73) 
oracle

>  <origin>  (73) 
adg

>  <m_score__min__energy>  (73) 
-12.07

>  <m_primary>  (73) 
energy

$$$$
73:0
     RDKit          3D

 40 42  0  0  0  0  0  0  0  0999 V2000
   54.9799   30.8177   43.8042 H   0  0  0  0  0  0  0  0  0  0  0  0
   55.8020   30.1760   44.1540 C   0  0  0  0  0  0  0  0  0  0  0  0
   55.5990   29.0810   44.9350 N   0  0  0  0  0  0  0  0  0  0  0  0
   56.7610   28.4670   45.2460 C   0  0  0  0  0  0  0  0  0  0  0  0
   56.8070   27.4250   46.0230 N   0  0  0  0  0  0  0  0  0  0  0  0
   56.0150   26.2370   45.8740 C   0  0  0  0  0  0  0  0  0  0  0  0
   54.7640   26.3260   45.9810 O   0  0  0  0  0  0  0  0  0  0  0  0
   56.6330   24.9040   45.6570 C   0  0  0  0  0  0  0  0  0  0  0  0
   56.5730   23.9350   46.6760 C   0  0  0  0  0  0  0  0  0  0  0  0
   56.0950   24.1794   47.6361 H   0  0  0  0  0  0  0  0  0  0  0  0
   57.1180   22.6630   46.4740 C   0  0  0  0  0  0  0  0  0  0  0  0
   57.0619   21.9089   47.2729 H   0  0  0  0  0  0  0  0  0  0  0  0
   57.7330   22.3480   45.2610 C   0  0  0  0  0  0  0  0  0  0  0  0
   58.1518   21.3434   45.1017 H   0  0  0  0  0  0  0  0  0  0  0  0
   57.8170   23.3080   44.2490 C   0  0  0  0  0  0  0  0  0  0  0  0
   58.3064   23.0595   43.2957 H   0  0  0  0  0  0  0  0  0  0  0  0
   57.2800   24.5840   44.4460 C   0  0  0  0  0  0  0  0  0  0  0  0
   57.4090   25.5070   43.4580 F   0  0  0  0  0  0  0  0  0  0  0  0
   58.0900   29.2320   44.5350 S   0  0  0  0  0  0  0  0  0  0  0  0
   57.1320   30.4180   43.8340 C   0  0  0  0  0  0  0  0  0  0  0  0
   57.7580   31.8550   42.9720 S   0  0  0  0  0  0  0  0  0  0  0  0
   58.1570   32.6750   44.5170 C   0  0  0  0  0  0  0  0  0  0  0  0
   58.5570   34.0140   44.5110 C   0  0  0  0  0  0  0  0  0  0  0  0
   58.5706   34.5782   43.5668 H   0  0  0  0  0  0  0  0  0  0  0  0
   58.9390   34.6370   45.6990 C   0  0  0  0  0  0  0  0  0  0  0  0
   59.2585   35.6895   45.6864 H   0  0  0  0  0  0  0  0  0  0  0  0
   58.9180   33.9260   46.9150 C   0  0  0  0  0  0  0  0  0  0  0  0
   59.3070   34.5150   48.1280 O   0  0  0  0  0  0  0  0  0  0  0  0
   60.5160   34.2130   48.8190 C   0  0  0  0  0  0  0  0  0  0  0  0
   60.3392   34.2572   49.9038 H   0  0  0  0  0  0  0  0  0  0  0  0
   60.8534   33.2030   48.5433 H   0  0  0  0  0  0  0  0  0  0  0  0
   61.2887   34.9457   48.5433 H   0  0  0  0  0  0  0  0  0  0  0  0
   58.5020   32.5840   46.9260 C   0  0  0  0  0  0  0  0  0  0  0  0
   58.4880   31.9000   48.1530 O   0  0  0  0  0  0  0  0  0  0  0  0
   58.9960   30.5840   48.3480 C   0  0  0  0  0  0  0  0  0  0  0  0
   59.0757   30.3776   49.4255 H   0  0  0  0  0  0  0  0  0  0  0  0
   58.3145   29.8555   47.8845 H   0  0  0  0  0  0  0  0  0  0  0  0
   59.9903   30.5024   47.8845 H   0  0  0  0  0  0  0  0  0  0  0  0
   58.1210   31.9630   45.7210 C   0  0  0  0  0  0  0  0  0  0  0  0
   57.7934   30.9129   45.7262 H   0  0  0  0  0  0  0  0  0  0  0  0
  1  2  1  0
  2  3  1  0
  3  4  1  0
  4  5  2  0
  5  6  1  0
  6  7  2  0
  6  8  1  0
  8  9  2  0
  9 10  1  0
  9 11  1  0
 11 12  1  0
 11 13  2  0
 13 14  1  0
 13 15  1  0
 15 16  1  0
 15 17  2  0
 17 18  1  0
  4 19  1  0
 19 20  1  0
 20 21  1  0
 21 22  1  0
 22 23  2  0
 23 24  1  0
 23 25  1  0
 25 26  1  0
 25 27  2  0
 27 28  1  0
 28 29  1  0
 29 30  1  0
 29 31  1  0
 29 32  1  0
 27 33  1  0
 33 34  1  0
 34 35  1  0
 35 36  1  0
 35 37  1  0
 35 38  1  0
 33 39  2  0
 39 40  1  0
 20  2  2  0
 39 22  1  0
 17  8  1  0
M  CHG  1   3  -1
M  END
>  <UniqueID>  (74) 
68

>  <SMILES>  (74) 
COc1ccc(Sc2c[n-]/c(=N\C(=O)c3ccccc3F)s2)cc1OC

>  <Energy>  (74) 
76.21088676921488

>  <Genealogy>  (74) 
COc1ccc(Sc2c[n-]c(=NC(=O)c3ccccc3F)s2)cc1OC (protonated)
COc1ccc(Sc2c[n-]/c(=N\C(=O)c3ccccc3F)s2)cc1OC (cis-trans isomerization)
COc1ccc(Sc2c[n-]/c(=N\C(=O)c3ccccc3F)s2)cc1OC (3D coordinates assigned)
COc1ccc(Sc2c[n-]/c(=N\C(=O)c3ccccc3F)s2)cc1OC (optimized conformer: 76.21088676921488 kcal/mol)

>  <smiles>  (74) 
COc1ccc(Sc2c[nH]c(=NC(=O)c3ccccc3F)s2)cc1OC

>  <score_type>  (74) 
oracle

>  <origin>  (74) 
adg

>  <m_score__min__energy>  (74) 
-10.460000000000001

>  <m_primary>  (74) 
energy

$$$$
74:0
     RDKit          3D

 38 40  0  0  0  0  0  0  0  0999 V2000
   59.6340   33.6260   49.5890 H   0  0  0  0  0  0  0  0  0  0  0  0
   60.5670   34.0170   49.5900 O   0  0  0  0  0  0  0  0  0  0  0  0
   61.6250   33.4270   48.8980 C   0  0  0  0  0  0  0  0  0  0  0  0
   62.8810   34.0400   48.9280 C   0  0  0  0  0  0  0  0  0  0  0  0
   63.0274   34.9630   49.5082 H   0  0  0  0  0  0  0  0  0  0  0  0
   63.9490   33.4840   48.2240 C   0  0  0  0  0  0  0  0  0  0  0  0
   64.9386   33.9638   48.2444 H   0  0  0  0  0  0  0  0  0  0  0  0
   63.7480   32.3130   47.4940 C   0  0  0  0  0  0  0  0  0  0  0  0
   64.5804   31.8685   46.9287 H   0  0  0  0  0  0  0  0  0  0  0  0
   62.5250   31.7200   47.4800 N   0  0  0  0  0  0  0  0  0  0  0  0
   61.4610   32.2380   48.1590 C   0  0  0  0  0  0  0  0  0  0  0  0
   60.3080   31.6320   48.1560 N   0  0  0  0  0  0  0  0  0  0  0  0
   59.0350   32.2080   47.8100 C   0  0  0  0  0  0  0  0  0  0  0  0
   58.1360   32.3440   48.6860 O   0  0  0  0  0  0  0  0  0  0  0  0
   58.7510   32.5950   46.4080 C   0  0  0  0  0  0  0  0  0  0  0  0
   59.2180   33.8320   45.9300 C   0  0  0  0  0  0  0  0  0  0  0  0
   59.7917   34.4924   46.5969 H   0  0  0  0  0  0  0  0  0  0  0  0
   58.9610   34.2290   44.6200 C   0  0  0  0  0  0  0  0  0  0  0  0
   59.3116   35.2096   44.2658 H   0  0  0  0  0  0  0  0  0  0  0  0
   58.2610   33.3880   43.7560 C   0  0  0  0  0  0  0  0  0  0  0  0
   58.0571   33.7112   42.7245 H   0  0  0  0  0  0  0  0  0  0  0  0
   57.8150   32.1320   44.1940 C   0  0  0  0  0  0  0  0  0  0  0  0
   57.1210   31.2250   43.2120 C   0  0  0  0  0  0  0  0  0  0  0  0
   56.5412   30.4672   43.7593 H   0  0  0  0  0  0  0  0  0  0  0  0
   56.4442   31.8185   42.5798 H   0  0  0  0  0  0  0  0  0  0  0  0
   57.8708   30.7269   42.5798 H   0  0  0  0  0  0  0  0  0  0  0  0
   58.0300   31.7450   45.5380 C   0  0  0  0  0  0  0  0  0  0  0  0
   57.5930   30.4990   46.0060 O   0  0  0  0  0  0  0  0  0  0  0  0
   58.0390   29.2770   45.4890 C   0  0  0  0  0  0  0  0  0  0  0  0
   59.0580   29.2230   44.7480 O   0  0  0  0  0  0  0  0  0  0  0  0
   57.2820   28.0540   45.7740 C   0  0  0  0  0  0  0  0  0  0  0  0
   55.9510   27.9430   45.5910 N   0  0  0  0  0  0  0  0  0  0  0  0
   55.6550   26.6930   45.9970 C   0  0  0  0  0  0  0  0  0  0  0  0
   54.3700   26.1690   45.9710 O   0  0  0  0  0  0  0  0  0  0  0  0
   56.7680   26.0130   46.4360 C   0  0  0  0  0  0  0  0  0  0  0  0
   56.8084   24.9832   46.8205 H   0  0  0  0  0  0  0  0  0  0  0  0
   57.8200   26.8890   46.2940 C   0  0  0  0  0  0  0  0  0  0  0  0
   58.8749   26.7015   46.5432 H   0  0  0  0  0  0  0  0  0  0  0  0
  1  2  1  0
  2  3  1  0
  3  4  2  0
  4  5  1  0
  4  6  1  0
  6  7  1  0
  6  8  2  0
  8  9  1  0
  8 10  1  0
 10 11  1  0
 11 12  2  0
 12 13  1  0
 13 14  2  0
 13 15  1  0
 15 16  2  0
 16 17  1  0
 16 18  1  0
 18 19  1  0
 18 20  2  0
 20 21  1  0
 20 22  1  0
 22 23  1  0
 23 24  1  0
 23 25  1  0
 23 26  1  0
 22 27  2  0
 27 28  1  0
 28 29  1  0
 29 30  2  0
 29 31  1  0
 31 32  1  0
 32 33  1  0
 33 34  1  0
 33 35  2  0
 35 36  1  0
 35 37  1  0
 37 38  1  0
 11  3  1  0
 27 15  1  0
 37 31  2  0
M  CHG  3  10  -1  32  -1  34  -1
M  END
>  <UniqueID>  (75) 
69

>  <SMILES>  (75) 
Cc1cccc(C(=O)/N=c2\[n-]cccc2O)c1OC(=O)c1ccc([O-])[n-]1

>  <Energy>  (75) 
77.29724967615314

>  <Genealogy>  (75) 
Cc1cccc(C(=O)N=c2[n-]cccc2O)c1OC(=O)c1ccc([O-])[n-]1 (protonated)
Cc1cccc(C(=O)/N=c2\[n-]cccc2O)c1OC(=O)c1ccc([O-])[n-]1 (cis-trans isomerization)
Cc1cccc(C(=O)/N=c2\[n-]cccc2O)c1OC(=O)c1ccc([O-])[n-]1 (3D coordinates assigned)
Cc1cccc(C(=O)/N=c2\[n-]cccc2O)c1OC(=O)c1ccc([O-])[n-]1 (optimized conformer: 77.29724967615314 kcal/mol)

>  <smiles>  (75) 
Cc1cccc(C(=O)N=c2[nH]cccc2O)c1OC(=O)c1ccc(O)[nH]1

>  <score_type>  (75) 
oracle

>  <origin>  (75) 
adg

>  <m_score__min__energy>  (75) 
-14.58

>  <m_primary>  (75) 
energy

$$$$
75:0
     RDKit          3D

 49 51  0  0  0  0  0  0  0  0999 V2000
   60.3760   22.4450   45.5030 N   0  0  0  0  0  0  0  0  0  0  0  0
   59.1880   22.9440   45.3890 C   0  0  0  0  0  0  0  0  0  0  0  0
   58.8740   24.1120   46.0040 N   0  0  0  0  0  0  0  0  0  0  0  0
   57.6320   24.6630   45.9080 C   0  0  0  0  0  0  0  0  0  0  0  0
   57.3920   25.9530   46.5010 N   0  0  0  0  0  0  0  0  0  0  0  0
   58.3340   27.0640   46.3560 C   0  0  0  0  0  0  0  0  0  0  0  0
   57.9010   28.0150   45.2310 C   0  0  0  0  0  0  0  0  0  0  0  0
   56.4310   28.3530   45.2840 C   0  0  0  0  0  0  0  0  0  0  0  0
   55.5950   27.4760   45.6270 O   0  0  0  0  0  0  0  0  0  0  0  0
   55.9580   29.6670   44.9620 N   0  0  0  0  0  0  0  0  0  0  0  0
   56.7560   30.7260   44.4170 C   0  0  0  0  0  0  0  0  0  0  0  0
   56.9510   30.7920   43.0320 C   0  0  0  0  0  0  0  0  0  0  0  0
   57.7280   31.8130   42.4790 C   0  0  0  0  0  0  0  0  0  0  0  0
   58.3280   32.7650   43.3080 C   0  0  0  0  0  0  0  0  0  0  0  0
   58.1650   32.6940   44.6980 C   0  0  0  0  0  0  0  0  0  0  0  0
   58.9410   33.8810   45.7510 S   0  0  0  0  0  0  0  0  0  0  0  0
   59.5070   34.9920   44.9110 O   0  0  0  0  0  0  0  0  0  0  0  0
   57.9100   34.4740   46.6720 O   0  0  0  0  0  0  0  0  0  0  0  0
   60.2190   33.1630   46.7040 N   0  0  0  0  0  0  0  0  0  0  0  0
   59.8930   33.1590   48.1470 C   0  0  0  0  0  0  0  0  0  0  0  0
   60.7180   34.1960   48.9280 C   0  0  0  0  0  0  0  0  0  0  0  0
   62.1190   33.9940   48.8100 O   0  0  0  0  0  0  0  0  0  0  0  0
   62.5250   33.5360   47.5240 C   0  0  0  0  0  0  0  0  0  0  0  0
   61.5100   33.8080   46.4010 C   0  0  0  0  0  0  0  0  0  0  0  0
   57.3910   31.6630   45.2500 C   0  0  0  0  0  0  0  0  0  0  0  0
   56.6340   23.9790   45.1720 C   0  0  0  0  0  0  0  0  0  0  0  0
   55.2690   24.4150   45.0940 N   0  0  0  0  0  0  0  0  0  0  0  0
   54.7490   25.1650   45.9450 O   0  0  0  0  0  0  0  0  0  0  0  0
   56.9980   22.7920   44.5190 C   0  0  0  0  0  0  0  0  0  0  0  0
   56.1540   22.1620   43.8280 O   0  0  0  0  0  0  0  0  0  0  0  0
   58.2570   22.3020   44.6420 N   0  0  0  0  0  0  0  0  0  0  0  0
   61.1740   22.8000   44.9300 H   0  0  0  0  0  0  0  0  0  0  0  0
   56.4720   26.1680   46.9400 H   0  0  0  0  0  0  0  0  0  0  0  0
   58.3775   27.6235   47.3021 H   0  0  0  0  0  0  0  0  0  0  0  0
   59.3223   26.6524   46.1034 H   0  0  0  0  0  0  0  0  0  0  0  0
   58.4792   28.9469   45.3166 H   0  0  0  0  0  0  0  0  0  0  0  0
   58.0891   27.5043   44.2750 H   0  0  0  0  0  0  0  0  0  0  0  0
   56.4909   30.0374   42.3771 H   0  0  0  0  0  0  0  0  0  0  0  0
   57.8678   31.8677   41.3893 H   0  0  0  0  0  0  0  0  0  0  0  0
   58.9305   33.5731   42.8676 H   0  0  0  0  0  0  0  0  0  0  0  0
   58.8246   33.3898   48.2702 H   0  0  0  0  0  0  0  0  0  0  0  0
   60.1341   32.1629   48.5466 H   0  0  0  0  0  0  0  0  0  0  0  0
   60.4749   35.1980   48.5447 H   0  0  0  0  0  0  0  0  0  0  0  0
   60.4587   34.0890   49.9916 H   0  0  0  0  0  0  0  0  0  0  0  0
   63.4688   34.0370   47.2629 H   0  0  0  0  0  0  0  0  0  0  0  0
   62.6247   32.4430   47.5980 H   0  0  0  0  0  0  0  0  0  0  0  0
   61.3587   34.8933   46.3050 H   0  0  0  0  0  0  0  0  0  0  0  0
   61.9017   33.3949   45.4598 H   0  0  0  0  0  0  0  0  0  0  0  0
   57.2802   31.5872   46.3418 H   0  0  0  0  0  0  0  0  0  0  0  0
  1  2  2  3
  2  3  1  0
  3  4  1  0
  4  5  1  0
  5  6  1  0
  6  7  1  0
  7  8  1  0
  8  9  2  0
  8 10  1  0
 10 11  1  0
 11 12  2  0
 12 13  1  0
 13 14  2  0
 14 15  1  0
 15 16  1  0
 16 17  2  0
 16 18  2  0
 16 19  1  0
 19 20  1  0
 20 21  1  0
 21 22  1  0
 22 23  1  0
 23 24  1  0
 15 25  2  0
  4 26  2  0
 26 27  1  0
 27 28  2  0
 26 29  1  0
 29 30  2  0
 29 31  1  0
 31  2  1  0
 25 11  1  0
 24 19  1  0
  1 32  1  0
  5 33  1  0
  6 34  1  0
  6 35  1  0
  7 36  1  0
  7 37  1  0
 12 38  1  0
 13 39  1  0
 14 40  1  0
 20 41  1  0
 20 42  1  0
 21 43  1  0
 21 44  1  0
 23 45  1  0
 23 46  1  0
 24 47  1  0
 24 48  1  0
 25 49  1  0
M  CHG  3   3  -1  10  -1  31  -1
M  END
>  <UniqueID>  (76) 
70

>  <SMILES>  (76) 
N=c1[n-]c(NCCC(=O)[N-]c2cccc(S(=O)(=O)N3CCOCC3)c2)c(N=O)c(=O)[n-]1

>  <Energy>  (76) 
68.60384593628936

>  <Genealogy>  (76) 
N=c1[n-]c(NCCC(=O)[N-]c2cccc(S(=O)(=O)N3CCOCC3)c2)c(N=O)c(=O)[n-]1 (protonated)
N=c1[n-]c(NCCC(=O)[N-]c2cccc(S(=O)(=O)N3CCOCC3)c2)c(N=O)c(=O)[n-]1 (3D coordinates assigned)
N=c1[n-]c(NCCC(=O)[N-]c2cccc(S(=O)(=O)N3CCOCC3)c2)c(N=O)c(=O)[n-]1 (nonaromatic ring conformer: 68.60384593628936 kcal/mol)

>  <smiles>  (76) 
N=c1[nH]c(NCCC(=O)Nc2cccc(S(=O)(=O)N3CCOCC3)c2)c(N=O)c(=O)[nH]1

>  <score_type>  (76) 
oracle

>  <origin>  (76) 
adg

>  <m_score__min__energy>  (76) 
-14.859999999999999

>  <m_primary>  (76) 
energy

$$$$
76:0
     RDKit          3D

 60 63  0  0  0  0  0  0  0  0999 V2000
   56.5570   29.9680   43.0310 C   0  0  0  0  0  0  0  0  0  0  0  0
   56.2210   29.8970   44.4900 C   0  0  0  0  0  0  0  0  0  0  0  0
   55.1480   29.3400   44.8420 O   0  0  0  0  0  0  0  0  0  0  0  0
   57.1030   30.4040   45.5000 N   0  0  0  0  0  0  0  0  0  0  0  0
   57.7340   31.6930   45.5090 C   0  0  0  0  0  0  0  0  0  0  0  0
   57.0730   32.7740   44.9210 C   0  0  0  0  0  0  0  0  0  0  0  0
   57.6730   34.0330   44.8860 C   0  0  0  0  0  0  0  0  0  0  0  0
   58.9380   34.2220   45.4470 C   0  0  0  0  0  0  0  0  0  0  0  0
   59.6170   33.1500   46.0520 C   0  0  0  0  0  0  0  0  0  0  0  0
   60.9990   33.3540   46.6500 C   0  0  0  0  0  0  0  0  0  0  0  0
   61.0230   34.0930   47.9370 N   0  0  0  0  0  0  0  0  0  0  0  0
   62.2750   33.9800   48.6970 C   0  0  0  0  0  0  0  0  0  0  0  0
   61.9010   33.9620   50.1690 C   0  0  0  0  0  0  0  0  0  0  0  0
   60.4920   33.3890   50.1990 C   0  0  2  0  0  0  0  0  0  0  0  0
   60.5270   31.8540   50.3610 C   0  0  0  0  0  0  0  0  0  0  0  0
   60.2490   31.1690   49.0990 N   0  0  0  0  0  0  0  0  0  0  0  0
   59.4120   30.0030   49.0590 C   0  0  0  0  0  0  0  0  0  0  0  0
   58.7230   29.6890   50.0670 O   0  0  0  0  0  0  0  0  0  0  0  0
   59.3700   29.1510   47.8610 C   0  0  0  0  0  0  0  0  0  0  0  0
   60.2270   29.3850   46.8290 N   0  0  0  0  0  0  0  0  0  0  0  0
   60.1940   28.6300   45.7000 C   0  0  0  0  0  0  0  0  0  0  0  0
   61.1560   28.9070   44.5890 C   0  0  0  0  0  0  0  0  0  0  0  0
   59.2700   27.5850   45.5930 C   0  0  0  0  0  0  0  0  0  0  0  0
   58.3960   27.3580   46.6580 C   0  0  0  0  0  0  0  0  0  0  0  0
   57.4350   26.3070   46.5930 N   0  0  0  0  0  0  0  0  0  0  0  0
   56.2480   25.9740   45.7860 C   0  0  0  0  0  0  0  0  0  0  0  0
   55.9390   24.6890   46.4830 C   0  0  0  0  0  0  0  0  0  0  0  0
   57.1450   25.0410   47.2900 C   0  0  0  0  0  0  0  0  0  0  0  0
   58.4630   28.1430   47.7640 N   0  0  0  0  0  0  0  0  0  0  0  0
   59.9040   33.8270   48.8540 C   0  0  0  0  0  0  0  0  0  0  0  0
   59.0250   31.8740   46.0320 C   0  0  0  0  0  0  0  0  0  0  0  0
   57.6269   30.1941   42.9117 H   0  0  0  0  0  0  0  0  0  0  0  0
   56.3310   29.0023   42.5553 H   0  0  0  0  0  0  0  0  0  0  0  0
   55.9597   30.7598   42.5553 H   0  0  0  0  0  0  0  0  0  0  0  0
   56.0740   32.6318   44.4832 H   0  0  0  0  0  0  0  0  0  0  0  0
   57.1490   34.8782   44.4158 H   0  0  0  0  0  0  0  0  0  0  0  0
   59.4064   35.2168   45.4152 H   0  0  0  0  0  0  0  0  0  0  0  0
   61.4482   32.3638   46.8167 H   0  0  0  0  0  0  0  0  0  0  0  0
   61.5570   33.9714   45.9307 H   0  0  0  0  0  0  0  0  0  0  0  0
   62.7972   33.0498   48.4285 H   0  0  0  0  0  0  0  0  0  0  0  0
   62.9474   34.8213   48.4731 H   0  0  0  0  0  0  0  0  0  0  0  0
   62.5925   33.3229   50.7377 H   0  0  0  0  0  0  0  0  0  0  0  0
   61.9552   34.9612   50.6258 H   0  0  0  0  0  0  0  0  0  0  0  0
   59.8877   33.7437   51.0470 H   0  0  0  0  0  0  0  0  0  0  0  0
   61.5246   31.5559   50.7159 H   0  0  0  0  0  0  0  0  0  0  0  0
   59.7489   31.5683   51.0842 H   0  0  0  0  0  0  0  0  0  0  0  0
   60.7120   31.4960   48.2200 H   0  0  0  0  0  0  0  0  0  0  0  0
   62.1322   29.1881   45.0108 H   0  0  0  0  0  0  0  0  0  0  0  0
   61.2702   28.0052   43.9695 H   0  0  0  0  0  0  0  0  0  0  0  0
   60.7732   29.7314   43.9695 H   0  0  0  0  0  0  0  0  0  0  0  0
   59.2329   26.9568   44.6908 H   0  0  0  0  0  0  0  0  0  0  0  0
   55.4431   26.7167   45.8880 H   0  0  0  0  0  0  0  0  0  0  0  0
   56.3791   25.9334   44.6946 H   0  0  0  0  0  0  0  0  0  0  0  0
   54.9882   24.6654   47.0357 H   0  0  0  0  0  0  0  0  0  0  0  0
   55.8045   23.7270   45.9668 H   0  0  0  0  0  0  0  0  0  0  0  0
   56.9152   25.1861   48.3559 H   0  0  0  0  0  0  0  0  0  0  0  0
   57.9535   24.2964   47.3337 H   0  0  0  0  0  0  0  0  0  0  0  0
   59.2682   33.0275   48.4459 H   0  0  0  0  0  0  0  0  0  0  0  0
   59.2889   34.7302   48.9804 H   0  0  0  0  0  0  0  0  0  0  0  0
   59.5781   31.0102   46.4295 H   0  0  0  0  0  0  0  0  0  0  0  0
  1  2  1  0
  2  3  2  0
  2  4  1  0
  4  5  1  0
  5  6  2  0
  6  7  1  0
  7  8  2  0
  8  9  1  0
  9 10  1  0
 10 11  1  0
 11 12  1  0
 12 13  1  0
 13 14  1  0
 14 15  1  0
 15 16  1  0
 16 17  1  0
 17 18  2  0
 17 19  1  0
 19 20  2  0
 20 21  1  0
 21 22  1  0
 21 23  2  0
 23 24  1  0
 24 25  1  0
 25 26  1  0
 26 27  1  0
 27 28  1  0
 24 29  2  0
 14 30  1  0
  9 31  2  0
 31  5  1  0
 30 11  1  0
 29 19  1  0
 28 25  1  0
  1 32  1  0
  1 33  1  0
  1 34  1  0
  6 35  1  0
  7 36  1  0
  8 37  1  0
 10 38  1  0
 10 39  1  0
 12 40  1  0
 12 41  1  0
 13 42  1  0
 13 43  1  0
 14 44  1  1
 15 45  1  0
 15 46  1  0
 16 47  1  0
 22 48  1  0
 22 49  1  0
 22 50  1  0
 23 51  1  0
 26 52  1  0
 26 53  1  0
 27 54  1  0
 27 55  1  0
 28 56  1  0
 28 57  1  0
 30 58  1  0
 30 59  1  0
 31 60  1  0
M  CHG  1   4  -1
M  END
>  <UniqueID>  (77) 
71

>  <SMILES>  (77) 
CC(=O)[N-]c1cccc(CN2CC[C@H](CNC(=O)c3nc(C)cc(N4CCC4)n3)C2)c1

>  <Energy>  (77) 
106.86124345660627

>  <Genealogy>  (77) 
CC(=O)[N-]c1cccc(CN2CCC(CNC(=O)c3nc(C)cc(N4CCC4)n3)C2)c1 (protonated)
CC(=O)[N-]c1cccc(CN2CC[C@H](CNC(=O)c3nc(C)cc(N4CCC4)n3)C2)c1 (chirality)
CC(=O)[N-]c1cccc(CN2CC[C@H](CNC(=O)c3nc(C)cc(N4CCC4)n3)C2)c1 (3D coordinates assigned)
CC(=O)[N-]c1cccc(CN2CC[C@H](CNC(=O)c3nc(C)cc(N4CCC4)n3)C2)c1 (nonaromatic ring conformer: 106.86124345660627 kcal/mol)

>  <smiles>  (77) 
CC(=O)Nc1cccc(CN2CCC(CNC(=O)c3nc(C)cc(N4CCC4)n3)C2)c1

>  <score_type>  (77) 
oracle

>  <origin>  (77) 
adg

>  <m_score__min__energy>  (77) 
-11.039999999999999

>  <m_primary>  (77) 
energy

$$$$
77:0
     RDKit          3D

 56 59  0  0  0  0  0  0  0  0999 V2000
   57.5254   33.7417   45.7184 H   0  0  0  0  0  0  0  0  0  0  0  0
   57.5430   32.6420   45.7010 C   0  0  0  0  0  0  0  0  0  0  0  0
   56.7180   31.9640   44.8650 N   0  0  0  0  0  0  0  0  0  0  0  0
   56.7220   30.6020   44.8280 C   0  0  0  0  0  0  0  0  0  0  0  0
   55.9330   29.9540   44.0250 N   0  0  0  0  0  0  0  0  0  0  0  0
   56.2900   29.5710   42.6630 C   0  0  0  0  0  0  0  0  0  0  0  0
   57.0398   28.7666   42.6929 H   0  0  0  0  0  0  0  0  0  0  0  0
   55.3927   29.2164   42.1347 H   0  0  0  0  0  0  0  0  0  0  0  0
   56.7067   30.4412   42.1347 H   0  0  0  0  0  0  0  0  0  0  0  0
   57.5630   29.9100   45.6380 N   0  0  0  0  0  0  0  0  0  0  0  0
   58.4100   30.5430   46.4970 C   0  0  0  0  0  0  0  0  0  0  0  0
   59.2810   29.7660   47.3410 N   0  0  0  0  0  0  0  0  0  0  0  0
   58.8490   28.5550   48.0140 C   0  0  0  0  0  0  0  0  0  0  0  0
   58.1039   28.7912   48.7880 H   0  0  0  0  0  0  0  0  0  0  0  0
   58.3758   27.8489   47.3158 H   0  0  0  0  0  0  0  0  0  0  0  0
   60.1030   27.9660   48.6460 C   0  0  0  0  0  0  0  0  0  0  0  0
   59.8859   27.6078   49.6631 H   0  0  0  0  0  0  0  0  0  0  0  0
   60.4783   27.1072   48.0702 H   0  0  0  0  0  0  0  0  0  0  0  0
   61.1280   29.1010   48.6900 C   0  0  2  0  0  0  0  0  0  0  0  0
   62.1543   28.7569   48.4941 H   0  0  0  0  0  0  0  0  0  0  0  0
   61.1150   29.6970   49.9910 O   0  0  0  0  0  0  0  0  0  0  0  0
   59.9620   30.1040   50.6840 C   0  0  0  0  0  0  0  0  0  0  0  0
   59.5590   29.3560   51.7950 C   0  0  0  0  0  0  0  0  0  0  0  0
   60.1491   28.4813   52.1060 H   0  0  0  0  0  0  0  0  0  0  0  0
   58.4150   29.7090   52.5130 C   0  0  0  0  0  0  0  0  0  0  0  0
   58.1143   29.1111   53.3859 H   0  0  0  0  0  0  0  0  0  0  0  0
   57.6430   30.8210   52.1320 C   0  0  0  0  0  0  0  0  0  0  0  0
   56.4210   31.1770   52.9630 C   0  0  1  0  0  0  0  0  0  0  0  0
   56.5532   32.2379   53.2220 H   0  0  0  0  0  0  0  0  0  0  0  0
   55.1940   31.0030   52.1850 N   0  0  0  0  0  0  0  0  0  0  0  0
   54.0140   30.3210   52.6280 C   0  0  0  0  0  0  0  0  0  0  0  0
   54.0590   29.1080   52.9660 O   0  0  0  0  0  0  0  0  0  0  0  0
   52.7260   31.0710   52.7320 C   0  0  0  0  0  0  0  0  0  0  0  0
   52.0261   30.5076   53.3666 H   0  0  0  0  0  0  0  0  0  0  0  0
   52.9173   32.0592   53.1756 H   0  0  0  0  0  0  0  0  0  0  0  0
   52.1290   31.2490   51.3720 C   0  0  0  0  0  0  0  0  0  0  0  0
   51.4510   32.3550   51.0000 N   0  0  0  0  0  0  0  0  0  0  0  0
   51.0200   32.0860   49.7520 C   0  0  0  0  0  0  0  0  0  0  0  0
   50.2740   32.9800   48.9970 O   0  0  0  0  0  0  0  0  0  0  0  0
   51.4000   30.8290   49.3310 C   0  0  0  0  0  0  0  0  0  0  0  0
   51.1822   30.3585   48.3608 H   0  0  0  0  0  0  0  0  0  0  0  0
   52.1090   30.2860   50.3790 C   0  0  0  0  0  0  0  0  0  0  0  0
   52.5675   29.2869   50.4187 H   0  0  0  0  0  0  0  0  0  0  0  0
   56.3150   30.4420   54.3070 C   0  0  0  0  0  0  0  0  0  0  0  0
   56.4193   31.1649   55.1295 H   0  0  0  0  0  0  0  0  0  0  0  0
   55.3360   29.9455   54.3772 H   0  0  0  0  0  0  0  0  0  0  0  0
   57.1138   29.6891   54.3772 H   0  0  0  0  0  0  0  0  0  0  0  0
   58.0630   31.5850   51.0250 C   0  0  0  0  0  0  0  0  0  0  0  0
   57.4858   32.4720   50.7250 H   0  0  0  0  0  0  0  0  0  0  0  0
   59.2050   31.2270   50.3050 C   0  0  0  0  0  0  0  0  0  0  0  0
   59.5141   31.8270   49.4364 H   0  0  0  0  0  0  0  0  0  0  0  0
   60.6650   30.1030   47.6290 C   0  0  0  0  0  0  0  0  0  0  0  0
   60.7363   31.1303   48.0158 H   0  0  0  0  0  0  0  0  0  0  0  0
   61.2899   30.0522   46.7251 H   0  0  0  0  0  0  0  0  0  0  0  0
   58.4130   31.9460   46.5380 C   0  0  0  0  0  0  0  0  0  0  0  0
   59.0890   32.4856   47.2176 H   0  0  0  0  0  0  0  0  0  0  0  0
  1  2  1  0
  2  3  1  0
  3  4  1  0
  4  5  2  0
  5  6  1  0
  6  7  1  0
  6  8  1  0
  6  9  1  0
  4 10  1  0
 10 11  2  0
 11 12  1  0
 12 13  1  0
 13 14  1  0
 13 15  1  0
 13 16  1  0
 16 17  1  0
 16 18  1  0
 16 19  1  0
 19 20  1  6
 19 21  1  0
 21 22  1  0
 22 23  2  0
 23 24  1  0
 23 25  1  0
 25 26  1  0
 25 27  2  0
 27 28  1  0
 28 29  1  1
 28 30  1  0
 30 31  1  0
 31 32  2  0
 31 33  1  0
 33 34  1  0
 33 35  1  0
 33 36  1  0
 36 37  1  0
 37 38  1  0
 38 39  1  0
 38 40  2  0
 40 41  1  0
 40 42  1  0
 42 43  1  0
 28 44  1  0
 44 45  1  0
 44 46  1  0
 44 47  1  0
 27 48  1  0
 48 49  1  0
 48 50  2  0
 50 51  1  0
 19 52  1  0
 52 53  1  0
 52 54  1  0
 11 55  1  0
 55 56  1  0
 55  2  2  0
 52 12  1  0
 50 22  1  0
 42 36  2  0
M  CHG  4   3  -1  30  -1  37  -1  39  -1
M  END
>  <UniqueID>  (78) 
72

>  <SMILES>  (78) 
C/N=c1/nc(N2CC[C@H](Oc3ccc([C@H](C)[N-]C(=O)Cc4ccc([O-])[n-]4)cc3)C2)cc[n-]1

>  <Energy>  (78) 
81.69657477203323

>  <Genealogy>  (78) 
CN=c1nc(N2CCC(Oc3ccc(C(C)[N-]C(=O)Cc4ccc([O-])[n-]4)cc3)C2)cc[n-]1 (protonated)
CN=c1nc(N2CC[C@H](Oc3ccc([C@H](C)[N-]C(=O)Cc4ccc([O-])[n-]4)cc3)C2)cc[n-]1 (chirality)
C/N=c1/nc(N2CC[C@H](Oc3ccc([C@H](C)[N-]C(=O)Cc4ccc([O-])[n-]4)cc3)C2)cc[n-]1 (cis-trans isomerization)
C/N=c1/nc(N2CC[C@H](Oc3ccc([C@H](C)[N-]C(=O)Cc4ccc([O-])[n-]4)cc3)C2)cc[n-]1 (3D coordinates assigned)
C/N=c1/nc(N2CC[C@H](Oc3ccc([C@H](C)[N-]C(=O)Cc4ccc([O-])[n-]4)cc3)C2)cc[n-]1 (nonaromatic ring conformer: 81.69657477203323 kcal/mol)

>  <smiles>  (78) 
CN=c1nc(N2CCC(Oc3ccc(C(C)NC(=O)Cc4ccc(O)[nH]4)cc3)C2)cc[nH]1

>  <score_type>  (78) 
oracle

>  <origin>  (78) 
adg

>  <m_score__min__energy>  (78) 
-18.300000000000001

>  <m_primary>  (78) 
energy

$$$$
78:0
     RDKit          3D

 38 39  0  0  0  0  0  0  0  0999 V2000
   56.9990   21.6040   43.0200 C   0  0  0  0  0  0  0  0  0  0  0  0
   58.4170   21.4670   43.5600 C   0  0  0  0  0  0  0  0  0  0  0  0
   58.5450   22.1630   45.2020 S   0  0  0  0  0  0  0  0  0  0  0  0
   59.9420   22.6650   45.4380 O   0  0  0  0  0  0  0  0  0  0  0  0
   58.2320   21.0890   46.2080 O   0  0  0  0  0  0  0  0  0  0  0  0
   57.4140   23.5010   45.3830 C   0  0  0  0  0  0  0  0  0  0  0  0
   56.0710   23.2680   45.7080 C   0  0  0  0  0  0  0  0  0  0  0  0
   55.2010   24.3430   45.9080 C   0  0  0  0  0  0  0  0  0  0  0  0
   55.6630   25.6580   45.7900 C   0  0  0  0  0  0  0  0  0  0  0  0
   54.7860   26.7150   46.0070 O   0  0  0  0  0  0  0  0  0  0  0  0
   57.0030   25.9050   45.4500 C   0  0  0  0  0  0  0  0  0  0  0  0
   57.4950   27.2540   45.3800 N   0  0  0  0  0  0  0  0  0  0  0  0
   58.2240   27.7410   44.2490 C   0  0  0  0  0  0  0  0  0  0  0  0
   57.7990   27.5190   43.0820 O   0  0  0  0  0  0  0  0  0  0  0  0
   59.5530   28.3990   44.4440 C   0  0  0  0  0  0  0  0  0  0  0  0
   59.6650   28.8440   45.8280 N   0  0  0  0  0  0  0  0  0  0  0  0
   58.7430   29.7590   46.4300 C   0  0  0  0  0  0  0  0  0  0  0  0
   58.1450   29.4490   47.4950 O   0  0  0  0  0  0  0  0  0  0  0  0
   58.4610   31.0480   45.7850 C   0  0  0  0  0  0  0  0  0  0  0  0
   58.0040   31.2290   44.4850 C   0  0  0  0  0  0  0  0  0  0  0  0
   57.7630   32.5710   44.1680 C   0  0  0  0  0  0  0  0  0  0  0  0
   58.0220   33.4470   45.2140 C   0  0  0  0  0  0  0  0  0  0  0  0
   58.5510   32.5520   46.5350 S   0  0  0  0  0  0  0  0  0  0  0  0
   57.8740   24.8180   45.2540 C   0  0  0  0  0  0  0  0  0  0  0  0
   56.2918   21.6723   43.8598 H   0  0  0  0  0  0  0  0  0  0  0  0
   56.9270   22.5133   42.4052 H   0  0  0  0  0  0  0  0  0  0  0  0
   56.7543   20.7253   42.4052 H   0  0  0  0  0  0  0  0  0  0  0  0
   58.6861   20.4011   43.5987 H   0  0  0  0  0  0  0  0  0  0  0  0
   59.1011   22.0122   42.8931 H   0  0  0  0  0  0  0  0  0  0  0  0
   55.7009   22.2368   45.8059 H   0  0  0  0  0  0  0  0  0  0  0  0
   54.1470   24.1541   46.1596 H   0  0  0  0  0  0  0  0  0  0  0  0
   57.4100   27.8690   46.2200 H   0  0  0  0  0  0  0  0  0  0  0  0
   60.3560   27.6809   44.2216 H   0  0  0  0  0  0  0  0  0  0  0  0
   59.6425   29.2622   43.7681 H   0  0  0  0  0  0  0  0  0  0  0  0
   57.8476   30.4017   43.7771 H   0  0  0  0  0  0  0  0  0  0  0  0
   57.4022   32.9008   43.1826 H   0  0  0  0  0  0  0  0  0  0  0  0
   57.9016   34.5400   45.1834 H   0  0  0  0  0  0  0  0  0  0  0  0
   58.9272   25.0040   44.9968 H   0  0  0  0  0  0  0  0  0  0  0  0
  1  2  1  0
  2  3  1  0
  3  4  2  0
  3  5  2  0
  3  6  1  0
  6  7  2  0
  7  8  1  0
  8  9  2  0
  9 10  1  0
  9 11  1  0
 11 12  1  0
 12 13  1  0
 13 14  2  0
 13 15  1  0
 15 16  1  0
 16 17  1  0
 17 18  2  0
 17 19  1  0
 19 20  2  0
 20 21  1  0
 21 22  2  0
 22 23  1  0
 11 24  2  0
 24  6  1  0
 23 19  1  0
  1 25  1  0
  1 26  1  0
  1 27  1  0
  2 28  1  0
  2 29  1  0
  7 30  1  0
  8 31  1  0
 12 32  1  0
 15 33  1  0
 15 34  1  0
 20 35  1  0
 21 36  1  0
 22 37  1  0
 24 38  1  0
M  CHG  2  10  -1  16  -1
M  END
>  <UniqueID>  (79) 
73

>  <SMILES>  (79) 
CCS(=O)(=O)c1ccc([O-])c(NC(=O)C[N-]C(=O)c2cccs2)c1

>  <Energy>  (79) 
58.47856180415484

>  <Genealogy>  (79) 
CCS(=O)(=O)c1ccc([O-])c(NC(=O)C[N-]C(=O)c2cccs2)c1 (protonated)
CCS(=O)(=O)c1ccc([O-])c(NC(=O)C[N-]C(=O)c2cccs2)c1 (3D coordinates assigned)
CCS(=O)(=O)c1ccc([O-])c(NC(=O)C[N-]C(=O)c2cccs2)c1 (optimized conformer: 58.47856180415484 kcal/mol)

>  <smiles>  (79) 
CCS(=O)(=O)c1ccc(O)c(NC(=O)CNC(=O)c2cccs2)c1

>  <score_type>  (79) 
oracle

>  <origin>  (79) 
adg

>  <m_score__min__energy>  (79) 
-13.34

>  <m_primary>  (79) 
energy

$$$$
79:0
     RDKit          3D

 60 62  0  0  0  0  0  0  0  0999 V2000
   58.8350   31.4230   49.3700 C   0  0  0  0  0  0  0  0  0  0  0  0
   59.6190   30.1140   49.5060 C   0  0  0  0  0  0  0  0  0  0  0  0
   60.7290   29.9850   48.4490 C   0  0  0  0  0  0  0  0  0  0  0  0
   60.3570   29.0010   47.3250 C   0  0  0  0  0  0  0  0  0  0  0  0
   60.7960   29.5080   45.9390 C   0  0  0  0  0  0  0  0  0  0  0  0
   60.3010   28.6180   44.7830 C   0  0  0  0  0  0  0  0  0  0  0  0
   59.0440   27.8150   45.1660 C   0  0  0  0  0  0  0  0  0  0  0  0
   57.7710   28.3600   44.4970 C   0  0  0  0  0  0  0  0  0  0  0  0
   57.6530   29.8570   44.6360 C   0  0  0  0  0  0  0  0  0  0  0  0
   57.4440   30.6630   43.5040 C   0  0  0  0  0  0  0  0  0  0  0  0
   57.4030   32.0560   43.6270 C   0  0  0  0  0  0  0  0  0  0  0  0
   57.5980   32.6620   44.8780 C   0  0  0  0  0  0  0  0  0  0  0  0
   57.6680   34.1360   44.9880 C   0  0  0  0  0  0  0  0  0  0  0  0
   56.6180   34.8180   44.8590 O   0  0  0  0  0  0  0  0  0  0  0  0
   58.9070   34.8110   45.2550 N   0  0  0  0  0  0  0  0  0  0  0  0
   59.8140   34.4790   46.3160 C   0  0  0  0  0  0  0  0  0  0  0  0
   59.3960   34.6300   47.6420 C   0  0  0  0  0  0  0  0  0  0  0  0
   60.2380   34.2630   48.6950 C   0  0  0  0  0  0  0  0  0  0  0  0
   61.5250   33.7520   48.4370 C   0  0  0  0  0  0  0  0  0  0  0  0
   61.9510   33.6140   47.1010 C   0  0  0  0  0  0  0  0  0  0  0  0
   61.1090   34.0060   46.0510 C   0  0  0  0  0  0  0  0  0  0  0  0
   63.3360   33.0940   46.8110 C   0  0  0  0  0  0  0  0  0  0  0  0
   63.7040   31.9660   47.7780 C   0  0  0  0  0  0  0  0  0  0  0  0
   63.4590   32.3850   49.1980 C   0  0  0  0  0  0  0  0  0  0  0  0
   64.1380   31.8600   50.1200 O   0  0  0  0  0  0  0  0  0  0  0  0
   62.4030   33.3230   49.5050 N   0  0  0  0  0  0  0  0  0  0  0  0
   62.2020   33.7700   50.8910 C   0  0  0  0  0  0  0  0  0  0  0  0
   57.7700   31.8540   46.0140 C   0  0  0  0  0  0  0  0  0  0  0  0
   57.7970   30.4630   45.8930 C   0  0  0  0  0  0  0  0  0  0  0  0
   58.6000   31.8153   50.3704 H   0  0  0  0  0  0  0  0  0  0  0  0
   59.4415   32.1583   48.8209 H   0  0  0  0  0  0  0  0  0  0  0  0
   57.9005   31.2353   48.8209 H   0  0  0  0  0  0  0  0  0  0  0  0
   60.0767   30.0782   50.5056 H   0  0  0  0  0  0  0  0  0  0  0  0
   58.9141   29.2829   49.3565 H   0  0  0  0  0  0  0  0  0  0  0  0
   60.9116   30.9750   48.0058 H   0  0  0  0  0  0  0  0  0  0  0  0
   61.6272   29.5966   48.9513 H   0  0  0  0  0  0  0  0  0  0  0  0
   60.8484   28.0367   47.5214 H   0  0  0  0  0  0  0  0  0  0  0  0
   59.2619   28.8977   47.3154 H   0  0  0  0  0  0  0  0  0  0  0  0
   60.3963   30.5226   45.7951 H   0  0  0  0  0  0  0  0  0  0  0  0
   61.8957   29.4905   45.9175 H   0  0  0  0  0  0  0  0  0  0  0  0
   60.0639   29.2574   43.9199 H   0  0  0  0  0  0  0  0  0  0  0  0
   61.0998   27.9012   44.5420 H   0  0  0  0  0  0  0  0  0  0  0  0
   59.1854   26.7691   44.8560 H   0  0  0  0  0  0  0  0  0  0  0  0
   58.9120   27.8996   46.2548 H   0  0  0  0  0  0  0  0  0  0  0  0
   57.7951   28.1040   43.4275 H   0  0  0  0  0  0  0  0  0  0  0  0
   56.9039   27.9041   44.9973 H   0  0  0  0  0  0  0  0  0  0  0  0
   57.3120   30.1965   42.5166 H   0  0  0  0  0  0  0  0  0  0  0  0
   57.2172   32.6790   42.7396 H   0  0  0  0  0  0  0  0  0  0  0  0
   58.3983   35.0402   47.8573 H   0  0  0  0  0  0  0  0  0  0  0  0
   59.8931   34.3740   49.7336 H   0  0  0  0  0  0  0  0  0  0  0  0
   61.4654   33.9426   45.0123 H   0  0  0  0  0  0  0  0  0  0  0  0
   63.3695   32.7113   45.7803 H   0  0  0  0  0  0  0  0  0  0  0  0
   64.0559   33.9162   46.9365 H   0  0  0  0  0  0  0  0  0  0  0  0
   63.0907   31.0814   47.5514 H   0  0  0  0  0  0  0  0  0  0  0  0
   64.7717   31.7305   47.6575 H   0  0  0  0  0  0  0  0  0  0  0  0
   62.5529   32.9897   51.5824 H   0  0  0  0  0  0  0  0  0  0  0  0
   62.7705   34.6957   51.0638 H   0  0  0  0  0  0  0  0  0  0  0  0
   61.1322   33.9590   51.0638 H   0  0  0  0  0  0  0  0  0  0  0  0
   57.8840   32.3193   47.0042 H   0  0  0  0  0  0  0  0  0  0  0  0
   57.9320   29.8388   46.7886 H   0  0  0  0  0  0  0  0  0  0  0  0
  1  2  1  0
  2  3  1  0
  3  4  1  0
  4  5  1  0
  5  6  1  0
  6  7  1  0
  7  8  1  0
  8  9  1  0
  9 10  2  0
 10 11  1  0
 11 12  2  0
 12 13  1  0
 13 14  2  0
 13 15  1  0
 15 16  1  0
 16 17  2  0
 17 18  1  0
 18 19  2  0
 19 20  1  0
 20 21  2  0
 20 22  1  0
 22 23  1  0
 23 24  1  0
 24 25  2  0
 24 26  1  0
 26 27  1  0
 12 28  1  0
 28 29  2  0
 29  9  1  0
 21 16  1  0
 26 19  1  0
  1 30  1  0
  1 31  1  0
  1 32  1  0
  2 33  1  0
  2 34  1  0
  3 35  1  0
  3 36  1  0
  4 37  1  0
  4 38  1  0
  5 39  1  0
  5 40  1  0
  6 41  1  0
  6 42  1  0
  7 43  1  0
  7 44  1  0
  8 45  1  0
  8 46  1  0
 10 47  1  0
 11 48  1  0
 17 49  1  0
 18 50  1  0
 21 51  1  0
 22 52  1  0
 22 53  1  0
 23 54  1  0
 23 55  1  0
 27 56  1  0
 27 57  1  0
 27 58  1  0
 28 59  1  0
 29 60  1  0
M  CHG  1  15  -1
M  END
>  <UniqueID>  (80) 
74

>  <SMILES>  (80) 
CCCCCCCCc1ccc(C(=O)[N-]c2ccc3c(c2)CCC(=O)N3C)cc1

>  <Energy>  (80) 
56.923526061375796

>  <Genealogy>  (80) 
CCCCCCCCc1ccc(C(=O)[N-]c2ccc3c(c2)CCC(=O)N3C)cc1 (protonated)
CCCCCCCCc1ccc(C(=O)[N-]c2ccc3c(c2)CCC(=O)N3C)cc1 (3D coordinates assigned)
CCCCCCCCc1ccc(C(=O)[N-]c2ccc3c(c2)CCC(=O)N3C)cc1 (nonaromatic ring conformer: 56.923526061375796 kcal/mol)

>  <smiles>  (80) 
CCCCCCCCc1ccc(C(=O)Nc2ccc3c(c2)CCC(=O)N3C)cc1

>  <score_type>  (80) 
oracle

>  <origin>  (80) 
adg

>  <m_score__min__energy>  (80) 
-8.9600000000000009

>  <m_primary>  (80) 
energy

$$$$
80:0
     RDKit          3D

 75 79  0  0  0  0  0  0  0  0999 V2000
   56.6630   29.3280   42.6820 C   0  0  0  0  0  0  0  0  0  0  0  0
   57.2380   30.5290   43.3890 C   0  0  0  0  0  0  0  0  0  0  0  0
   57.3540   31.7410   42.6880 C   0  0  0  0  0  0  0  0  0  0  0  0
   57.8580   32.8810   43.3170 C   0  0  0  0  0  0  0  0  0  0  0  0
   58.2590   32.8330   44.6590 C   0  0  0  0  0  0  0  0  0  0  0  0
   58.7850   34.0380   45.3340 C   0  0  0  0  0  0  0  0  0  0  0  0
   58.9520   35.1010   44.6780 O   0  0  0  0  0  0  0  0  0  0  0  0
   59.1550   34.0090   46.7140 N   0  0  0  0  0  0  0  0  0  0  0  0
   59.7550   34.9580   47.6720 C   0  0  0  0  0  0  0  0  0  0  0  0
   60.0120   33.9500   48.7530 C   0  0  0  0  0  0  0  0  0  0  0  0
   61.4790   33.6740   49.0370 C   0  0  0  0  0  0  0  0  0  0  0  0
   62.2070   32.8650   48.1480 C   0  0  0  0  0  0  0  0  0  0  0  0
   63.5590   32.5890   48.3800 C   0  0  0  0  0  0  0  0  0  0  0  0
   64.2010   33.1180   49.5060 C   0  0  0  0  0  0  0  0  0  0  0  0
   65.5920   32.8320   49.7430 C   0  0  0  0  0  0  0  0  0  0  0  0
   66.7100   32.6030   49.9350 N   0  0  0  0  0  0  0  0  0  0  0  0
   63.4870   33.9230   50.4010 C   0  0  0  0  0  0  0  0  0  0  0  0
   62.1350   34.2010   50.1710 C   0  0  0  0  0  0  0  0  0  0  0  0
   59.3680   33.0090   47.7800 C   0  0  0  0  0  0  0  0  0  0  0  0
   58.1820   31.6180   45.3550 C   0  0  0  0  0  0  0  0  0  0  0  0
   57.6810   30.4610   44.7330 C   0  0  0  0  0  0  0  0  0  0  0  0
   57.6110   29.2080   45.5150 C   0  0  0  0  0  0  0  0  0  0  0  0
   56.7210   28.1930   45.1460 C   0  0  0  0  0  0  0  0  0  0  0  0
   56.6860   27.0300   45.8460 N   0  0  0  0  0  0  0  0  0  0  0  0
   57.4850   26.8110   46.9280 C   0  0  0  0  0  0  0  0  0  0  0  0
   57.4130   25.6830   47.5580 N   0  0  0  0  0  0  0  0  0  0  0  0
   58.3710   27.8160   47.3610 C   0  0  0  0  0  0  0  0  0  0  0  0
   59.2400   27.5940   48.4870 N   0  0  0  0  0  0  0  0  0  0  0  0
   59.6810   28.6440   49.3620 C   0  0  0  0  0  0  0  0  0  0  0  0
   59.0410   29.7320   49.4040 O   0  0  0  0  0  0  0  0  0  0  0  0
   60.8620   28.4590   50.2400 C   0  0  0  0  0  0  0  0  0  0  0  0
   61.7200   29.5320   50.5240 C   0  0  0  0  0  0  0  0  0  0  0  0
   62.8260   29.3350   51.3630 C   0  0  0  0  0  0  0  0  0  0  0  0
   63.7510   30.4380   51.6810 C   0  0  0  0  0  0  0  0  0  0  0  0
   65.1520   30.2680   51.4820 N   0  0  0  0  0  0  0  0  0  0  0  0
   63.3160   31.5320   52.1330 O   0  0  0  0  0  0  0  0  0  0  0  0
   63.0460   28.1070   51.9010 N   0  0  0  0  0  0  0  0  0  0  0  0
   62.2250   27.0400   51.6820 C   0  0  0  0  0  0  0  0  0  0  0  0
   62.6010   25.6900   52.3000 C   0  0  0  0  0  0  0  0  0  0  0  0
   63.0660   25.8120   53.7720 C   0  0  0  0  0  0  0  0  0  0  0  0
   61.3710   24.7640   52.2320 C   0  0  0  0  0  0  0  0  0  0  0  0
   63.7560   25.0580   51.4910 C   0  0  0  0  0  0  0  0  0  0  0  0
   61.1210   27.2070   50.8200 C   0  0  0  0  0  0  0  0  0  0  0  0
   58.4320   29.0140   46.6320 C   0  0  0  0  0  0  0  0  0  0  0  0
   56.3131   28.5972   43.4260 H   0  0  0  0  0  0  0  0  0  0  0  0
   55.8181   29.6431   42.0521 H   0  0  0  0  0  0  0  0  0  0  0  0
   57.4382   28.8674   42.0521 H   0  0  0  0  0  0  0  0  0  0  0  0
   57.0448   31.7923   41.6336 H   0  0  0  0  0  0  0  0  0  0  0  0
   57.9409   33.8232   42.7554 H   0  0  0  0  0  0  0  0  0  0  0  0
   60.6790   35.4181   47.2919 H   0  0  0  0  0  0  0  0  0  0  0  0
   59.1587   35.8420   47.9422 H   0  0  0  0  0  0  0  0  0  0  0  0
   59.6900   34.0715   49.7978 H   0  0  0  0  0  0  0  0  0  0  0  0
   61.7094   32.4448   47.2615 H   0  0  0  0  0  0  0  0  0  0  0  0
   64.1185   31.9552   47.6763 H   0  0  0  0  0  0  0  0  0  0  0  0
   63.9897   34.3380   51.2871 H   0  0  0  0  0  0  0  0  0  0  0  0
   61.5795   34.8343   50.8783 H   0  0  0  0  0  0  0  0  0  0  0  0
   60.0386   32.1940   47.4700 H   0  0  0  0  0  0  0  0  0  0  0  0
   58.4855   32.4530   48.1294 H   0  0  0  0  0  0  0  0  0  0  0  0
   58.5180   31.5696   46.4013 H   0  0  0  0  0  0  0  0  0  0  0  0
   56.0487   28.3376   44.2875 H   0  0  0  0  0  0  0  0  0  0  0  0
   57.9570   25.5090   48.4330 H   0  0  0  0  0  0  0  0  0  0  0  0
   59.5170   26.6090   48.7110 H   0  0  0  0  0  0  0  0  0  0  0  0
   61.5258   30.5240   50.0902 H   0  0  0  0  0  0  0  0  0  0  0  0
   65.7410   31.0460   51.1110 H   0  0  0  0  0  0  0  0  0  0  0  0
   62.2225   25.5907   54.4425 H   0  0  0  0  0  0  0  0  0  0  0  0
   63.8808   25.0972   53.9596 H   0  0  0  0  0  0  0  0  0  0  0  0
   63.4250   26.8347   53.9596 H   0  0  0  0  0  0  0  0  0  0  0  0
   61.0418   24.5162   53.2519 H   0  0  0  0  0  0  0  0  0  0  0  0
   60.5564   25.2750   51.6978 H   0  0  0  0  0  0  0  0  0  0  0  0
   61.6368   23.8399   51.6978 H   0  0  0  0  0  0  0  0  0  0  0  0
   64.5064   24.6474   52.1827 H   0  0  0  0  0  0  0  0  0  0  0  0
   63.3608   24.2504   50.8572 H   0  0  0  0  0  0  0  0  0  0  0  0
   64.2230   25.8263   50.8572 H   0  0  0  0  0  0  0  0  0  0  0  0
   60.4614   26.3542   50.6017 H   0  0  0  0  0  0  0  0  0  0  0  0
   59.1300   29.8061   46.9407 H   0  0  0  0  0  0  0  0  0  0  0  0
  1  2  1  0
  2  3  2  0
  3  4  1  0
  4  5  2  0
  5  6  1  0
  6  7  2  0
  6  8  1  0
  8  9  1  0
  9 10  1  0
 10 11  1  0
 11 12  2  0
 12 13  1  0
 13 14  2  0
 14 15  1  0
 15 16  3  0
 14 17  1  0
 17 18  2  0
 10 19  1  0
  5 20  1  0
 20 21  2  0
 21 22  1  0
 22 23  2  0
 23 24  1  0
 24 25  1  0
 25 26  2  3
 25 27  1  0
 27 28  1  0
 28 29  1  0
 29 30  2  0
 29 31  1  0
 31 32  2  0
 32 33  1  0
 33 34  1  0
 34 35  1  0
 34 36  2  0
 33 37  2  0
 37 38  1  0
 38 39  1  0
 39 40  1  0
 39 41  1  0
 39 42  1  0
 38 43  2  0
 27 44  2  0
 21  2  1  0
 44 22  1  0
 19  8  1  0
 43 31  1  0
 18 11  1  0
  1 45  1  0
  1 46  1  0
  1 47  1  0
  3 48  1  0
  4 49  1  0
  9 50  1  0
  9 51  1  0
 10 52  1  0
 12 53  1  0
 13 54  1  0
 17 55  1  0
 18 56  1  0
 19 57  1  0
 19 58  1  0
 20 59  1  0
 23 60  1  0
 26 61  1  0
 28 62  1  0
 32 63  1  0
 35 64  1  0
 40 65  1  0
 40 66  1  0
 40 67  1  0
 41 68  1  0
 41 69  1  0
 41 70  1  0
 42 71  1  0
 42 72  1  0
 42 73  1  0
 43 74  1  0
 44 75  1  0
M  CHG  2  24  -1  35  -1
M  END
>  <UniqueID>  (81) 
75

>  <SMILES>  (81) 
Cc1ccc(C(=O)N2CC(c3ccc(C#N)cc3)C2)cc1-c1c[n-]c(=N)c(NC(=O)c2cc(C([NH-])=O)nc(C(C)(C)C)c2)c1

>  <Energy>  (81) 
142.6138145798056

>  <Genealogy>  (81) 
Cc1ccc(C(=O)N2CC(c3ccc(C#N)cc3)C2)cc1-c1c[n-]c(=N)c(NC(=O)c2cc(C([NH-])=O)nc(C(C)(C)C)c2)c1 (protonated)
Cc1ccc(C(=O)N2CC(c3ccc(C#N)cc3)C2)cc1-c1c[n-]c(=N)c(NC(=O)c2cc(C([NH-])=O)nc(C(C)(C)C)c2)c1 (3D coordinates assigned)
Cc1ccc(C(=O)N2CC(c3ccc(C#N)cc3)C2)cc1-c1c[n-]c(=N)c(NC(=O)c2cc(C([NH-])=O)nc(C(C)(C)C)c2)c1 (nonaromatic ring conformer: 142.6138145798056 kcal/mol)

>  <smiles>  (81) 
Cc1ccc(C(=O)N2CC(c3ccc(C#N)cc3)C2)cc1-c1c[nH]c(=N)c(NC(=O)c2cc(C(N)=O)nc(C(C)(C)C)c2)c1

>  <score_type>  (81) 
oracle

>  <origin>  (81) 
adg

>  <m_score__min__energy>  (81) 
-14.42

>  <m_primary>  (81) 
energy

$$$$
81:0
     RDKit          3D

 31 32  0  0  0  0  0  0  0  0999 V2000
   54.3910   26.7210   44.9880 H   0  0  0  0  0  0  0  0  0  0  0  0
   54.5710   26.3360   45.9080 O   0  0  0  0  0  0  0  0  0  0  0  0
   55.7580   25.6660   46.1940 C   0  0  0  0  0  0  0  0  0  0  0  0
   55.8340   24.6240   47.0390 N   0  0  0  0  0  0  0  0  0  0  0  0
   57.1490   24.3220   47.0200 C   0  0  0  0  0  0  0  0  0  0  0  0
   57.6380   23.3830   47.7020 O   0  0  0  0  0  0  0  0  0  0  0  0
   57.9010   25.1100   46.2220 N   0  0  0  0  0  0  0  0  0  0  0  0
   57.0020   25.9500   45.6770 C   0  0  0  0  0  0  0  0  0  0  0  0
   57.3490   27.0990   44.8250 C   0  0  0  0  0  0  0  0  0  0  0  0
   57.5582   26.8975   43.7640 H   0  0  0  0  0  0  0  0  0  0  0  0
   57.4310   28.3810   45.2420 C   0  0  0  0  0  0  0  0  0  0  0  0
   58.3670   28.9210   46.1410 C   0  0  0  0  0  0  0  0  0  0  0  0
   59.5200   28.2370   46.8870 C   0  0  0  0  0  0  0  0  0  0  0  0
   60.3900   27.4400   45.8860 C   0  0  0  0  0  0  0  0  0  0  0  0
   61.0909   26.7979   46.4396 H   0  0  0  0  0  0  0  0  0  0  0  0
   59.7421   26.8155   45.2534 H   0  0  0  0  0  0  0  0  0  0  0  0
   60.9555   28.1400   45.2534 H   0  0  0  0  0  0  0  0  0  0  0  0
   60.4300   29.2880   47.5570 C   0  0  0  0  0  0  0  0  0  0  0  0
   60.3515   29.1973   48.6504 H   0  0  0  0  0  0  0  0  0  0  0  0
   61.4726   29.1200   47.2491 H   0  0  0  0  0  0  0  0  0  0  0  0
   60.1146   30.2958   47.2491 H   0  0  0  0  0  0  0  0  0  0  0  0
   58.9820   27.2350   47.9320 C   0  0  0  0  0  0  0  0  0  0  0  0
   59.1862   27.6153   48.9437 H   0  0  0  0  0  0  0  0  0  0  0  0
   57.8970   27.1129   47.7983 H   0  0  0  0  0  0  0  0  0  0  0  0
   59.4796   26.2631   47.7983 H   0  0  0  0  0  0  0  0  0  0  0  0
   58.1430   30.2490   46.2430 N   0  0  0  0  0  0  0  0  0  0  0  0
   57.1060   30.5840   45.4970 N   0  0  0  0  0  0  0  0  0  0  0  0
   56.6360   29.4810   44.8910 C   0  0  0  0  0  0  0  0  0  0  0  0
   55.4930   29.5050   44.2000 C   0  0  0  0  0  0  0  0  0  0  0  0
   55.1263   28.5902   43.7115 H   0  0  0  0  0  0  0  0  0  0  0  0
   54.9185   30.4396   44.1195 H   0  0  0  0  0  0  0  0  0  0  0  0
  1  2  1  0
  2  3  1  0
  3  4  1  0
  4  5  1  0
  5  6  2  0
  5  7  1  0
  7  8  1  0
  8  9  1  0
  9 10  1  0
  9 11  2  0
 11 12  1  0
 12 13  1  0
 13 14  1  0
 14 15  1  0
 14 16  1  0
 14 17  1  0
 13 18  1  0
 18 19  1  0
 18 20  1  0
 18 21  1  0
 13 22  1  0
 22 23  1  0
 22 24  1  0
 22 25  1  0
 12 26  2  0
 26 27  1  0
 27 28  1  0
 28 29  2  0
 29 30  1  0
 29 31  1  0
  8  3  2  0
 28 11  1  0
M  CHG  3   4  -1   7  -1  27  -1
M  END
>  <UniqueID>  (82) 
76

>  <SMILES>  (82) 
C=c1[n-]nc(C(C)(C)C)/c1=C/c1[n-]c(=O)[n-]c1O

>  <Energy>  (82) 
102.21850088702728

>  <Genealogy>  (82) 
C=c1[n-]nc(C(C)(C)C)c1=Cc1[n-]c(=O)[n-]c1O (protonated)
C=c1[n-]nc(C(C)(C)C)/c1=C/c1[n-]c(=O)[n-]c1O (cis-trans isomerization)
C=c1[n-]nc(C(C)(C)C)/c1=C/c1[n-]c(=O)[n-]c1O (3D coordinates assigned)
C=c1[n-]nc(C(C)(C)C)/c1=C/c1[n-]c(=O)[n-]c1O (optimized conformer: 102.21850088702728 kcal/mol)

>  <smiles>  (82) 
C=c1[nH]nc(C(C)(C)C)c1=Cc1[nH]c(=O)[nH]c1O

>  <score_type>  (82) 
oracle

>  <origin>  (82) 
adg

>  <m_score__min__energy>  (82) 
-11.81

>  <m_primary>  (82) 
energy

$$$$
82:0
     RDKit          3D

 53 56  0  0  0  0  0  0  0  0999 V2000
   56.4011   31.6280   52.3467 H   0  0  0  0  0  0  0  0  0  0  0  0
   57.2750   31.2790   51.7770 C   0  0  0  0  0  0  0  0  0  0  0  0
   57.8580   30.0450   52.0770 C   0  0  0  0  0  0  0  0  0  0  0  0
   57.4435   29.4239   52.8847 H   0  0  0  0  0  0  0  0  0  0  0  0
   58.9680   29.5980   51.3520 C   0  0  0  0  0  0  0  0  0  0  0  0
   59.4233   28.6263   51.5937 H   0  0  0  0  0  0  0  0  0  0  0  0
   59.5060   30.3840   50.3150 C   0  0  0  0  0  0  0  0  0  0  0  0
   60.6770   29.9110   49.5390 C   0  0  0  0  0  0  0  0  0  0  0  0
   61.7580   29.6460   50.1320 O   0  0  0  0  0  0  0  0  0  0  0  0
   60.5970   29.8100   48.1090 N   0  0  0  0  0  0  0  0  0  0  0  0
   59.7680   28.9140   47.3550 C   0  0  0  0  0  0  0  0  0  0  0  0
   59.9930   27.5250   47.3350 C   0  0  0  0  0  0  0  0  0  0  0  0
   60.8389   27.0984   47.8940 H   0  0  0  0  0  0  0  0  0  0  0  0
   59.1450   26.6860   46.6070 C   0  0  0  0  0  0  0  0  0  0  0  0
   59.3294   25.6017   46.5889 H   0  0  0  0  0  0  0  0  0  0  0  0
   58.0650   27.2200   45.9030 C   0  0  0  0  0  0  0  0  0  0  0  0
   57.4051   26.5555   45.3259 H   0  0  0  0  0  0  0  0  0  0  0  0
   57.8170   28.6010   45.9280 C   0  0  0  0  0  0  0  0  0  0  0  0
   56.6110   29.1670   45.2320 C   0  0  0  0  0  0  0  0  0  0  0  0
   55.8442   29.4203   45.9788 H   0  0  0  0  0  0  0  0  0  0  0  0
   56.2133   28.4191   44.5302 H   0  0  0  0  0  0  0  0  0  0  0  0
   56.9850   30.3750   44.4900 N   0  0  0  0  0  0  0  0  0  0  0  0
   57.3670   31.4460   45.1930 N   0  0  0  0  0  0  0  0  0  0  0  0
   57.7690   32.6030   44.6010 C   0  0  0  0  0  0  0  0  0  0  0  0
   58.1250   33.6370   45.3080 N   0  0  0  0  0  0  0  0  0  0  0  0
   59.0960   33.6450   46.3680 C   0  0  0  0  0  0  0  0  0  0  0  0
   60.0940   32.6640   46.3810 C   0  0  0  0  0  0  0  0  0  0  0  0
   60.1349   31.9155   45.5760 H   0  0  0  0  0  0  0  0  0  0  0  0
   61.0400   32.6290   47.4110 C   0  0  0  0  0  0  0  0  0  0  0  0
   61.8296   31.8632   47.4043 H   0  0  0  0  0  0  0  0  0  0  0  0
   60.9850   33.5660   48.4510 C   0  0  0  0  0  0  0  0  0  0  0  0
   62.1720   33.5050   49.7500 S   0  0  0  0  0  0  0  0  0  0  0  0
   61.5090   33.7970   51.0680 O   0  0  0  0  0  0  0  0  0  0  0  0
   63.2380   34.5370   49.5060 O   0  0  0  0  0  0  0  0  0  0  0  0
   62.8910   31.9320   49.8090 N   0  0  0  0  0  0  0  0  0  0  0  0
   62.6530   31.5240   50.7420 H   0  0  0  0  0  0  0  0  0  0  0  0
   62.4090   31.3460   49.0910 H   0  0  0  0  0  0  0  0  0  0  0  0
   59.9610   34.5240   48.4670 C   0  0  0  0  0  0  0  0  0  0  0  0
   59.8998   35.2484   49.2925 H   0  0  0  0  0  0  0  0  0  0  0  0
   59.0180   34.5600   47.4360 C   0  0  0  0  0  0  0  0  0  0  0  0
   58.2107   35.3068   47.4588 H   0  0  0  0  0  0  0  0  0  0  0  0
   57.7660   32.6880   43.2090 C   0  0  0  0  0  0  0  0  0  0  0  0
   58.0601   33.6218   42.7074 H   0  0  0  0  0  0  0  0  0  0  0  0
   57.3860   31.5760   42.4620 C   0  0  0  0  0  0  0  0  0  0  0  0
   57.3902   31.6185   41.3628 H   0  0  0  0  0  0  0  0  0  0  0  0
   57.0000   30.4080   43.1190 C   0  0  0  0  0  0  0  0  0  0  0  0
   56.6710   29.3960   42.4420 O   0  0  0  0  0  0  0  0  0  0  0  0
   58.6630   29.4390   46.6720 C   0  0  0  0  0  0  0  0  0  0  0  0
   58.4562   30.5184   46.7191 H   0  0  0  0  0  0  0  0  0  0  0  0
   58.9120   31.6270   50.0250 C   0  0  0  0  0  0  0  0  0  0  0  0
   59.3230   32.2546   49.2205 H   0  0  0  0  0  0  0  0  0  0  0  0
   57.8030   32.0690   50.7530 C   0  0  0  0  0  0  0  0  0  0  0  0
   57.3451   33.0414   50.5187 H   0  0  0  0  0  0  0  0  0  0  0  0
  1  2  1  0
  2  3  2  0
  3  4  1  0
  3  5  1  0
  5  6  1  0
  5  7  2  0
  7  8  1  0
  8  9  2  0
  8 10  1  0
 10 11  1  0
 11 12  2  0
 12 13  1  0
 12 14  1  0
 14 15  1  0
 14 16  2  0
 16 17  1  0
 16 18  1  0
 18 19  1  0
 19 20  1  0
 19 21  1  0
 19 22  1  0
 22 23  1  0
 23 24  1  0
 24 25  2  0
 25 26  1  0
 26 27  2  0
 27 28  1  0
 27 29  1  0
 29 30  1  0
 29 31  2  0
 31 32  1  0
 32 33  2  0
 32 34  2  0
 32 35  1  0
 35 36  1  0
 35 37  1  0
 31 38  1  0
 38 39  1  0
 38 40  2  0
 40 41  1  0
 24 42  1  0
 42 43  1  0
 42 44  2  0
 44 45  1  0
 44 46  1  0
 46 47  2  0
 18 48  2  0
 48 49  1  0
  7 50  1  0
 50 51  1  0
 50 52  2  0
 52 53  1  0
 52  2  1  0
 48 11  1  0
 46 22  1  0
 40 26  1  0
M  CHG  2  10  -1  23  -1
M  END
>  <UniqueID>  (83) 
77

>  <SMILES>  (83) 
NS(=O)(=O)c1ccc(/N=c2/ccc(=O)n(Cc3cccc([N-]C(=O)c4ccccc4)c3)[n-]2)cc1

>  <Energy>  (83) 
66.8730340756203

>  <Genealogy>  (83) 
NS(=O)(=O)c1ccc(N=c2ccc(=O)n(Cc3cccc([N-]C(=O)c4ccccc4)c3)[n-]2)cc1 (protonated)
NS(=O)(=O)c1ccc(/N=c2/ccc(=O)n(Cc3cccc([N-]C(=O)c4ccccc4)c3)[n-]2)cc1 (cis-trans isomerization)
NS(=O)(=O)c1ccc(/N=c2/ccc(=O)n(Cc3cccc([N-]C(=O)c4ccccc4)c3)[n-]2)cc1 (3D coordinates assigned)
NS(=O)(=O)c1ccc(/N=c2/ccc(=O)n(Cc3cccc([N-]C(=O)c4ccccc4)c3)[n-]2)cc1 (optimized conformer: 66.8730340756203 kcal/mol)

>  <smiles>  (83) 
NS(=O)(=O)c1ccc(N=c2ccc(=O)n(Cc3cccc(NC(=O)c4ccccc4)c3)[nH]2)cc1

>  <score_type>  (83) 
oracle

>  <origin>  (83) 
adg

>  <m_score__min__energy>  (83) 
-12.17

>  <m_primary>  (83) 
energy

$$$$
83:0
     RDKit          3D

 25 26  0  0  0  0  0  0  0  0999 V2000
   61.1701   29.2526   46.5730 H   0  0  0  0  0  0  0  0  0  0  0  0
   60.5300   30.1250   46.3750 C   0  0  0  0  0  0  0  0  0  0  0  0
   60.8766   31.1338   46.6439 H   0  0  0  0  0  0  0  0  0  0  0  0
   59.3360   29.9600   45.8100 C   0  0  0  0  0  0  0  0  0  0  0  0
   58.7170   28.7010   45.3910 C   0  0  0  0  0  0  0  0  0  0  0  0
   59.3700   27.2260   45.4600 S   0  0  0  0  0  0  0  0  0  0  0  0
   60.1810   27.2010   46.5920 H   0  0  0  0  0  0  0  0  0  0  0  0
   58.0110   26.1620   45.8650 C   0  0  0  0  0  0  0  0  0  0  0  0
   58.2460   24.8770   46.2320 N   0  0  0  0  0  0  0  0  0  0  0  0
   57.2240   24.0380   46.5400 C   0  0  0  0  0  0  0  0  0  0  0  0
   57.4820   22.8470   46.8620 O   0  0  0  0  0  0  0  0  0  0  0  0
   55.8970   24.5000   46.4960 C   0  0  0  0  0  0  0  0  0  0  0  0
   54.7380   23.5850   46.7920 C   0  0  0  0  0  0  0  0  0  0  0  0
   54.6158   23.4885   47.8809 H   0  0  0  0  0  0  0  0  0  0  0  0
   53.8193   24.0040   46.3556 H   0  0  0  0  0  0  0  0  0  0  0  0
   54.9324   22.5941   46.3556 H   0  0  0  0  0  0  0  0  0  0  0  0
   55.6810   25.8280   46.0910 C   0  0  0  0  0  0  0  0  0  0  0  0
   54.3930   26.3400   45.9880 O   0  0  0  0  0  0  0  0  0  0  0  0
   56.7380   26.6270   45.7930 N   0  0  0  0  0  0  0  0  0  0  0  0
   57.4350   28.9760   44.8380 N   0  0  0  0  0  0  0  0  0  0  0  0
   56.7530   28.3000   44.4290 H   0  0  0  0  0  0  0  0  0  0  0  0
   57.3060   30.3920   44.9300 C   0  0  0  0  0  0  0  0  0  0  0  0
   56.2920   31.0210   44.5300 O   0  0  0  0  0  0  0  0  0  0  0  0
   58.4400   31.0270   45.5160 N   0  0  0  0  0  0  0  0  0  0  0  0
   58.5780   32.0480   45.6890 H   0  0  0  0  0  0  0  0  0  0  0  0
  1  2  1  0
  2  3  1  0
  2  4  2  0
  4  5  1  0
  5  6  2  0
  6  7  1  1
  6  8  1  0
  8  9  2  0
  9 10  1  0
 10 11  2  0
 10 12  1  0
 12 13  1  0
 13 14  1  0
 13 15  1  0
 13 16  1  0
 12 17  2  0
 17 18  1  0
 17 19  1  0
  5 20  1  0
 20 21  1  0
 20 22  1  0
 22 23  2  0
 22 24  1  0
 24 25  1  0
 24  4  1  0
 19  8  1  0
M  CHG  2  18  -1  19  -1
M  END
>  <UniqueID>  (84) 
78

>  <SMILES>  (84) 
C=C1NC(=O)N/C1=[SH]/c1nc(=O)c(C)c([O-])[n-]1

>  <Energy>  (84) 
51.047224735820464

>  <Genealogy>  (84) 
C=C1NC(=O)NC1=[SH]c1nc(=O)c(C)c([O-])[n-]1 (protonated)
C=C1NC(=O)N/C1=[SH]/c1nc(=O)c(C)c([O-])[n-]1 (cis-trans isomerization)
C=C1NC(=O)N/C1=[SH]/c1nc(=O)c(C)c([O-])[n-]1 (3D coordinates assigned)
C=C1NC(=O)N/C1=[SH]/c1nc(=O)c(C)c([O-])[n-]1 (nonaromatic ring conformer: 51.047224735820464 kcal/mol)

>  <smiles>  (84) 
C=C1NC(=O)NC1=[SH]c1nc(=O)c(C)c(O)[nH]1

>  <score_type>  (84) 
oracle

>  <origin>  (84) 
adg

>  <m_score__min__energy>  (84) 
-11.26

>  <m_primary>  (84) 
energy

$$$$
84:0
     RDKit          3D

 31 32  0  0  0  0  0  0  0  0999 V2000
   57.7720   31.9400   42.5920 O   0  0  0  0  0  0  0  0  0  0  0  0
   57.5720   32.2110   43.8070 C   0  0  0  0  0  0  0  0  0  0  0  0
   58.2080   33.4290   44.4060 C   0  0  0  0  0  0  0  0  0  0  0  0
   58.7110   33.1230   45.7930 C   0  0  0  0  0  0  0  0  0  0  0  0
   60.0750   32.8560   46.0020 C   0  0  0  0  0  0  0  0  0  0  0  0
   60.5600   32.6130   47.2900 C   0  0  0  0  0  0  0  0  0  0  0  0
   59.6890   32.6410   48.3820 C   0  0  0  0  0  0  0  0  0  0  0  0
   58.3330   32.9130   48.1880 C   0  0  0  0  0  0  0  0  0  0  0  0
   57.8400   33.1570   46.9020 C   0  0  0  0  0  0  0  0  0  0  0  0
   56.4890   33.4390   46.7320 O   0  0  0  0  0  0  0  0  0  0  0  0
   56.7870   31.3370   44.6320 N   0  0  0  0  0  0  0  0  0  0  0  0
   56.2080   30.1110   44.1590 C   0  0  0  0  0  0  0  0  0  0  0  0
   55.9150   29.9800   42.9410 O   0  0  0  0  0  0  0  0  0  0  0  0
   55.8870   29.0450   45.0660 N   0  0  0  0  0  0  0  0  0  0  0  0
   56.6920   28.1030   45.4630 C   0  0  0  0  0  0  0  0  0  0  0  0
   58.0470   28.2570   45.3930 N   0  0  0  0  0  0  0  0  0  0  0  0
   58.9070   27.2770   45.7810 C   0  0  0  0  0  0  0  0  0  0  0  0
   58.4110   26.0640   46.2620 C   0  0  0  0  0  0  0  0  0  0  0  0
   57.0300   25.8730   46.3360 C   0  0  0  0  0  0  0  0  0  0  0  0
   56.1620   26.8910   45.9330 C   0  0  0  0  0  0  0  0  0  0  0  0
   54.7870   26.6950   46.0010 O   0  0  0  0  0  0  0  0  0  0  0  0
   59.0514   33.7463   43.7751 H   0  0  0  0  0  0  0  0  0  0  0  0
   57.4600   34.2334   44.4642 H   0  0  0  0  0  0  0  0  0  0  0  0
   60.7655   32.8382   45.1459 H   0  0  0  0  0  0  0  0  0  0  0  0
   61.6280   32.3996   47.4441 H   0  0  0  0  0  0  0  0  0  0  0  0
   60.0715   32.4487   49.3953 H   0  0  0  0  0  0  0  0  0  0  0  0
   57.6500   32.9354   49.0500 H   0  0  0  0  0  0  0  0  0  0  0  0
   56.6500   31.5960   45.6350 H   0  0  0  0  0  0  0  0  0  0  0  0
   59.9929   27.4403   45.7157 H   0  0  0  0  0  0  0  0  0  0  0  0
   59.1004   25.2677   46.5791 H   0  0  0  0  0  0  0  0  0  0  0  0
   56.6255   24.9215   46.7114 H   0  0  0  0  0  0  0  0  0  0  0  0
  1  2  2  0
  2  3  1  0
  3  4  1  0
  4  5  2  0
  5  6  1  0
  6  7  2  0
  7  8  1  0
  8  9  2  0
  9 10  1  0
  2 11  1  0
 11 12  1  0
 12 13  2  0
 12 14  1  0
 14 15  2  3
 15 16  1  0
 16 17  1  0
 17 18  2  0
 18 19  1  0
 19 20  2  0
 20 21  1  0
  9  4  1  0
 20 15  1  0
  3 22  1  0
  3 23  1  0
  5 24  1  0
  6 25  1  0
  7 26  1  0
  8 27  1  0
 11 28  1  0
 17 29  1  0
 18 30  1  0
 19 31  1  0
M  CHG  3  10  -1  16  -1  21  -1
M  END
>  <UniqueID>  (85) 
79

>  <SMILES>  (85) 
O=C(Cc1ccccc1[O-])NC(=O)N=c1[n-]cccc1[O-]

>  <Energy>  (85) 
35.134035562390395

>  <Genealogy>  (85) 
O=C(Cc1ccccc1[O-])NC(=O)N=c1[n-]cccc1[O-] (protonated)
O=C(Cc1ccccc1[O-])NC(=O)N=c1[n-]cccc1[O-] (3D coordinates assigned)
O=C(Cc1ccccc1[O-])NC(=O)N=c1[n-]cccc1[O-] (optimized conformer: 35.134035562390395 kcal/mol)

>  <smiles>  (85) 
O=C(Cc1ccccc1O)NC(=O)N=c1[nH]cccc1O

>  <score_type>  (85) 
oracle

>  <origin>  (85) 
adg

>  <m_score__min__energy>  (85) 
-14.359999999999999

>  <m_primary>  (85) 
energy

$$$$
85:0
     RDKit          3D

 40 41  0  0  0  0  0  0  0  0999 V2000
   58.4782   26.1330   44.7899 H   0  0  0  0  0  0  0  0  0  0  0  0
   58.1430   26.4420   45.7910 C   0  0  0  0  0  0  0  0  0  0  0  0
   56.6910   26.5230   46.0650 C   0  0  0  0  0  0  0  0  0  0  0  0
   56.1250   25.6000   46.7100 O   0  0  0  0  0  0  0  0  0  0  0  0
   55.8960   27.6290   45.6240 N   0  0  0  0  0  0  0  0  0  0  0  0
   56.5010   29.0880   44.9050 S   0  0  0  0  0  0  0  0  0  0  0  0
   57.3220   29.8520   45.9060 O   0  0  0  0  0  0  0  0  0  0  0  0
   55.3350   29.9370   44.4870 O   0  0  0  0  0  0  0  0  0  0  0  0
   57.4750   28.7050   43.4640 C   0  0  0  0  0  0  0  0  0  0  0  0
   58.4564   28.3191   43.7768 H   0  0  0  0  0  0  0  0  0  0  0  0
   56.9564   27.9438   42.8626 H   0  0  0  0  0  0  0  0  0  0  0  0
   57.6137   29.6155   42.8626 H   0  0  0  0  0  0  0  0  0  0  0  0
   59.0630   26.7320   46.7200 C   0  0  0  0  0  0  0  0  0  0  0  0
   59.6427   25.9114   47.1679 H   0  0  0  0  0  0  0  0  0  0  0  0
   59.3260   28.1170   47.1640 C   0  0  0  0  0  0  0  0  0  0  0  0
   58.7360   28.5500   48.3600 C   0  0  0  0  0  0  0  0  0  0  0  0
   58.0893   27.8646   48.9274 H   0  0  0  0  0  0  0  0  0  0  0  0
   58.9610   29.8420   48.8380 C   0  0  0  0  0  0  0  0  0  0  0  0
   58.5019   30.1624   49.7849 H   0  0  0  0  0  0  0  0  0  0  0  0
   59.7690   30.7340   48.1180 C   0  0  0  0  0  0  0  0  0  0  0  0
   60.0300   32.1180   48.6530 C   0  0  0  0  0  0  0  0  0  0  0  0
   59.1976   32.7785   48.3688 H   0  0  0  0  0  0  0  0  0  0  0  0
   60.1161   32.0648   49.7483 H   0  0  0  0  0  0  0  0  0  0  0  0
   61.3200   32.6720   48.0880 C   0  0  0  0  0  0  0  0  0  0  0  0
   62.5380   32.2530   48.6540 C   0  0  0  0  0  0  0  0  0  0  0  0
   62.5300   31.5994   49.5387 H   0  0  0  0  0  0  0  0  0  0  0  0
   63.7560   32.6570   48.1060 C   0  0  0  0  0  0  0  0  0  0  0  0
   64.7003   32.3311   48.5664 H   0  0  0  0  0  0  0  0  0  0  0  0
   63.7780   33.4730   46.9760 C   0  0  0  0  0  0  0  0  0  0  0  0
   64.7392   33.7860   46.5421 H   0  0  0  0  0  0  0  0  0  0  0  0
   62.5800   33.8930   46.3950 C   0  0  0  0  0  0  0  0  0  0  0  0
   62.6041   34.5299   45.4985 H   0  0  0  0  0  0  0  0  0  0  0  0
   61.3440   33.5110   46.9430 C   0  0  0  0  0  0  0  0  0  0  0  0
   60.1360   33.9730   46.3220 N   0  0  0  0  0  0  0  0  0  0  0  0
   59.6840   35.1020   46.6020 O   0  0  0  0  0  0  0  0  0  0  0  0
   59.3390   33.0930   45.6270 O   0  0  0  0  0  0  0  0  0  0  0  0
   60.3360   30.3180   46.9030 C   0  0  0  0  0  0  0  0  0  0  0  0
   60.9596   31.0167   46.3260 H   0  0  0  0  0  0  0  0  0  0  0  0
   60.1160   29.0230   46.4180 C   0  0  0  0  0  0  0  0  0  0  0  0
   60.7760   28.6160   44.8350 Cl  0  0  0  0  0  0  0  0  0  0  0  0
  1  2  1  0
  2  3  1  0
  3  4  2  0
  3  5  1  0
  5  6  1  0
  6  7  2  0
  6  8  2  0
  6  9  1  0
  9 10  1  0
  9 11  1  0
  9 12  1  0
  2 13  2  0
 13 14  1  0
 13 15  1  0
 15 16  2  0
 16 17  1  0
 16 18  1  0
 18 19  1  0
 18 20  2  0
 20 21  1  0
 21 22  1  0
 21 23  1  0
 21 24  1  0
 24 25  2  0
 25 26  1  0
 25 27  1  0
 27 28  1  0
 27 29  2  0
 29 30  1  0
 29 31  1  0
 31 32  1  0
 31 33  2  0
 33 34  1  0
 34 35  2  0
 34 36  1  0
 20 37  1  0
 37 38  1  0
 37 39  2  0
 39 40  1  0
 39 15  1  0
 33 24  1  0
M  CHG  3   5  -1  34   1  36  -1
M  END
>  <UniqueID>  (86) 
80

>  <SMILES>  (86) 
CS(=O)(=O)[N-]C(=O)/C=C/c1ccc(Cc2ccccc2[N+](=O)[O-])cc1Cl

>  <Energy>  (86) 
49.34564493403174

>  <Genealogy>  (86) 
CS(=O)(=O)[N-]C(=O)C=Cc1ccc(Cc2ccccc2[N+](=O)[O-])cc1Cl (protonated)
CS(=O)(=O)[N-]C(=O)/C=C/c1ccc(Cc2ccccc2[N+](=O)[O-])cc1Cl (cis-trans isomerization)
CS(=O)(=O)[N-]C(=O)/C=C/c1ccc(Cc2ccccc2[N+](=O)[O-])cc1Cl (3D coordinates assigned)
CS(=O)(=O)[N-]C(=O)/C=C/c1ccc(Cc2ccccc2[N+](=O)[O-])cc1Cl (optimized conformer: 49.34564493403174 kcal/mol)

>  <smiles>  (86) 
CS(=O)(=O)NC(=O)C=Cc1ccc(Cc2ccccc2[N+](=O)[O-])cc1Cl

>  <score_type>  (86) 
oracle

>  <origin>  (86) 
adg

>  <m_score__min__energy>  (86) 
-11.57

>  <m_primary>  (86) 
energy

$$$$
86:0
     RDKit          3D

 51 53  0  0  0  0  0  0  0  0999 V2000
   59.8310   27.2010   45.8850 O   0  0  0  0  0  0  0  0  0  0  0  0
   58.7700   27.5390   45.2930 C   0  0  0  0  0  0  0  0  0  0  0  0
   58.6640   28.9090   44.6890 C   0  0  0  0  0  0  0  0  0  0  0  0
   57.2710   29.2640   44.4390 N   0  0  0  0  0  0  0  0  0  0  0  0
   56.7170   30.5690   44.6270 C   0  0  0  0  0  0  0  0  0  0  0  0
   55.4780   30.7400   44.4780 O   0  0  0  0  0  0  0  0  0  0  0  0
   57.5580   31.7110   45.0030 C   0  0  0  0  0  0  0  0  0  0  0  0
   57.6460   32.8260   44.1560 C   0  0  0  0  0  0  0  0  0  0  0  0
   58.4100   33.9340   44.5320 C   0  0  0  0  0  0  0  0  0  0  0  0
   59.1050   33.9270   45.7440 C   0  0  0  0  0  0  0  0  0  0  0  0
   59.0490   32.8030   46.5840 C   0  0  0  0  0  0  0  0  0  0  0  0
   59.9870   32.7640   48.0780 S   0  0  0  0  0  0  0  0  0  0  0  0
   60.9120   33.9490   48.1120 O   0  0  0  0  0  0  0  0  0  0  0  0
   60.8240   31.5180   48.1030 O   0  0  0  0  0  0  0  0  0  0  0  0
   58.9590   32.7990   49.4860 N   0  0  0  0  0  0  0  0  0  0  0  0
   58.6530   31.4330   49.9280 C   0  0  0  0  0  0  0  0  0  0  0  0
   57.7710   31.4670   51.1920 C   0  0  0  0  0  0  0  0  0  0  0  0
   57.5540   32.7890   51.6540 O   0  0  0  0  0  0  0  0  0  0  0  0
   58.7930   33.4280   51.8800 C   0  0  0  0  0  0  0  0  0  0  0  0
   59.6000   33.5540   50.5750 C   0  0  0  0  0  0  0  0  0  0  0  0
   58.2620   31.7010   46.2150 C   0  0  0  0  0  0  0  0  0  0  0  0
   57.6710   26.6250   45.1980 N   0  0  0  0  0  0  0  0  0  0  0  0
   57.6560   25.3340   45.8800 C   0  0  0  0  0  0  0  0  0  0  0  0
   56.3460   24.6300   45.6480 C   0  0  0  0  0  0  0  0  0  0  0  0
   56.3280   23.2550   45.3580 C   0  0  0  0  0  0  0  0  0  0  0  0
   55.1140   22.5990   45.1390 C   0  0  0  0  0  0  0  0  0  0  0  0
   53.9100   23.3040   45.2120 C   0  0  0  0  0  0  0  0  0  0  0  0
   53.9180   24.6680   45.4970 C   0  0  0  0  0  0  0  0  0  0  0  0
   55.1300   25.3350   45.7100 C   0  0  0  0  0  0  0  0  0  0  0  0
   55.1180   26.6980   45.9830 O   0  0  0  0  0  0  0  0  0  0  0  0
   59.1034   29.6423   45.3813 H   0  0  0  0  0  0  0  0  0  0  0  0
   59.2038   28.9121   43.7306 H   0  0  0  0  0  0  0  0  0  0  0  0
   57.1125   32.8280   43.1940 H   0  0  0  0  0  0  0  0  0  0  0  0
   58.4643   34.8129   43.8728 H   0  0  0  0  0  0  0  0  0  0  0  0
   59.6979   34.8046   46.0412 H   0  0  0  0  0  0  0  0  0  0  0  0
   58.1183   30.9029   49.1261 H   0  0  0  0  0  0  0  0  0  0  0  0
   59.5935   30.9121   50.1607 H   0  0  0  0  0  0  0  0  0  0  0  0
   56.7987   31.0085   50.9587 H   0  0  0  0  0  0  0  0  0  0  0  0
   58.2934   30.9120   51.9851 H   0  0  0  0  0  0  0  0  0  0  0  0
   58.6094   34.4333   52.2869 H   0  0  0  0  0  0  0  0  0  0  0  0
   59.3731   32.8219   52.5914 H   0  0  0  0  0  0  0  0  0  0  0  0
   59.6612   34.6148   50.2904 H   0  0  0  0  0  0  0  0  0  0  0  0
   60.6063   33.1426   50.7430 H   0  0  0  0  0  0  0  0  0  0  0  0
   58.1975   30.8265   46.8792 H   0  0  0  0  0  0  0  0  0  0  0  0
   56.8310   26.9020   44.6490 H   0  0  0  0  0  0  0  0  0  0  0  0
   58.4754   24.7106   45.4928 H   0  0  0  0  0  0  0  0  0  0  0  0
   57.7837   25.5007   46.9598 H   0  0  0  0  0  0  0  0  0  0  0  0
   57.2724   22.6936   45.3033 H   0  0  0  0  0  0  0  0  0  0  0  0
   55.1061   21.5235   44.9083 H   0  0  0  0  0  0  0  0  0  0  0  0
   52.9561   22.7825   45.0446 H   0  0  0  0  0  0  0  0  0  0  0  0
   52.9694   25.2220   45.5547 H   0  0  0  0  0  0  0  0  0  0  0  0
  1  2  2  0
  2  3  1  0
  3  4  1  0
  4  5  1  0
  5  6  2  0
  5  7  1  0
  7  8  2  0
  8  9  1  0
  9 10  2  0
 10 11  1  0
 11 12  1  0
 12 13  2  0
 12 14  2  0
 12 15  1  0
 15 16  1  0
 16 17  1  0
 17 18  1  0
 18 19  1  0
 19 20  1  0
 11 21  2  0
  2 22  1  0
 22 23  1  0
 23 24  1  0
 24 25  2  0
 25 26  1  0
 26 27  2  0
 27 28  1  0
 28 29  2  0
 29 30  1  0
 21  7  1  0
 29 24  1  0
 20 15  1  0
  3 31  1  0
  3 32  1  0
  8 33  1  0
  9 34  1  0
 10 35  1  0
 16 36  1  0
 16 37  1  0
 17 38  1  0
 17 39  1  0
 19 40  1  0
 19 41  1  0
 20 42  1  0
 20 43  1  0
 21 44  1  0
 22 45  1  0
 23 46  1  0
 23 47  1  0
 25 48  1  0
 26 49  1  0
 27 50  1  0
 28 51  1  0
M  CHG  2   4  -1  30  -1
M  END
>  <UniqueID>  (87) 
81

>  <SMILES>  (87) 
O=C(C[N-]C(=O)c1cccc(S(=O)(=O)N2CCOCC2)c1)NCc1ccccc1[O-]

>  <Energy>  (87) 
60.46890155479432

>  <Genealogy>  (87) 
O=C(C[N-]C(=O)c1cccc(S(=O)(=O)N2CCOCC2)c1)NCc1ccccc1[O-] (protonated)
O=C(C[N-]C(=O)c1cccc(S(=O)(=O)N2CCOCC2)c1)NCc1ccccc1[O-] (3D coordinates assigned)
O=C(C[N-]C(=O)c1cccc(S(=O)(=O)N2CCOCC2)c1)NCc1ccccc1[O-] (nonaromatic ring conformer: 60.46890155479432 kcal/mol)

>  <smiles>  (87) 
O=C(CNC(=O)c1cccc(S(=O)(=O)N2CCOCC2)c1)NCc1ccccc1O

>  <score_type>  (87) 
oracle

>  <origin>  (87) 
adg

>  <m_score__min__energy>  (87) 
-15.5

>  <m_primary>  (87) 
energy

$$$$
87:0
     RDKit          3D

 31 32  0  0  0  0  0  0  0  0999 V2000
   57.6460   25.3510   44.8090 C   0  0  0  0  0  0  0  0  0  0  0  0
   56.7070   26.0440   46.1530 S   0  0  0  0  0  0  0  0  0  0  0  0
   57.6520   26.4120   47.2620 O   0  0  0  0  0  0  0  0  0  0  0  0
   55.7190   25.0390   46.6750 O   0  0  0  0  0  0  0  0  0  0  0  0
   55.8800   27.4750   45.6290 N   0  0  0  0  0  0  0  0  0  0  0  0
   56.5020   28.6900   45.1860 C   0  0  0  0  0  0  0  0  0  0  0  0
   55.7090   29.6500   44.5460 C   0  0  0  0  0  0  0  0  0  0  0  0
   56.2690   30.8500   44.0990 C   0  0  0  0  0  0  0  0  0  0  0  0
   57.6380   31.1020   44.2780 C   0  0  0  0  0  0  0  0  0  0  0  0
   58.2330   32.4100   43.8340 C   0  0  0  0  0  0  0  0  0  0  0  0
   58.5410   33.2680   45.0250 C   0  0  0  0  0  0  0  0  0  0  0  0
   59.1640   34.5110   44.8710 C   0  0  0  0  0  0  0  0  0  0  0  0
   59.4640   35.2550   46.0140 C   0  0  0  0  0  0  0  0  0  0  0  0
   60.0210   36.3790   45.9030 O   0  0  0  0  0  0  0  0  0  0  0  0
   59.1570   34.7620   47.2440 N   0  0  0  0  0  0  0  0  0  0  0  0
   58.5620   33.5450   47.3770 C   0  0  0  0  0  0  0  0  0  0  0  0
   58.2870   33.0960   48.5210 O   0  0  0  0  0  0  0  0  0  0  0  0
   58.2640   32.8090   46.2750 N   0  0  0  0  0  0  0  0  0  0  0  0
   58.4320   30.1460   44.9290 C   0  0  0  0  0  0  0  0  0  0  0  0
   57.8720   28.9460   45.3750 C   0  0  0  0  0  0  0  0  0  0  0  0
   58.4695   24.7432   45.2121 H   0  0  0  0  0  0  0  0  0  0  0  0
   56.9911   24.7181   44.1922 H   0  0  0  0  0  0  0  0  0  0  0  0
   58.0577   26.1634   44.1922 H   0  0  0  0  0  0  0  0  0  0  0  0
   54.6366   29.4583   44.3937 H   0  0  0  0  0  0  0  0  0  0  0  0
   55.6341   31.6001   43.6048 H   0  0  0  0  0  0  0  0  0  0  0  0
   59.1607   32.2165   43.2755 H   0  0  0  0  0  0  0  0  0  0  0  0
   57.5106   32.9337   43.1907 H   0  0  0  0  0  0  0  0  0  0  0  0
   59.4124   34.8944   43.8703 H   0  0  0  0  0  0  0  0  0  0  0  0
   59.3840   35.3220   48.0970 H   0  0  0  0  0  0  0  0  0  0  0  0
   59.5024   30.3424   45.0894 H   0  0  0  0  0  0  0  0  0  0  0  0
   58.5050   28.1987   45.8758 H   0  0  0  0  0  0  0  0  0  0  0  0
  1  2  1  0
  2  3  2  0
  2  4  2  0
  2  5  1  0
  5  6  1  0
  6  7  2  0
  7  8  1  0
  8  9  2  0
  9 10  1  0
 10 11  1  0
 11 12  2  0
 12 13  1  0
 13 14  2  0
 13 15  1  0
 15 16  1  0
 16 17  2  0
 16 18  1  0
  9 19  1  0
 19 20  2  0
 20  6  1  0
 18 11  1  0
  1 21  1  0
  1 22  1  0
  1 23  1  0
  7 24  1  0
  8 25  1  0
 10 26  1  0
 10 27  1  0
 12 28  1  0
 15 29  1  0
 19 30  1  0
 20 31  1  0
M  CHG  2   5  -1  18  -1
M  END
>  <UniqueID>  (88) 
82

>  <SMILES>  (88) 
CS(=O)(=O)[N-]c1ccc(Cc2cc(=O)[nH]c(=O)[n-]2)cc1

>  <Energy>  (88) 
29.68725947384159

>  <Genealogy>  (88) 
CS(=O)(=O)[N-]c1ccc(Cc2cc(=O)[nH]c(=O)[n-]2)cc1 (protonated)
CS(=O)(=O)[N-]c1ccc(Cc2cc(=O)[nH]c(=O)[n-]2)cc1 (3D coordinates assigned)
CS(=O)(=O)[N-]c1ccc(Cc2cc(=O)[nH]c(=O)[n-]2)cc1 (optimized conformer: 29.68725947384159 kcal/mol)

>  <smiles>  (88) 
CS(=O)(=O)Nc1ccc(Cc2cc(=O)[nH]c(=O)[nH]2)cc1

>  <score_type>  (88) 
oracle

>  <origin>  (88) 
adg

>  <m_score__min__energy>  (88) 
-10.220000000000001

>  <m_primary>  (88) 
energy

$$$$
88:0
     RDKit          3D

 58 61  0  0  0  0  0  0  0  0999 V2000
   59.9670   34.5820   48.5240 C   0  0  0  0  0  0  0  0  0  0  0  0
   59.3750   33.8140   47.3710 C   0  0  0  0  0  0  0  0  0  0  0  0
   58.8460   34.5210   46.2790 C   0  0  0  0  0  0  0  0  0  0  0  0
   58.2490   33.8470   45.2120 C   0  0  0  0  0  0  0  0  0  0  0  0
   58.1700   32.4490   45.2160 C   0  0  0  0  0  0  0  0  0  0  0  0
   57.5470   31.7100   44.0650 C   0  0  0  0  0  0  0  0  0  0  0  0
   56.3330   31.0320   44.5110 N   0  0  0  0  0  0  0  0  0  0  0  0
   55.9970   29.6520   44.2990 C   0  0  0  0  0  0  0  0  0  0  0  0
   54.7810   29.3360   44.1880 O   0  0  0  0  0  0  0  0  0  0  0  0
   57.0380   28.5860   44.1040 C   0  0  0  0  0  0  0  0  0  0  0  0
   57.2970   27.8850   45.4020 C   0  0  0  0  0  0  0  0  0  0  0  0
   58.4740   27.9050   46.0510 N   0  0  0  0  0  0  0  0  0  0  0  0
   58.2740   27.0630   47.0880 C   0  0  0  0  0  0  0  0  0  0  0  0
   59.1650   26.8140   47.9390 O   0  0  0  0  0  0  0  0  0  0  0  0
   57.0470   26.5020   47.1330 N   0  0  0  0  0  0  0  0  0  0  0  0
   56.4440   27.0280   46.0550 C   0  0  0  0  0  0  0  0  0  0  0  0
   55.1450   26.7220   45.6720 O   0  0  0  0  0  0  0  0  0  0  0  0
   58.7210   31.7330   46.2880 C   0  0  0  0  0  0  0  0  0  0  0  0
   59.3310   32.4010   47.3620 C   0  0  0  0  0  0  0  0  0  0  0  0
   59.9000   31.5930   48.4600 C   0  0  0  0  0  0  0  0  0  0  0  0
   59.1720   30.7350   49.0300 O   0  0  0  0  0  0  0  0  0  0  0  0
   61.2720   31.7550   48.8720 N   0  0  0  0  0  0  0  0  0  0  0  0
   62.3270   31.7780   47.8490 C   0  0  0  0  0  0  0  0  0  0  0  0
   63.5470   32.5650   48.3360 C   0  0  0  0  0  0  0  0  0  0  0  0
   63.9020   32.1640   49.6990 N   0  0  0  0  0  0  0  0  0  0  0  0
   65.2800   32.1990   50.1110 C   0  0  0  0  0  0  0  0  0  0  0  0
   66.0450   33.0870   49.6440 O   0  0  0  0  0  0  0  0  0  0  0  0
   65.8170   31.2010   51.0640 C   0  0  0  0  0  0  0  0  0  0  0  0
   65.1380   29.9880   51.2780 C   0  0  0  0  0  0  0  0  0  0  0  0
   65.6430   29.0410   52.1780 C   0  0  0  0  0  0  0  0  0  0  0  0
   66.8210   29.3070   52.8830 C   0  0  0  0  0  0  0  0  0  0  0  0
   67.4930   30.5160   52.6890 C   0  0  0  0  0  0  0  0  0  0  0  0
   66.9940   31.4630   51.7860 C   0  0  0  0  0  0  0  0  0  0  0  0
   62.8430   32.1990   50.7110 C   0  0  0  0  0  0  0  0  0  0  0  0
   61.6440   31.3780   50.2400 C   0  0  0  0  0  0  0  0  0  0  0  0
   59.6265   34.1403   49.4721 H   0  0  0  0  0  0  0  0  0  0  0  0
   61.0647   34.5349   48.4709 H   0  0  0  0  0  0  0  0  0  0  0  0
   59.6420   35.6316   48.4709 H   0  0  0  0  0  0  0  0  0  0  0  0
   58.9027   35.6194   46.2641 H   0  0  0  0  0  0  0  0  0  0  0  0
   57.8391   34.4164   44.3648 H   0  0  0  0  0  0  0  0  0  0  0  0
   57.2944   32.4235   43.2668 H   0  0  0  0  0  0  0  0  0  0  0  0
   58.2601   30.9642   43.6838 H   0  0  0  0  0  0  0  0  0  0  0  0
   56.6802   27.8580   43.3610 H   0  0  0  0  0  0  0  0  0  0  0  0
   57.9704   29.0499   43.7499 H   0  0  0  0  0  0  0  0  0  0  0  0
   58.6749   30.6340   46.2878 H   0  0  0  0  0  0  0  0  0  0  0  0
   62.6317   30.7454   47.6233 H   0  0  0  0  0  0  0  0  0  0  0  0
   61.9305   32.2686   46.9478 H   0  0  0  0  0  0  0  0  0  0  0  0
   64.3971   32.3666   47.6667 H   0  0  0  0  0  0  0  0  0  0  0  0
   63.3048   33.6380   48.3313 H   0  0  0  0  0  0  0  0  0  0  0  0
   64.2040   29.7816   50.7348 H   0  0  0  0  0  0  0  0  0  0  0  0
   65.1134   28.0889   52.3301 H   0  0  0  0  0  0  0  0  0  0  0  0
   67.2184   28.5642   53.5903 H   0  0  0  0  0  0  0  0  0  0  0  0
   68.4174   30.7250   53.2474 H   0  0  0  0  0  0  0  0  0  0  0  0
   67.5252   32.4153   51.6413 H   0  0  0  0  0  0  0  0  0  0  0  0
   63.2251   31.7786   51.6530 H   0  0  0  0  0  0  0  0  0  0  0  0
   62.5280   33.2411   50.8686 H   0  0  0  0  0  0  0  0  0  0  0  0
   61.9046   30.3096   50.2634 H   0  0  0  0  0  0  0  0  0  0  0  0
   60.7925   31.5740   50.9083 H   0  0  0  0  0  0  0  0  0  0  0  0
  1  2  1  0
  2  3  2  0
  3  4  1  0
  4  5  2  0
  5  6  1  0
  6  7  1  0
  7  8  1  0
  8  9  2  0
  8 10  1  0
 10 11  1  0
 11 12  1  0
 12 13  1  0
 13 14  2  0
 13 15  1  0
 15 16  1  0
 16 17  1  0
  5 18  1  0
 18 19  2  0
 19 20  1  0
 20 21  2  0
 20 22  1  0
 22 23  1  0
 23 24  1  0
 24 25  1  0
 25 26  1  0
 26 27  2  0
 26 28  1  0
 28 29  2  0
 29 30  1  0
 30 31  2  0
 31 32  1  0
 32 33  2  0
 25 34  1  0
 34 35  1  0
 19  2  1  0
 35 22  1  0
 16 11  2  0
 33 28  1  0
  1 36  1  0
  1 37  1  0
  1 38  1  0
  3 39  1  0
  4 40  1  0
  6 41  1  0
  6 42  1  0
 10 43  1  0
 10 44  1  0
 18 45  1  0
 23 46  1  0
 23 47  1  0
 24 48  1  0
 24 49  1  0
 29 50  1  0
 30 51  1  0
 31 52  1  0
 32 53  1  0
 33 54  1  0
 34 55  1  0
 34 56  1  0
 35 57  1  0
 35 58  1  0
M  CHG  4   7  -1  12  -1  15  -1  17  -1
M  END
>  <UniqueID>  (89) 
83

>  <SMILES>  (89) 
Cc1ccc(C[N-]C(=O)Cc2[n-]c(=O)[n-]c2[O-])cc1C(=O)N1CCN(C(=O)c2ccccc2)CC1

>  <Energy>  (89) 
98.87700930494772

>  <Genealogy>  (89) 
Cc1ccc(C[N-]C(=O)Cc2[n-]c(=O)[n-]c2[O-])cc1C(=O)N1CCN(C(=O)c2ccccc2)CC1 (protonated)
Cc1ccc(C[N-]C(=O)Cc2[n-]c(=O)[n-]c2[O-])cc1C(=O)N1CCN(C(=O)c2ccccc2)CC1 (3D coordinates assigned)
Cc1ccc(C[N-]C(=O)Cc2[n-]c(=O)[n-]c2[O-])cc1C(=O)N1CCN(C(=O)c2ccccc2)CC1 (nonaromatic ring conformer: 98.87700930494772 kcal/mol)

>  <smiles>  (89) 
Cc1ccc(CNC(=O)Cc2[nH]c(=O)[nH]c2O)cc1C(=O)N1CCN(C(=O)c2ccccc2)CC1

>  <score_type>  (89) 
oracle

>  <origin>  (89) 
adg

>  <m_score__min__energy>  (89) 
-18.949999999999999

>  <m_primary>  (89) 
energy

$$$$
89:0
     RDKit          3D

 24 25  0  0  0  0  0  0  0  0999 V2000
   59.9340   27.9760   48.3220 C   0  0  0  0  0  0  0  0  0  0  0  0
   60.3560   27.0180   47.4910 C   0  0  0  0  0  0  0  0  0  0  0  0
   60.1770   27.1280   46.0030 C   0  0  0  0  0  0  0  0  0  0  0  0
   58.8730   27.7310   45.6810 N   0  0  0  0  0  0  0  0  0  0  0  0
   58.7790   29.0270   45.2170 C   0  0  0  0  0  0  0  0  0  0  0  0
   59.8310   29.7110   45.0630 O   0  0  0  0  0  0  0  0  0  0  0  0
   57.5450   29.5880   44.9260 N   0  0  0  0  0  0  0  0  0  0  0  0
   57.4640   30.9810   44.4560 C   0  0  0  0  0  0  0  0  0  0  0  0
   56.3920   28.8710   45.1480 C   0  0  0  0  0  0  0  0  0  0  0  0
   55.2520   29.3710   44.9360 O   0  0  0  0  0  0  0  0  0  0  0  0
   56.5030   27.5750   45.6190 C   0  0  0  0  0  0  0  0  0  0  0  0
   55.5300   26.6980   45.9050 N   0  0  0  0  0  0  0  0  0  0  0  0
   56.2390   25.6210   46.3320 C   0  0  0  0  0  0  0  0  0  0  0  0
   55.5240   24.2360   46.8180 S   0  0  0  0  0  0  0  0  0  0  0  0
   57.5870   25.7840   46.3290 N   0  0  0  0  0  0  0  0  0  0  0  0
   57.7150   27.0390   45.8690 C   0  0  0  0  0  0  0  0  0  0  0  0
   60.0795   27.8664   49.4068 H   0  0  0  0  0  0  0  0  0  0  0  0
   59.4412   28.8740   47.9211 H   0  0  0  0  0  0  0  0  0  0  0  0
   60.8470   26.1259   47.9071 H   0  0  0  0  0  0  0  0  0  0  0  0
   60.9784   27.7569   45.5880 H   0  0  0  0  0  0  0  0  0  0  0  0
   60.2192   26.1197   45.5653 H   0  0  0  0  0  0  0  0  0  0  0  0
   57.4246   31.6584   45.3218 H   0  0  0  0  0  0  0  0  0  0  0  0
   58.3501   31.2148   43.8475 H   0  0  0  0  0  0  0  0  0  0  0  0
   56.5568   31.1105   43.8475 H   0  0  0  0  0  0  0  0  0  0  0  0
  1  2  2  0
  2  3  1  0
  3  4  1  0
  4  5  1  0
  5  6  2  0
  5  7  1  0
  7  8  1  0
  7  9  1  0
  9 10  2  0
  9 11  1  0
 11 12  1  0
 12 13  1  0
 13 14  2  0
 13 15  1  0
 15 16  1  0
 16  4  1  0
 16 11  2  0
  1 17  1  0
  1 18  1  0
  2 19  1  0
  3 20  1  0
  3 21  1  0
  8 22  1  0
  8 23  1  0
  8 24  1  0
M  CHG  2  12  -1  15  -1
M  END
>  <UniqueID>  (90) 
84

>  <SMILES>  (90) 
C=CCn1c(=O)n(C)c(=O)c2[n-]c(=S)[n-]c21

>  <Energy>  (90) 
63.67240995168737

>  <Genealogy>  (90) 
C=CCn1c(=O)n(C)c(=O)c2[n-]c(=S)[n-]c21 (protonated)
C=CCn1c(=O)n(C)c(=O)c2[n-]c(=S)[n-]c21 (3D coordinates assigned)
C=CCn1c(=O)n(C)c(=O)c2[n-]c(=S)[n-]c21 (optimized conformer: 63.67240995168737 kcal/mol)

>  <smiles>  (90) 
C=CCn1c(=O)n(C)c(=O)c2[nH]c(=S)[nH]c21

>  <score_type>  (90) 
oracle

>  <origin>  (90) 
adg

>  <m_score__min__energy>  (90) 
-9.2300000000000004

>  <m_primary>  (90) 
energy

$$$$
90:0
     RDKit          3D

 34 35  0  0  0  0  0  0  0  0999 V2000
   59.1950   30.2200   46.1670 C   0  0  0  0  0  0  0  0  0  0  0  0
   58.9310   31.6790   45.8870 C   0  0  0  0  0  0  0  0  0  0  0  0
   58.0160   32.1110   44.9090 C   0  0  0  0  0  0  0  0  0  0  0  0
   57.1920   31.2980   43.9920 C   0  0  0  0  0  0  0  0  0  0  0  0
   57.5080   31.2340   42.7730 O   0  0  0  0  0  0  0  0  0  0  0  0
   56.0560   30.5700   44.4710 N   0  0  0  0  0  0  0  0  0  0  0  0
   56.1510   29.3240   45.2240 C   0  0  0  0  0  0  0  0  0  0  0  0
   57.0430   28.3220   44.4880 C   0  0  0  0  0  0  0  0  0  0  0  0
   57.4480   27.1970   45.4040 C   0  0  0  0  0  0  0  0  0  0  0  0
   58.8060   26.8630   45.5430 C   0  0  0  0  0  0  0  0  0  0  0  0
   59.1930   25.8020   46.3670 C   0  0  0  0  0  0  0  0  0  0  0  0
   58.2290   25.0590   47.0500 C   0  0  0  0  0  0  0  0  0  0  0  0
   56.8750   25.3720   46.9090 C   0  0  0  0  0  0  0  0  0  0  0  0
   56.4790   26.4310   46.0850 C   0  0  0  0  0  0  0  0  0  0  0  0
   55.1240   26.7170   45.9470 O   0  0  0  0  0  0  0  0  0  0  0  0
   57.9870   33.7930   44.9280 S   0  0  0  0  0  0  0  0  0  0  0  0
   59.1270   33.9230   46.1460 C   0  0  0  0  0  0  0  0  0  0  0  0
   59.6340   35.3660   46.7350 S   0  0  0  0  0  0  0  0  0  0  0  0
   59.5550   32.7000   46.5650 N   0  0  0  0  0  0  0  0  0  0  0  0
   60.5530   32.4850   47.6220 C   0  0  0  0  0  0  0  0  0  0  0  0
   59.2249   30.0548   47.2541 H   0  0  0  0  0  0  0  0  0  0  0  0
   58.3925   29.6109   45.7255 H   0  0  0  0  0  0  0  0  0  0  0  0
   60.1601   29.9307   45.7255 H   0  0  0  0  0  0  0  0  0  0  0  0
   56.5804   29.5315   46.2152 H   0  0  0  0  0  0  0  0  0  0  0  0
   55.1441   28.8940   45.3304 H   0  0  0  0  0  0  0  0  0  0  0  0
   56.4911   27.9089   43.6308 H   0  0  0  0  0  0  0  0  0  0  0  0
   57.9494   28.8416   44.1437 H   0  0  0  0  0  0  0  0  0  0  0  0
   59.5691   27.4400   45.0001 H   0  0  0  0  0  0  0  0  0  0  0  0
   60.2586   25.5525   46.4772 H   0  0  0  0  0  0  0  0  0  0  0  0
   58.5357   24.2262   47.6999 H   0  0  0  0  0  0  0  0  0  0  0  0
   56.1175   24.7838   47.4477 H   0  0  0  0  0  0  0  0  0  0  0  0
   60.0728   32.5885   48.6062 H   0  0  0  0  0  0  0  0  0  0  0  0
   60.9775   31.4748   47.5255 H   0  0  0  0  0  0  0  0  0  0  0  0
   61.3558   33.2308   47.5255 H   0  0  0  0  0  0  0  0  0  0  0  0
  1  2  1  0
  2  3  2  0
  3  4  1  0
  4  5  2  0
  4  6  1  0
  6  7  1  0
  7  8  1  0
  8  9  1  0
  9 10  2  0
 10 11  1  0
 11 12  2  0
 12 13  1  0
 13 14  2  0
 14 15  1  0
  3 16  1  0
 16 17  1  0
 17 18  2  0
 17 19  1  0
 19 20  1  0
 19  2  1  0
 14  9  1  0
  1 21  1  0
  1 22  1  0
  1 23  1  0
  7 24  1  0
  7 25  1  0
  8 26  1  0
  8 27  1  0
 10 28  1  0
 11 29  1  0
 12 30  1  0
 13 31  1  0
 20 32  1  0
 20 33  1  0
 20 34  1  0
M  CHG  2   6  -1  15  -1
M  END
>  <UniqueID>  (91) 
85

>  <SMILES>  (91) 
Cc1c(C(=O)[N-]CCc2ccccc2[O-])sc(=S)n1C

>  <Energy>  (91) 
64.17044462980833

>  <Genealogy>  (91) 
Cc1c(C(=O)[N-]CCc2ccccc2[O-])sc(=S)n1C (protonated)
Cc1c(C(=O)[N-]CCc2ccccc2[O-])sc(=S)n1C (3D coordinates assigned)
Cc1c(C(=O)[N-]CCc2ccccc2[O-])sc(=S)n1C (optimized conformer: 64.17044462980833 kcal/mol)

>  <smiles>  (91) 
Cc1c(C(=O)NCCc2ccccc2O)sc(=S)n1C

>  <score_type>  (91) 
oracle

>  <origin>  (91) 
adg

>  <m_score__min__energy>  (91) 
-12.300000000000001

>  <m_primary>  (91) 
energy

$$$$
91:0
     RDKit          3D

 58 61  0  0  0  0  0  0  0  0999 V2000
   57.5300   32.3720   43.6060 O   0  0  0  0  0  0  0  0  0  0  0  0
   57.2610   32.1160   44.8100 C   0  0  0  0  0  0  0  0  0  0  0  0
   57.5500   33.1560   45.8580 C   0  0  0  0  0  0  0  0  0  0  0  0
   58.8950   32.9780   46.4160 N   0  0  0  0  0  0  0  0  0  0  0  0
   59.9720   33.7880   46.2430 C   0  0  0  0  0  0  0  0  0  0  0  0
   59.9340   34.8640   45.5870 O   0  0  0  0  0  0  0  0  0  0  0  0
   61.1040   33.3030   46.8110 N   0  0  0  0  0  0  0  0  0  0  0  0
   62.4610   33.8380   46.6760 C   0  0  0  0  0  0  0  0  0  0  0  0
   63.1670   33.7930   47.9960 C   0  0  0  0  0  0  0  0  0  0  0  0
   64.1970   33.0790   48.1380 O   0  0  0  0  0  0  0  0  0  0  0  0
   62.6850   34.5900   49.0790 N   0  0  0  0  0  0  0  0  0  0  0  0
   62.5790   34.1180   50.4500 C   0  0  0  0  0  0  0  0  0  0  0  0
   61.3060   33.3350   50.6000 C   0  0  0  0  0  0  0  0  0  0  0  0
   61.3230   32.0870   51.2500 C   0  0  0  0  0  0  0  0  0  0  0  0
   60.1470   31.3430   51.3790 C   0  0  0  0  0  0  0  0  0  0  0  0
   58.9430   31.8400   50.8670 C   0  0  0  0  0  0  0  0  0  0  0  0
   57.8020   31.1160   50.9930 F   0  0  0  0  0  0  0  0  0  0  0  0
   58.9170   33.0810   50.2230 C   0  0  0  0  0  0  0  0  0  0  0  0
   60.0930   33.8260   50.0870 C   0  0  0  0  0  0  0  0  0  0  0  0
   60.7290   32.1130   47.3250 C   0  0  0  0  0  0  0  0  0  0  0  0
   61.5190   31.1410   47.9440 C   0  0  0  0  0  0  0  0  0  0  0  0
   60.9020   29.9360   48.3210 C   0  0  0  0  0  0  0  0  0  0  0  0
   59.5290   29.7240   48.0660 C   0  0  0  0  0  0  0  0  0  0  0  0
   58.7590   30.7160   47.4320 C   0  0  0  0  0  0  0  0  0  0  0  0
   59.3940   31.9110   47.0780 C   0  0  0  0  0  0  0  0  0  0  0  0
   56.6500   30.8560   45.1240 N   0  0  0  0  0  0  0  0  0  0  0  0
   56.0040   29.9440   44.1830 C   0  0  0  0  0  0  0  0  0  0  0  0
   57.0450   29.0940   43.4470 C   0  0  0  0  0  0  0  0  0  0  0  0
   57.9340   28.3460   44.4050 C   0  0  0  0  0  0  0  0  0  0  0  0
   59.3060   28.6360   44.4770 C   0  0  0  0  0  0  0  0  0  0  0  0
   60.1140   27.9870   45.4150 C   0  0  0  0  0  0  0  0  0  0  0  0
   59.5580   27.0420   46.2890 C   0  0  0  0  0  0  0  0  0  0  0  0
   60.3520   26.3930   47.2330 O   0  0  0  0  0  0  0  0  0  0  0  0
   58.1930   26.7490   46.2170 C   0  0  0  0  0  0  0  0  0  0  0  0
   57.3830   27.3980   45.2810 C   0  0  0  0  0  0  0  0  0  0  0  0
   57.4782   34.1550   45.4033 H   0  0  0  0  0  0  0  0  0  0  0  0
   56.8159   33.0496   46.6702 H   0  0  0  0  0  0  0  0  0  0  0  0
   63.0186   33.2345   45.9447 H   0  0  0  0  0  0  0  0  0  0  0  0
   62.4035   34.8821   46.3345 H   0  0  0  0  0  0  0  0  0  0  0  0
   63.4386   33.4733   50.6857 H   0  0  0  0  0  0  0  0  0  0  0  0
   62.5715   34.9755   51.1390 H   0  0  0  0  0  0  0  0  0  0  0  0
   62.2663   31.6953   51.6584 H   0  0  0  0  0  0  0  0  0  0  0  0
   60.1677   30.3657   51.8835 H   0  0  0  0  0  0  0  0  0  0  0  0
   57.9700   33.4720   49.8226 H   0  0  0  0  0  0  0  0  0  0  0  0
   60.0684   34.8001   49.5765 H   0  0  0  0  0  0  0  0  0  0  0  0
   62.5893   31.3134   48.1302 H   0  0  0  0  0  0  0  0  0  0  0  0
   61.4925   29.1523   48.8182 H   0  0  0  0  0  0  0  0  0  0  0  0
   59.0583   28.7760   48.3655 H   0  0  0  0  0  0  0  0  0  0  0  0
   57.6912   30.5569   47.2213 H   0  0  0  0  0  0  0  0  0  0  0  0
   55.3216   29.2806   44.7346 H   0  0  0  0  0  0  0  0  0  0  0  0
   55.4467   30.5374   43.4432 H   0  0  0  0  0  0  0  0  0  0  0  0
   56.5233   28.3689   42.8051 H   0  0  0  0  0  0  0  0  0  0  0  0
   57.6765   29.7680   42.8495 H   0  0  0  0  0  0  0  0  0  0  0  0
   59.7464   29.3764   43.7930 H   0  0  0  0  0  0  0  0  0  0  0  0
   61.1882   28.2181   45.4676 H   0  0  0  0  0  0  0  0  0  0  0  0
   61.2610   26.7540   47.4970 H   0  0  0  0  0  0  0  0  0  0  0  0
   57.7551   26.0054   46.8991 H   0  0  0  0  0  0  0  0  0  0  0  0
   56.3092   27.1648   45.2307 H   0  0  0  0  0  0  0  0  0  0  0  0
  1  2  2  0
  2  3  1  0
  3  4  1  0
  4  5  1  0
  5  6  2  0
  5  7  1  0
  7  8  1  0
  8  9  1  0
  9 10  2  0
  9 11  1  0
 11 12  1  0
 12 13  1  0
 13 14  2  0
 14 15  1  0
 15 16  2  0
 16 17  1  0
 16 18  1  0
 18 19  2  0
  7 20  1  0
 20 21  2  0
 21 22  1  0
 22 23  2  0
 23 24  1  0
 24 25  2  0
  2 26  1  0
 26 27  1  0
 27 28  1  0
 28 29  1  0
 29 30  2  0
 30 31  1  0
 31 32  2  0
 32 33  1  0
 32 34  1  0
 34 35  2  0
 25  4  1  0
 35 29  1  0
 19 13  1  0
 25 20  1  0
  3 36  1  0
  3 37  1  0
  8 38  1  0
  8 39  1  0
 12 40  1  0
 12 41  1  0
 14 42  1  0
 15 43  1  0
 18 44  1  0
 19 45  1  0
 21 46  1  0
 22 47  1  0
 23 48  1  0
 24 49  1  0
 27 50  1  0
 27 51  1  0
 28 52  1  0
 28 53  1  0
 30 54  1  0
 31 55  1  0
 33 56  1  0
 34 57  1  0
 35 58  1  0
M  CHG  2  11  -1  26  -1
M  END
>  <UniqueID>  (92) 
86

>  <SMILES>  (92) 
O=C(Cn1c(=O)n(CC(=O)[N-]Cc2ccc(F)cc2)c2ccccc21)[N-]CCc1ccc(O)cc1

>  <Energy>  (92) 
92.64814808368914

>  <Genealogy>  (92) 
O=C(Cn1c(=O)n(CC(=O)[N-]Cc2ccc(F)cc2)c2ccccc21)[N-]CCc1ccc(O)cc1 (protonated)
O=C(Cn1c(=O)n(CC(=O)[N-]Cc2ccc(F)cc2)c2ccccc21)[N-]CCc1ccc(O)cc1 (3D coordinates assigned)
O=C(Cn1c(=O)n(CC(=O)[N-]Cc2ccc(F)cc2)c2ccccc21)[N-]CCc1ccc(O)cc1 (optimized conformer: 92.64814808368914 kcal/mol)

>  <smiles>  (92) 
O=C(Cn1c(=O)n(CC(=O)NCc2ccc(F)cc2)c2ccccc21)NCCc1ccc(O)cc1

>  <score_type>  (92) 
oracle

>  <origin>  (92) 
adg

>  <m_score__min__energy>  (92) 
-12.6

>  <m_primary>  (92) 
energy

$$$$
92:0
     RDKit          3D

 40 41  0  0  0  0  0  0  0  0999 V2000
   58.6510   33.0230   44.2960 O   0  0  0  0  0  0  0  0  0  0  0  0
   57.7440   32.9310   45.1690 C   0  0  0  0  0  0  0  0  0  0  0  0
   57.9080   33.6200   46.4860 C   0  0  0  0  0  0  0  0  0  0  0  0
   57.9630   32.6610   47.5370 O   0  0  0  0  0  0  0  0  0  0  0  0
   58.7900   32.7950   48.6570 C   0  0  0  0  0  0  0  0  0  0  0  0
   58.7030   31.9910   49.6230 O   0  0  0  0  0  0  0  0  0  0  0  0
   59.8180   33.8790   48.6910 C   0  0  0  0  0  0  0  0  0  0  0  0
   61.1660   33.3260   48.3130 C   0  0  0  0  0  0  0  0  0  0  0  0
   61.2550   32.2100   47.4620 C   0  0  0  0  0  0  0  0  0  0  0  0
   62.5040   31.6800   47.1180 C   0  0  0  0  0  0  0  0  0  0  0  0
   63.6700   32.2500   47.6360 C   0  0  0  0  0  0  0  0  0  0  0  0
   63.5920   33.3520   48.4940 C   0  0  0  0  0  0  0  0  0  0  0  0
   62.3460   33.8890   48.8330 C   0  0  0  0  0  0  0  0  0  0  0  0
   62.2920   34.9540   49.6770 F   0  0  0  0  0  0  0  0  0  0  0  0
   56.5810   32.1340   44.9290 N   0  0  0  0  0  0  0  0  0  0  0  0
   56.6080   30.8600   44.2190 C   0  0  0  0  0  0  0  0  0  0  0  0
   57.0830   29.7710   45.1280 C   0  0  0  0  0  0  0  0  0  0  0  0
   57.7980   30.0590   46.1260 O   0  0  0  0  0  0  0  0  0  0  0  0
   56.6760   28.4210   44.8800 N   0  0  0  0  0  0  0  0  0  0  0  0
   57.0960   27.2560   45.6060 C   0  0  0  0  0  0  0  0  0  0  0  0
   58.4550   26.9210   45.7450 C   0  0  0  0  0  0  0  0  0  0  0  0
   58.8280   25.7620   46.4310 C   0  0  0  0  0  0  0  0  0  0  0  0
   57.8500   24.9200   46.9700 C   0  0  0  0  0  0  0  0  0  0  0  0
   56.4980   25.2340   46.8180 C   0  0  0  0  0  0  0  0  0  0  0  0
   56.1190   26.3950   46.1310 C   0  0  0  0  0  0  0  0  0  0  0  0
   54.7690   26.6950   45.9800 O   0  0  0  0  0  0  0  0  0  0  0  0
   58.8401   34.2040   46.4774 H   0  0  0  0  0  0  0  0  0  0  0  0
   57.0495   34.2873   46.6524 H   0  0  0  0  0  0  0  0  0  0  0  0
   59.5367   34.6696   47.9798 H   0  0  0  0  0  0  0  0  0  0  0  0
   59.8713   34.2927   49.7089 H   0  0  0  0  0  0  0  0  0  0  0  0
   60.3378   31.7509   47.0644 H   0  0  0  0  0  0  0  0  0  0  0  0
   62.5677   30.8157   46.4406 H   0  0  0  0  0  0  0  0  0  0  0  0
   64.6513   31.8312   47.3685 H   0  0  0  0  0  0  0  0  0  0  0  0
   64.5115   33.7966   48.9024 H   0  0  0  0  0  0  0  0  0  0  0  0
   55.5948   30.6206   43.8639 H   0  0  0  0  0  0  0  0  0  0  0  0
   57.2966   30.9400   43.3649 H   0  0  0  0  0  0  0  0  0  0  0  0
   59.2272   27.5738   45.3120 H   0  0  0  0  0  0  0  0  0  0  0  0
   59.8928   25.5115   46.5472 H   0  0  0  0  0  0  0  0  0  0  0  0
   58.1458   24.0106   47.5136 H   0  0  0  0  0  0  0  0  0  0  0  0
   55.7292   24.5689   47.2382 H   0  0  0  0  0  0  0  0  0  0  0  0
  1  2  2  0
  2  3  1  0
  3  4  1  0
  4  5  1  0
  5  6  2  0
  5  7  1  0
  7  8  1  0
  8  9  2  0
  9 10  1  0
 10 11  2  0
 11 12  1  0
 12 13  2  0
 13 14  1  0
  2 15  1  0
 15 16  1  0
 16 17  1  0
 17 18  2  0
 17 19  1  0
 19 20  1  0
 20 21  2  0
 21 22  1  0
 22 23  2  0
 23 24  1  0
 24 25  2  0
 25 26  1  0
 13  8  1  0
 25 20  1  0
  3 27  1  0
  3 28  1  0
  7 29  1  0
  7 30  1  0
  9 31  1  0
 10 32  1  0
 11 33  1  0
 12 34  1  0
 16 35  1  0
 16 36  1  0
 21 37  1  0
 22 38  1  0
 23 39  1  0
 24 40  1  0
M  CHG  3  15  -1  19  -1  26  -1
M  END
>  <UniqueID>  (93) 
87

>  <SMILES>  (93) 
O=C(COC(=O)Cc1ccccc1F)[N-]CC(=O)[N-]c1ccccc1[O-]

>  <Energy>  (93) 
34.31870496598744

>  <Genealogy>  (93) 
O=C(COC(=O)Cc1ccccc1F)[N-]CC(=O)[N-]c1ccccc1[O-] (protonated)
O=C(COC(=O)Cc1ccccc1F)[N-]CC(=O)[N-]c1ccccc1[O-] (3D coordinates assigned)
O=C(COC(=O)Cc1ccccc1F)[N-]CC(=O)[N-]c1ccccc1[O-] (optimized conformer: 34.31870496598744 kcal/mol)

>  <smiles>  (93) 
O=C(COC(=O)Cc1ccccc1F)NCC(=O)Nc1ccccc1O

>  <score_type>  (93) 
oracle

>  <origin>  (93) 
adg

>  <m_score__min__energy>  (93) 
-14.81

>  <m_primary>  (93) 
energy

$$$$
93:0
     RDKit          3D

 44 46  0  0  0  0  0  0  0  0999 V2000
   55.3880   29.9790   53.7650 O   0  0  0  0  0  0  0  0  0  0  0  0
   55.3170   29.8120   52.5180 C   0  0  0  0  0  0  0  0  0  0  0  0
   54.0120   29.3700   51.9080 C   0  0  0  0  0  0  0  0  0  0  0  0
   52.9470   30.4350   52.0030 C   0  0  0  0  0  0  0  0  0  0  0  0
   52.4600   30.8450   53.2570 C   0  0  0  0  0  0  0  0  0  0  0  0
   51.4860   31.8440   53.3440 C   0  0  0  0  0  0  0  0  0  0  0  0
   51.0000   32.4550   52.1860 C   0  0  0  0  0  0  0  0  0  0  0  0
   50.0330   33.4490   52.2800 O   0  0  0  0  0  0  0  0  0  0  0  0
   51.4920   32.0680   50.9330 C   0  0  0  0  0  0  0  0  0  0  0  0
   51.0220   32.6810   49.7780 O   0  0  0  0  0  0  0  0  0  0  0  0
   52.4650   31.0670   50.8430 C   0  0  0  0  0  0  0  0  0  0  0  0
   56.5120   29.9350   51.7380 N   0  0  0  0  0  0  0  0  0  0  0  0
   57.3040   31.1210   51.6120 C   0  0  0  0  0  0  0  0  0  0  0  0
   57.0800   32.2240   52.4500 C   0  0  0  0  0  0  0  0  0  0  0  0
   57.8610   33.3730   52.3220 C   0  0  0  0  0  0  0  0  0  0  0  0
   58.8880   33.4210   51.3790 C   0  0  0  0  0  0  0  0  0  0  0  0
   59.1580   32.3090   50.5680 C   0  0  0  0  0  0  0  0  0  0  0  0
   60.4720   32.3820   49.3900 S   0  0  0  0  0  0  0  0  0  0  0  0
   61.2260   31.0820   49.4340 O   0  0  0  0  0  0  0  0  0  0  0  0
   61.4040   33.5110   49.7340 O   0  0  0  0  0  0  0  0  0  0  0  0
   59.8310   32.6370   47.7830 N   0  0  0  0  0  0  0  0  0  0  0  0
   58.4360   33.1060   47.8690 C   0  0  0  0  0  0  0  0  0  0  0  0
   57.7090   32.8840   46.5330 C   0  0  0  0  0  0  0  0  0  0  0  0
   57.6650   31.5270   46.1050 O   0  0  0  0  0  0  0  0  0  0  0  0
   58.6440   30.7010   46.7180 C   0  0  0  0  0  0  0  0  0  0  0  0
   59.9840   31.4230   46.9470 C   0  0  0  0  0  0  0  0  0  0  0  0
   58.3580   31.1570   50.6860 C   0  0  0  0  0  0  0  0  0  0  0  0
   58.5940   30.0500   49.8760 O   0  0  0  0  0  0  0  0  0  0  0  0
   54.1800   29.1310   50.8475 H   0  0  0  0  0  0  0  0  0  0  0  0
   53.6597   28.4903   52.4665 H   0  0  0  0  0  0  0  0  0  0  0  0
   52.8475   30.3772   54.1741 H   0  0  0  0  0  0  0  0  0  0  0  0
   51.1010   32.1499   54.3280 H   0  0  0  0  0  0  0  0  0  0  0  0
   52.8558   30.7722   49.8579 H   0  0  0  0  0  0  0  0  0  0  0  0
   56.2861   32.1826   53.2103 H   0  0  0  0  0  0  0  0  0  0  0  0
   57.6665   34.2432   52.9662 H   0  0  0  0  0  0  0  0  0  0  0  0
   59.4892   34.3358   51.2709 H   0  0  0  0  0  0  0  0  0  0  0  0
   57.9151   32.5485   48.6614 H   0  0  0  0  0  0  0  0  0  0  0  0
   58.4363   34.1817   48.0989 H   0  0  0  0  0  0  0  0  0  0  0  0
   56.6753   33.2445   46.6400 H   0  0  0  0  0  0  0  0  0  0  0  0
   58.2790   33.4350   45.7705 H   0  0  0  0  0  0  0  0  0  0  0  0
   58.2576   30.3628   47.6908 H   0  0  0  0  0  0  0  0  0  0  0  0
   58.8367   29.8591   46.0367 H   0  0  0  0  0  0  0  0  0  0  0  0
   60.6771   30.7322   47.4494 H   0  0  0  0  0  0  0  0  0  0  0  0
   60.3707   31.7356   45.9658 H   0  0  0  0  0  0  0  0  0  0  0  0
  1  2  2  0
  2  3  1  0
  3  4  1  0
  4  5  2  0
  5  6  1  0
  6  7  2  0
  7  8  1  0
  7  9  1  0
  9 10  1  0
  9 11  2  0
  2 12  1  0
 12 13  1  0
 13 14  2  0
 14 15  1  0
 15 16  2  0
 16 17  1  0
 17 18  1  0
 18 19  2  0
 18 20  2  0
 18 21  1  0
 21 22  1  0
 22 23  1  0
 23 24  1  0
 24 25  1  0
 25 26  1  0
 17 27  2  0
 27 28  1  0
 11  4  1  0
 27 13  1  0
 26 21  1  0
  3 29  1  0
  3 30  1  0
  5 31  1  0
  6 32  1  0
 11 33  1  0
 14 34  1  0
 15 35  1  0
 16 36  1  0
 22 37  1  0
 22 38  1  0
 23 39  1  0
 23 40  1  0
 25 41  1  0
 25 42  1  0
 26 43  1  0
 26 44  1  0
M  CHG  4   8  -1  10  -1  12  -1  28  -1
M  END
>  <UniqueID>  (94) 
88

>  <SMILES>  (94) 
O=C(Cc1ccc([O-])c([O-])c1)[N-]c1cccc(S(=O)(=O)N2CCOCC2)c1[O-]

>  <Energy>  (94) 
64.09073246805106

>  <Genealogy>  (94) 
O=C(Cc1ccc([O-])c([O-])c1)[N-]c1cccc(S(=O)(=O)N2CCOCC2)c1[O-] (protonated)
O=C(Cc1ccc([O-])c([O-])c1)[N-]c1cccc(S(=O)(=O)N2CCOCC2)c1[O-] (3D coordinates assigned)
O=C(Cc1ccc([O-])c([O-])c1)[N-]c1cccc(S(=O)(=O)N2CCOCC2)c1[O-] (nonaromatic ring conformer: 64.09073246805106 kcal/mol)

>  <smiles>  (94) 
O=C(Cc1ccc(O)c(O)c1)Nc1cccc(S(=O)(=O)N2CCOCC2)c1O

>  <score_type>  (94) 
oracle

>  <origin>  (94) 
adg

>  <m_score__min__energy>  (94) 
-19.579999999999998

>  <m_primary>  (94) 
energy

$$$$
94:0
     RDKit          3D

 49 51  0  0  0  0  0  0  0  0999 V2000
   62.3920   33.5540   46.0360 O   0  0  0  0  0  0  0  0  0  0  0  0
   61.9410   33.8760   47.1690 C   0  0  0  0  0  0  0  0  0  0  0  0
   60.6830   34.5630   47.2620 N   0  0  0  0  0  0  0  0  0  0  0  0
   59.9650   35.0330   46.0790 C   0  0  0  0  0  0  0  0  0  0  0  0
   58.9810   33.9940   45.6190 C   0  0  0  0  0  0  0  0  0  0  0  0
   58.2670   34.2540   44.6130 O   0  0  0  0  0  0  0  0  0  0  0  0
   58.8350   32.7210   46.2950 N   0  0  0  0  0  0  0  0  0  0  0  0
   58.1030   32.6570   47.5720 C   0  0  0  0  0  0  0  0  0  0  0  0
   59.0260   32.3150   48.7120 C   0  0  0  0  0  0  0  0  0  0  0  0
   59.6490   31.0570   48.7700 C   0  0  0  0  0  0  0  0  0  0  0  0
   60.4560   30.7190   49.8600 C   0  0  0  0  0  0  0  0  0  0  0  0
   60.6520   31.6350   50.8970 C   0  0  0  0  0  0  0  0  0  0  0  0
   60.0420   32.8910   50.8440 C   0  0  0  0  0  0  0  0  0  0  0  0
   59.2350   33.2330   49.7560 C   0  0  0  0  0  0  0  0  0  0  0  0
   59.3850   31.4760   45.7260 C   0  0  0  0  0  0  0  0  0  0  0  0
   58.3540   30.3730   45.6950 C   0  0  0  0  0  0  0  0  0  0  0  0
   57.2030   30.4800   44.8960 C   0  0  0  0  0  0  0  0  0  0  0  0
   56.2620   29.4470   44.8680 C   0  0  0  0  0  0  0  0  0  0  0  0
   56.4670   28.2930   45.6290 C   0  0  0  0  0  0  0  0  0  0  0  0
   55.5300   27.2690   45.6030 O   0  0  0  0  0  0  0  0  0  0  0  0
   57.6170   28.1690   46.4130 C   0  0  0  0  0  0  0  0  0  0  0  0
   58.5610   29.1990   46.4400 C   0  0  0  0  0  0  0  0  0  0  0  0
   62.7110   33.5190   48.3860 C   0  0  0  0  0  0  0  0  0  0  0  0
   62.6520   34.3210   49.5430 C   0  0  0  0  0  0  0  0  0  0  0  0
   63.3910   33.9780   50.6800 C   0  0  0  0  0  0  0  0  0  0  0  0
   64.1960   32.8370   50.6750 C   0  0  0  0  0  0  0  0  0  0  0  0
   64.2760   32.0450   49.5300 C   0  0  0  0  0  0  0  0  0  0  0  0
   63.5400   32.3820   48.3900 C   0  0  0  0  0  0  0  0  0  0  0  0
   60.1590   34.5260   48.1650 H   0  0  0  0  0  0  0  0  0  0  0  0
   59.4257   35.9594   46.3260 H   0  0  0  0  0  0  0  0  0  0  0  0
   60.6889   35.2220   45.2727 H   0  0  0  0  0  0  0  0  0  0  0  0
   57.6373   33.6341   47.7681 H   0  0  0  0  0  0  0  0  0  0  0  0
   57.3373   31.8709   47.4957 H   0  0  0  0  0  0  0  0  0  0  0  0
   59.5009   30.3347   47.9537 H   0  0  0  0  0  0  0  0  0  0  0  0
   60.9374   29.7308   49.9016 H   0  0  0  0  0  0  0  0  0  0  0  0
   61.2864   31.3673   51.7548 H   0  0  0  0  0  0  0  0  0  0  0  0
   60.1974   33.6117   51.6603 H   0  0  0  0  0  0  0  0  0  0  0  0
   58.7611   34.2249   49.7161 H   0  0  0  0  0  0  0  0  0  0  0  0
   59.7265   31.6737   44.6992 H   0  0  0  0  0  0  0  0  0  0  0  0
   60.2197   31.1474   46.3626 H   0  0  0  0  0  0  0  0  0  0  0  0
   57.0415   31.3828   44.2886 H   0  0  0  0  0  0  0  0  0  0  0  0
   55.3594   29.5424   44.2465 H   0  0  0  0  0  0  0  0  0  0  0  0
   57.7794   27.2593   47.0098 H   0  0  0  0  0  0  0  0  0  0  0  0
   59.4714   29.0905   47.0478 H   0  0  0  0  0  0  0  0  0  0  0  0
   62.0211   35.2221   49.5522 H   0  0  0  0  0  0  0  0  0  0  0  0
   63.3379   34.6084   51.5799 H   0  0  0  0  0  0  0  0  0  0  0  0
   64.7671   32.5629   51.5743 H   0  0  0  0  0  0  0  0  0  0  0  0
   64.9197   31.1530   49.5237 H   0  0  0  0  0  0  0  0  0  0  0  0
   63.6095   31.7538   47.4897 H   0  0  0  0  0  0  0  0  0  0  0  0
  1  2  2  0
  2  3  1  0
  3  4  1  0
  4  5  1  0
  5  6  2  0
  5  7  1  0
  7  8  1  0
  8  9  1  0
  9 10  2  0
 10 11  1  0
 11 12  2  0
 12 13  1  0
 13 14  2  0
  7 15  1  0
 15 16  1  0
 16 17  2  0
 17 18  1  0
 18 19  2  0
 19 20  1  0
 19 21  1  0
 21 22  2  0
  2 23  1  0
 23 24  2  0
 24 25  1  0
 25 26  2  0
 26 27  1  0
 27 28  2  0
 14  9  1  0
 22 16  1  0
 28 23  1  0
  3 29  1  0
  4 30  1  0
  4 31  1  0
  8 32  1  0
  8 33  1  0
 10 34  1  0
 11 35  1  0
 12 36  1  0
 13 37  1  0
 14 38  1  0
 15 39  1  0
 15 40  1  0
 17 41  1  0
 18 42  1  0
 21 43  1  0
 22 44  1  0
 24 45  1  0
 25 46  1  0
 26 47  1  0
 27 48  1  0
 28 49  1  0
M  CHG  1  20  -1
M  END
>  <UniqueID>  (95) 
89

>  <SMILES>  (95) 
O=C(NCC(=O)N(Cc1ccccc1)Cc1ccc([O-])cc1)c1ccccc1

>  <Energy>  (95) 
48.744177590138925

>  <Genealogy>  (95) 
O=C(NCC(=O)N(Cc1ccccc1)Cc1ccc([O-])cc1)c1ccccc1 (protonated)
O=C(NCC(=O)N(Cc1ccccc1)Cc1ccc([O-])cc1)c1ccccc1 (3D coordinates assigned)
O=C(NCC(=O)N(Cc1ccccc1)Cc1ccc([O-])cc1)c1ccccc1 (optimized conformer: 48.744177590138925 kcal/mol)

>  <smiles>  (95) 
O=C(NCC(=O)N(Cc1ccccc1)Cc1ccc(O)cc1)c1ccccc1

>  <score_type>  (95) 
oracle

>  <origin>  (95) 
adg

>  <m_score__min__energy>  (95) 
-10.699999999999999

>  <m_primary>  (95) 
energy

$$$$
95:0
     RDKit          3D

 40 42  0  0  0  0  0  0  0  0999 V2000
   60.9719   26.9978   46.2723 H   0  0  0  0  0  0  0  0  0  0  0  0
   59.8730   26.9870   46.2240 C   0  0  0  0  0  0  0  0  0  0  0  0
   59.2270   27.7330   45.2900 N   0  0  0  0  0  0  0  0  0  0  0  0
   57.8660   27.7600   45.1950 C   0  0  0  0  0  0  0  0  0  0  0  0
   57.2790   28.4770   44.2780 N   0  0  0  0  0  0  0  0  0  0  0  0
   56.5720   29.7090   44.4880 C   0  0  0  0  0  0  0  0  0  0  0  0
   55.3480   29.6580   44.7770 O   0  0  0  0  0  0  0  0  0  0  0  0
   57.2630   31.0190   44.4620 C   0  0  0  0  0  0  0  0  0  0  0  0
   57.7780   31.6780   45.5700 C   0  0  0  0  0  0  0  0  0  0  0  0
   57.7860   31.3378   46.6161 H   0  0  0  0  0  0  0  0  0  0  0  0
   58.2810   32.8660   45.0540 C   0  0  0  0  0  0  0  0  0  0  0  0
   58.8790   33.8300   45.6950 N   0  0  0  0  0  0  0  0  0  0  0  0
   59.5100   33.7910   46.9880 C   0  0  0  0  0  0  0  0  0  0  0  0
   58.9480   34.3040   47.9930 O   0  0  0  0  0  0  0  0  0  0  0  0
   60.8500   33.1650   47.1240 C   0  0  0  0  0  0  0  0  0  0  0  0
   61.9840   33.8930   46.7150 C   0  0  0  0  0  0  0  0  0  0  0  0
   61.8590   34.9015   46.2940 H   0  0  0  0  0  0  0  0  0  0  0  0
   63.2650   33.3510   46.8370 C   0  0  0  0  0  0  0  0  0  0  0  0
   64.1410   33.9339   46.5164 H   0  0  0  0  0  0  0  0  0  0  0  0
   63.4350   32.0710   47.3650 C   0  0  0  0  0  0  0  0  0  0  0  0
   64.4452   31.6475   47.4660 H   0  0  0  0  0  0  0  0  0  0  0  0
   62.3240   31.3280   47.7650 C   0  0  0  0  0  0  0  0  0  0  0  0
   62.4628   30.3166   48.1747 H   0  0  0  0  0  0  0  0  0  0  0  0
   61.0320   31.8600   47.6490 C   0  0  0  0  0  0  0  0  0  0  0  0
   59.6880   30.8220   48.1190 Cl  0  0  0  0  0  0  0  0  0  0  0  0
   58.0680   32.9060   43.7270 N   0  0  0  0  0  0  0  0  0  0  0  0
   58.3370   33.6800   43.0780 H   0  0  0  0  0  0  0  0  0  0  0  0
   57.4540   31.7910   43.3660 N   0  0  0  0  0  0  0  0  0  0  0  0
   57.0560   31.4920   41.9930 C   0  0  0  0  0  0  0  0  0  0  0  0
   56.1766   30.8313   42.0018 H   0  0  0  0  0  0  0  0  0  0  0  0
   56.8064   32.4278   41.4715 H   0  0  0  0  0  0  0  0  0  0  0  0
   57.8853   30.9917   41.4715 H   0  0  0  0  0  0  0  0  0  0  0  0
   57.0950   26.9760   46.0760 C   0  0  0  0  0  0  0  0  0  0  0  0
   55.6630   26.9600   46.0060 N   0  0  0  0  0  0  0  0  0  0  0  0
   55.1440   27.5310   45.3020 H   0  0  0  0  0  0  0  0  0  0  0  0
   55.1060   26.3720   46.6650 H   0  0  0  0  0  0  0  0  0  0  0  0
   57.7510   26.2020   47.0440 C   0  0  0  0  0  0  0  0  0  0  0  0
   57.1656   25.5884   47.7446 H   0  0  0  0  0  0  0  0  0  0  0  0
   59.1440   26.2080   47.1210 C   0  0  0  0  0  0  0  0  0  0  0  0
   59.6614   25.6045   47.8813 H   0  0  0  0  0  0  0  0  0  0  0  0
  1  2  1  0
  2  3  1  0
  3  4  1  0
  4  5  2  0
  5  6  1  0
  6  7  2  0
  6  8  1  0
  8  9  2  0
  9 10  1  0
  9 11  1  0
 11 12  2  3
 12 13  1  0
 13 14  2  0
 13 15  1  0
 15 16  2  0
 16 17  1  0
 16 18  1  0
 18 19  1  0
 18 20  2  0
 20 21  1  0
 20 22  1  0
 22 23  1  0
 22 24  2  0
 24 25  1  0
 11 26  1  0
 26 27  1  0
 26 28  1  0
 28 29  1  0
 29 30  1  0
 29 31  1  0
 29 32  1  0
  4 33  1  0
 33 34  1  0
 34 35  1  0
 34 36  1  0
 33 37  2  0
 37 38  1  0
 37 39  1  0
 39 40  1  0
 39  2  2  0
 28  8  1  0
 24 15  1  0
M  CHG  1   3  -1
M  END
>  <UniqueID>  (96) 
90

>  <SMILES>  (96) 
Cn1[nH]c(=NC(=O)c2ccccc2Cl)cc1C(=O)/N=c1\[n-]cccc1N

>  <Energy>  (96) 
90.26424144406973

>  <Genealogy>  (96) 
Cn1[nH]c(=NC(=O)c2ccccc2Cl)cc1C(=O)N=c1[n-]cccc1N (protonated)
Cn1[nH]c(=NC(=O)c2ccccc2Cl)cc1C(=O)/N=c1\[n-]cccc1N (cis-trans isomerization)
Cn1[nH]c(=NC(=O)c2ccccc2Cl)cc1C(=O)/N=c1\[n-]cccc1N (3D coordinates assigned)
Cn1[nH]c(=NC(=O)c2ccccc2Cl)cc1C(=O)/N=c1\[n-]cccc1N (optimized conformer: 90.26424144406973 kcal/mol)

>  <smiles>  (96) 
Cn1[nH]c(=NC(=O)c2ccccc2Cl)cc1C(=O)N=c1[nH]cccc1N

>  <score_type>  (96) 
oracle

>  <origin>  (96) 
adg

>  <m_score__min__energy>  (96) 
-9.9900000000000002

>  <m_primary>  (96) 
energy

$$$$
96:0
     RDKit          3D

 36 39  0  0  0  0  0  0  0  0999 V2000
   59.1960   36.0150   47.5390 H   0  0  0  0  0  0  0  0  0  0  0  0
   58.9290   35.1810   47.0370 O   0  0  0  0  0  0  0  0  0  0  0  0
   59.4390   33.9050   47.2920 C   0  0  0  0  0  0  0  0  0  0  0  0
   60.3900   33.7980   48.3180 C   0  0  0  0  0  0  0  0  0  0  0  0
   60.8340   34.9420   48.9740 O   0  0  0  0  0  0  0  0  0  0  0  0
   60.8820   32.5540   48.7090 C   0  0  0  0  0  0  0  0  0  0  0  0
   61.6296   32.4876   49.5131 H   0  0  0  0  0  0  0  0  0  0  0  0
   60.4300   31.3970   48.0850 C   0  0  0  0  0  0  0  0  0  0  0  0
   60.7976   30.4157   48.4195 H   0  0  0  0  0  0  0  0  0  0  0  0
   59.5110   31.4740   47.0350 C   0  0  0  0  0  0  0  0  0  0  0  0
   59.1080   30.3260   46.4350 N   0  0  0  0  0  0  0  0  0  0  0  0
   58.2450   30.3000   45.3880 C   0  0  0  0  0  0  0  0  0  0  0  0
   57.8530   29.0660   44.8060 C   0  0  0  0  0  0  0  0  0  0  0  0
   58.3290   27.7520   45.3260 C   0  0  0  0  0  0  0  0  0  0  0  0
   59.4430   27.2880   44.9580 O   0  0  0  0  0  0  0  0  0  0  0  0
   57.5110   27.0190   46.2570 N   0  0  0  0  0  0  0  0  0  0  0  0
   57.0410   25.8130   46.1160 C   0  0  0  0  0  0  0  0  0  0  0  0
   57.8700   24.7280   46.0920 N   0  0  0  0  0  0  0  0  0  0  0  0
   57.3970   23.4620   45.9450 C   0  0  0  0  0  0  0  0  0  0  0  0
   58.0957   22.6125   45.9308 H   0  0  0  0  0  0  0  0  0  0  0  0
   56.0250   23.2390   45.8120 C   0  0  0  0  0  0  0  0  0  0  0  0
   55.6363   22.2169   45.6929 H   0  0  0  0  0  0  0  0  0  0  0  0
   55.1530   24.3280   45.8320 C   0  0  0  0  0  0  0  0  0  0  0  0
   54.0696   24.1682   45.7283 H   0  0  0  0  0  0  0  0  0  0  0  0
   55.6580   25.6220   45.9840 C   0  0  0  0  0  0  0  0  0  0  0  0
   54.7860   26.7060   46.0030 O   0  0  0  0  0  0  0  0  0  0  0  0
   56.9840   29.0890   43.6990 C   0  0  0  0  0  0  0  0  0  0  0  0
   56.6706   28.1419   43.2355 H   0  0  0  0  0  0  0  0  0  0  0  0
   56.5150   30.2960   43.1820 C   0  0  0  0  0  0  0  0  0  0  0  0
   55.8371   30.2928   42.3157 H   0  0  0  0  0  0  0  0  0  0  0  0
   56.8990   31.5050   43.7550 C   0  0  0  0  0  0  0  0  0  0  0  0
   56.5240   32.4514   43.3383 H   0  0  0  0  0  0  0  0  0  0  0  0
   57.7640   31.5230   44.8640 C   0  0  0  0  0  0  0  0  0  0  0  0
   58.1710   32.7390   45.4550 C   0  0  0  0  0  0  0  0  0  0  0  0
   57.8000   33.8250   44.9350 O   0  0  0  0  0  0  0  0  0  0  0  0
   59.0210   32.7310   46.5920 C   0  0  0  0  0  0  0  0  0  0  0  0
  1  2  1  0
  2  3  1  0
  3  4  2  0
  4  5  1  0
  4  6  1  0
  6  7  1  0
  6  8  2  0
  8  9  1  0
  8 10  1  0
 10 11  1  0
 11 12  1  0
 12 13  2  0
 13 14  1  0
 14 15  2  0
 14 16  1  0
 16 17  2  0
 17 18  1  0
 18 19  1  0
 19 20  1  0
 19 21  2  0
 21 22  1  0
 21 23  1  0
 23 24  1  0
 23 25  2  0
 25 26  1  0
 13 27  1  0
 27 28  1  0
 27 29  2  0
 29 30  1  0
 29 31  1  0
 31 32  1  0
 31 33  2  0
 33 34  1  0
 34 35  2  0
 34 36  1  0
 36  3  1  0
 36 10  2  0
 33 12  1  0
 25 17  1  0
M  CHG  4   5  -1  11  -1  18  -1  26  -1
M  END
>  <UniqueID>  (97) 
91

>  <SMILES>  (97) 
O=C(/N=c1\[n-]cccc1[O-])c1cccc2c(=O)c3c(O)c([O-])ccc3[n-]c12

>  <Energy>  (97) 
64.04112495672663

>  <Genealogy>  (97) 
O=C(N=c1[n-]cccc1[O-])c1cccc2c(=O)c3c(O)c([O-])ccc3[n-]c12 (protonated)
O=C(/N=c1\[n-]cccc1[O-])c1cccc2c(=O)c3c(O)c([O-])ccc3[n-]c12 (cis-trans isomerization)
O=C(/N=c1\[n-]cccc1[O-])c1cccc2c(=O)c3c(O)c([O-])ccc3[n-]c12 (3D coordinates assigned)
O=C(/N=c1\[n-]cccc1[O-])c1cccc2c(=O)c3c(O)c([O-])ccc3[n-]c12 (optimized conformer: 64.04112495672663 kcal/mol)

>  <smiles>  (97) 
O=C(N=c1[nH]cccc1O)c1cccc2c(=O)c3c(O)c(O)ccc3[nH]c12

>  <score_type>  (97) 
oracle

>  <origin>  (97) 
adg

>  <m_score__min__energy>  (97) 
-15.300000000000001

>  <m_primary>  (97) 
energy

$$$$
