0:0
     RDKit          3D

 55 57  0  0  0  0  0  0  0  0999 V2000
   59.2960   21.8490   44.1590 C   0  0  0  0  0  0  0  0  0  0  0  0
   58.0150   22.5950   44.3860 C   0  0  0  0  0  0  0  0  0  0  0  0
   56.9710   22.5030   43.4530 C   0  0  0  0  0  0  0  0  0  0  0  0
   55.7990   23.2430   43.6340 C   0  0  0  0  0  0  0  0  0  0  0  0
   55.6670   24.0910   44.7370 C   0  0  0  0  0  0  0  0  0  0  0  0
   56.7100   24.2040   45.6700 C   0  0  0  0  0  0  0  0  0  0  0  0
   56.6080   25.1760   46.8160 C   0  0  0  0  0  0  0  0  0  0  0  0
   56.0430   26.4370   46.3480 N   0  0  0  0  0  0  0  0  0  0  0  0
   56.8270   27.4610   45.7300 C   0  0  0  0  0  0  0  0  0  0  0  0
   58.0640   27.5390   45.9650 O   0  0  0  0  0  0  0  0  0  0  0  0
   56.1830   28.4370   44.9030 N   0  0  0  0  0  0  0  0  0  0  0  0
   56.7800   29.7170   44.6690 C   0  0  0  0  0  0  0  0  0  0  0  0
   56.7870   30.2790   43.3930 C   0  0  0  0  0  0  0  0  0  0  0  0
   57.4300   31.5030   43.1510 C   0  0  0  0  0  0  0  0  0  0  0  0
   57.3630   32.0770   41.7580 C   0  0  0  0  0  0  0  0  0  0  0  0
   58.1470   32.1450   44.2020 C   0  0  0  0  0  0  0  0  0  0  0  0
   58.8790   33.4440   43.9450 C   0  0  0  0  0  0  0  0  0  0  0  0
   58.1220   31.5680   45.5050 C   0  0  0  0  0  0  0  0  0  0  0  0
   59.0040   32.2190   46.9090 S   0  0  0  0  0  0  0  0  0  0  0  0
   58.1860   31.9380   48.1390 O   0  0  0  0  0  0  0  0  0  0  0  0
   59.1570   33.7100   46.8220 O   0  0  0  0  0  0  0  0  0  0  0  0
   60.5870   31.4860   47.1150 N   0  0  0  0  0  0  0  0  0  0  0  0
   60.7000   30.1620   46.4800 C   0  0  0  0  0  0  0  0  0  0  0  0
   60.1340   29.0200   47.3580 C   0  0  0  0  0  0  0  0  0  0  0  0
   59.7640   29.4470   48.6530 O   0  0  0  0  0  0  0  0  0  0  0  0
   60.8240   30.1620   49.2420 C   0  0  0  0  0  0  0  0  0  0  0  0
   61.0600   31.4990   48.5150 C   0  0  0  0  0  0  0  0  0  0  0  0
   57.4000   30.3850   45.7190 C   0  0  0  0  0  0  0  0  0  0  0  0
   57.8850   23.4580   45.4850 C   0  0  0  0  0  0  0  0  0  0  0  0
   59.7449   21.5876   45.1286 H   0  0  0  0  0  0  0  0  0  0  0  0
   59.0894   20.9300   43.5909 H   0  0  0  0  0  0  0  0  0  0  0  0
   59.9934   22.4822   43.5909 H   0  0  0  0  0  0  0  0  0  0  0  0
   57.0752   21.8466   42.5765 H   0  0  0  0  0  0  0  0  0  0  0  0
   54.9785   23.1577   42.9064 H   0  0  0  0  0  0  0  0  0  0  0  0
   54.7430   24.6718   44.8746 H   0  0  0  0  0  0  0  0  0  0  0  0
   55.9588   24.7528   47.5967 H   0  0  0  0  0  0  0  0  0  0  0  0
   57.6120   25.3589   47.2265 H   0  0  0  0  0  0  0  0  0  0  0  0
   55.1510   28.3460   44.7710 H   0  0  0  0  0  0  0  0  0  0  0  0
   56.2827   29.7571   42.5664 H   0  0  0  0  0  0  0  0  0  0  0  0
   57.2356   33.1680   41.8167 H   0  0  0  0  0  0  0  0  0  0  0  0
   58.2943   31.8450   41.2206 H   0  0  0  0  0  0  0  0  0  0  0  0
   56.5102   31.6367   41.2206 H   0  0  0  0  0  0  0  0  0  0  0  0
   59.1429   33.9123   44.9047 H   0  0  0  0  0  0  0  0  0  0  0  0
   59.7956   33.2411   43.3717 H   0  0  0  0  0  0  0  0  0  0  0  0
   58.2307   34.1230   43.3717 H   0  0  0  0  0  0  0  0  0  0  0  0
   60.1465   30.1807   45.5296 H   0  0  0  0  0  0  0  0  0  0  0  0
   61.7706   29.9603   46.3278 H   0  0  0  0  0  0  0  0  0  0  0  0
   59.2462   28.6029   46.8601 H   0  0  0  0  0  0  0  0  0  0  0  0
   60.9310   28.2710   47.4752 H   0  0  0  0  0  0  0  0  0  0  0  0
   60.5801   30.3637   50.2955 H   0  0  0  0  0  0  0  0  0  0  0  0
   61.7392   29.5564   49.1671 H   0  0  0  0  0  0  0  0  0  0  0  0
   60.5258   32.2925   49.0582 H   0  0  0  0  0  0  0  0  0  0  0  0
   62.1456   31.6752   48.4941 H   0  0  0  0  0  0  0  0  0  0  0  0
   57.3226   29.9775   46.7378 H   0  0  0  0  0  0  0  0  0  0  0  0
   58.7098   23.5507   46.2069 H   0  0  0  0  0  0  0  0  0  0  0  0
  1  2  1  0
  2  3  2  0
  3  4  1  0
  4  5  2  0
  5  6  1  0
  6  7  1  0
  7  8  1  0
  8  9  1  0
  9 10  2  0
  9 11  1  0
 11 12  1  0
 12 13  2  0
 13 14  1  0
 14 15  1  0
 14 16  2  0
 16 17  1  0
 16 18  1  0
 18 19  1  0
 19 20  2  0
 19 21  2  0
 19 22  1  0
 22 23  1  0
 23 24  1  0
 24 25  1  0
 25 26  1  0
 26 27  1  0
 18 28  2  0
  6 29  2  0
 29  2  1  0
 28 12  1  0
 27 22  1  0
  1 30  1  0
  1 31  1  0
  1 32  1  0
  3 33  1  0
  4 34  1  0
  5 35  1  0
  7 36  1  0
  7 37  1  0
 11 38  1  0
 13 39  1  0
 15 40  1  0
 15 41  1  0
 15 42  1  0
 17 43  1  0
 17 44  1  0
 17 45  1  0
 23 46  1  0
 23 47  1  0
 24 48  1  0
 24 49  1  0
 26 50  1  0
 26 51  1  0
 27 52  1  0
 27 53  1  0
 28 54  1  0
 29 55  1  0
M  CHG  1   8  -1
M  END
>  <UniqueID>  (1) 
1

>  <SMILES>  (1) 
Cc1cccc(C[N-]C(=O)Nc2cc(C)c(C)c(S(=O)(=O)N3CCOCC3)c2)c1

>  <Energy>  (1) 
71.90319284733802

>  <Genealogy>  (1) 
Cc1cccc(C[N-]C(=O)Nc2cc(C)c(C)c(S(=O)(=O)N3CCOCC3)c2)c1 (protonated)
Cc1cccc(C[N-]C(=O)Nc2cc(C)c(C)c(S(=O)(=O)N3CCOCC3)c2)c1 (3D coordinates assigned)
Cc1cccc(C[N-]C(=O)Nc2cc(C)c(C)c(S(=O)(=O)N3CCOCC3)c2)c1 (nonaromatic ring conformer: 71.90319284733802 kcal/mol)

>  <smiles>  (1) 
Cc1cccc(CNC(=O)Nc2cc(C)c(C)c(S(=O)(=O)N3CCOCC3)c2)c1

>  <score_type>  (1) 
oracle

>  <origin>  (1) 
adg

>  <m_score__min__energy>  (1) 
-10.93

>  <m_primary>  (1) 
energy

$$$$
1:0
     RDKit          3D

 52 54  0  0  0  0  0  0  0  0999 V2000
   56.1310   30.8770   52.1580 C   0  0  0  0  0  0  0  0  0  0  0  0
   57.0170   30.0940   51.3650 O   0  0  0  0  0  0  0  0  0  0  0  0
   58.2340   30.5590   50.8460 C   0  0  0  0  0  0  0  0  0  0  0  0
   58.2970   31.8770   50.3780 C   0  0  0  0  0  0  0  0  0  0  0  0
   59.4870   32.3880   49.8510 C   0  0  0  0  0  0  0  0  0  0  0  0
   60.6350   31.5840   49.7850 C   0  0  0  0  0  0  0  0  0  0  0  0
   61.9160   32.1190   49.2040 C   0  0  0  0  0  0  0  0  0  0  0  0
   62.1640   31.5440   47.9220 O   0  0  0  0  0  0  0  0  0  0  0  0
   61.1470   31.1110   47.0640 C   0  0  0  0  0  0  0  0  0  0  0  0
   60.4980   31.9450   46.3740 O   0  0  0  0  0  0  0  0  0  0  0  0
   60.8250   29.7150   47.0160 N   0  0  0  0  0  0  0  0  0  0  0  0
   59.8670   29.1360   46.1150 C   0  0  0  0  0  0  0  0  0  0  0  0
   59.8670   27.7480   45.9100 C   0  0  0  0  0  0  0  0  0  0  0  0
   58.9440   27.1610   45.0420 C   0  0  0  0  0  0  0  0  0  0  0  0
   58.0220   27.9560   44.3570 C   0  0  0  0  0  0  0  0  0  0  0  0
   58.0320   29.3460   44.5220 C   0  0  0  0  0  0  0  0  0  0  0  0
   56.8650   30.3420   43.6570 S   0  0  0  0  0  0  0  0  0  0  0  0
   55.6400   30.4890   44.5180 O   0  0  0  0  0  0  0  0  0  0  0  0
   56.4700   29.6830   42.3650 O   0  0  0  0  0  0  0  0  0  0  0  0
   57.5580   31.9040   43.3260 N   0  0  0  0  0  0  0  0  0  0  0  0
   57.7380   32.3210   41.9350 C   0  0  0  0  0  0  0  0  0  0  0  0
   57.9340   32.7850   44.4020 C   0  0  0  0  0  0  0  0  0  0  0  0
   57.3260   32.6700   45.6650 C   0  0  0  0  0  0  0  0  0  0  0  0
   57.6870   33.5310   46.7070 C   0  0  0  0  0  0  0  0  0  0  0  0
   58.6520   34.5190   46.4960 C   0  0  0  0  0  0  0  0  0  0  0  0
   59.2560   34.6500   45.2420 C   0  0  0  0  0  0  0  0  0  0  0  0
   58.8980   33.7910   44.1990 C   0  0  0  0  0  0  0  0  0  0  0  0
   58.9580   29.9340   45.3960 C   0  0  0  0  0  0  0  0  0  0  0  0
   60.5760   30.2630   50.2530 C   0  0  0  0  0  0  0  0  0  0  0  0
   59.3860   29.7520   50.7790 C   0  0  0  0  0  0  0  0  0  0  0  0
   56.3357   30.6961   53.2236 H   0  0  0  0  0  0  0  0  0  0  0  0
   56.2812   31.9429   51.9316 H   0  0  0  0  0  0  0  0  0  0  0  0
   55.0916   30.5969   51.9316 H   0  0  0  0  0  0  0  0  0  0  0  0
   57.4028   32.5159   50.4253 H   0  0  0  0  0  0  0  0  0  0  0  0
   59.5234   33.4252   49.4864 H   0  0  0  0  0  0  0  0  0  0  0  0
   61.8380   33.2114   49.1014 H   0  0  0  0  0  0  0  0  0  0  0  0
   62.7467   31.8586   49.8764 H   0  0  0  0  0  0  0  0  0  0  0  0
   61.2310   29.1070   47.7630 H   0  0  0  0  0  0  0  0  0  0  0  0
   60.5990   27.1180   46.4366 H   0  0  0  0  0  0  0  0  0  0  0  0
   58.9429   26.0705   44.8974 H   0  0  0  0  0  0  0  0  0  0  0  0
   57.2862   27.4885   43.6862 H   0  0  0  0  0  0  0  0  0  0  0  0
   58.1738   33.3306   41.9084 H   0  0  0  0  0  0  0  0  0  0  0  0
   58.4124   31.6170   41.4255 H   0  0  0  0  0  0  0  0  0  0  0  0
   56.7631   32.3289   41.4255 H   0  0  0  0  0  0  0  0  0  0  0  0
   56.5613   31.8977   45.8347 H   0  0  0  0  0  0  0  0  0  0  0  0
   57.2106   33.4300   47.6933 H   0  0  0  0  0  0  0  0  0  0  0  0
   58.9366   35.1939   47.3167 H   0  0  0  0  0  0  0  0  0  0  0  0
   60.0138   35.4299   45.0759 H   0  0  0  0  0  0  0  0  0  0  0  0
   59.3726   33.9017   43.2129 H   0  0  0  0  0  0  0  0  0  0  0  0
   58.9738   31.0268   45.5203 H   0  0  0  0  0  0  0  0  0  0  0  0
   61.4713   29.6256   50.2058 H   0  0  0  0  0  0  0  0  0  0  0  0
   59.3493   28.7144   51.1424 H   0  0  0  0  0  0  0  0  0  0  0  0
  1  2  1  0
  2  3  1  0
  3  4  2  0
  4  5  1  0
  5  6  2  0
  6  7  1  0
  7  8  1  0
  8  9  1  0
  9 10  2  0
  9 11  1  0
 11 12  1  0
 12 13  2  0
 13 14  1  0
 14 15  2  0
 15 16  1  0
 16 17  1  0
 17 18  2  0
 17 19  2  0
 17 20  1  0
 20 21  1  0
 20 22  1  0
 22 23  2  0
 23 24  1  0
 24 25  2  0
 25 26  1  0
 26 27  2  0
 16 28  2  0
  6 29  1  0
 29 30  2  0
 30  3  1  0
 28 12  1  0
 27 22  1  0
  1 31  1  0
  1 32  1  0
  1 33  1  0
  4 34  1  0
  5 35  1  0
  7 36  1  0
  7 37  1  0
 11 38  1  0
 13 39  1  0
 14 40  1  0
 15 41  1  0
 21 42  1  0
 21 43  1  0
 21 44  1  0
 23 45  1  0
 24 46  1  0
 25 47  1  0
 26 48  1  0
 27 49  1  0
 28 50  1  0
 29 51  1  0
 30 52  1  0
M  END
>  <UniqueID>  (2) 
2

>  <SMILES>  (2) 
COc1ccc(COC(=O)Nc2cccc(S(=O)(=O)N(C)c3ccccc3)c2)cc1

>  <Energy>  (2) 
59.550971360817144

>  <Genealogy>  (2) 
COc1ccc(COC(=O)Nc2cccc(S(=O)(=O)N(C)c3ccccc3)c2)cc1 (3D coordinates assigned)
COc1ccc(COC(=O)Nc2cccc(S(=O)(=O)N(C)c3ccccc3)c2)cc1 (optimized conformer: 59.550971360817144 kcal/mol)

>  <smiles>  (2) 
COc1ccc(COC(=O)Nc2cccc(S(=O)(=O)N(C)c3ccccc3)c2)cc1

>  <score_type>  (2) 
oracle

>  <origin>  (2) 
adg

>  <m_score__min__energy>  (2) 
-9.1300000000000008

>  <m_primary>  (2) 
energy

$$$$
2:0
     RDKit          3D

 41 42  0  0  0  0  0  0  0  0999 V2000
   55.5150   29.9000   43.8090 C   0  0  0  0  0  0  0  0  0  0  0  0
   55.4620   28.9360   44.8540 O   0  0  0  0  0  0  0  0  0  0  0  0
   56.5820   28.2890   45.3990 C   0  0  0  0  0  0  0  0  0  0  0  0
   57.8610   28.8820   45.3980 C   0  0  0  0  0  0  0  0  0  0  0  0
   58.9630   28.2060   45.9440 C   0  0  0  0  0  0  0  0  0  0  0  0
   60.3180   28.8610   45.9730 C   0  0  0  0  0  0  0  0  0  0  0  0
   60.5560   29.5500   47.3200 C   0  0  0  0  0  0  0  0  0  0  0  0
   60.2190   31.0140   47.2330 C   0  0  0  0  0  0  0  0  0  0  0  0
   59.1510   31.4450   46.4360 C   0  0  0  0  0  0  0  0  0  0  0  0
   58.8570   32.8050   46.3260 C   0  0  0  0  0  0  0  0  0  0  0  0
   59.6350   33.7600   47.0090 C   0  0  0  0  0  0  0  0  0  0  0  0
   59.3690   35.1360   46.9240 O   0  0  0  0  0  0  0  0  0  0  0  0
   59.9890   36.0220   45.9970 C   0  0  0  0  0  0  0  0  0  0  0  0
   60.7160   33.3370   47.7980 C   0  0  0  0  0  0  0  0  0  0  0  0
   61.4800   34.3120   48.4600 O   0  0  0  0  0  0  0  0  0  0  0  0
   62.7390   34.0690   49.0790 C   0  0  0  0  0  0  0  0  0  0  0  0
   61.0070   31.9620   47.9030 C   0  0  0  0  0  0  0  0  0  0  0  0
   58.7800   26.9400   46.5160 C   0  0  0  0  0  0  0  0  0  0  0  0
   57.5180   26.3450   46.5200 C   0  0  0  0  0  0  0  0  0  0  0  0
   56.4200   27.0100   45.9650 C   0  0  0  0  0  0  0  0  0  0  0  0
   55.1740   26.3840   45.9860 O   0  0  0  0  0  0  0  0  0  0  0  0
   55.5705   30.9090   44.2434 H   0  0  0  0  0  0  0  0  0  0  0  0
   56.4045   29.7188   43.1878 H   0  0  0  0  0  0  0  0  0  0  0  0
   54.6110   29.8174   43.1878 H   0  0  0  0  0  0  0  0  0  0  0  0
   57.9965   29.8841   44.9651 H   0  0  0  0  0  0  0  0  0  0  0  0
   61.0926   28.0958   45.8167 H   0  0  0  0  0  0  0  0  0  0  0  0
   60.3630   29.6172   45.1754 H   0  0  0  0  0  0  0  0  0  0  0  0
   59.9216   29.0778   48.0846 H   0  0  0  0  0  0  0  0  0  0  0  0
   61.6175   29.4459   47.5889 H   0  0  0  0  0  0  0  0  0  0  0  0
   58.5406   30.7078   45.8938 H   0  0  0  0  0  0  0  0  0  0  0  0
   58.0125   33.1330   45.7021 H   0  0  0  0  0  0  0  0  0  0  0  0
   60.5356   36.8031   46.5457 H   0  0  0  0  0  0  0  0  0  0  0  0
   60.6910   35.4586   45.3647 H   0  0  0  0  0  0  0  0  0  0  0  0
   59.2192   36.4885   45.3647 H   0  0  0  0  0  0  0  0  0  0  0  0
   62.6205   34.0919   50.1724 H   0  0  0  0  0  0  0  0  0  0  0  0
   63.1144   33.0818   48.7714 H   0  0  0  0  0  0  0  0  0  0  0  0
   63.4548   34.8456   48.7714 H   0  0  0  0  0  0  0  0  0  0  0  0
   61.8585   31.6295   48.5149 H   0  0  0  0  0  0  0  0  0  0  0  0
   59.6352   26.4128   46.9639 H   0  0  0  0  0  0  0  0  0  0  0  0
   57.3858   25.3466   46.9625 H   0  0  0  0  0  0  0  0  0  0  0  0
   54.3900   26.7240   45.4400 H   0  0  0  0  0  0  0  0  0  0  0  0
  1  2  1  0
  2  3  1  0
  3  4  2  0
  4  5  1  0
  5  6  1  0
  6  7  1  0
  7  8  1  0
  8  9  2  0
  9 10  1  0
 10 11  2  0
 11 12  1  0
 12 13  1  0
 11 14  1  0
 14 15  1  0
 15 16  1  0
 14 17  2  0
  5 18  2  0
 18 19  1  0
 19 20  2  0
 20 21  1  0
 20  3  1  0
 17  8  1  0
  1 22  1  0
  1 23  1  0
  1 24  1  0
  4 25  1  0
  6 26  1  0
  6 27  1  0
  7 28  1  0
  7 29  1  0
  9 30  1  0
 10 31  1  0
 13 32  1  0
 13 33  1  0
 13 34  1  0
 16 35  1  0
 16 36  1  0
 16 37  1  0
 17 38  1  0
 18 39  1  0
 19 40  1  0
 21 41  1  0
M  END
>  <UniqueID>  (3) 
3

>  <SMILES>  (3) 
COc1cc(CCc2ccc(OC)c(OC)c2)ccc1O

>  <Energy>  (3) 
36.064748848899804

>  <Genealogy>  (3) 
COc1cc(CCc2ccc(OC)c(OC)c2)ccc1O (3D coordinates assigned)
COc1cc(CCc2ccc(OC)c(OC)c2)ccc1O (optimized conformer: 36.064748848899804 kcal/mol)

>  <smiles>  (3) 
COc1cc(CCc2ccc(OC)c(OC)c2)ccc1O

>  <score_type>  (3) 
oracle

>  <origin>  (3) 
adg

>  <m_score__min__energy>  (3) 
-6.96

>  <m_primary>  (3) 
energy

$$$$
3:0
     RDKit          3D

 41 43  0  0  0  0  0  0  0  0999 V2000
   58.9251   35.4719   45.9717 H   0  0  0  0  0  0  0  0  0  0  0  0
   59.1330   34.4620   46.3550 C   0  0  0  0  0  0  0  0  0  0  0  0
   58.3000   33.4670   46.0110 C   0  0  0  0  0  0  0  0  0  0  0  0
   57.1850   33.5530   45.0890 C   0  0  0  0  0  0  0  0  0  0  0  0
   56.7540   34.5900   44.5170 O   0  0  0  0  0  0  0  0  0  0  0  0
   56.6810   32.2820   44.9020 O   0  0  0  0  0  0  0  0  0  0  0  0
   57.3860   31.3910   45.6810 N   0  0  0  0  0  0  0  0  0  0  0  0
   58.3120   32.0240   46.3380 C   0  0  0  0  0  0  0  0  0  0  0  0
   59.1430   31.3530   47.3520 C   0  0  0  0  0  0  0  0  0  0  0  0
   58.8090   31.4390   48.7120 C   0  0  0  0  0  0  0  0  0  0  0  0
   57.8779   31.9392   49.0167 H   0  0  0  0  0  0  0  0  0  0  0  0
   59.6540   30.8920   49.6810 C   0  0  0  0  0  0  0  0  0  0  0  0
   59.3977   30.9851   50.7467 H   0  0  0  0  0  0  0  0  0  0  0  0
   60.8270   30.2250   49.3010 C   0  0  0  0  0  0  0  0  0  0  0  0
   61.7760   29.7170   50.3450 C   0  0  0  0  0  0  0  0  0  0  0  0
   61.3715   29.9335   51.3447 H   0  0  0  0  0  0  0  0  0  0  0  0
   61.9025   28.6306   50.2281 H   0  0  0  0  0  0  0  0  0  0  0  0
   62.7502   30.2142   50.2281 H   0  0  0  0  0  0  0  0  0  0  0  0
   61.1450   30.1120   47.9380 C   0  0  0  0  0  0  0  0  0  0  0  0
   62.0638   29.5903   47.6319 H   0  0  0  0  0  0  0  0  0  0  0  0
   60.3000   30.6590   46.9680 C   0  0  0  0  0  0  0  0  0  0  0  0
   60.5429   30.5450   45.9012 H   0  0  0  0  0  0  0  0  0  0  0  0
   60.3110   34.2720   47.2190 C   0  0  0  0  0  0  0  0  0  0  0  0
   60.2070   34.4920   48.5970 C   0  0  0  0  0  0  0  0  0  0  0  0
   59.2723   34.8889   49.0198 H   0  0  0  0  0  0  0  0  0  0  0  0
   61.2870   34.2090   49.4380 C   0  0  0  0  0  0  0  0  0  0  0  0
   61.1883   34.3687   50.5219 H   0  0  0  0  0  0  0  0  0  0  0  0
   62.5020   33.7210   48.9130 C   0  0  0  0  0  0  0  0  0  0  0  0
   63.5970   33.3610   49.7900 N   0  0  0  0  0  0  0  0  0  0  0  0
   64.5700   32.3410   49.3810 C   0  0  0  0  0  0  0  0  0  0  0  0
   65.0125   31.8771   50.2748 H   0  0  0  0  0  0  0  0  0  0  0  0
   64.0634   31.5708   48.7808 H   0  0  0  0  0  0  0  0  0  0  0  0
   65.3632   32.8107   48.7808 H   0  0  0  0  0  0  0  0  0  0  0  0
   63.7850   34.0510   51.0710 C   0  0  0  0  0  0  0  0  0  0  0  0
   63.5939   33.3498   51.8967 H   0  0  0  0  0  0  0  0  0  0  0  0
   64.8176   34.4242   51.1384 H   0  0  0  0  0  0  0  0  0  0  0  0
   63.0845   34.8964   51.1384 H   0  0  0  0  0  0  0  0  0  0  0  0
   62.6170   33.5740   47.5160 C   0  0  0  0  0  0  0  0  0  0  0  0
   63.5685   33.2347   47.0807 H   0  0  0  0  0  0  0  0  0  0  0  0
   61.5340   33.8550   46.6780 C   0  0  0  0  0  0  0  0  0  0  0  0
   61.6427   33.7482   45.5886 H   0  0  0  0  0  0  0  0  0  0  0  0
  1  2  1  0
  2  3  2  0
  3  4  1  0
  4  5  2  0
  4  6  1  0
  6  7  1  0
  7  8  2  0
  8  9  1  0
  9 10  2  0
 10 11  1  0
 10 12  1  0
 12 13  1  0
 12 14  2  0
 14 15  1  0
 15 16  1  0
 15 17  1  0
 15 18  1  0
 14 19  1  0
 19 20  1  0
 19 21  2  0
 21 22  1  0
  2 23  1  0
 23 24  2  0
 24 25  1  0
 24 26  1  0
 26 27  1  0
 26 28  2  0
 28 29  1  0
 29 30  1  0
 30 31  1  0
 30 32  1  0
 30 33  1  0
 29 34  1  0
 34 35  1  0
 34 36  1  0
 34 37  1  0
 28 38  1  0
 38 39  1  0
 38 40  2  0
 40 41  1  0
  8  3  1  0
 21  9  1  0
 40 23  1  0
M  END
>  <UniqueID>  (4) 
4

>  <SMILES>  (4) 
Cc1ccc(C2=NOC(=O)/C2=C/c2ccc(N(C)C)cc2)cc1

>  <Energy>  (4) 
83.77458933280992

>  <Genealogy>  (4) 
Cc1ccc(C2=NOC(=O)/C2=C/c2ccc(N(C)C)cc2)cc1 (cis-trans isomerization)
Cc1ccc(C2=NOC(=O)/C2=C/c2ccc(N(C)C)cc2)cc1 (3D coordinates assigned)
Cc1ccc(C2=NOC(=O)/C2=C/c2ccc(N(C)C)cc2)cc1 (nonaromatic ring conformer: 83.77458933280992 kcal/mol)

>  <smiles>  (4) 
Cc1ccc(C2=NOC(=O)C2=Cc2ccc(N(C)C)cc2)cc1

>  <score_type>  (4) 
oracle

>  <origin>  (4) 
adg

>  <m_score__min__energy>  (4) 
-7.6100000000000003

>  <m_primary>  (4) 
energy

$$$$
4:0
     RDKit          3D

 29 30  0  0  0  0  0  0  0  0999 V2000
   56.2800   29.3670   42.6870 N   0  0  0  0  0  0  0  0  0  0  0  0
   56.7700   30.5810   43.2560 C   0  0  0  0  0  0  0  0  0  0  0  0
   57.4240   31.5260   42.4550 C   0  0  0  0  0  0  0  0  0  0  0  0
   57.8940   32.7060   43.0350 C   0  0  0  0  0  0  0  0  0  0  0  0
   57.7180   32.9320   44.4080 C   0  0  0  0  0  0  0  0  0  0  0  0
   58.1860   34.2190   45.0380 C   0  0  0  0  0  0  0  0  0  0  0  0
   59.6450   34.3420   44.9330 N   0  0  0  0  0  0  0  0  0  0  0  0
   60.2450   34.2430   46.2410 C   0  0  0  0  0  0  0  0  0  0  0  0
   61.5850   33.8410   46.3810 C   0  0  0  0  0  0  0  0  0  0  0  0
   62.1560   33.7160   47.6510 C   0  0  0  0  0  0  0  0  0  0  0  0
   61.3940   33.9830   48.7930 C   0  0  0  0  0  0  0  0  0  0  0  0
   62.1130   33.8240   50.3850 Cl  0  0  0  0  0  0  0  0  0  0  0  0
   60.0560   34.3710   48.6640 C   0  0  0  0  0  0  0  0  0  0  0  0
   59.4820   34.4970   47.3950 C   0  0  0  0  0  0  0  0  0  0  0  0
   57.0440   31.9670   45.1690 C   0  0  0  0  0  0  0  0  0  0  0  0
   56.5940   30.8250   44.5830 N   0  0  0  0  0  0  0  0  0  0  0  0
   56.5600   28.4390   43.0760 H   0  0  0  0  0  0  0  0  0  0  0  0
   55.6300   29.3940   41.8700 H   0  0  0  0  0  0  0  0  0  0  0  0
   57.5658   31.3404   41.3801 H   0  0  0  0  0  0  0  0  0  0  0  0
   58.4026   33.4588   42.4148 H   0  0  0  0  0  0  0  0  0  0  0  0
   57.7131   35.0676   44.5219 H   0  0  0  0  0  0  0  0  0  0  0  0
   57.9047   34.2174   46.1014 H   0  0  0  0  0  0  0  0  0  0  0  0
   59.8930   35.2640   44.5010 H   0  0  0  0  0  0  0  0  0  0  0  0
   60.0210   33.5850   44.3150 H   0  0  0  0  0  0  0  0  0  0  0  0
   62.1873   33.6237   45.4866 H   0  0  0  0  0  0  0  0  0  0  0  0
   63.2068   33.4070   47.7523 H   0  0  0  0  0  0  0  0  0  0  0  0
   59.4548   34.5772   49.5618 H   0  0  0  0  0  0  0  0  0  0  0  0
   58.4279   34.7964   47.2988 H   0  0  0  0  0  0  0  0  0  0  0  0
   56.8784   32.1338   46.2436 H   0  0  0  0  0  0  0  0  0  0  0  0
  1  2  1  0
  2  3  2  0
  3  4  1  0
  4  5  2  0
  5  6  1  0
  6  7  1  0
  7  8  1  0
  8  9  2  0
  9 10  1  0
 10 11  2  0
 11 12  1  0
 11 13  1  0
 13 14  2  0
  5 15  1  0
 15 16  2  0
 16  2  1  0
 14  8  1  0
  1 17  1  0
  1 18  1  0
  3 19  1  0
  4 20  1  0
  6 21  1  0
  6 22  1  0
  7 23  1  0
  7 24  1  0
  9 25  1  0
 10 26  1  0
 13 27  1  0
 14 28  1  0
 15 29  1  0
M  CHG  1   7   1
M  END
>  <UniqueID>  (5) 
5

>  <SMILES>  (5) 
Nc1ccc(C[NH2+]c2ccc(Cl)cc2)cn1

>  <Energy>  (5) 
28.877753822034855

>  <Genealogy>  (5) 
Nc1ccc(C[NH2+]c2ccc(Cl)cc2)cn1 (protonated)
Nc1ccc(C[NH2+]c2ccc(Cl)cc2)cn1 (3D coordinates assigned)
Nc1ccc(C[NH2+]c2ccc(Cl)cc2)cn1 (optimized conformer: 28.877753822034855 kcal/mol)

>  <smiles>  (5) 
Nc1ccc(CNc2ccc(Cl)cc2)cn1

>  <score_type>  (5) 
oracle

>  <origin>  (5) 
adg

>  <m_score__min__energy>  (5) 
-5.3300000000000001

>  <m_primary>  (5) 
energy

$$$$
5:0
     RDKit          3D

 59 62  0  0  0  0  0  0  0  0999 V2000
   61.0470   33.4730   46.3550 C   0  0  0  0  0  0  0  0  0  0  0  0
   59.5820   33.6070   46.0810 C   0  0  0  0  0  0  0  0  0  0  0  0
   59.1240   34.2530   44.9740 N   0  0  0  0  0  0  0  0  0  0  0  0
   57.7750   34.2650   44.9070 C   0  0  0  0  0  0  0  0  0  0  0  0
   57.0960   33.4680   46.2210 S   0  0  0  0  0  0  0  0  0  0  0  0
   58.5830   33.1090   46.9240 C   0  0  0  0  0  0  0  0  0  0  0  0
   58.7890   32.2940   48.1780 C   0  0  2  0  0  0  0  0  0  0  0  0
   59.5480   33.1210   49.1920 C   0  0  0  0  0  0  0  0  0  0  0  0
   58.9180   33.8440   50.0130 O   0  0  0  0  0  0  0  0  0  0  0  0
   60.9820   33.1050   49.2000 N   0  0  0  0  0  0  0  0  0  0  0  0
   61.7660   33.7330   50.2630 C   0  0  0  0  0  0  0  0  0  0  0  0
   63.1850   34.0730   49.7750 C   0  0  1  0  0  0  0  0  0  0  0  0
   64.2290   33.0940   50.3110 C   0  0  0  0  0  0  0  0  0  0  0  0
   64.5140   32.2110   49.1380 C   0  0  0  0  0  0  0  0  0  0  0  0
   64.1480   33.0820   47.9590 C   0  0  0  0  0  0  0  0  0  0  0  0
   63.2010   34.0420   48.3640 O   0  0  0  0  0  0  0  0  0  0  0  0
   59.4450   31.0000   47.8710 N   0  0  0  0  0  0  0  0  0  0  0  0
   60.3450   30.3770   48.8220 C   0  0  0  0  0  0  0  0  0  0  0  0
   61.5920   30.5240   48.6850 O   0  0  0  0  0  0  0  0  0  0  0  0
   59.8260   29.5650   49.9800 C   0  0  0  0  0  0  0  0  0  0  0  0
   58.3930   29.7670   50.1630 N   0  0  0  0  0  0  0  0  0  0  0  0
   57.7720   30.3400   51.3220 C   0  0  0  0  0  0  0  0  0  0  0  0
   56.8340   29.7090   51.8730 O   0  0  0  0  0  0  0  0  0  0  0  0
   58.2220   31.6080   51.9320 C   0  0  0  0  0  0  0  0  0  0  0  0
   57.4420   32.7080   52.2780 C   0  0  0  0  0  0  0  0  0  0  0  0
   58.1700   33.7340   52.8940 C   0  0  0  0  0  0  0  0  0  0  0  0
   59.5190   33.4470   53.0520 C   0  0  0  0  0  0  0  0  0  0  0  0
   59.8010   31.9120   52.4300 S   0  0  0  0  0  0  0  0  0  0  0  0
   59.1850   30.3080   46.6350 C   0  0  0  0  0  0  0  0  0  0  0  0
   60.2140   29.6120   45.9830 C   0  0  0  0  0  0  0  0  0  0  0  0
   59.9580   28.9440   44.7810 C   0  0  0  0  0  0  0  0  0  0  0  0
   58.6770   28.9730   44.2210 C   0  0  0  0  0  0  0  0  0  0  0  0
   57.6490   29.6780   44.8590 C   0  0  0  0  0  0  0  0  0  0  0  0
   56.0430   29.7180   44.1550 Cl  0  0  0  0  0  0  0  0  0  0  0  0
   57.9040   30.3500   46.0590 C   0  0  0  0  0  0  0  0  0  0  0  0
   61.2169   33.4575   47.4417 H   0  0  0  0  0  0  0  0  0  0  0  0
   61.4187   32.5371   45.9124 H   0  0  0  0  0  0  0  0  0  0  0  0
   61.5823   34.3259   45.9124 H   0  0  0  0  0  0  0  0  0  0  0  0
   57.1966   34.7351   44.0980 H   0  0  0  0  0  0  0  0  0  0  0  0
   57.8156   32.0361   48.6207 H   0  0  0  0  0  0  0  0  0  0  0  0
   61.4920   32.6560   48.4070 H   0  0  0  0  0  0  0  0  0  0  0  0
   61.2638   34.6584   50.5814 H   0  0  0  0  0  0  0  0  0  0  0  0
   61.8443   33.0279   51.1036 H   0  0  0  0  0  0  0  0  0  0  0  0
   63.4431   35.0740   50.1509 H   0  0  0  0  0  0  0  0  0  0  0  0
   65.1369   33.6248   50.6334 H   0  0  0  0  0  0  0  0  0  0  0  0
   63.8805   32.5361   51.1927 H   0  0  0  0  0  0  0  0  0  0  0  0
   65.5764   31.9278   49.1054 H   0  0  0  0  0  0  0  0  0  0  0  0
   63.9579   31.2623   49.1648 H   0  0  0  0  0  0  0  0  0  0  0  0
   65.0488   33.5902   47.5843 H   0  0  0  0  0  0  0  0  0  0  0  0
   63.7210   32.4586   47.1596 H   0  0  0  0  0  0  0  0  0  0  0  0
   60.0166   28.4993   49.7854 H   0  0  0  0  0  0  0  0  0  0  0  0
   60.3441   29.8899   50.8944 H   0  0  0  0  0  0  0  0  0  0  0  0
   56.3603   32.7658   52.0865 H   0  0  0  0  0  0  0  0  0  0  0  0
   57.7147   34.6800   53.2223 H   0  0  0  0  0  0  0  0  0  0  0  0
   60.2717   34.1089   53.5052 H   0  0  0  0  0  0  0  0  0  0  0  0
   61.2242   29.5916   46.4179 H   0  0  0  0  0  0  0  0  0  0  0  0
   60.7659   28.3948   44.2753 H   0  0  0  0  0  0  0  0  0  0  0  0
   58.4768   28.4417   43.2788 H   0  0  0  0  0  0  0  0  0  0  0  0
   57.0989   30.9133   46.5535 H   0  0  0  0  0  0  0  0  0  0  0  0
  1  2  1  0
  2  3  1  0
  3  4  2  0
  4  5  1  0
  5  6  1  0
  6  7  1  0
  7  8  1  0
  8  9  2  0
  8 10  1  0
 10 11  1  0
 11 12  1  0
 12 13  1  0
 13 14  1  0
 14 15  1  0
 15 16  1  0
  7 17  1  0
 17 18  1  0
 18 19  2  0
 18 20  1  0
 20 21  1  0
 21 22  1  0
 22 23  2  0
 22 24  1  0
 24 25  2  0
 25 26  1  0
 26 27  2  0
 27 28  1  0
 17 29  1  0
 29 30  2  0
 30 31  1  0
 31 32  2  0
 32 33  1  0
 33 34  1  0
 33 35  2  0
  6  2  2  0
 16 12  1  0
 28 24  1  0
 35 29  1  0
  1 36  1  0
  1 37  1  0
  1 38  1  0
  4 39  1  0
  7 40  1  1
 10 41  1  0
 11 42  1  0
 11 43  1  0
 12 44  1  6
 13 45  1  0
 13 46  1  0
 14 47  1  0
 14 48  1  0
 15 49  1  0
 15 50  1  0
 20 51  1  0
 20 52  1  0
 25 53  1  0
 26 54  1  0
 27 55  1  0
 30 56  1  0
 31 57  1  0
 32 58  1  0
 35 59  1  0
M  CHG  1  21  -1
M  END
>  <UniqueID>  (6) 
6

>  <SMILES>  (6) 
Cc1ncsc1[C@H](C(=O)NC[C@H]1CCCO1)N(C(=O)C[N-]C(=O)c1cccs1)c1cccc(Cl)c1

>  <Energy>  (6) 
120.32062634473607

>  <Genealogy>  (6) 
Cc1ncsc1C(C(=O)NCC1CCCO1)N(C(=O)C[N-]C(=O)c1cccs1)c1cccc(Cl)c1 (protonated)
Cc1ncsc1[C@H](C(=O)NC[C@H]1CCCO1)N(C(=O)C[N-]C(=O)c1cccs1)c1cccc(Cl)c1 (chirality)
Cc1ncsc1[C@H](C(=O)NC[C@H]1CCCO1)N(C(=O)C[N-]C(=O)c1cccs1)c1cccc(Cl)c1 (3D coordinates assigned)
Cc1ncsc1[C@H](C(=O)NC[C@H]1CCCO1)N(C(=O)C[N-]C(=O)c1cccs1)c1cccc(Cl)c1 (nonaromatic ring conformer: 120.32062634473607 kcal/mol)

>  <smiles>  (6) 
Cc1ncsc1C(C(=O)NCC1CCCO1)N(C(=O)CNC(=O)c1cccs1)c1cccc(Cl)c1

>  <score_type>  (6) 
oracle

>  <origin>  (6) 
adg

>  <m_score__min__energy>  (6) 
-10.9

>  <m_primary>  (6) 
energy

$$$$
6:0
     RDKit          3D

 53 55  0  0  0  0  0  0  0  0999 V2000
   55.1460   29.3830   44.8480 O   0  0  0  0  0  0  0  0  0  0  0  0
   56.4040   29.3430   44.8000 C   0  0  0  0  0  0  0  0  0  0  0  0
   57.1070   29.6670   43.5190 C   0  0  0  0  0  0  0  0  0  0  0  0
   57.2320   31.1140   43.3610 N   0  0  0  0  0  0  0  0  0  0  0  0
   58.0460   31.9220   44.2230 C   0  0  0  0  0  0  0  0  0  0  0  0
   58.8950   31.3880   44.9850 O   0  0  0  0  0  0  0  0  0  0  0  0
   57.9280   33.4170   44.1660 C   0  0  0  0  0  0  0  0  0  0  0  0
   58.7990   34.0450   45.1060 O   0  0  0  0  0  0  0  0  0  0  0  0
   58.5360   34.1100   46.4790 C   0  0  0  0  0  0  0  0  0  0  0  0
   57.5930   33.4460   46.9890 O   0  0  0  0  0  0  0  0  0  0  0  0
   59.4120   34.9510   47.3520 C   0  0  0  0  0  0  0  0  0  0  0  0
   60.6650   34.2030   47.7210 C   0  0  0  0  0  0  0  0  0  0  0  0
   61.3610   33.4670   46.7480 C   0  0  0  0  0  0  0  0  0  0  0  0
   62.5190   32.7620   47.0920 C   0  0  0  0  0  0  0  0  0  0  0  0
   62.9910   32.7890   48.4070 C   0  0  0  0  0  0  0  0  0  0  0  0
   62.3040   33.5200   49.3810 C   0  0  0  0  0  0  0  0  0  0  0  0
   61.1430   34.2220   49.0430 C   0  0  0  0  0  0  0  0  0  0  0  0
   57.1610   28.9620   45.9570 N   0  0  0  0  0  0  0  0  0  0  0  0
   57.9660   27.7800   46.0540 C   0  0  0  0  0  0  0  0  0  0  0  0
   57.3270   26.5370   45.9530 C   0  0  0  0  0  0  0  0  0  0  0  0
   58.0680   25.3550   45.9860 C   0  0  0  0  0  0  0  0  0  0  0  0
   59.4550   25.4020   46.1330 C   0  0  0  0  0  0  0  0  0  0  0  0
   60.1030   26.6330   46.2720 C   0  0  0  0  0  0  0  0  0  0  0  0
   59.3690   27.8310   46.2640 C   0  0  0  0  0  0  0  0  0  0  0  0
   60.0890   29.1020   46.5190 C   0  0  0  0  0  0  0  0  0  0  0  0
   60.8810   29.5340   45.6370 O   0  0  0  0  0  0  0  0  0  0  0  0
   59.9270   29.8630   47.7840 C   0  0  0  0  0  0  0  0  0  0  0  0
   58.9610   30.8810   47.8980 C   0  0  0  0  0  0  0  0  0  0  0  0
   58.8300   31.5990   49.0880 C   0  0  0  0  0  0  0  0  0  0  0  0
   59.6480   31.3050   50.1810 C   0  0  0  0  0  0  0  0  0  0  0  0
   60.5990   30.2880   50.0840 C   0  0  0  0  0  0  0  0  0  0  0  0
   60.7370   29.5660   48.8950 C   0  0  0  0  0  0  0  0  0  0  0  0
   58.1099   29.2153   43.5312 H   0  0  0  0  0  0  0  0  0  0  0  0
   56.5226   29.2645   42.6785 H   0  0  0  0  0  0  0  0  0  0  0  0
   56.5940   31.5890   42.6840 H   0  0  0  0  0  0  0  0  0  0  0  0
   58.1889   33.7581   43.1533 H   0  0  0  0  0  0  0  0  0  0  0  0
   56.8928   33.6920   44.4164 H   0  0  0  0  0  0  0  0  0  0  0  0
   59.6849   35.8700   46.8125 H   0  0  0  0  0  0  0  0  0  0  0  0
   58.8628   35.1995   48.2721 H   0  0  0  0  0  0  0  0  0  0  0  0
   60.9939   33.4450   45.7113 H   0  0  0  0  0  0  0  0  0  0  0  0
   63.0589   32.1855   46.3264 H   0  0  0  0  0  0  0  0  0  0  0  0
   63.9027   32.2354   48.6758 H   0  0  0  0  0  0  0  0  0  0  0  0
   62.6777   33.5429   50.4153 H   0  0  0  0  0  0  0  0  0  0  0  0
   60.6021   34.7908   49.8136 H   0  0  0  0  0  0  0  0  0  0  0  0
   56.2330   26.4927   45.8469 H   0  0  0  0  0  0  0  0  0  0  0  0
   57.5580   24.3845   45.8960 H   0  0  0  0  0  0  0  0  0  0  0  0
   60.0389   24.4698   46.1395 H   0  0  0  0  0  0  0  0  0  0  0  0
   61.1964   26.6639   46.3886 H   0  0  0  0  0  0  0  0  0  0  0  0
   58.3061   31.1118   47.0449 H   0  0  0  0  0  0  0  0  0  0  0  0
   58.0795   32.3995   49.1651 H   0  0  0  0  0  0  0  0  0  0  0  0
   59.5430   31.8739   51.1166 H   0  0  0  0  0  0  0  0  0  0  0  0
   61.2416   30.0540   50.9455 H   0  0  0  0  0  0  0  0  0  0  0  0
   61.4834   28.7608   48.8278 H   0  0  0  0  0  0  0  0  0  0  0  0
  1  2  2  0
  2  3  1  0
  3  4  1  0
  4  5  1  0
  5  6  2  0
  5  7  1  0
  7  8  1  0
  8  9  1  0
  9 10  2  0
  9 11  1  0
 11 12  1  0
 12 13  2  0
 13 14  1  0
 14 15  2  0
 15 16  1  0
 16 17  2  0
  2 18  1  0
 18 19  1  0
 19 20  2  0
 20 21  1  0
 21 22  2  0
 22 23  1  0
 23 24  2  0
 24 25  1  0
 25 26  2  0
 25 27  1  0
 27 28  2  0
 28 29  1  0
 29 30  2  0
 30 31  1  0
 31 32  2  0
 17 12  1  0
 24 19  1  0
 32 27  1  0
  3 33  1  0
  3 34  1  0
  4 35  1  0
  7 36  1  0
  7 37  1  0
 11 38  1  0
 11 39  1  0
 13 40  1  0
 14 41  1  0
 15 42  1  0
 16 43  1  0
 17 44  1  0
 20 45  1  0
 21 46  1  0
 22 47  1  0
 23 48  1  0
 28 49  1  0
 29 50  1  0
 30 51  1  0
 31 52  1  0
 32 53  1  0
M  CHG  1  18  -1
M  END
>  <UniqueID>  (7) 
7

>  <SMILES>  (7) 
O=C(CNC(=O)COC(=O)Cc1ccccc1)[N-]c1ccccc1C(=O)c1ccccc1

>  <Energy>  (7) 
56.979934420105025

>  <Genealogy>  (7) 
O=C(CNC(=O)COC(=O)Cc1ccccc1)[N-]c1ccccc1C(=O)c1ccccc1 (protonated)
O=C(CNC(=O)COC(=O)Cc1ccccc1)[N-]c1ccccc1C(=O)c1ccccc1 (3D coordinates assigned)
O=C(CNC(=O)COC(=O)Cc1ccccc1)[N-]c1ccccc1C(=O)c1ccccc1 (optimized conformer: 56.979934420105025 kcal/mol)

>  <smiles>  (7) 
O=C(COC(=O)Cc1ccccc1)NCC(=O)Nc1ccccc1C(=O)c1ccccc1

>  <score_type>  (7) 
oracle

>  <origin>  (7) 
adg

>  <m_score__min__energy>  (7) 
-11.359999999999999

>  <m_primary>  (7) 
energy

$$$$
7:0
     RDKit          3D

 49 51  0  0  0  0  0  0  0  0999 V2000
   61.2300   34.1560   49.6840 C   0  0  0  0  0  0  0  0  0  0  0  0
   61.5040   33.6820   48.3260 N   0  0  0  0  0  0  0  0  0  0  0  0
   60.4210   33.4680   47.3970 C   0  0  0  0  0  0  0  0  0  0  0  0
   59.7240   32.2470   47.3800 C   0  0  0  0  0  0  0  0  0  0  0  0
   58.6830   32.0350   46.4710 C   0  0  0  0  0  0  0  0  0  0  0  0
   58.3190   33.0320   45.5600 C   0  0  0  0  0  0  0  0  0  0  0  0
   57.2690   32.7700   44.6680 O   0  0  0  0  0  0  0  0  0  0  0  0
   57.3120   31.7810   43.6440 C   0  0  0  0  0  0  0  0  0  0  0  0
   57.2120   30.4260   44.2650 C   0  0  0  0  0  0  0  0  0  0  0  0
   56.1150   30.0530   44.7590 O   0  0  0  0  0  0  0  0  0  0  0  0
   58.3330   29.5300   44.2110 N   0  0  0  0  0  0  0  0  0  0  0  0
   58.4020   28.2830   44.9220 C   0  0  0  0  0  0  0  0  0  0  0  0
   59.6060   27.9080   45.5380 C   0  0  0  0  0  0  0  0  0  0  0  0
   59.6910   26.7110   46.2540 C   0  0  0  0  0  0  0  0  0  0  0  0
   58.5730   25.8840   46.3730 C   0  0  0  0  0  0  0  0  0  0  0  0
   57.3600   26.2520   45.7790 C   0  0  0  0  0  0  0  0  0  0  0  0
   55.9370   25.2300   45.9590 S   0  0  0  0  0  0  0  0  0  0  0  0
   54.5160   26.2140   45.9710 N   0  0  0  0  0  0  0  0  0  0  0  0
   56.0200   24.4600   47.2470 O   0  0  0  0  0  0  0  0  0  0  0  0
   55.8640   24.2540   44.8180 O   0  0  0  0  0  0  0  0  0  0  0  0
   57.2720   27.4560   45.0660 C   0  0  0  0  0  0  0  0  0  0  0  0
   59.0160   34.2550   45.5680 C   0  0  0  0  0  0  0  0  0  0  0  0
   60.0560   34.4680   46.4770 C   0  0  0  0  0  0  0  0  0  0  0  0
   63.1470   33.3210   47.8780 S   0  0  0  0  0  0  0  0  0  0  0  0
   63.1520   32.3250   46.7530 O   0  0  0  0  0  0  0  0  0  0  0  0
   63.8300   34.5770   47.4150 O   0  0  0  0  0  0  0  0  0  0  0  0
   64.0090   32.6610   49.2540 C   0  0  0  0  0  0  0  0  0  0  0  0
   65.2450   33.0830   49.7200 C   0  0  0  0  0  0  0  0  0  0  0  0
   65.6770   32.3680   50.8430 C   0  0  0  0  0  0  0  0  0  0  0  0
   64.7850   31.3860   51.2550 C   0  0  0  0  0  0  0  0  0  0  0  0
   63.4540   31.4080   50.2240 S   0  0  0  0  0  0  0  0  0  0  0  0
   61.6428   33.4420   50.4119 H   0  0  0  0  0  0  0  0  0  0  0  0
   61.6983   35.1406   49.8302 H   0  0  0  0  0  0  0  0  0  0  0  0
   60.1431   34.2416   49.8302 H   0  0  0  0  0  0  0  0  0  0  0  0
   60.0001   31.4517   48.0880 H   0  0  0  0  0  0  0  0  0  0  0  0
   58.1453   31.0754   46.4723 H   0  0  0  0  0  0  0  0  0  0  0  0
   56.4705   31.9314   42.9517 H   0  0  0  0  0  0  0  0  0  0  0  0
   58.2583   31.8643   43.0894 H   0  0  0  0  0  0  0  0  0  0  0  0
   59.1070   29.7610   43.5470 H   0  0  0  0  0  0  0  0  0  0  0  0
   60.4880   28.5602   45.4567 H   0  0  0  0  0  0  0  0  0  0  0  0
   60.6414   26.4198   46.7250 H   0  0  0  0  0  0  0  0  0  0  0  0
   58.6452   24.9410   46.9348 H   0  0  0  0  0  0  0  0  0  0  0  0
   54.7570   27.0890   46.4880 H   0  0  0  0  0  0  0  0  0  0  0  0
   56.3140   27.7562   44.6164 H   0  0  0  0  0  0  0  0  0  0  0  0
   58.7408   35.0466   44.8556 H   0  0  0  0  0  0  0  0  0  0  0  0
   60.5946   35.4271   46.4731 H   0  0  0  0  0  0  0  0  0  0  0  0
   65.8249   33.8943   49.2559 H   0  0  0  0  0  0  0  0  0  0  0  0
   66.6324   32.5650   51.3512 H   0  0  0  0  0  0  0  0  0  0  0  0
   64.9246   30.7085   52.1103 H   0  0  0  0  0  0  0  0  0  0  0  0
  1  2  1  0
  2  3  1  0
  3  4  2  0
  4  5  1  0
  5  6  2  0
  6  7  1  0
  7  8  1  0
  8  9  1  0
  9 10  2  0
  9 11  1  0
 11 12  1  0
 12 13  2  0
 13 14  1  0
 14 15  2  0
 15 16  1  0
 16 17  1  0
 17 18  1  0
 17 19  2  0
 17 20  2  0
 16 21  2  0
  6 22  1  0
 22 23  2  0
  2 24  1  0
 24 25  2  0
 24 26  2  0
 24 27  1  0
 27 28  2  0
 28 29  1  0
 29 30  2  0
 30 31  1  0
 23  3  1  0
 31 27  1  0
 21 12  1  0
  1 32  1  0
  1 33  1  0
  1 34  1  0
  4 35  1  0
  5 36  1  0
  8 37  1  0
  8 38  1  0
 11 39  1  0
 13 40  1  0
 14 41  1  0
 15 42  1  0
 18 43  1  0
 21 44  1  0
 22 45  1  0
 23 46  1  0
 28 47  1  0
 29 48  1  0
 30 49  1  0
M  CHG  1  18  -1
M  END
>  <UniqueID>  (8) 
8

>  <SMILES>  (8) 
CN(c1ccc(OCC(=O)Nc2cccc(S([NH-])(=O)=O)c2)cc1)S(=O)(=O)c1cccs1

>  <Energy>  (8) 
82.45632252833725

>  <Genealogy>  (8) 
CN(c1ccc(OCC(=O)Nc2cccc(S([NH-])(=O)=O)c2)cc1)S(=O)(=O)c1cccs1 (protonated)
CN(c1ccc(OCC(=O)Nc2cccc(S([NH-])(=O)=O)c2)cc1)S(=O)(=O)c1cccs1 (3D coordinates assigned)
CN(c1ccc(OCC(=O)Nc2cccc(S([NH-])(=O)=O)c2)cc1)S(=O)(=O)c1cccs1 (optimized conformer: 82.45632252833725 kcal/mol)

>  <smiles>  (8) 
CN(c1ccc(OCC(=O)Nc2cccc(S(N)(=O)=O)c2)cc1)S(=O)(=O)c1cccs1

>  <score_type>  (8) 
oracle

>  <origin>  (8) 
adg

>  <m_score__min__energy>  (8) 
-13.41

>  <m_primary>  (8) 
energy

$$$$
8:0
     RDKit          3D

 36 38  0  0  0  0  0  0  0  0999 V2000
   57.7220   33.6910   45.0710 C   0  0  0  0  0  0  0  0  0  0  0  0
   58.0470   32.6160   44.0400 C   0  0  0  0  0  0  0  0  0  0  0  0
   57.5330   31.2730   44.4880 C   0  0  0  0  0  0  0  0  0  0  0  0
   56.2540   30.8430   44.0990 C   0  0  0  0  0  0  0  0  0  0  0  0
   55.7830   29.5860   44.4860 C   0  0  0  0  0  0  0  0  0  0  0  0
   56.5880   28.7410   45.2550 C   0  0  0  0  0  0  0  0  0  0  0  0
   56.1220   27.5180   45.6270 N   0  0  0  0  0  0  0  0  0  0  0  0
   56.8700   26.6560   46.3670 C   0  0  0  0  0  0  0  0  0  0  0  0
   56.2830   25.3390   46.7810 C   0  0  0  0  0  0  0  0  0  0  0  0
   56.2750   24.3870   45.6160 C   0  0  0  0  0  0  0  0  0  0  0  0
   55.1030   24.1930   44.8670 C   0  0  0  0  0  0  0  0  0  0  0  0
   55.1080   23.3360   43.7620 C   0  0  0  0  0  0  0  0  0  0  0  0
   56.2820   22.6740   43.3940 C   0  0  0  0  0  0  0  0  0  0  0  0
   56.2850   21.8450   42.3210 F   0  0  0  0  0  0  0  0  0  0  0  0
   57.4560   22.8720   44.1280 C   0  0  0  0  0  0  0  0  0  0  0  0
   57.4550   23.7280   45.2330 C   0  0  0  0  0  0  0  0  0  0  0  0
   58.1550   27.0280   46.7840 C   0  0  0  0  0  0  0  0  0  0  0  0
   58.6660   28.2780   46.4200 C   0  0  0  0  0  0  0  0  0  0  0  0
   59.8250   28.6050   46.7940 O   0  0  0  0  0  0  0  0  0  0  0  0
   57.8810   29.1540   45.6450 C   0  0  0  0  0  0  0  0  0  0  0  0
   58.3490   30.4220   45.2510 C   0  0  0  0  0  0  0  0  0  0  0  0
   57.8468   33.2782   46.0829 H   0  0  0  0  0  0  0  0  0  0  0  0
   58.4021   34.5451   44.9370 H   0  0  0  0  0  0  0  0  0  0  0  0
   56.6826   34.0253   44.9370 H   0  0  0  0  0  0  0  0  0  0  0  0
   57.5762   32.8811   43.0818 H   0  0  0  0  0  0  0  0  0  0  0  0
   59.1394   32.5555   43.9259 H   0  0  0  0  0  0  0  0  0  0  0  0
   55.6193   31.4998   43.4860 H   0  0  0  0  0  0  0  0  0  0  0  0
   54.7763   29.2606   44.1848 H   0  0  0  0  0  0  0  0  0  0  0  0
   56.8862   24.9119   47.5957 H   0  0  0  0  0  0  0  0  0  0  0  0
   55.2497   25.4973   47.1235 H   0  0  0  0  0  0  0  0  0  0  0  0
   54.1782   24.7168   45.1504 H   0  0  0  0  0  0  0  0  0  0  0  0
   54.1862   23.1828   43.1816 H   0  0  0  0  0  0  0  0  0  0  0  0
   58.3810   22.3536   43.8354 H   0  0  0  0  0  0  0  0  0  0  0  0
   58.3814   23.8862   45.8047 H   0  0  0  0  0  0  0  0  0  0  0  0
   58.7588   26.3404   47.3945 H   0  0  0  0  0  0  0  0  0  0  0  0
   59.3585   30.7477   45.5422 H   0  0  0  0  0  0  0  0  0  0  0  0
  1  2  1  0
  2  3  1  0
  3  4  2  0
  4  5  1  0
  5  6  2  0
  6  7  1  0
  7  8  1  0
  8  9  1  0
  9 10  1  0
 10 11  2  0
 11 12  1  0
 12 13  2  0
 13 14  1  0
 13 15  1  0
 15 16  2  0
  8 17  2  0
 17 18  1  0
 18 19  2  0
 18 20  1  0
 20 21  2  0
 21  3  1  0
 20  6  1  0
 16 10  1  0
  1 22  1  0
  1 23  1  0
  1 24  1  0
  2 25  1  0
  2 26  1  0
  4 27  1  0
  5 28  1  0
  9 29  1  0
  9 30  1  0
 11 31  1  0
 12 32  1  0
 15 33  1  0
 16 34  1  0
 17 35  1  0
 21 36  1  0
M  CHG  1   7  -1
M  END
>  <UniqueID>  (9) 
9

>  <SMILES>  (9) 
CCc1ccc2[n-]c(Cc3ccc(F)cc3)cc(=O)c2c1

>  <Energy>  (9) 
37.8281765900983

>  <Genealogy>  (9) 
CCc1ccc2[n-]c(Cc3ccc(F)cc3)cc(=O)c2c1 (protonated)
CCc1ccc2[n-]c(Cc3ccc(F)cc3)cc(=O)c2c1 (3D coordinates assigned)
CCc1ccc2[n-]c(Cc3ccc(F)cc3)cc(=O)c2c1 (optimized conformer: 37.8281765900983 kcal/mol)

>  <smiles>  (9) 
CCc1ccc2[nH]c(Cc3ccc(F)cc3)cc(=O)c2c1

>  <score_type>  (9) 
oracle

>  <origin>  (9) 
adg

>  <m_score__min__energy>  (9) 
-8.6300000000000008

>  <m_primary>  (9) 
energy

$$$$
9:0
     RDKit          3D

 42 44  0  0  0  0  0  0  0  0999 V2000
   63.3790   33.9020   46.7670 C   0  0  0  0  0  0  0  0  0  0  0  0
   62.1960   33.2340   47.3920 C   0  0  0  0  0  0  0  0  0  0  0  0
   61.6380   33.7370   48.5740 C   0  0  0  0  0  0  0  0  0  0  0  0
   60.5530   33.0770   49.1520 C   0  0  0  0  0  0  0  0  0  0  0  0
   60.0420   31.9220   48.5570 C   0  0  0  0  0  0  0  0  0  0  0  0
   60.6290   31.4370   47.3770 C   0  0  0  0  0  0  0  0  0  0  0  0
   60.1460   30.2100   46.7210 C   0  0  0  0  0  0  0  0  0  0  0  0
   58.9460   29.6530   46.9990 N   0  0  0  0  0  0  0  0  0  0  0  0
   58.7020   28.5500   46.2430 C   0  0  0  0  0  0  0  0  0  0  0  0
   57.4010   27.8100   46.3300 C   0  0  0  0  0  0  0  0  0  0  0  0
   56.4320   28.2660   45.2390 C   0  0  0  0  0  0  0  0  0  0  0  0
   56.2430   29.7110   45.2990 N   0  0  0  0  0  0  0  0  0  0  0  0
   56.7220   30.5990   44.2840 C   0  0  0  0  0  0  0  0  0  0  0  0
   56.5040   30.3290   43.0710 O   0  0  0  0  0  0  0  0  0  0  0  0
   57.4280   31.8570   44.6390 C   0  0  0  0  0  0  0  0  0  0  0  0
   57.4090   32.2710   45.9850 C   0  0  0  0  0  0  0  0  0  0  0  0
   58.0790   33.4260   46.3900 C   0  0  0  0  0  0  0  0  0  0  0  0
   58.7790   34.1900   45.4590 C   0  0  0  0  0  0  0  0  0  0  0  0
   58.8000   33.8090   44.1170 C   0  0  0  0  0  0  0  0  0  0  0  0
   58.1170   32.6580   43.6860 C   0  0  0  0  0  0  0  0  0  0  0  0
   58.1450   32.3220   42.2180 C   0  0  0  0  0  0  0  0  0  0  0  0
   59.7060   28.2200   45.3360 C   0  0  0  0  0  0  0  0  0  0  0  0
   60.9400   29.3490   45.5100 S   0  0  0  0  0  0  0  0  0  0  0  0
   61.6830   32.1050   46.8330 N   0  0  0  0  0  0  0  0  0  0  0  0
   64.0465   34.2789   47.5559 H   0  0  0  0  0  0  0  0  0  0  0  0
   63.9220   33.1772   46.1427 H   0  0  0  0  0  0  0  0  0  0  0  0
   63.0387   34.7413   46.1427 H   0  0  0  0  0  0  0  0  0  0  0  0
   62.0508   34.6429   49.0418 H   0  0  0  0  0  0  0  0  0  0  0  0
   60.1005   33.4665   50.0759 H   0  0  0  0  0  0  0  0  0  0  0  0
   59.1874   31.3967   49.0083 H   0  0  0  0  0  0  0  0  0  0  0  0
   57.5922   26.7331   46.2130 H   0  0  0  0  0  0  0  0  0  0  0  0
   56.9462   28.0188   47.3096 H   0  0  0  0  0  0  0  0  0  0  0  0
   56.8407   27.9944   44.2545 H   0  0  0  0  0  0  0  0  0  0  0  0
   55.4614   27.7722   45.3944 H   0  0  0  0  0  0  0  0  0  0  0  0
   56.8581   31.6753   46.7277 H   0  0  0  0  0  0  0  0  0  0  0  0
   58.0544   33.7336   47.4458 H   0  0  0  0  0  0  0  0  0  0  0  0
   59.3156   35.0943   45.7821 H   0  0  0  0  0  0  0  0  0  0  0  0
   59.3571   34.4158   43.3880 H   0  0  0  0  0  0  0  0  0  0  0  0
   58.2358   31.2329   42.0928 H   0  0  0  0  0  0  0  0  0  0  0  0
   57.2148   32.6693   41.7446 H   0  0  0  0  0  0  0  0  0  0  0  0
   59.0049   32.8184   41.7446 H   0  0  0  0  0  0  0  0  0  0  0  0
   59.6940   27.3740   44.6331 H   0  0  0  0  0  0  0  0  0  0  0  0
  1  2  1  0
  2  3  2  0
  3  4  1  0
  4  5  2  0
  5  6  1  0
  6  7  1  0
  7  8  2  0
  8  9  1  0
  9 10  1  0
 10 11  1  0
 11 12  1  0
 12 13  1  0
 13 14  2  0
 13 15  1  0
 15 16  2  0
 16 17  1  0
 17 18  2  0
 18 19  1  0
 19 20  2  0
 20 21  1  0
  9 22  2  0
 22 23  1  0
  6 24  2  0
 24  2  1  0
 23  7  1  0
 20 15  1  0
  1 25  1  0
  1 26  1  0
  1 27  1  0
  3 28  1  0
  4 29  1  0
  5 30  1  0
 10 31  1  0
 10 32  1  0
 11 33  1  0
 11 34  1  0
 16 35  1  0
 17 36  1  0
 18 37  1  0
 19 38  1  0
 21 39  1  0
 21 40  1  0
 21 41  1  0
 22 42  1  0
M  CHG  1  12  -1
M  END
>  <UniqueID>  (10) 
10

>  <SMILES>  (10) 
Cc1cccc(-c2nc(CC[N-]C(=O)c3ccccc3C)cs2)n1

>  <Energy>  (10) 
69.78447327625229

>  <Genealogy>  (10) 
Cc1cccc(-c2nc(CC[N-]C(=O)c3ccccc3C)cs2)n1 (protonated)
Cc1cccc(-c2nc(CC[N-]C(=O)c3ccccc3C)cs2)n1 (3D coordinates assigned)
Cc1cccc(-c2nc(CC[N-]C(=O)c3ccccc3C)cs2)n1 (optimized conformer: 69.78447327625229 kcal/mol)

>  <smiles>  (10) 
Cc1cccc(-c2nc(CCNC(=O)c3ccccc3C)cs2)n1

>  <score_type>  (10) 
oracle

>  <origin>  (10) 
adg

>  <m_score__min__energy>  (10) 
-10.51

>  <m_primary>  (10) 
energy

$$$$
10:0
     RDKit          3D

 51 54  0  0  0  0  0  0  0  0999 V2000
   54.3850   26.0050   45.9890 N   0  0  0  0  0  0  0  0  0  0  0  0
   54.5710   24.3170   45.6690 S   0  0  0  0  0  0  0  0  0  0  0  0
   53.8430   23.9730   44.3990 O   0  0  0  0  0  0  0  0  0  0  0  0
   53.9820   23.5210   46.8000 O   0  0  0  0  0  0  0  0  0  0  0  0
   56.2850   23.9350   45.5180 C   0  0  0  0  0  0  0  0  0  0  0  0
   56.6790   22.6280   45.2080 C   0  0  0  0  0  0  0  0  0  0  0  0
   58.0350   22.3170   45.0650 C   0  0  0  0  0  0  0  0  0  0  0  0
   59.0050   23.3060   45.2440 C   0  0  0  0  0  0  0  0  0  0  0  0
   58.6280   24.6150   45.5700 C   0  0  0  0  0  0  0  0  0  0  0  0
   59.6570   25.5990   45.7530 N   0  0  0  0  0  0  0  0  0  0  0  0
   59.8910   26.5440   47.1880 S   0  0  0  0  0  0  0  0  0  0  0  0
   58.9790   26.0460   48.2730 O   0  0  0  0  0  0  0  0  0  0  0  0
   61.3130   26.3960   47.6510 O   0  0  0  0  0  0  0  0  0  0  0  0
   59.5840   28.2400   46.8270 C   0  0  0  0  0  0  0  0  0  0  0  0
   59.3270   28.6270   45.5080 C   0  0  0  0  0  0  0  0  0  0  0  0
   59.0570   29.9630   45.2050 C   0  0  0  0  0  0  0  0  0  0  0  0
   59.0320   30.9400   46.2220 C   0  0  0  0  0  0  0  0  0  0  0  0
   58.7350   32.3230   45.9170 N   0  0  0  0  0  0  0  0  0  0  0  0
   58.1380   32.7630   44.6740 C   0  0  0  0  0  0  0  0  0  0  0  0
   57.8100   34.2280   44.9000 C   0  0  0  0  0  0  0  0  0  0  0  0
   58.5130   34.6600   46.1140 N   0  0  0  0  0  0  0  0  0  0  0  0
   58.8960   33.4440   46.8360 C   0  0  2  0  0  0  0  0  0  0  0  0
   60.3310   33.5680   47.3090 C   0  0  0  0  0  0  0  0  0  0  0  0
   61.3800   33.4570   46.3770 C   0  0  0  0  0  0  0  0  0  0  0  0
   62.7100   33.5840   46.7880 C   0  0  0  0  0  0  0  0  0  0  0  0
   63.0130   33.8100   48.1320 C   0  0  0  0  0  0  0  0  0  0  0  0
   61.9820   33.9020   49.0720 C   0  0  0  0  0  0  0  0  0  0  0  0
   60.6460   33.7760   48.6710 C   0  0  0  0  0  0  0  0  0  0  0  0
   59.6450   33.8590   49.6300 O   0  0  0  0  0  0  0  0  0  0  0  0
   59.2960   30.5400   47.5470 C   0  0  0  0  0  0  0  0  0  0  0  0
   59.5710   29.2020   47.8460 C   0  0  0  0  0  0  0  0  0  0  0  0
   57.2620   24.9240   45.7130 C   0  0  0  0  0  0  0  0  0  0  0  0
   53.5780   26.3360   45.4160 H   0  0  0  0  0  0  0  0  0  0  0  0
   55.9197   21.8431   45.0765 H   0  0  0  0  0  0  0  0  0  0  0  0
   58.3385   21.2907   44.8109 H   0  0  0  0  0  0  0  0  0  0  0  0
   60.0699   23.0557   45.1284 H   0  0  0  0  0  0  0  0  0  0  0  0
   59.3376   27.8751   44.7051 H   0  0  0  0  0  0  0  0  0  0  0  0
   58.8619   30.2564   44.1630 H   0  0  0  0  0  0  0  0  0  0  0  0
   58.8475   32.6485   43.8412 H   0  0  0  0  0  0  0  0  0  0  0  0
   57.2478   32.1738   44.4089 H   0  0  0  0  0  0  0  0  0  0  0  0
   58.1470   34.8246   44.0395 H   0  0  0  0  0  0  0  0  0  0  0  0
   56.7247   34.3671   45.0129 H   0  0  0  0  0  0  0  0  0  0  0  0
   57.8610   35.2270   46.7070 H   0  0  0  0  0  0  0  0  0  0  0  0
   58.2664   33.2872   47.7243 H   0  0  0  0  0  0  0  0  0  0  0  0
   61.1515   33.2690   45.3176 H   0  0  0  0  0  0  0  0  0  0  0  0
   63.5213   33.5055   46.0494 H   0  0  0  0  0  0  0  0  0  0  0  0
   64.0605   33.9155   48.4507 H   0  0  0  0  0  0  0  0  0  0  0  0
   62.2214   34.0742   50.1317 H   0  0  0  0  0  0  0  0  0  0  0  0
   59.2857   31.2875   48.3540 H   0  0  0  0  0  0  0  0  0  0  0  0
   59.7778   28.9036   48.8844 H   0  0  0  0  0  0  0  0  0  0  0  0
   56.9582   25.9471   45.9793 H   0  0  0  0  0  0  0  0  0  0  0  0
  1  2  1  0
  2  3  2  0
  2  4  2  0
  2  5  1  0
  5  6  2  0
  6  7  1  0
  7  8  2  0
  8  9  1  0
  9 10  1  0
 10 11  1  0
 11 12  2  0
 11 13  2  0
 11 14  1  0
 14 15  2  0
 15 16  1  0
 16 17  2  0
 17 18  1  0
 18 19  1  0
 19 20  1  0
 20 21  1  0
 21 22  1  0
 22 23  1  0
 23 24  2  0
 24 25  1  0
 25 26  2  0
 26 27  1  0
 27 28  2  0
 28 29  1  0
 17 30  1  0
 30 31  2  0
  9 32  2  0
 32  5  1  0
 31 14  1  0
 22 18  1  0
 28 23  1  0
  1 33  1  0
  6 34  1  0
  7 35  1  0
  8 36  1  0
 15 37  1  0
 16 38  1  0
 19 39  1  0
 19 40  1  0
 20 41  1  0
 20 42  1  0
 21 43  1  0
 22 44  1  1
 24 45  1  0
 25 46  1  0
 26 47  1  0
 27 48  1  0
 30 49  1  0
 31 50  1  0
 32 51  1  0
M  CHG  3   1  -1  10  -1  29  -1
M  END
>  <UniqueID>  (11) 
11

>  <SMILES>  (11) 
[NH-]S(=O)(=O)c1cccc([N-]S(=O)(=O)c2ccc(N3CCN[C@@H]3c3ccccc3[O-])cc2)c1

>  <Energy>  (11) 
59.953697932562086

>  <Genealogy>  (11) 
[NH-]S(=O)(=O)c1cccc([N-]S(=O)(=O)c2ccc(N3CCNC3c3ccccc3[O-])cc2)c1 (protonated)
[NH-]S(=O)(=O)c1cccc([N-]S(=O)(=O)c2ccc(N3CCN[C@@H]3c3ccccc3[O-])cc2)c1 (chirality)
[NH-]S(=O)(=O)c1cccc([N-]S(=O)(=O)c2ccc(N3CCN[C@@H]3c3ccccc3[O-])cc2)c1 (3D coordinates assigned)
[NH-]S(=O)(=O)c1cccc([N-]S(=O)(=O)c2ccc(N3CCN[C@@H]3c3ccccc3[O-])cc2)c1 (nonaromatic ring conformer: 59.953697932562086 kcal/mol)

>  <smiles>  (11) 
NS(=O)(=O)c1cccc(NS(=O)(=O)c2ccc(N3CCNC3c3ccccc3O)cc2)c1

>  <score_type>  (11) 
oracle

>  <origin>  (11) 
adg

>  <m_score__min__energy>  (11) 
-15.380000000000001

>  <m_primary>  (11) 
energy

$$$$
11:0
     RDKit          3D

 50 52  0  0  1  0  0  0  0  0999 V2000
   57.6230   25.9020   44.5530 C   0  0  0  0  0  0  0  0  0  0  0  0
   56.9080   26.4850   46.0610 S   0  0  0  0  0  0  0  0  0  0  0  0
   55.3900   26.4230   46.0050 O   0  0  0  0  0  0  0  0  0  0  0  0
   57.3910   25.6380   47.2050 O   0  0  0  0  0  0  0  0  0  0  0  0
   57.3870   28.1240   46.4060 N   0  0  0  0  0  0  0  0  0  0  0  0
   57.1630   29.0300   45.5220 C   0  0  0  0  0  0  0  0  0  0  0  0
   56.1620   28.9380   44.6180 N   0  0  0  0  0  0  0  0  0  0  0  0
   55.9320   29.8990   43.6890 C   0  0  0  0  0  0  0  0  0  0  0  0
   56.7070   31.0000   43.6320 N   0  0  0  0  0  0  0  0  0  0  0  0
   57.7130   31.1260   44.5180 C   0  0  0  0  0  0  0  0  0  0  0  0
   57.9650   30.1450   45.4830 C   0  0  0  0  0  0  0  0  0  0  0  0
   59.0790   30.3700   46.4000 C   0  0  0  0  0  0  0  0  0  0  0  0
   60.3990   30.3070   46.0000 C   0  0  0  0  0  0  0  0  0  0  0  0
   61.3980   30.5320   46.9220 C   0  0  0  0  0  0  0  0  0  0  0  0
   61.1420   30.8220   48.2510 C   0  0  0  0  0  0  0  0  0  0  0  0
   62.2080   31.0520   49.1950 N   0  0  0  0  0  0  0  0  0  0  0  0
   62.6390   32.4000   49.3730 C   0  0  0  0  0  0  0  0  0  0  0  0
   62.2810   33.3380   48.2910 C   0  0  0  0  0  0  0  0  0  0  0  0
   61.3040   34.1930   48.2900 C   0  0  0  0  0  0  0  0  0  0  0  0
   60.1910   34.2010   47.3460 C   0  0  0  0  0  0  0  0  0  0  0  0
   60.3340   34.5470   46.0150 C   0  0  0  0  0  0  0  0  0  0  0  0
   59.2620   34.5500   45.1280 C   0  0  0  0  0  0  0  0  0  0  0  0
   57.9880   34.1930   45.5810 C   0  0  0  0  0  0  0  0  0  0  0  0
   57.8290   33.8460   46.9030 C   0  0  0  0  0  0  0  0  0  0  0  0
   58.9080   33.8550   47.7450 C   0  0  0  0  0  0  0  0  0  0  0  0
   59.8140   30.8780   48.6200 C   0  0  0  0  0  0  0  0  0  0  0  0
   59.4760   31.1890   50.0500 C   0  0  0  0  0  0  0  0  0  0  0  0
   59.7870   32.5030   50.3330 F   0  0  0  0  0  0  0  0  0  0  0  0
   60.1650   30.4150   50.9410 F   0  0  0  0  0  0  0  0  0  0  0  0
   58.1060   31.0430   50.1620 F   0  0  0  0  0  0  0  0  0  0  0  0
   58.7960   30.6580   47.7170 C   0  0  0  0  0  0  0  0  0  0  0  0
   58.4569   25.2220   44.7814 H   0  0  0  0  0  0  0  0  0  0  0  0
   56.8609   25.3645   43.9696 H   0  0  0  0  0  0  0  0  0  0  0  0
   57.9961   26.7567   43.9696 H   0  0  0  0  0  0  0  0  0  0  0  0
   55.1043   29.7785   42.9746 H   0  0  0  0  0  0  0  0  0  0  0  0
   56.5610   31.7670   42.9270 H   0  0  0  0  0  0  0  0  0  0  0  0
   58.3515   32.0210   44.4822 H   0  0  0  0  0  0  0  0  0  0  0  0
   60.6511   30.0790   44.9538 H   0  0  0  0  0  0  0  0  0  0  0  0
   62.4445   30.4788   46.5873 H   0  0  0  0  0  0  0  0  0  0  0  0
   62.5710   30.2050   49.6670 H   0  0  0  0  0  0  0  0  0  0  0  0
   62.1942   32.7759   50.3062 H   0  0  0  0  0  0  0  0  0  0  0  0
   63.7383   32.3627   49.3840 H   0  0  0  0  0  0  0  0  0  0  0  0
   62.9094   33.3096   47.3886 H   0  0  0  0  0  0  0  0  0  0  0  0
   61.3161   34.9750   49.0636 H   0  0  0  0  0  0  0  0  0  0  0  0
   61.3303   34.8298   45.6443 H   0  0  0  0  0  0  0  0  0  0  0  0
   59.4158   34.8317   44.0759 H   0  0  0  0  0  0  0  0  0  0  0  0
   57.1293   34.1897   44.8935 H   0  0  0  0  0  0  0  0  0  0  0  0
   56.8364   33.5619   47.2825 H   0  0  0  0  0  0  0  0  0  0  0  0
   58.7492   33.5723   48.7961 H   0  0  0  0  0  0  0  0  0  0  0  0
   57.7493   30.7129   48.0508 H   0  0  0  0  0  0  0  0  0  0  0  0
  1  2  1  0
  2  3  2  0
  2  4  2  0
  2  5  1  0
  5  6  2  0
  6  7  1  0
  7  8  2  0
  8  9  1  0
  9 10  1  0
 10 11  2  0
 11 12  1  0
 12 13  2  0
 13 14  1  0
 14 15  2  0
 15 16  1  0
 16 17  1  0
 17 18  1  0
 18 19  2  0
 19 20  1  0
 20 21  2  0
 21 22  1  0
 22 23  2  0
 23 24  1  0
 24 25  2  0
 15 26  1  0
 26 27  1  0
 27 28  1  0
 27 29  1  0
 27 30  1  0
 26 31  2  0
 11  6  1  0
 31 12  1  0
 25 20  1  0
  1 32  1  0
  1 33  1  0
  1 34  1  0
  8 35  1  0
  9 36  1  0
 10 37  1  0
 13 38  1  0
 14 39  1  0
 16 40  1  0
 17 41  1  0
 17 42  1  0
 18 43  1  0
 19 44  1  0
 21 45  1  0
 22 46  1  0
 23 47  1  0
 24 48  1  0
 25 49  1  0
 31 50  1  0
M  END
>  <smiles>  (12) 
CS(=O)(=O)N=c1nc[nH]cc1-c1ccc(NCC=Cc2ccccc2)c(C(F)(F)F)c1

>  <score_type>  (12) 
oracle

>  <origin>  (12) 
adg

>  <m_score__min__energy>  (12) 
-8.6600000000000001

>  <m_primary>  (12) 
energy

$$$$
12:0
     RDKit          3D

 32 34  0  0  0  0  0  0  0  0999 V2000
   55.2820   28.6590   43.2800 H   0  0  0  0  0  0  0  0  0  0  0  0
   55.2380   29.3480   44.0180 O   0  0  0  0  0  0  0  0  0  0  0  0
   56.3770   29.8600   44.6390 C   0  0  0  0  0  0  0  0  0  0  0  0
   56.6600   31.2320   44.4990 C   0  0  0  0  0  0  0  0  0  0  0  0
   55.9986   31.8873   43.9132 H   0  0  0  0  0  0  0  0  0  0  0  0
   57.7970   31.7380   45.1200 C   0  0  0  0  0  0  0  0  0  0  0  0
   58.6410   30.9380   45.8580 C   0  0  0  0  0  0  0  0  0  0  0  0
   58.3900   29.5790   46.0170 C   0  0  0  0  0  0  0  0  0  0  0  0
   59.0676   28.9466   46.6094 H   0  0  0  0  0  0  0  0  0  0  0  0
   57.2470   29.0320   45.4010 C   0  0  0  0  0  0  0  0  0  0  0  0
   56.9320   27.3130   45.6020 Cl  0  0  0  0  0  0  0  0  0  0  0  0
   59.7110   31.6580   46.3840 O   0  0  0  0  0  0  0  0  0  0  0  0
   59.5560   32.9860   45.9740 C   0  0  0  0  0  0  0  0  0  0  0  0
   60.3940   33.9890   46.2580 C   0  0  0  0  0  0  0  0  0  0  0  0
   60.2019   34.9719   45.8031 H   0  0  0  0  0  0  0  0  0  0  0  0
   61.5670   33.8480   47.1520 C   0  0  0  0  0  0  0  0  0  0  0  0
   62.8540   33.6120   46.6290 C   0  0  0  0  0  0  0  0  0  0  0  0
   62.9979   33.5495   45.5402 H   0  0  0  0  0  0  0  0  0  0  0  0
   63.9470   33.4570   47.4820 C   0  0  0  0  0  0  0  0  0  0  0  0
   64.9492   33.2823   47.0635 H   0  0  0  0  0  0  0  0  0  0  0  0
   63.7720   33.5230   48.8640 C   0  0  0  0  0  0  0  0  0  0  0  0
   64.6372   33.4080   49.5335 H   0  0  0  0  0  0  0  0  0  0  0  0
   62.4990   33.7350   49.3990 C   0  0  0  0  0  0  0  0  0  0  0  0
   62.3653   33.7773   50.4900 H   0  0  0  0  0  0  0  0  0  0  0  0
   61.3850   33.8950   48.5510 C   0  0  0  0  0  0  0  0  0  0  0  0
   60.0940   34.1090   49.0630 O   0  0  0  0  0  0  0  0  0  0  0  0
   59.2620   33.0930   49.6110 C   0  0  0  0  0  0  0  0  0  0  0  0
   59.3007   33.1402   50.7093 H   0  0  0  0  0  0  0  0  0  0  0  0
   58.2262   33.2457   49.2737 H   0  0  0  0  0  0  0  0  0  0  0  0
   59.6160   32.1077   49.2737 H   0  0  0  0  0  0  0  0  0  0  0  0
   58.3440   33.0800   45.1600 C   0  0  0  0  0  0  0  0  0  0  0  0
   57.8720   34.1080   44.6050 O   0  0  0  0  0  0  0  0  0  0  0  0
  1  2  1  0
  2  3  1  0
  3  4  2  0
  4  5  1  0
  4  6  1  0
  6  7  2  0
  7  8  1  0
  8  9  1  0
  8 10  2  0
 10 11  1  0
  7 12  1  0
 12 13  1  0
 13 14  2  0
 14 15  1  0
 14 16  1  0
 16 17  2  0
 17 18  1  0
 17 19  1  0
 19 20  1  0
 19 21  2  0
 21 22  1  0
 21 23  1  0
 23 24  1  0
 23 25  2  0
 25 26  1  0
 26 27  1  0
 27 28  1  0
 27 29  1  0
 27 30  1  0
 13 31  1  0
 31 32  2  0
 10  3  1  0
 25 16  1  0
 31  6  1  0
M  END
>  <UniqueID>  (13) 
12

>  <SMILES>  (13) 
COc1ccccc1/C=C1\Oc2cc(Cl)c(O)cc2C1=O

>  <Energy>  (13) 
70.68517914187713

>  <Genealogy>  (13) 
COc1ccccc1/C=C1\Oc2cc(Cl)c(O)cc2C1=O (cis-trans isomerization)
COc1ccccc1/C=C1\Oc2cc(Cl)c(O)cc2C1=O (3D coordinates assigned)
COc1ccccc1/C=C1\Oc2cc(Cl)c(O)cc2C1=O (nonaromatic ring conformer: 70.68517914187713 kcal/mol)

>  <smiles>  (13) 
COc1ccccc1C=C1Oc2cc(Cl)c(O)cc2C1=O

>  <score_type>  (13) 
oracle

>  <origin>  (13) 
adg

>  <m_score__min__energy>  (13) 
-7.4299999999999997

>  <m_primary>  (13) 
energy

$$$$
13:0
     RDKit          3D

 50 52  0  0  0  0  0  0  0  0999 V2000
   56.8650   21.0830   43.0060 C   0  0  0  0  0  0  0  0  0  0  0  0
   55.9070   22.0920   43.3060 O   0  0  0  0  0  0  0  0  0  0  0  0
   56.1920   23.2710   44.0160 C   0  0  0  0  0  0  0  0  0  0  0  0
   57.0970   24.1820   43.4600 C   0  0  0  0  0  0  0  0  0  0  0  0
   57.3860   25.3860   44.1130 C   0  0  0  0  0  0  0  0  0  0  0  0
   56.7770   25.6900   45.3430 C   0  0  0  0  0  0  0  0  0  0  0  0
   57.0000   27.0260   46.0040 C   0  0  0  0  0  0  0  0  0  0  0  0
   57.3160   28.0200   44.9810 N   0  0  0  0  0  0  0  0  0  0  0  0
   56.5790   29.2400   44.8470 C   0  0  0  0  0  0  0  0  0  0  0  0
   55.3190   29.1960   44.7890 O   0  0  0  0  0  0  0  0  0  0  0  0
   57.2760   30.5410   44.7200 C   0  0  0  0  0  0  0  0  0  0  0  0
   57.1890   31.2400   43.5060 C   0  0  0  0  0  0  0  0  0  0  0  0
   57.7390   32.5190   43.3870 C   0  0  0  0  0  0  0  0  0  0  0  0
   58.3680   33.1180   44.4800 C   0  0  0  0  0  0  0  0  0  0  0  0
   58.4790   32.4230   45.6860 C   0  0  0  0  0  0  0  0  0  0  0  0
   57.9770   31.1100   45.8050 C   0  0  0  0  0  0  0  0  0  0  0  0
   58.1800   30.3290   46.9940 N   0  0  0  0  0  0  0  0  0  0  0  0
   59.6890   30.1100   47.8320 S   0  0  0  0  0  0  0  0  0  0  0  0
   60.6860   29.4630   46.9100 O   0  0  0  0  0  0  0  0  0  0  0  0
   59.5200   29.2400   49.0490 O   0  0  0  0  0  0  0  0  0  0  0  0
   60.2710   31.6760   48.3820 C   0  0  0  0  0  0  0  0  0  0  0  0
   61.4160   32.2590   47.8230 C   0  0  0  0  0  0  0  0  0  0  0  0
   61.8690   33.4980   48.2870 C   0  0  0  0  0  0  0  0  0  0  0  0
   61.1770   34.1650   49.3030 C   0  0  0  0  0  0  0  0  0  0  0  0
   60.0090   33.5990   49.8530 C   0  0  0  0  0  0  0  0  0  0  0  0
   59.2430   34.2500   50.8330 O   0  0  0  0  0  0  0  0  0  0  0  0
   58.9680   33.7180   52.1230 C   0  0  0  0  0  0  0  0  0  0  0  0
   59.5760   32.3490   49.3960 C   0  0  0  0  0  0  0  0  0  0  0  0
   55.8890   24.7650   45.9130 C   0  0  0  0  0  0  0  0  0  0  0  0
   55.5930   23.5680   45.2540 C   0  0  0  0  0  0  0  0  0  0  0  0
   57.2623   20.6645   43.9425 H   0  0  0  0  0  0  0  0  0  0  0  0
   56.3852   20.2839   42.4218 H   0  0  0  0  0  0  0  0  0  0  0  0
   57.6879   21.5207   42.4218 H   0  0  0  0  0  0  0  0  0  0  0  0
   57.5853   23.9501   42.5020 H   0  0  0  0  0  0  0  0  0  0  0  0
   58.0930   26.0976   43.6615 H   0  0  0  0  0  0  0  0  0  0  0  0
   56.0887   27.3276   46.5413 H   0  0  0  0  0  0  0  0  0  0  0  0
   57.8339   26.9513   46.7175 H   0  0  0  0  0  0  0  0  0  0  0  0
   56.6853   30.7786   42.6438 H   0  0  0  0  0  0  0  0  0  0  0  0
   57.6762   33.0557   42.4289 H   0  0  0  0  0  0  0  0  0  0  0  0
   58.7755   34.1359   44.3913 H   0  0  0  0  0  0  0  0  0  0  0  0
   58.9617   32.9031   46.5500 H   0  0  0  0  0  0  0  0  0  0  0  0
   61.9591   31.7416   47.0184 H   0  0  0  0  0  0  0  0  0  0  0  0
   62.7726   33.9495   47.8514 H   0  0  0  0  0  0  0  0  0  0  0  0
   61.5449   35.1331   49.6736 H   0  0  0  0  0  0  0  0  0  0  0  0
   59.3291   34.4165   52.8923 H   0  0  0  0  0  0  0  0  0  0  0  0
   57.8833   33.5755   52.2372 H   0  0  0  0  0  0  0  0  0  0  0  0
   59.4790   32.7506   52.2372 H   0  0  0  0  0  0  0  0  0  0  0  0
   58.6796   31.8894   49.8379 H   0  0  0  0  0  0  0  0  0  0  0  0
   55.4226   24.9832   46.8850 H   0  0  0  0  0  0  0  0  0  0  0  0
   54.8880   22.8546   45.7058 H   0  0  0  0  0  0  0  0  0  0  0  0
  1  2  1  0
  2  3  1  0
  3  4  2  0
  4  5  1  0
  5  6  2  0
  6  7  1  0
  7  8  1  0
  8  9  1  0
  9 10  2  0
  9 11  1  0
 11 12  2  0
 12 13  1  0
 13 14  2  0
 14 15  1  0
 15 16  2  0
 16 17  1  0
 17 18  1  0
 18 19  2  0
 18 20  2  0
 18 21  1  0
 21 22  2  0
 22 23  1  0
 23 24  2  0
 24 25  1  0
 25 26  1  0
 26 27  1  0
 25 28  2  0
  6 29  1  0
 29 30  2  0
 30  3  1  0
 16 11  1  0
 28 21  1  0
  1 31  1  0
  1 32  1  0
  1 33  1  0
  4 34  1  0
  5 35  1  0
  7 36  1  0
  7 37  1  0
 12 38  1  0
 13 39  1  0
 14 40  1  0
 15 41  1  0
 22 42  1  0
 23 43  1  0
 24 44  1  0
 27 45  1  0
 27 46  1  0
 27 47  1  0
 28 48  1  0
 29 49  1  0
 30 50  1  0
M  CHG  2   8  -1  17  -1
M  END
>  <UniqueID>  (14) 
13

>  <SMILES>  (14) 
COc1ccc(C[N-]C(=O)c2ccccc2[N-]S(=O)(=O)c2cccc(OC)c2)cc1

>  <Energy>  (14) 
62.62647941046177

>  <Genealogy>  (14) 
COc1ccc(C[N-]C(=O)c2ccccc2[N-]S(=O)(=O)c2cccc(OC)c2)cc1 (protonated)
COc1ccc(C[N-]C(=O)c2ccccc2[N-]S(=O)(=O)c2cccc(OC)c2)cc1 (3D coordinates assigned)
COc1ccc(C[N-]C(=O)c2ccccc2[N-]S(=O)(=O)c2cccc(OC)c2)cc1 (optimized conformer: 62.62647941046177 kcal/mol)

>  <smiles>  (14) 
COc1ccc(CNC(=O)c2ccccc2NS(=O)(=O)c2cccc(OC)c2)cc1

>  <score_type>  (14) 
oracle

>  <origin>  (14) 
adg

>  <m_score__min__energy>  (14) 
-12.19

>  <m_primary>  (14) 
energy

$$$$
14:0
     RDKit          3D

 52 55  0  0  0  0  0  0  0  0999 V2000
   59.3830   33.7210   49.7340 O   0  0  0  0  0  0  0  0  0  0  0  0
   58.9160   32.9370   48.8650 C   0  0  0  0  0  0  0  0  0  0  0  0
   58.6730   31.5550   49.1690 N   0  0  0  0  0  0  0  0  0  0  0  0
   58.1610   31.0600   50.2590 C   0  0  0  0  0  0  0  0  0  0  0  0
   58.1400   29.7320   50.5000 N   0  0  0  0  0  0  0  0  0  0  0  0
   57.5840   29.4190   51.6700 N   0  0  0  0  0  0  0  0  0  0  0  0
   57.1560   30.4910   52.3740 C   0  0  0  0  0  0  0  0  0  0  0  0
   57.4660   31.9200   51.5360 S   0  0  0  0  0  0  0  0  0  0  0  0
   58.6000   33.4760   47.4870 C   0  0  2  0  0  0  0  0  0  0  0  0
   57.7720   32.4420   46.6940 C   0  0  0  0  0  0  0  0  0  0  0  0
   57.5190   32.8410   45.2120 C   0  0  2  0  0  0  0  0  0  0  0  0
   58.0700   31.8080   44.3120 N   0  0  0  0  0  0  0  0  0  0  0  0
   57.1640   30.3240   44.4160 S   0  0  0  0  0  0  0  0  0  0  0  0
   55.7580   30.6390   44.8410 O   0  0  0  0  0  0  0  0  0  0  0  0
   57.1320   29.6510   43.0720 O   0  0  0  0  0  0  0  0  0  0  0  0
   57.8760   29.2290   45.5920 C   0  0  0  0  0  0  0  0  0  0  0  0
   57.4080   27.9640   45.9280 C   0  0  0  0  0  0  0  0  0  0  0  0
   58.1600   27.3120   46.8540 N   0  0  0  0  0  0  0  0  0  0  0  0
   59.2230   28.0490   47.2450 C   0  0  0  0  0  0  0  0  0  0  0  0
   60.3960   27.5040   48.4240 Cl  0  0  0  0  0  0  0  0  0  0  0  0
   59.2780   29.5390   46.4660 S   0  0  0  0  0  0  0  0  0  0  0  0
   58.1230   34.2230   44.8780 C   0  0  0  0  0  0  0  0  0  0  0  0
   59.5940   34.3020   45.3060 C   0  0  0  0  0  0  0  0  0  0  0  0
   59.7970   33.8620   46.7010 N   0  0  0  0  0  0  0  0  0  0  0  0
   61.0690   34.1720   47.3180 C   0  0  0  0  0  0  0  0  0  0  0  0
   61.1120   34.9310   48.3220 O   0  0  0  0  0  0  0  0  0  0  0  0
   62.3550   33.7480   46.7170 C   0  0  0  0  0  0  0  0  0  0  0  0
   63.2400   32.9070   47.2770 C   0  0  0  0  0  0  0  0  0  0  0  0
   62.9930   32.1000   48.4890 C   0  0  0  0  0  0  0  0  0  0  0  0
   63.8880   32.1270   49.5690 C   0  0  0  0  0  0  0  0  0  0  0  0
   63.6450   31.3460   50.7040 C   0  0  0  0  0  0  0  0  0  0  0  0
   62.5240   30.5160   50.7570 C   0  0  0  0  0  0  0  0  0  0  0  0
   61.6490   30.4550   49.6680 C   0  0  0  0  0  0  0  0  0  0  0  0
   61.8900   31.2330   48.5310 C   0  0  0  0  0  0  0  0  0  0  0  0
   56.6712   30.4377   53.3600 H   0  0  0  0  0  0  0  0  0  0  0  0
   58.0223   34.3983   47.6470 H   0  0  0  0  0  0  0  0  0  0  0  0
   58.3107   31.4830   46.7075 H   0  0  0  0  0  0  0  0  0  0  0  0
   56.7875   32.3799   47.1808 H   0  0  0  0  0  0  0  0  0  0  0  0
   56.4315   32.9130   45.0629 H   0  0  0  0  0  0  0  0  0  0  0  0
   58.0020   32.1160   43.3160 H   0  0  0  0  0  0  0  0  0  0  0  0
   56.5032   27.5263   45.4812 H   0  0  0  0  0  0  0  0  0  0  0  0
   58.0551   34.3918   43.7932 H   0  0  0  0  0  0  0  0  0  0  0  0
   57.5585   34.9921   45.4256 H   0  0  0  0  0  0  0  0  0  0  0  0
   60.1905   33.6590   44.6421 H   0  0  0  0  0  0  0  0  0  0  0  0
   59.9084   35.3538   45.2361 H   0  0  0  0  0  0  0  0  0  0  0  0
   62.6066   34.1570   45.7273 H   0  0  0  0  0  0  0  0  0  0  0  0
   64.2246   32.8120   46.7958 H   0  0  0  0  0  0  0  0  0  0  0  0
   64.7835   32.7642   49.5233 H   0  0  0  0  0  0  0  0  0  0  0  0
   64.3389   31.3861   51.5566 H   0  0  0  0  0  0  0  0  0  0  0  0
   62.3291   29.9106   51.6545 H   0  0  0  0  0  0  0  0  0  0  0  0
   60.7702   29.7944   49.7056 H   0  0  0  0  0  0  0  0  0  0  0  0
   61.2129   31.1652   47.6668 H   0  0  0  0  0  0  0  0  0  0  0  0
  1  2  2  0
  2  3  1  0
  3  4  2  3
  4  5  1  0
  5  6  1  0
  6  7  2  0
  7  8  1  0
  2  9  1  0
  9 10  1  0
 10 11  1  0
 11 12  1  0
 12 13  1  0
 13 14  2  0
 13 15  2  0
 13 16  1  0
 16 17  2  0
 17 18  1  0
 18 19  2  0
 19 20  1  0
 19 21  1  0
 11 22  1  0
 22 23  1  0
 23 24  1  0
 24 25  1  0
 25 26  2  0
 25 27  1  0
 27 28  2  3
 28 29  1  0
 29 30  2  0
 30 31  1  0
 31 32  2  0
 32 33  1  0
 33 34  2  0
  8  4  1  0
 24  9  1  0
 34 29  1  0
 21 16  1  0
  7 35  1  0
  9 36  1  1
 10 37  1  0
 10 38  1  0
 11 39  1  1
 12 40  1  0
 17 41  1  0
 22 42  1  0
 22 43  1  0
 23 44  1  0
 23 45  1  0
 27 46  1  0
 28 47  1  0
 30 48  1  0
 31 49  1  0
 32 50  1  0
 33 51  1  0
 34 52  1  0
M  CHG  1   5  -1
M  END
>  <UniqueID>  (15) 
14

>  <SMILES>  (15) 
O=C(N=c1[n-]ncs1)[C@@H]1C[C@H](NS(=O)(=O)c2cnc(Cl)s2)CCN1C(=O)C=Cc1ccccc1

>  <Energy>  (15) 
135.22692393686734

>  <Genealogy>  (15) 
O=C(N=c1[n-]ncs1)C1CC(NS(=O)(=O)c2cnc(Cl)s2)CCN1C(=O)C=Cc1ccccc1 (protonated)
O=C(N=c1[n-]ncs1)[C@@H]1C[C@H](NS(=O)(=O)c2cnc(Cl)s2)CCN1C(=O)C=Cc1ccccc1 (chirality)
O=C(N=c1[n-]ncs1)[C@@H]1C[C@H](NS(=O)(=O)c2cnc(Cl)s2)CCN1C(=O)C=Cc1ccccc1 (3D coordinates assigned)
O=C(N=c1[n-]ncs1)[C@@H]1C[C@H](NS(=O)(=O)c2cnc(Cl)s2)CCN1C(=O)C=Cc1ccccc1 (nonaromatic ring conformer: 135.22692393686734 kcal/mol)

>  <smiles>  (15) 
O=C(N=c1[nH]ncs1)C1CC(NS(=O)(=O)c2cnc(Cl)s2)CCN1C(=O)C=Cc1ccccc1

>  <score_type>  (15) 
oracle

>  <origin>  (15) 
adg

>  <m_score__min__energy>  (15) 
-12

>  <m_primary>  (15) 
energy

$$$$
15:0
     RDKit          3D

 32 33  0  0  0  0  0  0  0  0999 V2000
   60.4270   32.9930   49.8050 C   0  0  0  0  0  0  0  0  0  0  0  0
   59.5100   33.8450   49.1280 O   0  0  0  0  0  0  0  0  0  0  0  0
   59.0850   33.6630   47.8020 C   0  0  0  0  0  0  0  0  0  0  0  0
   57.7700   33.2790   47.4850 C   0  0  0  0  0  0  0  0  0  0  0  0
   57.3870   33.0960   46.1550 C   0  0  0  0  0  0  0  0  0  0  0  0
   58.3110   33.2800   45.1190 C   0  0  0  0  0  0  0  0  0  0  0  0
   57.8690   33.0900   43.7180 C   0  0  0  0  0  0  0  0  0  0  0  0
   57.6130   31.9290   43.1790 N   0  0  0  0  0  0  0  0  0  0  0  0
   57.1850   30.7380   43.8580 C   0  0  0  0  0  0  0  0  0  0  0  0
   55.8300   30.4030   43.8710 C   0  0  0  0  0  0  0  0  0  0  0  0
   55.4090   29.2790   44.5110 N   0  0  0  0  0  0  0  0  0  0  0  0
   56.2940   28.4790   45.1650 C   0  0  0  0  0  0  0  0  0  0  0  0
   55.8930   27.4370   45.7480 O   0  0  0  0  0  0  0  0  0  0  0  0
   57.6110   28.8050   45.1980 N   0  0  0  0  0  0  0  0  0  0  0  0
   58.0750   29.9170   44.5720 C   0  0  0  0  0  0  0  0  0  0  0  0
   59.2980   30.2100   44.6550 O   0  0  0  0  0  0  0  0  0  0  0  0
   59.6140   33.7040   45.4300 C   0  0  0  0  0  0  0  0  0  0  0  0
   60.0120   33.8780   46.7690 C   0  0  0  0  0  0  0  0  0  0  0  0
   61.3170   34.2620   47.1130 O   0  0  0  0  0  0  0  0  0  0  0  0
   62.4900   33.5340   46.7650 C   0  0  0  0  0  0  0  0  0  0  0  0
   60.3018   33.1093   50.8916 H   0  0  0  0  0  0  0  0  0  0  0  0
   60.2327   31.9476   49.5233 H   0  0  0  0  0  0  0  0  0  0  0  0
   61.4553   33.2635   49.5233 H   0  0  0  0  0  0  0  0  0  0  0  0
   57.0378   33.1217   48.2907 H   0  0  0  0  0  0  0  0  0  0  0  0
   56.3526   32.8054   45.9193 H   0  0  0  0  0  0  0  0  0  0  0  0
   57.7486   33.9857   43.0909 H   0  0  0  0  0  0  0  0  0  0  0  0
   55.1004   31.0500   43.3621 H   0  0  0  0  0  0  0  0  0  0  0  0
   54.3940   29.0320   44.4950 H   0  0  0  0  0  0  0  0  0  0  0  0
   60.3303   33.9020   44.6190 H   0  0  0  0  0  0  0  0  0  0  0  0
   63.0075   33.2128   47.6810 H   0  0  0  0  0  0  0  0  0  0  0  0
   62.2108   32.6502   46.1726 H   0  0  0  0  0  0  0  0  0  0  0  0
   63.1580   34.1765   46.1726 H   0  0  0  0  0  0  0  0  0  0  0  0
  1  2  1  0
  2  3  1  0
  3  4  2  0
  4  5  1  0
  5  6  2  0
  6  7  1  0
  7  8  2  3
  8  9  1  0
  9 10  2  0
 10 11  1  0
 11 12  1  0
 12 13  2  0
 12 14  1  0
 14 15  1  0
 15 16  2  0
  6 17  1  0
 17 18  2  0
 18 19  1  0
 19 20  1  0
 18  3  1  0
 15  9  1  0
  1 21  1  0
  1 22  1  0
  1 23  1  0
  4 24  1  0
  5 25  1  0
  7 26  1  0
 10 27  1  0
 11 28  1  0
 17 29  1  0
 20 30  1  0
 20 31  1  0
 20 32  1  0
M  CHG  1  14  -1
M  END
>  <UniqueID>  (16) 
15

>  <SMILES>  (16) 
COc1ccc(C=Nc2c[nH]c(=O)[n-]c2=O)cc1OC

>  <Energy>  (16) 
44.321438701465674

>  <Genealogy>  (16) 
COc1ccc(C=Nc2c[nH]c(=O)[n-]c2=O)cc1OC (protonated)
COc1ccc(C=Nc2c[nH]c(=O)[n-]c2=O)cc1OC (3D coordinates assigned)
COc1ccc(C=Nc2c[nH]c(=O)[n-]c2=O)cc1OC (optimized conformer: 44.321438701465674 kcal/mol)

>  <smiles>  (16) 
COc1ccc(C=Nc2c[nH]c(=O)[nH]c2=O)cc1OC

>  <score_type>  (16) 
oracle

>  <origin>  (16) 
adg

>  <m_score__min__energy>  (16) 
-8.0999999999999996

>  <m_primary>  (16) 
energy

$$$$
16:0
     RDKit          3D

 45 47  0  0  0  0  0  0  0  0999 V2000
   57.1670   25.1530   44.6530 C   0  0  0  0  0  0  0  0  0  0  0  0
   56.1740   25.8880   45.9370 S   0  0  0  0  0  0  0  0  0  0  0  0
   54.8420   25.1920   45.9660 O   0  0  0  0  0  0  0  0  0  0  0  0
   56.8320   25.7210   47.2760 O   0  0  0  0  0  0  0  0  0  0  0  0
   55.9100   27.5710   45.6170 N   0  0  0  0  0  0  0  0  0  0  0  0
   56.9260   28.5670   45.4370 C   0  0  0  0  0  0  0  0  0  0  0  0
   56.9600   29.2680   44.2250 C   0  0  0  0  0  0  0  0  0  0  0  0
   57.9350   30.2400   43.9960 C   0  0  0  0  0  0  0  0  0  0  0  0
   58.8930   30.5160   44.9730 C   0  0  0  0  0  0  0  0  0  0  0  0
   58.8840   29.8200   46.1950 C   0  0  0  0  0  0  0  0  0  0  0  0
   59.9340   30.0850   47.2110 C   0  0  0  0  0  0  0  0  0  0  0  0
   60.1620   29.1700   48.2540 C   0  0  0  0  0  0  0  0  0  0  0  0
   61.1180   29.4400   49.2350 C   0  0  0  0  0  0  0  0  0  0  0  0
   61.8540   30.6240   49.1900 C   0  0  0  0  0  0  0  0  0  0  0  0
   61.6480   31.5420   48.1530 C   0  0  0  0  0  0  0  0  0  0  0  0
   62.6160   33.0150   48.0910 S   0  0  0  0  0  0  0  0  0  0  0  0
   63.1880   33.1460   46.7080 O   0  0  0  0  0  0  0  0  0  0  0  0
   63.7450   32.9540   49.0820 O   0  0  0  0  0  0  0  0  0  0  0  0
   61.6270   34.4010   48.4300 N   0  0  0  0  0  0  0  0  0  0  0  0
   60.1950   34.3860   48.4860 C   0  0  0  0  0  0  0  0  0  0  0  0
   59.6290   34.5440   49.6000 O   0  0  0  0  0  0  0  0  0  0  0  0
   59.3680   34.2100   47.2790 C   0  0  0  0  0  0  0  0  0  0  0  0
   59.7110   34.8680   46.0870 C   0  0  0  0  0  0  0  0  0  0  0  0
   58.9040   34.7370   44.9540 C   0  0  0  0  0  0  0  0  0  0  0  0
   57.7530   33.9460   45.0010 C   0  0  0  0  0  0  0  0  0  0  0  0
   57.4150   33.2720   46.1780 C   0  0  0  0  0  0  0  0  0  0  0  0
   58.2230   33.3940   47.3130 C   0  0  0  0  0  0  0  0  0  0  0  0
   57.8680   32.7500   48.4540 F   0  0  0  0  0  0  0  0  0  0  0  0
   60.6900   31.2710   47.1650 C   0  0  0  0  0  0  0  0  0  0  0  0
   57.8860   28.8550   46.4260 C   0  0  0  0  0  0  0  0  0  0  0  0
   57.9720   24.5571   45.1078 H   0  0  0  0  0  0  0  0  0  0  0  0
   56.5367   24.5022   44.0292 H   0  0  0  0  0  0  0  0  0  0  0  0
   57.6053   25.9460   44.0292 H   0  0  0  0  0  0  0  0  0  0  0  0
   56.2126   29.0508   43.4477 H   0  0  0  0  0  0  0  0  0  0  0  0
   57.9486   30.7899   43.0434 H   0  0  0  0  0  0  0  0  0  0  0  0
   59.6595   31.2825   44.7860 H   0  0  0  0  0  0  0  0  0  0  0  0
   59.5834   28.2355   48.2973 H   0  0  0  0  0  0  0  0  0  0  0  0
   61.2913   28.7170   50.0457 H   0  0  0  0  0  0  0  0  0  0  0  0
   62.5983   30.8371   49.9714 H   0  0  0  0  0  0  0  0  0  0  0  0
   60.6181   35.4887   46.0450 H   0  0  0  0  0  0  0  0  0  0  0  0
   59.1751   35.2573   44.0235 H   0  0  0  0  0  0  0  0  0  0  0  0
   57.1127   33.8537   44.1114 H   0  0  0  0  0  0  0  0  0  0  0  0
   56.5121   32.6446   46.2116 H   0  0  0  0  0  0  0  0  0  0  0  0
   60.5286   31.9904   46.3487 H   0  0  0  0  0  0  0  0  0  0  0  0
   57.8557   28.3212   47.3873 H   0  0  0  0  0  0  0  0  0  0  0  0
  1  2  1  0
  2  3  2  0
  2  4  2  0
  2  5  1  0
  5  6  1  0
  6  7  2  0
  7  8  1  0
  8  9  2  0
  9 10  1  0
 10 11  1  0
 11 12  2  0
 12 13  1  0
 13 14  2  0
 14 15  1  0
 15 16  1  0
 16 17  2  0
 16 18  2  0
 16 19  1  0
 19 20  1  0
 20 21  2  0
 20 22  1  0
 22 23  2  0
 23 24  1  0
 24 25  2  0
 25 26  1  0
 26 27  2  0
 27 28  1  0
 15 29  2  0
 10 30  2  0
 30  6  1  0
 29 11  1  0
 27 22  1  0
  1 31  1  0
  1 32  1  0
  1 33  1  0
  7 34  1  0
  8 35  1  0
  9 36  1  0
 12 37  1  0
 13 38  1  0
 14 39  1  0
 23 40  1  0
 24 41  1  0
 25 42  1  0
 26 43  1  0
 29 44  1  0
 30 45  1  0
M  CHG  2   5  -1  19  -1
M  END
>  <UniqueID>  (17) 
16

>  <SMILES>  (17) 
CS(=O)(=O)[N-]c1cccc(-c2cccc(S(=O)(=O)[N-]C(=O)c3ccccc3F)c2)c1

>  <Energy>  (17) 
55.155091904406255

>  <Genealogy>  (17) 
CS(=O)(=O)[N-]c1cccc(-c2cccc(S(=O)(=O)[N-]C(=O)c3ccccc3F)c2)c1 (protonated)
CS(=O)(=O)[N-]c1cccc(-c2cccc(S(=O)(=O)[N-]C(=O)c3ccccc3F)c2)c1 (3D coordinates assigned)
CS(=O)(=O)[N-]c1cccc(-c2cccc(S(=O)(=O)[N-]C(=O)c3ccccc3F)c2)c1 (optimized conformer: 55.155091904406255 kcal/mol)

>  <smiles>  (17) 
CS(=O)(=O)Nc1cccc(-c2cccc(S(=O)(=O)NC(=O)c3ccccc3F)c2)c1

>  <score_type>  (17) 
oracle

>  <origin>  (17) 
adg

>  <m_score__min__energy>  (17) 
-12.65

>  <m_primary>  (17) 
energy

$$$$
17:0
     RDKit          3D

 62 65  0  0  0  0  0  0  0  0999 V2000
   60.5930   29.9500   45.9610 C   0  0  0  0  0  0  0  0  0  0  0  0
   59.4200   30.7210   45.7330 O   0  0  0  0  0  0  0  0  0  0  0  0
   58.4810   30.4640   44.7230 C   0  0  0  0  0  0  0  0  0  0  0  0
   57.9390   29.1810   44.5160 C   0  0  0  0  0  0  0  0  0  0  0  0
   57.0100   28.9680   43.4980 C   0  0  0  0  0  0  0  0  0  0  0  0
   56.6130   30.0250   42.6800 C   0  0  0  0  0  0  0  0  0  0  0  0
   57.1450   31.2990   42.8730 C   0  0  0  0  0  0  0  0  0  0  0  0
   58.0890   31.5270   43.8920 C   0  0  0  0  0  0  0  0  0  0  0  0
   58.6760   32.7860   44.0980 O   0  0  0  0  0  0  0  0  0  0  0  0
   58.1200   33.8370   44.8880 C   0  0  0  0  0  0  0  0  0  0  0  0
   58.6170   33.7620   46.3100 C   0  0  0  0  0  0  0  0  0  0  0  0
   58.0760   32.8220   47.2020 C   0  0  0  0  0  0  0  0  0  0  0  0
   58.5450   32.7390   48.5150 C   0  0  0  0  0  0  0  0  0  0  0  0
   59.5600   33.6040   48.9640 C   0  0  0  0  0  0  0  0  0  0  0  0
   60.0850   33.5290   50.3500 C   0  0  0  0  0  0  0  0  0  0  0  0
   59.4460   34.1240   51.2630 O   0  0  0  0  0  0  0  0  0  0  0  0
   61.3410   32.8600   50.6500 N   0  0  1  0  0  0  0  0  0  0  0  0
   62.4070   33.8430   50.9700 C   0  0  0  0  0  0  0  0  0  0  0  0
   63.7790   33.5960   50.2980 C   0  0  0  0  0  0  0  0  0  0  0  0
   63.6540   33.1940   48.8990 N   0  0  0  0  0  0  0  0  0  0  0  0
   63.3750   33.9840   47.8460 C   0  0  0  0  0  0  0  0  0  0  0  0
   63.2200   33.1780   46.7420 C   0  0  0  0  0  0  0  0  0  0  0  0
   63.3750   31.8860   47.1010 N   0  0  0  0  0  0  0  0  0  0  0  0
   63.6250   31.9340   48.4260 C   0  0  0  0  0  0  0  0  0  0  0  0
   61.2050   31.8020   51.6850 C   0  0  0  0  0  0  0  0  0  0  0  0
   61.2170   30.3760   51.0830 C   0  0  1  0  0  0  0  0  0  0  0  0
   59.9410   29.6170   51.4210 C   0  0  0  0  0  0  0  0  0  0  0  0
   59.1210   29.7520   50.1790 C   0  0  0  0  0  0  0  0  0  0  0  0
   60.1670   29.9410   49.1030 C   0  0  0  0  0  0  0  0  0  0  0  0
   61.3490   30.4400   49.6790 O   0  0  0  0  0  0  0  0  0  0  0  0
   60.0640   34.5750   48.0830 C   0  0  0  0  0  0  0  0  0  0  0  0
   59.6000   34.6530   46.7680 C   0  0  0  0  0  0  0  0  0  0  0  0
   60.7565   29.8425   47.0435 H   0  0  0  0  0  0  0  0  0  0  0  0
   60.4716   28.9550   45.5079 H   0  0  0  0  0  0  0  0  0  0  0  0
   61.4582   30.4561   45.5079 H   0  0  0  0  0  0  0  0  0  0  0  0
   58.2493   28.3443   45.1592 H   0  0  0  0  0  0  0  0  0  0  0  0
   56.5895   27.9639   43.3400 H   0  0  0  0  0  0  0  0  0  0  0  0
   55.8778   29.8531   41.8800 H   0  0  0  0  0  0  0  0  0  0  0  0
   56.8258   32.1296   42.2263 H   0  0  0  0  0  0  0  0  0  0  0  0
   58.4112   34.8055   44.4553 H   0  0  0  0  0  0  0  0  0  0  0  0
   57.0250   33.7318   44.8924 H   0  0  0  0  0  0  0  0  0  0  0  0
   57.2768   32.1459   46.8641 H   0  0  0  0  0  0  0  0  0  0  0  0
   58.1185   31.9932   49.2020 H   0  0  0  0  0  0  0  0  0  0  0  0
   61.6750   32.3800   49.7850 H   0  0  0  0  0  0  0  0  0  0  0  0
   62.0533   34.8369   50.6584 H   0  0  0  0  0  0  0  0  0  0  0  0
   62.5842   33.7480   52.0515 H   0  0  0  0  0  0  0  0  0  0  0  0
   64.3676   34.5240   50.3469 H   0  0  0  0  0  0  0  0  0  0  0  0
   64.2721   32.7745   50.8384 H   0  0  0  0  0  0  0  0  0  0  0  0
   63.2865   35.0803   47.8647 H   0  0  0  0  0  0  0  0  0  0  0  0
   63.0031   33.5319   45.7233 H   0  0  0  0  0  0  0  0  0  0  0  0
   63.7871   31.0429   49.0502 H   0  0  0  0  0  0  0  0  0  0  0  0
   62.0416   31.8925   52.3935 H   0  0  0  0  0  0  0  0  0  0  0  0
   60.2347   31.9455   52.1829 H   0  0  0  0  0  0  0  0  0  0  0  0
   62.0740   29.8427   51.5201 H   0  0  0  0  0  0  0  0  0  0  0  0
   60.1568   28.5604   51.6377 H   0  0  0  0  0  0  0  0  0  0  0  0
   59.4334   30.0057   52.3161 H   0  0  0  0  0  0  0  0  0  0  0  0
   58.5256   28.8451   49.9973 H   0  0  0  0  0  0  0  0  0  0  0  0
   58.3927   30.5750   50.2264 H   0  0  0  0  0  0  0  0  0  0  0  0
   60.3744   28.9748   48.6198 H   0  0  0  0  0  0  0  0  0  0  0  0
   59.7957   30.6547   48.3528 H   0  0  0  0  0  0  0  0  0  0  0  0
   60.8318   35.2810   48.4323 H   0  0  0  0  0  0  0  0  0  0  0  0
   60.0068   35.4162   46.0882 H   0  0  0  0  0  0  0  0  0  0  0  0
  1  2  1  0
  2  3  1  0
  3  4  2  0
  4  5  1  0
  5  6  2  0
  6  7  1  0
  7  8  2  0
  8  9  1  0
  9 10  1  0
 10 11  1  0
 11 12  2  0
 12 13  1  0
 13 14  2  0
 14 15  1  0
 15 16  2  0
 15 17  1  0
 17 18  1  0
 18 19  1  0
 19 20  1  0
 20 21  1  0
 21 22  2  0
 22 23  1  0
 23 24  2  0
 17 25  1  0
 25 26  1  0
 26 27  1  0
 27 28  1  0
 28 29  1  0
 29 30  1  0
 14 31  1  0
 31 32  2  0
  8  3  1  0
 32 11  1  0
 24 20  1  0
 30 26  1  0
  1 33  1  0
  1 34  1  0
  1 35  1  0
  4 36  1  0
  5 37  1  0
  6 38  1  0
  7 39  1  0
 10 40  1  0
 10 41  1  0
 12 42  1  0
 13 43  1  0
 17 44  1  6
 18 45  1  0
 18 46  1  0
 19 47  1  0
 19 48  1  0
 21 49  1  0
 22 50  1  0
 24 51  1  0
 25 52  1  0
 25 53  1  0
 26 54  1  1
 27 55  1  0
 27 56  1  0
 28 57  1  0
 28 58  1  0
 29 59  1  0
 29 60  1  0
 31 61  1  0
 32 62  1  0
M  CHG  1  17   1
M  END
>  <UniqueID>  (18) 
17

>  <SMILES>  (18) 
COc1ccccc1OCc1ccc(C(=O)[N@@H+](CCn2ccnc2)C[C@H]2CCCO2)cc1

>  <Energy>  (18) 
101.4824595540048

>  <Genealogy>  (18) 
COc1ccccc1OCc1ccc(C(=O)[NH+](CCn2ccnc2)CC2CCCO2)cc1 (protonated)
COc1ccccc1OCc1ccc(C(=O)[N@@H+](CCn2ccnc2)C[C@H]2CCCO2)cc1 (chirality)
COc1ccccc1OCc1ccc(C(=O)[N@@H+](CCn2ccnc2)C[C@H]2CCCO2)cc1 (3D coordinates assigned)
COc1ccccc1OCc1ccc(C(=O)[N@@H+](CCn2ccnc2)C[C@H]2CCCO2)cc1 (nonaromatic ring conformer: 101.4824595540048 kcal/mol)

>  <smiles>  (18) 
COc1ccccc1OCc1ccc(C(=O)N(CCn2ccnc2)CC2CCCO2)cc1

>  <score_type>  (18) 
oracle

>  <origin>  (18) 
adg

>  <m_score__min__energy>  (18) 
-6.9299999999999997

>  <m_primary>  (18) 
energy

$$$$
18:0
     RDKit          3D

 31 32  0  0  0  0  0  0  0  0999 V2000
   58.3720   32.9500   42.6710 O   0  0  0  0  0  0  0  0  0  0  0  0
   58.0980   32.8040   43.8940 C   0  0  0  0  0  0  0  0  0  0  0  0
   58.0490   34.0370   44.7600 C   0  0  0  0  0  0  0  0  0  0  0  0
   58.7190   33.7940   46.0880 C   0  0  0  0  0  0  0  0  0  0  0  0
   60.0780   34.1050   46.2610 C   0  0  0  0  0  0  0  0  0  0  0  0
   60.7040   33.8800   47.4900 C   0  0  0  0  0  0  0  0  0  0  0  0
   59.9770   33.3570   48.5700 C   0  0  0  0  0  0  0  0  0  0  0  0
   60.6620   33.0790   49.8800 C   0  0  0  0  0  0  0  0  0  0  0  0
   61.4690   34.1650   50.2410 O   0  0  0  0  0  0  0  0  0  0  0  0
   58.6210   33.0420   48.3980 C   0  0  0  0  0  0  0  0  0  0  0  0
   57.9940   33.2670   47.1690 C   0  0  0  0  0  0  0  0  0  0  0  0
   57.8750   31.4330   44.4320 C   0  0  0  0  0  0  0  0  0  0  0  0
   58.9570   30.7080   44.9670 C   0  0  0  0  0  0  0  0  0  0  0  0
   58.7680   29.4230   45.4840 C   0  0  0  0  0  0  0  0  0  0  0  0
   57.4990   28.8420   45.4730 C   0  0  0  0  0  0  0  0  0  0  0  0
   56.4160   29.5440   44.9410 C   0  0  0  0  0  0  0  0  0  0  0  0
   55.1530   28.9640   44.9260 O   0  0  0  0  0  0  0  0  0  0  0  0
   56.5990   30.8310   44.4220 C   0  0  0  0  0  0  0  0  0  0  0  0
   58.5641   34.8600   44.2429 H   0  0  0  0  0  0  0  0  0  0  0  0
   56.9952   34.2945   44.9421 H   0  0  0  0  0  0  0  0  0  0  0  0
   60.6528   34.5282   45.4240 H   0  0  0  0  0  0  0  0  0  0  0  0
   61.7719   34.1141   47.6112 H   0  0  0  0  0  0  0  0  0  0  0  0
   59.9035   32.9144   50.6595 H   0  0  0  0  0  0  0  0  0  0  0  0
   61.2908   32.1826   49.7744 H   0  0  0  0  0  0  0  0  0  0  0  0
   62.3040   33.7850   50.6200 H   0  0  0  0  0  0  0  0  0  0  0  0
   58.0480   32.6157   49.2346 H   0  0  0  0  0  0  0  0  0  0  0  0
   56.9267   33.0299   47.0480 H   0  0  0  0  0  0  0  0  0  0  0  0
   59.9610   31.1572   44.9783 H   0  0  0  0  0  0  0  0  0  0  0  0
   59.6217   28.8683   45.9006 H   0  0  0  0  0  0  0  0  0  0  0  0
   57.3524   27.8319   45.8831 H   0  0  0  0  0  0  0  0  0  0  0  0
   55.7412   31.3774   44.0030 H   0  0  0  0  0  0  0  0  0  0  0  0
  1  2  2  0
  2  3  1  0
  3  4  1  0
  4  5  2  0
  5  6  1  0
  6  7  2  0
  7  8  1  0
  8  9  1  0
  7 10  1  0
 10 11  2  0
  2 12  1  0
 12 13  2  0
 13 14  1  0
 14 15  2  0
 15 16  1  0
 16 17  1  0
 16 18  2  0
 11  4  1  0
 18 12  1  0
  3 19  1  0
  3 20  1  0
  5 21  1  0
  6 22  1  0
  8 23  1  0
  8 24  1  0
  9 25  1  0
 10 26  1  0
 11 27  1  0
 13 28  1  0
 14 29  1  0
 15 30  1  0
 18 31  1  0
M  CHG  1  17  -1
M  END
>  <UniqueID>  (19) 
18

>  <SMILES>  (19) 
O=C(Cc1ccc(CO)cc1)c1cccc([O-])c1

>  <Energy>  (19) 
31.776212385803618

>  <Genealogy>  (19) 
O=C(Cc1ccc(CO)cc1)c1cccc([O-])c1 (protonated)
O=C(Cc1ccc(CO)cc1)c1cccc([O-])c1 (3D coordinates assigned)
O=C(Cc1ccc(CO)cc1)c1cccc([O-])c1 (optimized conformer: 31.776212385803618 kcal/mol)

>  <smiles>  (19) 
O=C(Cc1ccc(CO)cc1)c1cccc(O)c1

>  <score_type>  (19) 
oracle

>  <origin>  (19) 
adg

>  <m_score__min__energy>  (19) 
-10.199999999999999

>  <m_primary>  (19) 
energy

$$$$
19:0
     RDKit          3D

 29 30  0  0  0  0  0  0  0  0999 V2000
   56.6200   33.4710   46.2940 O   0  0  0  0  0  0  0  0  0  0  0  0
   57.7180   32.8950   46.0800 C   0  0  0  0  0  0  0  0  0  0  0  0
   58.1270   32.6010   44.6600 C   0  0  0  0  0  0  0  0  0  0  0  0
   58.0180   31.1300   44.3540 C   0  0  0  0  0  0  0  0  0  0  0  0
   58.9660   30.2240   44.8620 C   0  0  0  0  0  0  0  0  0  0  0  0
   58.8770   28.8640   44.5530 C   0  0  0  0  0  0  0  0  0  0  0  0
   57.8380   28.3950   43.7430 C   0  0  0  0  0  0  0  0  0  0  0  0
   57.7550   27.0770   43.4420 F   0  0  0  0  0  0  0  0  0  0  0  0
   56.8850   29.2880   43.2450 C   0  0  0  0  0  0  0  0  0  0  0  0
   56.9710   30.6490   43.5500 C   0  0  0  0  0  0  0  0  0  0  0  0
   58.5580   32.5720   47.1960 N   0  0  0  0  0  0  0  0  0  0  0  0
   59.9880   32.6230   47.1710 C   0  0  0  0  0  0  0  0  0  0  0  0
   60.6360   33.8110   46.8060 C   0  0  0  0  0  0  0  0  0  0  0  0
   59.7210   35.2430   46.3580 Cl  0  0  0  0  0  0  0  0  0  0  0  0
   62.0330   33.8450   46.7610 C   0  0  0  0  0  0  0  0  0  0  0  0
   62.7620   32.7420   47.0860 N   0  0  0  0  0  0  0  0  0  0  0  0
   64.1370   32.8120   47.0270 O   0  0  0  0  0  0  0  0  0  0  0  0
   62.1500   31.5840   47.4710 C   0  0  0  0  0  0  0  0  0  0  0  0
   60.7560   31.5030   47.5280 C   0  0  0  0  0  0  0  0  0  0  0  0
   60.0030   30.0140   48.0860 Cl  0  0  0  0  0  0  0  0  0  0  0  0
   57.4717   33.1593   43.9752 H   0  0  0  0  0  0  0  0  0  0  0  0
   59.1756   32.9066   44.5297 H   0  0  0  0  0  0  0  0  0  0  0  0
   59.7810   30.5873   45.5053 H   0  0  0  0  0  0  0  0  0  0  0  0
   59.6255   28.1612   44.9476 H   0  0  0  0  0  0  0  0  0  0  0  0
   56.0652   28.9185   42.6114 H   0  0  0  0  0  0  0  0  0  0  0  0
   56.2158   31.3467   43.1590 H   0  0  0  0  0  0  0  0  0  0  0  0
   62.5471   34.7700   46.4607 H   0  0  0  0  0  0  0  0  0  0  0  0
   64.6980   32.0110   46.7620 H   0  0  0  0  0  0  0  0  0  0  0  0
   62.7589   30.7078   47.7385 H   0  0  0  0  0  0  0  0  0  0  0  0
  1  2  2  0
  2  3  1  0
  3  4  1  0
  4  5  2  0
  5  6  1  0
  6  7  2  0
  7  8  1  0
  7  9  1  0
  9 10  2  0
  2 11  1  0
 11 12  1  0
 12 13  2  0
 13 14  1  0
 13 15  1  0
 15 16  2  0
 16 17  1  0
 16 18  1  0
 18 19  2  0
 19 20  1  0
 10  4  1  0
 19 12  1  0
  3 21  1  0
  3 22  1  0
  5 23  1  0
  6 24  1  0
  9 25  1  0
 10 26  1  0
 15 27  1  0
 17 28  1  0
 18 29  1  0
M  CHG  2  11  -1  16   1
M  END
>  <UniqueID>  (20) 
19

>  <SMILES>  (20) 
O=C(Cc1ccc(F)cc1)[N-]c1c(Cl)c[n+](O)cc1Cl

>  <Energy>  (20) 
33.93955683322997

>  <Genealogy>  (20) 
O=C(Cc1ccc(F)cc1)[N-]c1c(Cl)c[n+](O)cc1Cl (protonated)
O=C(Cc1ccc(F)cc1)[N-]c1c(Cl)c[n+](O)cc1Cl (3D coordinates assigned)
O=C(Cc1ccc(F)cc1)[N-]c1c(Cl)c[n+](O)cc1Cl (optimized conformer: 33.93955683322997 kcal/mol)

>  <smiles>  (20) 
O=C(Cc1ccc(F)cc1)Nc1c(Cl)c[n+]([O-])cc1Cl

>  <score_type>  (20) 
oracle

>  <origin>  (20) 
adg

>  <m_score__min__energy>  (20) 
-6.9800000000000004

>  <m_primary>  (20) 
energy

$$$$
20:0
     RDKit          3D

 48 52  0  0  0  0  0  0  0  0999 V2000
   58.3340   27.4540   47.8930 O   0  0  0  0  0  0  0  0  0  0  0  0
   58.7470   27.9360   46.8040 C   0  0  0  0  0  0  0  0  0  0  0  0
   58.5920   27.1910   45.5840 N   0  0  0  0  0  0  0  0  0  0  0  0
   57.6930   26.0800   45.4360 C   0  0  0  0  0  0  0  0  0  0  0  0
   58.1520   24.8100   44.9880 C   0  0  0  0  0  0  0  0  0  0  0  0
   57.2620   23.7270   44.8740 C   0  0  0  0  0  0  0  0  0  0  0  0
   55.9330   23.9380   45.2260 C   0  0  0  0  0  0  0  0  0  0  0  0
   55.4900   25.1410   45.6710 C   0  0  0  0  0  0  0  0  0  0  0  0
   56.3370   26.2380   45.7980 C   0  0  0  0  0  0  0  0  0  0  0  0
   54.1400   25.0590   45.9510 O   0  0  0  0  0  0  0  0  0  0  0  0
   53.7080   23.7220   45.6630 C   0  0  0  0  0  0  0  0  0  0  0  0
   54.8840   23.0400   45.2030 O   0  0  0  0  0  0  0  0  0  0  0  0
   59.4510   29.2360   46.8030 C   0  0  0  0  0  0  0  0  0  0  0  0
   60.7120   29.6340   47.8470 S   0  0  0  0  0  0  0  0  0  0  0  0
   60.8070   31.2290   47.3160 C   0  0  0  0  0  0  0  0  0  0  0  0
   61.7240   32.2240   47.8120 N   0  0  0  0  0  0  0  0  0  0  0  0
   61.2220   33.5310   48.2600 C   0  0  0  0  0  0  0  0  0  0  0  0
   62.2250   34.1950   49.2080 C   0  0  0  0  0  0  0  0  0  0  0  0
   63.5200   34.2040   48.6440 O   0  0  0  0  0  0  0  0  0  0  0  0
   63.9920   32.8770   48.5280 C   0  0  0  0  0  0  0  0  0  0  0  0
   63.1550   32.0900   47.5140 C   0  0  0  0  0  0  0  0  0  0  0  0
   59.8950   31.4750   46.3490 N   0  0  0  0  0  0  0  0  0  0  0  0
   59.1430   30.3820   46.0490 C   0  0  0  0  0  0  0  0  0  0  0  0
   58.1320   30.4440   44.9720 C   0  0  0  0  0  0  0  0  0  0  0  0
   56.9680   29.6570   45.0260 C   0  0  0  0  0  0  0  0  0  0  0  0
   56.0360   29.7060   43.9840 C   0  0  0  0  0  0  0  0  0  0  0  0
   56.2670   30.5250   42.8750 C   0  0  0  0  0  0  0  0  0  0  0  0
   57.4330   31.2900   42.8020 C   0  0  0  0  0  0  0  0  0  0  0  0
   58.3670   31.2460   43.8420 C   0  0  0  0  0  0  0  0  0  0  0  0
   59.2110   27.4240   44.7750 H   0  0  0  0  0  0  0  0  0  0  0  0
   59.2123   24.6740   44.7285 H   0  0  0  0  0  0  0  0  0  0  0  0
   57.6059   22.7447   44.5179 H   0  0  0  0  0  0  0  0  0  0  0  0
   55.9605   27.2022   46.1703 H   0  0  0  0  0  0  0  0  0  0  0  0
   53.3120   23.2405   46.5693 H   0  0  0  0  0  0  0  0  0  0  0  0
   52.9010   23.7016   44.9158 H   0  0  0  0  0  0  0  0  0  0  0  0
   61.0679   34.1789   47.3845 H   0  0  0  0  0  0  0  0  0  0  0  0
   60.2720   33.3829   48.7944 H   0  0  0  0  0  0  0  0  0  0  0  0
   61.9083   35.2308   49.3998 H   0  0  0  0  0  0  0  0  0  0  0  0
   62.2540   33.6226   50.1469 H   0  0  0  0  0  0  0  0  0  0  0  0
   65.0401   32.8946   48.1946 H   0  0  0  0  0  0  0  0  0  0  0  0
   63.9113   32.3864   49.5092 H   0  0  0  0  0  0  0  0  0  0  0  0
   63.3519   32.4780   46.5037 H   0  0  0  0  0  0  0  0  0  0  0  0
   63.4321   31.0271   47.5736 H   0  0  0  0  0  0  0  0  0  0  0  0
   56.7897   29.0006   45.8905 H   0  0  0  0  0  0  0  0  0  0  0  0
   55.1201   29.0992   44.0374 H   0  0  0  0  0  0  0  0  0  0  0  0
   55.5300   30.5669   42.0595 H   0  0  0  0  0  0  0  0  0  0  0  0
   57.6171   31.9282   41.9252 H   0  0  0  0  0  0  0  0  0  0  0  0
   59.2894   31.8416   43.7753 H   0  0  0  0  0  0  0  0  0  0  0  0
  1  2  2  0
  2  3  1  0
  3  4  1  0
  4  5  2  0
  5  6  1  0
  6  7  2  0
  7  8  1  0
  8  9  2  0
  8 10  1  0
 10 11  1  0
 11 12  1  0
  2 13  1  0
 13 14  1  0
 14 15  1  0
 15 16  1  0
 16 17  1  0
 17 18  1  0
 18 19  1  0
 19 20  1  0
 20 21  1  0
 15 22  2  0
 22 23  1  0
 23 24  1  0
 24 25  2  0
 25 26  1  0
 26 27  2  0
 27 28  1  0
 28 29  2  0
  9  4  1  0
 23 13  2  0
 29 24  1  0
 12  7  1  0
 21 16  1  0
  3 30  1  0
  5 31  1  0
  6 32  1  0
  9 33  1  0
 11 34  1  0
 11 35  1  0
 17 36  1  0
 17 37  1  0
 18 38  1  0
 18 39  1  0
 20 40  1  0
 20 41  1  0
 21 42  1  0
 21 43  1  0
 25 44  1  0
 26 45  1  0
 27 46  1  0
 28 47  1  0
 29 48  1  0
M  END
>  <UniqueID>  (21) 
20

>  <SMILES>  (21) 
O=C(Nc1ccc2c(c1)OCO2)c1sc(N2CCOCC2)nc1-c1ccccc1

>  <Energy>  (21) 
122.43923198745563

>  <Genealogy>  (21) 
O=C(Nc1ccc2c(c1)OCO2)c1sc(N2CCOCC2)nc1-c1ccccc1 (3D coordinates assigned)
O=C(Nc1ccc2c(c1)OCO2)c1sc(N2CCOCC2)nc1-c1ccccc1 (nonaromatic ring conformer: 122.43923198745563 kcal/mol)

>  <smiles>  (21) 
O=C(Nc1ccc2c(c1)OCO2)c1sc(N2CCOCC2)nc1-c1ccccc1

>  <score_type>  (21) 
oracle

>  <origin>  (21) 
adg

>  <m_score__min__energy>  (21) 
-7.7300000000000004

>  <m_primary>  (21) 
energy

$$$$
21:0
     RDKit          3D

 50 53  0  0  0  0  0  0  0  0999 V2000
   53.6230   19.7720   46.4290 C   0  0  0  0  0  0  0  0  0  0  0  0
   54.4650   20.1460   45.3450 O   0  0  0  0  0  0  0  0  0  0  0  0
   55.4620   21.1330   45.4200 C   0  0  0  0  0  0  0  0  0  0  0  0
   56.8470   20.8090   45.4630 C   0  0  0  0  0  0  0  0  0  0  0  0
   57.8200   21.8220   45.5340 C   0  0  0  0  0  0  0  0  0  0  0  0
   57.3890   23.1450   45.5690 C   0  0  0  0  0  0  0  0  0  0  0  0
   56.0490   23.4700   45.5260 C   0  0  0  0  0  0  0  0  0  0  0  0
   55.0630   22.4840   45.4510 C   0  0  0  0  0  0  0  0  0  0  0  0
   53.7170   22.8290   45.4060 O   0  0  0  0  0  0  0  0  0  0  0  0
   55.9460   24.9250   45.5840 C   0  0  0  0  0  0  0  0  0  0  0  0
   54.8680   25.5790   45.6250 O   0  0  0  0  0  0  0  0  0  0  0  0
   57.2530   25.5090   45.6530 N   0  0  0  0  0  0  0  0  0  0  0  0
   57.5890   26.9050   45.7530 C   0  0  0  0  0  0  0  0  0  0  0  0
   57.3940   27.7600   44.6600 C   0  0  0  0  0  0  0  0  0  0  0  0
   57.7180   29.1150   44.7550 C   0  0  0  0  0  0  0  0  0  0  0  0
   58.2510   29.6380   45.9390 C   0  0  0  0  0  0  0  0  0  0  0  0
   58.5850   31.0330   45.9870 N   0  0  0  0  0  0  0  0  0  0  0  0
   57.7720   32.0400   45.3670 C   0  0  0  0  0  0  0  0  0  0  0  0
   56.6270   31.7460   44.9210 O   0  0  0  0  0  0  0  0  0  0  0  0
   58.2500   33.4600   45.3100 C   0  0  0  0  0  0  0  0  0  0  0  0
   59.2870   33.7160   46.3760 C   0  0  0  0  0  0  0  0  0  0  0  0
   60.6580   33.6270   46.0730 C   0  0  0  0  0  0  0  0  0  0  0  0
   61.6150   33.8380   47.0730 C   0  0  0  0  0  0  0  0  0  0  0  0
   61.2100   34.1290   48.3820 C   0  0  0  0  0  0  0  0  0  0  0  0
   59.8490   34.2050   48.6930 C   0  0  0  0  0  0  0  0  0  0  0  0
   58.8880   33.9990   47.6950 C   0  0  0  0  0  0  0  0  0  0  0  0
   58.4120   28.7950   47.0640 C   0  0  0  0  0  0  0  0  0  0  0  0
   58.9010   29.3260   48.3860 C   0  0  0  0  0  0  0  0  0  0  0  0
   58.1020   27.4300   46.9490 C   0  0  0  0  0  0  0  0  0  0  0  0
   58.1470   24.3890   45.6410 C   0  0  0  0  0  0  0  0  0  0  0  0
   59.4050   24.4780   45.6320 O   0  0  0  0  0  0  0  0  0  0  0  0
   54.1282   19.9964   47.3800 H   0  0  0  0  0  0  0  0  0  0  0  0
   52.6803   20.3360   46.3726 H   0  0  0  0  0  0  0  0  0  0  0  0
   53.4095   18.6944   46.3726 H   0  0  0  0  0  0  0  0  0  0  0  0
   57.1600   19.7547   45.4405 H   0  0  0  0  0  0  0  0  0  0  0  0
   58.8917   21.5756   45.5611 H   0  0  0  0  0  0  0  0  0  0  0  0
   56.9830   27.3611   43.7209 H   0  0  0  0  0  0  0  0  0  0  0  0
   57.5530   29.7770   43.8921 H   0  0  0  0  0  0  0  0  0  0  0  0
   59.3410   31.3370   46.6450 H   0  0  0  0  0  0  0  0  0  0  0  0
   58.6927   33.6527   44.3216 H   0  0  0  0  0  0  0  0  0  0  0  0
   57.3937   34.1289   45.4812 H   0  0  0  0  0  0  0  0  0  0  0  0
   60.9789   33.3910   45.0477 H   0  0  0  0  0  0  0  0  0  0  0  0
   62.6861   33.7752   46.8304 H   0  0  0  0  0  0  0  0  0  0  0  0
   61.9632   34.2978   49.1657 H   0  0  0  0  0  0  0  0  0  0  0  0
   59.5325   34.4269   49.7228 H   0  0  0  0  0  0  0  0  0  0  0  0
   57.8181   34.0587   47.9434 H   0  0  0  0  0  0  0  0  0  0  0  0
   58.4034   28.7857   49.2048 H   0  0  0  0  0  0  0  0  0  0  0  0
   59.9890   29.1816   48.4593 H   0  0  0  0  0  0  0  0  0  0  0  0
   58.6677   30.3985   48.4593 H   0  0  0  0  0  0  0  0  0  0  0  0
   58.2636   26.7630   47.8086 H   0  0  0  0  0  0  0  0  0  0  0  0
  1  2  1  0
  2  3  1  0
  3  4  2  0
  4  5  1  0
  5  6  2  0
  6  7  1  0
  7  8  2  0
  8  9  1  0
  7 10  1  0
 10 11  2  0
 10 12  1  0
 12 13  1  0
 13 14  2  0
 14 15  1  0
 15 16  2  0
 16 17  1  0
 17 18  1  0
 18 19  2  0
 18 20  1  0
 20 21  1  0
 21 22  2  0
 22 23  1  0
 23 24  2  0
 24 25  1  0
 25 26  2  0
 16 27  1  0
 27 28  1  0
 27 29  2  0
 12 30  1  0
 30 31  2  0
  8  3  1  0
 29 13  1  0
 30  6  1  0
 26 21  1  0
  1 32  1  0
  1 33  1  0
  1 34  1  0
  4 35  1  0
  5 36  1  0
 14 37  1  0
 15 38  1  0
 17 39  1  0
 20 40  1  0
 20 41  1  0
 22 42  1  0
 23 43  1  0
 24 44  1  0
 25 45  1  0
 26 46  1  0
 28 47  1  0
 28 48  1  0
 28 49  1  0
 29 50  1  0
M  CHG  1   9  -1
M  END
>  <UniqueID>  (22) 
21

>  <SMILES>  (22) 
COc1ccc2c(c1[O-])C(=O)N(c1ccc(NC(=O)Cc3ccccc3)c(C)c1)C2=O

>  <Energy>  (22) 
95.25157509355769

>  <Genealogy>  (22) 
COc1ccc2c(c1[O-])C(=O)N(c1ccc(NC(=O)Cc3ccccc3)c(C)c1)C2=O (protonated)
COc1ccc2c(c1[O-])C(=O)N(c1ccc(NC(=O)Cc3ccccc3)c(C)c1)C2=O (3D coordinates assigned)
COc1ccc2c(c1[O-])C(=O)N(c1ccc(NC(=O)Cc3ccccc3)c(C)c1)C2=O (nonaromatic ring conformer: 95.25157509355769 kcal/mol)

>  <smiles>  (22) 
COc1ccc2c(c1O)C(=O)N(c1ccc(NC(=O)Cc3ccccc3)c(C)c1)C2=O

>  <score_type>  (22) 
oracle

>  <origin>  (22) 
adg

>  <m_score__min__energy>  (22) 
-10.65

>  <m_primary>  (22) 
energy

$$$$
22:0
     RDKit          3D

 35 38  0  0  0  0  0  0  0  0999 V2000
   55.3420   29.3970   44.9480 O   0  0  0  0  0  0  0  0  0  0  0  0
   56.5850   29.5010   44.7710 C   0  0  0  0  0  0  0  0  0  0  0  0
   57.1060   30.6640   44.0220 C   0  0  0  0  0  0  0  0  0  0  0  0
   57.0220   30.8310   42.6510 C   0  0  0  0  0  0  0  0  0  0  0  0
   57.6590   32.0210   42.3660 C   0  0  0  0  0  0  0  0  0  0  0  0
   58.1120   32.5250   43.5690 C   0  0  0  0  0  0  0  0  0  0  0  0
   57.7770   31.6950   44.5730 N   0  0  0  0  0  0  0  0  0  0  0  0
   57.4840   28.4590   45.3200 C   0  0  0  0  0  0  0  0  0  0  0  0
   57.3900   27.1360   44.8510 C   0  0  0  0  0  0  0  0  0  0  0  0
   58.2470   26.1490   45.3410 C   0  0  0  0  0  0  0  0  0  0  0  0
   59.2060   26.4680   46.3020 C   0  0  0  0  0  0  0  0  0  0  0  0
   59.3200   27.7790   46.7670 C   0  0  0  0  0  0  0  0  0  0  0  0
   58.4740   28.7900   46.2710 C   0  0  0  0  0  0  0  0  0  0  0  0
   58.5590   30.1090   46.7440 O   0  0  0  0  0  0  0  0  0  0  0  0
   59.7480   30.8230   46.9250 C   0  0  0  0  0  0  0  0  0  0  0  0
   59.9870   32.0500   46.3960 N   0  0  0  0  0  0  0  0  0  0  0  0
   61.2110   32.5030   46.7690 C   0  0  0  0  0  0  0  0  0  0  0  0
   61.7480   33.7320   46.3810 C   0  0  0  0  0  0  0  0  0  0  0  0
   63.0290   34.0830   46.8410 C   0  0  0  0  0  0  0  0  0  0  0  0
   63.7540   33.2080   47.6770 C   0  0  0  0  0  0  0  0  0  0  0  0
   63.2020   31.9750   48.0600 C   0  0  0  0  0  0  0  0  0  0  0  0
   61.9320   31.6500   47.5900 C   0  0  0  0  0  0  0  0  0  0  0  0
   61.0280   30.2660   47.8810 S   0  0  0  0  0  0  0  0  0  0  0  0
   56.5428   30.1505   41.9317 H   0  0  0  0  0  0  0  0  0  0  0  0
   57.7821   32.4792   41.3736 H   0  0  0  0  0  0  0  0  0  0  0  0
   58.6660   33.4677   43.6888 H   0  0  0  0  0  0  0  0  0  0  0  0
   58.0240   31.8240   45.5790 H   0  0  0  0  0  0  0  0  0  0  0  0
   56.6360   26.8775   44.0929 H   0  0  0  0  0  0  0  0  0  0  0  0
   58.1657   25.1173   44.9683 H   0  0  0  0  0  0  0  0  0  0  0  0
   59.8730   25.6859   46.6937 H   0  0  0  0  0  0  0  0  0  0  0  0
   60.0765   28.0246   47.5268 H   0  0  0  0  0  0  0  0  0  0  0  0
   61.1802   34.4117   45.7286 H   0  0  0  0  0  0  0  0  0  0  0  0
   63.4694   35.0471   46.5469 H   0  0  0  0  0  0  0  0  0  0  0  0
   64.7560   33.4929   48.0303 H   0  0  0  0  0  0  0  0  0  0  0  0
   63.7570   31.2853   48.7128 H   0  0  0  0  0  0  0  0  0  0  0  0
  1  2  2  0
  2  3  1  0
  3  4  2  0
  4  5  1  0
  5  6  2  0
  6  7  1  0
  2  8  1  0
  8  9  2  0
  9 10  1  0
 10 11  2  0
 11 12  1  0
 12 13  2  0
 13 14  1  0
 14 15  1  0
 15 16  2  0
 16 17  1  0
 17 18  2  0
 18 19  1  0
 19 20  2  0
 20 21  1  0
 21 22  2  0
 22 23  1  0
  7  3  1  0
 13  8  1  0
 23 15  1  0
 22 17  1  0
  4 24  1  0
  5 25  1  0
  6 26  1  0
  7 27  1  0
  9 28  1  0
 10 29  1  0
 11 30  1  0
 12 31  1  0
 18 32  1  0
 19 33  1  0
 20 34  1  0
 21 35  1  0
M  END
>  <UniqueID>  (23) 
22

>  <SMILES>  (23) 
O=C(c1ccc[nH]1)c1ccccc1Oc1nc2ccccc2s1

>  <Energy>  (23) 
108.9613573266455

>  <Genealogy>  (23) 
O=C(c1ccc[nH]1)c1ccccc1Oc1nc2ccccc2s1 (3D coordinates assigned)
O=C(c1ccc[nH]1)c1ccccc1Oc1nc2ccccc2s1 (optimized conformer: 108.9613573266455 kcal/mol)

>  <smiles>  (23) 
O=C(c1ccc[nH]1)c1ccccc1Oc1nc2ccccc2s1

>  <score_type>  (23) 
oracle

>  <origin>  (23) 
adg

>  <m_score__min__energy>  (23) 
-8.6500000000000004

>  <m_primary>  (23) 
energy

$$$$
23:0
     RDKit          3D

 60 62  0  0  0  0  0  0  0  0999 V2000
   59.6470   35.7110   45.5840 C   0  0  0  0  0  0  0  0  0  0  0  0
   59.8690   34.4380   46.4360 C   0  0  0  0  0  0  0  0  0  0  0  0
   61.3740   34.0940   46.3790 C   0  0  0  0  0  0  0  0  0  0  0  0
   59.4750   34.7710   47.8910 C   0  0  0  0  0  0  0  0  0  0  0  0
   59.0440   33.2300   45.9450 C   0  0  0  0  0  0  0  0  0  0  0  0
   59.5990   31.9390   45.7820 C   0  0  0  0  0  0  0  0  0  0  0  0
   58.8200   30.8720   45.3300 C   0  0  0  0  0  0  0  0  0  0  0  0
   57.4620   31.0530   45.0240 C   0  0  0  0  0  0  0  0  0  0  0  0
   56.6380   29.9180   44.5440 C   0  0  0  0  0  0  0  0  0  0  0  0
   55.9460   30.0430   43.4980 O   0  0  0  0  0  0  0  0  0  0  0  0
   56.5860   28.7000   45.3000 N   0  0  0  0  0  0  0  0  0  0  0  0
   57.6440   28.1300   46.0870 C   0  0  0  0  0  0  0  0  0  0  0  0
   58.2210   28.8280   47.1630 C   0  0  0  0  0  0  0  0  0  0  0  0
   59.2460   28.2500   47.9250 C   0  0  0  0  0  0  0  0  0  0  0  0
   59.8020   28.9810   49.0310 N   0  0  0  0  0  0  0  0  0  0  0  0
   59.6540   30.3990   49.2100 C   0  0  0  0  0  0  0  0  0  0  0  0
   58.8030   31.0460   48.5420 O   0  0  0  0  0  0  0  0  0  0  0  0
   60.5220   31.1240   50.1930 C   0  0  0  0  0  0  0  0  0  0  0  0
   61.6420   31.8190   49.4700 C   0  0  0  0  0  0  0  0  0  0  0  0
   62.1690   33.0230   49.9660 C   0  0  0  0  0  0  0  0  0  0  0  0
   63.2350   33.6480   49.3120 C   0  0  0  0  0  0  0  0  0  0  0  0
   63.7880   33.0710   48.1650 C   0  0  0  0  0  0  0  0  0  0  0  0
   63.2790   31.8650   47.6750 C   0  0  0  0  0  0  0  0  0  0  0  0
   62.2130   31.2380   48.3260 C   0  0  0  0  0  0  0  0  0  0  0  0
   59.6570   26.9400   47.6370 C   0  0  0  0  0  0  0  0  0  0  0  0
   59.0690   26.2290   46.5890 C   0  0  0  0  0  0  0  0  0  0  0  0
   58.0550   26.8160   45.8090 C   0  0  0  0  0  0  0  0  0  0  0  0
   57.4330   26.1320   44.7500 O   0  0  0  0  0  0  0  0  0  0  0  0
   56.5400   25.0270   44.8880 C   0  0  0  0  0  0  0  0  0  0  0  0
   55.5770   25.2650   46.0080 C   0  0  0  0  0  0  0  0  0  0  0  0
   55.5280   24.4670   46.9810 O   0  0  0  0  0  0  0  0  0  0  0  0
   54.7040   26.3440   45.9560 O   0  0  0  0  0  0  0  0  0  0  0  0
   56.9010   32.3300   45.1790 C   0  0  0  0  0  0  0  0  0  0  0  0
   57.6780   33.3990   45.6290 C   0  0  0  0  0  0  0  0  0  0  0  0
   59.4963   36.5749   46.2480 H   0  0  0  0  0  0  0  0  0  0  0  0
   60.5282   35.8857   44.9492 H   0  0  0  0  0  0  0  0  0  0  0  0
   58.7587   35.5771   44.9492 H   0  0  0  0  0  0  0  0  0  0  0  0
   61.7685   34.0038   47.4019 H   0  0  0  0  0  0  0  0  0  0  0  0
   61.5124   33.1411   45.8473 H   0  0  0  0  0  0  0  0  0  0  0  0
   61.9127   34.8922   45.8473 H   0  0  0  0  0  0  0  0  0  0  0  0
   60.1280   34.2191   48.5831 H   0  0  0  0  0  0  0  0  0  0  0  0
   59.5879   35.8515   48.0633 H   0  0  0  0  0  0  0  0  0  0  0  0
   58.4284   34.4796   48.0633 H   0  0  0  0  0  0  0  0  0  0  0  0
   60.6611   31.7731   46.0151 H   0  0  0  0  0  0  0  0  0  0  0  0
   59.2758   29.8778   45.2123 H   0  0  0  0  0  0  0  0  0  0  0  0
   57.8640   29.8389   47.4095 H   0  0  0  0  0  0  0  0  0  0  0  0
   60.2850   28.4430   49.7850 H   0  0  0  0  0  0  0  0  0  0  0  0
   59.9186   31.8686   50.7329 H   0  0  0  0  0  0  0  0  0  0  0  0
   60.9444   30.4008   50.9061 H   0  0  0  0  0  0  0  0  0  0  0  0
   61.7412   33.4759   50.8726 H   0  0  0  0  0  0  0  0  0  0  0  0
   63.6389   34.5946   49.7003 H   0  0  0  0  0  0  0  0  0  0  0  0
   64.6235   33.5660   47.6483 H   0  0  0  0  0  0  0  0  0  0  0  0
   63.7181   31.4087   46.7756 H   0  0  0  0  0  0  0  0  0  0  0  0
   61.8197   30.2857   47.9408 H   0  0  0  0  0  0  0  0  0  0  0  0
   60.4474   26.4700   48.2406 H   0  0  0  0  0  0  0  0  0  0  0  0
   59.4005   25.2030   46.3714 H   0  0  0  0  0  0  0  0  0  0  0  0
   55.9793   24.8961   43.9507 H   0  0  0  0  0  0  0  0  0  0  0  0
   57.1260   24.1230   45.1102 H   0  0  0  0  0  0  0  0  0  0  0  0
   55.8385   32.4902   44.9436 H   0  0  0  0  0  0  0  0  0  0  0  0
   57.2175   34.3918   45.7395 H   0  0  0  0  0  0  0  0  0  0  0  0
  1  2  1  0
  2  3  1  0
  2  4  1  0
  2  5  1  0
  5  6  2  0
  6  7  1  0
  7  8  2  0
  8  9  1  0
  9 10  2  0
  9 11  1  0
 11 12  1  0
 12 13  2  0
 13 14  1  0
 14 15  1  0
 15 16  1  0
 16 17  2  0
 16 18  1  0
 18 19  1  0
 19 20  2  0
 20 21  1  0
 21 22  2  0
 22 23  1  0
 23 24  2  0
 14 25  2  0
 25 26  1  0
 26 27  2  0
 27 28  1  0
 28 29  1  0
 29 30  1  0
 30 31  2  0
 30 32  1  0
  8 33  1  0
 33 34  2  0
 34  5  1  0
 27 12  1  0
 24 19  1  0
  1 35  1  0
  1 36  1  0
  1 37  1  0
  3 38  1  0
  3 39  1  0
  3 40  1  0
  4 41  1  0
  4 42  1  0
  4 43  1  0
  6 44  1  0
  7 45  1  0
 13 46  1  0
 15 47  1  0
 18 48  1  0
 18 49  1  0
 20 50  1  0
 21 51  1  0
 22 52  1  0
 23 53  1  0
 24 54  1  0
 25 55  1  0
 26 56  1  0
 29 57  1  0
 29 58  1  0
 33 59  1  0
 34 60  1  0
M  CHG  2  11  -1  32  -1
M  END
>  <UniqueID>  (24) 
23

>  <SMILES>  (24) 
CC(C)(C)c1ccc(C(=O)[N-]c2cc(NC(=O)Cc3ccccc3)ccc2OCC(=O)[O-])cc1

>  <Energy>  (24) 
68.47930818166182

>  <Genealogy>  (24) 
CC(C)(C)c1ccc(C(=O)[N-]c2cc(NC(=O)Cc3ccccc3)ccc2OCC(=O)[O-])cc1 (protonated)
CC(C)(C)c1ccc(C(=O)[N-]c2cc(NC(=O)Cc3ccccc3)ccc2OCC(=O)[O-])cc1 (3D coordinates assigned)
CC(C)(C)c1ccc(C(=O)[N-]c2cc(NC(=O)Cc3ccccc3)ccc2OCC(=O)[O-])cc1 (optimized conformer: 68.47930818166182 kcal/mol)

>  <smiles>  (24) 
CC(C)(C)c1ccc(C(=O)Nc2cc(NC(=O)Cc3ccccc3)ccc2OCC(=O)O)cc1

>  <score_type>  (24) 
oracle

>  <origin>  (24) 
adg

>  <m_score__min__energy>  (24) 
-13.52

>  <m_primary>  (24) 
energy

$$$$
24:0
     RDKit          3D

 48 51  0  0  0  0  0  0  0  0999 V2000
   56.0993   33.6324   45.1961 H   0  0  0  0  0  0  0  0  0  0  0  0
   57.1880   33.5180   45.3040 C   0  0  0  0  0  0  0  0  0  0  0  0
   57.8790   32.6150   44.3560 C   0  0  0  0  0  0  0  0  0  0  0  0
   58.1580   33.0260   43.1980 O   0  0  0  0  0  0  0  0  0  0  0  0
   58.1880   31.2170   44.7330 C   0  0  0  0  0  0  0  0  0  0  0  0
   59.1320   30.8160   45.6650 C   0  0  0  0  0  0  0  0  0  0  0  0
   59.7901   31.4696   46.2564 H   0  0  0  0  0  0  0  0  0  0  0  0
   59.0860   29.4360   45.7070 C   0  0  0  0  0  0  0  0  0  0  0  0
   59.9500   28.5810   46.5820 C   0  0  0  0  0  0  0  0  0  0  0  0
   59.7309   28.7979   47.6379 H   0  0  0  0  0  0  0  0  0  0  0  0
   59.7451   27.5202   46.3754 H   0  0  0  0  0  0  0  0  0  0  0  0
   61.0086   28.7970   46.3754 H   0  0  0  0  0  0  0  0  0  0  0  0
   58.1680   28.9720   44.8300 N   0  0  0  0  0  0  0  0  0  0  0  0
   57.8340   27.5920   44.6090 C   0  0  0  0  0  0  0  0  0  0  0  0
   58.1090   26.9900   43.3720 C   0  0  0  0  0  0  0  0  0  0  0  0
   58.5897   27.5759   42.5747 H   0  0  0  0  0  0  0  0  0  0  0  0
   57.7770   25.6520   43.1450 C   0  0  0  0  0  0  0  0  0  0  0  0
   58.0001   25.1884   42.1727 H   0  0  0  0  0  0  0  0  0  0  0  0
   57.1600   24.8990   44.1540 C   0  0  0  0  0  0  0  0  0  0  0  0
   56.8210   23.5540   43.9370 C   0  0  0  0  0  0  0  0  0  0  0  0
   57.0396   23.0819   42.9678 H   0  0  0  0  0  0  0  0  0  0  0  0
   56.2060   22.8140   44.9510 C   0  0  0  0  0  0  0  0  0  0  0  0
   55.9414   21.7606   44.7769 H   0  0  0  0  0  0  0  0  0  0  0  0
   55.9260   23.4070   46.1850 C   0  0  0  0  0  0  0  0  0  0  0  0
   55.4424   22.8191   46.9791 H   0  0  0  0  0  0  0  0  0  0  0  0
   56.2590   24.7460   46.4130 C   0  0  0  0  0  0  0  0  0  0  0  0
   56.0360   25.2087   47.3857 H   0  0  0  0  0  0  0  0  0  0  0  0
   56.8770   25.5010   45.4040 C   0  0  0  0  0  0  0  0  0  0  0  0
   57.2150   26.8450   45.6210 C   0  0  0  0  0  0  0  0  0  0  0  0
   56.9932   27.3153   46.5903 H   0  0  0  0  0  0  0  0  0  0  0  0
   57.6160   30.0510   44.2250 C   0  0  0  0  0  0  0  0  0  0  0  0
   56.5730   29.9840   43.1450 C   0  0  0  0  0  0  0  0  0  0  0  0
   55.5748   29.9199   43.6027 H   0  0  0  0  0  0  0  0  0  0  0  0
   56.6328   30.8878   42.5209 H   0  0  0  0  0  0  0  0  0  0  0  0
   56.7480   29.0952   42.5209 H   0  0  0  0  0  0  0  0  0  0  0  0
   57.7910   34.2080   46.2860 C   0  0  0  0  0  0  0  0  0  0  0  0
   57.2085   35.0012   46.7775 H   0  0  0  0  0  0  0  0  0  0  0  0
   59.1740   33.9880   46.7600 C   0  0  0  0  0  0  0  0  0  0  0  0
   59.3840   33.5070   48.0620 C   0  0  0  0  0  0  0  0  0  0  0  0
   58.5243   33.3282   48.7245 H   0  0  0  0  0  0  0  0  0  0  0  0
   60.6800   33.2540   48.5210 C   0  0  0  0  0  0  0  0  0  0  0  0
   60.8380   32.8930   49.5480 H   0  0  0  0  0  0  0  0  0  0  0  0
   61.7760   33.4590   47.6770 C   0  0  0  0  0  0  0  0  0  0  0  0
   63.5460   33.1110   48.3050 Br  0  0  0  0  0  0  0  0  0  0  0  0
   61.5730   33.9100   46.3690 C   0  0  0  0  0  0  0  0  0  0  0  0
   62.4339   34.0653   45.7022 H   0  0  0  0  0  0  0  0  0  0  0  0
   60.2780   34.1640   45.9070 C   0  0  0  0  0  0  0  0  0  0  0  0
   60.1222   34.5029   44.8722 H   0  0  0  0  0  0  0  0  0  0  0  0
  1  2  1  0
  2  3  1  0
  3  4  2  0
  3  5  1  0
  5  6  1  0
  6  7  1  0
  6  8  2  0
  8  9  1  0
  9 10  1  0
  9 11  1  0
  9 12  1  0
  8 13  1  0
 13 14  1  0
 14 15  2  0
 15 16  1  0
 15 17  1  0
 17 18  1  0
 17 19  2  0
 19 20  1  0
 20 21  1  0
 20 22  2  0
 22 23  1  0
 22 24  1  0
 24 25  1  0
 24 26  2  0
 26 27  1  0
 26 28  1  0
 28 29  2  0
 29 30  1  0
 13 31  1  0
 31 32  1  0
 32 33  1  0
 32 34  1  0
 32 35  1  0
  2 36  2  0
 36 37  1  0
 36 38  1  0
 38 39  2  0
 39 40  1  0
 39 41  1  0
 41 42  1  0
 41 43  2  0
 43 44  1  0
 43 45  1  0
 45 46  1  0
 45 47  2  0
 47 48  1  0
 31  5  2  0
 47 38  1  0
 29 14  1  0
 28 19  1  0
M  END
>  <UniqueID>  (25) 
24

>  <SMILES>  (25) 
Cc1cc(C(=O)/C=C\c2ccc(Br)cc2)c(C)n1-c1ccc2ccccc2c1

>  <Energy>  (25) 
95.41792142209256

>  <Genealogy>  (25) 
Cc1cc(C(=O)/C=C\c2ccc(Br)cc2)c(C)n1-c1ccc2ccccc2c1 (cis-trans isomerization)
Cc1cc(C(=O)/C=C\c2ccc(Br)cc2)c(C)n1-c1ccc2ccccc2c1 (3D coordinates assigned)
Cc1cc(C(=O)/C=C\c2ccc(Br)cc2)c(C)n1-c1ccc2ccccc2c1 (optimized conformer: 95.41792142209256 kcal/mol)

>  <smiles>  (25) 
Cc1cc(C(=O)C=Cc2ccc(Br)cc2)c(C)n1-c1ccc2ccccc2c1

>  <score_type>  (25) 
oracle

>  <origin>  (25) 
adg

>  <m_score__min__energy>  (25) 
-9.9700000000000006

>  <m_primary>  (25) 
energy

$$$$
25:0
     RDKit          3D

 74 78  0  0  0  0  0  0  0  0999 V2000
   56.8640   29.3590   52.3680 O   0  0  0  0  0  0  0  0  0  0  0  0
   58.0600   29.7470   52.2880 C   0  0  0  0  0  0  0  0  0  0  0  0
   59.0700   29.0490   53.0300 N   0  0  0  0  0  0  0  0  0  0  0  0
   60.4620   28.9010   52.6150 C   0  0  0  0  0  0  0  0  0  0  0  0
   60.5640   28.4820   51.1400 C   0  0  0  0  0  0  0  0  0  0  0  0
   61.3580   29.4890   50.2980 C   0  0  0  0  0  0  0  0  0  0  0  0
   61.1340   29.2380   48.8560 N   0  0  0  0  0  0  0  0  0  0  0  0
   59.9930   28.3280   48.6420 C   0  0  0  0  0  0  0  0  0  0  0  0
   59.8670   27.9710   47.1560 C   0  0  0  0  0  0  0  0  0  0  0  0
   59.7180   29.2270   46.2770 C   0  0  0  0  0  0  0  0  0  0  0  0
   58.2970   29.8300   46.3900 C   0  0  0  0  0  0  0  0  0  0  0  0
   58.1510   31.1050   45.5990 C   0  0  0  0  0  0  0  0  0  0  0  0
   58.0260   31.0670   44.2010 C   0  0  0  0  0  0  0  0  0  0  0  0
   57.9180   32.2540   43.4680 C   0  0  0  0  0  0  0  0  0  0  0  0
   57.9260   33.4850   44.1250 C   0  0  0  0  0  0  0  0  0  0  0  0
   58.0410   33.5330   45.5190 C   0  0  0  0  0  0  0  0  0  0  0  0
   58.1450   32.3480   46.2550 C   0  0  0  0  0  0  0  0  0  0  0  0
   60.8360   30.2370   46.6130 C   0  0  0  0  0  0  0  0  0  0  0  0
   60.9350   30.5040   48.1210 C   0  0  0  0  0  0  0  0  0  0  0  0
   58.3840   30.9000   51.4300 C   0  0  0  0  0  0  0  0  0  0  0  0
   58.2020   30.8260   50.0410 C   0  0  0  0  0  0  0  0  0  0  0  0
   58.5240   31.9160   49.2280 C   0  0  0  0  0  0  0  0  0  0  0  0
   59.0260   33.0980   49.7970 C   0  0  0  0  0  0  0  0  0  0  0  0
   59.3270   34.2470   48.9950 N   0  0  0  0  0  0  0  0  0  0  0  0
   60.4360   34.3860   48.0970 C   0  0  0  0  0  0  0  0  0  0  0  0
   60.2430   34.9200   46.9720 O   0  0  0  0  0  0  0  0  0  0  0  0
   61.7640   33.9750   48.4690 N   0  0  0  0  0  0  0  0  0  0  0  0
   62.5820   33.2580   47.4720 C   0  0  0  0  0  0  0  0  0  0  0  0
   64.0740   33.2200   47.8440 C   0  0  0  0  0  0  0  0  0  0  0  0
   64.2510   32.8840   49.2970 C   0  0  0  0  0  0  0  0  0  0  0  0
   65.3020   32.0590   49.7300 C   0  0  0  0  0  0  0  0  0  0  0  0
   65.4810   31.8170   51.0970 C   0  0  0  0  0  0  0  0  0  0  0  0
   64.6200   32.4000   52.0330 C   0  0  0  0  0  0  0  0  0  0  0  0
   64.8040   32.1690   53.3550 F   0  0  0  0  0  0  0  0  0  0  0  0
   63.5800   33.2330   51.6060 C   0  0  0  0  0  0  0  0  0  0  0  0
   63.3910   33.4770   50.2370 C   0  0  0  0  0  0  0  0  0  0  0  0
   62.3280   34.4260   49.7530 C   0  0  0  0  0  0  0  0  0  0  0  0
   59.1900   33.1760   51.1850 C   0  0  0  0  0  0  0  0  0  0  0  0
   58.8830   32.0780   51.9970 C   0  0  0  0  0  0  0  0  0  0  0  0
   60.9805   29.8615   52.7512 H   0  0  0  0  0  0  0  0  0  0  0  0
   60.9263   28.1170   53.2313 H   0  0  0  0  0  0  0  0  0  0  0  0
   61.0640   27.5038   51.0847 H   0  0  0  0  0  0  0  0  0  0  0  0
   59.5429   28.4372   50.7334 H   0  0  0  0  0  0  0  0  0  0  0  0
   61.0284   30.5090   50.5449 H   0  0  0  0  0  0  0  0  0  0  0  0
   62.4295   29.3769   50.5199 H   0  0  0  0  0  0  0  0  0  0  0  0
   60.1489   27.4078   49.2241 H   0  0  0  0  0  0  0  0  0  0  0  0
   59.0700   28.8293   48.9686 H   0  0  0  0  0  0  0  0  0  0  0  0
   60.7681   27.4227   46.8438 H   0  0  0  0  0  0  0  0  0  0  0  0
   58.9650   27.3546   47.0276 H   0  0  0  0  0  0  0  0  0  0  0  0
   59.8372   28.9467   45.2200 H   0  0  0  0  0  0  0  0  0  0  0  0
   57.5701   29.0952   46.0136 H   0  0  0  0  0  0  0  0  0  0  0  0
   58.1163   30.0686   47.4485 H   0  0  0  0  0  0  0  0  0  0  0  0
   58.0129   30.0988   43.6791 H   0  0  0  0  0  0  0  0  0  0  0  0
   57.8267   32.2167   42.3724 H   0  0  0  0  0  0  0  0  0  0  0  0
   57.8419   34.4174   43.5475 H   0  0  0  0  0  0  0  0  0  0  0  0
   58.0496   34.5037   46.0364 H   0  0  0  0  0  0  0  0  0  0  0  0
   58.2224   32.3891   47.3515 H   0  0  0  0  0  0  0  0  0  0  0  0
   61.7966   29.8340   46.2598 H   0  0  0  0  0  0  0  0  0  0  0  0
   60.5962   31.1878   46.1145 H   0  0  0  0  0  0  0  0  0  0  0  0
   61.7858   31.1736   48.3155 H   0  0  0  0  0  0  0  0  0  0  0  0
   60.0000   30.9719   48.4627 H   0  0  0  0  0  0  0  0  0  0  0  0
   57.8038   29.9053   49.5895 H   0  0  0  0  0  0  0  0  0  0  0  0
   58.3839   31.8481   48.1391 H   0  0  0  0  0  0  0  0  0  0  0  0
   62.2131   32.2248   47.3916 H   0  0  0  0  0  0  0  0  0  0  0  0
   62.4914   33.7980   46.5180 H   0  0  0  0  0  0  0  0  0  0  0  0
   64.5791   32.4574   47.2330 H   0  0  0  0  0  0  0  0  0  0  0  0
   64.5108   34.2117   47.6548 H   0  0  0  0  0  0  0  0  0  0  0  0
   65.9833   31.6038   48.9961 H   0  0  0  0  0  0  0  0  0  0  0  0
   66.3008   31.1667   51.4362 H   0  0  0  0  0  0  0  0  0  0  0  0
   62.9097   33.6972   52.3443 H   0  0  0  0  0  0  0  0  0  0  0  0
   61.5234   34.4772   50.5014 H   0  0  0  0  0  0  0  0  0  0  0  0
   62.7823   35.4173   49.6079 H   0  0  0  0  0  0  0  0  0  0  0  0
   59.5623   34.1056   51.6402 H   0  0  0  0  0  0  0  0  0  0  0  0
   59.0345   32.1413   53.0847 H   0  0  0  0  0  0  0  0  0  0  0  0
  1  2  2  0
  2  3  1  0
  3  4  1  0
  4  5  1  0
  5  6  1  0
  6  7  1  0
  7  8  1  0
  8  9  1  0
  9 10  1  0
 10 11  1  0
 11 12  1  0
 12 13  2  0
 13 14  1  0
 14 15  2  0
 15 16  1  0
 16 17  2  0
 10 18  1  0
 18 19  1  0
  2 20  1  0
 20 21  2  0
 21 22  1  0
 22 23  2  0
 23 24  1  0
 24 25  1  0
 25 26  2  0
 25 27  1  0
 27 28  1  0
 28 29  1  0
 29 30  1  0
 30 31  2  0
 31 32  1  0
 32 33  2  0
 33 34  1  0
 33 35  1  0
 35 36  2  0
 36 37  1  0
 23 38  1  0
 38 39  2  0
 19  7  1  0
 39 20  1  0
 17 12  1  0
 37 27  1  0
 36 30  1  0
  4 40  1  0
  4 41  1  0
  5 42  1  0
  5 43  1  0
  6 44  1  0
  6 45  1  0
  8 46  1  0
  8 47  1  0
  9 48  1  0
  9 49  1  0
 10 50  1  0
 11 51  1  0
 11 52  1  0
 13 53  1  0
 14 54  1  0
 15 55  1  0
 16 56  1  0
 17 57  1  0
 18 58  1  0
 18 59  1  0
 19 60  1  0
 19 61  1  0
 21 62  1  0
 22 63  1  0
 28 64  1  0
 28 65  1  0
 29 66  1  0
 29 67  1  0
 31 68  1  0
 32 69  1  0
 35 70  1  0
 37 71  1  0
 37 72  1  0
 38 73  1  0
 39 74  1  0
M  CHG  2   3  -1  24  -1
M  END
>  <UniqueID>  (26) 
25

>  <SMILES>  (26) 
O=C([N-]CCCN1CCC(Cc2ccccc2)CC1)c1ccc([N-]C(=O)N2CCc3ccc(F)cc3C2)cc1

>  <Energy>  (26) 
85.8296109533107

>  <Genealogy>  (26) 
O=C([N-]CCCN1CCC(Cc2ccccc2)CC1)c1ccc([N-]C(=O)N2CCc3ccc(F)cc3C2)cc1 (protonated)
O=C([N-]CCCN1CCC(Cc2ccccc2)CC1)c1ccc([N-]C(=O)N2CCc3ccc(F)cc3C2)cc1 (3D coordinates assigned)
O=C([N-]CCCN1CCC(Cc2ccccc2)CC1)c1ccc([N-]C(=O)N2CCc3ccc(F)cc3C2)cc1 (nonaromatic ring conformer: 85.8296109533107 kcal/mol)

>  <smiles>  (26) 
O=C(NCCCN1CCC(Cc2ccccc2)CC1)c1ccc(NC(=O)N2CCc3ccc(F)cc3C2)cc1

>  <score_type>  (26) 
oracle

>  <origin>  (26) 
adg

>  <m_score__min__energy>  (26) 
-12.859999999999999

>  <m_primary>  (26) 
energy

$$$$
26:0
     RDKit          3D

 36 38  0  0  0  0  0  0  0  0999 V2000
   56.2166   29.2797   41.6899 H   0  0  0  0  0  0  0  0  0  0  0  0
   56.2550   29.8240   42.6450 C   0  0  0  0  0  0  0  0  0  0  0  0
   55.4530   29.5970   43.7040 N   0  0  0  0  0  0  0  0  0  0  0  0
   55.8040   30.4350   44.6360 O   0  0  0  0  0  0  0  0  0  0  0  0
   56.7970   31.1920   44.2360 C   0  0  0  0  0  0  0  0  0  0  0  0
   57.4300   32.2670   45.0610 C   0  0  0  0  0  0  0  0  0  0  0  0
   56.7258   33.1056   45.1647 H   0  0  0  0  0  0  0  0  0  0  0  0
   58.3501   32.6037   44.5609 H   0  0  0  0  0  0  0  0  0  0  0  0
   57.7640   31.7720   46.3560 O   0  0  0  0  0  0  0  0  0  0  0  0
   59.0680   31.5600   46.8390 C   0  0  0  0  0  0  0  0  0  0  0  0
   59.7490   32.5360   47.5980 C   0  0  0  0  0  0  0  0  0  0  0  0
   59.2460   33.4814   47.8492 H   0  0  0  0  0  0  0  0  0  0  0  0
   61.0560   32.3100   48.0320 C   0  0  0  0  0  0  0  0  0  0  0  0
   61.5786   33.0775   48.6218 H   0  0  0  0  0  0  0  0  0  0  0  0
   61.7010   31.1140   47.7200 C   0  0  0  0  0  0  0  0  0  0  0  0
   62.7328   30.9412   48.0599 H   0  0  0  0  0  0  0  0  0  0  0  0
   61.0390   30.1360   46.9770 C   0  0  0  0  0  0  0  0  0  0  0  0
   61.5538   29.1952   46.7325 H   0  0  0  0  0  0  0  0  0  0  0  0
   59.7190   30.3430   46.5380 C   0  0  0  0  0  0  0  0  0  0  0  0
   59.0370   29.2820   45.7580 C   0  0  0  0  0  0  0  0  0  0  0  0
   59.5400   28.8840   44.5130 C   0  0  0  0  0  0  0  0  0  0  0  0
   60.4439   29.3593   44.1044 H   0  0  0  0  0  0  0  0  0  0  0  0
   58.8890   27.8820   43.7940 C   0  0  0  0  0  0  0  0  0  0  0  0
   59.2793   27.5719   42.8134 H   0  0  0  0  0  0  0  0  0  0  0  0
   57.7740   27.2850   44.2970 N   0  0  0  0  0  0  0  0  0  0  0  0
   57.3270   26.5410   43.7170 H   0  0  0  0  0  0  0  0  0  0  0  0
   57.2620   27.6430   45.5160 C   0  0  0  0  0  0  0  0  0  0  0  0
   56.1980   27.0740   46.0090 N   0  0  0  0  0  0  0  0  0  0  0  0
   55.9320   25.6390   46.0380 C   0  0  0  0  0  0  0  0  0  0  0  0
   55.8689   25.2988   47.0822 H   0  0  0  0  0  0  0  0  0  0  0  0
   54.9802   25.4321   45.5268 H   0  0  0  0  0  0  0  0  0  0  0  0
   56.7464   25.1047   45.5268 H   0  0  0  0  0  0  0  0  0  0  0  0
   57.8910   28.6470   46.2620 C   0  0  0  0  0  0  0  0  0  0  0  0
   57.4872   28.9382   47.2429 H   0  0  0  0  0  0  0  0  0  0  0  0
   57.1310   30.8450   42.9460 C   0  0  0  0  0  0  0  0  0  0  0  0
   57.9129   31.2801   42.3062 H   0  0  0  0  0  0  0  0  0  0  0  0
  1  2  1  0
  2  3  2  0
  3  4  1  0
  4  5  1  0
  5  6  1  0
  6  7  1  0
  6  8  1  0
  6  9  1  0
  9 10  1  0
 10 11  2  0
 11 12  1  0
 11 13  1  0
 13 14  1  0
 13 15  2  0
 15 16  1  0
 15 17  1  0
 17 18  1  0
 17 19  2  0
 19 20  1  0
 20 21  1  0
 21 22  1  0
 21 23  2  0
 23 24  1  0
 23 25  1  0
 25 26  1  0
 25 27  1  0
 27 28  2  0
 28 29  1  0
 29 30  1  0
 29 31  1  0
 29 32  1  0
 27 33  1  0
 33 34  1  0
  5 35  2  0
 35 36  1  0
 35  2  1  0
 19 10  1  0
 33 20  2  0
M  END
>  <UniqueID>  (27) 
26

>  <SMILES>  (27) 
C/N=c1/cc(-c2ccccc2OCc2ccno2)cc[nH]1

>  <Energy>  (27) 
74.58374133943914

>  <Genealogy>  (27) 
C/N=c1/cc(-c2ccccc2OCc2ccno2)cc[nH]1 (cis-trans isomerization)
C/N=c1/cc(-c2ccccc2OCc2ccno2)cc[nH]1 (3D coordinates assigned)
C/N=c1/cc(-c2ccccc2OCc2ccno2)cc[nH]1 (optimized conformer: 74.58374133943914 kcal/mol)

>  <smiles>  (27) 
CN=c1cc(-c2ccccc2OCc2ccno2)cc[nH]1

>  <score_type>  (27) 
oracle

>  <origin>  (27) 
adg

>  <m_score__min__energy>  (27) 
-7.25

>  <m_primary>  (27) 
energy

$$$$
27:0
     RDKit          3D

 48 50  0  0  1  0  0  0  0  0999 V2000
   55.6160   29.4300   44.4910 C   0  0  0  0  0  0  0  0  0  0  0  0
   56.3990   30.0720   43.6410 C   0  0  0  0  0  0  0  0  0  0  0  0
   57.3050   31.1330   44.0620 C   0  0  0  0  0  0  0  0  0  0  0  0
   58.4460   31.3070   43.5110 O   0  0  0  0  0  0  0  0  0  0  0  0
   56.9940   32.0480   45.1070 N   0  0  0  0  0  0  0  0  0  0  0  0
   57.9300   33.0790   45.4820 C   0  0  0  0  0  0  0  0  0  0  0  0
   58.4230   33.9720   44.5480 C   0  0  0  0  0  0  0  0  0  0  0  0
   59.3290   34.9490   44.9730 C   0  0  0  0  0  0  0  0  0  0  0  0
   59.7130   35.0080   46.3100 C   0  0  0  0  0  0  0  0  0  0  0  0
   59.2250   34.1190   47.2530 C   0  0  0  0  0  0  0  0  0  0  0  0
   59.6330   34.1840   48.6600 C   0  0  0  0  0  0  0  0  0  0  0  0
   60.5660   33.1290   49.0490 N   0  0  0  0  0  0  0  0  0  0  0  0
   61.9440   33.4960   49.3020 C   0  0  0  0  0  0  0  0  0  0  0  0
   60.1260   31.7910   49.1730 C   0  0  0  0  0  0  0  0  0  0  0  0
   60.5820   30.7550   48.3810 C   0  0  0  0  0  0  0  0  0  0  0  0
   60.1090   29.4780   48.5570 C   0  0  0  0  0  0  0  0  0  0  0  0
   60.5260   28.5040   47.8250 N   0  0  0  0  0  0  0  0  0  0  0  0
   59.5650   27.7660   47.0840 C   0  0  0  0  0  0  0  0  0  0  0  0
   58.7730   26.8830   47.8240 C   0  0  0  0  0  0  0  0  0  0  0  0
   57.8020   26.1160   47.1840 C   0  0  0  0  0  0  0  0  0  0  0  0
   57.6160   26.2230   45.8180 C   0  0  0  0  0  0  0  0  0  0  0  0
   58.4140   27.1060   45.1010 C   0  0  0  0  0  0  0  0  0  0  0  0
   58.1540   27.2180   43.3680 Cl  0  0  0  0  0  0  0  0  0  0  0  0
   59.3800   27.8700   45.7350 C   0  0  0  0  0  0  0  0  0  0  0  0
   60.3780   28.9770   44.8290 Cl  0  0  0  0  0  0  0  0  0  0  0  0
   59.1910   29.2580   49.5200 N   0  0  0  0  0  0  0  0  0  0  0  0
   58.7230   30.2450   50.3120 C   0  0  0  0  0  0  0  0  0  0  0  0
   59.2110   31.4770   50.1070 N   0  0  0  0  0  0  0  0  0  0  0  0
   58.3310   33.1610   46.8060 C   0  0  0  0  0  0  0  0  0  0  0  0
   54.9470   28.6351   44.1297 H   0  0  0  0  0  0  0  0  0  0  0  0
   55.6335   29.6907   45.5595 H   0  0  0  0  0  0  0  0  0  0  0  0
   56.3654   29.7952   42.5769 H   0  0  0  0  0  0  0  0  0  0  0  0
   56.0840   31.9800   45.6120 H   0  0  0  0  0  0  0  0  0  0  0  0
   58.1097   33.9151   43.4951 H   0  0  0  0  0  0  0  0  0  0  0  0
   59.7382   35.6709   44.2509 H   0  0  0  0  0  0  0  0  0  0  0  0
   60.4254   35.7840   46.6267 H   0  0  0  0  0  0  0  0  0  0  0  0
   60.1148   35.1568   48.8376 H   0  0  0  0  0  0  0  0  0  0  0  0
   58.7244   34.0497   49.2653 H   0  0  0  0  0  0  0  0  0  0  0  0
   62.1178   33.5423   50.3872 H   0  0  0  0  0  0  0  0  0  0  0  0
   62.6115   32.7443   48.8555 H   0  0  0  0  0  0  0  0  0  0  0  0
   62.1493   34.4801   48.8555 H   0  0  0  0  0  0  0  0  0  0  0  0
   61.3317   30.9552   47.6014 H   0  0  0  0  0  0  0  0  0  0  0  0
   58.9165   26.7939   48.9110 H   0  0  0  0  0  0  0  0  0  0  0  0
   57.1801   25.4218   47.7682 H   0  0  0  0  0  0  0  0  0  0  0  0
   56.8502   25.6200   45.3082 H   0  0  0  0  0  0  0  0  0  0  0  0
   58.8050   28.3070   49.6900 H   0  0  0  0  0  0  0  0  0  0  0  0
   57.9733   30.0475   51.0924 H   0  0  0  0  0  0  0  0  0  0  0  0
   57.9240   32.4382   47.5285 H   0  0  0  0  0  0  0  0  0  0  0  0
  1  2  2  0
  2  3  1  0
  3  4  2  0
  3  5  1  0
  5  6  1  0
  6  7  2  0
  7  8  1  0
  8  9  2  0
  9 10  1  0
 10 11  1  0
 11 12  1  0
 12 13  1  0
 12 14  1  0
 14 15  2  0
 15 16  1  0
 16 17  2  0
 17 18  1  0
 18 19  2  0
 19 20  1  0
 20 21  2  0
 21 22  1  0
 22 23  1  0
 22 24  2  0
 24 25  1  0
 16 26  1  0
 26 27  1  0
 27 28  2  0
 10 29  2  0
 29  6  1  0
 28 14  1  0
 24 18  1  0
  1 30  1  0
  1 31  1  0
  2 32  1  0
  5 33  1  0
  7 34  1  0
  8 35  1  0
  9 36  1  0
 11 37  1  0
 11 38  1  0
 13 39  1  0
 13 40  1  0
 13 41  1  0
 15 42  1  0
 19 43  1  0
 20 44  1  0
 21 45  1  0
 26 46  1  0
 27 47  1  0
 29 48  1  0
M  END
>  <smiles>  (28) 
C=CC(=O)Nc1cccc(CN(C)c2cc(=Nc3cccc(Cl)c3Cl)[nH]cn2)c1

>  <score_type>  (28) 
oracle

>  <origin>  (28) 
adg

>  <m_score__min__energy>  (28) 
-8.8900000000000006

>  <m_primary>  (28) 
energy

$$$$
28:0
     RDKit          3D

 22 22  0  0  0  0  0  0  0  0999 V2000
   55.9120   29.9990   43.3700 C   0  0  0  0  0  0  0  0  0  0  0  0
   56.2560   30.4920   44.6610 O   0  0  0  0  0  0  0  0  0  0  0  0
   57.4900   30.2740   45.2930 C   0  0  0  0  0  0  0  0  0  0  0  0
   58.4020   31.3220   45.5330 C   0  0  0  0  0  0  0  0  0  0  0  0
   59.6210   31.0640   46.1640 C   0  0  0  0  0  0  0  0  0  0  0  0
   59.9420   29.7670   46.5610 C   0  0  0  0  0  0  0  0  0  0  0  0
   59.0480   28.7200   46.3280 C   0  0  0  0  0  0  0  0  0  0  0  0
   57.8140   28.9670   45.6930 C   0  0  0  0  0  0  0  0  0  0  0  0
   56.8840   27.9450   45.4390 O   0  0  0  0  0  0  0  0  0  0  0  0
   57.1030   26.5500   45.6590 C   0  0  0  0  0  0  0  0  0  0  0  0
   55.8920   25.9150   46.2680 C   0  0  0  0  0  0  0  0  0  0  0  0
   54.7420   26.3320   45.9700 O   0  0  0  0  0  0  0  0  0  0  0  0
   56.0320   24.8430   47.1400 O   0  0  0  0  0  0  0  0  0  0  0  0
   55.2854   29.1011   43.4754 H   0  0  0  0  0  0  0  0  0  0  0  0
   55.3559   30.7715   42.8187 H   0  0  0  0  0  0  0  0  0  0  0  0
   56.8290   29.7436   42.8187 H   0  0  0  0  0  0  0  0  0  0  0  0
   58.1525   32.3472   45.2220 H   0  0  0  0  0  0  0  0  0  0  0  0
   60.3289   31.8856   46.3480 H   0  0  0  0  0  0  0  0  0  0  0  0
   60.9022   29.5677   47.0592 H   0  0  0  0  0  0  0  0  0  0  0  0
   59.3078   27.6981   46.6413 H   0  0  0  0  0  0  0  0  0  0  0  0
   57.3216   26.0625   44.6974 H   0  0  0  0  0  0  0  0  0  0  0  0
   57.9511   26.4292   46.3490 H   0  0  0  0  0  0  0  0  0  0  0  0
  1  2  1  0
  2  3  1  0
  3  4  2  0
  4  5  1  0
  5  6  2  0
  6  7  1  0
  7  8  2  0
  8  9  1  0
  9 10  1  0
 10 11  1  0
 11 12  2  0
 11 13  1  0
  8  3  1  0
  1 14  1  0
  1 15  1  0
  1 16  1  0
  4 17  1  0
  5 18  1  0
  6 19  1  0
  7 20  1  0
 10 21  1  0
 10 22  1  0
M  CHG  1  13  -1
M  END
>  <UniqueID>  (29) 
27

>  <SMILES>  (29) 
COc1ccccc1OCC(=O)[O-]

>  <Energy>  (29) 
19.38453617362483

>  <Genealogy>  (29) 
COc1ccccc1OCC(=O)[O-] (protonated)
COc1ccccc1OCC(=O)[O-] (3D coordinates assigned)
COc1ccccc1OCC(=O)[O-] (optimized conformer: 19.38453617362483 kcal/mol)

>  <smiles>  (29) 
COc1ccccc1OCC(=O)O

>  <score_type>  (29) 
oracle

>  <origin>  (29) 
adg

>  <m_score__min__energy>  (29) 
-7.96

>  <m_primary>  (29) 
energy

$$$$
29:0
     RDKit          3D

 56 59  0  0  0  0  0  0  0  0999 V2000
   60.0510   28.3440   44.7620 C   0  0  0  0  0  0  0  0  0  0  0  0
   58.5840   28.1580   44.9730 C   0  0  0  0  0  0  0  0  0  0  0  0
   58.0470   27.0840   45.5890 N   0  0  0  0  0  0  0  0  0  0  0  0
   56.7380   27.2710   45.6400 N   0  0  0  0  0  0  0  0  0  0  0  0
   55.8020   26.3410   46.2590 C   0  0  0  0  0  0  0  0  0  0  0  0
   56.4320   28.4580   45.0880 C   0  0  0  0  0  0  0  0  0  0  0  0
   55.1440   28.9720   44.9810 O   0  0  0  0  0  0  0  0  0  0  0  0
   57.5870   29.0680   44.6540 C   0  0  0  0  0  0  0  0  0  0  0  0
   57.7210   30.3770   43.9280 C   0  0  0  0  0  0  0  0  0  0  0  0
   57.7950   31.4970   44.8920 N   0  0  0  0  0  0  0  0  0  0  0  0
   57.8020   32.8000   44.1890 C   0  0  0  0  0  0  0  0  0  0  0  0
   57.0440   33.8910   44.9780 C   0  0  0  0  0  0  0  0  0  0  0  0
   57.8840   34.5420   46.0990 C   0  0  0  0  0  0  0  0  0  0  0  0
   58.7240   33.6090   46.9020 N   0  0  0  0  0  0  0  0  0  0  0  0
   57.9120   32.9140   47.9270 C   0  0  0  0  0  0  0  0  0  0  0  0
   58.7020   32.6390   49.1680 C   0  0  0  0  0  0  0  0  0  0  0  0
   59.7910   33.3420   49.5340 N   0  0  0  0  0  0  0  0  0  0  0  0
   60.0980   32.7560   50.7100 C   0  0  0  0  0  0  0  0  0  0  0  0
   61.1910   33.2430   51.6070 C   0  0  0  0  0  0  0  0  0  0  0  0
   62.5240   33.0270   50.9480 C   0  0  0  0  0  0  0  0  0  0  0  0
   63.5490   32.3470   51.6260 C   0  0  0  0  0  0  0  0  0  0  0  0
   64.7720   32.0980   50.9930 C   0  0  0  0  0  0  0  0  0  0  0  0
   64.9770   32.5200   49.6770 C   0  0  0  0  0  0  0  0  0  0  0  0
   63.9590   33.1880   48.9910 C   0  0  0  0  0  0  0  0  0  0  0  0
   62.7340   33.4350   49.6190 C   0  0  0  0  0  0  0  0  0  0  0  0
   59.2380   31.7730   51.0410 N   0  0  0  0  0  0  0  0  0  0  0  0
   58.3920   31.7270   50.0580 O   0  0  0  0  0  0  0  0  0  0  0  0
   59.6170   32.6970   46.1390 C   0  0  0  0  0  0  0  0  0  0  0  0
   58.9760   31.3480   45.7700 C   0  0  0  0  0  0  0  0  0  0  0  0
   60.5564   28.4081   45.7369 H   0  0  0  0  0  0  0  0  0  0  0  0
   60.4514   27.4894   44.1969 H   0  0  0  0  0  0  0  0  0  0  0  0
   60.2255   29.2715   44.1969 H   0  0  0  0  0  0  0  0  0  0  0  0
   55.8790   26.4175   47.3536 H   0  0  0  0  0  0  0  0  0  0  0  0
   54.7772   26.5889   45.9453 H   0  0  0  0  0  0  0  0  0  0  0  0
   56.0433   25.3147   45.9453 H   0  0  0  0  0  0  0  0  0  0  0  0
   58.6372   30.3616   43.3194 H   0  0  0  0  0  0  0  0  0  0  0  0
   56.8410   30.5189   43.2835 H   0  0  0  0  0  0  0  0  0  0  0  0
   58.8445   33.1225   44.0503 H   0  0  0  0  0  0  0  0  0  0  0  0
   57.2934   32.6660   43.2229 H   0  0  0  0  0  0  0  0  0  0  0  0
   56.7351   34.6776   44.2739 H   0  0  0  0  0  0  0  0  0  0  0  0
   56.1862   33.4010   45.4618 H   0  0  0  0  0  0  0  0  0  0  0  0
   58.5514   35.2828   45.6344 H   0  0  0  0  0  0  0  0  0  0  0  0
   57.1590   34.9749   46.8040 H   0  0  0  0  0  0  0  0  0  0  0  0
   57.0494   33.5454   48.1864 H   0  0  0  0  0  0  0  0  0  0  0  0
   57.5847   31.9506   47.5090 H   0  0  0  0  0  0  0  0  0  0  0  0
   61.0507   34.3160   51.8043 H   0  0  0  0  0  0  0  0  0  0  0  0
   61.1593   32.6849   52.5544 H   0  0  0  0  0  0  0  0  0  0  0  0
   63.3896   32.0083   52.6603 H   0  0  0  0  0  0  0  0  0  0  0  0
   65.5724   31.5697   51.5319 H   0  0  0  0  0  0  0  0  0  0  0  0
   65.9395   32.3265   49.1809 H   0  0  0  0  0  0  0  0  0  0  0  0
   64.1215   33.5202   47.9550 H   0  0  0  0  0  0  0  0  0  0  0  0
   61.9316   33.9506   49.0710 H   0  0  0  0  0  0  0  0  0  0  0  0
   59.9137   33.2036   45.2088 H   0  0  0  0  0  0  0  0  0  0  0  0
   60.4718   32.4717   46.7936 H   0  0  0  0  0  0  0  0  0  0  0  0
   59.7254   30.7331   45.2501 H   0  0  0  0  0  0  0  0  0  0  0  0
   58.6376   30.8751   46.7037 H   0  0  0  0  0  0  0  0  0  0  0  0
  1  2  1  0
  2  3  2  0
  3  4  1  0
  4  5  1  0
  4  6  1  0
  6  7  1  0
  6  8  2  0
  8  9  1  0
  9 10  1  0
 10 11  1  0
 11 12  1  0
 12 13  1  0
 13 14  1  0
 14 15  1  0
 15 16  1  0
 16 17  2  0
 17 18  1  0
 18 19  1  0
 19 20  1  0
 20 21  2  0
 21 22  1  0
 22 23  2  0
 23 24  1  0
 24 25  2  0
 18 26  2  0
 26 27  1  0
 14 28  1  0
 28 29  1  0
  8  2  1  0
 29 10  1  0
 27 16  1  0
 25 20  1  0
  1 30  1  0
  1 31  1  0
  1 32  1  0
  5 33  1  0
  5 34  1  0
  5 35  1  0
  9 36  1  0
  9 37  1  0
 11 38  1  0
 11 39  1  0
 12 40  1  0
 12 41  1  0
 13 42  1  0
 13 43  1  0
 15 44  1  0
 15 45  1  0
 19 46  1  0
 19 47  1  0
 21 48  1  0
 22 49  1  0
 23 50  1  0
 24 51  1  0
 25 52  1  0
 28 53  1  0
 28 54  1  0
 29 55  1  0
 29 56  1  0
M  CHG  1   7  -1
M  END
>  <UniqueID>  (30) 
28

>  <SMILES>  (30) 
Cc1nn(C)c([O-])c1CN1CCCN(Cc2nc(Cc3ccccc3)no2)CC1

>  <Energy>  (30) 
133.90340769579575

>  <Genealogy>  (30) 
Cc1nn(C)c([O-])c1CN1CCCN(Cc2nc(Cc3ccccc3)no2)CC1 (protonated)
Cc1nn(C)c([O-])c1CN1CCCN(Cc2nc(Cc3ccccc3)no2)CC1 (3D coordinates assigned)
Cc1nn(C)c([O-])c1CN1CCCN(Cc2nc(Cc3ccccc3)no2)CC1 (nonaromatic ring conformer: 133.90340769579575 kcal/mol)

>  <smiles>  (30) 
Cc1nn(C)c(O)c1CN1CCCN(Cc2nc(Cc3ccccc3)no2)CC1

>  <score_type>  (30) 
oracle

>  <origin>  (30) 
adg

>  <m_score__min__energy>  (30) 
-11.210000000000001

>  <m_primary>  (30) 
energy

$$$$
30:0
     RDKit          3D

 26 27  0  0  1  0  0  0  0  0999 V2000
   59.1270   30.2170   47.5000 C   0  0  0  0  0  0  0  0  0  0  0  0
   58.1660   31.1620   47.1400 O   0  0  0  0  0  0  0  0  0  0  0  0
   58.3670   32.3010   46.3990 C   0  0  0  0  0  0  0  0  0  0  0  0
   59.0580   33.3960   46.9250 C   0  0  0  0  0  0  0  0  0  0  0  0
   59.2510   34.5440   46.1580 C   0  0  0  0  0  0  0  0  0  0  0  0
   58.7430   34.5650   44.8720 C   0  0  0  0  0  0  0  0  0  0  0  0
   58.0570   33.4880   44.3370 C   0  0  0  0  0  0  0  0  0  0  0  0
   57.8770   32.3640   45.1130 C   0  0  0  0  0  0  0  0  0  0  0  0
   57.1590   31.2080   44.5870 C   0  0  0  0  0  0  0  0  0  0  0  0
   55.9010   31.2080   44.5710 O   0  0  0  0  0  0  0  0  0  0  0  0
   57.8270   30.0590   44.0840 N   0  0  0  0  0  0  0  0  0  0  0  0
   57.5350   28.9270   44.6480 C   0  0  0  0  0  0  0  0  0  0  0  0
   58.1070   27.7180   44.4120 N   0  0  0  0  0  0  0  0  0  0  0  0
   57.4880   26.8210   45.2290 C   0  0  0  0  0  0  0  0  0  0  0  0
   56.5530   27.4890   45.9480 N   0  0  0  0  0  0  0  0  0  0  0  0
   56.5870   28.7750   45.5900 N   0  0  0  0  0  0  0  0  0  0  0  0
   59.1888   30.1563   48.5966 H   0  0  0  0  0  0  0  0  0  0  0  0
   58.8453   29.2344   47.0936 H   0  0  0  0  0  0  0  0  0  0  0  0
   60.1047   30.5152   47.0936 H   0  0  0  0  0  0  0  0  0  0  0  0
   59.4522   33.3517   47.9510 H   0  0  0  0  0  0  0  0  0  0  0  0
   59.7931   35.4103   46.5650 H   0  0  0  0  0  0  0  0  0  0  0  0
   58.8883   35.4644   44.2556 H   0  0  0  0  0  0  0  0  0  0  0  0
   57.6628   33.5290   43.3109 H   0  0  0  0  0  0  0  0  0  0  0  0
   57.7079   25.7452   45.2938 H   0  0  0  0  0  0  0  0  0  0  0  0
   55.8940   27.0920   46.6770 H   0  0  0  0  0  0  0  0  0  0  0  0
   55.9630   29.5290   45.9920 H   0  0  0  0  0  0  0  0  0  0  0  0
  1  2  1  0
  2  3  1  0
  3  4  2  0
  4  5  1  0
  5  6  2  0
  6  7  1  0
  7  8  2  0
  8  9  1  0
  9 10  2  0
  9 11  1  0
 11 12  2  0
 12 13  1  0
 13 14  2  0
 14 15  1  0
 15 16  1  0
  8  3  1  0
 16 12  1  0
  1 17  1  0
  1 18  1  0
  1 19  1  0
  4 20  1  0
  5 21  1  0
  6 22  1  0
  7 23  1  0
 14 24  1  0
 15 25  1  0
 16 26  1  0
M  END
>  <smiles>  (31) 
COc1ccccc1C(=O)N=c1nc[nH][nH]1

>  <score_type>  (31) 
oracle

>  <origin>  (31) 
adg

>  <m_score__min__energy>  (31) 
-6.0300000000000002

>  <m_primary>  (31) 
energy

$$$$
31:0
     RDKit          3D

 45 47  0  0  0  0  0  0  0  0999 V2000
   64.5720   32.3230   49.5330 C   0  0  0  0  0  0  0  0  0  0  0  0
   63.6450   33.4920   49.6730 C   0  0  0  0  0  0  0  0  0  0  0  0
   63.8480   34.3100   50.6120 O   0  0  0  0  0  0  0  0  0  0  0  0
   62.5050   33.7060   48.7420 C   0  0  0  0  0  0  0  0  0  0  0  0
   61.2470   34.1350   49.2040 C   0  0  0  0  0  0  0  0  0  0  0  0
   60.1930   34.3200   48.3090 C   0  0  0  0  0  0  0  0  0  0  0  0
   60.3920   34.0640   46.9470 C   0  0  0  0  0  0  0  0  0  0  0  0
   59.2720   34.2270   45.9590 C   0  0  0  0  0  0  0  0  0  0  0  0
   58.6760   32.9250   45.6210 N   0  0  0  0  0  0  0  0  0  0  0  0
   58.5630   31.8710   46.6380 C   0  0  0  0  0  0  0  0  0  0  0  0
   59.6940   30.8400   46.5250 C   0  0  0  0  0  0  0  0  0  0  0  0
   59.2040   29.5280   45.9820 C   0  0  0  0  0  0  0  0  0  0  0  0
   58.3610   28.7000   46.7390 C   0  0  0  0  0  0  0  0  0  0  0  0
   57.9000   27.5020   46.1890 C   0  0  0  0  0  0  0  0  0  0  0  0
   58.2870   27.1370   44.9000 C   0  0  0  0  0  0  0  0  0  0  0  0
   59.1340   27.9790   44.1760 C   0  0  0  0  0  0  0  0  0  0  0  0
   59.5680   29.1440   44.7260 N   0  0  0  0  0  0  0  0  0  0  0  0
   58.2220   32.6620   44.2810 C   0  0  0  0  0  0  0  0  0  0  0  0
   58.5700   33.4290   43.3440 O   0  0  0  0  0  0  0  0  0  0  0  0
   57.3400   31.5210   43.9820 C   0  0  0  0  0  0  0  0  0  0  0  0
   57.1600   30.9430   42.7370 C   0  0  0  0  0  0  0  0  0  0  0  0
   56.2880   29.8940   42.9230 C   0  0  0  0  0  0  0  0  0  0  0  0
   55.9960   29.8870   44.2670 C   0  0  0  0  0  0  0  0  0  0  0  0
   55.1490   28.9770   44.8860 O   0  0  0  0  0  0  0  0  0  0  0  0
   56.6340   30.8700   44.9290 N   0  0  0  0  0  0  0  0  0  0  0  0
   61.6160   33.6590   46.5130 N   0  0  0  0  0  0  0  0  0  0  0  0
   62.6610   33.4810   47.3630 C   0  0  0  0  0  0  0  0  0  0  0  0
   64.8590   31.9610   50.5313 H   0  0  0  0  0  0  0  0  0  0  0  0
   64.0650   31.5169   48.9825 H   0  0  0  0  0  0  0  0  0  0  0  0
   65.4725   32.6330   48.9825 H   0  0  0  0  0  0  0  0  0  0  0  0
   61.0939   34.3255   50.2765 H   0  0  0  0  0  0  0  0  0  0  0  0
   59.2129   34.6644   48.6707 H   0  0  0  0  0  0  0  0  0  0  0  0
   58.4978   34.8749   46.3959 H   0  0  0  0  0  0  0  0  0  0  0  0
   59.6765   34.6773   45.0405 H   0  0  0  0  0  0  0  0  0  0  0  0
   58.6026   32.3338   47.6351 H   0  0  0  0  0  0  0  0  0  0  0  0
   57.6086   31.3473   46.4802 H   0  0  0  0  0  0  0  0  0  0  0  0
   60.4698   31.2355   45.8530 H   0  0  0  0  0  0  0  0  0  0  0  0
   60.0956   30.6628   47.5336 H   0  0  0  0  0  0  0  0  0  0  0  0
   58.0657   28.9923   47.7575 H   0  0  0  0  0  0  0  0  0  0  0  0
   57.2336   26.8483   46.7708 H   0  0  0  0  0  0  0  0  0  0  0  0
   57.9288   26.1956   44.4580 H   0  0  0  0  0  0  0  0  0  0  0  0
   59.4501   27.6994   43.1602 H   0  0  0  0  0  0  0  0  0  0  0  0
   57.6211   31.2585   41.7895 H   0  0  0  0  0  0  0  0  0  0  0  0
   55.9046   29.2048   42.1562 H   0  0  0  0  0  0  0  0  0  0  0  0
   63.6362   33.1585   46.9693 H   0  0  0  0  0  0  0  0  0  0  0  0
  1  2  1  0
  2  3  2  0
  2  4  1  0
  4  5  2  0
  5  6  1  0
  6  7  2  0
  7  8  1  0
  8  9  1  0
  9 10  1  0
 10 11  1  0
 11 12  1  0
 12 13  2  0
 13 14  1  0
 14 15  2  0
 15 16  1  0
 16 17  2  0
  9 18  1  0
 18 19  2  0
 18 20  1  0
 20 21  2  0
 21 22  1  0
 22 23  2  0
 23 24  1  0
 23 25  1  0
  7 26  1  0
 26 27  2  0
 27  4  1  0
 17 12  1  0
 25 20  1  0
  1 28  1  0
  1 29  1  0
  1 30  1  0
  5 31  1  0
  6 32  1  0
  8 33  1  0
  8 34  1  0
 10 35  1  0
 10 36  1  0
 11 37  1  0
 11 38  1  0
 13 39  1  0
 14 40  1  0
 15 41  1  0
 16 42  1  0
 21 43  1  0
 22 44  1  0
 27 45  1  0
M  CHG  2  24  -1  25  -1
M  END
>  <UniqueID>  (32) 
29

>  <SMILES>  (32) 
CC(=O)c1ccc(CN(CCc2ccccn2)C(=O)c2ccc([O-])[n-]2)nc1

>  <Energy>  (32) 
71.62511525407668

>  <Genealogy>  (32) 
CC(=O)c1ccc(CN(CCc2ccccn2)C(=O)c2ccc([O-])[n-]2)nc1 (protonated)
CC(=O)c1ccc(CN(CCc2ccccn2)C(=O)c2ccc([O-])[n-]2)nc1 (3D coordinates assigned)
CC(=O)c1ccc(CN(CCc2ccccn2)C(=O)c2ccc([O-])[n-]2)nc1 (optimized conformer: 71.62511525407668 kcal/mol)

>  <smiles>  (32) 
CC(=O)c1ccc(CN(CCc2ccccn2)C(=O)c2ccc(O)[nH]2)nc1

>  <score_type>  (32) 
oracle

>  <origin>  (32) 
adg

>  <m_score__min__energy>  (32) 
-13.67

>  <m_primary>  (32) 
energy

$$$$
32:0
     RDKit          3D

 72 76  0  0  1  0  0  0  0  0999 V2000
   67.7910   26.4310   50.1200 C   0  0  0  0  0  0  0  0  0  0  0  0
   66.5190   26.2510   50.7020 O   0  0  0  0  0  0  0  0  0  0  0  0
   65.9710   27.1650   51.5980 C   0  0  0  0  0  0  0  0  0  0  0  0
   66.7090   28.1050   52.0060 O   0  0  0  0  0  0  0  0  0  0  0  0
   64.6190   27.0380   52.0370 N   0  0  0  0  0  0  0  0  0  0  0  0
   63.8970   28.1100   52.2160 C   0  0  0  0  0  0  0  0  0  0  0  0
   64.3710   29.1190   52.9910 N   0  0  0  0  0  0  0  0  0  0  0  0
   63.7040   30.2450   53.2260 C   0  0  0  0  0  0  0  0  0  0  0  0
   64.2590   31.1320   53.9790 N   0  0  0  0  0  0  0  0  0  0  0  0
   65.6330   31.5560   53.8130 C   0  0  0  0  0  0  0  0  0  0  0  0
   65.8400   31.9860   52.4050 C   0  0  0  0  0  0  0  0  0  0  0  0
   67.1020   31.9070   51.8540 C   0  0  0  0  0  0  0  0  0  0  0  0
   67.2510   32.3110   50.5590 C   0  0  0  0  0  0  0  0  0  0  0  0
   66.1870   32.7810   49.8250 C   0  0  0  0  0  0  0  0  0  0  0  0
   64.8970   32.8760   50.3490 C   0  0  0  0  0  0  0  0  0  0  0  0
   63.8720   33.3690   49.5250 N   0  0  0  0  0  0  0  0  0  0  0  0
   62.6540   32.7380   49.2030 C   0  0  0  0  0  0  0  0  0  0  0  0
   62.3880   31.6040   49.6690 O   0  0  0  0  0  0  0  0  0  0  0  0
   61.6370   33.3330   48.3270 C   0  0  0  0  0  0  0  0  0  0  0  0
   60.4610   33.8680   48.8050 C   0  0  0  0  0  0  0  0  0  0  0  0
   59.5320   34.4170   47.9420 C   0  0  0  0  0  0  0  0  0  0  0  0
   59.7060   34.4700   46.5860 C   0  0  0  0  0  0  0  0  0  0  0  0
   58.8810   34.9750   45.6540 O   0  0  0  0  0  0  0  0  0  0  0  0
   57.8530   34.5240   44.8900 C   0  0  0  0  0  0  0  0  0  0  0  0
   57.7980   33.0870   44.6120 C   0  0  0  0  0  0  0  0  0  0  0  0
   57.8170   32.2210   45.6940 C   0  0  0  0  0  0  0  0  0  0  0  0
   57.7900   30.8390   45.5210 C   0  0  0  0  0  0  0  0  0  0  0  0
   57.7440   30.2990   44.2530 C   0  0  0  0  0  0  0  0  0  0  0  0
   57.7250   31.1430   43.1580 C   0  0  0  0  0  0  0  0  0  0  0  0
   57.7530   32.5060   43.3690 C   0  0  0  0  0  0  0  0  0  0  0  0
   60.9170   33.9180   46.1190 C   0  0  0  0  0  0  0  0  0  0  0  0
   61.8360   33.3740   46.9670 C   0  0  0  0  0  0  0  0  0  0  0  0
   64.7580   32.4670   51.6530 C   0  0  0  0  0  0  0  0  0  0  0  0
   62.4600   30.4000   52.6530 C   0  0  0  0  0  0  0  0  0  0  0  0
   61.7470   31.5520   52.8780 C   0  0  0  0  0  0  0  0  0  0  0  0
   60.5030   31.6430   52.2710 C   0  0  0  0  0  0  0  0  0  0  0  0
   59.9920   30.6340   51.4770 C   0  0  0  0  0  0  0  0  0  0  0  0
   58.4360   30.7170   50.7020 S   0  0  0  0  0  0  0  0  0  0  0  0
   57.7550   32.3010   50.7810 N   0  0  0  0  0  0  0  0  0  0  0  0
   57.4250   29.7900   51.3300 O   0  0  0  0  0  0  0  0  0  0  0  0
   58.5560   30.3120   49.2510 O   0  0  0  0  0  0  0  0  0  0  0  0
   60.7440   29.4900   51.2770 C   0  0  0  0  0  0  0  0  0  0  0  0
   61.9820   29.3700   51.8650 C   0  0  0  0  0  0  0  0  0  0  0  0
   62.6840   28.2370   51.6440 N   0  0  0  0  0  0  0  0  0  0  0  0
   68.5454   26.5378   50.9134 H   0  0  0  0  0  0  0  0  0  0  0  0
   68.0357   25.5585   49.4964 H   0  0  0  0  0  0  0  0  0  0  0  0
   67.7840   27.3371   49.4964 H   0  0  0  0  0  0  0  0  0  0  0  0
   65.3100   28.9660   53.4050 H   0  0  0  0  0  0  0  0  0  0  0  0
   65.8439   32.3968   54.4902 H   0  0  0  0  0  0  0  0  0  0  0  0
   66.3104   30.7225   54.0505 H   0  0  0  0  0  0  0  0  0  0  0  0
   67.9565   31.5323   52.4367 H   0  0  0  0  0  0  0  0  0  0  0  0
   68.2453   32.2595   50.0913 H   0  0  0  0  0  0  0  0  0  0  0  0
   66.3595   33.0941   48.7847 H   0  0  0  0  0  0  0  0  0  0  0  0
   64.0240   34.3210   49.0950 H   0  0  0  0  0  0  0  0  0  0  0  0
   60.2592   33.8580   49.8863 H   0  0  0  0  0  0  0  0  0  0  0  0
   58.6061   34.8323   48.3665 H   0  0  0  0  0  0  0  0  0  0  0  0
   56.9180   34.7969   45.4011 H   0  0  0  0  0  0  0  0  0  0  0  0
   58.0061   34.9943   43.9075 H   0  0  0  0  0  0  0  0  0  0  0  0
   57.8543   32.6345   46.7127 H   0  0  0  0  0  0  0  0  0  0  0  0
   57.8054   30.1763   46.3988 H   0  0  0  0  0  0  0  0  0  0  0  0
   57.7226   29.2080   44.1141 H   0  0  0  0  0  0  0  0  0  0  0  0
   57.6882   30.7350   42.1371 H   0  0  0  0  0  0  0  0  0  0  0  0
   57.7384   33.1663   42.4893 H   0  0  0  0  0  0  0  0  0  0  0  0
   61.1263   33.9266   45.0391 H   0  0  0  0  0  0  0  0  0  0  0  0
   62.7642   32.9555   46.5507 H   0  0  0  0  0  0  0  0  0  0  0  0
   63.7649   32.5184   52.1232 H   0  0  0  0  0  0  0  0  0  0  0  0
   62.1427   32.3622   53.5081 H   0  0  0  0  0  0  0  0  0  0  0  0
   59.9018   32.5508   52.4273 H   0  0  0  0  0  0  0  0  0  0  0  0
   56.7390   32.2890   50.4890 H   0  0  0  0  0  0  0  0  0  0  0  0
   58.2610   32.9420   50.1050 H   0  0  0  0  0  0  0  0  0  0  0  0
   60.3523   28.6769   50.6482 H   0  0  0  0  0  0  0  0  0  0  0  0
   62.3320   27.4650   51.0560 H   0  0  0  0  0  0  0  0  0  0  0  0
  1  2  1  0
  2  3  1  0
  3  4  2  0
  3  5  1  0
  5  6  2  0
  6  7  1  0
  7  8  1  0
  8  9  2  0
  9 10  1  0
 10 11  1  0
 11 12  2  0
 12 13  1  0
 13 14  2  0
 14 15  1  0
 15 16  1  0
 16 17  1  0
 17 18  2  0
 17 19  1  0
 19 20  2  0
 20 21  1  0
 21 22  2  0
 22 23  1  0
 23 24  1  0
 24 25  1  0
 25 26  2  0
 26 27  1  0
 27 28  2  0
 28 29  1  0
 29 30  2  0
 22 31  1  0
 31 32  2  0
 15 33  2  0
  8 34  1  0
 34 35  2  0
 35 36  1  0
 36 37  2  0
 37 38  1  0
 38 39  1  0
 38 40  2  0
 38 41  2  0
 37 42  1  0
 42 43  2  0
 43 44  1  0
 44  6  1  0
 33 11  1  0
 43 34  1  0
 32 19  1  0
 30 25  1  0
  1 45  1  0
  1 46  1  0
  1 47  1  0
  7 48  1  0
 10 49  1  0
 10 50  1  0
 12 51  1  0
 13 52  1  0
 14 53  1  0
 16 54  1  0
 20 55  1  0
 21 56  1  0
 24 57  1  0
 24 58  1  0
 26 59  1  0
 27 60  1  0
 28 61  1  0
 29 62  1  0
 30 63  1  0
 31 64  1  0
 32 65  1  0
 33 66  1  0
 35 67  1  0
 36 68  1  0
 39 69  1  0
 39 70  1  0
 42 71  1  0
 44 72  1  0
M  END
>  <smiles>  (33) 
COC(=O)N=c1[nH]c(=NCc2cccc(NC(=O)c3ccc(OCc4ccccc4)cc3)c2)c2ccc(S(N)(=O)=O)cc2[nH]1

>  <score_type>  (33) 
oracle

>  <origin>  (33) 
adg

>  <m_score__min__energy>  (33) 
-10.359999999999999

>  <m_primary>  (33) 
energy

$$$$
33:0
     RDKit          3D

 58 61  0  0  0  0  0  0  0  0999 V2000
   57.3100   29.6830   52.9200 C   0  0  0  0  0  0  0  0  0  0  0  0
   57.6000   29.7210   51.5390 O   0  0  0  0  0  0  0  0  0  0  0  0
   58.7740   30.3180   51.1020 C   0  0  0  0  0  0  0  0  0  0  0  0
   59.8330   29.6110   50.5710 C   0  0  0  0  0  0  0  0  0  0  0  0
   60.9830   30.2650   50.1510 C   0  0  0  0  0  0  0  0  0  0  0  0
   61.1020   31.6550   50.2550 C   0  0  0  0  0  0  0  0  0  0  0  0
   62.2990   32.2390   49.7950 N   0  0  0  0  0  0  0  0  0  0  0  0
   62.5300   33.0480   48.3150 S   0  0  0  0  0  0  0  0  0  0  0  0
   63.1410   34.4160   48.5550 O   0  0  0  0  0  0  0  0  0  0  0  0
   63.5070   32.2740   47.4350 O   0  0  0  0  0  0  0  0  0  0  0  0
   61.0890   33.2450   47.3590 C   0  0  0  0  0  0  0  0  0  0  0  0
   60.6650   34.4980   46.9500 C   0  0  0  0  0  0  0  0  0  0  0  0
   59.5190   34.5730   46.1980 C   0  0  0  0  0  0  0  0  0  0  0  0
   58.8060   33.4500   45.8550 C   0  0  0  0  0  0  0  0  0  0  0  0
   57.3600   33.6820   44.8910 Cl  0  0  0  0  0  0  0  0  0  0  0  0
   59.2110   32.1620   46.2550 C   0  0  0  0  0  0  0  0  0  0  0  0
   58.4460   31.0510   45.8540 N   0  0  0  0  0  0  0  0  0  0  0  0
   58.3840   29.7500   46.4200 C   0  0  0  0  0  0  0  0  0  0  0  0
   58.2050   28.6250   45.5060 C   0  0  0  0  0  0  0  0  0  0  0  0
   58.6670   28.5140   44.2250 C   0  0  0  0  0  0  0  0  0  0  0  0
   58.4640   27.3880   43.4300 C   0  0  0  0  0  0  0  0  0  0  0  0
   57.7700   26.3250   43.9280 C   0  0  0  0  0  0  0  0  0  0  0  0
   57.5940   25.2560   43.1290 N   0  0  0  0  0  0  0  0  0  0  0  0
   56.9050   24.2230   43.6500 C   0  0  0  0  0  0  0  0  0  0  0  0
   56.6970   23.1570   42.9350 N   0  0  0  0  0  0  0  0  0  0  0  0
   56.4280   24.2770   44.9030 N   0  0  0  0  0  0  0  0  0  0  0  0
   56.5930   25.3360   45.7170 C   0  0  0  0  0  0  0  0  0  0  0  0
   56.0920   25.2670   46.8860 N   0  0  0  0  0  0  0  0  0  0  0  0
   57.2920   26.4060   45.2120 C   0  0  0  0  0  0  0  0  0  0  0  0
   57.4940   27.5190   45.9980 C   0  0  0  0  0  0  0  0  0  0  0  0
   60.3590   32.1270   47.0030 C   0  0  0  0  0  0  0  0  0  0  0  0
   60.0320   32.3200   50.7860 C   0  0  0  0  0  0  0  0  0  0  0  0
   58.8720   31.6930   51.2130 C   0  0  0  0  0  0  0  0  0  0  0  0
   57.8120   32.4140   51.7470 O   0  0  0  0  0  0  0  0  0  0  0  0
   58.1290   33.5230   52.5740 C   0  0  0  0  0  0  0  0  0  0  0  0
   58.2407   29.8050   53.4936 H   0  0  0  0  0  0  0  0  0  0  0  0
   56.6150   30.4978   53.1713 H   0  0  0  0  0  0  0  0  0  0  0  0
   56.8484   28.7167   53.1713 H   0  0  0  0  0  0  0  0  0  0  0  0
   59.7653   28.5169   50.4794 H   0  0  0  0  0  0  0  0  0  0  0  0
   61.8143   29.6808   49.7295 H   0  0  0  0  0  0  0  0  0  0  0  0
   63.1270   32.1580   50.4400 H   0  0  0  0  0  0  0  0  0  0  0  0
   61.2281   35.4039   47.2189 H   0  0  0  0  0  0  0  0  0  0  0  0
   59.1624   35.5577   45.8614 H   0  0  0  0  0  0  0  0  0  0  0  0
   57.8220   31.2160   45.0030 H   0  0  0  0  0  0  0  0  0  0  0  0
   59.3236   29.5836   46.9673 H   0  0  0  0  0  0  0  0  0  0  0  0
   57.4742   29.7564   47.0382 H   0  0  0  0  0  0  0  0  0  0  0  0
   59.2289   29.3582   43.7988 H   0  0  0  0  0  0  0  0  0  0  0  0
   58.8619   27.3566   42.4050 H   0  0  0  0  0  0  0  0  0  0  0  0
   57.9620   25.2070   42.1550 H   0  0  0  0  0  0  0  0  0  0  0  0
   56.7310   23.1510   41.9090 H   0  0  0  0  0  0  0  0  0  0  0  0
   55.9030   23.4430   45.2450 H   0  0  0  0  0  0  0  0  0  0  0  0
   55.5140   25.9520   47.3730 H   0  0  0  0  0  0  0  0  0  0  0  0
   57.0938   27.5415   47.0224 H   0  0  0  0  0  0  0  0  0  0  0  0
   60.7227   31.1457   47.3418 H   0  0  0  0  0  0  0  0  0  0  0  0
   60.0953   33.4142   50.8796 H   0  0  0  0  0  0  0  0  0  0  0  0
   58.0448   33.2285   53.6305 H   0  0  0  0  0  0  0  0  0  0  0  0
   59.1575   33.8532   52.3662 H   0  0  0  0  0  0  0  0  0  0  0  0
   57.4304   34.3469   52.3662 H   0  0  0  0  0  0  0  0  0  0  0  0
  1  2  1  0
  2  3  1  0
  3  4  2  0
  4  5  1  0
  5  6  2  0
  6  7  1  0
  7  8  1  0
  8  9  2  0
  8 10  2  0
  8 11  1  0
 11 12  2  0
 12 13  1  0
 13 14  2  0
 14 15  1  0
 14 16  1  0
 16 17  1  0
 17 18  1  0
 18 19  1  0
 19 20  2  0
 20 21  1  0
 21 22  2  0
 22 23  1  0
 23 24  1  0
 24 25  2  3
 24 26  1  0
 26 27  1  0
 27 28  2  3
 27 29  1  0
 29 30  2  0
 16 31  2  0
  6 32  1  0
 32 33  2  0
 33 34  1  0
 34 35  1  0
 33  3  1  0
 31 11  1  0
 30 19  1  0
 29 22  1  0
  1 36  1  0
  1 37  1  0
  1 38  1  0
  4 39  1  0
  5 40  1  0
  7 41  1  0
 12 42  1  0
 13 43  1  0
 17 44  1  0
 18 45  1  0
 18 46  1  0
 20 47  1  0
 21 48  1  0
 23 49  1  0
 25 50  1  0
 26 51  1  0
 28 52  1  0
 30 53  1  0
 31 54  1  0
 32 55  1  0
 35 56  1  0
 35 57  1  0
 35 58  1  0
M  END
>  <smiles>  (34) 
COc1ccc(NS(=O)(=O)c2ccc(Cl)c(NCc3ccc4[nH]c(=N)[nH]c(=N)c4c3)c2)cc1OC

>  <score_type>  (34) 
oracle

>  <origin>  (34) 
adg

>  <m_score__min__energy>  (34) 
-10.34

>  <m_primary>  (34) 
energy

$$$$
34:0
     RDKit          3D

 38 41  0  0  0  0  0  0  0  0999 V2000
   55.7160   25.8100   45.8960 N   0  0  0  0  0  0  0  0  0  0  0  0
   56.3550   26.9310   45.9780 C   0  0  0  0  0  0  0  0  0  0  0  0
   55.9500   28.0070   45.2560 N   0  0  0  0  0  0  0  0  0  0  0  0
   56.6100   29.1910   45.3310 C   0  0  0  0  0  0  0  0  0  0  0  0
   57.7380   29.3210   46.1570 C   0  0  0  0  0  0  0  0  0  0  0  0
   58.4580   30.6180   46.2480 C   0  0  0  0  0  0  0  0  0  0  0  0
   57.9550   31.7870   45.6540 C   0  0  0  0  0  0  0  0  0  0  0  0
   58.6690   32.9850   45.7710 C   0  0  0  0  0  0  0  0  0  0  0  0
   58.1900   34.1660   45.1840 C   0  0  0  0  0  0  0  0  0  0  0  0
   58.8930   35.3220   45.3070 N   0  0  0  0  0  0  0  0  0  0  0  0
   60.0660   35.3770   45.9900 C   0  0  0  0  0  0  0  0  0  0  0  0
   60.5840   34.2300   46.5930 C   0  0  0  0  0  0  0  0  0  0  0  0
   59.8850   33.0150   46.4880 C   0  0  0  0  0  0  0  0  0  0  0  0
   60.3490   31.8220   47.0800 C   0  0  0  0  0  0  0  0  0  0  0  0
   61.5700   31.7780   47.8300 N   0  0  0  0  0  0  0  0  0  0  0  0
   62.8350   32.1330   47.1850 C   0  0  0  0  0  0  0  0  0  0  0  0
   63.7880   32.7290   48.2240 C   0  0  0  0  0  0  0  0  0  0  0  0
   63.8960   31.8810   49.3530 O   0  0  0  0  0  0  0  0  0  0  0  0
   62.6510   31.8150   50.0230 C   0  0  0  0  0  0  0  0  0  0  0  0
   61.5950   31.1380   49.1440 C   0  0  0  0  0  0  0  0  0  0  0  0
   59.6270   30.6780   46.9430 N   0  0  0  0  0  0  0  0  0  0  0  0
   58.1280   28.1950   46.9010 C   0  0  0  0  0  0  0  0  0  0  0  0
   57.4340   27.0320   46.7950 N   0  0  0  0  0  0  0  0  0  0  0  0
   55.1800   25.5500   45.0370 H   0  0  0  0  0  0  0  0  0  0  0  0
   56.2598   30.0518   44.7424 H   0  0  0  0  0  0  0  0  0  0  0  0
   57.0051   31.7611   45.0999 H   0  0  0  0  0  0  0  0  0  0  0  0
   57.2437   34.1558   44.6233 H   0  0  0  0  0  0  0  0  0  0  0  0
   60.6100   36.3299   46.0681 H   0  0  0  0  0  0  0  0  0  0  0  0
   61.5332   34.2764   47.1469 H   0  0  0  0  0  0  0  0  0  0  0  0
   63.2882   31.2320   46.7460 H   0  0  0  0  0  0  0  0  0  0  0  0
   62.6476   32.8725   46.3926 H   0  0  0  0  0  0  0  0  0  0  0  0
   64.7825   32.8545   47.7710 H   0  0  0  0  0  0  0  0  0  0  0  0
   63.3901   33.7012   48.5503 H   0  0  0  0  0  0  0  0  0  0  0  0
   62.7714   31.2375   50.9514 H   0  0  0  0  0  0  0  0  0  0  0  0
   62.3177   32.8387   50.2490 H   0  0  0  0  0  0  0  0  0  0  0  0
   61.8430   30.0726   49.0280 H   0  0  0  0  0  0  0  0  0  0  0  0
   60.6070   31.2356   49.6177 H   0  0  0  0  0  0  0  0  0  0  0  0
   58.9980   28.2552   47.5714 H   0  0  0  0  0  0  0  0  0  0  0  0
  1  2  2  3
  2  3  1  0
  3  4  2  0
  4  5  1  0
  5  6  1  0
  6  7  2  0
  7  8  1  0
  8  9  2  0
  9 10  1  0
 10 11  2  0
 11 12  1  0
 12 13  2  0
 13 14  1  0
 14 15  1  0
 15 16  1  0
 16 17  1  0
 17 18  1  0
 18 19  1  0
 19 20  1  0
 14 21  2  0
  5 22  2  0
 22 23  1  0
 23  2  1  0
 21  6  1  0
 13  8  1  0
 20 15  1  0
  1 24  1  0
  4 25  1  0
  7 26  1  0
  9 27  1  0
 11 28  1  0
 12 29  1  0
 16 30  1  0
 16 31  1  0
 17 32  1  0
 17 33  1  0
 19 34  1  0
 19 35  1  0
 20 36  1  0
 20 37  1  0
 22 38  1  0
M  CHG  1  23  -1
M  END
>  <UniqueID>  (35) 
30

>  <SMILES>  (35) 
N=c1ncc(-c2cc3cnccc3c(N3CCOCC3)n2)c[n-]1

>  <Energy>  (35) 
58.77115672430963

>  <Genealogy>  (35) 
N=c1ncc(-c2cc3cnccc3c(N3CCOCC3)n2)c[n-]1 (protonated)
N=c1ncc(-c2cc3cnccc3c(N3CCOCC3)n2)c[n-]1 (3D coordinates assigned)
N=c1ncc(-c2cc3cnccc3c(N3CCOCC3)n2)c[n-]1 (nonaromatic ring conformer: 58.77115672430963 kcal/mol)

>  <smiles>  (35) 
N=c1ncc(-c2cc3cnccc3c(N3CCOCC3)n2)c[nH]1

>  <score_type>  (35) 
oracle

>  <origin>  (35) 
adg

>  <m_score__min__energy>  (35) 
-9.1600000000000001

>  <m_primary>  (35) 
energy

$$$$
35:0
     RDKit          3D

 36 37  0  0  0  0  0  0  0  0999 V2000
   54.6840   27.0900   46.6730 H   0  0  0  0  0  0  0  0  0  0  0  0
   54.7940   26.3160   45.9800 N   0  0  0  0  0  0  0  0  0  0  0  0
   56.4730   25.9120   45.9380 S   0  0  0  0  0  0  0  0  0  0  0  0
   56.8750   25.3230   47.2610 O   0  0  0  0  0  0  0  0  0  0  0  0
   56.7190   24.8910   44.8620 O   0  0  0  0  0  0  0  0  0  0  0  0
   57.4240   27.3560   45.6040 C   0  0  0  0  0  0  0  0  0  0  0  0
   58.8210   27.2780   45.5720 C   0  0  0  0  0  0  0  0  0  0  0  0
   59.3207   26.3143   45.7496 H   0  0  0  0  0  0  0  0  0  0  0  0
   59.5830   28.4210   45.3150 C   0  0  0  0  0  0  0  0  0  0  0  0
   60.6811   28.3575   45.3017 H   0  0  0  0  0  0  0  0  0  0  0  0
   58.9520   29.6440   45.0750 C   0  0  0  0  0  0  0  0  0  0  0  0
   59.5552   30.5465   44.8972 H   0  0  0  0  0  0  0  0  0  0  0  0
   57.5500   29.7250   45.0600 C   0  0  0  0  0  0  0  0  0  0  0  0
   56.8720   30.9710   44.8560 N   0  0  0  0  0  0  0  0  0  0  0  0
   57.3900   32.1310   44.1930 C   0  0  0  0  0  0  0  0  0  0  0  0
   57.9940   31.9820   43.0990 O   0  0  0  0  0  0  0  0  0  0  0  0
   57.3940   33.4840   44.8420 C   0  0  0  0  0  0  0  0  0  0  0  0
   58.3563   33.9816   44.6514 H   0  0  0  0  0  0  0  0  0  0  0  0
   56.5815   34.0980   44.4262 H   0  0  0  0  0  0  0  0  0  0  0  0
   57.2080   33.3260   46.2440 O   0  0  0  0  0  0  0  0  0  0  0  0
   58.2200   33.5650   47.1790 C   0  0  0  0  0  0  0  0  0  0  0  0
   58.2960   32.8780   48.2330 O   0  0  0  0  0  0  0  0  0  0  0  0
   59.1600   34.6790   46.9790 C   0  0  0  0  0  0  0  0  0  0  0  0
   58.8550   35.6774   47.3256 H   0  0  0  0  0  0  0  0  0  0  0  0
   60.3640   34.5570   46.4020 C   0  0  0  0  0  0  0  0  0  0  0  0
   60.6313   35.2841   45.6211 H   0  0  0  0  0  0  0  0  0  0  0  0
   61.3560   33.5190   46.7380 C   0  0  0  0  0  0  0  0  0  0  0  0
   63.0040   33.8010   46.9080 S   0  0  0  0  0  0  0  0  0  0  0  0
   63.4050   32.2610   47.4510 C   0  0  0  0  0  0  0  0  0  0  0  0
   64.4172   31.9066   47.6958 H   0  0  0  0  0  0  0  0  0  0  0  0
   62.2380   31.5140   47.5370 C   0  0  0  0  0  0  0  0  0  0  0  0
   62.2169   30.4693   47.8808 H   0  0  0  0  0  0  0  0  0  0  0  0
   61.0920   32.2130   47.1460 C   0  0  0  0  0  0  0  0  0  0  0  0
   60.0828   31.7757   47.1591 H   0  0  0  0  0  0  0  0  0  0  0  0
   56.7920   28.5830   45.3520 C   0  0  0  0  0  0  0  0  0  0  0  0
   55.6944   28.6491   45.3838 H   0  0  0  0  0  0  0  0  0  0  0  0
  1  2  1  0
  2  3  1  0
  3  4  2  0
  3  5  2  0
  3  6  1  0
  6  7  2  0
  7  8  1  0
  7  9  1  0
  9 10  1  0
  9 11  2  0
 11 12  1  0
 11 13  1  0
 13 14  1  0
 14 15  1  0
 15 16  2  0
 15 17  1  0
 17 18  1  0
 17 19  1  0
 17 20  1  0
 20 21  1  0
 21 22  2  0
 21 23  1  0
 23 24  1  0
 23 25  2  0
 25 26  1  0
 25 27  1  0
 27 28  1  0
 28 29  1  0
 29 30  1  0
 29 31  2  0
 31 32  1  0
 31 33  1  0
 33 34  1  0
 13 35  2  0
 35 36  1  0
 35  6  1  0
 33 27  2  0
M  CHG  2   2  -1  14  -1
M  END
>  <UniqueID>  (36) 
31

>  <SMILES>  (36) 
[NH-]S(=O)(=O)c1cccc([N-]C(=O)COC(=O)/C=C\c2cccs2)c1

>  <Energy>  (36) 
67.38776332593542

>  <Genealogy>  (36) 
[NH-]S(=O)(=O)c1cccc([N-]C(=O)COC(=O)C=Cc2cccs2)c1 (protonated)
[NH-]S(=O)(=O)c1cccc([N-]C(=O)COC(=O)/C=C\c2cccs2)c1 (cis-trans isomerization)
[NH-]S(=O)(=O)c1cccc([N-]C(=O)COC(=O)/C=C\c2cccs2)c1 (3D coordinates assigned)
[NH-]S(=O)(=O)c1cccc([N-]C(=O)COC(=O)/C=C\c2cccs2)c1 (optimized conformer: 67.38776332593542 kcal/mol)

>  <smiles>  (36) 
NS(=O)(=O)c1cccc(NC(=O)COC(=O)C=Cc2cccs2)c1

>  <score_type>  (36) 
oracle

>  <origin>  (36) 
adg

>  <m_score__min__energy>  (36) 
-12.51

>  <m_primary>  (36) 
energy

$$$$
36:0
     RDKit          3D

 35 37  0  0  1  0  0  0  0  0999 V2000
   55.5370   29.7990   44.8700 O   0  0  0  0  0  0  0  0  0  0  0  0
   56.6010   29.8820   44.2670 C   0  0  0  0  0  0  0  0  0  0  0  0
   57.0170   30.8160   43.2540 C   0  0  0  0  0  0  0  0  0  0  0  0
   57.7110   31.8980   43.4480 C   0  0  0  0  0  0  0  0  0  0  0  0
   57.9400   32.6290   44.6470 C   0  0  0  0  0  0  0  0  0  0  0  0
   57.7520   32.3040   45.9530 C   0  0  0  0  0  0  0  0  0  0  0  0
   58.1620   33.0860   47.0250 C   0  0  0  0  0  0  0  0  0  0  0  0
   58.8030   34.2840   46.8130 C   0  0  0  0  0  0  0  0  0  0  0  0
   59.0090   34.6500   45.5000 C   0  0  0  0  0  0  0  0  0  0  0  0
   58.6040   33.8740   44.4530 C   0  0  0  0  0  0  0  0  0  0  0  0
   57.5510   28.9110   44.6280 O   0  0  0  0  0  0  0  0  0  0  0  0
   57.5910   28.3490   45.9080 C   0  0  0  0  0  0  0  0  0  0  0  0
   58.1150   27.0170   45.9870 N   0  0  0  0  0  0  0  0  0  0  0  0
   59.3600   26.5360   46.0090 C   0  0  0  0  0  0  0  0  0  0  0  0
   59.3510   25.1780   46.0680 N   0  0  0  0  0  0  0  0  0  0  0  0
   58.0670   24.7750   46.0840 C   0  0  0  0  0  0  0  0  0  0  0  0
   57.4570   23.5380   46.1370 C   0  0  0  0  0  0  0  0  0  0  0  0
   58.1170   22.4800   46.1830 O   0  0  0  0  0  0  0  0  0  0  0  0
   56.1020   23.4080   46.1410 N   0  0  0  0  0  0  0  0  0  0  0  0
   55.3810   24.5120   46.0930 N   0  0  0  0  0  0  0  0  0  0  0  0
   55.9300   25.7470   46.0400 C   0  0  0  0  0  0  0  0  0  0  0  0
   55.1560   26.7160   45.9970 O   0  0  0  0  0  0  0  0  0  0  0  0
   57.3060   25.9200   46.0340 C   0  0  0  0  0  0  0  0  0  0  0  0
   56.7198   30.5934   42.2186 H   0  0  0  0  0  0  0  0  0  0  0  0
   58.1939   32.3105   42.5499 H   0  0  0  0  0  0  0  0  0  0  0  0
   57.2399   31.3565   46.1765 H   0  0  0  0  0  0  0  0  0  0  0  0
   57.9722   32.7439   48.0531 H   0  0  0  0  0  0  0  0  0  0  0  0
   59.1345   34.9180   47.6486 H   0  0  0  0  0  0  0  0  0  0  0  0
   59.5182   35.6019   45.2886 H   0  0  0  0  0  0  0  0  0  0  0  0
   58.7964   34.2209   43.4270 H   0  0  0  0  0  0  0  0  0  0  0  0
   58.2157   28.9958   46.5415 H   0  0  0  0  0  0  0  0  0  0  0  0
   56.5437   28.2787   46.2370 H   0  0  0  0  0  0  0  0  0  0  0  0
   60.2694   27.1544   45.9829 H   0  0  0  0  0  0  0  0  0  0  0  0
   55.6280   22.4880   46.1810 H   0  0  0  0  0  0  0  0  0  0  0  0
   54.3360   24.3990   46.0970 H   0  0  0  0  0  0  0  0  0  0  0  0
  1  2  2  0
  2  3  1  0
  3  4  2  0
  4  5  1  0
  5  6  2  0
  6  7  1  0
  7  8  2  0
  8  9  1  0
  9 10  2  0
  2 11  1  0
 11 12  1  0
 12 13  1  0
 13 14  1  0
 14 15  2  0
 15 16  1  0
 16 17  1  0
 17 18  2  0
 17 19  1  0
 19 20  1  0
 20 21  1  0
 21 22  2  0
 21 23  1  0
 10  5  1  0
 23 13  1  0
 23 16  2  0
  3 24  1  0
  4 25  1  0
  6 26  1  0
  7 27  1  0
  8 28  1  0
  9 29  1  0
 10 30  1  0
 12 31  1  0
 12 32  1  0
 14 33  1  0
 19 34  1  0
 20 35  1  0
M  END
>  <smiles>  (37) 
O=C(C=Cc1ccccc1)OCn1cnc2c(=O)[nH][nH]c(=O)c21

>  <score_type>  (37) 
oracle

>  <origin>  (37) 
adg

>  <m_score__min__energy>  (37) 
-7.3600000000000003

>  <m_primary>  (37) 
energy

$$$$
37:0
     RDKit          3D

 53 55  0  0  0  0  0  0  0  0999 V2000
   58.1470   32.5750   42.7310 C   0  0  0  0  0  0  0  0  0  0  0  0
   58.2660   32.9700   44.1810 C   0  0  0  0  0  0  0  0  0  0  0  0
   58.8010   34.2300   44.5030 C   0  0  0  0  0  0  0  0  0  0  0  0
   58.9730   34.6080   45.8360 C   0  0  0  0  0  0  0  0  0  0  0  0
   58.6110   33.7360   46.8630 C   0  0  0  0  0  0  0  0  0  0  0  0
   58.0600   32.4890   46.5620 C   0  0  0  0  0  0  0  0  0  0  0  0
   57.8590   32.1030   45.2270 C   0  0  0  0  0  0  0  0  0  0  0  0
   57.2430   30.7890   44.9550 C   0  0  0  0  0  0  0  0  0  0  0  0
   56.0800   30.7450   44.4690 O   0  0  0  0  0  0  0  0  0  0  0  0
   57.9530   29.5680   45.2250 N   0  0  0  0  0  0  0  0  0  0  0  0
   57.2200   28.3710   45.6560 C   0  0  0  0  0  0  0  0  0  0  0  0
   57.9590   27.6810   46.8100 C   0  0  0  0  0  0  0  0  0  0  0  0
   59.5030   27.6340   46.6260 C   0  0  0  0  0  0  0  0  0  0  0  0
   60.0510   26.2550   46.9250 C   0  0  0  0  0  0  0  0  0  0  0  0
   60.7290   26.0740   47.9700 O   0  0  0  0  0  0  0  0  0  0  0  0
   59.7400   25.1220   46.1020 N   0  0  0  0  0  0  0  0  0  0  0  0
   58.4740   24.4540   46.0230 C   0  0  0  0  0  0  0  0  0  0  0  0
   57.4240   24.7780   46.8900 C   0  0  0  0  0  0  0  0  0  0  0  0
   56.1960   24.1260   46.7820 C   0  0  0  0  0  0  0  0  0  0  0  0
   55.9870   23.1520   45.7920 C   0  0  0  0  0  0  0  0  0  0  0  0
   54.6470   22.4680   45.7170 C   0  0  0  0  0  0  0  0  0  0  0  0
   57.0350   22.8450   44.8860 C   0  0  0  0  0  0  0  0  0  0  0  0
   56.8190   21.6420   43.5970 S   0  0  0  0  0  0  0  0  0  0  0  0
   56.1110   20.1770   44.1880 N   0  0  0  0  0  0  0  0  0  0  0  0
   55.9200   22.2040   42.5340 O   0  0  0  0  0  0  0  0  0  0  0  0
   58.1550   21.3080   42.9970 O   0  0  0  0  0  0  0  0  0  0  0  0
   58.2660   23.5120   45.0130 C   0  0  0  0  0  0  0  0  0  0  0  0
   59.9450   28.0820   45.2190 C   0  0  0  0  0  0  0  0  0  0  0  0
   59.3850   29.4750   44.9010 C   0  0  0  0  0  0  0  0  0  0  0  0
   57.8303   31.5238   42.6621 H   0  0  0  0  0  0  0  0  0  0  0  0
   57.4020   33.2156   42.2364 H   0  0  0  0  0  0  0  0  0  0  0  0
   59.1219   32.6974   42.2364 H   0  0  0  0  0  0  0  0  0  0  0  0
   59.0863   34.9234   43.6981 H   0  0  0  0  0  0  0  0  0  0  0  0
   59.3946   35.5950   46.0768 H   0  0  0  0  0  0  0  0  0  0  0  0
   58.7600   34.0315   47.9120 H   0  0  0  0  0  0  0  0  0  0  0  0
   57.7814   31.8041   47.3764 H   0  0  0  0  0  0  0  0  0  0  0  0
   56.2141   28.6629   45.9922 H   0  0  0  0  0  0  0  0  0  0  0  0
   57.1464   27.6723   44.8096 H   0  0  0  0  0  0  0  0  0  0  0  0
   57.7367   28.2256   47.7395 H   0  0  0  0  0  0  0  0  0  0  0  0
   57.6073   26.6391   46.8390 H   0  0  0  0  0  0  0  0  0  0  0  0
   59.9198   28.3496   47.3500 H   0  0  0  0  0  0  0  0  0  0  0  0
   57.5681   25.5503   47.6599 H   0  0  0  0  0  0  0  0  0  0  0  0
   55.3830   24.3771   47.4791 H   0  0  0  0  0  0  0  0  0  0  0  0
   54.2748   22.2780   46.7345 H   0  0  0  0  0  0  0  0  0  0  0  0
   53.9355   23.1132   45.1808 H   0  0  0  0  0  0  0  0  0  0  0  0
   54.7522   21.5133   45.1808 H   0  0  0  0  0  0  0  0  0  0  0  0
   56.8320   19.4250   44.1140 H   0  0  0  0  0  0  0  0  0  0  0  0
   55.8950   20.3160   45.2010 H   0  0  0  0  0  0  0  0  0  0  0  0
   59.0783   23.2885   44.3057 H   0  0  0  0  0  0  0  0  0  0  0  0
   61.0437   28.1148   45.1775 H   0  0  0  0  0  0  0  0  0  0  0  0
   59.5602   27.3651   44.4788 H   0  0  0  0  0  0  0  0  0  0  0  0
   59.9341   30.2240   45.4905 H   0  0  0  0  0  0  0  0  0  0  0  0
   59.5073   29.6580   43.8232 H   0  0  0  0  0  0  0  0  0  0  0  0
  1  2  1  0
  2  3  2  0
  3  4  1  0
  4  5  2  0
  5  6  1  0
  6  7  2  0
  7  8  1  0
  8  9  2  0
  8 10  1  0
 10 11  1  0
 11 12  1  0
 12 13  1  0
 13 14  1  0
 14 15  2  0
 14 16  1  0
 16 17  1  0
 17 18  2  0
 18 19  1  0
 19 20  2  0
 20 21  1  0
 20 22  1  0
 22 23  1  0
 23 24  1  0
 23 25  2  0
 23 26  2  0
 22 27  2  0
 13 28  1  0
 28 29  1  0
  7  2  1  0
 29 10  1  0
 27 17  1  0
  1 30  1  0
  1 31  1  0
  1 32  1  0
  3 33  1  0
  4 34  1  0
  5 35  1  0
  6 36  1  0
 11 37  1  0
 11 38  1  0
 12 39  1  0
 12 40  1  0
 13 41  1  0
 18 42  1  0
 19 43  1  0
 21 44  1  0
 21 45  1  0
 21 46  1  0
 24 47  1  0
 24 48  1  0
 27 49  1  0
 28 50  1  0
 28 51  1  0
 29 52  1  0
 29 53  1  0
M  CHG  1  16  -1
M  END
>  <UniqueID>  (38) 
32

>  <SMILES>  (38) 
Cc1ccccc1C(=O)N1CCC(C(=O)[N-]c2ccc(C)c(S(N)(=O)=O)c2)CC1

>  <Energy>  (38) 
67.79493380033456

>  <Genealogy>  (38) 
Cc1ccccc1C(=O)N1CCC(C(=O)[N-]c2ccc(C)c(S(N)(=O)=O)c2)CC1 (protonated)
Cc1ccccc1C(=O)N1CCC(C(=O)[N-]c2ccc(C)c(S(N)(=O)=O)c2)CC1 (3D coordinates assigned)
Cc1ccccc1C(=O)N1CCC(C(=O)[N-]c2ccc(C)c(S(N)(=O)=O)c2)CC1 (nonaromatic ring conformer: 67.79493380033456 kcal/mol)

>  <smiles>  (38) 
Cc1ccccc1C(=O)N1CCC(C(=O)Nc2ccc(C)c(S(N)(=O)=O)c2)CC1

>  <score_type>  (38) 
oracle

>  <origin>  (38) 
adg

>  <m_score__min__energy>  (38) 
-11.24

>  <m_primary>  (38) 
energy

$$$$
38:0
     RDKit          3D

 58 62  0  0  0  0  0  0  0  0999 V2000
   58.6620   29.4070   52.0760 C   0  0  0  0  0  0  0  0  0  0  0  0
   58.2340   30.2520   50.5210 S   0  0  0  0  0  0  0  0  0  0  0  0
   59.2990   29.2400   49.4340 C   0  0  0  0  0  0  0  0  0  0  0  0
   60.1080   30.1020   48.5030 C   0  0  0  0  0  0  0  0  0  0  0  0
   59.8210   30.3880   47.1590 C   0  0  0  0  0  0  0  0  0  0  0  0
   58.5820   30.0330   46.4310 C   0  0  0  0  0  0  0  0  0  0  0  0
   57.7950   31.0100   45.7800 C   0  0  0  0  0  0  0  0  0  0  0  0
   58.1770   32.3980   45.7630 N   0  0  0  0  0  0  0  0  0  0  0  0
   57.7860   33.3310   46.8180 C   0  0  0  0  0  0  0  0  0  0  0  0
   58.9420   33.5610   47.7510 C   0  0  0  0  0  0  0  0  0  0  0  0
   60.0670   34.2810   47.3140 C   0  0  0  0  0  0  0  0  0  0  0  0
   61.1240   34.5370   48.1930 C   0  0  0  0  0  0  0  0  0  0  0  0
   61.0600   34.0910   49.5140 C   0  0  0  0  0  0  0  0  0  0  0  0
   59.9400   33.3820   49.9590 C   0  0  0  0  0  0  0  0  0  0  0  0
   58.8840   33.1170   49.0820 C   0  0  0  0  0  0  0  0  0  0  0  0
   56.6610   30.6220   45.1340 N   0  0  0  0  0  0  0  0  0  0  0  0
   56.2630   29.3270   45.1050 C   0  0  0  0  0  0  0  0  0  0  0  0
   55.2120   29.0060   44.4920 O   0  0  0  0  0  0  0  0  0  0  0  0
   56.9940   28.3790   45.7390 N   0  0  0  0  0  0  0  0  0  0  0  0
   58.1330   28.6990   46.4040 C   0  0  0  0  0  0  0  0  0  0  0  0
   58.7700   27.7920   47.0040 O   0  0  0  0  0  0  0  0  0  0  0  0
   60.8290   31.0870   46.5900 N   0  0  0  0  0  0  0  0  0  0  0  0
   61.7480   31.2440   47.5540 C   0  0  0  0  0  0  0  0  0  0  0  0
   62.9360   31.8810   47.4190 N   0  0  0  0  0  0  0  0  0  0  0  0
   63.7630   31.9590   48.5020 C   0  0  0  0  0  0  0  0  0  0  0  0
   63.3840   31.4200   49.7000 N   0  0  0  0  0  0  0  0  0  0  0  0
   62.1910   30.7740   49.8520 C   0  0  0  0  0  0  0  0  0  0  0  0
   61.8030   30.3080   51.1490 N   0  0  0  0  0  0  0  0  0  0  0  0
   62.0470   28.9120   51.5190 C   0  0  0  0  0  0  0  0  0  0  0  0
   63.0330   28.8250   52.7090 C   0  0  0  0  0  0  0  0  0  0  0  0
   63.1850   30.0360   53.4370 O   0  0  0  0  0  0  0  0  0  0  0  0
   61.9500   30.7100   53.5650 C   0  0  0  0  0  0  0  0  0  0  0  0
   61.5530   31.2930   52.2080 C   0  0  0  0  0  0  0  0  0  0  0  0
   61.3540   30.6750   48.7350 C   0  0  0  0  0  0  0  0  0  0  0  0
   58.3480   30.0270   52.9287 H   0  0  0  0  0  0  0  0  0  0  0  0
   58.1471   28.4359   52.1194 H   0  0  0  0  0  0  0  0  0  0  0  0
   59.7495   29.2476   52.1194 H   0  0  0  0  0  0  0  0  0  0  0  0
   59.9834   28.6449   50.0565 H   0  0  0  0  0  0  0  0  0  0  0  0
   58.6544   28.5858   48.8286 H   0  0  0  0  0  0  0  0  0  0  0  0
   58.6530   32.8060   44.9290 H   0  0  0  0  0  0  0  0  0  0  0  0
   57.4860   34.2879   46.3660 H   0  0  0  0  0  0  0  0  0  0  0  0
   56.9431   32.9065   47.3831 H   0  0  0  0  0  0  0  0  0  0  0  0
   60.1163   34.6444   46.2769 H   0  0  0  0  0  0  0  0  0  0  0  0
   62.0075   35.0909   47.8427 H   0  0  0  0  0  0  0  0  0  0  0  0
   61.8906   34.2973   50.2050 H   0  0  0  0  0  0  0  0  0  0  0  0
   59.8897   33.0322   51.0007 H   0  0  0  0  0  0  0  0  0  0  0  0
   58.0047   32.5588   49.4358 H   0  0  0  0  0  0  0  0  0  0  0  0
   60.8800   31.4410   45.6090 H   0  0  0  0  0  0  0  0  0  0  0  0
   63.2180   32.3030   46.5060 H   0  0  0  0  0  0  0  0  0  0  0  0
   64.7391   32.4579   48.4106 H   0  0  0  0  0  0  0  0  0  0  0  0
   61.0942   28.4424   51.8047 H   0  0  0  0  0  0  0  0  0  0  0  0
   62.4869   28.3896   50.6567 H   0  0  0  0  0  0  0  0  0  0  0  0
   62.6691   28.0513   53.4010 H   0  0  0  0  0  0  0  0  0  0  0  0
   64.0192   28.5902   52.2821 H   0  0  0  0  0  0  0  0  0  0  0  0
   61.1779   30.0026   53.9018 H   0  0  0  0  0  0  0  0  0  0  0  0
   62.0459   31.5208   54.3021 H   0  0  0  0  0  0  0  0  0  0  0  0
   60.4839   31.5515   52.2207 H   0  0  0  0  0  0  0  0  0  0  0  0
   62.1512   32.1951   52.0123 H   0  0  0  0  0  0  0  0  0  0  0  0
  1  2  1  0
  2  3  1  0
  3  4  1  0
  4  5  2  0
  5  6  1  0
  6  7  2  0
  7  8  1  0
  8  9  1  0
  9 10  1  0
 10 11  2  0
 11 12  1  0
 12 13  2  0
 13 14  1  0
 14 15  2  0
  7 16  1  0
 16 17  1  0
 17 18  2  0
 17 19  1  0
 19 20  1  0
 20 21  2  0
  5 22  1  0
 22 23  1  0
 23 24  2  0
 24 25  1  0
 25 26  2  0
 26 27  1  0
 27 28  1  0
 28 29  1  0
 29 30  1  0
 30 31  1  0
 31 32  1  0
 32 33  1  0
 27 34  2  0
 34  4  1  0
 20  6  1  0
 34 23  1  0
 15 10  1  0
 33 28  1  0
  1 35  1  0
  1 36  1  0
  1 37  1  0
  3 38  1  0
  3 39  1  0
  8 40  1  0
  9 41  1  0
  9 42  1  0
 11 43  1  0
 12 44  1  0
 13 45  1  0
 14 46  1  0
 15 47  1  0
 22 48  1  0
 24 49  1  0
 25 50  1  0
 29 51  1  0
 29 52  1  0
 30 53  1  0
 30 54  1  0
 32 55  1  0
 32 56  1  0
 33 57  1  0
 33 58  1  0
M  CHG  3  16  -1  19  -1  24   1
M  END
>  <UniqueID>  (39) 
33

>  <SMILES>  (39) 
CSCc1c(-c2c(NCc3ccccc3)[n-]c(=O)[n-]c2=O)[nH]c2[nH+]cnc(N3CCOCC3)c12

>  <Energy>  (39) 
112.58095806344355

>  <Genealogy>  (39) 
CSCc1c(-c2c(NCc3ccccc3)[n-]c(=O)[n-]c2=O)[nH]c2[nH+]cnc(N3CCOCC3)c12 (protonated)
CSCc1c(-c2c(NCc3ccccc3)[n-]c(=O)[n-]c2=O)[nH]c2[nH+]cnc(N3CCOCC3)c12 (3D coordinates assigned)
CSCc1c(-c2c(NCc3ccccc3)[n-]c(=O)[n-]c2=O)[nH]c2[nH+]cnc(N3CCOCC3)c12 (nonaromatic ring conformer: 112.58095806344355 kcal/mol)

>  <smiles>  (39) 
CSCc1c(-c2c(NCc3ccccc3)[nH]c(=O)[nH]c2=O)[nH]c2ncnc(N3CCOCC3)c12

>  <score_type>  (39) 
oracle

>  <origin>  (39) 
adg

>  <m_score__min__energy>  (39) 
-8.8200000000000003

>  <m_primary>  (39) 
energy

$$$$
39:0
     RDKit          3D

 40 42  0  0  0  0  0  0  0  0999 V2000
   54.8820   25.8170   45.6800 N   0  0  0  0  0  0  0  0  0  0  0  0
   54.6400   24.1120   45.8260 S   0  0  0  0  0  0  0  0  0  0  0  0
   54.4230   23.7690   47.2730 O   0  0  0  0  0  0  0  0  0  0  0  0
   53.4150   23.7070   45.0540 O   0  0  0  0  0  0  0  0  0  0  0  0
   56.0610   23.2540   45.2100 C   0  0  0  0  0  0  0  0  0  0  0  0
   55.9330   21.8980   44.8670 C   0  0  0  0  0  0  0  0  0  0  0  0
   57.0140   21.1930   44.3350 C   0  0  0  0  0  0  0  0  0  0  0  0
   58.2370   21.8330   44.1370 C   0  0  0  0  0  0  0  0  0  0  0  0
   58.3860   23.1760   44.4820 C   0  0  0  0  0  0  0  0  0  0  0  0
   57.3120   23.8960   45.0310 C   0  0  0  0  0  0  0  0  0  0  0  0
   57.5330   25.3070   45.4070 C   0  0  0  0  0  0  0  0  0  0  0  0
   57.6710   26.2910   44.4180 C   0  0  0  0  0  0  0  0  0  0  0  0
   57.8770   27.6260   44.7750 C   0  0  0  0  0  0  0  0  0  0  0  0
   57.9370   28.0020   46.1300 C   0  0  0  0  0  0  0  0  0  0  0  0
   58.1580   29.4170   46.5110 C   0  0  0  0  0  0  0  0  0  0  0  0
   59.0400   29.7070   47.3640 O   0  0  0  0  0  0  0  0  0  0  0  0
   57.3330   30.4470   45.9490 N   0  0  0  0  0  0  0  0  0  0  0  0
   57.4870   31.0650   44.6610 C   0  0  0  0  0  0  0  0  0  0  0  0
   56.8660   30.5390   43.5120 C   0  0  0  0  0  0  0  0  0  0  0  0
   57.0140   31.1750   42.2760 C   0  0  0  0  0  0  0  0  0  0  0  0
   57.7660   32.3460   42.1760 C   0  0  0  0  0  0  0  0  0  0  0  0
   58.3650   32.8910   43.3140 C   0  0  0  0  0  0  0  0  0  0  0  0
   58.2230   32.2600   44.5560 C   0  0  0  0  0  0  0  0  0  0  0  0
   59.0010   32.9890   45.9990 S   0  0  0  0  0  0  0  0  0  0  0  0
   57.7810   27.0110   47.1170 C   0  0  0  0  0  0  0  0  0  0  0  0
   57.5760   25.6760   46.7580 C   0  0  0  0  0  0  0  0  0  0  0  0
   53.9800   26.2780   45.9370 H   0  0  0  0  0  0  0  0  0  0  0  0
   54.9712   21.3864   45.0191 H   0  0  0  0  0  0  0  0  0  0  0  0
   56.9009   20.1310   44.0716 H   0  0  0  0  0  0  0  0  0  0  0  0
   59.0847   21.2782   43.7085 H   0  0  0  0  0  0  0  0  0  0  0  0
   59.3529   23.6758   44.3228 H   0  0  0  0  0  0  0  0  0  0  0  0
   57.6168   26.0107   43.3557 H   0  0  0  0  0  0  0  0  0  0  0  0
   57.9932   28.3890   43.9912 H   0  0  0  0  0  0  0  0  0  0  0  0
   56.2614   29.6231   43.5873 H   0  0  0  0  0  0  0  0  0  0  0  0
   56.5365   30.7513   41.3802 H   0  0  0  0  0  0  0  0  0  0  0  0
   57.8871   32.8401   41.2007 H   0  0  0  0  0  0  0  0  0  0  0  0
   58.9502   33.8190   43.2343 H   0  0  0  0  0  0  0  0  0  0  0  0
   58.8460   31.8060   46.7460 H   0  0  0  0  0  0  0  0  0  0  0  0
   57.8208   27.2896   48.1804 H   0  0  0  0  0  0  0  0  0  0  0  0
   57.4479   24.9120   47.5390 H   0  0  0  0  0  0  0  0  0  0  0  0
  1  2  1  0
  2  3  2  0
  2  4  2  0
  2  5  1  0
  5  6  2  0
  6  7  1  0
  7  8  2  0
  8  9  1  0
  9 10  2  0
 10 11  1  0
 11 12  2  0
 12 13  1  0
 13 14  2  0
 14 15  1  0
 15 16  2  0
 15 17  1  0
 17 18  1  0
 18 19  2  0
 19 20  1  0
 20 21  2  0
 21 22  1  0
 22 23  2  0
 23 24  1  0
 14 25  1  0
 25 26  2  0
 10  5  1  0
 26 11  1  0
 23 18  1  0
  1 27  1  0
  6 28  1  0
  7 29  1  0
  8 30  1  0
  9 31  1  0
 12 32  1  0
 13 33  1  0
 19 34  1  0
 20 35  1  0
 21 36  1  0
 22 37  1  0
 24 38  1  0
 25 39  1  0
 26 40  1  0
M  CHG  2   1  -1  17  -1
M  END
>  <UniqueID>  (40) 
34

>  <SMILES>  (40) 
[NH-]S(=O)(=O)c1ccccc1-c1ccc(C(=O)[N-]c2ccccc2S)cc1

>  <Energy>  (40) 
54.90041358572805

>  <Genealogy>  (40) 
[NH-]S(=O)(=O)c1ccccc1-c1ccc(C(=O)[N-]c2ccccc2S)cc1 (protonated)
[NH-]S(=O)(=O)c1ccccc1-c1ccc(C(=O)[N-]c2ccccc2S)cc1 (3D coordinates assigned)
[NH-]S(=O)(=O)c1ccccc1-c1ccc(C(=O)[N-]c2ccccc2S)cc1 (optimized conformer: 54.90041358572805 kcal/mol)

>  <smiles>  (40) 
NS(=O)(=O)c1ccccc1-c1ccc(C(=O)Nc2ccccc2S)cc1

>  <score_type>  (40) 
oracle

>  <origin>  (40) 
adg

>  <m_score__min__energy>  (40) 
-12.050000000000001

>  <m_primary>  (40) 
energy

$$$$
40:0
     RDKit          3D

 49 52  0  0  1  0  0  0  0  0999 V2000
   61.3240   30.8900   47.1600 C   0  0  0  0  0  0  0  0  0  0  0  0
   60.2970   30.2200   46.4540 O   0  0  0  0  0  0  0  0  0  0  0  0
   59.9670   28.9220   46.8440 C   0  0  0  0  0  0  0  0  0  0  0  0
   60.1020   28.4960   48.1550 C   0  0  0  0  0  0  0  0  0  0  0  0
   59.7530   27.1990   48.4560 C   0  0  0  0  0  0  0  0  0  0  0  0
   59.2790   26.3070   47.5230 C   0  0  0  0  0  0  0  0  0  0  0  0
   59.1600   26.7760   46.2220 C   0  0  0  0  0  0  0  0  0  0  0  0
   59.4900   28.0590   45.8530 C   0  0  0  0  0  0  0  0  0  0  0  0
   59.3570   28.5110   44.5100 N   0  0  0  0  0  0  0  0  0  0  0  0
   58.2910   29.1720   44.2110 C   0  0  0  0  0  0  0  0  0  0  0  0
   57.4090   28.6790   43.3190 N   0  0  0  0  0  0  0  0  0  0  0  0
   56.2770   29.3380   42.9740 C   0  0  0  0  0  0  0  0  0  0  0  0
   56.0710   30.5570   43.5940 C   0  0  0  0  0  0  0  0  0  0  0  0
   56.9650   31.0730   44.5080 C   0  0  0  0  0  0  0  0  0  0  0  0
   56.6790   32.2180   45.0270 N   0  0  0  0  0  0  0  0  0  0  0  0
   57.7100   32.9110   45.7250 C   0  0  0  0  0  0  0  0  0  0  0  0
   57.8620   32.6080   47.0680 C   0  0  0  0  0  0  0  0  0  0  0  0
   58.8200   33.2060   47.8610 C   0  0  0  0  0  0  0  0  0  0  0  0
   59.6370   34.1370   47.2440 C   0  0  0  0  0  0  0  0  0  0  0  0
   60.6210   34.7710   47.9930 O   0  0  0  0  0  0  0  0  0  0  0  0
   61.8510   34.1990   48.2730 C   0  0  0  0  0  0  0  0  0  0  0  0
   62.3020   34.0290   49.5790 C   0  0  0  0  0  0  0  0  0  0  0  0
   63.5450   33.4510   49.8310 C   0  0  0  0  0  0  0  0  0  0  0  0
   64.3180   33.0490   48.7410 C   0  0  0  0  0  0  0  0  0  0  0  0
   63.8600   33.2220   47.4580 C   0  0  0  0  0  0  0  0  0  0  0  0
   62.6150   33.8020   47.1940 C   0  0  0  0  0  0  0  0  0  0  0  0
   59.5070   34.4580   45.9000 C   0  0  0  0  0  0  0  0  0  0  0  0
   58.5330   33.8410   45.1240 C   0  0  0  0  0  0  0  0  0  0  0  0
   58.0740   30.3750   44.8130 N   0  0  0  0  0  0  0  0  0  0  0  0
   61.1567   30.7809   48.2417 H   0  0  0  0  0  0  0  0  0  0  0  0
   62.2976   30.4528   46.8936 H   0  0  0  0  0  0  0  0  0  0  0  0
   61.3161   31.9572   46.8936 H   0  0  0  0  0  0  0  0  0  0  0  0
   60.4778   29.1755   48.9342 H   0  0  0  0  0  0  0  0  0  0  0  0
   59.8587   26.8585   49.4966 H   0  0  0  0  0  0  0  0  0  0  0  0
   59.0083   25.2757   47.7935 H   0  0  0  0  0  0  0  0  0  0  0  0
   58.7840   26.0889   45.4496 H   0  0  0  0  0  0  0  0  0  0  0  0
   57.5460   27.7520   42.8360 H   0  0  0  0  0  0  0  0  0  0  0  0
   55.5637   28.9279   42.2439 H   0  0  0  0  0  0  0  0  0  0  0  0
   55.1659   31.1327   43.3504 H   0  0  0  0  0  0  0  0  0  0  0  0
   57.1927   31.8613   47.5202 H   0  0  0  0  0  0  0  0  0  0  0  0
   58.9284   32.9560   48.9267 H   0  0  0  0  0  0  0  0  0  0  0  0
   61.6715   34.3538   50.4198 H   0  0  0  0  0  0  0  0  0  0  0  0
   63.9067   33.3154   50.8609 H   0  0  0  0  0  0  0  0  0  0  0  0
   65.3029   32.5895   48.9110 H   0  0  0  0  0  0  0  0  0  0  0  0
   64.4885   32.8960   46.6162 H   0  0  0  0  0  0  0  0  0  0  0  0
   62.2571   33.9371   46.1626 H   0  0  0  0  0  0  0  0  0  0  0  0
   60.1773   35.2035   45.4473 H   0  0  0  0  0  0  0  0  0  0  0  0
   58.4211   34.0878   44.0579 H   0  0  0  0  0  0  0  0  0  0  0  0
   58.7550   30.7590   45.5030 H   0  0  0  0  0  0  0  0  0  0  0  0
  1  2  1  0
  2  3  1  0
  3  4  2  0
  4  5  1  0
  5  6  2  0
  6  7  1  0
  7  8  2  0
  8  9  1  0
  9 10  2  0
 10 11  1  0
 11 12  1  0
 12 13  2  0
 13 14  1  0
 14 15  2  0
 15 16  1  0
 16 17  2  0
 17 18  1  0
 18 19  2  0
 19 20  1  0
 20 21  1  0
 21 22  2  0
 22 23  1  0
 23 24  2  0
 24 25  1  0
 25 26  2  0
 19 27  1  0
 27 28  2  0
 14 29  1  0
  8  3  1  0
 29 10  1  0
 28 16  1  0
 26 21  1  0
  1 30  1  0
  1 31  1  0
  1 32  1  0
  4 33  1  0
  5 34  1  0
  6 35  1  0
  7 36  1  0
 11 37  1  0
 12 38  1  0
 13 39  1  0
 17 40  1  0
 18 41  1  0
 22 42  1  0
 23 43  1  0
 24 44  1  0
 25 45  1  0
 26 46  1  0
 27 47  1  0
 28 48  1  0
 29 49  1  0
M  END
>  <smiles>  (41) 
COc1ccccc1N=c1[nH]ccc(=Nc2ccc(Oc3ccccc3)cc2)[nH]1

>  <score_type>  (41) 
oracle

>  <origin>  (41) 
adg

>  <m_score__min__energy>  (41) 
-9

>  <m_primary>  (41) 
energy

$$$$
41:0
     RDKit          3D

 62 65  0  0  0  0  0  0  0  0999 V2000
   54.3740   26.0150   45.9560 N   0  0  0  0  0  0  0  0  0  0  0  0
   55.7800   26.2320   45.9310 C   0  0  0  0  0  0  0  0  0  0  0  0
   56.2030   27.4180   45.9520 O   0  0  0  0  0  0  0  0  0  0  0  0
   56.7510   25.1020   45.8550 C   0  0  0  0  0  0  0  0  0  0  0  0
   56.2890   23.8130   46.1940 C   0  0  0  0  0  0  0  0  0  0  0  0
   57.1240   22.7010   46.0950 C   0  0  0  0  0  0  0  0  0  0  0  0
   58.4280   22.8460   45.6290 C   0  0  0  0  0  0  0  0  0  0  0  0
   58.9060   24.1060   45.2730 C   0  0  0  0  0  0  0  0  0  0  0  0
   58.0940   25.2430   45.4050 C   0  0  0  0  0  0  0  0  0  0  0  0
   58.8010   26.8300   44.9140 S   0  0  0  0  0  0  0  0  0  0  0  0
   59.8320   27.0980   46.4090 C   0  0  0  0  0  0  0  0  0  0  0  0
   59.7680   28.5020   46.9320 C   0  0  0  0  0  0  0  0  0  0  0  0
   59.8830   28.6990   48.1730 O   0  0  0  0  0  0  0  0  0  0  0  0
   59.6600   29.6090   46.0250 N   0  0  0  0  0  0  0  0  0  0  0  0
   59.4540   30.9700   46.4490 C   0  0  0  0  0  0  0  0  0  0  0  0
   60.1610   31.4920   47.5470 C   0  0  0  0  0  0  0  0  0  0  0  0
   59.9610   32.8160   47.9620 C   0  0  0  0  0  0  0  0  0  0  0  0
   60.8910   33.4800   49.3070 S   0  0  0  0  0  0  0  0  0  0  0  0
   61.1270   32.3910   50.3170 O   0  0  0  0  0  0  0  0  0  0  0  0
   60.0870   34.5590   49.9780 O   0  0  0  0  0  0  0  0  0  0  0  0
   62.4300   34.1500   48.8020 N   0  0  0  0  0  0  0  0  0  0  0  0
   63.5270   33.8610   49.7520 C   0  0  0  0  0  0  0  0  0  0  0  0
   64.4990   32.7910   49.2330 C   0  0  0  0  0  0  0  0  0  0  0  0
   63.7980   31.8310   48.4770 O   0  0  0  0  0  0  0  0  0  0  0  0
   63.3710   32.4000   47.2540 C   0  0  0  0  0  0  0  0  0  0  0  0
   62.7510   33.8110   47.4030 C   0  0  0  0  0  0  0  0  0  0  0  0
   59.0310   33.6170   47.2910 C   0  0  0  0  0  0  0  0  0  0  0  0
   58.2950   33.0970   46.2260 C   0  0  0  0  0  0  0  0  0  0  0  0
   58.5010   31.7800   45.7970 C   0  0  0  0  0  0  0  0  0  0  0  0
   57.7530   31.2920   44.6750 N   0  0  0  0  0  0  0  0  0  0  0  0
   57.4640   32.1850   43.5530 C   0  0  0  0  0  0  0  0  0  0  0  0
   57.3560   31.3670   42.2620 C   0  0  0  0  0  0  0  0  0  0  0  0
   56.4570   30.2840   42.4250 O   0  0  0  0  0  0  0  0  0  0  0  0
   56.9720   29.3720   43.3760 C   0  0  0  0  0  0  0  0  0  0  0  0
   57.0400   30.0150   44.7640 C   0  0  0  0  0  0  0  0  0  0  0  0
   53.7260   26.7200   46.3730 H   0  0  0  0  0  0  0  0  0  0  0  0
   55.2536   23.6832   46.5419 H   0  0  0  0  0  0  0  0  0  0  0  0
   56.7520   21.7074   46.3855 H   0  0  0  0  0  0  0  0  0  0  0  0
   59.0815   21.9655   45.5417 H   0  0  0  0  0  0  0  0  0  0  0  0
   59.9299   24.2102   44.8847 H   0  0  0  0  0  0  0  0  0  0  0  0
   59.4852   26.4154   47.1988 H   0  0  0  0  0  0  0  0  0  0  0  0
   60.8764   26.9052   46.1224 H   0  0  0  0  0  0  0  0  0  0  0  0
   59.8250   29.4180   45.0130 H   0  0  0  0  0  0  0  0  0  0  0  0
   60.8781   30.8550   48.0855 H   0  0  0  0  0  0  0  0  0  0  0  0
   64.0896   34.7890   49.9318 H   0  0  0  0  0  0  0  0  0  0  0  0
   63.0714   33.4739   50.6754 H   0  0  0  0  0  0  0  0  0  0  0  0
   65.2616   33.2678   48.5997 H   0  0  0  0  0  0  0  0  0  0  0  0
   64.9818   32.2956   50.0883 H   0  0  0  0  0  0  0  0  0  0  0  0
   64.2398   32.4722   46.5832 H   0  0  0  0  0  0  0  0  0  0  0  0
   62.5831   31.7448   46.8541 H   0  0  0  0  0  0  0  0  0  0  0  0
   63.4669   34.5518   47.0173 H   0  0  0  0  0  0  0  0  0  0  0  0
   61.8086   33.8200   46.8357 H   0  0  0  0  0  0  0  0  0  0  0  0
   58.8795   34.6605   47.6042 H   0  0  0  0  0  0  0  0  0  0  0  0
   57.5478   33.7258   45.7198 H   0  0  0  0  0  0  0  0  0  0  0  0
   56.5136   32.7077   43.7361 H   0  0  0  0  0  0  0  0  0  0  0  0
   58.2750   32.9214   43.4530 H   0  0  0  0  0  0  0  0  0  0  0  0
   56.9936   32.0175   41.4524 H   0  0  0  0  0  0  0  0  0  0  0  0
   58.3500   30.9654   42.0154 H   0  0  0  0  0  0  0  0  0  0  0  0
   56.3181   28.4885   43.4194 H   0  0  0  0  0  0  0  0  0  0  0  0
   57.9883   29.0814   43.0717 H   0  0  0  0  0  0  0  0  0  0  0  0
   56.0203   30.1894   45.1379 H   0  0  0  0  0  0  0  0  0  0  0  0
   57.5731   29.3441   45.4537 H   0  0  0  0  0  0  0  0  0  0  0  0
  1  2  1  0
  2  3  2  0
  2  4  1  0
  4  5  2  0
  5  6  1  0
  6  7  2  0
  7  8  1  0
  8  9  2  0
  9 10  1  0
 10 11  1  0
 11 12  1  0
 12 13  2  0
 12 14  1  0
 14 15  1  0
 15 16  2  0
 16 17  1  0
 17 18  1  0
 18 19  2  0
 18 20  2  0
 18 21  1  0
 21 22  1  0
 22 23  1  0
 23 24  1  0
 24 25  1  0
 25 26  1  0
 17 27  2  0
 27 28  1  0
 28 29  2  0
 29 30  1  0
 30 31  1  0
 31 32  1  0
 32 33  1  0
 33 34  1  0
 34 35  1  0
  9  4  1  0
 29 15  1  0
 35 30  1  0
 26 21  1  0
  1 36  1  0
  5 37  1  0
  6 38  1  0
  7 39  1  0
  8 40  1  0
 11 41  1  0
 11 42  1  0
 14 43  1  0
 16 44  1  0
 22 45  1  0
 22 46  1  0
 23 47  1  0
 23 48  1  0
 25 49  1  0
 25 50  1  0
 26 51  1  0
 26 52  1  0
 27 53  1  0
 28 54  1  0
 31 55  1  0
 31 56  1  0
 32 57  1  0
 32 58  1  0
 34 59  1  0
 34 60  1  0
 35 61  1  0
 35 62  1  0
M  CHG  1   1  -1
M  END
>  <UniqueID>  (42) 
35

>  <SMILES>  (42) 
[NH-]C(=O)c1ccccc1SCC(=O)Nc1cc(S(=O)(=O)N2CCOCC2)ccc1N1CCOCC1

>  <Energy>  (42) 
82.68070973985147

>  <Genealogy>  (42) 
[NH-]C(=O)c1ccccc1SCC(=O)Nc1cc(S(=O)(=O)N2CCOCC2)ccc1N1CCOCC1 (protonated)
[NH-]C(=O)c1ccccc1SCC(=O)Nc1cc(S(=O)(=O)N2CCOCC2)ccc1N1CCOCC1 (3D coordinates assigned)
[NH-]C(=O)c1ccccc1SCC(=O)Nc1cc(S(=O)(=O)N2CCOCC2)ccc1N1CCOCC1 (nonaromatic ring conformer: 82.68070973985147 kcal/mol)

>  <smiles>  (42) 
NC(=O)c1ccccc1SCC(=O)Nc1cc(S(=O)(=O)N2CCOCC2)ccc1N1CCOCC1

>  <score_type>  (42) 
oracle

>  <origin>  (42) 
adg

>  <m_score__min__energy>  (42) 
-12.92

>  <m_primary>  (42) 
energy

$$$$
42:0
     RDKit          3D

 35 37  0  0  1  0  0  0  0  0999 V2000
   59.9610   35.6360   46.6810 O   0  0  0  0  0  0  0  0  0  0  0  0
   59.1420   34.6790   46.1040 C   0  0  0  0  0  0  0  0  0  0  0  0
   59.2450   34.3350   44.7700 C   0  0  0  0  0  0  0  0  0  0  0  0
   58.4240   33.3770   44.1890 C   0  0  0  0  0  0  0  0  0  0  0  0
   57.4920   32.7760   45.0100 C   0  0  0  0  0  0  0  0  0  0  0  0
   56.5830   31.7790   44.5600 N   0  0  0  0  0  0  0  0  0  0  0  0
   56.9590   30.5430   44.4880 C   0  0  0  0  0  0  0  0  0  0  0  0
   56.6830   29.5280   45.3320 N   0  0  0  0  0  0  0  0  0  0  0  0
   57.2880   28.4080   44.8570 C   0  0  0  0  0  0  0  0  0  0  0  0
   57.2210   26.7770   45.6320 S   0  0  0  0  0  0  0  0  0  0  0  0
   58.5120   26.8100   46.9230 C   0  0  0  0  0  0  0  0  0  0  0  0
   59.2200   28.0880   46.9920 C   0  0  0  0  0  0  0  0  0  0  0  0
   60.2050   28.4530   46.1020 C   0  0  0  0  0  0  0  0  0  0  0  0
   60.8120   29.6800   46.2540 C   0  0  0  0  0  0  0  0  0  0  0  0
   60.4810   30.5580   47.2530 C   0  0  0  0  0  0  0  0  0  0  0  0
   61.3200   32.2570   47.4650 Br  0  0  0  0  0  0  0  0  0  0  0  0
   59.4920   30.2030   48.1550 C   0  0  0  0  0  0  0  0  0  0  0  0
   58.8900   28.9830   48.0020 C   0  0  0  0  0  0  0  0  0  0  0  0
   57.9340   28.7420   43.7200 N   0  0  0  0  0  0  0  0  0  0  0  0
   57.7360   30.0220   43.5000 N   0  0  0  0  0  0  0  0  0  0  0  0
   57.3850   33.1230   46.3600 C   0  0  0  0  0  0  0  0  0  0  0  0
   58.2100   34.0790   46.9210 C   0  0  0  0  0  0  0  0  0  0  0  0
   59.6300   36.4820   47.1190 H   0  0  0  0  0  0  0  0  0  0  0  0
   60.0015   34.8358   44.1480 H   0  0  0  0  0  0  0  0  0  0  0  0
   58.5126   33.1103   43.1255 H   0  0  0  0  0  0  0  0  0  0  0  0
   58.0382   26.6189   47.8972 H   0  0  0  0  0  0  0  0  0  0  0  0
   59.2523   26.0376   46.6673 H   0  0  0  0  0  0  0  0  0  0  0  0
   60.5014   27.7780   45.2856 H   0  0  0  0  0  0  0  0  0  0  0  0
   61.5984   29.9684   45.5410 H   0  0  0  0  0  0  0  0  0  0  0  0
   59.1989   30.8810   48.9701 H   0  0  0  0  0  0  0  0  0  0  0  0
   58.1039   28.6964   48.7161 H   0  0  0  0  0  0  0  0  0  0  0  0
   58.4910   28.0510   43.1430 H   0  0  0  0  0  0  0  0  0  0  0  0
   58.1400   30.5240   42.6690 H   0  0  0  0  0  0  0  0  0  0  0  0
   56.6302   32.6259   46.9871 H   0  0  0  0  0  0  0  0  0  0  0  0
   58.1252   34.3513   47.9834 H   0  0  0  0  0  0  0  0  0  0  0  0
  1  2  1  0
  2  3  2  0
  3  4  1  0
  4  5  2  0
  5  6  1  0
  6  7  2  0
  7  8  1  0
  8  9  2  0
  9 10  1  0
 10 11  1  0
 11 12  1  0
 12 13  2  0
 13 14  1  0
 14 15  2  0
 15 16  1  0
 15 17  1  0
 17 18  2  0
  9 19  1  0
 19 20  1  0
  5 21  1  0
 21 22  2  0
 22  2  1  0
 20  7  1  0
 18 12  1  0
  1 23  1  0
  3 24  1  0
  4 25  1  0
 11 26  1  0
 11 27  1  0
 13 28  1  0
 14 29  1  0
 17 30  1  0
 18 31  1  0
 19 32  1  0
 20 33  1  0
 21 34  1  0
 22 35  1  0
M  END
>  <smiles>  (43) 
Oc1ccc(N=c2nc(SCc3ccc(Br)cc3)[nH][nH]2)cc1

>  <score_type>  (43) 
oracle

>  <origin>  (43) 
adg

>  <m_score__min__energy>  (43) 
-7.7300000000000004

>  <m_primary>  (43) 
energy

$$$$
43:0
     RDKit          3D

 41 43  0  0  0  0  0  0  0  0999 V2000
   64.5841   31.4493   47.8925 H   0  0  0  0  0  0  0  0  0  0  0  0
   63.6810   32.0640   47.7640 C   0  0  0  0  0  0  0  0  0  0  0  0
   63.6370   33.0410   46.7640 C   0  0  0  0  0  0  0  0  0  0  0  0
   64.5056   33.1957   46.1070 H   0  0  0  0  0  0  0  0  0  0  0  0
   62.4880   33.8210   46.6000 C   0  0  0  0  0  0  0  0  0  0  0  0
   62.4518   34.5845   45.8089 H   0  0  0  0  0  0  0  0  0  0  0  0
   61.3830   33.6330   47.4400 C   0  0  0  0  0  0  0  0  0  0  0  0
   59.9040   34.6270   47.2250 S   0  0  0  0  0  0  0  0  0  0  0  0
   58.7370   33.2550   47.5260 C   0  0  0  0  0  0  0  0  0  0  0  0
   57.7513   33.6687   47.7852 H   0  0  0  0  0  0  0  0  0  0  0  0
   59.1192   32.6383   48.3528 H   0  0  0  0  0  0  0  0  0  0  0  0
   58.6060   32.3980   46.3030 C   0  0  0  0  0  0  0  0  0  0  0  0
   59.1350   31.1610   46.2060 N   0  0  0  0  0  0  0  0  0  0  0  0
   58.7880   30.7050   45.0120 N   0  0  0  0  0  0  0  0  0  0  0  0
   59.0520   29.7690   44.6330 H   0  0  0  0  0  0  0  0  0  0  0  0
   58.0550   31.6490   44.4010 C   0  0  0  0  0  0  0  0  0  0  0  0
   57.3880   31.4760   42.7420 S   0  0  0  0  0  0  0  0  0  0  0  0
   56.8450   29.7490   42.9780 C   0  0  0  0  0  0  0  0  0  0  0  0
   57.7281   29.0944   43.0183 H   0  0  0  0  0  0  0  0  0  0  0  0
   56.1975   29.4621   42.1363 H   0  0  0  0  0  0  0  0  0  0  0  0
   56.0730   29.6110   44.2490 C   0  0  0  0  0  0  0  0  0  0  0  0
   55.1630   30.4440   44.5120 O   0  0  0  0  0  0  0  0  0  0  0  0
   56.3830   28.5350   45.1480 N   0  0  0  0  0  0  0  0  0  0  0  0
   57.5650   28.1170   45.4980 C   0  0  0  0  0  0  0  0  0  0  0  0
   58.6220   28.1790   44.6610 N   0  0  0  0  0  0  0  0  0  0  0  0
   59.7510   27.7260   45.2040 N   0  0  0  0  0  0  0  0  0  0  0  0
   59.6000   27.3100   46.4810 C   0  0  0  0  0  0  0  0  0  0  0  0
   60.7020   26.7270   47.2970 C   0  0  0  0  0  0  0  0  0  0  0  0
   60.4711   26.8491   48.3655 H   0  0  0  0  0  0  0  0  0  0  0  0
   60.8042   25.6568   47.0639 H   0  0  0  0  0  0  0  0  0  0  0  0
   61.6442   27.2446   47.0639 H   0  0  0  0  0  0  0  0  0  0  0  0
   58.0050   27.4720   46.9980 S   0  0  0  0  0  0  0  0  0  0  0  0
   57.9110   32.7310   45.1930 N   0  0  0  0  0  0  0  0  0  0  0  0
   57.2960   34.0190   44.8740 C   0  0  0  0  0  0  0  0  0  0  0  0
   57.0443   34.5460   45.8061 H   0  0  0  0  0  0  0  0  0  0  0  0
   58.0010   34.6268   44.2880 H   0  0  0  0  0  0  0  0  0  0  0  0
   56.3801   33.8529   44.2880 H   0  0  0  0  0  0  0  0  0  0  0  0
   61.4290   32.6500   48.4390 C   0  0  0  0  0  0  0  0  0  0  0  0
   60.5608   32.4938   49.0962 H   0  0  0  0  0  0  0  0  0  0  0  0
   62.5770   31.8680   48.6010 C   0  0  0  0  0  0  0  0  0  0  0  0
   62.6121   31.0987   49.3865 H   0  0  0  0  0  0  0  0  0  0  0  0
  1  2  1  0
  2  3  2  0
  3  4  1  0
  3  5  1  0
  5  6  1  0
  5  7  2  0
  7  8  1  0
  8  9  1  0
  9 10  1  0
  9 11  1  0
  9 12  1  0
 12 13  2  0
 13 14  1  0
 14 15  1  0
 14 16  2  0
 16 17  1  0
 17 18  1  0
 18 19  1  0
 18 20  1  0
 18 21  1  0
 21 22  2  0
 21 23  1  0
 23 24  2  0
 24 25  1  0
 25 26  1  0
 26 27  2  0
 27 28  1  0
 28 29  1  0
 28 30  1  0
 28 31  1  0
 27 32  1  0
 16 33  1  0
 33 34  1  0
 34 35  1  0
 34 36  1  0
 34 37  1  0
  7 38  1  0
 38 39  1  0
 38 40  2  0
 40 41  1  0
 40  2  1  0
 33 12  1  0
 32 24  1  0
M  CHG  2  14   1  25  -1
M  END
>  <UniqueID>  (44) 
36

>  <SMILES>  (44) 
Cc1n[n-]/c(=N/C(=O)CSc2[nH+]nc(CSc3ccccc3)n2C)s1

>  <Energy>  (44) 
99.67206121495592

>  <Genealogy>  (44) 
Cc1n[n-]c(=NC(=O)CSc2[nH+]nc(CSc3ccccc3)n2C)s1 (protonated)
Cc1n[n-]/c(=N/C(=O)CSc2[nH+]nc(CSc3ccccc3)n2C)s1 (cis-trans isomerization)
Cc1n[n-]/c(=N/C(=O)CSc2[nH+]nc(CSc3ccccc3)n2C)s1 (3D coordinates assigned)
Cc1n[n-]/c(=N/C(=O)CSc2[nH+]nc(CSc3ccccc3)n2C)s1 (optimized conformer: 99.67206121495592 kcal/mol)

>  <smiles>  (44) 
Cc1n[nH]c(=NC(=O)CSc2nnc(CSc3ccccc3)n2C)s1

>  <score_type>  (44) 
oracle

>  <origin>  (44) 
adg

>  <m_score__min__energy>  (44) 
-9.9399999999999995

>  <m_primary>  (44) 
energy

$$$$
44:0
     RDKit          3D

 41 43  0  0  0  0  0  0  0  0999 V2000
   59.8922   35.8914   47.2253 H   0  0  0  0  0  0  0  0  0  0  0  0
   59.4350   35.0210   46.7320 C   0  0  0  0  0  0  0  0  0  0  0  0
   59.4440   34.9230   45.3380 C   0  0  0  0  0  0  0  0  0  0  0  0
   59.9007   35.7207   44.7338 H   0  0  0  0  0  0  0  0  0  0  0  0
   58.8730   33.8120   44.7110 C   0  0  0  0  0  0  0  0  0  0  0  0
   58.8722   33.7436   43.6131 H   0  0  0  0  0  0  0  0  0  0  0  0
   58.3000   32.7820   45.4760 C   0  0  0  0  0  0  0  0  0  0  0  0
   57.6830   31.6260   44.7970 C   0  0  0  0  0  0  0  0  0  0  0  0
   57.0210   30.6780   45.5140 N   0  0  0  0  0  0  0  0  0  0  0  0
   56.4840   29.7270   44.7190 C   0  0  0  0  0  0  0  0  0  0  0  0
   55.7780   28.7250   45.1490 N   0  0  0  0  0  0  0  0  0  0  0  0
   56.2950   27.4680   45.6090 C   0  0  0  0  0  0  0  0  0  0  0  0
   55.5000   26.6220   46.0950 O   0  0  0  0  0  0  0  0  0  0  0  0
   57.6920   27.1620   45.5070 N   0  0  0  0  0  0  0  0  0  0  0  0
   58.5720   27.0030   46.6580 C   0  0  0  0  0  0  0  0  0  0  0  0
   57.9803   26.6816   47.5278 H   0  0  0  0  0  0  0  0  0  0  0  0
   59.3361   26.2459   46.4278 H   0  0  0  0  0  0  0  0  0  0  0  0
   59.2480   28.3100   46.9700 C   0  0  0  0  0  0  0  0  0  0  0  0
   59.0530   28.9180   48.2210 C   0  0  0  0  0  0  0  0  0  0  0  0
   58.3884   28.4488   48.9613 H   0  0  0  0  0  0  0  0  0  0  0  0
   59.7020   30.1190   48.5280 C   0  0  0  0  0  0  0  0  0  0  0  0
   59.5436   30.5944   49.5072 H   0  0  0  0  0  0  0  0  0  0  0  0
   60.5510   30.7150   47.5920 C   0  0  0  0  0  0  0  0  0  0  0  0
   61.0584   31.6605   47.8339 H   0  0  0  0  0  0  0  0  0  0  0  0
   60.7560   30.1110   46.3490 C   0  0  0  0  0  0  0  0  0  0  0  0
   61.4266   30.5806   45.6143 H   0  0  0  0  0  0  0  0  0  0  0  0
   60.1100   28.9100   46.0370 C   0  0  0  0  0  0  0  0  0  0  0  0
   60.2773   28.4346   45.0593 H   0  0  0  0  0  0  0  0  0  0  0  0
   56.7770   30.0260   43.0950 S   0  0  0  0  0  0  0  0  0  0  0  0
   57.6630   31.4260   43.4080 C   0  0  0  0  0  0  0  0  0  0  0  0
   58.1210   32.3760   42.3380 C   0  0  0  0  0  0  0  0  0  0  0  0
   59.1508   32.1216   42.0468 H   0  0  0  0  0  0  0  0  0  0  0  0
   58.0768   33.4010   42.7348 H   0  0  0  0  0  0  0  0  0  0  0  0
   57.2190   32.2880   41.1120 C   0  0  0  0  0  0  0  0  0  0  0  0
   56.1720   32.1859   41.4336 H   0  0  0  0  0  0  0  0  0  0  0  0
   57.3299   33.2012   40.5089 H   0  0  0  0  0  0  0  0  0  0  0  0
   57.5043   31.4134   40.5089 H   0  0  0  0  0  0  0  0  0  0  0  0
   58.2730   32.9000   46.8750 C   0  0  0  0  0  0  0  0  0  0  0  0
   57.8002   32.1141   47.4822 H   0  0  0  0  0  0  0  0  0  0  0  0
   58.8450   34.0130   47.4990 C   0  0  0  0  0  0  0  0  0  0  0  0
   58.8305   34.0952   48.5958 H   0  0  0  0  0  0  0  0  0  0  0  0
  1  2  1  0
  2  3  2  0
  3  4  1  0
  3  5  1  0
  5  6  1  0
  5  7  2  0
  7  8  1  0
  8  9  1  0
  9 10  1  0
 10 11  2  0
 11 12  1  0
 12 13  2  0
 12 14  1  0
 14 15  1  0
 15 16  1  0
 15 17  1  0
 15 18  1  0
 18 19  2  0
 19 20  1  0
 19 21  1  0
 21 22  1  0
 21 23  2  0
 23 24  1  0
 23 25  1  0
 25 26  1  0
 25 27  2  0
 27 28  1  0
 10 29  1  0
 29 30  1  0
 30 31  1  0
 31 32  1  0
 31 33  1  0
 31 34  1  0
 34 35  1  0
 34 36  1  0
 34 37  1  0
  7 38  1  0
 38 39  1  0
 38 40  2  0
 40 41  1  0
 40  2  1  0
 30  8  2  0
 27 18  1  0
M  CHG  2   9  -1  14  -1
M  END
>  <UniqueID>  (45) 
37

>  <SMILES>  (45) 
CCc1s/c(=N/C(=O)[N-]Cc2ccccc2)[n-]c1-c1ccccc1

>  <Energy>  (45) 
74.13073317942725

>  <Genealogy>  (45) 
CCc1sc(=NC(=O)[N-]Cc2ccccc2)[n-]c1-c1ccccc1 (protonated)
CCc1s/c(=N/C(=O)[N-]Cc2ccccc2)[n-]c1-c1ccccc1 (cis-trans isomerization)
CCc1s/c(=N/C(=O)[N-]Cc2ccccc2)[n-]c1-c1ccccc1 (3D coordinates assigned)
CCc1s/c(=N/C(=O)[N-]Cc2ccccc2)[n-]c1-c1ccccc1 (optimized conformer: 74.13073317942725 kcal/mol)

>  <smiles>  (45) 
CCc1sc(=NC(=O)NCc2ccccc2)[nH]c1-c1ccccc1

>  <score_type>  (45) 
oracle

>  <origin>  (45) 
adg

>  <m_score__min__energy>  (45) 
-11.289999999999999

>  <m_primary>  (45) 
energy

$$$$
45:0
     RDKit          3D

 28 29  0  0  0  0  0  0  0  0999 V2000
   57.0220   21.7450   44.0110 C   0  0  0  0  0  0  0  0  0  0  0  0
   56.5760   23.4940   43.7750 S   0  0  0  0  0  0  0  0  0  0  0  0
   55.3770   23.5310   45.1120 C   0  0  0  0  0  0  0  0  0  0  0  0
   53.9800   23.6530   44.8080 S   0  0  0  0  0  0  0  0  0  0  0  0
   55.9330   23.7660   46.8030 S   0  0  0  0  0  0  0  0  0  0  0  0
   56.9380   25.1940   46.4080 C   0  0  0  0  0  0  0  0  0  0  0  0
   58.3170   25.2440   46.3850 C   0  0  0  0  0  0  0  0  0  0  0  0
   58.6340   26.5450   46.0390 C   0  0  0  0  0  0  0  0  0  0  0  0
   59.9290   27.0420   45.9150 O   0  0  0  0  0  0  0  0  0  0  0  0
   57.5200   27.2880   45.8580 N   0  0  0  0  0  0  0  0  0  0  0  0
   57.4520   28.6760   45.4860 C   0  0  0  0  0  0  0  0  0  0  0  0
   56.6450   29.0870   44.4100 C   0  0  0  0  0  0  0  0  0  0  0  0
   56.5820   30.4360   44.0500 C   0  0  0  0  0  0  0  0  0  0  0  0
   57.3230   31.3860   44.7560 C   0  0  0  0  0  0  0  0  0  0  0  0
   58.1300   30.9880   45.8260 C   0  0  0  0  0  0  0  0  0  0  0  0
   58.1950   29.6400   46.1900 C   0  0  0  0  0  0  0  0  0  0  0  0
   56.4830   26.4560   46.0910 C   0  0  0  0  0  0  0  0  0  0  0  0
   55.1450   26.8210   45.9940 O   0  0  0  0  0  0  0  0  0  0  0  0
   57.0786   21.5230   45.0869 H   0  0  0  0  0  0  0  0  0  0  0  0
   56.2582   21.1056   43.5444 H   0  0  0  0  0  0  0  0  0  0  0  0
   57.9987   21.5495   43.5444 H   0  0  0  0  0  0  0  0  0  0  0  0
   59.0167   24.4222   46.5972 H   0  0  0  0  0  0  0  0  0  0  0  0
   60.1610   27.7130   45.1920 H   0  0  0  0  0  0  0  0  0  0  0  0
   56.0605   28.3430   43.8489 H   0  0  0  0  0  0  0  0  0  0  0  0
   55.9471   30.7502   43.2084 H   0  0  0  0  0  0  0  0  0  0  0  0
   57.2718   32.4470   44.4704 H   0  0  0  0  0  0  0  0  0  0  0  0
   58.7142   31.7362   46.3818 H   0  0  0  0  0  0  0  0  0  0  0  0
   58.8314   29.3314   47.0325 H   0  0  0  0  0  0  0  0  0  0  0  0
  1  2  1  0
  2  3  1  0
  3  4  2  0
  3  5  1  0
  5  6  1  0
  6  7  1  0
  7  8  2  0
  8  9  1  0
  8 10  1  0
 10 11  1  0
 11 12  2  0
 12 13  1  0
 13 14  2  0
 14 15  1  0
 15 16  2  0
 10 17  1  0
 17 18  1  0
 17  6  2  0
 16 11  1  0
  1 19  1  0
  1 20  1  0
  1 21  1  0
  7 22  1  0
  9 23  1  0
 12 24  1  0
 13 25  1  0
 14 26  1  0
 15 27  1  0
 16 28  1  0
M  CHG  1  18  -1
M  END
>  <UniqueID>  (46) 
38

>  <SMILES>  (46) 
CSC(=S)Sc1cc(O)n(-c2ccccc2)c1[O-]

>  <Energy>  (46) 
53.6650089421767

>  <Genealogy>  (46) 
CSC(=S)Sc1cc(O)n(-c2ccccc2)c1[O-] (protonated)
CSC(=S)Sc1cc(O)n(-c2ccccc2)c1[O-] (3D coordinates assigned)
CSC(=S)Sc1cc(O)n(-c2ccccc2)c1[O-] (optimized conformer: 53.6650089421767 kcal/mol)

>  <smiles>  (46) 
CSC(=S)Sc1cc(O)n(-c2ccccc2)c1O

>  <score_type>  (46) 
oracle

>  <origin>  (46) 
adg

>  <m_score__min__energy>  (46) 
-9.0999999999999996

>  <m_primary>  (46) 
energy

$$$$
46:0
     RDKit          3D

 33 34  0  0  0  0  0  0  0  0999 V2000
   56.5650   30.6300   43.2200 C   0  0  0  0  0  0  0  0  0  0  0  0
   57.0950   29.8990   44.4240 C   0  0  0  0  0  0  0  0  0  0  0  0
   56.5860   28.6320   44.7500 C   0  0  0  0  0  0  0  0  0  0  0  0
   57.0690   27.9340   45.8670 C   0  0  0  0  0  0  0  0  0  0  0  0
   56.4990   26.5910   46.2320 C   0  0  0  0  0  0  0  0  0  0  0  0
   55.1000   26.6250   46.1540 O   0  0  0  0  0  0  0  0  0  0  0  0
   58.0440   28.5260   46.6790 C   0  0  0  0  0  0  0  0  0  0  0  0
   58.5480   29.7910   46.3700 C   0  0  0  0  0  0  0  0  0  0  0  0
   58.0820   30.4900   45.2410 C   0  0  0  0  0  0  0  0  0  0  0  0
   58.5840   31.7930   44.9040 N   0  0  0  0  0  0  0  0  0  0  0  0
   58.0990   33.2810   45.6500 S   0  0  0  0  0  0  0  0  0  0  0  0
   56.6030   33.2940   45.7920 O   0  0  0  0  0  0  0  0  0  0  0  0
   58.5160   34.4270   44.7720 O   0  0  0  0  0  0  0  0  0  0  0  0
   58.8750   33.4550   47.2200 C   0  0  0  0  0  0  0  0  0  0  0  0
   58.4700   32.6610   48.3030 C   0  0  0  0  0  0  0  0  0  0  0  0
   59.0930   32.8020   49.5470 C   0  0  0  0  0  0  0  0  0  0  0  0
   60.1190   33.7370   49.7170 C   0  0  0  0  0  0  0  0  0  0  0  0
   60.5230   34.5330   48.6410 C   0  0  0  0  0  0  0  0  0  0  0  0
   59.9020   34.3950   47.3950 C   0  0  0  0  0  0  0  0  0  0  0  0
   55.9488   31.4798   43.5489 H   0  0  0  0  0  0  0  0  0  0  0  0
   57.4065   30.9994   42.6155 H   0  0  0  0  0  0  0  0  0  0  0  0
   55.9522   29.9450   42.6155 H   0  0  0  0  0  0  0  0  0  0  0  0
   55.8013   28.1824   44.1239 H   0  0  0  0  0  0  0  0  0  0  0  0
   56.8840   25.8309   45.5362 H   0  0  0  0  0  0  0  0  0  0  0  0
   56.7966   26.3408   47.2610 H   0  0  0  0  0  0  0  0  0  0  0  0
   54.7680   26.7140   47.0860 H   0  0  0  0  0  0  0  0  0  0  0  0
   58.4152   27.9913   47.5657 H   0  0  0  0  0  0  0  0  0  0  0  0
   59.3155   30.2448   47.0142 H   0  0  0  0  0  0  0  0  0  0  0  0
   57.6614   31.9265   48.1736 H   0  0  0  0  0  0  0  0  0  0  0  0
   58.7753   32.1760   50.3939 H   0  0  0  0  0  0  0  0  0  0  0  0
   60.6077   33.8460   50.6964 H   0  0  0  0  0  0  0  0  0  0  0  0
   61.3300   35.2686   48.7742 H   0  0  0  0  0  0  0  0  0  0  0  0
   60.2195   35.0247   46.5508 H   0  0  0  0  0  0  0  0  0  0  0  0
  1  2  1  0
  2  3  2  0
  3  4  1  0
  4  5  1  0
  5  6  1  0
  4  7  2  0
  7  8  1  0
  8  9  2  0
  9 10  1  0
 10 11  1  0
 11 12  2  0
 11 13  2  0
 11 14  1  0
 14 15  2  0
 15 16  1  0
 16 17  2  0
 17 18  1  0
 18 19  2  0
  9  2  1  0
 19 14  1  0
  1 20  1  0
  1 21  1  0
  1 22  1  0
  3 23  1  0
  5 24  1  0
  5 25  1  0
  6 26  1  0
  7 27  1  0
  8 28  1  0
 15 29  1  0
 16 30  1  0
 17 31  1  0
 18 32  1  0
 19 33  1  0
M  CHG  1  10  -1
M  END
>  <UniqueID>  (47) 
39

>  <SMILES>  (47) 
Cc1cc(CO)ccc1[N-]S(=O)(=O)c1ccccc1

>  <Energy>  (47) 
35.80616765547505

>  <Genealogy>  (47) 
Cc1cc(CO)ccc1[N-]S(=O)(=O)c1ccccc1 (protonated)
Cc1cc(CO)ccc1[N-]S(=O)(=O)c1ccccc1 (3D coordinates assigned)
Cc1cc(CO)ccc1[N-]S(=O)(=O)c1ccccc1 (optimized conformer: 35.80616765547505 kcal/mol)

>  <smiles>  (47) 
Cc1cc(CO)ccc1NS(=O)(=O)c1ccccc1

>  <score_type>  (47) 
oracle

>  <origin>  (47) 
adg

>  <m_score__min__energy>  (47) 
-8.5500000000000007

>  <m_primary>  (47) 
energy

$$$$
47:0
     RDKit          3D

 42 44  0  0  0  0  0  0  0  0999 V2000
   57.9960   32.4840   43.4170 C   0  0  0  0  0  0  0  0  0  0  0  0
   58.4330   33.0240   44.7540 C   0  0  0  0  0  0  0  0  0  0  0  0
   58.5880   34.4140   44.8970 C   0  0  0  0  0  0  0  0  0  0  0  0
   59.0300   34.9600   46.1040 C   0  0  0  0  0  0  0  0  0  0  0  0
   59.3200   34.1270   47.1830 C   0  0  0  0  0  0  0  0  0  0  0  0
   59.1520   32.7460   47.0660 C   0  0  0  0  0  0  0  0  0  0  0  0
   58.6860   32.1810   45.8670 C   0  0  0  0  0  0  0  0  0  0  0  0
   58.4970   30.7180   45.8110 C   0  0  0  0  0  0  0  0  0  0  0  0
   57.3460   30.2600   45.5770 O   0  0  0  0  0  0  0  0  0  0  0  0
   59.6110   29.8300   46.0100 N   0  0  0  0  0  0  0  0  0  0  0  0
   59.5120   28.3970   45.9860 C   0  0  0  0  0  0  0  0  0  0  0  0
   58.6000   27.7380   45.1450 C   0  0  0  0  0  0  0  0  0  0  0  0
   58.5370   26.3420   45.1270 C   0  0  0  0  0  0  0  0  0  0  0  0
   59.3850   25.5800   45.9470 C   0  0  0  0  0  0  0  0  0  0  0  0
   59.3220   24.0980   45.9440 C   0  0  0  0  0  0  0  0  0  0  0  0
   60.3430   23.4380   45.6140 O   0  0  0  0  0  0  0  0  0  0  0  0
   58.1250   23.3830   46.2840 N   0  0  0  0  0  0  0  0  0  0  0  0
   56.8400   23.5610   45.6710 C   0  0  0  0  0  0  0  0  0  0  0  0
   55.9940   24.5590   46.1740 C   0  0  0  0  0  0  0  0  0  0  0  0
   54.7230   24.7520   45.6270 C   0  0  0  0  0  0  0  0  0  0  0  0
   54.2960   23.9620   44.5590 C   0  0  0  0  0  0  0  0  0  0  0  0
   55.1440   22.9900   44.0240 C   0  0  0  0  0  0  0  0  0  0  0  0
   56.4200   22.7880   44.5660 C   0  0  0  0  0  0  0  0  0  0  0  0
   57.5750   21.5340   43.6880 Br  0  0  0  0  0  0  0  0  0  0  0  0
   60.3290   26.2390   46.7510 C   0  0  0  0  0  0  0  0  0  0  0  0
   60.3920   27.6360   46.7670 C   0  0  0  0  0  0  0  0  0  0  0  0
   57.3107   31.6372   43.5698 H   0  0  0  0  0  0  0  0  0  0  0  0
   57.4809   33.2753   42.8526 H   0  0  0  0  0  0  0  0  0  0  0  0
   58.8773   32.1453   42.8526 H   0  0  0  0  0  0  0  0  0  0  0  0
   58.3590   35.0777   44.0502 H   0  0  0  0  0  0  0  0  0  0  0  0
   59.1494   36.0490   46.2032 H   0  0  0  0  0  0  0  0  0  0  0  0
   59.6817   34.5582   48.1281 H   0  0  0  0  0  0  0  0  0  0  0  0
   59.3866   32.0942   47.9205 H   0  0  0  0  0  0  0  0  0  0  0  0
   60.5350   30.2460   46.2630 H   0  0  0  0  0  0  0  0  0  0  0  0
   57.9317   28.3240   44.4970 H   0  0  0  0  0  0  0  0  0  0  0  0
   57.8179   25.8364   44.4657 H   0  0  0  0  0  0  0  0  0  0  0  0
   56.3332   25.1947   47.0052 H   0  0  0  0  0  0  0  0  0  0  0  0
   54.0590   25.5266   46.0382 H   0  0  0  0  0  0  0  0  0  0  0  0
   53.2899   24.1051   44.1379 H   0  0  0  0  0  0  0  0  0  0  0  0
   54.8083   22.3798   43.1726 H   0  0  0  0  0  0  0  0  0  0  0  0
   61.0228   25.6531   47.3717 H   0  0  0  0  0  0  0  0  0  0  0  0
   61.1382   28.1414   47.3976 H   0  0  0  0  0  0  0  0  0  0  0  0
  1  2  1  0
  2  3  2  0
  3  4  1  0
  4  5  2  0
  5  6  1  0
  6  7  2  0
  7  8  1  0
  8  9  2  0
  8 10  1  0
 10 11  1  0
 11 12  2  0
 12 13  1  0
 13 14  2  0
 14 15  1  0
 15 16  2  0
 15 17  1  0
 17 18  1  0
 18 19  2  0
 19 20  1  0
 20 21  2  0
 21 22  1  0
 22 23  2  0
 23 24  1  0
 14 25  1  0
 25 26  2  0
  7  2  1  0
 26 11  1  0
 23 18  1  0
  1 27  1  0
  1 28  1  0
  1 29  1  0
  3 30  1  0
  4 31  1  0
  5 32  1  0
  6 33  1  0
 10 34  1  0
 12 35  1  0
 13 36  1  0
 19 37  1  0
 20 38  1  0
 21 39  1  0
 22 40  1  0
 25 41  1  0
 26 42  1  0
M  CHG  1  17  -1
M  END
>  <UniqueID>  (48) 
40

>  <SMILES>  (48) 
Cc1ccccc1C(=O)Nc1ccc(C(=O)[N-]c2ccccc2Br)cc1

>  <Energy>  (48) 
64.91071337326424

>  <Genealogy>  (48) 
Cc1ccccc1C(=O)Nc1ccc(C(=O)[N-]c2ccccc2Br)cc1 (protonated)
Cc1ccccc1C(=O)Nc1ccc(C(=O)[N-]c2ccccc2Br)cc1 (3D coordinates assigned)
Cc1ccccc1C(=O)Nc1ccc(C(=O)[N-]c2ccccc2Br)cc1 (optimized conformer: 64.91071337326424 kcal/mol)

>  <smiles>  (48) 
Cc1ccccc1C(=O)Nc1ccc(C(=O)Nc2ccccc2Br)cc1

>  <score_type>  (48) 
oracle

>  <origin>  (48) 
adg

>  <m_score__min__energy>  (48) 
-9.9399999999999995

>  <m_primary>  (48) 
energy

$$$$
48:0
     RDKit          3D

 51 53  0  0  0  0  0  0  0  0999 V2000
   55.8440   22.6550   42.3690 N   0  0  0  0  0  0  0  0  0  0  0  0
   56.7690   22.0020   43.6750 S   0  0  0  0  0  0  0  0  0  0  0  0
   55.8780   21.1830   44.5680 O   0  0  0  0  0  0  0  0  0  0  0  0
   57.8500   21.1140   43.1270 O   0  0  0  0  0  0  0  0  0  0  0  0
   57.4830   23.3180   44.6010 C   0  0  0  0  0  0  0  0  0  0  0  0
   58.8120   23.2460   45.0260 C   0  0  0  0  0  0  0  0  0  0  0  0
   59.3740   24.2900   45.7610 C   0  0  0  0  0  0  0  0  0  0  0  0
   58.6160   25.4320   46.0890 C   0  0  0  0  0  0  0  0  0  0  0  0
   59.1790   26.4680   46.9220 N   0  0  0  0  0  0  0  0  0  0  0  0
   60.5020   26.3570   47.5430 C   0  0  0  0  0  0  0  0  0  0  0  0
   60.7470   27.5140   48.5240 C   0  0  0  0  0  0  0  0  0  0  0  0
   59.8970   28.6840   48.2060 N   0  0  0  0  0  0  0  0  0  0  0  0
   59.7810   29.6090   49.3610 C   0  0  0  0  0  0  0  0  0  0  0  0
   59.4830   31.0450   48.9000 C   0  0  0  0  0  0  0  0  0  0  0  0
   60.4950   31.5960   48.0690 O   0  0  0  0  0  0  0  0  0  0  0  0
   61.1950   30.6250   47.3020 C   0  0  0  0  0  0  0  0  0  0  0  0
   60.3610   29.3720   46.9770 C   0  0  0  0  0  0  0  0  0  0  0  0
   57.2750   25.5160   45.6340 C   0  0  0  0  0  0  0  0  0  0  0  0
   56.4360   26.7140   45.8760 C   0  0  0  0  0  0  0  0  0  0  0  0
   55.1840   26.5900   45.9450 O   0  0  0  0  0  0  0  0  0  0  0  0
   57.0160   28.0010   46.1340 N   0  0  0  0  0  0  0  0  0  0  0  0
   57.1190   29.0850   45.2010 C   0  0  0  0  0  0  0  0  0  0  0  0
   56.6570   28.9690   43.8780 C   0  0  0  0  0  0  0  0  0  0  0  0
   56.7670   30.0490   42.9970 C   0  0  0  0  0  0  0  0  0  0  0  0
   57.3220   31.2550   43.4330 C   0  0  0  0  0  0  0  0  0  0  0  0
   57.7590   31.3870   44.7540 C   0  0  0  0  0  0  0  0  0  0  0  0
   58.4450   32.9040   45.3050 Cl  0  0  0  0  0  0  0  0  0  0  0  0
   57.6500   30.3060   45.6380 C   0  0  0  0  0  0  0  0  0  0  0  0
   56.7250   24.4550   44.8930 C   0  0  0  0  0  0  0  0  0  0  0  0
   56.1140   22.1250   41.5100 H   0  0  0  0  0  0  0  0  0  0  0  0
   56.1640   23.6380   42.2290 H   0  0  0  0  0  0  0  0  0  0  0  0
   59.4182   22.3617   44.7798 H   0  0  0  0  0  0  0  0  0  0  0  0
   60.4218   24.2211   46.0886 H   0  0  0  0  0  0  0  0  0  0  0  0
   58.6290   27.3400   47.0850 H   0  0  0  0  0  0  0  0  0  0  0  0
   60.5650   25.4035   48.0879 H   0  0  0  0  0  0  0  0  0  0  0  0
   61.2656   26.3994   46.7524 H   0  0  0  0  0  0  0  0  0  0  0  0
   60.5178   27.1723   49.5442 H   0  0  0  0  0  0  0  0  0  0  0  0
   61.8004   27.8198   48.4410 H   0  0  0  0  0  0  0  0  0  0  0  0
   58.9651   29.2659   50.0141 H   0  0  0  0  0  0  0  0  0  0  0  0
   60.7388   29.6101   49.9020 H   0  0  0  0  0  0  0  0  0  0  0  0
   58.5364   31.0412   48.3396 H   0  0  0  0  0  0  0  0  0  0  0  0
   59.4311   31.6702   49.8036 H   0  0  0  0  0  0  0  0  0  0  0  0
   61.5066   31.0897   46.3549 H   0  0  0  0  0  0  0  0  0  0  0  0
   62.0503   30.2926   47.9087 H   0  0  0  0  0  0  0  0  0  0  0  0
   59.4841   29.6720   46.3845 H   0  0  0  0  0  0  0  0  0  0  0  0
   60.9986   28.6738   46.4149 H   0  0  0  0  0  0  0  0  0  0  0  0
   56.2076   28.0254   43.5351 H   0  0  0  0  0  0  0  0  0  0  0  0
   56.4162   29.9492   41.9592 H   0  0  0  0  0  0  0  0  0  0  0  0
   57.4150   32.1010   42.7361 H   0  0  0  0  0  0  0  0  0  0  0  0
   57.9829   30.4161   46.6806 H   0  0  0  0  0  0  0  0  0  0  0  0
   55.6856   24.5208   44.5390 H   0  0  0  0  0  0  0  0  0  0  0  0
  1  2  1  0
  2  3  2  0
  2  4  2  0
  2  5  1  0
  5  6  2  0
  6  7  1  0
  7  8  2  0
  8  9  1  0
  9 10  1  0
 10 11  1  0
 11 12  1  0
 12 13  1  0
 13 14  1  0
 14 15  1  0
 15 16  1  0
 16 17  1  0
  8 18  1  0
 18 19  1  0
 19 20  2  0
 19 21  1  0
 21 22  1  0
 22 23  2  0
 23 24  1  0
 24 25  2  0
 25 26  1  0
 26 27  1  0
 26 28  2  0
 18 29  2  0
 29  5  1  0
 17 12  1  0
 28 22  1  0
  1 30  1  0
  1 31  1  0
  6 32  1  0
  7 33  1  0
  9 34  1  0
 10 35  1  0
 10 36  1  0
 11 37  1  0
 11 38  1  0
 13 39  1  0
 13 40  1  0
 14 41  1  0
 14 42  1  0
 16 43  1  0
 16 44  1  0
 17 45  1  0
 17 46  1  0
 23 47  1  0
 24 48  1  0
 25 49  1  0
 28 50  1  0
 29 51  1  0
M  CHG  1  21  -1
M  END
>  <UniqueID>  (49) 
41

>  <SMILES>  (49) 
NS(=O)(=O)c1ccc(NCCN2CCOCC2)c(C(=O)[N-]c2cccc(Cl)c2)c1

>  <Energy>  (49) 
73.35899748304807

>  <Genealogy>  (49) 
NS(=O)(=O)c1ccc(NCCN2CCOCC2)c(C(=O)[N-]c2cccc(Cl)c2)c1 (protonated)
NS(=O)(=O)c1ccc(NCCN2CCOCC2)c(C(=O)[N-]c2cccc(Cl)c2)c1 (3D coordinates assigned)
NS(=O)(=O)c1ccc(NCCN2CCOCC2)c(C(=O)[N-]c2cccc(Cl)c2)c1 (nonaromatic ring conformer: 73.35899748304807 kcal/mol)

>  <smiles>  (49) 
NS(=O)(=O)c1ccc(NCCN2CCOCC2)c(C(=O)Nc2cccc(Cl)c2)c1

>  <score_type>  (49) 
oracle

>  <origin>  (49) 
adg

>  <m_score__min__energy>  (49) 
-10.56

>  <m_primary>  (49) 
energy

$$$$
49:0
     RDKit          3D

 23 24  0  0  0  0  0  0  0  0999 V2000
   55.5990   28.7810   44.8790 O   0  0  0  0  0  0  0  0  0  0  0  0
   56.3280   29.8140   44.2920 C   0  0  0  0  0  0  0  0  0  0  0  0
   56.2900   30.0160   42.9060 C   0  0  0  0  0  0  0  0  0  0  0  0
   57.0240   31.0550   42.3300 C   0  0  0  0  0  0  0  0  0  0  0  0
   57.7970   31.8980   43.1330 C   0  0  0  0  0  0  0  0  0  0  0  0
   57.8430   31.7060   44.5250 C   0  0  0  0  0  0  0  0  0  0  0  0
   58.6640   32.5980   45.3780 C   0  0  0  0  0  0  0  0  0  0  0  0
   58.4900   33.9960   45.3260 C   0  0  0  0  0  0  0  0  0  0  0  0
   57.5490   34.5480   44.5160 F   0  0  0  0  0  0  0  0  0  0  0  0
   59.2660   34.8330   46.1330 C   0  0  0  0  0  0  0  0  0  0  0  0
   60.2180   34.2900   46.9980 C   0  0  0  0  0  0  0  0  0  0  0  0
   60.4000   32.9070   47.0570 C   0  0  0  0  0  0  0  0  0  0  0  0
   59.6280   32.0610   46.2550 C   0  0  0  0  0  0  0  0  0  0  0  0
   59.8450   30.7210   46.3110 F   0  0  0  0  0  0  0  0  0  0  0  0
   57.1030   30.6570   45.0970 C   0  0  0  0  0  0  0  0  0  0  0  0
   54.7670   28.9650   45.4260 H   0  0  0  0  0  0  0  0  0  0  0  0
   55.6814   29.3555   42.2710 H   0  0  0  0  0  0  0  0  0  0  0  0
   56.9937   31.2103   41.2414 H   0  0  0  0  0  0  0  0  0  0  0  0
   58.3721   32.7156   42.6738 H   0  0  0  0  0  0  0  0  0  0  0  0
   59.1261   35.9231   46.0864 H   0  0  0  0  0  0  0  0  0  0  0  0
   60.8248   34.9520   47.6332 H   0  0  0  0  0  0  0  0  0  0  0  0
   61.1531   32.4816   47.7366 H   0  0  0  0  0  0  0  0  0  0  0  0
   57.1331   30.4973   46.1849 H   0  0  0  0  0  0  0  0  0  0  0  0
  1  2  1  0
  2  3  2  0
  3  4  1  0
  4  5  2  0
  5  6  1  0
  6  7  1  0
  7  8  2  0
  8  9  1  0
  8 10  1  0
 10 11  2  0
 11 12  1  0
 12 13  2  0
 13 14  1  0
  6 15  2  0
 15  2  1  0
 13  7  1  0
  1 16  1  0
  3 17  1  0
  4 18  1  0
  5 19  1  0
 10 20  1  0
 11 21  1  0
 12 22  1  0
 15 23  1  0
M  END
>  <UniqueID>  (50) 
42

>  <SMILES>  (50) 
Oc1cccc(-c2c(F)cccc2F)c1

>  <Energy>  (50) 
30.512531257302605

>  <Genealogy>  (50) 
Oc1cccc(-c2c(F)cccc2F)c1 (3D coordinates assigned)
Oc1cccc(-c2c(F)cccc2F)c1 (optimized conformer: 30.512531257302605 kcal/mol)

>  <smiles>  (50) 
Oc1cccc(-c2c(F)cccc2F)c1

>  <score_type>  (50) 
oracle

>  <origin>  (50) 
adg

>  <m_score__min__energy>  (50) 
-6.96

>  <m_primary>  (50) 
energy

$$$$
50:0
     RDKit          3D

 36 37  0  0  0  0  0  0  0  0999 V2000
   55.1040   26.3930   46.0020 N   0  0  0  0  0  0  0  0  0  0  0  0
   56.7220   25.8210   46.2070 S   0  0  0  0  0  0  0  0  0  0  0  0
   57.1410   25.0760   44.9710 O   0  0  0  0  0  0  0  0  0  0  0  0
   56.7830   24.8850   47.3810 O   0  0  0  0  0  0  0  0  0  0  0  0
   57.7970   27.1870   46.4890 C   0  0  0  0  0  0  0  0  0  0  0  0
   58.7970   27.1200   47.4680 C   0  0  0  0  0  0  0  0  0  0  0  0
   59.6480   28.2090   47.6750 C   0  0  0  0  0  0  0  0  0  0  0  0
   59.5240   29.3560   46.8870 C   0  0  0  0  0  0  0  0  0  0  0  0
   58.5550   29.4180   45.8780 C   0  0  0  0  0  0  0  0  0  0  0  0
   58.4560   30.6100   45.0860 N   0  0  0  0  0  0  0  0  0  0  0  0
   57.4010   31.5820   45.1090 C   0  0  0  0  0  0  0  0  0  0  0  0
   56.3440   31.3410   44.4700 O   0  0  0  0  0  0  0  0  0  0  0  0
   57.4610   32.8240   45.9590 C   0  0  0  0  0  0  0  0  0  0  0  0
   58.5830   32.7610   46.8980 N   0  0  0  0  0  0  0  0  0  0  0  0
   59.6840   34.0920   46.6710 S   0  0  0  0  0  0  0  0  0  0  0  0
   59.9770   34.2380   45.2060 O   0  0  0  0  0  0  0  0  0  0  0  0
   59.0360   35.3550   47.1640 O   0  0  0  0  0  0  0  0  0  0  0  0
   61.2060   33.8230   47.5240 C   0  0  0  0  0  0  0  0  0  0  0  0
   61.2860   34.0050   48.9120 C   0  0  0  0  0  0  0  0  0  0  0  0
   62.4800   33.7430   49.5880 C   0  0  0  0  0  0  0  0  0  0  0  0
   63.6030   33.3030   48.8820 C   0  0  0  0  0  0  0  0  0  0  0  0
   65.2220   32.9090   49.8130 Br  0  0  0  0  0  0  0  0  0  0  0  0
   63.5370   33.1450   47.4940 C   0  0  0  0  0  0  0  0  0  0  0  0
   62.3430   33.4090   46.8150 C   0  0  0  0  0  0  0  0  0  0  0  0
   57.6630   28.3450   45.7120 C   0  0  0  0  0  0  0  0  0  0  0  0
   55.1470   27.4370   45.9950 H   0  0  0  0  0  0  0  0  0  0  0  0
   58.9124   26.2094   48.0742 H   0  0  0  0  0  0  0  0  0  0  0  0
   60.4171   28.1630   48.4601 H   0  0  0  0  0  0  0  0  0  0  0  0
   60.1903   30.2140   47.0599 H   0  0  0  0  0  0  0  0  0  0  0  0
   57.5860   33.7010   45.3069 H   0  0  0  0  0  0  0  0  0  0  0  0
   56.5261   32.9023   46.5333 H   0  0  0  0  0  0  0  0  0  0  0  0
   60.4055   34.3553   49.4705 H   0  0  0  0  0  0  0  0  0  0  0  0
   62.5364   33.8832   50.6776 H   0  0  0  0  0  0  0  0  0  0  0  0
   64.4248   32.8129   46.9358 H   0  0  0  0  0  0  0  0  0  0  0  0
   62.2957   33.2916   45.7223 H   0  0  0  0  0  0  0  0  0  0  0  0
   56.8555   28.4146   44.9683 H   0  0  0  0  0  0  0  0  0  0  0  0
  1  2  1  0
  2  3  2  0
  2  4  2  0
  2  5  1  0
  5  6  2  0
  6  7  1  0
  7  8  2  0
  8  9  1  0
  9 10  1  0
 10 11  1  0
 11 12  2  0
 11 13  1  0
 13 14  1  0
 14 15  1  0
 15 16  2  0
 15 17  2  0
 15 18  1  0
 18 19  2  0
 19 20  1  0
 20 21  2  0
 21 22  1  0
 21 23  1  0
 23 24  2  0
  9 25  2  0
 25  5  1  0
 24 18  1  0
  1 26  1  0
  6 27  1  0
  7 28  1  0
  8 29  1  0
 13 30  1  0
 13 31  1  0
 19 32  1  0
 20 33  1  0
 23 34  1  0
 24 35  1  0
 25 36  1  0
M  CHG  3   1  -1  10  -1  14  -1
M  END
>  <UniqueID>  (51) 
43

>  <SMILES>  (51) 
[NH-]S(=O)(=O)c1cccc([N-]C(=O)C[N-]S(=O)(=O)c2ccc(Br)cc2)c1

>  <Energy>  (51) 
34.765730729493846

>  <Genealogy>  (51) 
[NH-]S(=O)(=O)c1cccc([N-]C(=O)C[N-]S(=O)(=O)c2ccc(Br)cc2)c1 (protonated)
[NH-]S(=O)(=O)c1cccc([N-]C(=O)C[N-]S(=O)(=O)c2ccc(Br)cc2)c1 (3D coordinates assigned)
[NH-]S(=O)(=O)c1cccc([N-]C(=O)C[N-]S(=O)(=O)c2ccc(Br)cc2)c1 (optimized conformer: 34.765730729493846 kcal/mol)

>  <smiles>  (51) 
NS(=O)(=O)c1cccc(NC(=O)CNS(=O)(=O)c2ccc(Br)cc2)c1

>  <score_type>  (51) 
oracle

>  <origin>  (51) 
adg

>  <m_score__min__energy>  (51) 
-14.01

>  <m_primary>  (51) 
energy

$$$$
51:0
     RDKit          3D

 45 48  0  0  0  0  0  0  0  0999 V2000
   61.4933   29.3086   45.0526 H   0  0  0  0  0  0  0  0  0  0  0  0
   60.5000   29.3550   45.5230 C   0  0  0  0  0  0  0  0  0  0  0  0
   59.5420   28.6480   44.9940 N   0  0  0  0  0  0  0  0  0  0  0  0
   58.8760   27.5160   45.5770 C   0  0  0  0  0  0  0  0  0  0  0  0
   57.4740   27.5350   45.7490 C   0  0  0  0  0  0  0  0  0  0  0  0
   56.6690   28.7350   45.4130 C   0  0  0  0  0  0  0  0  0  0  0  0
   55.5240   28.5950   44.9080 O   0  0  0  0  0  0  0  0  0  0  0  0
   57.1820   30.0630   45.5920 N   0  0  0  0  0  0  0  0  0  0  0  0
   57.4930   30.9980   44.5480 C   0  0  0  0  0  0  0  0  0  0  0  0
   57.1390   30.6690   43.2330 C   0  0  0  0  0  0  0  0  0  0  0  0
   56.6221   29.7198   43.0282 H   0  0  0  0  0  0  0  0  0  0  0  0
   57.4370   31.5360   42.1810 C   0  0  0  0  0  0  0  0  0  0  0  0
   57.1654   31.2634   41.1505 H   0  0  0  0  0  0  0  0  0  0  0  0
   58.0790   32.7480   42.4350 C   0  0  0  0  0  0  0  0  0  0  0  0
   58.3250   33.4239   41.6027 H   0  0  0  0  0  0  0  0  0  0  0  0
   58.4100   33.1050   43.7440 C   0  0  0  0  0  0  0  0  0  0  0  0
   58.9116   34.0644   43.9389 H   0  0  0  0  0  0  0  0  0  0  0  0
   58.1050   32.2430   44.8170 C   0  0  0  0  0  0  0  0  0  0  0  0
   58.3690   32.6030   46.1480 O   0  0  0  0  0  0  0  0  0  0  0  0
   58.1380   33.8950   46.6990 C   0  0  0  0  0  0  0  0  0  0  0  0
   58.1492   33.8326   47.7972 H   0  0  0  0  0  0  0  0  0  0  0  0
   58.9273   34.5835   46.3628 H   0  0  0  0  0  0  0  0  0  0  0  0
   57.1590   34.2673   46.3628 H   0  0  0  0  0  0  0  0  0  0  0  0
   56.8450   26.3940   46.2710 C   0  0  0  0  0  0  0  0  0  0  0  0
   55.7572   26.3942   46.4342 H   0  0  0  0  0  0  0  0  0  0  0  0
   57.5930   25.2620   46.5830 C   0  0  0  0  0  0  0  0  0  0  0  0
   57.1020   24.3694   46.9979 H   0  0  0  0  0  0  0  0  0  0  0  0
   58.9690   25.2700   46.3650 C   0  0  0  0  0  0  0  0  0  0  0  0
   59.5661   24.3764   46.5995 H   0  0  0  0  0  0  0  0  0  0  0  0
   59.5760   26.3770   45.8640 N   0  0  0  0  0  0  0  0  0  0  0  0
   60.6020   26.3320   45.6730 H   0  0  0  0  0  0  0  0  0  0  0  0
   60.3390   30.2160   46.7150 C   0  0  0  0  0  0  0  0  0  0  0  0
   59.3960   29.9040   47.7310 C   0  0  0  0  0  0  0  0  0  0  0  0
   58.7822   28.9951   47.6462 H   0  0  0  0  0  0  0  0  0  0  0  0
   59.2420   30.7500   48.8450 C   0  0  0  0  0  0  0  0  0  0  0  0
   58.5267   30.5096   49.6454 H   0  0  0  0  0  0  0  0  0  0  0  0
   60.0230   31.9000   48.9020 C   0  0  0  0  0  0  0  0  0  0  0  0
   60.9060   32.2170   47.9210 C   0  0  0  0  0  0  0  0  0  0  0  0
   61.0900   31.4080   46.8030 C   0  0  0  0  0  0  0  0  0  0  0  0
   61.7999   31.6895   46.0113 H   0  0  0  0  0  0  0  0  0  0  0  0
   61.5310   33.4080   48.2330 O   0  0  0  0  0  0  0  0  0  0  0  0
   61.0090   33.8670   49.4880 C   0  0  0  0  0  0  0  0  0  0  0  0
   61.8120   33.9422   50.2360 H   0  0  0  0  0  0  0  0  0  0  0  0
   60.5588   34.8673   49.4061 H   0  0  0  0  0  0  0  0  0  0  0  0
   60.0490   32.8760   49.8780 O   0  0  0  0  0  0  0  0  0  0  0  0
  1  2  1  0
  2  3  2  0
  3  4  1  0
  4  5  1  0
  5  6  1  0
  6  7  2  0
  6  8  1  0
  8  9  1  0
  9 10  2  0
 10 11  1  0
 10 12  1  0
 12 13  1  0
 12 14  2  0
 14 15  1  0
 14 16  1  0
 16 17  1  0
 16 18  2  0
 18 19  1  0
 19 20  1  0
 20 21  1  0
 20 22  1  0
 20 23  1  0
  5 24  2  0
 24 25  1  0
 24 26  1  0
 26 27  1  0
 26 28  2  0
 28 29  1  0
 28 30  1  0
 30 31  1  0
  2 32  1  0
 32 33  2  0
 33 34  1  0
 33 35  1  0
 35 36  1  0
 35 37  2  0
 37 38  1  0
 38 39  2  0
 39 40  1  0
 38 41  1  0
 41 42  1  0
 42 43  1  0
 42 44  1  0
 42 45  1  0
 30  4  2  0
 39 32  1  0
 18  9  1  0
 45 37  1  0
M  CHG  2   8  -1  30   1
M  END
>  <UniqueID>  (52) 
44

>  <SMILES>  (52) 
COc1ccccc1[N-]C(=O)c1ccc[nH+]c1/N=C\c1ccc2c(c1)OCO2

>  <Energy>  (52) 
95.6582676467691

>  <Genealogy>  (52) 
COc1ccccc1[N-]C(=O)c1ccc[nH+]c1N=Cc1ccc2c(c1)OCO2 (protonated)
COc1ccccc1[N-]C(=O)c1ccc[nH+]c1/N=C\c1ccc2c(c1)OCO2 (cis-trans isomerization)
COc1ccccc1[N-]C(=O)c1ccc[nH+]c1/N=C\c1ccc2c(c1)OCO2 (3D coordinates assigned)
COc1ccccc1[N-]C(=O)c1ccc[nH+]c1/N=C\c1ccc2c(c1)OCO2 (nonaromatic ring conformer: 95.6582676467691 kcal/mol)

>  <smiles>  (52) 
COc1ccccc1NC(=O)c1cccnc1N=Cc1ccc2c(c1)OCO2

>  <score_type>  (52) 
oracle

>  <origin>  (52) 
adg

>  <m_score__min__energy>  (52) 
-8.9100000000000001

>  <m_primary>  (52) 
energy

$$$$
52:0
     RDKit          3D

 50 52  0  0  0  0  0  0  0  0999 V2000
   62.0470   27.8220   51.9480 C   0  0  0  0  0  0  0  0  0  0  0  0
   61.3090   27.6630   50.7410 O   0  0  0  0  0  0  0  0  0  0  0  0
   60.8410   28.7250   49.9530 C   0  0  0  0  0  0  0  0  0  0  0  0
   61.1990   30.0630   50.2000 C   0  0  0  0  0  0  0  0  0  0  0  0
   60.7040   31.0880   49.3870 C   0  0  0  0  0  0  0  0  0  0  0  0
   59.8390   30.7980   48.3150 C   0  0  0  0  0  0  0  0  0  0  0  0
   59.3110   31.8690   47.4310 C   0  0  0  0  0  0  0  0  0  0  0  0
   59.5100   33.2280   47.7100 C   0  0  0  0  0  0  0  0  0  0  0  0
   59.0000   34.1840   46.8360 C   0  0  0  0  0  0  0  0  0  0  0  0
   58.2930   33.7760   45.7080 C   0  0  0  0  0  0  0  0  0  0  0  0
   57.8450   34.6410   44.9090 O   0  0  0  0  0  0  0  0  0  0  0  0
   58.0950   32.4390   45.4810 N   0  0  0  0  0  0  0  0  0  0  0  0
   57.3850   31.9640   44.2900 C   0  0  0  0  0  0  0  0  0  0  0  0
   56.9230   30.5550   44.5000 C   0  0  0  0  0  0  0  0  0  0  0  0
   55.6890   30.2980   44.4910 O   0  0  0  0  0  0  0  0  0  0  0  0
   57.8870   29.5140   44.7230 N   0  0  0  0  0  0  0  0  0  0  0  0
   57.5900   28.1090   44.6460 C   0  0  0  0  0  0  0  0  0  0  0  0
   58.0460   27.3230   43.5750 C   0  0  0  0  0  0  0  0  0  0  0  0
   57.7690   25.9560   43.5350 C   0  0  0  0  0  0  0  0  0  0  0  0
   57.0410   25.3450   44.5740 C   0  0  0  0  0  0  0  0  0  0  0  0
   56.7410   23.9730   44.5660 O   0  0  0  0  0  0  0  0  0  0  0  0
   56.5980   23.1850   43.3890 C   0  0  0  0  0  0  0  0  0  0  0  0
   56.6000   26.1180   45.6580 C   0  0  0  0  0  0  0  0  0  0  0  0
   55.8830   25.4820   46.6840 O   0  0  0  0  0  0  0  0  0  0  0  0
   56.3760   24.3950   47.4610 C   0  0  0  0  0  0  0  0  0  0  0  0
   56.8850   27.4980   45.6910 C   0  0  0  0  0  0  0  0  0  0  0  0
   58.6010   31.5300   46.3210 N   0  0  0  0  0  0  0  0  0  0  0  0
   59.4960   29.4560   48.0680 C   0  0  0  0  0  0  0  0  0  0  0  0
   59.9900   28.4340   48.8820 C   0  0  0  0  0  0  0  0  0  0  0  0
   61.3775   27.6778   52.8088 H   0  0  0  0  0  0  0  0  0  0  0  0
   62.8560   27.0775   51.9839 H   0  0  0  0  0  0  0  0  0  0  0  0
   62.4777   28.8335   51.9839 H   0  0  0  0  0  0  0  0  0  0  0  0
   61.8714   30.3042   51.0365 H   0  0  0  0  0  0  0  0  0  0  0  0
   60.9933   32.1302   49.5872 H   0  0  0  0  0  0  0  0  0  0  0  0
   60.0631   33.5358   48.6097 H   0  0  0  0  0  0  0  0  0  0  0  0
   59.1545   35.2547   47.0352 H   0  0  0  0  0  0  0  0  0  0  0  0
   56.5141   32.6094   44.1030 H   0  0  0  0  0  0  0  0  0  0  0  0
   58.0648   31.9972   43.4259 H   0  0  0  0  0  0  0  0  0  0  0  0
   58.8500   29.7970   45.0170 H   0  0  0  0  0  0  0  0  0  0  0  0
   58.6248   27.7877   42.7632 H   0  0  0  0  0  0  0  0  0  0  0  0
   58.1217   25.3517   42.6862 H   0  0  0  0  0  0  0  0  0  0  0  0
   56.4081   22.1384   43.6693 H   0  0  0  0  0  0  0  0  0  0  0  0
   55.7540   23.5642   42.7941 H   0  0  0  0  0  0  0  0  0  0  0  0
   57.5214   23.2435   42.7941 H   0  0  0  0  0  0  0  0  0  0  0  0
   56.2692   24.6304   48.5302 H   0  0  0  0  0  0  0  0  0  0  0  0
   55.8018   23.4865   47.2265 H   0  0  0  0  0  0  0  0  0  0  0  0
   57.4377   24.2285   47.2265 H   0  0  0  0  0  0  0  0  0  0  0  0
   56.5500   28.1021   46.5471 H   0  0  0  0  0  0  0  0  0  0  0  0
   58.8326   29.2093   47.2260 H   0  0  0  0  0  0  0  0  0  0  0  0
   59.7071   27.3906   48.6788 H   0  0  0  0  0  0  0  0  0  0  0  0
  1  2  1  0
  2  3  1  0
  3  4  2  0
  4  5  1  0
  5  6  2  0
  6  7  1  0
  7  8  1  0
  8  9  2  0
  9 10  1  0
 10 11  2  0
 10 12  1  0
 12 13  1  0
 13 14  1  0
 14 15  2  0
 14 16  1  0
 16 17  1  0
 17 18  2  0
 18 19  1  0
 19 20  2  0
 20 21  1  0
 21 22  1  0
 20 23  1  0
 23 24  1  0
 24 25  1  0
 23 26  2  0
 12 27  1  0
  6 28  1  0
 28 29  2  0
 29  3  1  0
 27  7  2  0
 26 17  1  0
  1 30  1  0
  1 31  1  0
  1 32  1  0
  4 33  1  0
  5 34  1  0
  8 35  1  0
  9 36  1  0
 13 37  1  0
 13 38  1  0
 16 39  1  0
 18 40  1  0
 19 41  1  0
 22 42  1  0
 22 43  1  0
 22 44  1  0
 25 45  1  0
 25 46  1  0
 25 47  1  0
 26 48  1  0
 28 49  1  0
 29 50  1  0
M  END
>  <UniqueID>  (53) 
45

>  <SMILES>  (53) 
COc1ccc(-c2ccc(=O)n(CC(=O)Nc3ccc(OC)c(OC)c3)n2)cc1

>  <Energy>  (53) 
57.58082140309036

>  <Genealogy>  (53) 
COc1ccc(-c2ccc(=O)n(CC(=O)Nc3ccc(OC)c(OC)c3)n2)cc1 (3D coordinates assigned)
COc1ccc(-c2ccc(=O)n(CC(=O)Nc3ccc(OC)c(OC)c3)n2)cc1 (optimized conformer: 57.58082140309036 kcal/mol)

>  <smiles>  (53) 
COc1ccc(-c2ccc(=O)n(CC(=O)Nc3ccc(OC)c(OC)c3)n2)cc1

>  <score_type>  (53) 
oracle

>  <origin>  (53) 
adg

>  <m_score__min__energy>  (53) 
-8.1699999999999999

>  <m_primary>  (53) 
energy

$$$$
53:0
     RDKit          3D

 44 47  0  0  0  0  0  0  0  0999 V2000
   55.9320   23.5770   43.9700 C   0  0  0  0  0  0  0  0  0  0  0  0
   55.6020   23.7970   45.3870 N   0  0  0  0  0  0  0  0  0  0  0  0
   56.7250   23.3860   46.2620 C   0  0  0  0  0  0  0  0  0  0  0  0
   58.0550   23.6050   45.5290 C   0  0  0  0  0  0  0  0  0  0  0  0
   58.5850   25.0350   45.6760 C   0  0  0  0  0  0  0  0  0  0  0  0
   57.5530   26.0190   45.3160 N   0  0  0  0  0  0  0  0  0  0  0  0
   57.8420   27.0670   44.3730 C   0  0  0  0  0  0  0  0  0  0  0  0
   58.3090   26.7780   43.2390 O   0  0  0  0  0  0  0  0  0  0  0  0
   57.5880   28.4830   44.6920 C   0  0  0  0  0  0  0  0  0  0  0  0
   56.4670   29.1320   44.3210 N   0  0  0  0  0  0  0  0  0  0  0  0
   56.5700   30.4000   44.6910 N   0  0  0  0  0  0  0  0  0  0  0  0
   57.7640   30.5720   45.2920 C   0  0  0  0  0  0  0  0  0  0  0  0
   58.4440   29.3710   45.3220 C   0  0  0  0  0  0  0  0  0  0  0  0
   59.8950   29.1930   45.6620 C   0  0  0  0  0  0  0  0  0  0  0  0
   60.4040   30.4450   46.8250 S   0  0  0  0  0  0  0  0  0  0  0  0
   60.1300   29.9740   48.2260 O   0  0  0  0  0  0  0  0  0  0  0  0
   61.8760   30.7010   46.6570 O   0  0  0  0  0  0  0  0  0  0  0  0
   59.4920   31.9180   46.5100 C   0  0  0  0  0  0  0  0  0  0  0  0
   59.9660   33.1460   46.9940 C   0  0  0  0  0  0  0  0  0  0  0  0
   59.2380   34.3170   46.7710 C   0  0  0  0  0  0  0  0  0  0  0  0
   58.0330   34.2690   46.0690 C   0  0  0  0  0  0  0  0  0  0  0  0
   57.5490   33.0490   45.5860 C   0  0  0  0  0  0  0  0  0  0  0  0
   58.2750   31.8640   45.8000 C   0  0  0  0  0  0  0  0  0  0  0  0
   56.3430   26.0930   46.1430 C   0  0  0  0  0  0  0  0  0  0  0  0
   55.2050   25.2080   45.5940 C   0  0  0  0  0  0  0  0  0  0  0  0
   56.8452   22.9682   43.8964 H   0  0  0  0  0  0  0  0  0  0  0  0
   55.1005   23.0519   43.4771 H   0  0  0  0  0  0  0  0  0  0  0  0
   56.0969   24.5465   43.4771 H   0  0  0  0  0  0  0  0  0  0  0  0
   56.7110   23.9877   47.1827 H   0  0  0  0  0  0  0  0  0  0  0  0
   56.6191   22.3211   46.5166 H   0  0  0  0  0  0  0  0  0  0  0  0
   58.8015   22.9094   45.9399 H   0  0  0  0  0  0  0  0  0  0  0  0
   57.8767   23.4261   44.4584 H   0  0  0  0  0  0  0  0  0  0  0  0
   58.8907   25.1998   46.7197 H   0  0  0  0  0  0  0  0  0  0  0  0
   59.4423   25.1624   44.9987 H   0  0  0  0  0  0  0  0  0  0  0  0
   60.0459   28.1986   46.1074 H   0  0  0  0  0  0  0  0  0  0  0  0
   60.4957   29.2849   44.7451 H   0  0  0  0  0  0  0  0  0  0  0  0
   60.9138   33.1871   47.5508 H   0  0  0  0  0  0  0  0  0  0  0  0
   59.6152   35.2786   47.1494 H   0  0  0  0  0  0  0  0  0  0  0  0
   57.4623   35.1931   45.8950 H   0  0  0  0  0  0  0  0  0  0  0  0
   56.5966   33.0163   45.0365 H   0  0  0  0  0  0  0  0  0  0  0  0
   56.5899   25.7604   47.1620 H   0  0  0  0  0  0  0  0  0  0  0  0
   55.9927   27.1357   46.1352 H   0  0  0  0  0  0  0  0  0  0  0  0
   54.3688   25.2333   46.3082 H   0  0  0  0  0  0  0  0  0  0  0  0
   54.9257   25.6133   44.6103 H   0  0  0  0  0  0  0  0  0  0  0  0
  1  2  1  0
  2  3  1  0
  3  4  1  0
  4  5  1  0
  5  6  1  0
  6  7  1  0
  7  8  2  0
  7  9  1  0
  9 10  1  0
 10 11  1  0
 11 12  2  0
 12 13  1  0
 13 14  1  0
 14 15  1  0
 15 16  2  0
 15 17  2  0
 15 18  1  0
 18 19  2  0
 19 20  1  0
 20 21  2  0
 21 22  1  0
 22 23  2  0
  6 24  1  0
 24 25  1  0
 25  2  1  0
 13  9  2  0
 23 18  1  0
 23 12  1  0
  1 26  1  0
  1 27  1  0
  1 28  1  0
  3 29  1  0
  3 30  1  0
  4 31  1  0
  4 32  1  0
  5 33  1  0
  5 34  1  0
 14 35  1  0
 14 36  1  0
 19 37  1  0
 20 38  1  0
 21 39  1  0
 22 40  1  0
 24 41  1  0
 24 42  1  0
 25 43  1  0
 25 44  1  0
M  CHG  1  10  -1
M  END
>  <UniqueID>  (54) 
46

>  <SMILES>  (54) 
CN1CCCN(C(=O)c2[n-]nc3c2CS(=O)(=O)c2ccccc2-3)CC1

>  <Energy>  (54) 
87.08910221983018

>  <Genealogy>  (54) 
CN1CCCN(C(=O)c2[n-]nc3c2CS(=O)(=O)c2ccccc2-3)CC1 (protonated)
CN1CCCN(C(=O)c2[n-]nc3c2CS(=O)(=O)c2ccccc2-3)CC1 (3D coordinates assigned)
CN1CCCN(C(=O)c2[n-]nc3c2CS(=O)(=O)c2ccccc2-3)CC1 (nonaromatic ring conformer: 87.08910221983018 kcal/mol)

>  <smiles>  (54) 
CN1CCCN(C(=O)c2[nH]nc3c2CS(=O)(=O)c2ccccc2-3)CC1

>  <score_type>  (54) 
oracle

>  <origin>  (54) 
adg

>  <m_score__min__energy>  (54) 
-8.6899999999999995

>  <m_primary>  (54) 
energy

$$$$
54:0
     RDKit          3D

 36 38  0  0  0  0  0  0  0  0999 V2000
   56.0757   21.1389   42.4567 H   0  0  0  0  0  0  0  0  0  0  0  0
   56.6280   21.4280   43.3630 C   0  0  0  0  0  0  0  0  0  0  0  0
   56.0020   21.7700   44.5200 N   0  0  0  0  0  0  0  0  0  0  0  0
   56.8870   22.0850   45.4900 C   0  0  0  0  0  0  0  0  0  0  0  0
   56.4110   22.5740   47.1420 S   0  0  0  0  0  0  0  0  0  0  0  0
   56.0550   24.2480   46.6260 C   0  0  0  0  0  0  0  0  0  0  0  0
   54.8120   24.6960   46.3520 N   0  0  0  0  0  0  0  0  0  0  0  0
   54.7900   25.9730   45.9770 N   0  0  0  0  0  0  0  0  0  0  0  0
   56.0180   26.5400   45.9590 C   0  0  0  0  0  0  0  0  0  0  0  0
   56.2600   27.7700   45.6110 N   0  0  0  0  0  0  0  0  0  0  0  0
   57.5490   28.3720   45.4150 C   0  0  0  0  0  0  0  0  0  0  0  0
   58.5650   27.6290   45.3800 O   0  0  0  0  0  0  0  0  0  0  0  0
   57.7340   29.8370   45.2890 C   0  0  0  0  0  0  0  0  0  0  0  0
   57.2400   30.5190   44.1510 C   0  0  0  0  0  0  0  0  0  0  0  0
   56.5280   29.7810   43.0460 C   0  0  0  0  0  0  0  0  0  0  0  0
   55.8270   29.0544   43.4827 H   0  0  0  0  0  0  0  0  0  0  0  0
   55.9724   30.4986   42.4245 H   0  0  0  0  0  0  0  0  0  0  0  0
   57.2651   29.2514   42.4245 H   0  0  0  0  0  0  0  0  0  0  0  0
   57.4150   31.9070   44.0440 C   0  0  0  0  0  0  0  0  0  0  0  0
   57.0527   32.4330   43.1485 H   0  0  0  0  0  0  0  0  0  0  0  0
   58.0450   32.6300   45.0630 C   0  0  0  0  0  0  0  0  0  0  0  0
   58.2460   34.1100   44.9260 C   0  0  0  0  0  0  0  0  0  0  0  0
   58.3079   34.5657   45.9253 H   0  0  0  0  0  0  0  0  0  0  0  0
   59.1787   34.3040   44.3761 H   0  0  0  0  0  0  0  0  0  0  0  0
   57.3988   34.5457   44.3761 H   0  0  0  0  0  0  0  0  0  0  0  0
   58.5490   31.9530   46.1800 C   0  0  0  0  0  0  0  0  0  0  0  0
   59.0601   32.5184   46.9731 H   0  0  0  0  0  0  0  0  0  0  0  0
   58.4100   30.5620   46.3000 C   0  0  0  0  0  0  0  0  0  0  0  0
   58.9640   29.8770   47.5240 C   0  0  0  0  0  0  0  0  0  0  0  0
   58.5694   30.3649   48.4274 H   0  0  0  0  0  0  0  0  0  0  0  0
   58.6650   28.8184   47.5187 H   0  0  0  0  0  0  0  0  0  0  0  0
   60.0617   29.9480   47.5187 H   0  0  0  0  0  0  0  0  0  0  0  0
   57.2170   25.4490   46.4090 S   0  0  0  0  0  0  0  0  0  0  0  0
   58.4730   21.9540   44.9540 S   0  0  0  0  0  0  0  0  0  0  0  0
   58.0170   21.4700   43.4080 C   0  0  0  0  0  0  0  0  0  0  0  0
   58.6983   21.2291   42.5787 H   0  0  0  0  0  0  0  0  0  0  0  0
  1  2  1  0
  2  3  1  0
  3  4  2  0
  4  5  1  0
  5  6  1  0
  6  7  2  0
  7  8  1  0
  8  9  1  0
  9 10  2  0
 10 11  1  0
 11 12  2  0
 11 13  1  0
 13 14  2  0
 14 15  1  0
 15 16  1  0
 15 17  1  0
 15 18  1  0
 14 19  1  0
 19 20  1  0
 19 21  2  0
 21 22  1  0
 22 23  1  0
 22 24  1  0
 22 25  1  0
 21 26  1  0
 26 27  1  0
 26 28  2  0
 28 29  1  0
 29 30  1  0
 29 31  1  0
 29 32  1  0
  9 33  1  0
  4 34  1  0
 34 35  1  0
 35 36  1  0
 35  2  2  0
 33  6  1  0
 28 13  1  0
M  CHG  1   8  -1
M  END
>  <UniqueID>  (55) 
47

>  <SMILES>  (55) 
Cc1cc(C)c(C(=O)/N=c2\[n-]nc(Sc3nccs3)s2)c(C)c1

>  <Energy>  (55) 
108.09352619343144

>  <Genealogy>  (55) 
Cc1cc(C)c(C(=O)N=c2[n-]nc(Sc3nccs3)s2)c(C)c1 (protonated)
Cc1cc(C)c(C(=O)/N=c2\[n-]nc(Sc3nccs3)s2)c(C)c1 (cis-trans isomerization)
Cc1cc(C)c(C(=O)/N=c2\[n-]nc(Sc3nccs3)s2)c(C)c1 (3D coordinates assigned)
Cc1cc(C)c(C(=O)/N=c2\[n-]nc(Sc3nccs3)s2)c(C)c1 (optimized conformer: 108.09352619343144 kcal/mol)

>  <smiles>  (55) 
Cc1cc(C)c(C(=O)N=c2[nH]nc(Sc3nccs3)s2)c(C)c1

>  <score_type>  (55) 
oracle

>  <origin>  (55) 
adg

>  <m_score__min__energy>  (55) 
-10.35

>  <m_primary>  (55) 
energy

$$$$
55:0
     RDKit          3D

 55 58  0  0  0  0  0  0  0  0999 V2000
   63.0580   33.6550   49.3360 C   0  0  0  0  0  0  0  0  0  0  0  0
   62.9670   33.8460   47.9550 C   0  0  0  0  0  0  0  0  0  0  0  0
   62.5950   32.7850   47.1230 C   0  0  0  0  0  0  0  0  0  0  0  0
   62.3080   31.5260   47.6660 C   0  0  0  0  0  0  0  0  0  0  0  0
   61.9600   30.4790   46.8000 O   0  0  0  0  0  0  0  0  0  0  0  0
   60.7230   29.8190   46.8000 C   0  0  0  0  0  0  0  0  0  0  0  0
   60.4510   28.8890   47.8090 C   0  0  0  0  0  0  0  0  0  0  0  0
   59.2150   28.2370   47.8500 C   0  0  0  0  0  0  0  0  0  0  0  0
   58.2510   28.4980   46.8740 C   0  0  0  0  0  0  0  0  0  0  0  0
   58.5250   29.3960   45.8300 C   0  0  0  0  0  0  0  0  0  0  0  0
   57.4690   29.7010   44.8020 C   0  0  0  0  0  0  0  0  0  0  0  0
   56.6700   30.8540   45.2370 N   0  0  0  0  0  0  0  0  0  0  0  0
   57.0320   32.0790   44.5100 C   0  0  0  0  0  0  0  0  0  0  0  0
   57.9150   32.9270   45.3770 C   0  0  0  0  0  0  0  0  0  0  0  0
   58.4830   34.1090   44.8890 C   0  0  0  0  0  0  0  0  0  0  0  0
   59.2760   34.8880   45.7340 C   0  0  0  0  0  0  0  0  0  0  0  0
   59.4950   34.4970   47.0180 N   0  0  0  0  0  0  0  0  0  0  0  0
   58.9620   33.3510   47.5240 C   0  0  0  0  0  0  0  0  0  0  0  0
   59.2110   32.9920   48.8950 N   0  0  0  0  0  0  0  0  0  0  0  0
   59.7000   34.0190   49.8280 C   0  0  0  0  0  0  0  0  0  0  0  0
   59.6630   33.5240   51.2810 C   0  0  0  0  0  0  0  0  0  0  0  0
   58.3550   32.7680   51.5530 C   0  0  0  0  0  0  0  0  0  0  0  0
   58.1530   31.5630   50.6060 C   0  0  0  0  0  0  0  0  0  0  0  0
   59.0590   31.6080   49.3660 C   0  0  0  0  0  0  0  0  0  0  0  0
   58.1380   32.5580   46.7110 C   0  0  0  0  0  0  0  0  0  0  0  0
   59.7670   30.0520   45.7970 C   0  0  0  0  0  0  0  0  0  0  0  0
   62.4170   31.3370   49.0570 C   0  0  0  0  0  0  0  0  0  0  0  0
   62.7870   32.3990   49.8870 C   0  0  0  0  0  0  0  0  0  0  0  0
   63.3428   34.4926   49.9896 H   0  0  0  0  0  0  0  0  0  0  0  0
   63.1883   34.8324   47.5213 H   0  0  0  0  0  0  0  0  0  0  0  0
   62.5274   32.9401   46.0361 H   0  0  0  0  0  0  0  0  0  0  0  0
   61.2120   28.6700   48.5725 H   0  0  0  0  0  0  0  0  0  0  0  0
   59.0013   27.5165   48.6532 H   0  0  0  0  0  0  0  0  0  0  0  0
   57.2725   27.9978   46.9233 H   0  0  0  0  0  0  0  0  0  0  0  0
   57.9511   29.9325   43.8408 H   0  0  0  0  0  0  0  0  0  0  0  0
   56.8118   28.8266   44.6858 H   0  0  0  0  0  0  0  0  0  0  0  0
   55.6610   30.6490   45.0410 H   0  0  0  0  0  0  0  0  0  0  0  0
   57.5686   31.8137   43.5871 H   0  0  0  0  0  0  0  0  0  0  0  0
   56.1203   32.6385   44.2534 H   0  0  0  0  0  0  0  0  0  0  0  0
   58.3064   34.4217   43.8493 H   0  0  0  0  0  0  0  0  0  0  0  0
   59.7247   35.8202   45.3602 H   0  0  0  0  0  0  0  0  0  0  0  0
   60.7365   34.2766   49.5646 H   0  0  0  0  0  0  0  0  0  0  0  0
   59.0447   34.8987   49.7467 H   0  0  0  0  0  0  0  0  0  0  0  0
   60.5147   32.8504   51.4567 H   0  0  0  0  0  0  0  0  0  0  0  0
   59.7225   34.3906   51.9559 H   0  0  0  0  0  0  0  0  0  0  0  0
   58.3697   32.4017   52.5901 H   0  0  0  0  0  0  0  0  0  0  0  0
   57.5248   33.4686   51.3801 H   0  0  0  0  0  0  0  0  0  0  0  0
   58.3697   30.6400   51.1638 H   0  0  0  0  0  0  0  0  0  0  0  0
   57.1123   31.5973   50.2514 H   0  0  0  0  0  0  0  0  0  0  0  0
   60.0481   31.2020   49.6244 H   0  0  0  0  0  0  0  0  0  0  0  0
   58.6016   31.0063   48.5668 H   0  0  0  0  0  0  0  0  0  0  0  0
   57.6689   31.6504   47.1187 H   0  0  0  0  0  0  0  0  0  0  0  0
   59.9926   30.7531   44.9800 H   0  0  0  0  0  0  0  0  0  0  0  0
   62.2099   30.3485   49.4928 H   0  0  0  0  0  0  0  0  0  0  0  0
   62.8650   32.2466   50.9736 H   0  0  0  0  0  0  0  0  0  0  0  0
  1  2  2  0
  2  3  1  0
  3  4  2  0
  4  5  1  0
  5  6  1  0
  6  7  2  0
  7  8  1  0
  8  9  2  0
  9 10  1  0
 10 11  1  0
 11 12  1  0
 12 13  1  0
 13 14  1  0
 14 15  2  0
 15 16  1  0
 16 17  2  0
 17 18  1  0
 18 19  1  0
 19 20  1  0
 20 21  1  0
 21 22  1  0
 22 23  1  0
 23 24  1  0
 18 25  2  0
 10 26  2  0
  4 27  1  0
 27 28  2  0
 28  1  1  0
 26  6  1  0
 25 14  1  0
 24 19  1  0
  1 29  1  0
  2 30  1  0
  3 31  1  0
  7 32  1  0
  8 33  1  0
  9 34  1  0
 11 35  1  0
 11 36  1  0
 12 37  1  0
 13 38  1  0
 13 39  1  0
 15 40  1  0
 16 41  1  0
 20 42  1  0
 20 43  1  0
 21 44  1  0
 21 45  1  0
 22 46  1  0
 22 47  1  0
 23 48  1  0
 23 49  1  0
 24 50  1  0
 24 51  1  0
 25 52  1  0
 26 53  1  0
 27 54  1  0
 28 55  1  0
M  END
>  <UniqueID>  (56) 
48

>  <SMILES>  (56) 
c1ccc(Oc2cccc(CNCc3ccnc(N4CCCCC4)c3)c2)cc1

>  <Energy>  (56) 
65.43451699121616

>  <Genealogy>  (56) 
c1ccc(Oc2cccc(CNCc3ccnc(N4CCCCC4)c3)c2)cc1 (3D coordinates assigned)
c1ccc(Oc2cccc(CNCc3ccnc(N4CCCCC4)c3)c2)cc1 (nonaromatic ring conformer: 65.43451699121616 kcal/mol)

>  <smiles>  (56) 
c1ccc(Oc2cccc(CNCc3ccnc(N4CCCCC4)c3)c2)cc1

>  <score_type>  (56) 
oracle

>  <origin>  (56) 
adg

>  <m_score__min__energy>  (56) 
-8.5800000000000001

>  <m_primary>  (56) 
energy

$$$$
56:0
     RDKit          3D

 45 47  0  0  0  0  0  0  0  0999 V2000
   59.1320   35.0920   44.8610 N   0  0  0  0  0  0  0  0  0  0  0  0
   58.2090   34.5110   45.2480 C   0  0  0  0  0  0  0  0  0  0  0  0
   57.0380   33.7750   45.7380 C   0  0  0  0  0  0  0  0  0  0  0  0
   57.4410   32.7370   46.6290 O   0  0  0  0  0  0  0  0  0  0  0  0
   58.7690   32.3540   46.8940 C   0  0  0  0  0  0  0  0  0  0  0  0
   59.6360   33.1560   47.6650 C   0  0  0  0  0  0  0  0  0  0  0  0
   60.9420   32.7380   47.9250 C   0  0  0  0  0  0  0  0  0  0  0  0
   61.3990   31.5180   47.4250 C   0  0  0  0  0  0  0  0  0  0  0  0
   60.5530   30.7150   46.6590 C   0  0  0  0  0  0  0  0  0  0  0  0
   59.2420   31.1320   46.3770 C   0  0  0  0  0  0  0  0  0  0  0  0
   58.1910   30.0920   45.4090 S   0  0  0  0  0  0  0  0  0  0  0  0
   58.9450   29.5690   44.2170 O   0  0  0  0  0  0  0  0  0  0  0  0
   57.0180   30.9070   44.9360 O   0  0  0  0  0  0  0  0  0  0  0  0
   57.6250   28.7420   46.3650 N   0  0  0  0  0  0  0  0  0  0  0  0
   58.5200   28.4980   47.5270 C   0  0  0  0  0  0  0  0  0  0  0  0
   59.4350   27.2780   47.3430 C   0  0  0  0  0  0  0  0  0  0  0  0
   58.6170   25.9980   47.1060 C   0  0  0  0  0  0  0  0  0  0  0  0
   57.3080   26.2710   46.3250 C   0  0  2  0  0  0  0  0  0  0  0  0
   56.9270   25.1110   45.4810 N   0  0  0  0  0  0  0  0  0  0  0  0
   57.9030   24.3220   44.9300 C   0  0  0  0  0  0  0  0  0  0  0  0
   57.5740   23.2300   44.1320 C   0  0  0  0  0  0  0  0  0  0  0  0
   56.2320   22.9520   43.9060 C   0  0  0  0  0  0  0  0  0  0  0  0
   55.9040   21.9710   43.1870 O   0  0  0  0  0  0  0  0  0  0  0  0
   55.2760   23.7390   44.4630 N   0  0  0  0  0  0  0  0  0  0  0  0
   55.6070   24.8060   45.2430 C   0  0  0  0  0  0  0  0  0  0  0  0
   54.6820   25.5050   45.7420 O   0  0  0  0  0  0  0  0  0  0  0  0
   57.4140   27.5640   45.4950 C   0  0  0  0  0  0  0  0  0  0  0  0
   56.3695   34.4690   46.2686 H   0  0  0  0  0  0  0  0  0  0  0  0
   56.5139   33.3266   44.8811 H   0  0  0  0  0  0  0  0  0  0  0  0
   59.2805   34.1174   48.0641 H   0  0  0  0  0  0  0  0  0  0  0  0
   61.6121   33.3712   48.5250 H   0  0  0  0  0  0  0  0  0  0  0  0
   62.4274   31.1889   47.6349 H   0  0  0  0  0  0  0  0  0  0  0  0
   60.9150   29.7502   46.2740 H   0  0  0  0  0  0  0  0  0  0  0  0
   59.1497   29.3876   47.6756 H   0  0  0  0  0  0  0  0  0  0  0  0
   57.8774   28.2954   48.3965 H   0  0  0  0  0  0  0  0  0  0  0  0
   60.0913   27.4495   46.4771 H   0  0  0  0  0  0  0  0  0  0  0  0
   60.0279   27.1467   48.2602 H   0  0  0  0  0  0  0  0  0  0  0  0
   59.2300   25.2882   46.5312 H   0  0  0  0  0  0  0  0  0  0  0  0
   58.3421   25.5884   48.0892 H   0  0  0  0  0  0  0  0  0  0  0  0
   56.5045   26.4156   47.0622 H   0  0  0  0  0  0  0  0  0  0  0  0
   58.9609   24.5550   45.1211 H   0  0  0  0  0  0  0  0  0  0  0  0
   58.3602   22.6005   43.6897 H   0  0  0  0  0  0  0  0  0  0  0  0
   54.2670   23.5220   44.2890 H   0  0  0  0  0  0  0  0  0  0  0  0
   58.2614   27.4754   44.7992 H   0  0  0  0  0  0  0  0  0  0  0  0
   56.4723   27.7023   44.9435 H   0  0  0  0  0  0  0  0  0  0  0  0
  1  2  3  0
  2  3  1  0
  3  4  1  0
  4  5  1  0
  5  6  2  0
  6  7  1  0
  7  8  2  0
  8  9  1  0
  9 10  2  0
 10 11  1  0
 11 12  2  0
 11 13  2  0
 11 14  1  0
 14 15  1  0
 15 16  1  0
 16 17  1  0
 17 18  1  0
 18 19  1  0
 19 20  1  0
 20 21  2  0
 21 22  1  0
 22 23  2  0
 22 24  1  0
 24 25  1  0
 25 26  2  0
 18 27  1  0
 10  5  1  0
 27 14  1  0
 25 19  1  0
  3 28  1  0
  3 29  1  0
  6 30  1  0
  7 31  1  0
  8 32  1  0
  9 33  1  0
 15 34  1  0
 15 35  1  0
 16 36  1  0
 16 37  1  0
 17 38  1  0
 17 39  1  0
 18 40  1  1
 20 41  1  0
 21 42  1  0
 24 43  1  0
 27 44  1  0
 27 45  1  0
M  END
>  <UniqueID>  (57) 
49

>  <SMILES>  (57) 
N#CCOc1ccccc1S(=O)(=O)N1CCC[C@H](n2ccc(=O)[nH]c2=O)C1

>  <Energy>  (57) 
57.789304746421784

>  <Genealogy>  (57) 
N#CCOc1ccccc1S(=O)(=O)N1CCC[C@H](n2ccc(=O)[nH]c2=O)C1 (chirality)
N#CCOc1ccccc1S(=O)(=O)N1CCC[C@H](n2ccc(=O)[nH]c2=O)C1 (3D coordinates assigned)
N#CCOc1ccccc1S(=O)(=O)N1CCC[C@H](n2ccc(=O)[nH]c2=O)C1 (nonaromatic ring conformer: 57.789304746421784 kcal/mol)

>  <smiles>  (57) 
N#CCOc1ccccc1S(=O)(=O)N1CCCC(n2ccc(=O)[nH]c2=O)C1

>  <score_type>  (57) 
oracle

>  <origin>  (57) 
adg

>  <m_score__min__energy>  (57) 
-8.7300000000000004

>  <m_primary>  (57) 
energy

$$$$
57:0
     RDKit          3D

 28 30  0  0  0  0  0  0  0  0999 V2000
   55.1420   29.3310   44.8840 N   0  0  0  0  0  0  0  0  0  0  0  0
   56.3380   28.5730   45.0600 C   0  0  0  0  0  0  0  0  0  0  0  0
   56.3100   27.5250   45.7580 O   0  0  0  0  0  0  0  0  0  0  0  0
   57.6210   28.9790   44.3780 C   0  0  2  0  0  0  0  0  0  0  0  0
   58.6140   29.6960   45.3340 C   0  0  0  0  0  0  0  0  0  0  0  0
   58.2800   31.1490   45.4320 C   0  0  0  0  0  0  0  0  0  0  0  0
   57.4750   31.8100   44.5310 C   0  0  0  0  0  0  0  0  0  0  0  0
   57.3780   33.1260   44.8310 N   0  0  0  0  0  0  0  0  0  0  0  0
   58.1600   33.2970   45.9160 C   0  0  0  0  0  0  0  0  0  0  0  0
   58.4070   34.4850   46.6010 C   0  0  0  0  0  0  0  0  0  0  0  0
   59.2710   34.4370   47.7120 C   0  0  0  0  0  0  0  0  0  0  0  0
   59.8620   33.2150   48.1090 C   0  0  0  0  0  0  0  0  0  0  0  0
   59.5950   32.0290   47.4000 C   0  0  0  0  0  0  0  0  0  0  0  0
   58.7350   32.1090   46.3070 C   0  0  0  0  0  0  0  0  0  0  0  0
   56.7350   31.1000   43.4420 C   0  0  0  0  0  0  0  0  0  0  0  0
   57.3370   29.7800   43.1610 N   0  0  0  0  0  0  0  0  0  0  0  0
   54.4020   29.3450   45.6210 H   0  0  0  0  0  0  0  0  0  0  0  0
   58.1293   28.0549   44.0656 H   0  0  0  0  0  0  0  0  0  0  0  0
   58.5492   29.2404   46.3331 H   0  0  0  0  0  0  0  0  0  0  0  0
   59.6343   29.5888   44.9370 H   0  0  0  0  0  0  0  0  0  0  0  0
   56.8170   33.8510   44.3320 H   0  0  0  0  0  0  0  0  0  0  0  0
   57.9420   35.4301   46.2841 H   0  0  0  0  0  0  0  0  0  0  0  0
   59.4878   35.3567   48.2752 H   0  0  0  0  0  0  0  0  0  0  0  0
   60.5354   33.1914   48.9785 H   0  0  0  0  0  0  0  0  0  0  0  0
   60.0493   31.0727   47.6983 H   0  0  0  0  0  0  0  0  0  0  0  0
   55.6889   30.9589   43.7516 H   0  0  0  0  0  0  0  0  0  0  0  0
   56.7895   31.7099   42.5282 H   0  0  0  0  0  0  0  0  0  0  0  0
   58.2390   29.9320   42.6510 H   0  0  0  0  0  0  0  0  0  0  0  0
  1  2  1  0
  2  3  2  0
  2  4  1  0
  4  5  1  0
  5  6  1  0
  6  7  2  0
  7  8  1  0
  8  9  1  0
  9 10  2  0
 10 11  1  0
 11 12  2  0
 12 13  1  0
 13 14  2  0
  7 15  1  0
 15 16  1  0
 16  4  1  0
 14  6  1  0
 14  9  1  0
  1 17  1  0
  4 18  1  6
  5 19  1  0
  5 20  1  0
  8 21  1  0
 10 22  1  0
 11 23  1  0
 12 24  1  0
 13 25  1  0
 15 26  1  0
 15 27  1  0
 16 28  1  0
M  CHG  1   1  -1
M  END
>  <UniqueID>  (58) 
50

>  <SMILES>  (58) 
[NH-]C(=O)[C@@H]1Cc2c([nH]c3ccccc23)CN1

>  <Energy>  (58) 
67.8546616213297

>  <Genealogy>  (58) 
[NH-]C(=O)C1Cc2c([nH]c3ccccc23)CN1 (protonated)
[NH-]C(=O)[C@@H]1Cc2c([nH]c3ccccc23)CN1 (chirality)
[NH-]C(=O)[C@@H]1Cc2c([nH]c3ccccc23)CN1 (3D coordinates assigned)
[NH-]C(=O)[C@@H]1Cc2c([nH]c3ccccc23)CN1 (nonaromatic ring conformer: 67.8546616213297 kcal/mol)

>  <smiles>  (58) 
NC(=O)C1Cc2c([nH]c3ccccc23)CN1

>  <score_type>  (58) 
oracle

>  <origin>  (58) 
adg

>  <m_score__min__energy>  (58) 
-10.41

>  <m_primary>  (58) 
energy

$$$$
58:0
     RDKit          3D

 61 65  0  0  0  0  0  0  0  0999 V2000
   63.9072   33.3707   45.7168 H   0  0  0  0  0  0  0  0  0  0  0  0
   63.5450   33.1130   46.7230 C   0  0  0  0  0  0  0  0  0  0  0  0
   63.3020   31.7790   47.0580 C   0  0  0  0  0  0  0  0  0  0  0  0
   63.4895   30.9852   46.3200 H   0  0  0  0  0  0  0  0  0  0  0  0
   62.8210   31.4500   48.3290 C   0  0  0  0  0  0  0  0  0  0  0  0
   62.6412   30.3975   48.5932 H   0  0  0  0  0  0  0  0  0  0  0  0
   62.5680   32.4600   49.2660 C   0  0  0  0  0  0  0  0  0  0  0  0
   61.9320   32.0410   50.8890 S   0  0  0  0  0  0  0  0  0  0  0  0
   63.5600   31.6050   51.5260 C   0  0  0  0  0  0  0  0  0  0  0  0
   64.4820   32.6440   51.7110 C   0  0  0  0  0  0  0  0  0  0  0  0
   64.1818   33.6818   51.5041 H   0  0  0  0  0  0  0  0  0  0  0  0
   65.7770   32.3750   52.1550 C   0  0  0  0  0  0  0  0  0  0  0  0
   66.4867   33.2003   52.3139 H   0  0  0  0  0  0  0  0  0  0  0  0
   66.1710   31.0610   52.3970 C   0  0  0  0  0  0  0  0  0  0  0  0
   67.1995   30.8471   52.7232 H   0  0  0  0  0  0  0  0  0  0  0  0
   65.2620   30.0150   52.2260 C   0  0  0  0  0  0  0  0  0  0  0  0
   65.5900   28.9787   52.3946 H   0  0  0  0  0  0  0  0  0  0  0  0
   63.9250   30.2690   51.8390 C   0  0  0  0  0  0  0  0  0  0  0  0
   62.9930   29.1700   51.6620 N   0  0  0  0  0  0  0  0  0  0  0  0
   63.4560   28.3000   52.0080 H   0  0  0  0  0  0  0  0  0  0  0  0
   62.7690   29.0030   50.6560 H   0  0  0  0  0  0  0  0  0  0  0  0
   61.7420   29.3860   52.3630 C   0  0  0  0  0  0  0  0  0  0  0  0
   61.7710   29.8880   53.6790 C   0  0  0  0  0  0  0  0  0  0  0  0
   62.7370   30.1329   54.1447 H   0  0  0  0  0  0  0  0  0  0  0  0
   60.5920   30.0790   54.4000 C   0  0  0  0  0  0  0  0  0  0  0  0
   60.6330   30.4766   55.4248 H   0  0  0  0  0  0  0  0  0  0  0  0
   59.3640   29.7670   53.8240 C   0  0  0  0  0  0  0  0  0  0  0  0
   58.4354   29.9174   54.3942 H   0  0  0  0  0  0  0  0  0  0  0  0
   59.3100   29.2640   52.5250 C   0  0  0  0  0  0  0  0  0  0  0  0
   58.3350   29.0228   52.0764 H   0  0  0  0  0  0  0  0  0  0  0  0
   60.4850   29.0610   51.7810 C   0  0  0  0  0  0  0  0  0  0  0  0
   60.3600   28.4920   50.4190 C   0  0  0  0  0  0  0  0  0  0  0  0
   61.2100   27.6620   50.0090 O   0  0  0  0  0  0  0  0  0  0  0  0
   59.3560   28.9550   49.5020 N   0  0  0  0  0  0  0  0  0  0  0  0
   59.3440   30.2260   48.8360 C   0  0  0  0  0  0  0  0  0  0  0  0
   59.7450   30.2920   47.4970 C   0  0  0  0  0  0  0  0  0  0  0  0
   60.0600   29.3763   46.9752 H   0  0  0  0  0  0  0  0  0  0  0  0
   59.7480   31.5140   46.8180 C   0  0  0  0  0  0  0  0  0  0  0  0
   60.0826   31.5588   45.7711 H   0  0  0  0  0  0  0  0  0  0  0  0
   59.3260   32.6820   47.4670 C   0  0  0  0  0  0  0  0  0  0  0  0
   59.3400   34.2310   46.6290 S   0  0  0  0  0  0  0  0  0  0  0  0
   59.0020   35.3340   47.5930 O   0  0  0  0  0  0  0  0  0  0  0  0
   60.7110   34.4690   46.0600 O   0  0  0  0  0  0  0  0  0  0  0  0
   58.1630   34.1830   45.3510 N   0  0  0  0  0  0  0  0  0  0  0  0
   57.7780   33.1270   44.6940 C   0  0  0  0  0  0  0  0  0  0  0  0
   56.9550   32.2400   45.3150 N   0  0  0  0  0  0  0  0  0  0  0  0
   56.5150   31.1370   44.7030 N   0  0  0  0  0  0  0  0  0  0  0  0
   56.8700   30.8450   43.4260 C   0  0  0  0  0  0  0  0  0  0  0  0
   56.2680   29.3880   42.6600 Cl  0  0  0  0  0  0  0  0  0  0  0  0
   57.7140   31.7120   42.7340 C   0  0  0  0  0  0  0  0  0  0  0  0
   58.0136   31.4893   41.6993 H   0  0  0  0  0  0  0  0  0  0  0  0
   58.1740   32.8650   43.3690 C   0  0  0  0  0  0  0  0  0  0  0  0
   58.8396   33.5628   42.8398 H   0  0  0  0  0  0  0  0  0  0  0  0
   58.9010   32.6160   48.8010 C   0  0  0  0  0  0  0  0  0  0  0  0
   58.5677   33.5293   49.3157 H   0  0  0  0  0  0  0  0  0  0  0  0
   58.8990   31.3940   49.4800 C   0  0  0  0  0  0  0  0  0  0  0  0
   58.5482   31.3461   50.5214 H   0  0  0  0  0  0  0  0  0  0  0  0
   62.8370   33.7950   48.9370 C   0  0  0  0  0  0  0  0  0  0  0  0
   62.6618   34.5881   49.6789 H   0  0  0  0  0  0  0  0  0  0  0  0
   63.3270   34.1230   47.6700 C   0  0  0  0  0  0  0  0  0  0  0  0
   63.5412   35.1717   47.4165 H   0  0  0  0  0  0  0  0  0  0  0  0
  1  2  1  0
  2  3  2  0
  3  4  1  0
  3  5  1  0
  5  6  1  0
  5  7  2  0
  7  8  1  0
  8  9  1  0
  9 10  2  0
 10 11  1  0
 10 12  1  0
 12 13  1  0
 12 14  2  0
 14 15  1  0
 14 16  1  0
 16 17  1  0
 16 18  2  0
 18 19  1  0
 19 20  1  0
 19 21  1  0
 19 22  1  0
 22 23  2  0
 23 24  1  0
 23 25  1  0
 25 26  1  0
 25 27  2  0
 27 28  1  0
 27 29  1  0
 29 30  1  0
 29 31  2  0
 31 32  1  0
 32 33  2  0
 32 34  1  0
 34 35  1  0
 35 36  2  0
 36 37  1  0
 36 38  1  0
 38 39  1  0
 38 40  2  0
 40 41  1  0
 41 42  2  0
 41 43  2  0
 41 44  1  0
 44 45  2  0
 45 46  1  0
 46 47  1  0
 47 48  2  0
 48 49  1  0
 48 50  1  0
 50 51  1  0
 50 52  2  0
 52 53  1  0
 40 54  1  0
 54 55  1  0
 54 56  2  0
 56 57  1  0
  7 58  1  0
 58 59  1  0
 58 60  2  0
 60 61  1  0
 60  2  1  0
 18  9  1  0
 31 22  1  0
 56 35  1  0
 52 45  1  0
M  CHG  3  19   1  34  -1  46  -1
M  END
>  <UniqueID>  (59) 
51

>  <SMILES>  (59) 
O=C([N-]c1ccc(S(=O)(=O)/N=c2\ccc(Cl)n[n-]2)cc1)c1ccccc1[NH2+]c1ccccc1Sc1ccccc1

>  <Energy>  (59) 
86.52477460775937

>  <Genealogy>  (59) 
O=C([N-]c1ccc(S(=O)(=O)N=c2ccc(Cl)n[n-]2)cc1)c1ccccc1[NH2+]c1ccccc1Sc1ccccc1 (protonated)
O=C([N-]c1ccc(S(=O)(=O)/N=c2\ccc(Cl)n[n-]2)cc1)c1ccccc1[NH2+]c1ccccc1Sc1ccccc1 (cis-trans isomerization)
O=C([N-]c1ccc(S(=O)(=O)/N=c2\ccc(Cl)n[n-]2)cc1)c1ccccc1[NH2+]c1ccccc1Sc1ccccc1 (3D coordinates assigned)
O=C([N-]c1ccc(S(=O)(=O)/N=c2\ccc(Cl)n[n-]2)cc1)c1ccccc1[NH2+]c1ccccc1Sc1ccccc1 (optimized conformer: 86.52477460775937 kcal/mol)

>  <smiles>  (59) 
O=C(Nc1ccc(S(=O)(=O)N=c2ccc(Cl)n[nH]2)cc1)c1ccccc1Nc1ccccc1Sc1ccccc1

>  <score_type>  (59) 
oracle

>  <origin>  (59) 
adg

>  <m_score__min__energy>  (59) 
-13.26

>  <m_primary>  (59) 
energy

$$$$
59:0
     RDKit          3D

 50 52  0  0  0  0  0  0  0  0999 V2000
   50.0540   22.9540   49.5640 C   0  0  0  0  0  0  0  0  0  0  0  0
   50.9690   21.8620   49.5960 O   0  0  0  0  0  0  0  0  0  0  0  0
   52.2250   21.8610   48.9670 C   0  0  0  0  0  0  0  0  0  0  0  0
   52.4550   21.1750   47.7610 C   0  0  0  0  0  0  0  0  0  0  0  0
   53.7160   21.1910   47.1660 C   0  0  0  0  0  0  0  0  0  0  0  0
   54.7750   21.8940   47.7610 C   0  0  0  0  0  0  0  0  0  0  0  0
   56.1080   21.9240   47.1160 C   0  0  0  0  0  0  0  0  0  0  0  0
   57.1460   22.0830   47.8150 O   0  0  0  0  0  0  0  0  0  0  0  0
   56.2160   21.7710   45.6980 N   0  0  0  0  0  0  0  0  0  0  0  0
   55.5530   22.8740   44.5350 S   0  0  0  0  0  0  0  0  0  0  0  0
   55.8680   22.4200   43.1370 O   0  0  0  0  0  0  0  0  0  0  0  0
   54.0600   22.9360   44.6960 O   0  0  0  0  0  0  0  0  0  0  0  0
   56.2540   24.4570   44.8400 C   0  0  0  0  0  0  0  0  0  0  0  0
   57.2730   24.9230   43.9990 C   0  0  0  0  0  0  0  0  0  0  0  0
   57.7700   26.2190   44.1490 C   0  0  0  0  0  0  0  0  0  0  0  0
   57.2430   27.0690   45.1380 C   0  0  0  0  0  0  0  0  0  0  0  0
   57.6650   28.4330   45.2590 N   0  0  0  0  0  0  0  0  0  0  0  0
   56.8460   29.7670   44.5150 S   0  0  0  0  0  0  0  0  0  0  0  0
   55.3880   29.7170   44.8810 O   0  0  0  0  0  0  0  0  0  0  0  0
   56.9850   29.6680   43.0230 O   0  0  0  0  0  0  0  0  0  0  0  0
   57.5780   31.2750   45.0600 C   0  0  0  0  0  0  0  0  0  0  0  0
   58.3620   31.3120   46.2220 C   0  0  0  0  0  0  0  0  0  0  0  0
   58.9860   32.5030   46.6090 C   0  0  0  0  0  0  0  0  0  0  0  0
   58.8370   33.6590   45.8320 C   0  0  0  0  0  0  0  0  0  0  0  0
   59.6450   35.1440   46.3020 Cl  0  0  0  0  0  0  0  0  0  0  0  0
   58.0510   33.6250   44.6770 C   0  0  0  0  0  0  0  0  0  0  0  0
   57.4180   32.4390   44.2940 C   0  0  0  0  0  0  0  0  0  0  0  0
   56.2540   26.5850   46.0050 C   0  0  0  0  0  0  0  0  0  0  0  0
   55.7500   25.2900   45.8490 C   0  0  0  0  0  0  0  0  0  0  0  0
   54.5450   22.5850   48.9630 C   0  0  0  0  0  0  0  0  0  0  0  0
   53.2740   22.5680   49.5720 C   0  0  0  0  0  0  0  0  0  0  0  0
   53.0160   23.2390   50.7790 O   0  0  0  0  0  0  0  0  0  0  0  0
   52.9950   22.6160   52.0600 C   0  0  0  0  0  0  0  0  0  0  0  0
   49.8036   23.2528   50.5926 H   0  0  0  0  0  0  0  0  0  0  0  0
   50.5145   23.8029   49.0374 H   0  0  0  0  0  0  0  0  0  0  0  0
   49.1376   22.6492   49.0374 H   0  0  0  0  0  0  0  0  0  0  0  0
   51.6334   20.6213   47.2832 H   0  0  0  0  0  0  0  0  0  0  0  0
   53.8819   20.6487   46.2235 H   0  0  0  0  0  0  0  0  0  0  0  0
   57.6828   24.2657   43.2180 H   0  0  0  0  0  0  0  0  0  0  0  0
   58.5763   26.5765   43.4916 H   0  0  0  0  0  0  0  0  0  0  0  0
   58.4866   30.4037   46.8299 H   0  0  0  0  0  0  0  0  0  0  0  0
   59.5946   32.5316   47.5249 H   0  0  0  0  0  0  0  0  0  0  0  0
   57.9302   34.5332   44.0682 H   0  0  0  0  0  0  0  0  0  0  0  0
   56.7926   32.4185   43.3893 H   0  0  0  0  0  0  0  0  0  0  0  0
   55.8722   27.2271   46.8124 H   0  0  0  0  0  0  0  0  0  0  0  0
   54.9574   24.9245   46.5185 H   0  0  0  0  0  0  0  0  0  0  0  0
   55.3661   23.1454   49.4338 H   0  0  0  0  0  0  0  0  0  0  0  0
   53.0210   23.3877   52.8435 H   0  0  0  0  0  0  0  0  0  0  0  0
   52.0763   22.0199   52.1628 H   0  0  0  0  0  0  0  0  0  0  0  0
   53.8715   21.9594   52.1628 H   0  0  0  0  0  0  0  0  0  0  0  0
  1  2  1  0
  2  3  1  0
  3  4  2  0
  4  5  1  0
  5  6  2  0
  6  7  1  0
  7  8  2  0
  7  9  1  0
  9 10  1  0
 10 11  2  0
 10 12  2  0
 10 13  1  0
 13 14  2  0
 14 15  1  0
 15 16  2  0
 16 17  1  0
 17 18  1  0
 18 19  2  0
 18 20  2  0
 18 21  1  0
 21 22  2  0
 22 23  1  0
 23 24  2  0
 24 25  1  0
 24 26  1  0
 26 27  2  0
 16 28  1  0
 28 29  2  0
  6 30  1  0
 30 31  2  0
 31 32  1  0
 32 33  1  0
 31  3  1  0
 29 13  1  0
 27 21  1  0
  1 34  1  0
  1 35  1  0
  1 36  1  0
  4 37  1  0
  5 38  1  0
 14 39  1  0
 15 40  1  0
 22 41  1  0
 23 42  1  0
 26 43  1  0
 27 44  1  0
 28 45  1  0
 29 46  1  0
 30 47  1  0
 33 48  1  0
 33 49  1  0
 33 50  1  0
M  CHG  2   9  -1  17  -1
M  END
>  <UniqueID>  (60) 
52

>  <SMILES>  (60) 
COc1ccc(C(=O)[N-]S(=O)(=O)c2ccc([N-]S(=O)(=O)c3ccc(Cl)cc3)cc2)cc1OC

>  <Energy>  (60) 
59.336084575465755

>  <Genealogy>  (60) 
COc1ccc(C(=O)[N-]S(=O)(=O)c2ccc([N-]S(=O)(=O)c3ccc(Cl)cc3)cc2)cc1OC (protonated)
COc1ccc(C(=O)[N-]S(=O)(=O)c2ccc([N-]S(=O)(=O)c3ccc(Cl)cc3)cc2)cc1OC (3D coordinates assigned)
COc1ccc(C(=O)[N-]S(=O)(=O)c2ccc([N-]S(=O)(=O)c3ccc(Cl)cc3)cc2)cc1OC (optimized conformer: 59.336084575465755 kcal/mol)

>  <smiles>  (60) 
COc1ccc(C(=O)NS(=O)(=O)c2ccc(NS(=O)(=O)c3ccc(Cl)cc3)cc2)cc1OC

>  <score_type>  (60) 
oracle

>  <origin>  (60) 
adg

>  <m_score__min__energy>  (60) 
-11.960000000000001

>  <m_primary>  (60) 
energy

$$$$
60:0
     RDKit          3D

 21 22  0  0  0  0  0  0  0  0999 V2000
   57.6640   32.3810   41.5420 N   0  0  0  0  0  0  0  0  0  0  0  0
   57.7940   32.3470   42.6910 C   0  0  0  0  0  0  0  0  0  0  0  0
   57.9560   32.3030   44.1210 C   0  0  0  0  0  0  0  0  0  0  0  0
   58.2280   31.1390   44.8310 C   0  0  0  0  0  0  0  0  0  0  0  0
   58.2890   29.8060   44.3010 N   0  0  0  0  0  0  0  0  0  0  0  0
   57.9580   28.6290   45.0530 C   0  0  0  0  0  0  0  0  0  0  0  0
   58.9600   27.8200   45.6210 C   0  0  0  0  0  0  0  0  0  0  0  0
   58.6140   26.6630   46.3270 C   0  0  0  0  0  0  0  0  0  0  0  0
   57.2730   26.2970   46.4600 C   0  0  0  0  0  0  0  0  0  0  0  0
   56.2730   27.0810   45.8780 C   0  0  0  0  0  0  0  0  0  0  0  0
   54.9400   26.7110   46.0010 O   0  0  0  0  0  0  0  0  0  0  0  0
   56.6150   28.2400   45.1710 C   0  0  0  0  0  0  0  0  0  0  0  0
   58.2820   31.5940   46.4380 S   0  0  0  0  0  0  0  0  0  0  0  0
   58.0110   33.2290   46.2910 N   0  0  0  0  0  0  0  0  0  0  0  0
   57.8550   33.4390   44.9570 C   0  0  0  0  0  0  0  0  0  0  0  0
   57.6260   34.5910   44.5030 O   0  0  0  0  0  0  0  0  0  0  0  0
   58.5050   29.6940   43.2840 H   0  0  0  0  0  0  0  0  0  0  0  0
   60.0183   28.0984   45.5094 H   0  0  0  0  0  0  0  0  0  0  0  0
   59.4002   26.0400   46.7785 H   0  0  0  0  0  0  0  0  0  0  0  0
   57.0036   25.3913   47.0231 H   0  0  0  0  0  0  0  0  0  0  0  0
   55.8263   28.8492   44.7053 H   0  0  0  0  0  0  0  0  0  0  0  0
  1  2  3  0
  2  3  1  0
  3  4  2  0
  4  5  1  0
  5  6  1  0
  6  7  2  0
  7  8  1  0
  8  9  2  0
  9 10  1  0
 10 11  1  0
 10 12  2  0
  4 13  1  0
 13 14  1  0
 14 15  1  0
 15 16  2  0
 15  3  1  0
 12  6  1  0
  5 17  1  0
  7 18  1  0
  8 19  1  0
  9 20  1  0
 12 21  1  0
M  CHG  2  11  -1  14  -1
M  END
>  <UniqueID>  (61) 
53

>  <SMILES>  (61) 
N#Cc1c(Nc2cccc([O-])c2)s[n-]c1=O

>  <Energy>  (61) 
59.15090097228982

>  <Genealogy>  (61) 
N#Cc1c(Nc2cccc([O-])c2)s[n-]c1=O (protonated)
N#Cc1c(Nc2cccc([O-])c2)s[n-]c1=O (3D coordinates assigned)
N#Cc1c(Nc2cccc([O-])c2)s[n-]c1=O (optimized conformer: 59.15090097228982 kcal/mol)

>  <smiles>  (61) 
N#Cc1c(Nc2cccc(O)c2)s[nH]c1=O

>  <score_type>  (61) 
oracle

>  <origin>  (61) 
adg

>  <m_score__min__energy>  (61) 
-10.609999999999999

>  <m_primary>  (61) 
energy

$$$$
61:0
     RDKit          3D

 45 48  0  0  0  0  0  0  0  0999 V2000
   54.8370   27.0990   46.4340 H   0  0  0  0  0  0  0  0  0  0  0  0
   54.7670   26.2650   45.8080 N   0  0  0  0  0  0  0  0  0  0  0  0
   56.1960   25.3240   46.0600 S   0  0  0  0  0  0  0  0  0  0  0  0
   56.1860   24.1360   45.1400 O   0  0  0  0  0  0  0  0  0  0  0  0
   56.2180   24.8440   47.4850 O   0  0  0  0  0  0  0  0  0  0  0  0
   57.6130   26.3130   45.7240 C   0  0  0  0  0  0  0  0  0  0  0  0
   57.7090   26.9850   44.4990 C   0  0  0  0  0  0  0  0  0  0  0  0
   56.9072   26.8825   43.7529 H   0  0  0  0  0  0  0  0  0  0  0  0
   58.8200   27.7850   44.2220 C   0  0  0  0  0  0  0  0  0  0  0  0
   58.9000   28.2968   43.2516 H   0  0  0  0  0  0  0  0  0  0  0  0
   59.8300   27.9360   45.1760 C   0  0  0  0  0  0  0  0  0  0  0  0
   60.7069   28.5619   44.9539 H   0  0  0  0  0  0  0  0  0  0  0  0
   59.7260   27.2890   46.4180 C   0  0  0  0  0  0  0  0  0  0  0  0
   60.7580   27.4410   47.4040 N   0  0  0  0  0  0  0  0  0  0  0  0
   60.6290   27.7050   48.6780 C   0  0  0  0  0  0  0  0  0  0  0  0
   61.0970   26.7800   49.5590 N   0  0  0  0  0  0  0  0  0  0  0  0
   61.1140   26.9980   50.8980 C   0  0  0  0  0  0  0  0  0  0  0  0
   61.6240   26.0340   51.7730 C   0  0  0  0  0  0  0  0  0  0  0  0
   62.0014   25.0780   51.3811 H   0  0  0  0  0  0  0  0  0  0  0  0
   61.6530   26.2890   53.1500 C   0  0  0  0  0  0  0  0  0  0  0  0
   62.0539   25.5319   53.8400 H   0  0  0  0  0  0  0  0  0  0  0  0
   61.1730   27.5050   53.6500 C   0  0  0  0  0  0  0  0  0  0  0  0
   61.1987   27.7018   54.7320 H   0  0  0  0  0  0  0  0  0  0  0  0
   60.6600   28.4720   52.7760 C   0  0  0  0  0  0  0  0  0  0  0  0
   60.2805   29.4263   53.1701 H   0  0  0  0  0  0  0  0  0  0  0  0
   60.6320   28.2200   51.4010 C   0  0  0  0  0  0  0  0  0  0  0  0
   60.1090   29.1290   50.5410 N   0  0  0  0  0  0  0  0  0  0  0  0
   60.0650   28.9090   49.1990 C   0  0  0  0  0  0  0  0  0  0  0  0
   59.2850   29.8610   48.3910 C   0  0  0  0  0  0  0  0  0  0  0  0
   58.1790   29.4960   47.9080 O   0  0  0  0  0  0  0  0  0  0  0  0
   59.7910   31.1830   48.1520 N   0  0  0  0  0  0  0  0  0  0  0  0
   60.7470   31.4040   48.5120 H   0  0  0  0  0  0  0  0  0  0  0  0
   59.2210   32.0750   47.1800 C   0  0  0  0  0  0  0  0  0  0  0  0
   59.0650   33.4460   47.4460 C   0  0  0  0  0  0  0  0  0  0  0  0
   59.4031   33.8596   48.4075 H   0  0  0  0  0  0  0  0  0  0  0  0
   58.4810   34.2870   46.4920 C   0  0  0  0  0  0  0  0  0  0  0  0
   58.3512   35.3575   46.7093 H   0  0  0  0  0  0  0  0  0  0  0  0
   58.0630   33.7690   45.2650 C   0  0  0  0  0  0  0  0  0  0  0  0
   57.5964   34.4298   44.5196 H   0  0  0  0  0  0  0  0  0  0  0  0
   58.2370   32.4110   44.9830 C   0  0  0  0  0  0  0  0  0  0  0  0
   57.7140   31.7620   43.4390 Cl  0  0  0  0  0  0  0  0  0  0  0  0
   58.8230   31.5690   45.9330 C   0  0  0  0  0  0  0  0  0  0  0  0
   58.9729   30.5041   45.7017 H   0  0  0  0  0  0  0  0  0  0  0  0
   58.6360   26.4490   46.6740 C   0  0  0  0  0  0  0  0  0  0  0  0
   58.5815   25.8943   47.6223 H   0  0  0  0  0  0  0  0  0  0  0  0
  1  2  1  0
  2  3  1  0
  3  4  2  0
  3  5  2  0
  3  6  1  0
  6  7  2  0
  7  8  1  0
  7  9  1  0
  9 10  1  0
  9 11  2  0
 11 12  1  0
 11 13  1  0
 13 14  1  0
 14 15  2  0
 15 16  1  0
 16 17  1  0
 17 18  2  0
 18 19  1  0
 18 20  1  0
 20 21  1  0
 20 22  2  0
 22 23  1  0
 22 24  1  0
 24 25  1  0
 24 26  2  0
 26 27  1  0
 27 28  2  0
 28 29  1  0
 29 30  2  0
 29 31  1  0
 31 32  1  0
 31 33  1  0
 33 34  2  0
 34 35  1  0
 34 36  1  0
 36 37  1  0
 36 38  2  0
 38 39  1  0
 38 40  1  0
 40 41  1  0
 40 42  2  0
 42 43  1  0
 13 44  2  0
 44 45  1  0
 44  6  1  0
 28 15  1  0
 42 33  1  0
 26 17  1  0
M  CHG  2   2  -1  16  -1
M  END
>  <UniqueID>  (62) 
54

>  <SMILES>  (62) 
[NH-]S(=O)(=O)c1cccc(/N=c2/[n-]c3ccccc3nc2C(=O)Nc2cccc(Cl)c2)c1

>  <Energy>  (62) 
75.32798801417431

>  <Genealogy>  (62) 
[NH-]S(=O)(=O)c1cccc(N=c2[n-]c3ccccc3nc2C(=O)Nc2cccc(Cl)c2)c1 (protonated)
[NH-]S(=O)(=O)c1cccc(/N=c2/[n-]c3ccccc3nc2C(=O)Nc2cccc(Cl)c2)c1 (cis-trans isomerization)
[NH-]S(=O)(=O)c1cccc(/N=c2/[n-]c3ccccc3nc2C(=O)Nc2cccc(Cl)c2)c1 (3D coordinates assigned)
[NH-]S(=O)(=O)c1cccc(/N=c2/[n-]c3ccccc3nc2C(=O)Nc2cccc(Cl)c2)c1 (optimized conformer: 75.32798801417431 kcal/mol)

>  <smiles>  (62) 
NS(=O)(=O)c1cccc(N=c2[nH]c3ccccc3nc2C(=O)Nc2cccc(Cl)c2)c1

>  <score_type>  (62) 
oracle

>  <origin>  (62) 
adg

>  <m_score__min__energy>  (62) 
-12.59

>  <m_primary>  (62) 
energy

$$$$
62:0
     RDKit          3D

 44 46  0  0  0  0  0  0  0  0999 V2000
   56.4760   24.8630   44.5520 N   0  0  0  0  0  0  0  0  0  0  0  0
   56.1850   25.7290   46.0230 S   0  0  0  0  0  0  0  0  0  0  0  0
   54.8060   26.3390   45.9900 O   0  0  0  0  0  0  0  0  0  0  0  0
   56.2620   24.7770   47.1890 O   0  0  0  0  0  0  0  0  0  0  0  0
   57.3980   26.9920   46.2100 C   0  0  0  0  0  0  0  0  0  0  0  0
   58.5970   26.7290   46.8850 C   0  0  0  0  0  0  0  0  0  0  0  0
   59.5740   27.7200   46.9950 C   0  0  0  0  0  0  0  0  0  0  0  0
   59.3660   28.9760   46.4210 C   0  0  0  0  0  0  0  0  0  0  0  0
   58.1730   29.2540   45.7290 C   0  0  0  0  0  0  0  0  0  0  0  0
   57.9830   30.5580   45.0470 C   0  0  0  0  0  0  0  0  0  0  0  0
   57.7560   30.6170   43.6600 C   0  0  0  0  0  0  0  0  0  0  0  0
   57.6540   31.8510   43.0140 C   0  0  0  0  0  0  0  0  0  0  0  0
   57.8000   33.0370   43.7380 C   0  0  0  0  0  0  0  0  0  0  0  0
   58.0430   33.0000   45.1170 C   0  0  0  0  0  0  0  0  0  0  0  0
   58.2840   34.2390   45.8050 N   0  0  0  0  0  0  0  0  0  0  0  0
   59.8260   34.8320   46.3550 S   0  0  0  0  0  0  0  0  0  0  0  0
   60.8990   34.0590   45.6370 O   0  0  0  0  0  0  0  0  0  0  0  0
   59.9870   36.2870   45.9970 O   0  0  0  0  0  0  0  0  0  0  0  0
   60.0690   34.5880   48.1200 C   0  0  0  0  0  0  0  0  0  0  0  0
   60.1160   33.1270   48.4980 C   0  0  0  0  0  0  0  0  0  0  0  0
   58.9510   32.5250   49.0120 C   0  0  0  0  0  0  0  0  0  0  0  0
   58.9580   31.1850   49.4090 C   0  0  0  0  0  0  0  0  0  0  0  0
   60.1230   30.4230   49.2850 C   0  0  0  0  0  0  0  0  0  0  0  0
   61.2830   31.0000   48.7630 C   0  0  0  0  0  0  0  0  0  0  0  0
   61.2940   32.3480   48.3740 C   0  0  0  0  0  0  0  0  0  0  0  0
   62.8120   33.0280   47.7880 Cl  0  0  0  0  0  0  0  0  0  0  0  0
   58.0960   31.7570   45.7720 C   0  0  0  0  0  0  0  0  0  0  0  0
   57.1880   28.2520   45.6350 C   0  0  0  0  0  0  0  0  0  0  0  0
   56.4590   25.5640   43.7770 H   0  0  0  0  0  0  0  0  0  0  0  0
   57.4550   24.4970   44.5990 H   0  0  0  0  0  0  0  0  0  0  0  0
   58.7693   25.7379   47.3300 H   0  0  0  0  0  0  0  0  0  0  0  0
   60.5094   27.5112   47.5348 H   0  0  0  0  0  0  0  0  0  0  0  0
   60.1397   29.7528   46.5105 H   0  0  0  0  0  0  0  0  0  0  0  0
   57.6583   29.6866   43.0814 H   0  0  0  0  0  0  0  0  0  0  0  0
   57.4582   31.8893   41.9322 H   0  0  0  0  0  0  0  0  0  0  0  0
   57.7237   34.0055   43.2220 H   0  0  0  0  0  0  0  0  0  0  0  0
   61.0181   35.0598   48.4145 H   0  0  0  0  0  0  0  0  0  0  0  0
   59.2140   35.0422   48.6422 H   0  0  0  0  0  0  0  0  0  0  0  0
   58.0270   33.1150   49.1018 H   0  0  0  0  0  0  0  0  0  0  0  0
   58.0450   30.7293   49.8198 H   0  0  0  0  0  0  0  0  0  0  0  0
   60.1264   29.3686   49.5986 H   0  0  0  0  0  0  0  0  0  0  0  0
   62.1943   30.3933   48.6561 H   0  0  0  0  0  0  0  0  0  0  0  0
   58.2273   31.7224   46.8636 H   0  0  0  0  0  0  0  0  0  0  0  0
   56.2464   28.4603   45.1059 H   0  0  0  0  0  0  0  0  0  0  0  0
  1  2  1  0
  2  3  2  0
  2  4  2  0
  2  5  1  0
  5  6  2  0
  6  7  1  0
  7  8  2  0
  8  9  1  0
  9 10  1  0
 10 11  2  0
 11 12  1  0
 12 13  2  0
 13 14  1  0
 14 15  1  0
 15 16  1  0
 16 17  2  0
 16 18  2  0
 16 19  1  0
 19 20  1  0
 20 21  2  0
 21 22  1  0
 22 23  2  0
 23 24  1  0
 24 25  2  0
 25 26  1  0
 14 27  2  0
  9 28  2  0
 28  5  1  0
 27 10  1  0
 25 20  1  0
  1 29  1  0
  1 30  1  0
  6 31  1  0
  7 32  1  0
  8 33  1  0
 11 34  1  0
 12 35  1  0
 13 36  1  0
 19 37  1  0
 19 38  1  0
 21 39  1  0
 22 40  1  0
 23 41  1  0
 24 42  1  0
 27 43  1  0
 28 44  1  0
M  CHG  1  15  -1
M  END
>  <UniqueID>  (63) 
55

>  <SMILES>  (63) 
NS(=O)(=O)c1cccc(-c2cccc([N-]S(=O)(=O)Cc3ccccc3Cl)c2)c1

>  <Energy>  (63) 
46.644727154376135

>  <Genealogy>  (63) 
NS(=O)(=O)c1cccc(-c2cccc([N-]S(=O)(=O)Cc3ccccc3Cl)c2)c1 (protonated)
NS(=O)(=O)c1cccc(-c2cccc([N-]S(=O)(=O)Cc3ccccc3Cl)c2)c1 (3D coordinates assigned)
NS(=O)(=O)c1cccc(-c2cccc([N-]S(=O)(=O)Cc3ccccc3Cl)c2)c1 (optimized conformer: 46.644727154376135 kcal/mol)

>  <smiles>  (63) 
NS(=O)(=O)c1cccc(-c2cccc(NS(=O)(=O)Cc3ccccc3Cl)c2)c1

>  <score_type>  (63) 
oracle

>  <origin>  (63) 
adg

>  <m_score__min__energy>  (63) 
-11.380000000000001

>  <m_primary>  (63) 
energy

$$$$
63:0
     RDKit          3D

 51 53  0  0  0  0  0  0  0  0999 V2000
   58.1660   26.6630   44.2770 O   0  0  0  0  0  0  0  0  0  0  0  0
   58.7000   27.6230   45.3030 S   0  0  0  0  0  0  0  0  0  0  0  0
   59.6840   28.5450   44.6420 O   0  0  0  0  0  0  0  0  0  0  0  0
   59.5240   26.7410   46.5570 N   0  0  0  0  0  0  0  0  0  0  0  0
   59.4470   27.4390   47.8430 C   0  0  0  0  0  0  0  0  0  0  0  0
   60.0560   28.8390   47.7350 C   0  0  0  0  0  0  0  0  0  0  0  0
   60.0730   29.5190   49.0790 C   0  0  0  0  0  0  0  0  0  0  0  0
   61.1500   29.3260   49.9610 C   0  0  0  0  0  0  0  0  0  0  0  0
   61.1490   29.9350   51.2180 C   0  0  0  0  0  0  0  0  0  0  0  0
   60.0710   30.7340   51.6090 C   0  0  0  0  0  0  0  0  0  0  0  0
   58.9900   30.9250   50.7420 C   0  0  0  0  0  0  0  0  0  0  0  0
   57.6350   31.9220   51.2360 Cl  0  0  0  0  0  0  0  0  0  0  0  0
   58.9890   30.3170   49.4820 C   0  0  0  0  0  0  0  0  0  0  0  0
   57.4150   28.5650   45.9960 N   0  0  0  0  0  0  0  0  0  0  0  0
   56.6540   29.5210   44.7610 S   0  0  0  0  0  0  0  0  0  0  0  0
   57.1960   29.1060   43.4220 O   0  0  0  0  0  0  0  0  0  0  0  0
   55.1690   29.2910   44.7750 O   0  0  0  0  0  0  0  0  0  0  0  0
   56.9750   31.2110   45.0060 N   0  0  0  0  0  0  0  0  0  0  0  0
   58.0490   31.3730   45.9810 C   0  0  0  0  0  0  0  0  0  0  0  0
   58.6170   32.7630   45.8770 C   0  0  0  0  0  0  0  0  0  0  0  0
   58.0280   33.6970   45.0070 C   0  0  0  0  0  0  0  0  0  0  0  0
   58.5440   34.9920   44.9060 C   0  0  0  0  0  0  0  0  0  0  0  0
   59.6490   35.3660   45.6720 C   0  0  0  0  0  0  0  0  0  0  0  0
   60.2370   34.4510   46.5470 C   0  0  0  0  0  0  0  0  0  0  0  0
   59.7180   33.1500   46.6690 C   0  0  0  0  0  0  0  0  0  0  0  0
   60.3080   32.2170   47.5380 O   0  0  0  0  0  0  0  0  0  0  0  0
   61.5240   32.4000   48.2130 C   0  0  0  0  0  0  0  0  0  0  0  0
   61.5340   33.1510   49.3950 C   0  0  0  0  0  0  0  0  0  0  0  0
   62.7310   33.3690   50.0830 C   0  0  0  0  0  0  0  0  0  0  0  0
   63.9310   32.8470   49.5880 C   0  0  0  0  0  0  0  0  0  0  0  0
   65.4320   33.1230   50.4520 Cl  0  0  0  0  0  0  0  0  0  0  0  0
   63.9310   32.1090   48.4000 C   0  0  0  0  0  0  0  0  0  0  0  0
   62.7350   31.8890   47.7100 C   0  0  0  0  0  0  0  0  0  0  0  0
   58.3926   27.5260   48.1443 H   0  0  0  0  0  0  0  0  0  0  0  0
   60.0114   26.8643   48.5921 H   0  0  0  0  0  0  0  0  0  0  0  0
   61.0866   28.7562   47.3595 H   0  0  0  0  0  0  0  0  0  0  0  0
   59.4442   29.4377   47.0442 H   0  0  0  0  0  0  0  0  0  0  0  0
   61.9975   28.6926   49.6601 H   0  0  0  0  0  0  0  0  0  0  0  0
   61.9980   29.7855   51.9013 H   0  0  0  0  0  0  0  0  0  0  0  0
   60.0726   31.2130   52.5992 H   0  0  0  0  0  0  0  0  0  0  0  0
   58.1357   30.4644   48.8037 H   0  0  0  0  0  0  0  0  0  0  0  0
   57.6511   31.2145   46.9942 H   0  0  0  0  0  0  0  0  0  0  0  0
   58.8415   30.6375   45.7785 H   0  0  0  0  0  0  0  0  0  0  0  0
   57.1561   33.4070   44.4023 H   0  0  0  0  0  0  0  0  0  0  0  0
   58.0787   35.7171   44.2221 H   0  0  0  0  0  0  0  0  0  0  0  0
   60.0574   36.3838   45.5861 H   0  0  0  0  0  0  0  0  0  0  0  0
   61.1112   34.7494   47.1443 H   0  0  0  0  0  0  0  0  0  0  0  0
   60.5949   33.5715   49.7840 H   0  0  0  0  0  0  0  0  0  0  0  0
   62.7296   33.9522   51.0157 H   0  0  0  0  0  0  0  0  0  0  0  0
   64.8740   31.7007   48.0076 H   0  0  0  0  0  0  0  0  0  0  0  0
   62.7406   31.3151   46.7716 H   0  0  0  0  0  0  0  0  0  0  0  0
  1  2  2  0
  2  3  2  0
  2  4  1  0
  4  5  1  0
  5  6  1  0
  6  7  1  0
  7  8  2  0
  8  9  1  0
  9 10  2  0
 10 11  1  0
 11 12  1  0
 11 13  2  0
  2 14  1  0
 14 15  1  0
 15 16  2  0
 15 17  2  0
 15 18  1  0
 18 19  1  0
 19 20  1  0
 20 21  2  0
 21 22  1  0
 22 23  2  0
 23 24  1  0
 24 25  2  0
 25 26  1  0
 26 27  1  0
 27 28  2  0
 28 29  1  0
 29 30  2  0
 30 31  1  0
 30 32  1  0
 32 33  2  0
 13  7  1  0
 25 20  1  0
 33 27  1  0
  5 34  1  0
  5 35  1  0
  6 36  1  0
  6 37  1  0
  8 38  1  0
  9 39  1  0
 10 40  1  0
 13 41  1  0
 19 42  1  0
 19 43  1  0
 21 44  1  0
 22 45  1  0
 23 46  1  0
 24 47  1  0
 28 48  1  0
 29 49  1  0
 32 50  1  0
 33 51  1  0
M  CHG  3   4  -1  14  -1  18  -1
M  END
>  <UniqueID>  (64) 
56

>  <SMILES>  (64) 
O=S(=O)([N-]CCc1cccc(Cl)c1)[N-]S(=O)(=O)[N-]Cc1ccccc1Oc1ccc(Cl)cc1

>  <Energy>  (64) 
45.45326446842961

>  <Genealogy>  (64) 
O=S(=O)([N-]CCc1cccc(Cl)c1)[N-]S(=O)(=O)[N-]Cc1ccccc1Oc1ccc(Cl)cc1 (protonated)
O=S(=O)([N-]CCc1cccc(Cl)c1)[N-]S(=O)(=O)[N-]Cc1ccccc1Oc1ccc(Cl)cc1 (3D coordinates assigned)
O=S(=O)([N-]CCc1cccc(Cl)c1)[N-]S(=O)(=O)[N-]Cc1ccccc1Oc1ccc(Cl)cc1 (optimized conformer: 45.45326446842961 kcal/mol)

>  <smiles>  (64) 
O=S(=O)(NCCc1cccc(Cl)c1)NS(=O)(=O)NCc1ccccc1Oc1ccc(Cl)cc1

>  <score_type>  (64) 
oracle

>  <origin>  (64) 
adg

>  <m_score__min__energy>  (64) 
-13.69

>  <m_primary>  (64) 
energy

$$$$
64:0
     RDKit          3D

 47 50  0  0  1  0  0  0  0  0999 V2000
   55.1820   29.7080   43.4100 C   0  0  0  0  0  0  0  0  0  0  0  0
   55.3610   29.5690   44.8070 O   0  0  0  0  0  0  0  0  0  0  0  0
   56.6730   29.2830   45.2310 C   0  0  0  0  0  0  0  0  0  0  0  0
   56.9820   28.0190   45.6740 C   0  0  0  0  0  0  0  0  0  0  0  0
   58.2530   27.6980   46.0970 C   0  0  0  0  0  0  0  0  0  0  0  0
   58.5400   26.4340   46.5360 C   0  0  0  0  0  0  0  0  0  0  0  0
   57.6190   25.5550   46.5510 N   0  0  0  0  0  0  0  0  0  0  0  0
   57.7910   24.3150   45.9090 C   0  0  0  0  0  0  0  0  0  0  0  0
   58.9920   23.6310   45.8620 C   0  0  0  0  0  0  0  0  0  0  0  0
   59.1420   22.4190   45.2290 C   0  0  0  0  0  0  0  0  0  0  0  0
   60.3860   21.8040   45.2310 O   0  0  0  0  0  0  0  0  0  0  0  0
   58.0300   21.8720   44.6170 C   0  0  0  0  0  0  0  0  0  0  0  0
   56.8160   22.5130   44.6360 C   0  0  0  0  0  0  0  0  0  0  0  0
   56.6950   23.7240   45.2760 C   0  0  0  0  0  0  0  0  0  0  0  0
   55.1190   24.5040   45.2730 Cl  0  0  0  0  0  0  0  0  0  0  0  0
   59.7950   26.1350   46.9470 N   0  0  0  0  0  0  0  0  0  0  0  0
   60.7540   27.1050   46.9170 C   0  0  0  0  0  0  0  0  0  0  0  0
   60.4660   28.3540   46.4820 N   0  0  0  0  0  0  0  0  0  0  0  0
   59.2150   28.6740   46.0660 C   0  0  0  0  0  0  0  0  0  0  0  0
   58.8930   29.9320   45.6200 C   0  0  0  0  0  0  0  0  0  0  0  0
   57.6430   30.3070   45.1870 C   0  0  0  0  0  0  0  0  0  0  0  0
   57.2440   31.5020   44.7380 O   0  0  0  0  0  0  0  0  0  0  0  0
   56.9720   32.7340   45.2460 C   0  0  0  0  0  0  0  0  0  0  0  0
   58.0350   33.4030   46.0020 C   0  0  0  0  0  0  0  0  0  0  0  0
   58.2280   32.9930   47.3270 C   0  0  0  0  0  0  0  0  0  0  0  0
   59.2310   33.5700   48.1010 C   0  0  0  0  0  0  0  0  0  0  0  0
   60.0640   34.5600   47.5900 C   0  0  0  0  0  0  0  0  0  0  0  0
   59.8760   34.9610   46.2950 C   0  0  0  0  0  0  0  0  0  0  0  0
   58.8760   34.3770   45.5430 C   0  0  0  0  0  0  0  0  0  0  0  0
   54.3271   30.3719   43.2141 H   0  0  0  0  0  0  0  0  0  0  0  0
   56.0908   30.1395   42.9650 H   0  0  0  0  0  0  0  0  0  0  0  0
   54.9890   28.7207   42.9650 H   0  0  0  0  0  0  0  0  0  0  0  0
   56.1979   27.2477   45.6911 H   0  0  0  0  0  0  0  0  0  0  0  0
   59.8688   24.0772   46.3541 H   0  0  0  0  0  0  0  0  0  0  0  0
   60.3740   20.7990   45.0390 H   0  0  0  0  0  0  0  0  0  0  0  0
   58.1195   20.9030   44.1041 H   0  0  0  0  0  0  0  0  0  0  0  0
   55.9441   22.0599   44.1415 H   0  0  0  0  0  0  0  0  0  0  0  0
   60.0500   25.1670   47.2930 H   0  0  0  0  0  0  0  0  0  0  0  0
   61.7752   26.8688   47.2509 H   0  0  0  0  0  0  0  0  0  0  0  0
   59.6889   30.6912   45.6083 H   0  0  0  0  0  0  0  0  0  0  0  0
   56.7064   33.3874   44.4019 H   0  0  0  0  0  0  0  0  0  0  0  0
   56.1699   32.5644   45.9794 H   0  0  0  0  0  0  0  0  0  0  0  0
   57.5845   32.2119   47.7580 H   0  0  0  0  0  0  0  0  0  0  0  0
   59.3679   33.2356   49.1400 H   0  0  0  0  0  0  0  0  0  0  0  0
   60.8534   35.0090   48.2107 H   0  0  0  0  0  0  0  0  0  0  0  0
   60.5157   35.7414   45.8572 H   0  0  0  0  0  0  0  0  0  0  0  0
   58.7479   34.7187   44.5053 H   0  0  0  0  0  0  0  0  0  0  0  0
  1  2  1  0
  2  3  1  0
  3  4  2  0
  4  5  1  0
  5  6  1  0
  6  7  2  0
  7  8  1  0
  8  9  2  0
  9 10  1  0
 10 11  1  0
 10 12  2  0
 12 13  1  0
 13 14  2  0
 14 15  1  0
  6 16  1  0
 16 17  1  0
 17 18  2  0
 18 19  1  0
 19 20  1  0
 20 21  2  0
 21 22  1  0
 22 23  1  0
 23 24  1  0
 24 25  2  0
 25 26  1  0
 26 27  2  0
 27 28  1  0
 28 29  2  0
 21  3  1  0
 29 24  1  0
 19  5  2  0
 14  8  1  0
  1 30  1  0
  1 31  1  0
  1 32  1  0
  4 33  1  0
  9 34  1  0
 11 35  1  0
 12 36  1  0
 13 37  1  0
 16 38  1  0
 17 39  1  0
 20 40  1  0
 23 41  1  0
 23 42  1  0
 25 43  1  0
 26 44  1  0
 27 45  1  0
 28 46  1  0
 29 47  1  0
M  END
>  <smiles>  (65) 
COc1cc2c(=Nc3cc(O)ccc3Cl)[nH]cnc2cc1OCc1ccccc1

>  <score_type>  (65) 
oracle

>  <origin>  (65) 
adg

>  <m_score__min__energy>  (65) 
-9.5600000000000005

>  <m_primary>  (65) 
energy

$$$$
65:0
     RDKit          3D

 30 30  0  0  0  0  0  0  0  0999 V2000
   58.0310   34.1060   45.3190 C   0  0  0  0  0  0  0  0  0  0  0  0
   58.2620   32.7070   44.7450 C   0  0  0  0  0  0  0  0  0  0  0  0
   58.1410   32.7220   43.2230 C   0  0  0  0  0  0  0  0  0  0  0  0
   57.3040   31.7930   45.2770 O   0  0  0  0  0  0  0  0  0  0  0  0
   57.5500   30.4210   45.3800 C   0  0  0  0  0  0  0  0  0  0  0  0
   58.2250   29.9330   46.5050 C   0  0  0  0  0  0  0  0  0  0  0  0
   58.4930   28.5680   46.6300 C   0  0  0  0  0  0  0  0  0  0  0  0
   58.0830   27.6720   45.6310 C   0  0  0  0  0  0  0  0  0  0  0  0
   58.3410   26.1930   45.7790 C   0  0  0  0  0  0  0  0  0  0  0  0
   57.1340   25.3570   45.3340 C   0  0  0  0  0  0  0  0  0  0  0  0
   55.9420   25.5980   46.2110 C   0  0  0  0  0  0  0  0  0  0  0  0
   55.6820   24.8090   47.1570 O   0  0  0  0  0  0  0  0  0  0  0  0
   55.1440   26.7160   46.0080 O   0  0  0  0  0  0  0  0  0  0  0  0
   57.3820   28.1580   44.5160 C   0  0  0  0  0  0  0  0  0  0  0  0
   57.1140   29.5260   44.3870 C   0  0  0  0  0  0  0  0  0  0  0  0
   56.1790   30.0850   43.0090 Cl  0  0  0  0  0  0  0  0  0  0  0  0
   58.0390   34.0574   46.4179 H   0  0  0  0  0  0  0  0  0  0  0  0
   58.8301   34.7796   44.9759 H   0  0  0  0  0  0  0  0  0  0  0  0
   57.0578   34.4870   44.9759 H   0  0  0  0  0  0  0  0  0  0  0  0
   59.2767   32.3876   45.0249 H   0  0  0  0  0  0  0  0  0  0  0  0
   57.0860   32.8528   42.9403 H   0  0  0  0  0  0  0  0  0  0  0  0
   58.7354   33.5533   42.8161 H   0  0  0  0  0  0  0  0  0  0  0  0
   58.5144   31.7707   42.8161 H   0  0  0  0  0  0  0  0  0  0  0  0
   58.5460   30.6282   47.2947 H   0  0  0  0  0  0  0  0  0  0  0  0
   59.0278   28.1937   47.5154 H   0  0  0  0  0  0  0  0  0  0  0  0
   59.2102   25.9197   45.1627 H   0  0  0  0  0  0  0  0  0  0  0  0
   58.5289   25.9833   46.8424 H   0  0  0  0  0  0  0  0  0  0  0  0
   56.8758   25.6256   44.2990 H   0  0  0  0  0  0  0  0  0  0  0  0
   57.4060   24.2937   45.4078 H   0  0  0  0  0  0  0  0  0  0  0  0
   57.0409   27.4590   43.7382 H   0  0  0  0  0  0  0  0  0  0  0  0
  1  2  1  0
  2  3  1  0
  2  4  1  0
  4  5  1  0
  5  6  2  0
  6  7  1  0
  7  8  2  0
  8  9  1  0
  9 10  1  0
 10 11  1  0
 11 12  2  0
 11 13  1  0
  8 14  1  0
 14 15  2  0
 15 16  1  0
 15  5  1  0
  1 17  1  0
  1 18  1  0
  1 19  1  0
  2 20  1  0
  3 21  1  0
  3 22  1  0
  3 23  1  0
  6 24  1  0
  7 25  1  0
  9 26  1  0
  9 27  1  0
 10 28  1  0
 10 29  1  0
 14 30  1  0
M  CHG  1  13  -1
M  END
>  <UniqueID>  (66) 
57

>  <SMILES>  (66) 
CC(C)Oc1ccc(CCC(=O)[O-])cc1Cl

>  <Energy>  (66) 
26.079775988795205

>  <Genealogy>  (66) 
CC(C)Oc1ccc(CCC(=O)[O-])cc1Cl (protonated)
CC(C)Oc1ccc(CCC(=O)[O-])cc1Cl (3D coordinates assigned)
CC(C)Oc1ccc(CCC(=O)[O-])cc1Cl (optimized conformer: 26.079775988795205 kcal/mol)

>  <smiles>  (66) 
CC(C)Oc1ccc(CCC(=O)O)cc1Cl

>  <score_type>  (66) 
oracle

>  <origin>  (66) 
adg

>  <m_score__min__energy>  (66) 
-9.0999999999999996

>  <m_primary>  (66) 
energy

$$$$
66:0
     RDKit          3D

 25 26  0  0  0  0  0  0  0  0999 V2000
   57.3490   21.8710   47.8450 N   0  0  0  0  0  0  0  0  0  0  0  0
   56.9520   22.9860   47.3260 C   0  0  0  0  0  0  0  0  0  0  0  0
   57.7960   23.9780   46.9710 N   0  0  0  0  0  0  0  0  0  0  0  0
   57.1260   25.0450   46.4530 C   0  0  0  0  0  0  0  0  0  0  0  0
   57.8490   26.2560   46.0140 C   0  0  0  0  0  0  0  0  0  0  0  0
   59.2540   26.2960   46.0060 C   0  0  0  0  0  0  0  0  0  0  0  0
   59.9250   27.4400   45.5680 C   0  0  0  0  0  0  0  0  0  0  0  0
   59.2020   28.5480   45.1180 C   0  0  0  0  0  0  0  0  0  0  0  0
   57.8020   28.5110   45.0910 C   0  0  0  0  0  0  0  0  0  0  0  0
   56.8860   29.9050   44.5280 S   0  0  0  0  0  0  0  0  0  0  0  0
   55.2050   29.6580   44.8400 N   0  0  0  0  0  0  0  0  0  0  0  0
   57.1020   30.0930   43.0520 O   0  0  0  0  0  0  0  0  0  0  0  0
   57.3490   31.1440   45.2430 O   0  0  0  0  0  0  0  0  0  0  0  0
   57.1300   27.3640   45.5390 C   0  0  0  0  0  0  0  0  0  0  0  0
   55.7380   24.8690   46.3950 C   0  0  0  0  0  0  0  0  0  0  0  0
   54.7920   25.7540   45.7940 N   0  0  0  0  0  0  0  0  0  0  0  0
   55.3420   23.3540   47.0140 S   0  0  0  0  0  0  0  0  0  0  0  0
   57.4920   21.7750   48.8750 H   0  0  0  0  0  0  0  0  0  0  0  0
   59.8281   25.4217   46.3465 H   0  0  0  0  0  0  0  0  0  0  0  0
   61.0246   27.4689   45.5773 H   0  0  0  0  0  0  0  0  0  0  0  0
   59.7336   29.4513   44.7842 H   0  0  0  0  0  0  0  0  0  0  0  0
   55.1390   28.9240   45.5810 H   0  0  0  0  0  0  0  0  0  0  0  0
   56.0307   27.3326   45.5179 H   0  0  0  0  0  0  0  0  0  0  0  0
   54.8160   25.9180   44.7640 H   0  0  0  0  0  0  0  0  0  0  0  0
   54.1240   26.3110   46.3690 H   0  0  0  0  0  0  0  0  0  0  0  0
  1  2  2  3
  2  3  1  0
  3  4  1  0
  4  5  1  0
  5  6  2  0
  6  7  1  0
  7  8  2  0
  8  9  1  0
  9 10  1  0
 10 11  1  0
 10 12  2  0
 10 13  2  0
  9 14  2  0
  4 15  2  0
 15 16  1  0
 15 17  1  0
 17  2  1  0
 14  5  1  0
  1 18  1  0
  6 19  1  0
  7 20  1  0
  8 21  1  0
 11 22  1  0
 14 23  1  0
 16 24  1  0
 16 25  1  0
M  CHG  2   3  -1  11  -1
M  END
>  <UniqueID>  (67) 
58

>  <SMILES>  (67) 
N=c1[n-]c(-c2cccc(S([NH-])(=O)=O)c2)c(N)s1

>  <Energy>  (67) 
60.19607341782045

>  <Genealogy>  (67) 
N=c1[n-]c(-c2cccc(S([NH-])(=O)=O)c2)c(N)s1 (protonated)
N=c1[n-]c(-c2cccc(S([NH-])(=O)=O)c2)c(N)s1 (3D coordinates assigned)
N=c1[n-]c(-c2cccc(S([NH-])(=O)=O)c2)c(N)s1 (optimized conformer: 60.19607341782045 kcal/mol)

>  <smiles>  (67) 
N=c1[nH]c(-c2cccc(S(N)(=O)=O)c2)c(N)s1

>  <score_type>  (67) 
oracle

>  <origin>  (67) 
adg

>  <m_score__min__energy>  (67) 
-11.109999999999999

>  <m_primary>  (67) 
energy

$$$$
67:0
     RDKit          3D

 22 22  0  0  0  0  0  0  0  0999 V2000
   57.6450   28.6490   43.8510 N   0  0  0  0  0  0  0  0  0  0  0  0
   56.6370   30.0470   43.9830 S   0  0  0  0  0  0  0  0  0  0  0  0
   55.4590   29.7350   44.8610 O   0  0  0  0  0  0  0  0  0  0  0  0
   56.1320   30.4330   42.6210 O   0  0  0  0  0  0  0  0  0  0  0  0
   57.5600   31.3780   44.6740 C   0  0  0  0  0  0  0  0  0  0  0  0
   58.1310   31.2550   45.9470 C   0  0  0  0  0  0  0  0  0  0  0  0
   58.8540   32.3160   46.5020 C   0  0  0  0  0  0  0  0  0  0  0  0
   58.9990   33.5190   45.7940 C   0  0  0  0  0  0  0  0  0  0  0  0
   59.8090   34.6470   46.3750 C   0  0  0  0  0  0  0  0  0  0  0  0
   60.7240   34.1500   47.3980 N   0  0  0  0  0  0  0  0  0  0  0  0
   61.9270   33.8400   47.1270 C   0  0  0  0  0  0  0  0  0  0  0  0
   63.4540   33.4490   46.7890 S   0  0  0  0  0  0  0  0  0  0  0  0
   58.4300   33.6390   44.5160 C   0  0  0  0  0  0  0  0  0  0  0  0
   57.7080   32.5770   43.9630 C   0  0  0  0  0  0  0  0  0  0  0  0
   58.2520   28.7900   43.0120 H   0  0  0  0  0  0  0  0  0  0  0  0
   57.0190   27.8410   43.6370 H   0  0  0  0  0  0  0  0  0  0  0  0
   58.0103   30.3196   46.5130 H   0  0  0  0  0  0  0  0  0  0  0  0
   59.3105   32.2071   47.4969 H   0  0  0  0  0  0  0  0  0  0  0  0
   60.3896   35.1255   45.5726 H   0  0  0  0  0  0  0  0  0  0  0  0
   59.1241   35.3743   46.8355 H   0  0  0  0  0  0  0  0  0  0  0  0
   58.5528   34.5726   43.9474 H   0  0  0  0  0  0  0  0  0  0  0  0
   57.2545   32.6827   42.9664 H   0  0  0  0  0  0  0  0  0  0  0  0
  1  2  1  0
  2  3  2  0
  2  4  2  0
  2  5  1  0
  5  6  2  0
  6  7  1  0
  7  8  2  0
  8  9  1  0
  9 10  1  0
 10 11  2  0
 11 12  2  0
  8 13  1  0
 13 14  2  0
 14  5  1  0
  1 15  1  0
  1 16  1  0
  6 17  1  0
  7 18  1  0
  9 19  1  0
  9 20  1  0
 13 21  1  0
 14 22  1  0
M  END
>  <UniqueID>  (68) 
59

>  <SMILES>  (68) 
NS(=O)(=O)c1ccc(CN=C=S)cc1

>  <Energy>  (68) 
16.66181049107841

>  <Genealogy>  (68) 
NS(=O)(=O)c1ccc(CN=C=S)cc1 (3D coordinates assigned)
NS(=O)(=O)c1ccc(CN=C=S)cc1 (optimized conformer: 16.66181049107841 kcal/mol)

>  <smiles>  (68) 
NS(=O)(=O)c1ccc(CN=C=S)cc1

>  <score_type>  (68) 
oracle

>  <origin>  (68) 
adg

>  <m_score__min__energy>  (68) 
-6.7300000000000004

>  <m_primary>  (68) 
energy

$$$$
68:0
     RDKit          3D

 30 31  0  0  1  0  0  0  0  0999 V2000
   57.3890   33.4240   44.4390 C   0  0  0  0  0  0  0  0  0  0  0  0
   57.9440   32.3790   45.3320 C   0  0  0  0  0  0  0  0  0  0  0  0
   58.7520   32.6140   46.4120 C   0  0  0  0  0  0  0  0  0  0  0  0
   59.2610   33.8710   46.9530 C   0  0  0  0  0  0  0  0  0  0  0  0
   58.6060   34.5960   47.7290 O   0  0  0  0  0  0  0  0  0  0  0  0
   60.5930   34.2460   46.5380 N   0  0  0  0  0  0  0  0  0  0  0  0
   61.5940   33.5390   46.9310 C   0  0  0  0  0  0  0  0  0  0  0  0
   62.8480   33.8260   46.3830 C   0  0  0  0  0  0  0  0  0  0  0  0
   63.9510   33.0690   46.7920 C   0  0  0  0  0  0  0  0  0  0  0  0
   63.7690   32.0860   47.7060 N   0  0  0  0  0  0  0  0  0  0  0  0
   62.5370   31.8450   48.2090 C   0  0  0  0  0  0  0  0  0  0  0  0
   62.4620   30.9080   49.0550 O   0  0  0  0  0  0  0  0  0  0  0  0
   61.4700   32.5390   47.8450 N   0  0  0  0  0  0  0  0  0  0  0  0
   59.0530   31.4120   46.9760 N   0  0  0  0  0  0  0  0  0  0  0  0
   58.4620   30.4440   46.2850 N   0  0  0  0  0  0  0  0  0  0  0  0
   57.7660   31.0150   45.2580 C   0  0  0  0  0  0  0  0  0  0  0  0
   56.8140   30.1950   44.0560 S   0  0  0  0  0  0  0  0  0  0  0  0
   57.5300   28.6720   43.7230 N   0  0  0  0  0  0  0  0  0  0  0  0
   56.8360   31.0040   42.7800 O   0  0  0  0  0  0  0  0  0  0  0  0
   55.3790   30.0890   44.4990 O   0  0  0  0  0  0  0  0  0  0  0  0
   56.9587   34.2342   45.0459 H   0  0  0  0  0  0  0  0  0  0  0  0
   58.1915   33.8279   43.8042 H   0  0  0  0  0  0  0  0  0  0  0  0
   56.6050   32.9853   43.8042 H   0  0  0  0  0  0  0  0  0  0  0  0
   62.9650   34.6322   45.6439 H   0  0  0  0  0  0  0  0  0  0  0  0
   64.9503   33.2689   46.3779 H   0  0  0  0  0  0  0  0  0  0  0  0
   64.6180   31.5440   47.9840 H   0  0  0  0  0  0  0  0  0  0  0  0
   60.5370   32.3230   48.2530 H   0  0  0  0  0  0  0  0  0  0  0  0
   58.5420   29.4320   46.5230 H   0  0  0  0  0  0  0  0  0  0  0  0
   58.1850   28.7780   42.9270 H   0  0  0  0  0  0  0  0  0  0  0  0
   56.8180   27.9590   43.4340 H   0  0  0  0  0  0  0  0  0  0  0  0
  1  2  1  0
  2  3  1  0
  3  4  1  0
  4  5  2  0
  4  6  1  0
  6  7  2  0
  7  8  1  0
  8  9  2  0
  9 10  1  0
 10 11  1  0
 11 12  2  0
 11 13  1  0
  3 14  2  0
 14 15  1  0
 15 16  1  0
 16 17  1  0
 17 18  1  0
 17 19  2  0
 17 20  2  0
 16  2  2  0
 13  7  1  0
  1 21  1  0
  1 22  1  0
  1 23  1  0
  8 24  1  0
  9 25  1  0
 10 26  1  0
 13 27  1  0
 15 28  1  0
 18 29  1  0
 18 30  1  0
M  END
>  <smiles>  (69) 
Cc1c(C(=O)N=c2cc[nH]c(=O)[nH]2)n[nH]c1S(N)(=O)=O

>  <score_type>  (69) 
oracle

>  <origin>  (69) 
adg

>  <m_score__min__energy>  (69) 
-7.79

>  <m_primary>  (69) 
energy

$$$$
69:0
     RDKit          3D

 39 41  0  0  0  0  0  0  0  0999 V2000
   54.7540   27.0890   45.0370 H   0  0  0  0  0  0  0  0  0  0  0  0
   55.2200   26.7260   45.8610 O   0  0  0  0  0  0  0  0  0  0  0  0
   56.6100   26.7430   45.9810 C   0  0  0  0  0  0  0  0  0  0  0  0
   57.2780   25.6230   46.4960 C   0  0  0  0  0  0  0  0  0  0  0  0
   56.7025   24.7399   46.8105 H   0  0  0  0  0  0  0  0  0  0  0  0
   58.6690   25.6220   46.6120 C   0  0  0  0  0  0  0  0  0  0  0  0
   59.1867   24.7388   47.0144 H   0  0  0  0  0  0  0  0  0  0  0  0
   59.4040   26.7430   46.2170 C   0  0  0  0  0  0  0  0  0  0  0  0
   61.1520   26.7450   46.3720 Cl  0  0  0  0  0  0  0  0  0  0  0  0
   58.7470   27.8660   45.7070 C   0  0  0  0  0  0  0  0  0  0  0  0
   59.3296   28.7492   45.4063 H   0  0  0  0  0  0  0  0  0  0  0  0
   57.3460   27.8760   45.5750 C   0  0  0  0  0  0  0  0  0  0  0  0
   56.6580   29.0820   45.0510 C   0  0  0  0  0  0  0  0  0  0  0  0
   55.4530   28.9890   44.6920 O   0  0  0  0  0  0  0  0  0  0  0  0
   57.3380   30.3970   44.9500 C   0  0  0  0  0  0  0  0  0  0  0  0
   58.1660   30.8500   45.9890 C   0  0  0  0  0  0  0  0  0  0  0  0
   58.3174   30.2234   46.8803 H   0  0  0  0  0  0  0  0  0  0  0  0
   58.7820   32.0590   45.9000 N   0  0  0  0  0  0  0  0  0  0  0  0
   58.6330   32.8680   44.8140 C   0  0  0  0  0  0  0  0  0  0  0  0
   59.2560   34.1600   44.7630 N   0  0  0  0  0  0  0  0  0  0  0  0
   59.5350   34.9000   45.7690 N   0  0  0  0  0  0  0  0  0  0  0  0
   60.2840   34.4980   46.9250 C   0  0  0  0  0  0  0  0  0  0  0  0
   59.7420   34.6120   48.2150 C   0  0  0  0  0  0  0  0  0  0  0  0
   58.7474   35.0610   48.3537 H   0  0  0  0  0  0  0  0  0  0  0  0
   60.4600   34.1580   49.3220 C   0  0  0  0  0  0  0  0  0  0  0  0
   60.0358   34.2623   50.3316 H   0  0  0  0  0  0  0  0  0  0  0  0
   61.7170   33.5710   49.1510 C   0  0  0  0  0  0  0  0  0  0  0  0
   62.2758   33.2096   50.0269 H   0  0  0  0  0  0  0  0  0  0  0  0
   62.2710   33.4400   47.8650 C   0  0  0  0  0  0  0  0  0  0  0  0
   63.5970   32.7490   47.6710 C   0  0  0  0  0  0  0  0  0  0  0  0
   64.4740   33.0760   48.6920 F   0  0  0  0  0  0  0  0  0  0  0  0
   64.1720   33.1240   46.4700 F   0  0  0  0  0  0  0  0  0  0  0  0
   63.4010   31.3810   47.6690 F   0  0  0  0  0  0  0  0  0  0  0  0
   61.5280   33.8780   46.7530 C   0  0  0  0  0  0  0  0  0  0  0  0
   61.9282   33.7320   45.7388 H   0  0  0  0  0  0  0  0  0  0  0  0
   57.7840   32.4750   43.7760 C   0  0  0  0  0  0  0  0  0  0  0  0
   57.6228   33.1368   42.9122 H   0  0  0  0  0  0  0  0  0  0  0  0
   57.1420   31.2380   43.8420 C   0  0  0  0  0  0  0  0  0  0  0  0
   56.4798   30.9201   43.0232 H   0  0  0  0  0  0  0  0  0  0  0  0
  1  2  1  0
  2  3  1  0
  3  4  2  0
  4  5  1  0
  4  6  1  0
  6  7  1  0
  6  8  2  0
  8  9  1  0
  8 10  1  0
 10 11  1  0
 10 12  2  0
 12 13  1  0
 13 14  2  0
 13 15  1  0
 15 16  2  0
 16 17  1  0
 16 18  1  0
 18 19  2  0
 19 20  1  0
 20 21  2  0
 21 22  1  0
 22 23  2  0
 23 24  1  0
 23 25  1  0
 25 26  1  0
 25 27  2  0
 27 28  1  0
 27 29  1  0
 29 30  1  0
 30 31  1  0
 30 32  1  0
 30 33  1  0
 29 34  2  0
 34 35  1  0
 19 36  1  0
 36 37  1  0
 36 38  2  0
 38 39  1  0
 12  3  1  0
 38 15  1  0
 34 22  1  0
M  END
>  <UniqueID>  (70) 
60

>  <SMILES>  (70) 
O=C(c1ccc(/N=N\c2cccc(C(F)(F)F)c2)nc1)c1cc(Cl)ccc1O

>  <Energy>  (70) 
61.29276376191369

>  <Genealogy>  (70) 
O=C(c1ccc(/N=N\c2cccc(C(F)(F)F)c2)nc1)c1cc(Cl)ccc1O (cis-trans isomerization)
O=C(c1ccc(/N=N\c2cccc(C(F)(F)F)c2)nc1)c1cc(Cl)ccc1O (3D coordinates assigned)
O=C(c1ccc(/N=N\c2cccc(C(F)(F)F)c2)nc1)c1cc(Cl)ccc1O (optimized conformer: 61.29276376191369 kcal/mol)

>  <smiles>  (70) 
O=C(c1ccc(N=Nc2cccc(C(F)(F)F)c2)nc1)c1cc(Cl)ccc1O

>  <score_type>  (70) 
oracle

>  <origin>  (70) 
adg

>  <m_score__min__energy>  (70) 
-10.130000000000001

>  <m_primary>  (70) 
energy

$$$$
70:0
     RDKit          3D

 39 41  0  0  0  0  0  0  0  0999 V2000
   54.9080   24.4210   44.9020 C   0  0  0  0  0  0  0  0  0  0  0  0
   55.8190   23.4070   44.2860 C   0  0  0  0  0  0  0  0  0  0  0  0
   55.4500   22.7230   43.1580 N   0  0  0  0  0  0  0  0  0  0  0  0
   56.3390   21.8340   42.7230 N   0  0  0  0  0  0  0  0  0  0  0  0
   57.6350   21.8720   43.7570 S   0  0  0  0  0  0  0  0  0  0  0  0
   57.0750   23.0510   44.7990 C   0  0  0  0  0  0  0  0  0  0  0  0
   57.7840   23.5590   45.9850 C   0  0  0  0  0  0  0  0  0  0  0  0
   57.7290   22.9050   47.0610 O   0  0  0  0  0  0  0  0  0  0  0  0
   58.4750   24.8130   45.9330 N   0  0  0  0  0  0  0  0  0  0  0  0
   57.9780   26.0580   45.4260 C   0  0  0  0  0  0  0  0  0  0  0  0
   58.1580   26.3450   44.0680 C   0  0  0  0  0  0  0  0  0  0  0  0
   57.7700   27.5800   43.5450 C   0  0  0  0  0  0  0  0  0  0  0  0
   57.2150   28.5570   44.3820 C   0  0  0  0  0  0  0  0  0  0  0  0
   56.8680   30.1600   43.7350 S   0  0  0  0  0  0  0  0  0  0  0  0
   56.4090   30.0140   42.3100 O   0  0  0  0  0  0  0  0  0  0  0  0
   55.7690   30.8150   44.5250 O   0  0  0  0  0  0  0  0  0  0  0  0
   58.2900   31.1620   43.7760 N   0  0  0  0  0  0  0  0  0  0  0  0
   57.9420   32.5840   43.7050 C   0  0  0  0  0  0  0  0  0  0  0  0
   58.3230   33.2950   44.9790 C   0  0  0  0  0  0  0  0  0  0  0  0
   59.2460   34.3530   44.9620 C   0  0  0  0  0  0  0  0  0  0  0  0
   59.5630   35.0250   46.1440 C   0  0  0  0  0  0  0  0  0  0  0  0
   58.9690   34.6200   47.3400 C   0  0  0  0  0  0  0  0  0  0  0  0
   58.1000   33.5740   47.3500 N   0  0  0  0  0  0  0  0  0  0  0  0
   57.7710   32.9050   46.2100 C   0  0  0  0  0  0  0  0  0  0  0  0
   57.0310   28.2780   45.7420 C   0  0  0  0  0  0  0  0  0  0  0  0
   57.4110   27.0350   46.2640 C   0  0  0  0  0  0  0  0  0  0  0  0
   54.9701   24.3519   45.9981 H   0  0  0  0  0  0  0  0  0  0  0  0
   55.2101   25.4286   44.5805 H   0  0  0  0  0  0  0  0  0  0  0  0
   53.8739   24.2282   44.5805 H   0  0  0  0  0  0  0  0  0  0  0  0
   58.6093   25.5906   43.4067 H   0  0  0  0  0  0  0  0  0  0  0  0
   57.9004   27.7866   42.4725 H   0  0  0  0  0  0  0  0  0  0  0  0
   58.4776   33.0443   42.8616 H   0  0  0  0  0  0  0  0  0  0  0  0
   56.8547   32.6733   43.5641 H   0  0  0  0  0  0  0  0  0  0  0  0
   59.7201   34.6529   44.0158 H   0  0  0  0  0  0  0  0  0  0  0  0
   60.2734   35.8648   46.1326 H   0  0  0  0  0  0  0  0  0  0  0  0
   59.2040   35.1476   48.2761 H   0  0  0  0  0  0  0  0  0  0  0  0
   57.0713   32.0573   46.2537 H   0  0  0  0  0  0  0  0  0  0  0  0
   56.5867   29.0373   46.4023 H   0  0  0  0  0  0  0  0  0  0  0  0
   57.2654   26.8221   47.3333 H   0  0  0  0  0  0  0  0  0  0  0  0
  1  2  1  0
  2  3  1  0
  3  4  2  0
  4  5  1  0
  5  6  1  0
  6  7  1  0
  7  8  2  0
  7  9  1  0
  9 10  1  0
 10 11  2  0
 11 12  1  0
 12 13  2  0
 13 14  1  0
 14 15  2  0
 14 16  2  0
 14 17  1  0
 17 18  1  0
 18 19  1  0
 19 20  2  0
 20 21  1  0
 21 22  2  0
 22 23  1  0
 23 24  2  0
 13 25  1  0
 25 26  2  0
  6  2  2  0
 26 10  1  0
 24 19  1  0
  1 27  1  0
  1 28  1  0
  1 29  1  0
 11 30  1  0
 12 31  1  0
 18 32  1  0
 18 33  1  0
 20 34  1  0
 21 35  1  0
 22 36  1  0
 24 37  1  0
 25 38  1  0
 26 39  1  0
M  CHG  2   9  -1  17  -1
M  END
>  <UniqueID>  (71) 
61

>  <SMILES>  (71) 
Cc1nnsc1C(=O)[N-]c1ccc(S(=O)(=O)[N-]Cc2cccnc2)cc1

>  <Energy>  (71) 
78.03325305679007

>  <Genealogy>  (71) 
Cc1nnsc1C(=O)[N-]c1ccc(S(=O)(=O)[N-]Cc2cccnc2)cc1 (protonated)
Cc1nnsc1C(=O)[N-]c1ccc(S(=O)(=O)[N-]Cc2cccnc2)cc1 (3D coordinates assigned)
Cc1nnsc1C(=O)[N-]c1ccc(S(=O)(=O)[N-]Cc2cccnc2)cc1 (optimized conformer: 78.03325305679007 kcal/mol)

>  <smiles>  (71) 
Cc1nnsc1C(=O)Nc1ccc(S(=O)(=O)NCc2cccnc2)cc1

>  <score_type>  (71) 
oracle

>  <origin>  (71) 
adg

>  <m_score__min__energy>  (71) 
-12.27

>  <m_primary>  (71) 
energy

$$$$
71:0
     RDKit          3D

 36 39  0  0  0  0  0  0  0  0999 V2000
   56.4750   29.3880   42.4480 N   0  0  0  0  0  0  0  0  0  0  0  0
   56.2180   29.7400   43.8110 C   0  0  0  0  0  0  0  0  0  0  0  0
   55.1380   29.3650   44.3410 O   0  0  0  0  0  0  0  0  0  0  0  0
   57.1980   30.5160   44.6100 C   0  0  0  0  0  0  0  0  0  0  0  0
   57.2470   31.9160   44.4930 C   0  0  0  0  0  0  0  0  0  0  0  0
   58.1670   32.6610   45.2360 C   0  0  0  0  0  0  0  0  0  0  0  0
   59.0550   32.0200   46.1130 C   0  0  0  0  0  0  0  0  0  0  0  0
   60.0150   32.7790   46.8690 N   0  0  0  0  0  0  0  0  0  0  0  0
   61.1100   33.4140   46.3800 C   0  0  0  0  0  0  0  0  0  0  0  0
   61.8230   34.0680   47.3340 N   0  0  0  0  0  0  0  0  0  0  0  0
   61.1310   33.8110   48.4590 C   0  0  0  0  0  0  0  0  0  0  0  0
   61.4410   34.2190   49.7510 C   0  0  0  0  0  0  0  0  0  0  0  0
   60.5980   33.7970   50.7940 C   0  0  0  0  0  0  0  0  0  0  0  0
   59.4720   32.9670   50.5340 C   0  0  0  0  0  0  0  0  0  0  0  0
   58.5970   32.5120   51.6450 C   0  0  0  0  0  0  0  0  0  0  0  0
   57.6100   31.5430   51.5850 C   0  0  0  0  0  0  0  0  0  0  0  0
   57.0710   31.4730   52.8530 C   0  0  0  0  0  0  0  0  0  0  0  0
   57.6770   32.3310   53.6400 O   0  0  0  0  0  0  0  0  0  0  0  0
   58.5950   32.9700   52.9520 C   0  0  0  0  0  0  0  0  0  0  0  0
   59.1990   32.5730   49.2010 C   0  0  0  0  0  0  0  0  0  0  0  0
   60.0440   33.0350   48.1890 C   0  0  0  0  0  0  0  0  0  0  0  0
   59.0310   30.6220   46.2100 C   0  0  0  0  0  0  0  0  0  0  0  0
   58.1100   29.8750   45.4690 C   0  0  0  0  0  0  0  0  0  0  0  0
   57.4110   29.5320   42.0100 H   0  0  0  0  0  0  0  0  0  0  0  0
   55.7440   28.8930   41.8930 H   0  0  0  0  0  0  0  0  0  0  0  0
   56.5546   32.4301   43.8101 H   0  0  0  0  0  0  0  0  0  0  0  0
   58.1950   33.7558   45.1326 H   0  0  0  0  0  0  0  0  0  0  0  0
   61.3924   33.4006   45.3169 H   0  0  0  0  0  0  0  0  0  0  0  0
   62.3181   34.8520   49.9511 H   0  0  0  0  0  0  0  0  0  0  0  0
   60.8120   34.1130   51.8257 H   0  0  0  0  0  0  0  0  0  0  0  0
   57.3158   30.9503   50.7063 H   0  0  0  0  0  0  0  0  0  0  0  0
   56.2564   30.7998   53.1584 H   0  0  0  0  0  0  0  0  0  0  0  0
   59.2602   33.7493   53.3523 H   0  0  0  0  0  0  0  0  0  0  0  0
   58.3443   31.9206   48.9689 H   0  0  0  0  0  0  0  0  0  0  0  0
   59.7420   30.1086   46.8740 H   0  0  0  0  0  0  0  0  0  0  0  0
   58.0983   28.7787   45.5581 H   0  0  0  0  0  0  0  0  0  0  0  0
  1  2  1  0
  2  3  2  0
  2  4  1  0
  4  5  2  0
  5  6  1  0
  6  7  2  0
  7  8  1  0
  8  9  1  0
  9 10  2  0
 10 11  1  0
 11 12  2  0
 12 13  1  0
 13 14  2  0
 14 15  1  0
 15 16  1  0
 16 17  2  0
 17 18  1  0
 18 19  1  0
 14 20  1  0
 20 21  2  0
  7 22  1  0
 22 23  2  0
 23  4  1  0
 21  8  1  0
 21 11  1  0
 19 15  2  0
  1 24  1  0
  1 25  1  0
  5 26  1  0
  6 27  1  0
  9 28  1  0
 12 29  1  0
 13 30  1  0
 16 31  1  0
 17 32  1  0
 19 33  1  0
 20 34  1  0
 22 35  1  0
 23 36  1  0
M  END
>  <UniqueID>  (72) 
62

>  <SMILES>  (72) 
NC(=O)c1ccc(-n2cnc3ccc(-c4ccoc4)cc32)cc1

>  <Energy>  (72) 
113.1400245736272

>  <Genealogy>  (72) 
NC(=O)c1ccc(-n2cnc3ccc(-c4ccoc4)cc32)cc1 (3D coordinates assigned)
NC(=O)c1ccc(-n2cnc3ccc(-c4ccoc4)cc32)cc1 (optimized conformer: 113.1400245736272 kcal/mol)

>  <smiles>  (72) 
NC(=O)c1ccc(-n2cnc3ccc(-c4ccoc4)cc32)cc1

>  <score_type>  (72) 
oracle

>  <origin>  (72) 
adg

>  <m_score__min__energy>  (72) 
-7.5599999999999996

>  <m_primary>  (72) 
energy

$$$$
72:0
     RDKit          3D

 34 35  0  0  0  0  0  0  0  0999 V2000
   56.4540   24.8330   44.5800 N   0  0  0  0  0  0  0  0  0  0  0  0
   56.1760   25.7350   46.0290 S   0  0  0  0  0  0  0  0  0  0  0  0
   56.2620   24.8170   47.2150 O   0  0  0  0  0  0  0  0  0  0  0  0
   54.8010   26.3410   45.9870 O   0  0  0  0  0  0  0  0  0  0  0  0
   57.3810   27.0120   46.1700 C   0  0  0  0  0  0  0  0  0  0  0  0
   58.4440   26.8850   47.0740 C   0  0  0  0  0  0  0  0  0  0  0  0
   59.4150   27.8860   47.1570 C   0  0  0  0  0  0  0  0  0  0  0  0
   59.3240   29.0210   46.3460 C   0  0  0  0  0  0  0  0  0  0  0  0
   58.2520   29.1700   45.4570 C   0  0  0  0  0  0  0  0  0  0  0  0
   58.2020   30.3310   44.6180 N   0  0  0  0  0  0  0  0  0  0  0  0
   57.1500   31.3050   44.5610 C   0  0  0  0  0  0  0  0  0  0  0  0
   55.9570   30.9040   44.5410 O   0  0  0  0  0  0  0  0  0  0  0  0
   57.4270   32.7760   44.4100 C   0  0  0  0  0  0  0  0  0  0  0  0
   57.3160   33.6440   46.0160 S   0  0  0  0  0  0  0  0  0  0  0  0
   59.0350   33.4000   46.4730 C   0  0  0  0  0  0  0  0  0  0  0  0
   60.0000   34.3470   46.1050 C   0  0  0  0  0  0  0  0  0  0  0  0
   61.3410   34.1520   46.4490 C   0  0  0  0  0  0  0  0  0  0  0  0
   61.7240   33.0040   47.1540 C   0  0  0  0  0  0  0  0  0  0  0  0
   63.4070   32.7590   47.5830 Cl  0  0  0  0  0  0  0  0  0  0  0  0
   60.7630   32.0510   47.5110 C   0  0  0  0  0  0  0  0  0  0  0  0
   59.4210   32.2460   47.1670 C   0  0  0  0  0  0  0  0  0  0  0  0
   57.2980   28.1450   45.3500 C   0  0  0  0  0  0  0  0  0  0  0  0
   56.3910   25.5050   43.7840 H   0  0  0  0  0  0  0  0  0  0  0  0
   57.4430   24.4980   44.6150 H   0  0  0  0  0  0  0  0  0  0  0  0
   58.5140   25.9965   47.7188 H   0  0  0  0  0  0  0  0  0  0  0  0
   60.2529   27.7808   47.8619 H   0  0  0  0  0  0  0  0  0  0  0  0
   60.0977   29.8005   46.4063 H   0  0  0  0  0  0  0  0  0  0  0  0
   58.4391   32.9094   44.0002 H   0  0  0  0  0  0  0  0  0  0  0  0
   56.6724   33.2027   43.7329 H   0  0  0  0  0  0  0  0  0  0  0  0
   59.7020   35.2453   45.5445 H   0  0  0  0  0  0  0  0  0  0  0  0
   62.0956   34.9006   46.1658 H   0  0  0  0  0  0  0  0  0  0  0  0
   61.0632   31.1479   48.0626 H   0  0  0  0  0  0  0  0  0  0  0  0
   58.6682   31.4924   47.4417 H   0  0  0  0  0  0  0  0  0  0  0  0
   56.4812   28.2321   44.6184 H   0  0  0  0  0  0  0  0  0  0  0  0
  1  2  1  0
  2  3  2  0
  2  4  2  0
  2  5  1  0
  5  6  2  0
  6  7  1  0
  7  8  2  0
  8  9  1  0
  9 10  1  0
 10 11  1  0
 11 12  2  0
 11 13  1  0
 13 14  1  0
 14 15  1  0
 15 16  2  0
 16 17  1  0
 17 18  2  0
 18 19  1  0
 18 20  1  0
 20 21  2  0
  9 22  2  0
 22  5  1  0
 21 15  1  0
  1 23  1  0
  1 24  1  0
  6 25  1  0
  7 26  1  0
  8 27  1  0
 13 28  1  0
 13 29  1  0
 16 30  1  0
 17 31  1  0
 20 32  1  0
 21 33  1  0
 22 34  1  0
M  CHG  1  10  -1
M  END
>  <UniqueID>  (73) 
63

>  <SMILES>  (73) 
NS(=O)(=O)c1cccc([N-]C(=O)CSc2ccc(Cl)cc2)c1

>  <Energy>  (73) 
33.9408714605284

>  <Genealogy>  (73) 
NS(=O)(=O)c1cccc([N-]C(=O)CSc2ccc(Cl)cc2)c1 (protonated)
NS(=O)(=O)c1cccc([N-]C(=O)CSc2ccc(Cl)cc2)c1 (3D coordinates assigned)
NS(=O)(=O)c1cccc([N-]C(=O)CSc2ccc(Cl)cc2)c1 (optimized conformer: 33.9408714605284 kcal/mol)

>  <smiles>  (73) 
NS(=O)(=O)c1cccc(NC(=O)CSc2ccc(Cl)cc2)c1

>  <score_type>  (73) 
oracle

>  <origin>  (73) 
adg

>  <m_score__min__energy>  (73) 
-10.84

>  <m_primary>  (73) 
energy

$$$$
73:0
     RDKit          3D

 59 63  0  0  0  0  0  0  0  0999 V2000
   57.4280   32.6030   47.1900 O   0  0  0  0  0  0  0  0  0  0  0  0
   58.1650   33.2900   46.4340 C   0  0  0  0  0  0  0  0  0  0  0  0
   59.1290   34.2100   46.9040 N   0  0  0  0  0  0  0  0  0  0  0  0
   59.3830   34.5620   48.3010 C   0  0  0  0  0  0  0  0  0  0  0  0
   59.6450   33.3150   49.1690 C   0  0  0  0  0  0  0  0  0  0  0  0
   60.9270   32.5480   48.7910 C   0  0  0  0  0  0  0  0  0  0  0  0
   60.7160   31.4730   47.7190 C   0  0  0  0  0  0  0  0  0  0  0  0
   60.0750   30.2700   48.3020 N   0  0  0  0  0  0  0  0  0  0  0  0
   58.6240   30.1890   48.0270 C   0  0  0  0  0  0  0  0  0  0  0  0
   58.3110   29.8010   46.5700 C   0  0  0  0  0  0  0  0  0  0  0  0
   59.1340   28.6690   46.1410 N   0  0  0  0  0  0  0  0  0  0  0  0
   58.6740   27.8620   45.0520 C   0  0  0  0  0  0  0  0  0  0  0  0
   58.6650   28.3290   43.7750 N   0  0  0  0  0  0  0  0  0  0  0  0
   58.0470   27.1150   42.8150 S   0  0  0  0  0  0  0  0  0  0  0  0
   57.7830   25.9770   44.0060 C   0  0  0  0  0  0  0  0  0  0  0  0
   57.2650   24.6890   43.9170 C   0  0  0  0  0  0  0  0  0  0  0  0
   57.1540   23.9450   45.1020 C   0  0  0  0  0  0  0  0  0  0  0  0
   57.5620   24.5010   46.3330 C   0  0  0  0  0  0  0  0  0  0  0  0
   58.0810   25.8070   46.3920 C   0  0  0  0  0  0  0  0  0  0  0  0
   58.1860   26.5440   45.2070 C   0  0  0  0  0  0  0  0  0  0  0  0
   60.5600   28.6590   46.4650 C   0  0  0  0  0  0  0  0  0  0  0  0
   60.7590   29.0120   47.9400 C   0  0  0  0  0  0  0  0  0  0  0  0
   59.7070   34.8850   45.7450 C   0  0  0  0  0  0  0  0  0  0  0  0
   59.0610   34.2210   44.5030 C   0  0  0  0  0  0  0  0  0  0  0  0
   58.1160   33.2350   45.0220 N   0  0  0  0  0  0  0  0  0  0  0  0
   57.4710   32.2270   44.2290 C   0  0  0  0  0  0  0  0  0  0  0  0
   57.6880   32.1780   42.8850 N   0  0  0  0  0  0  0  0  0  0  0  0
   57.1090   31.2200   42.1170 C   0  0  0  0  0  0  0  0  0  0  0  0
   56.2780   30.2650   42.7030 C   0  0  0  0  0  0  0  0  0  0  0  0
   56.0680   30.3250   44.0790 C   0  0  0  0  0  0  0  0  0  0  0  0
   56.6630   31.2990   44.8140 N   0  0  0  0  0  0  0  0  0  0  0  0
   60.2637   35.2194   48.3477 H   0  0  0  0  0  0  0  0  0  0  0  0
   58.4889   35.0689   48.6931 H   0  0  0  0  0  0  0  0  0  0  0  0
   59.7297   33.6350   50.2180 H   0  0  0  0  0  0  0  0  0  0  0  0
   58.8019   32.6282   49.0031 H   0  0  0  0  0  0  0  0  0  0  0  0
   61.6651   33.2717   48.4148 H   0  0  0  0  0  0  0  0  0  0  0  0
   61.2677   32.0296   49.6994 H   0  0  0  0  0  0  0  0  0  0  0  0
   60.0709   31.8768   46.9248 H   0  0  0  0  0  0  0  0  0  0  0  0
   61.6952   31.1874   47.3071 H   0  0  0  0  0  0  0  0  0  0  0  0
   58.1820   29.4342   48.6939 H   0  0  0  0  0  0  0  0  0  0  0  0
   58.1987   31.1884   48.2011 H   0  0  0  0  0  0  0  0  0  0  0  0
   57.2493   29.5242   46.4914 H   0  0  0  0  0  0  0  0  0  0  0  0
   58.5334   30.6618   45.9222 H   0  0  0  0  0  0  0  0  0  0  0  0
   58.9810   29.2730   43.4590 H   0  0  0  0  0  0  0  0  0  0  0  0
   56.9528   24.2676   42.9501 H   0  0  0  0  0  0  0  0  0  0  0  0
   56.7470   22.9235   45.0709 H   0  0  0  0  0  0  0  0  0  0  0  0
   57.4734   23.9077   47.2550 H   0  0  0  0  0  0  0  0  0  0  0  0
   58.3984   26.2409   47.3517 H   0  0  0  0  0  0  0  0  0  0  0  0
   60.9716   27.6576   46.2705 H   0  0  0  0  0  0  0  0  0  0  0  0
   61.0794   29.4011   45.8408 H   0  0  0  0  0  0  0  0  0  0  0  0
   60.3552   28.1969   48.5584 H   0  0  0  0  0  0  0  0  0  0  0  0
   61.8364   29.1467   48.1161 H   0  0  0  0  0  0  0  0  0  0  0  0
   59.4717   35.9592   45.7708 H   0  0  0  0  0  0  0  0  0  0  0  0
   60.8031   34.7933   45.7285 H   0  0  0  0  0  0  0  0  0  0  0  0
   58.5348   34.9734   43.8972 H   0  0  0  0  0  0  0  0  0  0  0  0
   59.8176   33.7535   43.8556 H   0  0  0  0  0  0  0  0  0  0  0  0
   57.2950   31.1968   41.0331 H   0  0  0  0  0  0  0  0  0  0  0  0
   55.8002   29.4837   42.0936 H   0  0  0  0  0  0  0  0  0  0  0  0
   55.4204   29.5835   44.5696 H   0  0  0  0  0  0  0  0  0  0  0  0
  1  2  2  0
  2  3  1  0
  3  4  1  0
  4  5  1  0
  5  6  1  0
  6  7  1  0
  7  8  1  0
  8  9  1  0
  9 10  1  0
 10 11  1  0
 11 12  1  0
 12 13  2  0
 13 14  1  0
 14 15  1  0
 15 16  2  0
 16 17  1  0
 17 18  2  0
 18 19  1  0
 19 20  2  0
 11 21  1  0
 21 22  1  0
  3 23  1  0
 23 24  1  0
 24 25  1  0
 25 26  1  0
 26 27  2  0
 27 28  1  0
 28 29  2  0
 29 30  1  0
 30 31  2  0
 25  2  1  0
 31 26  1  0
 22  8  1  0
 20 12  1  0
 20 15  1  0
  4 32  1  0
  4 33  1  0
  5 34  1  0
  5 35  1  0
  6 36  1  0
  6 37  1  0
  7 38  1  0
  7 39  1  0
  9 40  1  0
  9 41  1  0
 10 42  1  0
 10 43  1  0
 13 44  1  0
 16 45  1  0
 17 46  1  0
 18 47  1  0
 19 48  1  0
 21 49  1  0
 21 50  1  0
 22 51  1  0
 22 52  1  0
 23 53  1  0
 23 54  1  0
 24 55  1  0
 24 56  1  0
 28 57  1  0
 29 58  1  0
 30 59  1  0
M  CHG  1  13   1
M  END
>  <UniqueID>  (74) 
64

>  <SMILES>  (74) 
O=C1N(CCCCN2CCN(c3[nH+]sc4ccccc34)CC2)CCN1c1ncccn1

>  <Energy>  (74) 
120.03634337358068

>  <Genealogy>  (74) 
O=C1N(CCCCN2CCN(c3[nH+]sc4ccccc34)CC2)CCN1c1ncccn1 (protonated)
O=C1N(CCCCN2CCN(c3[nH+]sc4ccccc34)CC2)CCN1c1ncccn1 (3D coordinates assigned)
O=C1N(CCCCN2CCN(c3[nH+]sc4ccccc34)CC2)CCN1c1ncccn1 (nonaromatic ring conformer: 120.03634337358068 kcal/mol)

>  <smiles>  (74) 
O=C1N(CCCCN2CCN(c3nsc4ccccc34)CC2)CCN1c1ncccn1

>  <score_type>  (74) 
oracle

>  <origin>  (74) 
adg

>  <m_score__min__energy>  (74) 
-7.3600000000000003

>  <m_primary>  (74) 
energy

$$$$
74:0
     RDKit          3D

 30 31  0  0  0  0  0  0  0  0999 V2000
   57.2900   33.8730   45.9190 C   0  0  0  0  0  0  0  0  0  0  0  0
   58.5480   34.4730   46.3930 N   0  0  0  0  0  0  0  0  0  0  0  0
   59.5140   34.6240   45.2940 C   0  0  0  0  0  0  0  0  0  0  0  0
   59.1150   33.7730   47.5690 C   0  0  0  0  0  0  0  0  0  0  0  0
   58.8840   32.2530   47.5720 C   0  0  0  0  0  0  0  0  0  0  0  0
   59.9910   31.4650   46.3560 S   0  0  0  0  0  0  0  0  0  0  0  0
   58.9560   30.0120   46.1760 C   0  0  0  0  0  0  0  0  0  0  0  0
   59.3590   28.7640   46.6890 C   0  0  0  0  0  0  0  0  0  0  0  0
   58.5320   27.6250   46.5420 C   0  0  0  0  0  0  0  0  0  0  0  0
   57.2860   27.7170   45.8770 C   0  0  0  0  0  0  0  0  0  0  0  0
   56.4370   26.5650   45.7230 N   0  0  0  0  0  0  0  0  0  0  0  0
   55.2230   26.6200   46.0070 O   0  0  0  0  0  0  0  0  0  0  0  0
   56.9550   25.3770   45.2580 O   0  0  0  0  0  0  0  0  0  0  0  0
   56.9290   28.9790   45.3810 C   0  0  0  0  0  0  0  0  0  0  0  0
   55.8250   29.3560   44.7200 N   0  0  0  0  0  0  0  0  0  0  0  0
   55.9950   30.6350   44.4940 O   0  0  0  0  0  0  0  0  0  0  0  0
   57.1210   31.1190   44.9550 N   0  0  0  0  0  0  0  0  0  0  0  0
   57.7270   30.0680   45.5250 C   0  0  0  0  0  0  0  0  0  0  0  0
   56.6753   33.5798   46.7828 H   0  0  0  0  0  0  0  0  0  0  0  0
   56.7407   34.6061   45.3100 H   0  0  0  0  0  0  0  0  0  0  0  0
   57.5140   32.9848   45.3100 H   0  0  0  0  0  0  0  0  0  0  0  0
   60.5203   34.7813   45.7094 H   0  0  0  0  0  0  0  0  0  0  0  0
   59.5107   33.7144   44.6754 H   0  0  0  0  0  0  0  0  0  0  0  0
   59.2333   35.4892   44.6754 H   0  0  0  0  0  0  0  0  0  0  0  0
   60.1993   33.9568   47.5897 H   0  0  0  0  0  0  0  0  0  0  0  0
   58.5970   34.1723   48.4535 H   0  0  0  0  0  0  0  0  0  0  0  0
   59.0962   31.8522   48.5742 H   0  0  0  0  0  0  0  0  0  0  0  0
   57.8380   32.0415   47.3053 H   0  0  0  0  0  0  0  0  0  0  0  0
   60.3245   28.6737   47.2082 H   0  0  0  0  0  0  0  0  0  0  0  0
   58.8612   26.6576   46.9491 H   0  0  0  0  0  0  0  0  0  0  0  0
  1  2  1  0
  2  3  1  0
  2  4  1  0
  4  5  1  0
  5  6  1  0
  6  7  1  0
  7  8  2  0
  8  9  1  0
  9 10  2  0
 10 11  1  0
 11 12  2  0
 11 13  1  0
 10 14  1  0
 14 15  2  0
 15 16  1  0
 16 17  1  0
 17 18  2  0
 18  7  1  0
 18 14  1  0
  1 19  1  0
  1 20  1  0
  1 21  1  0
  3 22  1  0
  3 23  1  0
  3 24  1  0
  4 25  1  0
  4 26  1  0
  5 27  1  0
  5 28  1  0
  8 29  1  0
  9 30  1  0
M  CHG  2  11   1  13  -1
M  END
>  <UniqueID>  (75) 
65

>  <SMILES>  (75) 
CN(C)CCSc1ccc([N+](=O)[O-])c2nonc12

>  <Energy>  (75) 
71.39655002499863

>  <Genealogy>  (75) 
CN(C)CCSc1ccc([N+](=O)[O-])c2nonc12 (3D coordinates assigned)
CN(C)CCSc1ccc([N+](=O)[O-])c2nonc12 (optimized conformer: 71.39655002499863 kcal/mol)

>  <smiles>  (75) 
CN(C)CCSc1ccc([N+](=O)[O-])c2nonc12

>  <score_type>  (75) 
oracle

>  <origin>  (75) 
adg

>  <m_score__min__energy>  (75) 
-7.4000000000000004

>  <m_primary>  (75) 
energy

$$$$
75:0
     RDKit          3D

 22 23  0  0  0  0  0  0  0  0999 V2000
   50.0380   30.8830   53.5650 O   0  0  0  0  0  0  0  0  0  0  0  0
   51.1850   30.8400   53.0440 C   0  0  0  0  0  0  0  0  0  0  0  0
   52.0820   29.8960   53.4450 N   0  0  0  0  0  0  0  0  0  0  0  0
   53.3120   29.8240   52.9170 N   0  0  0  0  0  0  0  0  0  0  0  0
   54.2150   28.8030   53.3880 C   0  0  0  0  0  0  0  0  0  0  0  0
   55.5270   29.1370   53.7690 C   0  0  0  0  0  0  0  0  0  0  0  0
   56.3960   28.1500   54.2420 C   0  0  0  0  0  0  0  0  0  0  0  0
   55.9630   26.8250   54.3430 C   0  0  0  0  0  0  0  0  0  0  0  0
   54.6600   26.4850   53.9710 C   0  0  0  0  0  0  0  0  0  0  0  0
   53.7850   27.4690   53.4970 C   0  0  0  0  0  0  0  0  0  0  0  0
   52.5280   27.1200   53.1260 F   0  0  0  0  0  0  0  0  0  0  0  0
   53.7020   30.7030   51.9390 C   0  0  0  0  0  0  0  0  0  0  0  0
   54.8490   30.6280   51.4180 O   0  0  0  0  0  0  0  0  0  0  0  0
   52.8160   31.6870   51.5010 C   0  0  0  0  0  0  0  0  0  0  0  0
   51.5440   31.7570   52.0580 C   0  0  0  0  0  0  0  0  0  0  0  0
   50.6470   32.7310   51.6320 O   0  0  0  0  0  0  0  0  0  0  0  0
   51.7950   29.2260   54.1960 H   0  0  0  0  0  0  0  0  0  0  0  0
   55.8705   30.1793   53.6944 H   0  0  0  0  0  0  0  0  0  0  0  0
   57.4222   28.4163   54.5352 H   0  0  0  0  0  0  0  0  0  0  0  0
   56.6484   26.0495   54.7155 H   0  0  0  0  0  0  0  0  0  0  0  0
   54.3211   25.4416   54.0508 H   0  0  0  0  0  0  0  0  0  0  0  0
   53.1208   32.4012   50.7219 H   0  0  0  0  0  0  0  0  0  0  0  0
  1  2  2  0
  2  3  1  0
  3  4  1  0
  4  5  1  0
  5  6  2  0
  6  7  1  0
  7  8  2  0
  8  9  1  0
  9 10  2  0
 10 11  1  0
  4 12  1  0
 12 13  2  0
 12 14  1  0
 14 15  2  0
 15 16  1  0
 15  2  1  0
 10  5  1  0
  3 17  1  0
  6 18  1  0
  7 19  1  0
  8 20  1  0
  9 21  1  0
 14 22  1  0
M  CHG  1  16  -1
M  END
>  <UniqueID>  (76) 
66

>  <SMILES>  (76) 
O=c1[nH]n(-c2ccccc2F)c(=O)cc1[O-]

>  <Energy>  (76) 
32.34078575821197

>  <Genealogy>  (76) 
O=c1[nH]n(-c2ccccc2F)c(=O)cc1[O-] (protonated)
O=c1[nH]n(-c2ccccc2F)c(=O)cc1[O-] (3D coordinates assigned)
O=c1[nH]n(-c2ccccc2F)c(=O)cc1[O-] (optimized conformer: 32.34078575821197 kcal/mol)

>  <smiles>  (76) 
O=c1[nH]n(-c2ccccc2F)c(=O)cc1O

>  <score_type>  (76) 
oracle

>  <origin>  (76) 
adg

>  <m_score__min__energy>  (76) 
-9.1999999999999993

>  <m_primary>  (76) 
energy

$$$$
76:0
     RDKit          3D

 43 46  0  0  0  0  0  0  0  0999 V2000
   54.7690   26.2540   45.9920 N   0  0  0  0  0  0  0  0  0  0  0  0
   56.3450   25.5690   46.1790 S   0  0  0  0  0  0  0  0  0  0  0  0
   56.5980   24.5870   45.0690 O   0  0  0  0  0  0  0  0  0  0  0  0
   56.4250   24.8430   47.4920 O   0  0  0  0  0  0  0  0  0  0  0  0
   57.5510   26.8500   46.1300 C   0  0  0  0  0  0  0  0  0  0  0  0
   58.3010   27.1580   47.2750 C   0  0  0  0  0  0  0  0  0  0  0  0
   59.2670   28.1670   47.2320 C   0  0  0  0  0  0  0  0  0  0  0  0
   59.5180   28.8540   46.0330 C   0  0  0  0  0  0  0  0  0  0  0  0
   60.4680   29.9270   45.9840 N   0  0  0  0  0  0  0  0  0  0  0  0
   60.4140   31.1260   46.5080 C   0  0  0  0  0  0  0  0  0  0  0  0
   61.4020   31.4320   47.4500 C   0  0  0  0  0  0  0  0  0  0  0  0
   61.5690   32.7430   47.9150 C   0  0  0  0  0  0  0  0  0  0  0  0
   62.6530   33.0660   48.8770 C   0  0  0  0  0  0  0  0  0  0  0  0
   63.9300   32.4960   48.7230 C   0  0  0  0  0  0  0  0  0  0  0  0
   64.9520   32.7960   49.6280 C   0  0  0  0  0  0  0  0  0  0  0  0
   64.7120   33.6640   50.6950 C   0  0  0  0  0  0  0  0  0  0  0  0
   63.4490   34.2350   50.8600 C   0  0  0  0  0  0  0  0  0  0  0  0
   62.4220   33.9380   49.9570 C   0  0  0  0  0  0  0  0  0  0  0  0
   60.7400   33.7250   47.4640 N   0  0  0  0  0  0  0  0  0  0  0  0
   59.6960   33.4600   46.6280 C   0  0  0  0  0  0  0  0  0  0  0  0
   58.8210   34.4970   46.2620 C   0  0  0  0  0  0  0  0  0  0  0  0
   57.6830   34.2270   45.5050 C   0  0  0  0  0  0  0  0  0  0  0  0
   57.3880   32.9190   45.1360 C   0  0  0  0  0  0  0  0  0  0  0  0
   58.2520   31.8770   45.4790 C   0  0  0  0  0  0  0  0  0  0  0  0
   59.4660   32.1350   46.1620 C   0  0  0  0  0  0  0  0  0  0  0  0
   58.7480   28.5670   44.9000 C   0  0  0  0  0  0  0  0  0  0  0  0
   57.7790   27.5590   44.9430 C   0  0  0  0  0  0  0  0  0  0  0  0
   54.7260   27.0920   46.6150 H   0  0  0  0  0  0  0  0  0  0  0  0
   58.1282   26.6037   48.2093 H   0  0  0  0  0  0  0  0  0  0  0  0
   59.8324   28.4239   48.1399 H   0  0  0  0  0  0  0  0  0  0  0  0
   62.0559   30.6334   47.8303 H   0  0  0  0  0  0  0  0  0  0  0  0
   64.1253   31.8102   47.8854 H   0  0  0  0  0  0  0  0  0  0  0  0
   65.9480   32.3471   49.4993 H   0  0  0  0  0  0  0  0  0  0  0  0
   65.5183   33.8979   51.4057 H   0  0  0  0  0  0  0  0  0  0  0  0
   63.2608   34.9191   51.7006 H   0  0  0  0  0  0  0  0  0  0  0  0
   61.4279   34.3890   50.0923 H   0  0  0  0  0  0  0  0  0  0  0  0
   60.8980   34.7090   47.7830 H   0  0  0  0  0  0  0  0  0  0  0  0
   59.0361   35.5292   46.5754 H   0  0  0  0  0  0  0  0  0  0  0  0
   57.0180   35.0482   45.1993 H   0  0  0  0  0  0  0  0  0  0  0  0
   56.4691   32.7041   44.5709 H   0  0  0  0  0  0  0  0  0  0  0  0
   57.9865   30.8426   45.2155 H   0  0  0  0  0  0  0  0  0  0  0  0
   58.9054   29.1363   43.9721 H   0  0  0  0  0  0  0  0  0  0  0  0
   57.1941   27.3221   44.0420 H   0  0  0  0  0  0  0  0  0  0  0  0
  1  2  1  0
  2  3  2  0
  2  4  2  0
  2  5  1  0
  5  6  2  0
  6  7  1  0
  7  8  2  0
  8  9  1  0
  9 10  2  3
 10 11  1  0
 11 12  2  0
 12 13  1  0
 13 14  2  0
 14 15  1  0
 15 16  2  0
 16 17  1  0
 17 18  2  0
 12 19  1  0
 19 20  1  0
 20 21  2  0
 21 22  1  0
 22 23  2  0
 23 24  1  0
 24 25  2  0
  8 26  1  0
 26 27  2  0
 27  5  1  0
 25 10  1  0
 18 13  1  0
 25 20  1  0
  1 28  1  0
  6 29  1  0
  7 30  1  0
 11 31  1  0
 14 32  1  0
 15 33  1  0
 16 34  1  0
 17 35  1  0
 18 36  1  0
 19 37  1  0
 21 38  1  0
 22 39  1  0
 23 40  1  0
 24 41  1  0
 26 42  1  0
 27 43  1  0
M  CHG  1   1  -1
M  END
>  <UniqueID>  (77) 
67

>  <SMILES>  (77) 
[NH-]S(=O)(=O)c1ccc(N=c2cc(-c3ccccc3)[nH]c3ccccc23)cc1

>  <Energy>  (77) 
76.2449028378046

>  <Genealogy>  (77) 
[NH-]S(=O)(=O)c1ccc(N=c2cc(-c3ccccc3)[nH]c3ccccc23)cc1 (protonated)
[NH-]S(=O)(=O)c1ccc(N=c2cc(-c3ccccc3)[nH]c3ccccc23)cc1 (3D coordinates assigned)
[NH-]S(=O)(=O)c1ccc(N=c2cc(-c3ccccc3)[nH]c3ccccc23)cc1 (optimized conformer: 76.2449028378046 kcal/mol)

>  <smiles>  (77) 
NS(=O)(=O)c1ccc(N=c2cc(-c3ccccc3)[nH]c3ccccc23)cc1

>  <score_type>  (77) 
oracle

>  <origin>  (77) 
adg

>  <m_score__min__energy>  (77) 
-12.300000000000001

>  <m_primary>  (77) 
energy

$$$$
77:0
     RDKit          3D

 33 35  0  0  0  0  0  0  0  0999 V2000
   54.4200   29.9140   45.0180 H   0  0  0  0  0  0  0  0  0  0  0  0
   55.1460   29.3370   44.5370 N   0  0  0  0  0  0  0  0  0  0  0  0
   56.1720   28.8750   45.1730 C   0  0  0  0  0  0  0  0  0  0  0  0
   57.0860   29.7350   45.7220 N   0  0  0  0  0  0  0  0  0  0  0  0
   58.1780   29.2800   46.4000 C   0  0  0  0  0  0  0  0  0  0  0  0
   58.9720   30.1020   46.9230 O   0  0  0  0  0  0  0  0  0  0  0  0
   58.3610   27.8970   46.5090 C   0  0  0  0  0  0  0  0  0  0  0  0
   59.2900   27.0680   47.1340 C   0  0  0  0  0  0  0  0  0  0  0  0
   60.4880   27.4050   47.8510 N   0  0  0  0  0  0  0  0  0  0  0  0
   61.0710   28.1830   47.4670 H   0  0  0  0  0  0  0  0  0  0  0  0
   60.7590   26.9960   49.2240 C   0  0  0  0  0  0  0  0  0  0  0  0
   60.2877   27.7073   49.9183 H   0  0  0  0  0  0  0  0  0  0  0  0
   60.3482   25.9900   49.3948 H   0  0  0  0  0  0  0  0  0  0  0  0
   61.8456   26.9822   49.3948 H   0  0  0  0  0  0  0  0  0  0  0  0
   58.8400   25.7660   46.9450 C   0  0  0  0  0  0  0  0  0  0  0  0
   59.3386   24.8668   47.3359 H   0  0  0  0  0  0  0  0  0  0  0  0
   57.7030   25.7610   46.2130 N   0  0  0  0  0  0  0  0  0  0  0  0
   56.9200   24.5660   45.8710 C   0  0  2  0  0  0  0  0  0  0  0  0
   56.1334   24.5040   46.6374 H   0  0  0  0  0  0  0  0  0  0  0  0
   57.9330   23.0460   45.9240 S   0  0  0  0  0  0  0  0  0  0  0  0
   57.2020   22.4160   44.3800 C   0  0  0  0  0  0  0  0  0  0  0  0
   57.9288   22.5101   43.5596 H   0  0  0  0  0  0  0  0  0  0  0  0
   56.9327   21.3557   44.4949 H   0  0  0  0  0  0  0  0  0  0  0  0
   55.9610   23.2390   44.0640 C   0  0  2  0  0  0  0  0  0  0  0  0
   55.0813   22.8566   44.6024 H   0  0  0  0  0  0  0  0  0  0  0  0
   55.6620   23.1630   42.6960 O   0  0  0  0  0  0  0  0  0  0  0  0
   56.2810   23.7900   42.2350 H   0  0  0  0  0  0  0  0  0  0  0  0
   56.2540   24.6730   44.4940 C   0  0  2  0  0  0  0  0  0  0  0  0
   55.3457   25.2911   44.5478 H   0  0  0  0  0  0  0  0  0  0  0  0
   57.1090   25.2790   43.5570 O   0  0  0  0  0  0  0  0  0  0  0  0
   56.9720   26.2600   43.6340 H   0  0  0  0  0  0  0  0  0  0  0  0
   57.4220   27.0580   45.9640 C   0  0  0  0  0  0  0  0  0  0  0  0
   56.3350   27.5280   45.3030 N   0  0  0  0  0  0  0  0  0  0  0  0
  1  2  1  0
  2  3  2  0
  3  4  1  0
  4  5  1  0
  5  6  2  0
  5  7  1  0
  7  8  1  0
  8  9  1  0
  9 10  1  0
  9 11  1  0
 11 12  1  0
 11 13  1  0
 11 14  1  0
  8 15  2  0
 15 16  1  0
 15 17  1  0
 17 18  1  0
 18 19  1  1
 18 20  1  0
 20 21  1  0
 21 22  1  0
 21 23  1  0
 21 24  1  0
 24 25  1  1
 24 26  1  0
 26 27  1  0
 24 28  1  0
 28 29  1  1
 28 30  1  0
 30 31  1  0
 17 32  1  0
 32 33  1  0
 33  3  1  0
 32  7  2  0
 28 18  1  0
M  CHG  2   4  -1  33  -1
M  END
>  <UniqueID>  (78) 
68

>  <SMILES>  (78) 
[H]/N=c1\[n-]c(=O)c2c(NC)cn([C@@H]3SC[C@H](O)C3O)c2[n-]1

>  <Energy>  (78) 
73.22042407455322

>  <Genealogy>  (78) 
CNc1cn(C2SCC(O)C2O)c2[n-]c(=N)[n-]c(=O)c12 (protonated)
CNc1cn([C@@H]2SC[C@H](O)C2O)c2[n-]c(=N)[n-]c(=O)c12 (chirality)
[H]/N=c1\[n-]c(=O)c2c(NC)cn([C@@H]3SC[C@H](O)C3O)c2[n-]1 (cis-trans isomerization)
[H]/N=c1\[n-]c(=O)c2c(NC)cn([C@@H]3SC[C@H](O)C3O)c2[n-]1 (3D coordinates assigned)
[H]/N=c1\[n-]c(=O)c2c(NC)cn([C@@H]3SC[C@H](O)C3O)c2[n-]1 (nonaromatic ring conformer: 73.22042407455322 kcal/mol)

>  <smiles>  (78) 
CNc1cn(C2SCC(O)C2O)c2[nH]c(=N)[nH]c(=O)c12

>  <score_type>  (78) 
oracle

>  <origin>  (78) 
adg

>  <m_score__min__energy>  (78) 
-10.390000000000001

>  <m_primary>  (78) 
energy

$$$$
78:0
     RDKit          3D

 48 51  0  0  0  0  0  0  0  0999 V2000
   65.7060   32.1450   50.6170 C   0  0  0  0  0  0  0  0  0  0  0  0
   64.4840   32.6150   49.8850 C   0  0  0  0  0  0  0  0  0  0  0  0
   63.7580   33.7140   50.3670 C   0  0  0  0  0  0  0  0  0  0  0  0
   62.6390   34.1790   49.6710 C   0  0  0  0  0  0  0  0  0  0  0  0
   62.2350   33.5570   48.4760 C   0  0  0  0  0  0  0  0  0  0  0  0
   61.0450   34.0350   47.7480 C   0  0  0  0  0  0  0  0  0  0  0  0
   61.0360   34.3510   46.4330 N   0  0  0  0  0  0  0  0  0  0  0  0
   59.7590   34.7500   46.2580 C   0  0  0  0  0  0  0  0  0  0  0  0
   59.1970   35.2030   44.9440 C   0  0  0  0  0  0  0  0  0  0  0  0
   58.0410   34.4410   44.5980 O   0  0  0  0  0  0  0  0  0  0  0  0
   57.9730   33.0370   44.5750 C   0  0  0  0  0  0  0  0  0  0  0  0
   57.8090   32.4010   43.3430 C   0  0  0  0  0  0  0  0  0  0  0  0
   57.7020   31.0090   43.2640 C   0  0  0  0  0  0  0  0  0  0  0  0
   57.7500   30.2180   44.4320 C   0  0  0  0  0  0  0  0  0  0  0  0
   57.6200   28.8040   44.4130 C   0  0  0  0  0  0  0  0  0  0  0  0
   57.3960   28.0870   43.0980 C   0  0  0  0  0  0  0  0  0  0  0  0
   57.7550   28.0930   45.6390 C   0  0  0  0  0  0  0  0  0  0  0  0
   57.7120   26.5750   45.7100 C   0  0  0  0  0  0  0  0  0  0  0  0
   56.4210   26.1070   46.3070 C   0  0  0  0  0  0  0  0  0  0  0  0
   56.4050   25.1560   47.1350 O   0  0  0  0  0  0  0  0  0  0  0  0
   55.2330   26.7320   45.9610 O   0  0  0  0  0  0  0  0  0  0  0  0
   57.9770   28.8360   46.8190 C   0  0  0  0  0  0  0  0  0  0  0  0
   58.1070   28.2550   47.9270 O   0  0  0  0  0  0  0  0  0  0  0  0
   58.0540   30.1580   46.7870 O   0  0  0  0  0  0  0  0  0  0  0  0
   57.9530   30.8620   45.6720 C   0  0  0  0  0  0  0  0  0  0  0  0
   58.0600   32.2560   45.7410 C   0  0  0  0  0  0  0  0  0  0  0  0
   59.0470   34.6600   47.3940 N   0  0  0  0  0  0  0  0  0  0  0  0
   59.8670   34.2190   48.2960 O   0  0  0  0  0  0  0  0  0  0  0  0
   62.9740   32.4660   47.9870 C   0  0  0  0  0  0  0  0  0  0  0  0
   64.0930   32.0020   48.6840 C   0  0  0  0  0  0  0  0  0  0  0  0
   65.5323   32.2118   51.7012 H   0  0  0  0  0  0  0  0  0  0  0  0
   65.9185   31.1010   50.3433 H   0  0  0  0  0  0  0  0  0  0  0  0
   66.5633   32.7776   50.3433 H   0  0  0  0  0  0  0  0  0  0  0  0
   64.0707   34.2119   51.2967 H   0  0  0  0  0  0  0  0  0  0  0  0
   62.0707   35.0367   50.0601 H   0  0  0  0  0  0  0  0  0  0  0  0
   58.9204   36.2651   45.0169 H   0  0  0  0  0  0  0  0  0  0  0  0
   59.9605   35.0590   44.1653 H   0  0  0  0  0  0  0  0  0  0  0  0
   57.7634   33.0024   42.4231 H   0  0  0  0  0  0  0  0  0  0  0  0
   57.5794   30.5263   42.2832 H   0  0  0  0  0  0  0  0  0  0  0  0
   57.0732   27.0539   43.2940 H   0  0  0  0  0  0  0  0  0  0  0  0
   56.6187   28.6110   42.5224 H   0  0  0  0  0  0  0  0  0  0  0  0
   58.3333   28.0754   42.5224 H   0  0  0  0  0  0  0  0  0  0  0  0
   57.8099   26.1636   44.6945 H   0  0  0  0  0  0  0  0  0  0  0  0
   58.5404   26.2281   46.3451 H   0  0  0  0  0  0  0  0  0  0  0  0
   58.2133   32.7441   46.7148 H   0  0  0  0  0  0  0  0  0  0  0  0
   58.0410   34.8930   47.5450 H   0  0  0  0  0  0  0  0  0  0  0  0
   62.6701   31.9748   47.0509 H   0  0  0  0  0  0  0  0  0  0  0  0
   64.6701   31.1525   48.2898 H   0  0  0  0  0  0  0  0  0  0  0  0
  1  2  1  0
  2  3  2  0
  3  4  1  0
  4  5  2  0
  5  6  1  0
  6  7  2  0
  7  8  1  0
  8  9  1  0
  9 10  1  0
 10 11  1  0
 11 12  2  0
 12 13  1  0
 13 14  2  0
 14 15  1  0
 15 16  1  0
 15 17  2  0
 17 18  1  0
 18 19  1  0
 19 20  2  0
 19 21  1  0
 17 22  1  0
 22 23  2  0
 22 24  1  0
 24 25  1  0
 25 26  2  0
  8 27  2  0
 27 28  1  0
  5 29  1  0
 29 30  2  0
 30  2  1  0
 28  6  1  0
 26 11  1  0
 25 14  1  0
  1 31  1  0
  1 32  1  0
  1 33  1  0
  3 34  1  0
  4 35  1  0
  9 36  1  0
  9 37  1  0
 12 38  1  0
 13 39  1  0
 16 40  1  0
 16 41  1  0
 16 42  1  0
 18 43  1  0
 18 44  1  0
 26 45  1  0
 27 46  1  0
 29 47  1  0
 30 48  1  0
M  CHG  2  21  -1  27   1
M  END
>  <UniqueID>  (79) 
69

>  <SMILES>  (79) 
Cc1ccc(-c2nc(COc3ccc4c(C)c(CC(=O)[O-])c(=O)oc4c3)[nH+]o2)cc1

>  <Energy>  (79) 
94.72604037520017

>  <Genealogy>  (79) 
Cc1ccc(-c2nc(COc3ccc4c(C)c(CC(=O)[O-])c(=O)oc4c3)[nH+]o2)cc1 (protonated)
Cc1ccc(-c2nc(COc3ccc4c(C)c(CC(=O)[O-])c(=O)oc4c3)[nH+]o2)cc1 (3D coordinates assigned)
Cc1ccc(-c2nc(COc3ccc4c(C)c(CC(=O)[O-])c(=O)oc4c3)[nH+]o2)cc1 (optimized conformer: 94.72604037520017 kcal/mol)

>  <smiles>  (79) 
Cc1ccc(-c2nc(COc3ccc4c(C)c(CC(=O)O)c(=O)oc4c3)no2)cc1

>  <score_type>  (79) 
oracle

>  <origin>  (79) 
adg

>  <m_score__min__energy>  (79) 
-10.69

>  <m_primary>  (79) 
energy

$$$$
79:0
     RDKit          3D

 41 44  0  0  0  0  0  0  0  0999 V2000
   55.0320   25.2990   45.6140 C   0  0  0  0  0  0  0  0  0  0  0  0
   55.3520   26.6860   45.6570 O   0  0  0  0  0  0  0  0  0  0  0  0
   56.6510   27.2100   45.7350 C   0  0  0  0  0  0  0  0  0  0  0  0
   57.7570   26.3680   45.9660 C   0  0  0  0  0  0  0  0  0  0  0  0
   59.0480   26.8880   46.0360 C   0  0  0  0  0  0  0  0  0  0  0  0
   59.2590   28.2560   45.8860 C   0  0  0  0  0  0  0  0  0  0  0  0
   58.1780   29.1180   45.6690 C   0  0  0  0  0  0  0  0  0  0  0  0
   58.4290   30.5690   45.5370 C   0  0  0  0  0  0  0  0  0  0  0  0
   58.8330   31.2900   46.6020 C   0  0  0  0  0  0  0  0  0  0  0  0
   59.0980   32.7530   46.4880 C   0  0  0  0  0  0  0  0  0  0  0  0
   59.5410   33.4800   47.6030 C   0  0  0  0  0  0  0  0  0  0  0  0
   59.7790   34.8540   47.4970 C   0  0  0  0  0  0  0  0  0  0  0  0
   59.5760   35.5130   46.2800 C   0  0  0  0  0  0  0  0  0  0  0  0
   59.1330   34.8010   45.1610 C   0  0  0  0  0  0  0  0  0  0  0  0
   58.8960   33.4220   45.2600 C   0  0  0  0  0  0  0  0  0  0  0  0
   58.4250   32.6190   44.1260 C   0  0  0  0  0  0  0  0  0  0  0  0
   58.0510   33.0850   42.9860 N   0  0  0  0  0  0  0  0  0  0  0  0
   57.5590   31.9830   42.1610 C   0  0  0  0  0  0  0  0  0  0  0  0
   57.6300   30.7320   43.0610 C   0  0  0  0  0  0  0  0  0  0  0  0
   58.2520   31.2310   44.2720 N   0  0  0  0  0  0  0  0  0  0  0  0
   56.8660   28.6060   45.5750 C   0  0  0  0  0  0  0  0  0  0  0  0
   55.8320   29.5270   45.3070 O   0  0  0  0  0  0  0  0  0  0  0  0
   55.1570   29.7110   44.0690 C   0  0  0  0  0  0  0  0  0  0  0  0
   54.9426   24.9114   46.6395 H   0  0  0  0  0  0  0  0  0  0  0  0
   54.0780   25.1590   45.0846 H   0  0  0  0  0  0  0  0  0  0  0  0
   55.8283   24.7552   45.0846 H   0  0  0  0  0  0  0  0  0  0  0  0
   57.5994   25.2867   46.0927 H   0  0  0  0  0  0  0  0  0  0  0  0
   59.9017   26.2166   46.2100 H   0  0  0  0  0  0  0  0  0  0  0  0
   60.2803   28.6613   45.9383 H   0  0  0  0  0  0  0  0  0  0  0  0
   58.9696   30.7902   47.5723 H   0  0  0  0  0  0  0  0  0  0  0  0
   59.7016   32.9679   48.5632 H   0  0  0  0  0  0  0  0  0  0  0  0
   60.1273   35.4188   48.3743 H   0  0  0  0  0  0  0  0  0  0  0  0
   59.7653   36.5939   46.2030 H   0  0  0  0  0  0  0  0  0  0  0  0
   58.9708   35.3211   44.2054 H   0  0  0  0  0  0  0  0  0  0  0  0
   56.5221   32.1717   41.8458 H   0  0  0  0  0  0  0  0  0  0  0  0
   58.1550   31.8612   41.2445 H   0  0  0  0  0  0  0  0  0  0  0  0
   56.6244   30.3371   43.2678 H   0  0  0  0  0  0  0  0  0  0  0  0
   58.1848   29.9006   42.6017 H   0  0  0  0  0  0  0  0  0  0  0  0
   54.1119   29.9959   44.2600 H   0  0  0  0  0  0  0  0  0  0  0  0
   55.6547   30.5062   43.4947 H   0  0  0  0  0  0  0  0  0  0  0  0
   55.1823   28.7732   43.4947 H   0  0  0  0  0  0  0  0  0  0  0  0
  1  2  1  0
  2  3  1  0
  3  4  2  0
  4  5  1  0
  5  6  2  0
  6  7  1  0
  7  8  1  0
  8  9  2  0
  9 10  1  0
 10 11  2  0
 11 12  1  0
 12 13  2  0
 13 14  1  0
 14 15  2  0
 15 16  1  0
 16 17  2  0
 17 18  1  0
 18 19  1  0
 19 20  1  0
  7 21  2  0
 21 22  1  0
 22 23  1  0
 21  3  1  0
 20  8  1  0
 15 10  1  0
 20 16  1  0
  1 24  1  0
  1 25  1  0
  1 26  1  0
  4 27  1  0
  5 28  1  0
  6 29  1  0
  9 30  1  0
 11 31  1  0
 12 32  1  0
 13 33  1  0
 14 34  1  0
 18 35  1  0
 18 36  1  0
 19 37  1  0
 19 38  1  0
 23 39  1  0
 23 40  1  0
 23 41  1  0
M  END
>  <UniqueID>  (80) 
70

>  <SMILES>  (80) 
COc1cccc(C2=Cc3ccccc3C3=NCCN23)c1OC

>  <Energy>  (80) 
68.8163015440521

>  <Genealogy>  (80) 
COc1cccc(C2=Cc3ccccc3C3=NCCN23)c1OC (3D coordinates assigned)
COc1cccc(C2=Cc3ccccc3C3=NCCN23)c1OC (nonaromatic ring conformer: 68.8163015440521 kcal/mol)

>  <smiles>  (80) 
COc1cccc(C2=Cc3ccccc3C3=NCCN23)c1OC

>  <score_type>  (80) 
oracle

>  <origin>  (80) 
adg

>  <m_score__min__energy>  (80) 
-8.0999999999999996

>  <m_primary>  (80) 
energy

$$$$
80:0
     RDKit          3D

 58 60  0  0  1  0  0  0  0  0999 V2000
   62.7420   32.4810   47.4960 C   0  0  0  0  0  0  0  0  0  0  0  0
   62.0410   33.8000   47.6900 C   0  0  0  0  0  0  0  0  0  0  0  0
   60.6670   33.6090   48.0610 O   0  0  0  0  0  0  0  0  0  0  0  0
   59.6770   33.8560   47.1040 C   0  0  0  0  0  0  0  0  0  0  0  0
   59.9290   34.7460   46.0540 C   0  0  0  0  0  0  0  0  0  0  0  0
   58.9530   34.9930   45.1010 C   0  0  0  0  0  0  0  0  0  0  0  0
   57.7150   34.3550   45.1850 C   0  0  0  0  0  0  0  0  0  0  0  0
   57.4770   33.4810   46.2200 C   0  0  0  0  0  0  0  0  0  0  0  0
   58.4410   33.2080   47.2000 C   0  0  0  0  0  0  0  0  0  0  0  0
   59.0820   27.8480   47.5160 N   0  0  0  0  0  0  0  0  0  0  0  0
   59.3890   28.9680   48.0970 C   0  0  0  0  0  0  0  0  0  0  0  0
   60.0170   31.3790   49.2790 N   0  0  0  0  0  0  0  0  0  0  0  0
   60.8030   30.3050   49.5030 C   0  0  0  0  0  0  0  0  0  0  0  0
   61.9980   30.4220   50.3790 C   0  0  0  0  0  0  0  0  0  0  0  0
   60.4900   29.0980   48.9120 C   0  0  0  0  0  0  0  0  0  0  0  0
   58.9210   31.2620   48.4720 C   0  0  0  0  0  0  0  0  0  0  0  0
   58.1860   32.2990   48.2620 N   0  0  0  0  0  0  0  0  0  0  0  0
   59.5310   27.5290   46.2050 C   0  0  0  0  0  0  0  0  0  0  0  0
   58.5940   27.9670   45.0980 C   0  0  0  0  0  0  0  0  0  0  0  0
   57.2890   28.4630   45.6380 C   0  0  0  0  0  0  0  0  0  0  0  0
   57.0120   29.7960   45.2320 N   0  0  0  0  0  0  0  0  0  0  0  0
   55.8000   30.0110   44.5110 C   0  0  0  0  0  0  0  0  0  0  0  0
   55.9980   29.9300   43.0060 C   0  0  0  0  0  0  0  0  0  0  0  0
   57.0200   30.9440   42.5380 C   0  0  0  0  0  0  0  0  0  0  0  0
   57.6480   31.5890   43.7720 C   0  0  0  0  0  0  0  0  0  0  0  0
   58.1560   30.4590   44.6380 C   0  0  0  0  0  0  0  0  0  0  0  0
   58.6390   30.0790   47.9100 N   0  0  0  0  0  0  0  0  0  0  0  0
   62.9753   32.0420   48.4772 H   0  0  0  0  0  0  0  0  0  0  0  0
   62.0882   31.7974   46.9345 H   0  0  0  0  0  0  0  0  0  0  0  0
   63.6744   32.6404   46.9345 H   0  0  0  0  0  0  0  0  0  0  0  0
   62.5518   34.3643   48.4841 H   0  0  0  0  0  0  0  0  0  0  0  0
   62.0712   34.3532   46.7397 H   0  0  0  0  0  0  0  0  0  0  0  0
   60.9039   35.2508   45.9846 H   0  0  0  0  0  0  0  0  0  0  0  0
   59.1549   35.6933   44.2771 H   0  0  0  0  0  0  0  0  0  0  0  0
   56.9375   34.5490   44.4314 H   0  0  0  0  0  0  0  0  0  0  0  0
   56.4993   32.9805   46.2805 H   0  0  0  0  0  0  0  0  0  0  0  0
   60.2740   32.2800   49.7350 H   0  0  0  0  0  0  0  0  0  0  0  0
   61.6845   30.3913   51.4329 H   0  0  0  0  0  0  0  0  0  0  0  0
   62.6845   29.5868   50.1762 H   0  0  0  0  0  0  0  0  0  0  0  0
   62.5095   31.3745   50.1762 H   0  0  0  0  0  0  0  0  0  0  0  0
   61.1322   28.2240   49.0957 H   0  0  0  0  0  0  0  0  0  0  0  0
   60.5034   28.0180   46.0460 H   0  0  0  0  0  0  0  0  0  0  0  0
   59.5885   26.4318   46.1515 H   0  0  0  0  0  0  0  0  0  0  0  0
   59.0726   28.7751   44.5254 H   0  0  0  0  0  0  0  0  0  0  0  0
   58.3902   27.0959   44.4579 H   0  0  0  0  0  0  0  0  0  0  0  0
   56.4835   27.8076   45.2753 H   0  0  0  0  0  0  0  0  0  0  0  0
   57.3514   28.4505   46.7362 H   0  0  0  0  0  0  0  0  0  0  0  0
   55.0692   29.2462   44.8127 H   0  0  0  0  0  0  0  0  0  0  0  0
   55.4444   31.0246   44.7481 H   0  0  0  0  0  0  0  0  0  0  0  0
   56.3464   28.9204   42.7428 H   0  0  0  0  0  0  0  0  0  0  0  0
   55.0383   30.1469   42.5141 H   0  0  0  0  0  0  0  0  0  0  0  0
   57.7974   30.4425   41.9430 H   0  0  0  0  0  0  0  0  0  0  0  0
   56.5384   31.7092   41.9114 H   0  0  0  0  0  0  0  0  0  0  0  0
   58.4805   32.2441   43.4758 H   0  0  0  0  0  0  0  0  0  0  0  0
   56.9157   32.2058   44.3136 H   0  0  0  0  0  0  0  0  0  0  0  0
   58.7231   29.7444   44.0234 H   0  0  0  0  0  0  0  0  0  0  0  0
   58.8194   30.8501   45.4235 H   0  0  0  0  0  0  0  0  0  0  0  0
   57.8070   29.9670   47.2980 H   0  0  0  0  0  0  0  0  0  0  0  0
  1  2  1  0
  2  3  1  0
  3  4  1  0
  4  5  2  0
  5  6  1  0
  6  7  2  0
  7  8  1  0
  8  9  2  0
  9 10  1  0
 10 11  2  0
 11 12  1  0
 12 13  1  0
 13 14  1  0
 13 15  2  0
 15 16  1  0
 16 17  2  0
 17 18  1  0
 18 19  1  0
 19 20  1  0
 20 21  1  0
 21 22  1  0
 22 23  1  0
 23 24  1  0
 24 25  1  0
 25 26  1  0
 16 27  1  0
  9  4  1  0
 27 11  1  0
 26 21  1  0
  1 28  1  0
  1 29  1  0
  1 30  1  0
  2 31  1  0
  2 32  1  0
  5 33  1  0
  6 34  1  0
  7 35  1  0
  8 36  1  0
 12 37  1  0
 14 38  1  0
 14 39  1  0
 14 40  1  0
 15 41  1  0
 18 42  1  0
 18 43  1  0
 19 44  1  0
 19 45  1  0
 20 46  1  0
 20 47  1  0
 22 48  1  0
 22 49  1  0
 23 50  1  0
 23 51  1  0
 24 52  1  0
 24 53  1  0
 25 54  1  0
 25 55  1  0
 26 56  1  0
 26 57  1  0
 27 58  1  0
M  END
>  <smiles>  (81) 
CCOc1ccccc1N=c1[nH]c(C)cc(=NCCCN2CCCCC2)[nH]1

>  <score_type>  (81) 
oracle

>  <origin>  (81) 
adg

>  <m_score__min__energy>  (81) 
-8.7599999999999998

>  <m_primary>  (81) 
energy

$$$$
81:0
     RDKit          3D

 63 66  0  0  0  0  0  0  0  0999 V2000
   60.7890   26.8910   49.5350 O   0  0  0  0  0  0  0  0  0  0  0  0
   60.0370   27.3950   48.6590 C   0  0  0  0  0  0  0  0  0  0  0  0
   59.4880   26.5300   47.5710 C   0  0  0  0  0  0  0  0  0  0  0  0
   58.1160   26.2430   47.8270 O   0  0  0  0  0  0  0  0  0  0  0  0
   57.1810   26.0070   46.8170 C   0  0  0  0  0  0  0  0  0  0  0  0
   56.1860   25.2650   47.0400 O   0  0  0  0  0  0  0  0  0  0  0  0
   57.3460   26.6590   45.4990 C   0  0  0  0  0  0  0  0  0  0  0  0
   57.8540   25.9320   44.4100 C   0  0  0  0  0  0  0  0  0  0  0  0
   58.0580   26.5560   43.1780 C   0  0  0  0  0  0  0  0  0  0  0  0
   57.7620   27.9110   43.0200 C   0  0  0  0  0  0  0  0  0  0  0  0
   57.2430   28.6500   44.0900 C   0  0  0  0  0  0  0  0  0  0  0  0
   56.9020   30.3710   43.9030 S   0  0  0  0  0  0  0  0  0  0  0  0
   55.7300   30.7740   44.7570 O   0  0  0  0  0  0  0  0  0  0  0  0
   56.5440   30.6530   42.4690 O   0  0  0  0  0  0  0  0  0  0  0  0
   58.3190   31.2920   44.3050 N   0  0  0  0  0  0  0  0  0  0  0  0
   58.4130   32.3400   45.2840 C   0  0  0  0  0  0  0  0  0  0  0  0
   58.1190   32.1230   46.6470 C   0  0  0  0  0  0  0  0  0  0  0  0
   58.2220   33.1720   47.5640 C   0  0  0  0  0  0  0  0  0  0  0  0
   58.6110   34.4480   47.1330 C   0  0  0  0  0  0  0  0  0  0  0  0
   58.8980   34.6740   45.7840 C   0  0  0  0  0  0  0  0  0  0  0  0
   58.7940   33.6270   44.8590 C   0  0  0  0  0  0  0  0  0  0  0  0
   59.1000   33.8540   43.5540 F   0  0  0  0  0  0  0  0  0  0  0  0
   57.0310   28.0180   45.3250 C   0  0  0  0  0  0  0  0  0  0  0  0
   59.6120   28.7600   48.7610 N   0  0  0  0  0  0  0  0  0  0  0  0
   60.4430   29.9070   48.5500 C   0  0  0  0  0  0  0  0  0  0  0  0
   60.7510   30.7100   49.6560 C   0  0  0  0  0  0  0  0  0  0  0  0
   61.5370   31.8570   49.5080 C   0  0  0  0  0  0  0  0  0  0  0  0
   61.8850   32.8760   50.9060 S   0  0  0  0  0  0  0  0  0  0  0  0
   62.3610   32.0050   52.0380 O   0  0  0  0  0  0  0  0  0  0  0  0
   62.9970   33.8270   50.5580 O   0  0  0  0  0  0  0  0  0  0  0  0
   60.4840   33.7940   51.4240 N   0  0  0  0  0  0  0  0  0  0  0  0
   60.1810   33.6280   52.8660 C   0  0  0  0  0  0  0  0  0  0  0  0
   58.7150   33.2770   53.1520 C   0  0  0  0  0  0  0  0  0  0  0  0
   58.2760   32.1170   52.2640 C   0  0  0  0  0  0  0  0  0  0  0  0
   58.4400   32.4470   50.7720 C   0  0  0  0  0  0  0  0  0  0  0  0
   59.3410   33.6690   50.4970 C   0  0  0  0  0  0  0  0  0  0  0  0
   62.0410   32.1890   48.2440 C   0  0  0  0  0  0  0  0  0  0  0  0
   61.7100   31.4150   47.1290 C   0  0  0  0  0  0  0  0  0  0  0  0
   60.8960   30.2850   47.2680 C   0  0  0  0  0  0  0  0  0  0  0  0
   60.3800   29.4490   45.8080 Cl  0  0  0  0  0  0  0  0  0  0  0  0
   59.5777   27.0539   46.6079 H   0  0  0  0  0  0  0  0  0  0  0  0
   60.0551   25.5881   47.5355 H   0  0  0  0  0  0  0  0  0  0  0  0
   58.0925   24.8647   44.5285 H   0  0  0  0  0  0  0  0  0  0  0  0
   58.4531   25.9783   42.3294 H   0  0  0  0  0  0  0  0  0  0  0  0
   57.9373   28.4003   42.0506 H   0  0  0  0  0  0  0  0  0  0  0  0
   57.8077   31.1248   46.9886 H   0  0  0  0  0  0  0  0  0  0  0  0
   57.9974   32.9963   48.6264 H   0  0  0  0  0  0  0  0  0  0  0  0
   58.6904   35.2721   47.8572 H   0  0  0  0  0  0  0  0  0  0  0  0
   59.2059   35.6752   45.4481 H   0  0  0  0  0  0  0  0  0  0  0  0
   56.6140   28.5920   46.1656 H   0  0  0  0  0  0  0  0  0  0  0  0
   60.3706   30.4354   50.6509 H   0  0  0  0  0  0  0  0  0  0  0  0
   60.8150   32.8217   53.2635 H   0  0  0  0  0  0  0  0  0  0  0  0
   60.3800   34.5957   53.3497 H   0  0  0  0  0  0  0  0  0  0  0  0
   58.6084   32.9885   54.2081 H   0  0  0  0  0  0  0  0  0  0  0  0
   58.0849   34.1535   52.9405 H   0  0  0  0  0  0  0  0  0  0  0  0
   58.8876   31.2344   52.5028 H   0  0  0  0  0  0  0  0  0  0  0  0
   57.2104   31.9232   52.4563 H   0  0  0  0  0  0  0  0  0  0  0  0
   58.8799   31.5725   50.2702 H   0  0  0  0  0  0  0  0  0  0  0  0
   57.4395   32.6954   50.3882 H   0  0  0  0  0  0  0  0  0  0  0  0
   59.7338   33.5855   49.4729 H   0  0  0  0  0  0  0  0  0  0  0  0
   58.7165   34.5632   50.6398 H   0  0  0  0  0  0  0  0  0  0  0  0
   62.6998   33.0623   48.1288 H   0  0  0  0  0  0  0  0  0  0  0  0
   62.0914   31.6954   46.1361 H   0  0  0  0  0  0  0  0  0  0  0  0
  1  2  2  0
  2  3  1  0
  3  4  1  0
  4  5  1  0
  5  6  2  0
  5  7  1  0
  7  8  2  0
  8  9  1  0
  9 10  2  0
 10 11  1  0
 11 12  1  0
 12 13  2  0
 12 14  2  0
 12 15  1  0
 15 16  1  0
 16 17  2  0
 17 18  1  0
 18 19  2  0
 19 20  1  0
 20 21  2  0
 21 22  1  0
 11 23  2  0
  2 24  1  0
 24 25  1  0
 25 26  2  0
 26 27  1  0
 27 28  1  0
 28 29  2  0
 28 30  2  0
 28 31  1  0
 31 32  1  0
 32 33  1  0
 33 34  1  0
 34 35  1  0
 35 36  1  0
 27 37  2  0
 37 38  1  0
 38 39  2  0
 39 40  1  0
 23  7  1  0
 39 25  1  0
 21 16  1  0
 36 31  1  0
  3 41  1  0
  3 42  1  0
  8 43  1  0
  9 44  1  0
 10 45  1  0
 17 46  1  0
 18 47  1  0
 19 48  1  0
 20 49  1  0
 23 50  1  0
 26 51  1  0
 32 52  1  0
 32 53  1  0
 33 54  1  0
 33 55  1  0
 34 56  1  0
 34 57  1  0
 35 58  1  0
 35 59  1  0
 36 60  1  0
 36 61  1  0
 37 62  1  0
 38 63  1  0
M  CHG  2  15  -1  24  -1
M  END
>  <UniqueID>  (82) 
71

>  <SMILES>  (82) 
O=C(COC(=O)c1cccc(S(=O)(=O)[N-]c2ccccc2F)c1)[N-]c1cc(S(=O)(=O)N2CCCCC2)ccc1Cl

>  <Energy>  (82) 
83.94839250223225

>  <Genealogy>  (82) 
O=C(COC(=O)c1cccc(S(=O)(=O)[N-]c2ccccc2F)c1)[N-]c1cc(S(=O)(=O)N2CCCCC2)ccc1Cl (protonated)
O=C(COC(=O)c1cccc(S(=O)(=O)[N-]c2ccccc2F)c1)[N-]c1cc(S(=O)(=O)N2CCCCC2)ccc1Cl (3D coordinates assigned)
O=C(COC(=O)c1cccc(S(=O)(=O)[N-]c2ccccc2F)c1)[N-]c1cc(S(=O)(=O)N2CCCCC2)ccc1Cl (nonaromatic ring conformer: 83.94839250223225 kcal/mol)

>  <smiles>  (82) 
O=C(COC(=O)c1cccc(S(=O)(=O)Nc2ccccc2F)c1)Nc1cc(S(=O)(=O)N2CCCCC2)ccc1Cl

>  <score_type>  (82) 
oracle

>  <origin>  (82) 
adg

>  <m_score__min__energy>  (82) 
-13.550000000000001

>  <m_primary>  (82) 
energy

$$$$
82:0
     RDKit          3D

 46 48  0  0  0  0  0  0  0  0999 V2000
   63.0350   33.8320   46.7220 C   0  0  0  0  0  0  0  0  0  0  0  0
   61.8600   32.9870   47.2030 C   0  0  0  0  0  0  0  0  0  0  0  0
   60.6260   33.5110   46.7120 O   0  0  0  0  0  0  0  0  0  0  0  0
   59.5660   32.7520   46.1870 C   0  0  0  0  0  0  0  0  0  0  0  0
   58.6890   33.3790   45.2920 C   0  0  0  0  0  0  0  0  0  0  0  0
   57.6210   32.6760   44.7270 C   0  0  0  0  0  0  0  0  0  0  0  0
   57.4190   31.3310   45.0490 C   0  0  0  0  0  0  0  0  0  0  0  0
   56.3850   30.6430   44.4960 N   0  0  0  0  0  0  0  0  0  0  0  0
   56.1680   29.3300   44.7750 C   0  0  0  0  0  0  0  0  0  0  0  0
   57.0240   28.6390   45.6450 C   0  0  0  0  0  0  0  0  0  0  0  0
   56.7980   27.2040   45.9260 C   0  0  0  0  0  0  0  0  0  0  0  0
   57.7950   26.4470   46.0670 O   0  0  0  0  0  0  0  0  0  0  0  0
   55.4840   26.6400   46.0580 N   0  0  0  0  0  0  0  0  0  0  0  0
   55.0770   25.3080   45.6190 C   0  0  0  0  0  0  0  0  0  0  0  0
   56.0110   24.2530   46.2320 C   0  0  0  0  0  0  0  0  0  0  0  0
   57.0830   23.7950   45.3190 N   0  0  0  0  0  0  0  0  0  0  0  0
   57.4690   22.3730   45.4620 C   0  0  0  0  0  0  0  0  0  0  0  0
   57.1200   21.5430   44.2180 C   0  0  0  0  0  0  0  0  0  0  0  0
   55.9520   22.0430   43.6110 O   0  0  0  0  0  0  0  0  0  0  0  0
   56.2310   23.2850   42.9950 C   0  0  0  0  0  0  0  0  0  0  0  0
   56.9680   24.2780   43.9260 C   0  0  0  0  0  0  0  0  0  0  0  0
   58.0730   29.3390   46.2580 C   0  0  0  0  0  0  0  0  0  0  0  0
   58.2920   30.6870   45.9510 C   0  0  0  0  0  0  0  0  0  0  0  0
   59.3610   31.3970   46.5170 C   0  0  0  0  0  0  0  0  0  0  0  0
   63.5830   34.2261   47.5905 H   0  0  0  0  0  0  0  0  0  0  0  0
   63.7091   33.2105   46.1143 H   0  0  0  0  0  0  0  0  0  0  0  0
   62.6603   34.6688   46.1143 H   0  0  0  0  0  0  0  0  0  0  0  0
   61.9843   31.9561   46.8399 H   0  0  0  0  0  0  0  0  0  0  0  0
   61.8388   33.0049   48.3026 H   0  0  0  0  0  0  0  0  0  0  0  0
   58.8427   34.4365   45.0310 H   0  0  0  0  0  0  0  0  0  0  0  0
   56.9387   33.1820   44.0281 H   0  0  0  0  0  0  0  0  0  0  0  0
   55.3163   28.8068   44.3158 H   0  0  0  0  0  0  0  0  0  0  0  0
   54.0441   25.1154   45.9446 H   0  0  0  0  0  0  0  0  0  0  0  0
   55.1348   25.2524   44.5219 H   0  0  0  0  0  0  0  0  0  0  0  0
   56.4807   24.6854   47.1277 H   0  0  0  0  0  0  0  0  0  0  0  0
   55.3911   23.3738   46.4616 H   0  0  0  0  0  0  0  0  0  0  0  0
   58.5545   22.3170   45.6307 H   0  0  0  0  0  0  0  0  0  0  0  0
   56.9068   21.9569   46.3110 H   0  0  0  0  0  0  0  0  0  0  0  0
   57.9527   21.5952   43.5012 H   0  0  0  0  0  0  0  0  0  0  0  0
   56.9487   20.4992   44.5198 H   0  0  0  0  0  0  0  0  0  0  0  0
   56.8597   23.1029   42.1109 H   0  0  0  0  0  0  0  0  0  0  0  0
   55.2659   23.7415   42.7302 H   0  0  0  0  0  0  0  0  0  0  0  0
   57.9803   24.4439   43.5289 H   0  0  0  0  0  0  0  0  0  0  0  0
   56.3761   25.2049   43.9493 H   0  0  0  0  0  0  0  0  0  0  0  0
   58.7251   28.8278   46.9815 H   0  0  0  0  0  0  0  0  0  0  0  0
   60.0414   30.8949   47.2205 H   0  0  0  0  0  0  0  0  0  0  0  0
  1  2  1  0
  2  3  1  0
  3  4  1  0
  4  5  2  0
  5  6  1  0
  6  7  2  0
  7  8  1  0
  8  9  2  0
  9 10  1  0
 10 11  1  0
 11 12  2  0
 11 13  1  0
 13 14  1  0
 14 15  1  0
 15 16  1  0
 16 17  1  0
 17 18  1  0
 18 19  1  0
 19 20  1  0
 20 21  1  0
 10 22  2  0
 22 23  1  0
 23 24  2  0
 24  4  1  0
 23  7  1  0
 21 16  1  0
  1 25  1  0
  1 26  1  0
  1 27  1  0
  2 28  1  0
  2 29  1  0
  5 30  1  0
  6 31  1  0
  9 32  1  0
 14 33  1  0
 14 34  1  0
 15 35  1  0
 15 36  1  0
 17 37  1  0
 17 38  1  0
 18 39  1  0
 18 40  1  0
 20 41  1  0
 20 42  1  0
 21 43  1  0
 21 44  1  0
 22 45  1  0
 24 46  1  0
M  CHG  1  13  -1
M  END
>  <UniqueID>  (83) 
72

>  <SMILES>  (83) 
CCOc1ccc2ncc(C(=O)[N-]CCN3CCOCC3)cc2c1

>  <Energy>  (83) 
66.57370688264844

>  <Genealogy>  (83) 
CCOc1ccc2ncc(C(=O)[N-]CCN3CCOCC3)cc2c1 (protonated)
CCOc1ccc2ncc(C(=O)[N-]CCN3CCOCC3)cc2c1 (3D coordinates assigned)
CCOc1ccc2ncc(C(=O)[N-]CCN3CCOCC3)cc2c1 (nonaromatic ring conformer: 66.57370688264844 kcal/mol)

>  <smiles>  (83) 
CCOc1ccc2ncc(C(=O)NCCN3CCOCC3)cc2c1

>  <score_type>  (83) 
oracle

>  <origin>  (83) 
adg

>  <m_score__min__energy>  (83) 
-9.7200000000000006

>  <m_primary>  (83) 
energy

$$$$
83:0
     RDKit          3D

 60 64  0  0  0  0  0  0  0  0999 V2000
   57.6960   23.0060   44.1320 C   0  0  0  0  0  0  0  0  0  0  0  0
   56.8810   24.1630   43.9550 O   0  0  0  0  0  0  0  0  0  0  0  0
   57.1780   25.4420   44.4540 C   0  0  0  0  0  0  0  0  0  0  0  0
   58.1150   26.2730   43.8080 C   0  0  0  0  0  0  0  0  0  0  0  0
   58.3860   27.5560   44.2880 C   0  0  0  0  0  0  0  0  0  0  0  0
   57.7210   28.0490   45.4190 C   0  0  0  0  0  0  0  0  0  0  0  0
   58.0120   29.4180   45.9090 C   0  0  0  0  0  0  0  0  0  0  0  0
   57.5420   30.4880   45.2140 N   0  0  0  0  0  0  0  0  0  0  0  0
   57.7800   31.7600   45.6220 C   0  0  0  0  0  0  0  0  0  0  0  0
   57.2830   32.8360   44.8810 C   0  0  0  0  0  0  0  0  0  0  0  0
   57.5270   34.1470   45.2980 C   0  0  0  0  0  0  0  0  0  0  0  0
   58.2700   34.3860   46.4570 C   0  0  0  0  0  0  0  0  0  0  0  0
   58.7740   33.3170   47.2020 C   0  0  0  0  0  0  0  0  0  0  0  0
   58.5280   31.9930   46.7920 C   0  0  0  0  0  0  0  0  0  0  0  0
   58.9990   30.8740   47.5090 C   0  0  0  0  0  0  0  0  0  0  0  0
   59.7560   31.0290   48.7270 N   0  0  0  0  0  0  0  0  0  0  0  0
   61.1560   30.5600   48.6900 C   0  0  0  0  0  0  0  0  0  0  0  0
   62.0840   31.6870   48.2990 C   0  0  0  0  0  0  0  0  0  0  0  0
   61.8750   32.4200   47.1160 C   0  0  0  0  0  0  0  0  0  0  0  0
   62.7110   33.4950   46.7920 C   0  0  0  0  0  0  0  0  0  0  0  0
   63.7560   33.8530   47.6460 C   0  0  0  0  0  0  0  0  0  0  0  0
   63.9780   33.1270   48.8210 C   0  0  0  0  0  0  0  0  0  0  0  0
   63.1480   32.0490   49.1450 C   0  0  0  0  0  0  0  0  0  0  0  0
   59.1340   31.6280   49.9030 C   0  0  0  0  0  0  0  0  0  0  0  0
   58.1020   30.9530   50.5930 C   0  0  0  0  0  0  0  0  0  0  0  0
   57.5030   31.5200   51.7230 C   0  0  0  0  0  0  0  0  0  0  0  0
   57.9060   32.7750   52.1850 C   0  0  0  0  0  0  0  0  0  0  0  0
   58.9130   33.4640   51.5160 C   0  0  0  0  0  0  0  0  0  0  0  0
   59.5220   32.9010   50.3880 C   0  0  0  0  0  0  0  0  0  0  0  0
   58.7250   29.6200   47.0550 N   0  0  0  0  0  0  0  0  0  0  0  0
   56.8040   27.2170   46.0810 C   0  0  0  0  0  0  0  0  0  0  0  0
   56.5230   25.9240   45.6170 C   0  0  0  0  0  0  0  0  0  0  0  0
   55.5920   25.1790   46.3620 O   0  0  0  0  0  0  0  0  0  0  0  0
   54.7710   24.1220   45.8770 C   0  0  0  0  0  0  0  0  0  0  0  0
   57.8314   22.8138   45.2066 H   0  0  0  0  0  0  0  0  0  0  0  0
   57.2083   22.1387   43.6630 H   0  0  0  0  0  0  0  0  0  0  0  0
   58.6768   23.1732   43.6630 H   0  0  0  0  0  0  0  0  0  0  0  0
   58.6399   25.9061   42.9137 H   0  0  0  0  0  0  0  0  0  0  0  0
   59.1277   28.1851   43.7741 H   0  0  0  0  0  0  0  0  0  0  0  0
   56.6986   32.6502   43.9678 H   0  0  0  0  0  0  0  0  0  0  0  0
   57.1338   34.9918   44.7134 H   0  0  0  0  0  0  0  0  0  0  0  0
   58.4587   35.4192   46.7839 H   0  0  0  0  0  0  0  0  0  0  0  0
   59.3638   33.5102   48.1102 H   0  0  0  0  0  0  0  0  0  0  0  0
   61.4390   30.1875   49.6856 H   0  0  0  0  0  0  0  0  0  0  0  0
   61.2411   29.7555   47.9446 H   0  0  0  0  0  0  0  0  0  0  0  0
   61.0498   32.1466   46.4419 H   0  0  0  0  0  0  0  0  0  0  0  0
   62.5443   34.0590   45.8624 H   0  0  0  0  0  0  0  0  0  0  0  0
   64.4044   34.7054   47.3950 H   0  0  0  0  0  0  0  0  0  0  0  0
   64.8057   33.4041   49.4904 H   0  0  0  0  0  0  0  0  0  0  0  0
   63.3286   31.4797   50.0687 H   0  0  0  0  0  0  0  0  0  0  0  0
   57.7650   29.9683   50.2368 H   0  0  0  0  0  0  0  0  0  0  0  0
   56.7084   30.9732   52.2518 H   0  0  0  0  0  0  0  0  0  0  0  0
   57.4299   33.2164   53.0730 H   0  0  0  0  0  0  0  0  0  0  0  0
   59.2315   34.4540   51.8745 H   0  0  0  0  0  0  0  0  0  0  0  0
   60.3163   33.4574   49.8689 H   0  0  0  0  0  0  0  0  0  0  0  0
   59.0570   28.8060   47.6180 H   0  0  0  0  0  0  0  0  0  0  0  0
   56.2951   27.5875   46.9831 H   0  0  0  0  0  0  0  0  0  0  0  0
   54.3428   23.5707   46.7271 H   0  0  0  0  0  0  0  0  0  0  0  0
   53.9586   24.5402   45.2646 H   0  0  0  0  0  0  0  0  0  0  0  0
   55.3772   23.4383   45.2646 H   0  0  0  0  0  0  0  0  0  0  0  0
  1  2  1  0
  2  3  1  0
  3  4  2  0
  4  5  1  0
  5  6  2  0
  6  7  1  0
  7  8  2  0
  8  9  1  0
  9 10  2  0
 10 11  1  0
 11 12  2  0
 12 13  1  0
 13 14  2  0
 14 15  1  0
 15 16  1  0
 16 17  1  0
 17 18  1  0
 18 19  2  0
 19 20  1  0
 20 21  2  0
 21 22  1  0
 22 23  2  0
 16 24  1  0
 24 25  2  0
 25 26  1  0
 26 27  2  0
 27 28  1  0
 28 29  2  0
 15 30  2  0
  6 31  1  0
 31 32  2  0
 32 33  1  0
 33 34  1  0
 32  3  1  0
 30  7  1  0
 14  9  1  0
 23 18  1  0
 29 24  1  0
  1 35  1  0
  1 36  1  0
  1 37  1  0
  4 38  1  0
  5 39  1  0
 10 40  1  0
 11 41  1  0
 12 42  1  0
 13 43  1  0
 17 44  1  0
 17 45  1  0
 19 46  1  0
 20 47  1  0
 21 48  1  0
 22 49  1  0
 23 50  1  0
 25 51  1  0
 26 52  1  0
 27 53  1  0
 28 54  1  0
 29 55  1  0
 30 56  1  0
 31 57  1  0
 34 58  1  0
 34 59  1  0
 34 60  1  0
M  CHG  1  30   1
M  END
>  <UniqueID>  (84) 
73

>  <SMILES>  (84) 
COc1ccc(-c2nc3ccccc3c(N(Cc3ccccc3)c3ccccc3)[nH+]2)cc1OC

>  <Energy>  (84) 
84.75112805280193

>  <Genealogy>  (84) 
COc1ccc(-c2nc3ccccc3c(N(Cc3ccccc3)c3ccccc3)[nH+]2)cc1OC (protonated)
COc1ccc(-c2nc3ccccc3c(N(Cc3ccccc3)c3ccccc3)[nH+]2)cc1OC (3D coordinates assigned)
COc1ccc(-c2nc3ccccc3c(N(Cc3ccccc3)c3ccccc3)[nH+]2)cc1OC (optimized conformer: 84.75112805280193 kcal/mol)

>  <smiles>  (84) 
COc1ccc(-c2nc(N(Cc3ccccc3)c3ccccc3)c3ccccc3n2)cc1OC

>  <score_type>  (84) 
oracle

>  <origin>  (84) 
adg

>  <m_score__min__energy>  (84) 
-8.1500000000000004

>  <m_primary>  (84) 
energy

$$$$
84:0
     RDKit          3D

 34 36  0  0  0  0  0  0  0  0999 V2000
   55.2240   29.3480   44.8630 O   0  0  0  0  0  0  0  0  0  0  0  0
   56.2640   28.6540   45.0160 C   0  0  0  0  0  0  0  0  0  0  0  0
   57.5550   29.1240   44.3920 C   0  0  0  0  0  0  0  0  0  0  0  0
   57.9450   30.4980   44.8800 C   0  0  0  0  0  0  0  0  0  0  0  0
   58.8190   30.6450   45.9720 C   0  0  0  0  0  0  0  0  0  0  0  0
   59.1310   31.9170   46.4590 C   0  0  0  0  0  0  0  0  0  0  0  0
   58.5900   33.0530   45.8510 C   0  0  0  0  0  0  0  0  0  0  0  0
   58.9740   34.6470   46.4710 Cl  0  0  0  0  0  0  0  0  0  0  0  0
   57.7400   32.9170   44.7490 C   0  0  0  0  0  0  0  0  0  0  0  0
   57.4210   31.6460   44.2620 C   0  0  0  0  0  0  0  0  0  0  0  0
   56.1890   27.4660   45.8180 N   0  0  0  0  0  0  0  0  0  0  0  0
   56.9790   26.2900   45.6150 C   0  0  0  0  0  0  0  0  0  0  0  0
   58.2830   26.2020   46.1220 C   0  0  0  0  0  0  0  0  0  0  0  0
   59.0270   25.0310   45.9580 C   0  0  0  0  0  0  0  0  0  0  0  0
   58.4740   23.9310   45.2770 C   0  0  0  0  0  0  0  0  0  0  0  0
   59.1870   22.7260   45.1100 C   0  0  0  0  0  0  0  0  0  0  0  0
   60.3540   22.6000   45.5700 O   0  0  0  0  0  0  0  0  0  0  0  0
   58.6130   21.6830   44.4460 N   0  0  0  0  0  0  0  0  0  0  0  0
   57.3570   21.7660   43.9300 C   0  0  0  0  0  0  0  0  0  0  0  0
   56.6130   22.9370   44.0680 C   0  0  0  0  0  0  0  0  0  0  0  0
   57.1680   24.0300   44.7430 C   0  0  0  0  0  0  0  0  0  0  0  0
   56.4360   25.2160   44.9040 C   0  0  0  0  0  0  0  0  0  0  0  0
   58.3546   28.4141   44.6502 H   0  0  0  0  0  0  0  0  0  0  0  0
   57.4096   29.1762   43.3029 H   0  0  0  0  0  0  0  0  0  0  0  0
   59.2590   29.7546   46.4449 H   0  0  0  0  0  0  0  0  0  0  0  0
   59.8038   32.0243   47.3226 H   0  0  0  0  0  0  0  0  0  0  0  0
   57.3217   33.8116   44.2645 H   0  0  0  0  0  0  0  0  0  0  0  0
   56.7568   31.5442   43.3911 H   0  0  0  0  0  0  0  0  0  0  0  0
   58.7228   27.0598   46.6519 H   0  0  0  0  0  0  0  0  0  0  0  0
   60.0481   24.9688   46.3624 H   0  0  0  0  0  0  0  0  0  0  0  0
   59.1470   20.7930   44.3270 H   0  0  0  0  0  0  0  0  0  0  0  0
   56.9256   20.9037   43.4005 H   0  0  0  0  0  0  0  0  0  0  0  0
   55.5977   23.0012   43.6496 H   0  0  0  0  0  0  0  0  0  0  0  0
   55.4295   25.3011   44.4684 H   0  0  0  0  0  0  0  0  0  0  0  0
  1  2  2  0
  2  3  1  0
  3  4  1  0
  4  5  2  0
  5  6  1  0
  6  7  2  0
  7  8  1  0
  7  9  1  0
  9 10  2  0
  2 11  1  0
 11 12  1  0
 12 13  2  0
 13 14  1  0
 14 15  2  0
 15 16  1  0
 16 17  2  0
 16 18  1  0
 18 19  1  0
 19 20  2  0
 20 21  1  0
 21 22  2  0
 10  4  1  0
 22 12  1  0
 21 15  1  0
  3 23  1  0
  3 24  1  0
  5 25  1  0
  6 26  1  0
  9 27  1  0
 10 28  1  0
 13 29  1  0
 14 30  1  0
 18 31  1  0
 19 32  1  0
 20 33  1  0
 22 34  1  0
M  CHG  1  11  -1
M  END
>  <UniqueID>  (85) 
74

>  <SMILES>  (85) 
O=C(Cc1ccc(Cl)cc1)[N-]c1ccc2c(=O)[nH]ccc2c1

>  <Energy>  (85) 
43.74644963532467

>  <Genealogy>  (85) 
O=C(Cc1ccc(Cl)cc1)[N-]c1ccc2c(=O)[nH]ccc2c1 (protonated)
O=C(Cc1ccc(Cl)cc1)[N-]c1ccc2c(=O)[nH]ccc2c1 (3D coordinates assigned)
O=C(Cc1ccc(Cl)cc1)[N-]c1ccc2c(=O)[nH]ccc2c1 (optimized conformer: 43.74644963532467 kcal/mol)

>  <smiles>  (85) 
O=C(Cc1ccc(Cl)cc1)Nc1ccc2c(=O)[nH]ccc2c1

>  <score_type>  (85) 
oracle

>  <origin>  (85) 
adg

>  <m_score__min__energy>  (85) 
-10.51

>  <m_primary>  (85) 
energy

$$$$
85:0
     RDKit          3D

 46 49  0  0  0  0  0  0  0  0999 V2000
   58.0090   25.3810   47.6610 O   0  0  0  0  0  0  0  0  0  0  0  0
   57.3430   25.7290   46.3580 S   0  0  0  0  0  0  0  0  0  0  0  0
   55.8940   25.3330   46.4250 O   0  0  0  0  0  0  0  0  0  0  0  0
   57.4770   27.4680   46.1120 C   0  0  0  0  0  0  0  0  0  0  0  0
   58.4310   28.2020   46.8290 C   0  0  0  0  0  0  0  0  0  0  0  0
   58.5460   29.5820   46.6410 C   0  0  0  0  0  0  0  0  0  0  0  0
   57.7040   30.2470   45.7370 C   0  0  0  0  0  0  0  0  0  0  0  0
   57.8220   31.7050   45.5530 C   0  0  0  0  0  0  0  0  0  0  0  0
   56.8450   32.5000   45.0710 N   0  0  0  0  0  0  0  0  0  0  0  0
   57.3260   33.7350   45.0840 N   0  0  0  0  0  0  0  0  0  0  0  0
   58.5760   33.6420   45.5720 C   0  0  0  0  0  0  0  0  0  0  0  0
   59.6630   35.0400   45.8330 S   0  0  0  0  0  0  0  0  0  0  0  0
   60.1430   34.5350   47.5230 C   0  0  0  0  0  0  0  0  0  0  0  0
   61.2430   33.5080   47.4840 C   0  0  0  0  0  0  0  0  0  0  0  0
   61.0150   32.2130   47.9790 C   0  0  0  0  0  0  0  0  0  0  0  0
   62.0500   31.2730   47.9920 C   0  0  0  0  0  0  0  0  0  0  0  0
   63.3180   31.6190   47.5180 C   0  0  0  0  0  0  0  0  0  0  0  0
   63.5530   32.9060   47.0260 C   0  0  0  0  0  0  0  0  0  0  0  0
   62.5200   33.8470   47.0070 C   0  0  0  0  0  0  0  0  0  0  0  0
   58.8910   32.4030   45.8560 O   0  0  0  0  0  0  0  0  0  0  0  0
   56.7420   29.5100   45.0250 C   0  0  0  0  0  0  0  0  0  0  0  0
   56.6300   28.1300   45.2120 C   0  0  0  0  0  0  0  0  0  0  0  0
   58.1310   24.8830   45.0440 N   0  0  0  0  0  0  0  0  0  0  0  0
   57.4040   25.0920   43.7870 C   0  0  0  0  0  0  0  0  0  0  0  0
   56.4360   23.9320   43.5990 C   0  0  0  0  0  0  0  0  0  0  0  0
   56.8820   22.8630   44.5780 C   0  0  0  0  0  0  0  0  0  0  0  0
   58.1070   23.4350   45.2760 C   0  0  0  0  0  0  0  0  0  0  0  0
   59.0925   27.6897   47.5431 H   0  0  0  0  0  0  0  0  0  0  0  0
   59.3007   30.1499   47.2048 H   0  0  0  0  0  0  0  0  0  0  0  0
   60.4941   35.4181   48.0769 H   0  0  0  0  0  0  0  0  0  0  0  0
   59.2669   34.0933   48.0203 H   0  0  0  0  0  0  0  0  0  0  0  0
   60.0194   31.9379   48.3574 H   0  0  0  0  0  0  0  0  0  0  0  0
   61.8656   30.2589   48.3762 H   0  0  0  0  0  0  0  0  0  0  0  0
   64.1313   30.8785   47.5320 H   0  0  0  0  0  0  0  0  0  0  0  0
   64.5516   33.1783   46.6536 H   0  0  0  0  0  0  0  0  0  0  0  0
   62.7078   34.8581   46.6166 H   0  0  0  0  0  0  0  0  0  0  0  0
   56.0740   30.0223   44.3170 H   0  0  0  0  0  0  0  0  0  0  0  0
   55.8743   27.5606   44.6509 H   0  0  0  0  0  0  0  0  0  0  0  0
   56.8461   26.0389   43.8325 H   0  0  0  0  0  0  0  0  0  0  0  0
   58.1087   25.1394   42.9437 H   0  0  0  0  0  0  0  0  0  0  0  0
   55.4071   24.2510   43.8218 H   0  0  0  0  0  0  0  0  0  0  0  0
   56.4418   23.5620   42.5631 H   0  0  0  0  0  0  0  0  0  0  0  0
   56.0861   22.6545   45.3081 H   0  0  0  0  0  0  0  0  0  0  0  0
   57.1083   21.9139   44.0700 H   0  0  0  0  0  0  0  0  0  0  0  0
   58.0496   23.2316   46.3555 H   0  0  0  0  0  0  0  0  0  0  0  0
   59.0221   22.9710   44.8794 H   0  0  0  0  0  0  0  0  0  0  0  0
  1  2  2  0
  2  3  2  0
  2  4  1  0
  4  5  2  0
  5  6  1  0
  6  7  2  0
  7  8  1  0
  8  9  2  0
  9 10  1  0
 10 11  2  0
 11 12  1  0
 12 13  1  0
 13 14  1  0
 14 15  2  0
 15 16  1  0
 16 17  2  0
 17 18  1  0
 18 19  2  0
 11 20  1  0
  7 21  1  0
 21 22  2  0
  2 23  1  0
 23 24  1  0
 24 25  1  0
 25 26  1  0
 26 27  1  0
 22  4  1  0
 27 23  1  0
 20  8  1  0
 19 14  1  0
  5 28  1  0
  6 29  1  0
 13 30  1  0
 13 31  1  0
 15 32  1  0
 16 33  1  0
 17 34  1  0
 18 35  1  0
 19 36  1  0
 21 37  1  0
 22 38  1  0
 24 39  1  0
 24 40  1  0
 25 41  1  0
 25 42  1  0
 26 43  1  0
 26 44  1  0
 27 45  1  0
 27 46  1  0
M  END
>  <UniqueID>  (86) 
75

>  <SMILES>  (86) 
O=S(=O)(c1ccc(-c2nnc(SCc3ccccc3)o2)cc1)N1CCCC1

>  <Energy>  (86) 
79.67781418148212

>  <Genealogy>  (86) 
O=S(=O)(c1ccc(-c2nnc(SCc3ccccc3)o2)cc1)N1CCCC1 (3D coordinates assigned)
O=S(=O)(c1ccc(-c2nnc(SCc3ccccc3)o2)cc1)N1CCCC1 (nonaromatic ring conformer: 79.67781418148212 kcal/mol)

>  <smiles>  (86) 
O=S(=O)(c1ccc(-c2nnc(SCc3ccccc3)o2)cc1)N1CCCC1

>  <score_type>  (86) 
oracle

>  <origin>  (86) 
adg

>  <m_score__min__energy>  (86) 
-9.5199999999999996

>  <m_primary>  (86) 
energy

$$$$
86:0
     RDKit          3D

 46 48  0  0  1  0  0  0  0  0999 V2000
   57.1020   34.5720   45.0940 C   0  0  0  0  0  0  0  0  0  0  0  0
   58.4900   34.1330   45.4340 C   0  0  0  0  0  0  0  0  0  0  0  0
   58.9600   34.9310   46.6490 C   0  0  0  0  0  0  0  0  0  0  0  0
   58.4780   32.3990   45.8310 S   0  0  0  0  0  0  0  0  0  0  0  0
   57.7980   32.1790   47.1280 O   0  0  0  0  0  0  0  0  0  0  0  0
   59.8980   31.9050   45.9810 O   0  0  0  0  0  0  0  0  0  0  0  0
   57.7600   31.5200   44.5070 C   0  0  0  0  0  0  0  0  0  0  0  0
   57.7460   31.9740   43.2160 C   0  0  0  0  0  0  0  0  0  0  0  0
   57.1660   31.2520   42.1840 C   0  0  0  0  0  0  0  0  0  0  0  0
   56.5760   30.0330   42.4310 C   0  0  0  0  0  0  0  0  0  0  0  0
   56.5840   29.5650   43.7290 C   0  0  0  0  0  0  0  0  0  0  0  0
   57.1700   30.3010   44.7610 C   0  0  0  0  0  0  0  0  0  0  0  0
   61.1090   29.6550   48.4250 N   0  0  0  0  0  0  0  0  0  0  0  0
   60.1980   29.0890   47.7140 C   0  0  0  0  0  0  0  0  0  0  0  0
   59.1070   29.7270   47.2500 N   0  0  0  0  0  0  0  0  0  0  0  0
   58.1730   29.1050   46.5100 C   0  0  0  0  0  0  0  0  0  0  0  0
   57.1150   29.7140   46.0570 N   0  0  0  0  0  0  0  0  0  0  0  0
   61.1350   31.0750   48.5190 C   0  0  0  0  0  0  0  0  0  0  0  0
   60.2930   31.7940   49.3430 C   0  0  0  0  0  0  0  0  0  0  0  0
   60.4220   33.1820   49.3420 C   0  0  0  0  0  0  0  0  0  0  0  0
   61.3540   33.8290   48.5500 C   0  0  0  0  0  0  0  0  0  0  0  0
   62.1990   33.1020   47.7240 C   0  0  0  0  0  0  0  0  0  0  0  0
   63.3970   33.8840   46.7030 Cl  0  0  0  0  0  0  0  0  0  0  0  0
   62.0840   31.7140   47.7140 C   0  0  0  0  0  0  0  0  0  0  0  0
   60.3730   27.7810   47.4340 N   0  0  0  0  0  0  0  0  0  0  0  0
   59.4800   27.0920   46.6990 C   0  0  0  0  0  0  0  0  0  0  0  0
   58.3660   27.7600   46.2300 C   0  0  0  0  0  0  0  0  0  0  0  0
   57.1870   26.8750   45.2670 Cl  0  0  0  0  0  0  0  0  0  0  0  0
   56.5367   34.7508   46.0205 H   0  0  0  0  0  0  0  0  0  0  0  0
   57.1448   35.5004   44.5057 H   0  0  0  0  0  0  0  0  0  0  0  0
   56.6032   33.7878   44.5057 H   0  0  0  0  0  0  0  0  0  0  0  0
   59.1654   34.3038   44.5827 H   0  0  0  0  0  0  0  0  0  0  0  0
   58.6542   34.4118   47.5693 H   0  0  0  0  0  0  0  0  0  0  0  0
   60.0560   35.0221   46.6263 H   0  0  0  0  0  0  0  0  0  0  0  0
   58.5082   35.9337   46.6263 H   0  0  0  0  0  0  0  0  0  0  0  0
   58.2108   32.9449   42.9893 H   0  0  0  0  0  0  0  0  0  0  0  0
   57.1774   31.6561   41.1610 H   0  0  0  0  0  0  0  0  0  0  0  0
   56.1134   29.4511   41.6202 H   0  0  0  0  0  0  0  0  0  0  0  0
   56.1199   28.5937   43.9552 H   0  0  0  0  0  0  0  0  0  0  0  0
   58.9900   30.7370   47.4780 H   0  0  0  0  0  0  0  0  0  0  0  0
   59.5480   31.2906   49.9768 H   0  0  0  0  0  0  0  0  0  0  0  0
   59.7639   33.7801   49.9895 H   0  0  0  0  0  0  0  0  0  0  0  0
   61.4254   34.9264   48.5754 H   0  0  0  0  0  0  0  0  0  0  0  0
   62.7441   31.1160   47.0685 H   0  0  0  0  0  0  0  0  0  0  0  0
   61.2310   27.2750   47.7980 H   0  0  0  0  0  0  0  0  0  0  0  0
   59.6336   26.0254   46.4779 H   0  0  0  0  0  0  0  0  0  0  0  0
  1  2  1  0
  2  3  1  0
  2  4  1  0
  4  5  2  0
  4  6  2  0
  4  7  1  0
  7  8  2  0
  8  9  1  0
  9 10  2  0
 10 11  1  0
 11 12  2  0
 12 13  1  0
 13 14  2  0
 14 15  1  0
 15 16  1  0
 16 17  2  0
 17 18  1  0
 18 19  2  0
 19 20  1  0
 20 21  2  0
 21 22  1  0
 22 23  1  0
 22 24  2  0
 16 25  1  0
 25 26  1  0
 26 27  2  0
 27 28  1  0
 12  7  1  0
 27 14  1  0
 24 18  1  0
  1 29  1  0
  1 30  1  0
  1 31  1  0
  2 32  1  0
  3 33  1  0
  3 34  1  0
  3 35  1  0
  8 36  1  0
  9 37  1  0
 10 38  1  0
 11 39  1  0
 15 40  1  0
 19 41  1  0
 20 42  1  0
 21 43  1  0
 24 44  1  0
 25 45  1  0
 26 46  1  0
M  END
>  <smiles>  (87) 
CC(C)S(=O)(=O)c1ccccc1N=c1[nH]c(=Nc2cccc(Cl)c2)[nH]cc1Cl

>  <score_type>  (87) 
oracle

>  <origin>  (87) 
adg

>  <m_score__min__energy>  (87) 
-9.7400000000000002

>  <m_primary>  (87) 
energy

$$$$
87:0
     RDKit          3D

 32 33  0  0  0  0  0  0  0  0999 V2000
   59.2930   33.2310   48.5640 C   0  0  0  0  0  0  0  0  0  0  0  0
   58.7910   33.3680   47.1620 C   0  0  0  0  0  0  0  0  0  0  0  0
   59.1810   34.4580   46.3760 C   0  0  0  0  0  0  0  0  0  0  0  0
   58.7120   34.5580   45.0660 C   0  0  0  0  0  0  0  0  0  0  0  0
   57.8560   33.5810   44.5560 C   0  0  0  0  0  0  0  0  0  0  0  0
   57.4630   32.5030   45.3770 C   0  0  0  0  0  0  0  0  0  0  0  0
   56.6760   31.5510   44.9610 N   0  0  0  0  0  0  0  0  0  0  0  0
   56.7980   30.7910   43.7500 C   0  0  0  0  0  0  0  0  0  0  0  0
   57.4630   31.2670   42.7920 O   0  0  0  0  0  0  0  0  0  0  0  0
   56.2500   29.3990   43.6440 C   0  0  0  0  0  0  0  0  0  0  0  0
   57.6170   28.2140   43.4240 S   0  0  0  0  0  0  0  0  0  0  0  0
   58.1040   28.2760   45.1540 C   0  0  0  0  0  0  0  0  0  0  0  0
   59.0520   29.1890   45.5010 N   0  0  0  0  0  0  0  0  0  0  0  0
   59.4760   29.3480   46.7800 C   0  0  0  0  0  0  0  0  0  0  0  0
   58.9320   28.5660   47.7940 C   0  0  0  0  0  0  0  0  0  0  0  0
   57.9590   27.6200   47.4800 C   0  0  0  0  0  0  0  0  0  0  0  0
   57.5270   27.4470   46.1520 C   0  0  0  0  0  0  0  0  0  0  0  0
   56.4950   26.4160   45.8680 C   0  0  0  0  0  0  0  0  0  0  0  0
   56.8110   25.2500   45.5160 O   0  0  0  0  0  0  0  0  0  0  0  0
   55.1460   26.7220   46.0140 O   0  0  0  0  0  0  0  0  0  0  0  0
   57.9540   32.4280   46.6440 N   0  0  0  0  0  0  0  0  0  0  0  0
   58.4781   33.4534   49.2686 H   0  0  0  0  0  0  0  0  0  0  0  0
   59.6486   32.2030   48.7273 H   0  0  0  0  0  0  0  0  0  0  0  0
   60.1215   33.9359   48.7273 H   0  0  0  0  0  0  0  0  0  0  0  0
   59.8505   35.2281   46.7868 H   0  0  0  0  0  0  0  0  0  0  0  0
   59.0167   35.4063   44.4355 H   0  0  0  0  0  0  0  0  0  0  0  0
   57.4902   33.6509   43.5210 H   0  0  0  0  0  0  0  0  0  0  0  0
   55.6974   29.1529   44.5627 H   0  0  0  0  0  0  0  0  0  0  0  0
   55.5740   29.3392   42.7783 H   0  0  0  0  0  0  0  0  0  0  0  0
   60.2491   30.0944   47.0150 H   0  0  0  0  0  0  0  0  0  0  0  0
   59.2671   28.6936   48.8339 H   0  0  0  0  0  0  0  0  0  0  0  0
   57.5236   27.0015   48.2787 H   0  0  0  0  0  0  0  0  0  0  0  0
  1  2  1  0
  2  3  2  0
  3  4  1  0
  4  5  2  0
  5  6  1  0
  6  7  2  3
  7  8  1  0
  8  9  2  0
  8 10  1  0
 10 11  1  0
 11 12  1  0
 12 13  2  0
 13 14  1  0
 14 15  2  0
 15 16  1  0
 16 17  2  0
 17 18  1  0
 18 19  2  0
 18 20  1  0
  6 21  1  0
 21  2  1  0
 17 12  1  0
  1 22  1  0
  1 23  1  0
  1 24  1  0
  3 25  1  0
  4 26  1  0
  5 27  1  0
 10 28  1  0
 10 29  1  0
 14 30  1  0
 15 31  1  0
 16 32  1  0
M  CHG  2  20  -1  21  -1
M  END
>  <UniqueID>  (88) 
76

>  <SMILES>  (88) 
Cc1cccc(=NC(=O)CSc2ncccc2C(=O)[O-])[n-]1

>  <Energy>  (88) 
41.410777299947696

>  <Genealogy>  (88) 
Cc1cccc(=NC(=O)CSc2ncccc2C(=O)[O-])[n-]1 (protonated)
Cc1cccc(=NC(=O)CSc2ncccc2C(=O)[O-])[n-]1 (3D coordinates assigned)
Cc1cccc(=NC(=O)CSc2ncccc2C(=O)[O-])[n-]1 (optimized conformer: 41.410777299947696 kcal/mol)

>  <smiles>  (88) 
Cc1cccc(=NC(=O)CSc2ncccc2C(=O)O)[nH]1

>  <score_type>  (88) 
oracle

>  <origin>  (88) 
adg

>  <m_score__min__energy>  (88) 
-11.59

>  <m_primary>  (88) 
energy

$$$$
88:0
     RDKit          3D

 56 60  0  0  0  0  0  0  0  0999 V2000
   59.8500   28.7350   48.8960 O   0  0  0  0  0  0  0  0  0  0  0  0
   59.1010   28.9580   47.9060 C   0  0  0  0  0  0  0  0  0  0  0  0
   58.5900   27.9130   47.2090 N   0  0  0  0  0  0  0  0  0  0  0  0
   57.7650   28.0770   46.1400 C   0  0  0  0  0  0  0  0  0  0  0  0
   57.2390   26.7150   45.3870 S   0  0  0  0  0  0  0  0  0  0  0  0
   57.4290   29.3980   45.7290 C   0  0  0  0  0  0  0  0  0  0  0  0
   56.5750   29.7140   44.7270 C   0  0  0  0  0  0  0  0  0  0  0  0
   55.1970   29.7810   44.9190 O   0  0  0  0  0  0  0  0  0  0  0  0
   57.0950   30.0250   43.4250 N   0  0  0  0  0  0  0  0  0  0  0  0
   57.0950   31.3990   42.9390 C   0  0  0  0  0  0  0  0  0  0  0  0
   58.3300   32.1360   43.4640 C   0  0  0  0  0  0  0  0  0  0  0  0
   58.0240   32.8590   44.7390 C   0  0  0  0  0  0  0  0  0  0  0  0
   56.7650   33.0700   45.2910 C   0  0  0  0  0  0  0  0  0  0  0  0
   56.8710   33.7260   46.4700 N   0  0  0  0  0  0  0  0  0  0  0  0
   58.1860   33.9220   46.6680 C   0  0  0  0  0  0  0  0  0  0  0  0
   58.7920   34.5450   47.7590 C   0  0  0  0  0  0  0  0  0  0  0  0
   60.1960   34.6250   47.7740 C   0  0  0  0  0  0  0  0  0  0  0  0
   60.9540   34.0870   46.7100 C   0  0  0  0  0  0  0  0  0  0  0  0
   60.3150   33.4650   45.6220 C   0  0  0  0  0  0  0  0  0  0  0  0
   58.9230   33.4030   45.6360 C   0  0  0  0  0  0  0  0  0  0  0  0
   57.9690   30.4290   46.4350 N   0  0  0  0  0  0  0  0  0  0  0  0
   58.7850   30.2670   47.5080 C   0  0  0  0  0  0  0  0  0  0  0  0
   59.2170   31.3460   48.1870 C   0  0  0  0  0  0  0  0  0  0  0  0
   59.2310   31.4000   49.6660 C   0  0  0  0  0  0  0  0  0  0  0  0
   58.2410   30.9030   50.4970 C   0  0  0  0  0  0  0  0  0  0  0  0
   58.6900   31.0830   51.7920 C   0  0  0  0  0  0  0  0  0  0  0  0
   59.9320   31.6770   51.7020 C   0  0  0  0  0  0  0  0  0  0  0  0
   60.2530   31.8780   50.4080 N   0  0  0  0  0  0  0  0  0  0  0  0
   61.5060   32.3900   49.9310 C   0  0  0  0  0  0  0  0  0  0  0  0
   61.9330   33.6700   50.3170 C   0  0  0  0  0  0  0  0  0  0  0  0
   63.1510   34.1750   49.8560 C   0  0  0  0  0  0  0  0  0  0  0  0
   63.9540   33.4050   49.0100 C   0  0  0  0  0  0  0  0  0  0  0  0
   63.5380   32.1280   48.6220 C   0  0  0  0  0  0  0  0  0  0  0  0
   62.3150   31.6140   49.0790 C   0  0  0  0  0  0  0  0  0  0  0  0
   61.8930   30.3470   48.6800 O   0  0  0  0  0  0  0  0  0  0  0  0
   54.7930   30.4430   45.5700 H   0  0  0  0  0  0  0  0  0  0  0  0
   57.7910   29.3680   43.0030 H   0  0  0  0  0  0  0  0  0  0  0  0
   57.1112   31.3971   41.8391 H   0  0  0  0  0  0  0  0  0  0  0  0
   56.1887   31.9100   43.2960 H   0  0  0  0  0  0  0  0  0  0  0  0
   59.1325   31.4066   43.6482 H   0  0  0  0  0  0  0  0  0  0  0  0
   58.6437   32.8734   42.7105 H   0  0  0  0  0  0  0  0  0  0  0  0
   55.8173   32.7491   44.8340 H   0  0  0  0  0  0  0  0  0  0  0  0
   56.0890   34.0100   47.0990 H   0  0  0  0  0  0  0  0  0  0  0  0
   58.1910   34.9604   48.5813 H   0  0  0  0  0  0  0  0  0  0  0  0
   60.7070   35.1093   48.6192 H   0  0  0  0  0  0  0  0  0  0  0  0
   62.0517   34.1550   46.7325 H   0  0  0  0  0  0  0  0  0  0  0  0
   60.8946   33.0419   44.7883 H   0  0  0  0  0  0  0  0  0  0  0  0
   59.5728   32.2200   47.6217 H   0  0  0  0  0  0  0  0  0  0  0  0
   57.2858   30.4536   50.1877 H   0  0  0  0  0  0  0  0  0  0  0  0
   58.1598   30.8063   52.7152 H   0  0  0  0  0  0  0  0  0  0  0  0
   60.5665   31.9467   52.5591 H   0  0  0  0  0  0  0  0  0  0  0  0
   61.3058   34.2781   50.9854 H   0  0  0  0  0  0  0  0  0  0  0  0
   63.4787   35.1803   50.1593 H   0  0  0  0  0  0  0  0  0  0  0  0
   64.9136   33.8039   48.6494 H   0  0  0  0  0  0  0  0  0  0  0  0
   64.1717   31.5240   47.9560 H   0  0  0  0  0  0  0  0  0  0  0  0
   61.0250   29.9460   49.0160 H   0  0  0  0  0  0  0  0  0  0  0  0
  1  2  2  0
  2  3  1  0
  3  4  1  0
  4  5  2  0
  4  6  1  0
  6  7  2  3
  7  8  1  0
  7  9  1  0
  9 10  1  0
 10 11  1  0
 11 12  1  0
 12 13  2  0
 13 14  1  0
 14 15  1  0
 15 16  2  0
 16 17  1  0
 17 18  2  0
 18 19  1  0
 19 20  2  0
  6 21  1  0
 21 22  1  0
 22 23  2  3
 23 24  1  0
 24 25  2  0
 25 26  1  0
 26 27  2  0
 27 28  1  0
 28 29  1  0
 29 30  2  0
 30 31  1  0
 31 32  2  0
 32 33  1  0
 33 34  2  0
 34 35  1  0
 22  2  1  0
 28 24  1  0
 34 29  1  0
 20 12  1  0
 20 15  1  0
  8 36  1  0
  9 37  1  0
 10 38  1  0
 10 39  1  0
 11 40  1  0
 11 41  1  0
 13 42  1  0
 14 43  1  0
 16 44  1  0
 17 45  1  0
 18 46  1  0
 19 47  1  0
 23 48  1  0
 25 49  1  0
 26 50  1  0
 27 51  1  0
 30 52  1  0
 31 53  1  0
 32 54  1  0
 33 55  1  0
 35 56  1  0
M  CHG  2   3  -1  21  -1
M  END
>  <UniqueID>  (89) 
77

>  <SMILES>  (89) 
O=c1[n-]c(=S)c(=C(O)NCCc2c[nH]c3ccccc23)[n-]c1=Cc1cccn1-c1ccccc1O

>  <Energy>  (89) 
139.97328899671464

>  <Genealogy>  (89) 
O=c1[n-]c(=S)c(=C(O)NCCc2c[nH]c3ccccc23)[n-]c1=Cc1cccn1-c1ccccc1O (protonated)
O=c1[n-]c(=S)c(=C(O)NCCc2c[nH]c3ccccc23)[n-]c1=Cc1cccn1-c1ccccc1O (3D coordinates assigned)
O=c1[n-]c(=S)c(=C(O)NCCc2c[nH]c3ccccc23)[n-]c1=Cc1cccn1-c1ccccc1O (optimized conformer: 139.97328899671464 kcal/mol)

>  <smiles>  (89) 
O=c1[nH]c(=S)c(=C(O)NCCc2c[nH]c3ccccc23)[nH]c1=Cc1cccn1-c1ccccc1O

>  <score_type>  (89) 
oracle

>  <origin>  (89) 
adg

>  <m_score__min__energy>  (89) 
-11.93

>  <m_primary>  (89) 
energy

$$$$
89:0
     RDKit          3D

 46 48  0  0  0  0  0  0  0  0999 V2000
   59.5650   34.9750   45.8810 C   0  0  0  0  0  0  0  0  0  0  0  0
   59.1830   33.5260   46.0130 C   0  0  0  0  0  0  0  0  0  0  0  0
   58.1470   33.0020   45.2190 C   0  0  0  0  0  0  0  0  0  0  0  0
   57.7750   31.6510   45.3280 C   0  0  0  0  0  0  0  0  0  0  0  0
   56.7310   31.0750   44.5280 N   0  0  0  0  0  0  0  0  0  0  0  0
   56.2940   29.7080   44.5350 C   0  0  0  0  0  0  0  0  0  0  0  0
   55.1690   29.3910   45.0100 O   0  0  0  0  0  0  0  0  0  0  0  0
   57.1800   28.6480   43.9530 C   0  0  0  0  0  0  0  0  0  0  0  0
   57.8520   27.8520   45.0440 C   0  0  0  0  0  0  0  0  0  0  0  0
   59.2510   27.9290   45.1800 C   0  0  0  0  0  0  0  0  0  0  0  0
   59.9060   27.2290   46.1970 C   0  0  0  0  0  0  0  0  0  0  0  0
   59.1720   26.4490   47.0930 C   0  0  0  0  0  0  0  0  0  0  0  0
   57.7830   26.3680   46.9790 C   0  0  0  0  0  0  0  0  0  0  0  0
   57.1120   27.0650   45.9660 C   0  0  0  0  0  0  0  0  0  0  0  0
   55.7220   26.9590   45.9070 O   0  0  0  0  0  0  0  0  0  0  0  0
   58.4050   30.8450   46.2790 C   0  0  0  0  0  0  0  0  0  0  0  0
   59.4220   31.3580   47.0870 C   0  0  0  0  0  0  0  0  0  0  0  0
   59.8260   32.6980   46.9580 C   0  0  0  0  0  0  0  0  0  0  0  0
   60.8810   33.2450   47.7670 N   0  0  0  0  0  0  0  0  0  0  0  0
   62.5810   32.9530   47.5640 S   0  0  0  0  0  0  0  0  0  0  0  0
   63.1100   33.8780   46.5070 O   0  0  0  0  0  0  0  0  0  0  0  0
   62.8070   31.5370   47.1060 O   0  0  0  0  0  0  0  0  0  0  0  0
   63.4190   33.2880   49.0760 C   0  0  0  0  0  0  0  0  0  0  0  0
   62.8650   34.1500   50.0380 C   0  0  0  0  0  0  0  0  0  0  0  0
   63.5700   34.4310   51.2160 C   0  0  0  0  0  0  0  0  0  0  0  0
   64.8220   33.8480   51.4420 C   0  0  0  0  0  0  0  0  0  0  0  0
   65.3720   32.9830   50.4880 C   0  0  0  0  0  0  0  0  0  0  0  0
   64.6750   32.7080   49.3060 C   0  0  0  0  0  0  0  0  0  0  0  0
   59.6813   35.4162   46.8819 H   0  0  0  0  0  0  0  0  0  0  0  0
   60.5150   35.0552   45.3323 H   0  0  0  0  0  0  0  0  0  0  0  0
   58.7780   35.5131   45.3323 H   0  0  0  0  0  0  0  0  0  0  0  0
   57.6230   33.6556   44.5061 H   0  0  0  0  0  0  0  0  0  0  0  0
   56.5731   27.9707   43.3342 H   0  0  0  0  0  0  0  0  0  0  0  0
   57.9556   29.1334   43.3424 H   0  0  0  0  0  0  0  0  0  0  0  0
   59.8337   28.5455   44.4797 H   0  0  0  0  0  0  0  0  0  0  0  0
   61.0001   27.2925   46.2917 H   0  0  0  0  0  0  0  0  0  0  0  0
   59.6898   25.8967   47.8910 H   0  0  0  0  0  0  0  0  0  0  0  0
   57.2116   25.7527   47.6895 H   0  0  0  0  0  0  0  0  0  0  0  0
   55.1490   27.5120   45.2820 H   0  0  0  0  0  0  0  0  0  0  0  0
   58.0969   29.7952   46.3927 H   0  0  0  0  0  0  0  0  0  0  0  0
   59.9100   30.7092   47.8292 H   0  0  0  0  0  0  0  0  0  0  0  0
   61.8779   34.6041   49.8662 H   0  0  0  0  0  0  0  0  0  0  0  0
   63.1383   35.1114   51.9648 H   0  0  0  0  0  0  0  0  0  0  0  0
   65.3733   34.0690   52.3679 H   0  0  0  0  0  0  0  0  0  0  0  0
   66.3531   32.5191   50.6679 H   0  0  0  0  0  0  0  0  0  0  0  0
   65.1137   32.0347   48.5549 H   0  0  0  0  0  0  0  0  0  0  0  0
  1  2  1  0
  2  3  2  0
  3  4  1  0
  4  5  1  0
  5  6  1  0
  6  7  2  0
  6  8  1  0
  8  9  1  0
  9 10  2  0
 10 11  1  0
 11 12  2  0
 12 13  1  0
 13 14  2  0
 14 15  1  0
  4 16  2  0
 16 17  1  0
 17 18  2  0
 18 19  1  0
 19 20  1  0
 20 21  2  0
 20 22  2  0
 20 23  1  0
 23 24  2  0
 24 25  1  0
 25 26  2  0
 26 27  1  0
 27 28  2  0
 18  2  1  0
 28 23  1  0
 14  9  1  0
  1 29  1  0
  1 30  1  0
  1 31  1  0
  3 32  1  0
  8 33  1  0
  8 34  1  0
 10 35  1  0
 11 36  1  0
 12 37  1  0
 13 38  1  0
 15 39  1  0
 16 40  1  0
 17 41  1  0
 24 42  1  0
 25 43  1  0
 26 44  1  0
 27 45  1  0
 28 46  1  0
M  CHG  2   5  -1  19  -1
M  END
>  <UniqueID>  (90) 
78

>  <SMILES>  (90) 
Cc1cc([N-]C(=O)Cc2ccccc2O)ccc1[N-]S(=O)(=O)c1ccccc1

>  <Energy>  (90) 
56.18309982590044

>  <Genealogy>  (90) 
Cc1cc([N-]C(=O)Cc2ccccc2O)ccc1[N-]S(=O)(=O)c1ccccc1 (protonated)
Cc1cc([N-]C(=O)Cc2ccccc2O)ccc1[N-]S(=O)(=O)c1ccccc1 (3D coordinates assigned)
Cc1cc([N-]C(=O)Cc2ccccc2O)ccc1[N-]S(=O)(=O)c1ccccc1 (optimized conformer: 56.18309982590044 kcal/mol)

>  <smiles>  (90) 
Cc1cc(NC(=O)Cc2ccccc2O)ccc1NS(=O)(=O)c1ccccc1

>  <score_type>  (90) 
oracle

>  <origin>  (90) 
adg

>  <m_score__min__energy>  (90) 
-13.16

>  <m_primary>  (90) 
energy

$$$$
90:0
     RDKit          3D

 47 49  0  0  0  0  0  0  0  0999 V2000
   59.6320   34.1860   48.5000 C   0  0  0  0  0  0  0  0  0  0  0  0
   58.4300   33.9420   47.7770 O   0  0  0  0  0  0  0  0  0  0  0  0
   58.3800   33.4700   46.4580 C   0  0  0  0  0  0  0  0  0  0  0  0
   58.9140   34.1930   45.3800 C   0  0  0  0  0  0  0  0  0  0  0  0
   58.8560   33.6730   44.0850 C   0  0  0  0  0  0  0  0  0  0  0  0
   58.2530   32.4240   43.8420 C   0  0  0  0  0  0  0  0  0  0  0  0
   58.2170   31.8600   42.5570 O   0  0  0  0  0  0  0  0  0  0  0  0
   57.3860   32.3190   41.4950 C   0  0  0  0  0  0  0  0  0  0  0  0
   57.6800   31.7180   44.9170 C   0  0  0  0  0  0  0  0  0  0  0  0
   56.8720   30.1700   44.6430 S   0  0  0  0  0  0  0  0  0  0  0  0
   55.4120   30.4360   44.4090 O   0  0  0  0  0  0  0  0  0  0  0  0
   57.4390   29.4880   43.4280 O   0  0  0  0  0  0  0  0  0  0  0  0
   57.0410   29.1280   46.0200 N   0  0  0  0  0  0  0  0  0  0  0  0
   57.8340   27.9370   46.0200 C   0  0  0  0  0  0  0  0  0  0  0  0
   57.3540   26.8200   45.3210 C   0  0  0  0  0  0  0  0  0  0  0  0
   58.0610   25.6190   45.3320 C   0  0  0  0  0  0  0  0  0  0  0  0
   59.2740   25.5290   46.0130 C   0  0  0  0  0  0  0  0  0  0  0  0
   59.9670   24.3650   46.0130 F   0  0  0  0  0  0  0  0  0  0  0  0
   59.7910   26.6490   46.6700 C   0  0  0  0  0  0  0  0  0  0  0  0
   59.0860   27.8650   46.6750 C   0  0  0  0  0  0  0  0  0  0  0  0
   59.7080   29.0290   47.2480 N   0  0  0  0  0  0  0  0  0  0  0  0
   59.3910   29.3820   48.6410 C   0  0  0  0  0  0  0  0  0  0  0  0
   59.8360   30.8000   48.9910 C   0  0  0  0  0  0  0  0  0  0  0  0
   61.1010   31.0740   48.4370 O   0  0  0  0  0  0  0  0  0  0  0  0
   60.9710   31.1810   47.0380 C   0  0  0  0  0  0  0  0  0  0  0  0
   60.6080   29.8320   46.4030 C   0  0  0  0  0  0  0  0  0  0  0  0
   57.7710   32.2350   46.2170 C   0  0  0  0  0  0  0  0  0  0  0  0
   59.4254   34.1441   49.5796 H   0  0  0  0  0  0  0  0  0  0  0  0
   60.3783   33.4210   48.2395 H   0  0  0  0  0  0  0  0  0  0  0  0
   60.0209   35.1814   48.2395 H   0  0  0  0  0  0  0  0  0  0  0  0
   59.3803   35.1736   45.5558 H   0  0  0  0  0  0  0  0  0  0  0  0
   59.2849   34.2438   43.2482 H   0  0  0  0  0  0  0  0  0  0  0  0
   56.4953   32.8110   41.9128 H   0  0  0  0  0  0  0  0  0  0  0  0
   57.9448   33.0364   40.8760 H   0  0  0  0  0  0  0  0  0  0  0  0
   57.0763   31.4640   40.8760 H   0  0  0  0  0  0  0  0  0  0  0  0
   56.4111   26.8924   44.7591 H   0  0  0  0  0  0  0  0  0  0  0  0
   57.6615   24.7413   44.8028 H   0  0  0  0  0  0  0  0  0  0  0  0
   60.7588   26.5782   47.1881 H   0  0  0  0  0  0  0  0  0  0  0  0
   58.3035   29.3055   48.7874 H   0  0  0  0  0  0  0  0  0  0  0  0
   59.9327   28.6857   49.2980 H   0  0  0  0  0  0  0  0  0  0  0  0
   59.1037   31.5174   48.5921 H   0  0  0  0  0  0  0  0  0  0  0  0
   59.9012   30.8910   50.0853 H   0  0  0  0  0  0  0  0  0  0  0  0
   60.1797   31.9094   46.8071 H   0  0  0  0  0  0  0  0  0  0  0  0
   61.9366   31.5084   46.6253 H   0  0  0  0  0  0  0  0  0  0  0  0
   60.1118   30.0190   45.4392 H   0  0  0  0  0  0  0  0  0  0  0  0
   61.5408   29.2627   46.2771 H   0  0  0  0  0  0  0  0  0  0  0  0
   57.3574   31.6608   47.0591 H   0  0  0  0  0  0  0  0  0  0  0  0
  1  2  1  0
  2  3  1  0
  3  4  2  0
  4  5  1  0
  5  6  2  0
  6  7  1  0
  7  8  1  0
  6  9  1  0
  9 10  1  0
 10 11  2  0
 10 12  2  0
 10 13  1  0
 13 14  1  0
 14 15  2  0
 15 16  1  0
 16 17  2  0
 17 18  1  0
 17 19  1  0
 19 20  2  0
 20 21  1  0
 21 22  1  0
 22 23  1  0
 23 24  1  0
 24 25  1  0
 25 26  1  0
  9 27  2  0
 27  3  1  0
 20 14  1  0
 26 21  1  0
  1 28  1  0
  1 29  1  0
  1 30  1  0
  4 31  1  0
  5 32  1  0
  8 33  1  0
  8 34  1  0
  8 35  1  0
 15 36  1  0
 16 37  1  0
 19 38  1  0
 22 39  1  0
 22 40  1  0
 23 41  1  0
 23 42  1  0
 25 43  1  0
 25 44  1  0
 26 45  1  0
 26 46  1  0
 27 47  1  0
M  CHG  1  13  -1
M  END
>  <UniqueID>  (91) 
79

>  <SMILES>  (91) 
COc1ccc(OC)c(S(=O)(=O)[N-]c2ccc(F)cc2N2CCOCC2)c1

>  <Energy>  (91) 
63.139367916780635

>  <Genealogy>  (91) 
COc1ccc(OC)c(S(=O)(=O)[N-]c2ccc(F)cc2N2CCOCC2)c1 (protonated)
COc1ccc(OC)c(S(=O)(=O)[N-]c2ccc(F)cc2N2CCOCC2)c1 (3D coordinates assigned)
COc1ccc(OC)c(S(=O)(=O)[N-]c2ccc(F)cc2N2CCOCC2)c1 (nonaromatic ring conformer: 63.139367916780635 kcal/mol)

>  <smiles>  (91) 
COc1ccc(OC)c(S(=O)(=O)Nc2ccc(F)cc2N2CCOCC2)c1

>  <score_type>  (91) 
oracle

>  <origin>  (91) 
adg

>  <m_score__min__energy>  (91) 
-8.7899999999999991

>  <m_primary>  (91) 
energy

$$$$
91:0
     RDKit          3D

 53 56  0  0  0  0  0  0  0  0999 V2000
   55.9290   30.0290   43.5200 C   0  0  0  0  0  0  0  0  0  0  0  0
   56.2690   29.8870   44.8960 O   0  0  0  0  0  0  0  0  0  0  0  0
   57.3190   29.0930   45.3790 C   0  0  0  0  0  0  0  0  0  0  0  0
   57.3070   27.6910   45.2540 C   0  0  0  0  0  0  0  0  0  0  0  0
   58.3780   26.9340   45.7270 C   0  0  0  0  0  0  0  0  0  0  0  0
   59.4690   27.5590   46.3310 C   0  0  0  0  0  0  0  0  0  0  0  0
   59.4900   28.9470   46.4660 C   0  0  0  0  0  0  0  0  0  0  0  0
   58.4220   29.7230   45.9880 C   0  0  0  0  0  0  0  0  0  0  0  0
   58.4430   31.1520   46.1470 N   0  0  0  0  0  0  0  0  0  0  0  0
   57.3980   31.9310   45.9130 N   0  0  0  0  0  0  0  0  0  0  0  0
   57.7430   33.2120   46.1290 C   0  0  0  0  0  0  0  0  0  0  0  0
   59.0700   33.2550   46.5170 C   0  0  0  0  0  0  0  0  0  0  0  0
   59.8440   34.4670   46.8280 C   0  0  0  0  0  0  0  0  0  0  0  0
   59.9210   35.3890   45.9710 O   0  0  0  0  0  0  0  0  0  0  0  0
   60.4470   34.6240   48.1160 N   0  0  0  0  0  0  0  0  0  0  0  0
   61.4730   33.7860   48.6660 C   0  0  0  0  0  0  0  0  0  0  0  0
   62.7880   33.8380   48.1730 C   0  0  0  0  0  0  0  0  0  0  0  0
   63.7670   32.9770   48.6750 C   0  0  0  0  0  0  0  0  0  0  0  0
   63.4430   32.0550   49.6690 C   0  0  0  0  0  0  0  0  0  0  0  0
   62.1360   31.9840   50.1570 C   0  0  0  0  0  0  0  0  0  0  0  0
   61.1430   32.8410   49.6580 C   0  0  0  0  0  0  0  0  0  0  0  0
   59.8170   32.7860   50.2120 N   0  0  0  0  0  0  0  0  0  0  0  0
   58.8910   31.7100   49.8540 C   0  0  0  0  0  0  0  0  0  0  0  0
   58.2140   31.1890   51.1250 C   0  0  0  0  0  0  0  0  0  0  0  0
   57.6310   32.2490   51.8600 O   0  0  0  0  0  0  0  0  0  0  0  0
   58.6360   33.1390   52.3140 C   0  0  0  0  0  0  0  0  0  0  0  0
   59.3380   33.8160   51.1360 C   0  0  0  0  0  0  0  0  0  0  0  0
   59.4930   31.9280   46.5070 C   0  0  0  0  0  0  0  0  0  0  0  0
   60.8880   31.4340   46.7710 C   0  0  0  0  0  0  0  0  0  0  0  0
   54.9171   30.4516   43.4341 H   0  0  0  0  0  0  0  0  0  0  0  0
   56.6498   30.7013   43.0317 H   0  0  0  0  0  0  0  0  0  0  0  0
   55.9576   29.0437   43.0317 H   0  0  0  0  0  0  0  0  0  0  0  0
   56.4491   27.1906   44.7812 H   0  0  0  0  0  0  0  0  0  0  0  0
   58.3626   25.8390   45.6234 H   0  0  0  0  0  0  0  0  0  0  0  0
   60.3125   26.9574   46.7007 H   0  0  0  0  0  0  0  0  0  0  0  0
   60.3481   29.4365   46.9497 H   0  0  0  0  0  0  0  0  0  0  0  0
   56.4540   31.5940   45.6220 H   0  0  0  0  0  0  0  0  0  0  0  0
   57.0797   34.0822   46.0159 H   0  0  0  0  0  0  0  0  0  0  0  0
   63.0482   34.5616   47.3864 H   0  0  0  0  0  0  0  0  0  0  0  0
   64.7945   33.0267   48.2855 H   0  0  0  0  0  0  0  0  0  0  0  0
   64.2167   31.3832   50.0692 H   0  0  0  0  0  0  0  0  0  0  0  0
   61.8834   31.2514   50.9377 H   0  0  0  0  0  0  0  0  0  0  0  0
   58.1281   32.0955   49.1617 H   0  0  0  0  0  0  0  0  0  0  0  0
   59.4426   30.8930   49.3660 H   0  0  0  0  0  0  0  0  0  0  0  0
   57.4292   30.4705   50.8459 H   0  0  0  0  0  0  0  0  0  0  0  0
   58.9750   30.7035   51.7537 H   0  0  0  0  0  0  0  0  0  0  0  0
   58.1746   33.9094   52.9494 H   0  0  0  0  0  0  0  0  0  0  0  0
   59.3813   32.5658   52.8850 H   0  0  0  0  0  0  0  0  0  0  0  0
   58.6303   34.4782   50.6157 H   0  0  0  0  0  0  0  0  0  0  0  0
   60.1872   34.4120   51.5015 H   0  0  0  0  0  0  0  0  0  0  0  0
   61.0566   31.3743   47.8564 H   0  0  0  0  0  0  0  0  0  0  0  0
   61.0143   30.4365   46.3249 H   0  0  0  0  0  0  0  0  0  0  0  0
   61.6139   32.1297   46.3249 H   0  0  0  0  0  0  0  0  0  0  0  0
  1  2  1  0
  2  3  1  0
  3  4  2  0
  4  5  1  0
  5  6  2  0
  6  7  1  0
  7  8  2  0
  8  9  1  0
  9 10  1  0
 10 11  2  0
 11 12  1  0
 12 13  1  0
 13 14  2  0
 13 15  1  0
 15 16  1  0
 16 17  2  0
 17 18  1  0
 18 19  2  0
 19 20  1  0
 20 21  2  0
 21 22  1  0
 22 23  1  0
 23 24  1  0
 24 25  1  0
 25 26  1  0
 26 27  1  0
 12 28  2  0
 28 29  1  0
  8  3  1  0
 28  9  1  0
 21 16  1  0
 27 22  1  0
  1 30  1  0
  1 31  1  0
  1 32  1  0
  4 33  1  0
  5 34  1  0
  6 35  1  0
  7 36  1  0
 10 37  1  0
 11 38  1  0
 17 39  1  0
 18 40  1  0
 19 41  1  0
 20 42  1  0
 23 43  1  0
 23 44  1  0
 24 45  1  0
 24 46  1  0
 26 47  1  0
 26 48  1  0
 27 49  1  0
 27 50  1  0
 29 51  1  0
 29 52  1  0
 29 53  1  0
M  CHG  2  10   1  15  -1
M  END
>  <UniqueID>  (92) 
80

>  <SMILES>  (92) 
COc1ccccc1-n1[nH+]cc(C(=O)[N-]c2ccccc2N2CCOCC2)c1C

>  <Energy>  (92) 
102.31896974291479

>  <Genealogy>  (92) 
COc1ccccc1-n1[nH+]cc(C(=O)[N-]c2ccccc2N2CCOCC2)c1C (protonated)
COc1ccccc1-n1[nH+]cc(C(=O)[N-]c2ccccc2N2CCOCC2)c1C (3D coordinates assigned)
COc1ccccc1-n1[nH+]cc(C(=O)[N-]c2ccccc2N2CCOCC2)c1C (nonaromatic ring conformer: 102.31896974291479 kcal/mol)

>  <smiles>  (92) 
COc1ccccc1-n1ncc(C(=O)Nc2ccccc2N2CCOCC2)c1C

>  <score_type>  (92) 
oracle

>  <origin>  (92) 
adg

>  <m_score__min__energy>  (92) 
-7.29

>  <m_primary>  (92) 
energy

$$$$
92:0
     RDKit          3D

 38 40  0  0  0  0  0  0  0  0999 V2000
   60.0640   30.2410   50.3400 C   0  0  0  0  0  0  0  0  0  0  0  0
   59.0630   30.7980   49.3690 C   0  0  0  0  0  0  0  0  0  0  0  0
   59.8370   31.1060   47.7370 S   0  0  0  0  0  0  0  0  0  0  0  0
   58.5800   31.1520   46.4680 C   0  0  0  0  0  0  0  0  0  0  0  0
   58.0270   32.3650   46.0610 C   0  0  0  0  0  0  0  0  0  0  0  0
   58.5980   33.8370   46.8180 S   0  0  0  0  0  0  0  0  0  0  0  0
   60.3150   34.2120   46.5450 C   0  0  0  0  0  0  0  0  0  0  0  0
   61.0980   34.0340   47.7900 C   0  0  0  0  0  0  0  0  0  0  0  0
   60.3690   34.0560   48.9750 C   0  0  0  0  0  0  0  0  0  0  0  0
   60.9440   33.8710   50.2120 C   0  0  0  0  0  0  0  0  0  0  0  0
   62.3080   33.6570   50.2380 C   0  0  0  0  0  0  0  0  0  0  0  0
   63.0300   33.6350   49.0780 C   0  0  0  0  0  0  0  0  0  0  0  0
   62.4510   33.8230   47.8190 C   0  0  0  0  0  0  0  0  0  0  0  0
   63.3850   33.8330   46.3620 Cl  0  0  0  0  0  0  0  0  0  0  0  0
   57.0450   32.3430   45.0680 C   0  0  0  0  0  0  0  0  0  0  0  0
   56.6240   31.2030   44.4990 N   0  0  0  0  0  0  0  0  0  0  0  0
   57.1660   30.0390   44.9000 C   0  0  0  0  0  0  0  0  0  0  0  0
   56.9180   28.7750   44.4960 N   0  0  0  0  0  0  0  0  0  0  0  0
   57.6910   27.9570   45.1780 N   0  0  0  0  0  0  0  0  0  0  0  0
   58.4700   28.6560   46.0500 C   0  0  0  0  0  0  0  0  0  0  0  0
   59.4470   28.0670   46.9710 C   0  0  0  0  0  0  0  0  0  0  0  0
   58.1420   29.9810   45.8790 C   0  0  0  0  0  0  0  0  0  0  0  0
   59.7224   30.4311   51.3682 H   0  0  0  0  0  0  0  0  0  0  0  0
   60.1647   29.1571   50.1815 H   0  0  0  0  0  0  0  0  0  0  0  0
   61.0381   30.7268   50.1815 H   0  0  0  0  0  0  0  0  0  0  0  0
   58.2402   30.0782   49.2473 H   0  0  0  0  0  0  0  0  0  0  0  0
   58.6835   31.7520   49.7638 H   0  0  0  0  0  0  0  0  0  0  0  0
   60.7120   33.5395   45.7703 H   0  0  0  0  0  0  0  0  0  0  0  0
   60.3995   35.2604   46.2228 H   0  0  0  0  0  0  0  0  0  0  0  0
   59.2840   34.2291   48.9209 H   0  0  0  0  0  0  0  0  0  0  0  0
   60.3460   33.8926   51.1350 H   0  0  0  0  0  0  0  0  0  0  0  0
   62.8176   33.5030   51.2006 H   0  0  0  0  0  0  0  0  0  0  0  0
   64.1147   33.4617   49.1372 H   0  0  0  0  0  0  0  0  0  0  0  0
   56.6007   33.2945   44.7406 H   0  0  0  0  0  0  0  0  0  0  0  0
   56.2260   28.5250   43.7650 H   0  0  0  0  0  0  0  0  0  0  0  0
   59.1334   28.2561   48.0083 H   0  0  0  0  0  0  0  0  0  0  0  0
   59.5066   26.9823   46.7979 H   0  0  0  0  0  0  0  0  0  0  0  0
   60.4340   28.5207   46.7979 H   0  0  0  0  0  0  0  0  0  0  0  0
  1  2  1  0
  2  3  1  0
  3  4  1  0
  4  5  2  0
  5  6  1  0
  6  7  1  0
  7  8  1  0
  8  9  2  0
  9 10  1  0
 10 11  2  0
 11 12  1  0
 12 13  2  0
 13 14  1  0
  5 15  1  0
 15 16  2  0
 16 17  1  0
 17 18  1  0
 18 19  1  0
 19 20  2  0
 20 21  1  0
 20 22  1  0
 22  4  1  0
 13  8  1  0
 22 17  2  0
  1 23  1  0
  1 24  1  0
  1 25  1  0
  2 26  1  0
  2 27  1  0
  7 28  1  0
  7 29  1  0
  9 30  1  0
 10 31  1  0
 11 32  1  0
 12 33  1  0
 15 34  1  0
 18 35  1  0
 21 36  1  0
 21 37  1  0
 21 38  1  0
M  END
>  <smiles>  (93) 
CCSc1c(SCc2ccccc2Cl)cnc2[nH]nc(C)c12

>  <score_type>  (93) 
oracle

>  <origin>  (93) 
adg

>  <m_score__min__energy>  (93) 
-8.3100000000000005

>  <m_primary>  (93) 
energy

$$$$
93:0
     RDKit          3D

 62 65  0  0  0  0  0  0  0  0999 V2000
   68.6540   36.0240   51.3700 C   0  0  0  0  0  0  0  0  0  0  0  0
   68.9330   34.6640   51.8660 N   0  0  0  0  0  0  0  0  0  0  0  0
   68.8520   33.6510   50.7780 C   0  0  0  0  0  0  0  0  0  0  0  0
   67.5960   32.7620   50.8430 C   0  0  0  0  0  0  0  0  0  0  0  0
   66.4630   33.5150   51.3880 N   0  0  0  0  0  0  0  0  0  0  0  0
   65.2050   33.5750   50.6870 C   0  0  0  0  0  0  0  0  0  0  0  0
   65.0550   32.9520   49.4390 C   0  0  0  0  0  0  0  0  0  0  0  0
   63.8360   33.0130   48.7560 C   0  0  0  0  0  0  0  0  0  0  0  0
   62.7360   33.6860   49.3190 C   0  0  0  0  0  0  0  0  0  0  0  0
   61.4390   33.7790   48.6040 C   0  0  0  0  0  0  0  0  0  0  0  0
   60.5750   34.6010   49.0150 O   0  0  0  0  0  0  0  0  0  0  0  0
   61.1610   32.9610   47.4530 N   0  0  0  0  0  0  0  0  0  0  0  0
   59.9320   33.0380   46.7100 C   0  0  0  0  0  0  0  0  0  0  0  0
   59.2980   34.2750   46.4970 C   0  0  0  0  0  0  0  0  0  0  0  0
   58.0930   34.3400   45.7940 C   0  0  0  0  0  0  0  0  0  0  0  0
   57.5080   33.1750   45.2990 C   0  0  0  0  0  0  0  0  0  0  0  0
   58.1180   31.9380   45.5180 C   0  0  0  0  0  0  0  0  0  0  0  0
   59.3170   31.8560   46.2490 C   0  0  0  0  0  0  0  0  0  0  0  0
   59.9780   30.5980   46.4390 N   0  0  0  0  0  0  0  0  0  0  0  0
   60.3360   29.6630   45.4120 C   0  0  0  0  0  0  0  0  0  0  0  0
   61.5450   29.3310   45.2910 O   0  0  0  0  0  0  0  0  0  0  0  0
   59.3000   28.9860   44.5580 C   0  0  0  0  0  0  0  0  0  0  0  0
   58.5160   27.9880   45.3840 C   0  0  0  0  0  0  0  0  0  0  0  0
   59.2430   27.0600   46.1530 C   0  0  0  0  0  0  0  0  0  0  0  0
   58.5910   26.0540   46.8610 C   0  0  0  0  0  0  0  0  0  0  0  0
   57.2040   25.9450   46.8020 C   0  0  0  0  0  0  0  0  0  0  0  0
   56.4580   26.8430   46.0360 C   0  0  0  0  0  0  0  0  0  0  0  0
   55.0740   26.7090   46.0040 O   0  0  0  0  0  0  0  0  0  0  0  0
   57.0990   27.8760   45.3190 C   0  0  0  0  0  0  0  0  0  0  0  0
   56.2710   28.8030   44.5170 C   0  0  0  0  0  0  0  0  0  0  0  0
   55.1420   29.4440   45.1080 N   0  0  0  0  0  0  0  0  0  0  0  0
   56.5770   29.0640   43.3240 O   0  0  0  0  0  0  0  0  0  0  0  0
   62.8900   34.3070   50.5700 C   0  0  0  0  0  0  0  0  0  0  0  0
   64.1100   34.2460   51.2490 C   0  0  0  0  0  0  0  0  0  0  0  0
   66.6200   34.1890   52.6810 C   0  0  0  0  0  0  0  0  0  0  0  0
   68.1080   34.3280   53.0460 C   0  0  0  0  0  0  0  0  0  0  0  0
   68.5145   36.7040   52.2233 H   0  0  0  0  0  0  0  0  0  0  0  0
   69.4995   36.3718   50.7583 H   0  0  0  0  0  0  0  0  0  0  0  0
   67.7398   36.0109   50.7583 H   0  0  0  0  0  0  0  0  0  0  0  0
   68.8527   34.1789   49.8129 H   0  0  0  0  0  0  0  0  0  0  0  0
   69.7198   32.9856   50.8970 H   0  0  0  0  0  0  0  0  0  0  0  0
   67.3458   32.4139   49.8300 H   0  0  0  0  0  0  0  0  0  0  0  0
   67.8012   31.9030   51.4987 H   0  0  0  0  0  0  0  0  0  0  0  0
   65.9031   32.4111   48.9939 H   0  0  0  0  0  0  0  0  0  0  0  0
   63.7365   32.5316   47.7720 H   0  0  0  0  0  0  0  0  0  0  0  0
   61.8940   32.3110   47.0950 H   0  0  0  0  0  0  0  0  0  0  0  0
   59.7540   35.1971   46.8865 H   0  0  0  0  0  0  0  0  0  0  0  0
   57.6045   35.3119   45.6305 H   0  0  0  0  0  0  0  0  0  0  0  0
   56.5650   33.2304   44.7354 H   0  0  0  0  0  0  0  0  0  0  0  0
   57.6584   31.0228   45.1167 H   0  0  0  0  0  0  0  0  0  0  0  0
   58.6122   29.7424   44.1522 H   0  0  0  0  0  0  0  0  0  0  0  0
   59.8020   28.4565   43.7348 H   0  0  0  0  0  0  0  0  0  0  0  0
   60.3399   27.1304   46.1951 H   0  0  0  0  0  0  0  0  0  0  0  0
   59.1723   25.3443   47.4679 H   0  0  0  0  0  0  0  0  0  0  0  0
   56.6935   25.1474   47.3617 H   0  0  0  0  0  0  0  0  0  0  0  0
   54.7220   29.0810   45.9920 H   0  0  0  0  0  0  0  0  0  0  0  0
   62.0427   34.8460   51.0189 H   0  0  0  0  0  0  0  0  0  0  0  0
   64.2118   34.7284   52.2323 H   0  0  0  0  0  0  0  0  0  0  0  0
   66.1675   35.1900   52.6235 H   0  0  0  0  0  0  0  0  0  0  0  0
   66.1211   33.5879   53.4554 H   0  0  0  0  0  0  0  0  0  0  0  0
   68.2178   35.1251   53.7960 H   0  0  0  0  0  0  0  0  0  0  0  0
   68.4548   33.3622   53.4423 H   0  0  0  0  0  0  0  0  0  0  0  0
  1  2  1  0
  2  3  1  0
  3  4  1  0
  4  5  1  0
  5  6  1  0
  6  7  2  0
  7  8  1  0
  8  9  2  0
  9 10  1  0
 10 11  2  0
 10 12  1  0
 12 13  1  0
 13 14  2  0
 14 15  1  0
 15 16  2  0
 16 17  1  0
 17 18  2  0
 18 19  1  0
 19 20  1  0
 20 21  2  0
 20 22  1  0
 22 23  1  0
 23 24  2  0
 24 25  1  0
 25 26  2  0
 26 27  1  0
 27 28  1  0
 27 29  2  0
 29 30  1  0
 30 31  1  0
 30 32  2  0
  9 33  1  0
 33 34  2  0
  5 35  1  0
 35 36  1  0
 36  2  1  0
 34  6  1  0
 18 13  1  0
 29 23  1  0
  1 37  1  0
  1 38  1  0
  1 39  1  0
  3 40  1  0
  3 41  1  0
  4 42  1  0
  4 43  1  0
  7 44  1  0
  8 45  1  0
 12 46  1  0
 14 47  1  0
 15 48  1  0
 16 49  1  0
 17 50  1  0
 22 51  1  0
 22 52  1  0
 24 53  1  0
 25 54  1  0
 26 55  1  0
 31 56  1  0
 33 57  1  0
 34 58  1  0
 35 59  1  0
 35 60  1  0
 36 61  1  0
 36 62  1  0
M  CHG  3  19  -1  28  -1  31  -1
M  END
>  <UniqueID>  (94) 
81

>  <SMILES>  (94) 
CN1CCN(c2ccc(C(=O)Nc3ccccc3[N-]C(=O)Cc3cccc([O-])c3C([NH-])=O)cc2)CC1

>  <Energy>  (94) 
96.21500512599638

>  <Genealogy>  (94) 
CN1CCN(c2ccc(C(=O)Nc3ccccc3[N-]C(=O)Cc3cccc([O-])c3C([NH-])=O)cc2)CC1 (protonated)
CN1CCN(c2ccc(C(=O)Nc3ccccc3[N-]C(=O)Cc3cccc([O-])c3C([NH-])=O)cc2)CC1 (3D coordinates assigned)
CN1CCN(c2ccc(C(=O)Nc3ccccc3[N-]C(=O)Cc3cccc([O-])c3C([NH-])=O)cc2)CC1 (nonaromatic ring conformer: 96.21500512599638 kcal/mol)

>  <smiles>  (94) 
CN1CCN(c2ccc(C(=O)Nc3ccccc3NC(=O)Cc3cccc(O)c3C(N)=O)cc2)CC1

>  <score_type>  (94) 
oracle

>  <origin>  (94) 
adg

>  <m_score__min__energy>  (94) 
-17.600000000000001

>  <m_primary>  (94) 
energy

$$$$
