0:0
     RDKit          3D

 36 37  0  0  0  0  0  0  0  0999 V2000
   57.2860   32.4910   40.6300 C   0  0  0  0  0  0  0  0  0  0  0  0
   57.5770   31.9820   42.0410 C   0  0  0  0  0  0  0  0  0  0  0  0
   56.6550   30.8270   42.4480 C   0  0  0  0  0  0  0  0  0  0  0  0
   57.0210   30.2740   43.7940 C   0  0  0  0  0  0  0  0  0  0  0  0
   56.1080   30.0270   44.6280 O   0  0  0  0  0  0  0  0  0  0  0  0
   58.3970   30.0310   44.1230 N   0  0  0  0  0  0  0  0  0  0  0  0
   58.8320   29.5950   45.4210 C   0  0  0  0  0  0  0  0  0  0  0  0
   59.5240   28.3790   45.5620 C   0  0  0  0  0  0  0  0  0  0  0  0
   59.8660   27.9030   46.8320 C   0  0  0  0  0  0  0  0  0  0  0  0
   60.7270   26.3830   46.9950 Cl  0  0  0  0  0  0  0  0  0  0  0  0
   59.5030   28.6260   47.9710 C   0  0  0  0  0  0  0  0  0  0  0  0
   58.8060   29.8290   47.8420 C   0  0  0  0  0  0  0  0  0  0  0  0
   58.4840   30.3320   46.5770 C   0  0  0  0  0  0  0  0  0  0  0  0
   57.7990   31.5530   46.5000 O   0  0  0  0  0  0  0  0  0  0  0  0
   58.4070   32.8040   46.3100 C   0  0  0  0  0  0  0  0  0  0  0  0
   59.1180   33.3750   47.3720 C   0  0  0  0  0  0  0  0  0  0  0  0
   59.7310   34.6230   47.2230 C   0  0  0  0  0  0  0  0  0  0  0  0
   59.6440   35.3050   46.0070 C   0  0  0  0  0  0  0  0  0  0  0  0
   58.9510   34.7350   44.9340 C   0  0  0  0  0  0  0  0  0  0  0  0
   58.3390   33.4860   45.0790 C   0  0  0  0  0  0  0  0  0  0  0  0
   56.7408   33.4446   40.6894 H   0  0  0  0  0  0  0  0  0  0  0  0
   58.2335   32.6432   40.0924 H   0  0  0  0  0  0  0  0  0  0  0  0
   56.6741   31.7517   40.0924 H   0  0  0  0  0  0  0  0  0  0  0  0
   58.6194   31.6332   42.0826 H   0  0  0  0  0  0  0  0  0  0  0  0
   57.4015   32.8131   42.7399 H   0  0  0  0  0  0  0  0  0  0  0  0
   55.6184   31.1934   42.4828 H   0  0  0  0  0  0  0  0  0  0  0  0
   56.7636   30.0229   41.7053 H   0  0  0  0  0  0  0  0  0  0  0  0
   59.1070   30.0940   43.3590 H   0  0  0  0  0  0  0  0  0  0  0  0
   59.7979   27.7988   44.6685 H   0  0  0  0  0  0  0  0  0  0  0  0
   59.7663   28.2474   48.9697 H   0  0  0  0  0  0  0  0  0  0  0  0
   58.5076   30.3858   48.7425 H   0  0  0  0  0  0  0  0  0  0  0  0
   59.1950   32.8388   48.3294 H   0  0  0  0  0  0  0  0  0  0  0  0
   60.2824   35.0682   48.0643 H   0  0  0  0  0  0  0  0  0  0  0  0
   60.1203   36.2900   45.8933 H   0  0  0  0  0  0  0  0  0  0  0  0
   58.8873   35.2699   43.9749 H   0  0  0  0  0  0  0  0  0  0  0  0
   57.8035   33.0352   44.2304 H   0  0  0  0  0  0  0  0  0  0  0  0
  1  2  1  0
  2  3  1  0
  3  4  1  0
  4  5  2  0
  4  6  1  0
  6  7  1  0
  7  8  2  0
  8  9  1  0
  9 10  1  0
  9 11  2  0
 11 12  1  0
 12 13  2  0
 13 14  1  0
 14 15  1  0
 15 16  2  0
 16 17  1  0
 17 18  2  0
 18 19  1  0
 19 20  2  0
 13  7  1  0
 20 15  1  0
  1 21  1  0
  1 22  1  0
  1 23  1  0
  2 24  1  0
  2 25  1  0
  3 26  1  0
  3 27  1  0
  6 28  1  0
  8 29  1  0
 11 30  1  0
 12 31  1  0
 16 32  1  0
 17 33  1  0
 18 34  1  0
 19 35  1  0
 20 36  1  0
M  END
>  <UniqueID>  (1) 
1

>  <SMILES>  (1) 
CCCC(=O)Nc1cc(Cl)ccc1Oc1ccccc1

>  <Energy>  (1) 
40.635495877215355

>  <Genealogy>  (1) 
CCCC(=O)Nc1cc(Cl)ccc1Oc1ccccc1 (3D coordinates assigned)
CCCC(=O)Nc1cc(Cl)ccc1Oc1ccccc1 (optimized conformer: 40.635495877215355 kcal/mol)

>  <smiles>  (1) 
CCCC(=O)Nc1cc(Cl)ccc1Oc1ccccc1

>  <score_type>  (1) 
oracle

>  <origin>  (1) 
adg

>  <m_score__min__energy>  (1) 
-7.71

>  <m_primary>  (1) 
energy

$$$$
1:0
     RDKit          3D

 55 58  0  0  0  0  0  0  0  0999 V2000
   55.8970   34.8870   45.6400 H   0  0  0  0  0  0  0  0  0  0  0  0
   56.6450   34.3770   45.1200 N   0  0  0  0  0  0  0  0  0  0  0  0
   57.1520   33.2760   45.5710 C   0  0  0  0  0  0  0  0  0  0  0  0
   56.8860   32.0930   44.9570 N   0  0  0  0  0  0  0  0  0  0  0  0
   57.3960   30.9450   45.4040 N   0  0  0  0  0  0  0  0  0  0  0  0
   58.2150   30.9020   46.4900 C   0  0  0  0  0  0  0  0  0  0  0  0
   58.7320   29.6030   46.9690 C   0  0  0  0  0  0  0  0  0  0  0  0
   57.9910   28.4420   46.7130 C   0  0  0  0  0  0  0  0  0  0  0  0
   57.0848   28.5000   46.0922 H   0  0  0  0  0  0  0  0  0  0  0  0
   58.3930   27.2080   47.2400 C   0  0  0  0  0  0  0  0  0  0  0  0
   57.5990   25.9790   47.0050 C   0  0  0  0  0  0  0  0  0  0  0  0
   57.9730   24.8950   47.5260 O   0  0  0  0  0  0  0  0  0  0  0  0
   56.4370   25.9690   46.1630 N   0  0  0  0  0  0  0  0  0  0  0  0
   55.4670   24.9150   46.0520 C   0  0  0  0  0  0  0  0  0  0  0  0
   54.1750   25.2290   45.6180 C   0  0  0  0  0  0  0  0  0  0  0  0
   53.9173   26.2712   45.3782 H   0  0  0  0  0  0  0  0  0  0  0  0
   53.2090   24.2270   45.4870 C   0  0  0  0  0  0  0  0  0  0  0  0
   52.1935   24.4886   45.1547 H   0  0  0  0  0  0  0  0  0  0  0  0
   53.5230   22.8940   45.7750 C   0  0  0  0  0  0  0  0  0  0  0  0
   52.5130   21.9290   45.6260 O   0  0  0  0  0  0  0  0  0  0  0  0
   51.1550   22.0890   46.0270 C   0  0  0  0  0  0  0  0  0  0  0  0
   50.4980   22.9410   45.1570 F   0  0  0  0  0  0  0  0  0  0  0  0
   50.5310   20.8570   45.9990 F   0  0  0  0  0  0  0  0  0  0  0  0
   51.0940   22.5930   47.3150 F   0  0  0  0  0  0  0  0  0  0  0  0
   54.8290   22.5730   46.1930 C   0  0  0  0  0  0  0  0  0  0  0  0
   55.0894   21.5293   46.4229 H   0  0  0  0  0  0  0  0  0  0  0  0
   55.7960   23.5750   46.3170 C   0  0  0  0  0  0  0  0  0  0  0  0
   56.8194   23.3130   46.6235 H   0  0  0  0  0  0  0  0  0  0  0  0
   59.5750   27.1540   47.9910 C   0  0  0  0  0  0  0  0  0  0  0  0
   59.9122   26.1946   48.4103 H   0  0  0  0  0  0  0  0  0  0  0  0
   60.3080   28.2790   48.2050 N   0  0  0  0  0  0  0  0  0  0  0  0
   61.1990   28.1950   48.7430 H   0  0  0  0  0  0  0  0  0  0  0  0
   59.9290   29.4940   47.7140 C   0  0  0  0  0  0  0  0  0  0  0  0
   60.7920   30.6290   47.9020 N   0  0  0  0  0  0  0  0  0  0  0  0
   61.6290   31.1080   46.7960 C   0  0  0  0  0  0  0  0  0  0  0  0
   61.8239   30.2798   46.0988 H   0  0  0  0  0  0  0  0  0  0  0  0
   61.1071   31.9189   46.2668 H   0  0  0  0  0  0  0  0  0  0  0  0
   62.9580   31.6330   47.3490 C   0  0  0  0  0  0  0  0  0  0  0  0
   63.4902   30.8042   47.8387 H   0  0  0  0  0  0  0  0  0  0  0  0
   63.5379   32.0386   46.5069 H   0  0  0  0  0  0  0  0  0  0  0  0
   62.7620   32.7240   48.3350 N   0  0  0  0  0  0  0  0  0  0  0  0
   63.9480   32.8490   49.2000 C   0  0  0  0  0  0  0  0  0  0  0  0
   63.6376   32.8163   50.2548 H   0  0  0  0  0  0  0  0  0  0  0  0
   64.6401   32.0188   48.9955 H   0  0  0  0  0  0  0  0  0  0  0  0
   64.4518   33.8052   48.9955 H   0  0  0  0  0  0  0  0  0  0  0  0
   61.5150   32.6230   49.1390 C   0  0  0  0  0  0  0  0  0  0  0  0
   61.7221   32.9935   50.1538 H   0  0  0  0  0  0  0  0  0  0  0  0
   60.7472   33.2235   48.6292 H   0  0  0  0  0  0  0  0  0  0  0  0
   60.9790   31.1900   49.2430 C   0  0  0  0  0  0  0  0  0  0  0  0
   61.6978   30.5713   49.8003 H   0  0  0  0  0  0  0  0  0  0  0  0
   60.0128   31.2019   49.7686 H   0  0  0  0  0  0  0  0  0  0  0  0
   58.5000   32.0930   47.1710 C   0  0  0  0  0  0  0  0  0  0  0  0
   59.1363   32.0812   48.0682 H   0  0  0  0  0  0  0  0  0  0  0  0
   57.9700   33.2910   46.7010 C   0  0  0  0  0  0  0  0  0  0  0  0
   58.1933   34.2380   47.2142 H   0  0  0  0  0  0  0  0  0  0  0  0
  1  2  1  0
  2  3  2  0
  3  4  1  0
  4  5  1  0
  5  6  2  0
  6  7  1  0
  7  8  2  0
  8  9  1  0
  8 10  1  0
 10 11  1  0
 11 12  2  0
 11 13  1  0
 13 14  1  0
 14 15  2  0
 15 16  1  0
 15 17  1  0
 17 18  1  0
 17 19  2  0
 19 20  1  0
 20 21  1  0
 21 22  1  0
 21 23  1  0
 21 24  1  0
 19 25  1  0
 25 26  1  0
 25 27  2  0
 27 28  1  0
 10 29  2  0
 29 30  1  0
 29 31  1  0
 31 32  1  0
 31 33  2  0
 33 34  1  0
 34 35  1  0
 35 36  1  0
 35 37  1  0
 35 38  1  0
 38 39  1  0
 38 40  1  0
 38 41  1  0
 41 42  1  0
 42 43  1  0
 42 44  1  0
 42 45  1  0
 41 46  1  0
 46 47  1  0
 46 48  1  0
 46 49  1  0
 49 50  1  0
 49 51  1  0
  6 52  1  0
 52 53  1  0
 52 54  2  0
 54 55  1  0
 54  3  1  0
 33  7  1  0
 49 34  1  0
 27 14  1  0
M  CHG  3   4  -1  13  -1  31   1
M  END
>  <UniqueID>  (2) 
2

>  <SMILES>  (2) 
[H]/N=c1/ccc(-c2cc(C(=O)[N-]c3ccc(OC(F)(F)F)cc3)c[nH+]c2N2CCN(C)CC2)n[n-]1

>  <Energy>  (2) 
81.9578440304246

>  <Genealogy>  (2) 
CN1CCN(c2[nH+]cc(C(=O)[N-]c3ccc(OC(F)(F)F)cc3)cc2-c2ccc(=N)[n-]n2)CC1 (protonated)
[H]/N=c1/ccc(-c2cc(C(=O)[N-]c3ccc(OC(F)(F)F)cc3)c[nH+]c2N2CCN(C)CC2)n[n-]1 (cis-trans isomerization)
[H]/N=c1/ccc(-c2cc(C(=O)[N-]c3ccc(OC(F)(F)F)cc3)c[nH+]c2N2CCN(C)CC2)n[n-]1 (3D coordinates assigned)
[H]/N=c1/ccc(-c2cc(C(=O)[N-]c3ccc(OC(F)(F)F)cc3)c[nH+]c2N2CCN(C)CC2)n[n-]1 (nonaromatic ring conformer: 81.9578440304246 kcal/mol)

>  <smiles>  (2) 
CN1CCN(c2ncc(C(=O)Nc3ccc(OC(F)(F)F)cc3)cc2-c2ccc(=N)[nH]n2)CC1

>  <score_type>  (2) 
oracle

>  <origin>  (2) 
adg

>  <m_score__min__energy>  (2) 
-8.9299999999999997

>  <m_primary>  (2) 
energy

$$$$
2:0
     RDKit          3D

 48 51  0  0  0  0  0  0  0  0999 V2000
   58.6710   33.3380   44.1820 C   0  0  0  0  0  0  0  0  0  0  0  0
   58.0310   32.0090   44.4510 C   0  0  0  0  0  0  0  0  0  0  0  0
   57.1830   31.4250   43.4960 C   0  0  0  0  0  0  0  0  0  0  0  0
   56.5580   30.2030   43.7610 C   0  0  0  0  0  0  0  0  0  0  0  0
   56.7710   29.5450   44.9810 C   0  0  0  0  0  0  0  0  0  0  0  0
   56.1120   28.2910   45.2350 N   0  0  0  0  0  0  0  0  0  0  0  0
   56.7190   27.2000   45.9510 C   0  0  0  0  0  0  0  0  0  0  0  0
   58.0740   27.2350   46.2970 C   0  0  0  0  0  0  0  0  0  0  0  0
   58.6240   26.1920   47.0520 C   0  0  0  0  0  0  0  0  0  0  0  0
   59.9830   26.2600   47.5200 N   0  0  0  0  0  0  0  0  0  0  0  0
   60.3450   27.6380   47.7350 C   0  0  0  0  0  0  0  0  0  0  0  0
   60.2390   28.2090   49.0140 C   0  0  0  0  0  0  0  0  0  0  0  0
   60.5070   29.5670   49.2090 C   0  0  0  0  0  0  0  0  0  0  0  0
   60.8760   30.3850   48.1260 C   0  0  0  0  0  0  0  0  0  0  0  0
   61.1320   31.8340   48.3260 C   0  0  0  0  0  0  0  0  0  0  0  0
   60.1930   32.6390   48.9990 C   0  0  0  0  0  0  0  0  0  0  0  0
   60.4380   34.0030   49.1870 C   0  0  0  0  0  0  0  0  0  0  0  0
   61.6170   34.5770   48.7080 C   0  0  0  0  0  0  0  0  0  0  0  0
   62.5560   33.7880   48.0390 C   0  0  0  0  0  0  0  0  0  0  0  0
   62.3180   32.4240   47.8490 C   0  0  0  0  0  0  0  0  0  0  0  0
   60.9860   29.8120   46.8470 C   0  0  0  0  0  0  0  0  0  0  0  0
   60.7250   28.4530   46.6540 C   0  0  0  0  0  0  0  0  0  0  0  0
   57.8350   25.1370   47.3900 N   0  0  0  0  0  0  0  0  0  0  0  0
   56.5550   25.0730   47.0190 N   0  0  0  0  0  0  0  0  0  0  0  0
   55.9690   26.0710   46.3070 C   0  0  0  0  0  0  0  0  0  0  0  0
   54.7550   25.9790   45.9880 O   0  0  0  0  0  0  0  0  0  0  0  0
   57.5860   30.1550   45.9540 C   0  0  0  0  0  0  0  0  0  0  0  0
   58.2120   31.3750   45.6890 C   0  0  0  0  0  0  0  0  0  0  0  0
   58.9082   33.8306   45.1365 H   0  0  0  0  0  0  0  0  0  0  0  0
   59.5963   33.1895   43.6061 H   0  0  0  0  0  0  0  0  0  0  0  0
   57.9779   33.9689   43.6061 H   0  0  0  0  0  0  0  0  0  0  0  0
   57.0098   31.9315   42.5350 H   0  0  0  0  0  0  0  0  0  0  0  0
   55.8943   29.7543   43.0072 H   0  0  0  0  0  0  0  0  0  0  0  0
   55.1350   28.1680   44.8850 H   0  0  0  0  0  0  0  0  0  0  0  0
   58.7044   28.0779   45.9774 H   0  0  0  0  0  0  0  0  0  0  0  0
   60.6160   25.8140   46.8150 H   0  0  0  0  0  0  0  0  0  0  0  0
   60.0800   25.7260   48.4150 H   0  0  0  0  0  0  0  0  0  0  0  0
   59.9429   27.5828   49.8685 H   0  0  0  0  0  0  0  0  0  0  0  0
   60.4287   29.9993   50.2175 H   0  0  0  0  0  0  0  0  0  0  0  0
   59.2621   32.1928   49.3788 H   0  0  0  0  0  0  0  0  0  0  0  0
   59.6996   34.6253   49.7138 H   0  0  0  0  0  0  0  0  0  0  0  0
   61.8066   35.6502   48.8573 H   0  0  0  0  0  0  0  0  0  0  0  0
   63.4844   34.2412   47.6611 H   0  0  0  0  0  0  0  0  0  0  0  0
   63.0621   31.8075   47.3234 H   0  0  0  0  0  0  0  0  0  0  0  0
   61.2798   30.4383   45.9917 H   0  0  0  0  0  0  0  0  0  0  0  0
   60.8175   28.0171   45.6483 H   0  0  0  0  0  0  0  0  0  0  0  0
   57.7305   29.6673   46.9293 H   0  0  0  0  0  0  0  0  0  0  0  0
   58.8499   31.8408   46.4546 H   0  0  0  0  0  0  0  0  0  0  0  0
  1  2  1  0
  2  3  2  0
  3  4  1  0
  4  5  2  0
  5  6  1  0
  6  7  1  0
  7  8  2  0
  8  9  1  0
  9 10  1  0
 10 11  1  0
 11 12  2  0
 12 13  1  0
 13 14  2  0
 14 15  1  0
 15 16  2  0
 16 17  1  0
 17 18  2  0
 18 19  1  0
 19 20  2  0
 14 21  1  0
 21 22  2  0
  9 23  2  0
 23 24  1  0
 24 25  1  0
 25 26  2  0
  5 27  1  0
 27 28  2  0
 28  2  1  0
 25  7  1  0
 22 11  1  0
 20 15  1  0
  1 29  1  0
  1 30  1  0
  1 31  1  0
  3 32  1  0
  4 33  1  0
  6 34  1  0
  8 35  1  0
 10 36  1  0
 10 37  1  0
 12 38  1  0
 13 39  1  0
 16 40  1  0
 17 41  1  0
 18 42  1  0
 19 43  1  0
 20 44  1  0
 21 45  1  0
 22 46  1  0
 27 47  1  0
 28 48  1  0
M  CHG  2  10   1  24  -1
M  END
>  <UniqueID>  (3) 
3

>  <SMILES>  (3) 
Cc1ccc(Nc2cc([NH2+]c3ccc(-c4ccccc4)cc3)n[n-]c2=O)cc1

>  <Energy>  (3) 
65.00123733094932

>  <Genealogy>  (3) 
Cc1ccc(Nc2cc([NH2+]c3ccc(-c4ccccc4)cc3)n[n-]c2=O)cc1 (protonated)
Cc1ccc(Nc2cc([NH2+]c3ccc(-c4ccccc4)cc3)n[n-]c2=O)cc1 (3D coordinates assigned)
Cc1ccc(Nc2cc([NH2+]c3ccc(-c4ccccc4)cc3)n[n-]c2=O)cc1 (optimized conformer: 65.00123733094932 kcal/mol)

>  <smiles>  (3) 
Cc1ccc(Nc2cc(Nc3ccc(-c4ccccc4)cc3)n[nH]c2=O)cc1

>  <score_type>  (3) 
oracle

>  <origin>  (3) 
adg

>  <m_score__min__energy>  (3) 
-9.1099999999999994

>  <m_primary>  (3) 
energy

$$$$
3:0
     RDKit          3D

 37 37  0  0  0  0  0  0  0  0999 V2000
   57.8650   22.9560   45.9690 C   0  0  0  0  0  0  0  0  0  0  0  0
   57.9390   22.5770   44.4840 C   0  0  0  0  0  0  0  0  0  0  0  0
   59.2600   21.8640   44.1680 C   0  0  0  0  0  0  0  0  0  0  0  0
   56.7260   21.7300   44.0590 C   0  0  0  0  0  0  0  0  0  0  0  0
   55.7430   22.5430   43.3480 N   0  0  0  0  0  0  0  0  0  0  0  0
   54.7860   23.4020   43.9780 C   0  0  0  0  0  0  0  0  0  0  0  0
   53.7100   23.6570   43.3760 O   0  0  0  0  0  0  0  0  0  0  0  0
   55.0020   23.9660   45.3540 C   0  0  0  0  0  0  0  0  0  0  0  0
   54.0380   25.1260   45.6180 C   0  0  0  0  0  0  0  0  0  0  0  0
   54.7770   26.3400   45.9460 N   0  0  0  0  0  0  0  0  0  0  0  0
   56.1880   26.3680   46.1790 C   0  0  0  0  0  0  0  0  0  0  0  0
   56.6530   25.7750   47.1880 O   0  0  0  0  0  0  0  0  0  0  0  0
   57.0590   27.0210   45.2470 N   0  0  0  0  0  0  0  0  0  0  0  0
   57.2670   28.4340   45.0990 C   0  0  0  0  0  0  0  0  0  0  0  0
   56.2750   29.2760   44.5620 C   0  0  0  0  0  0  0  0  0  0  0  0
   56.5190   30.6450   44.4120 C   0  0  0  0  0  0  0  0  0  0  0  0
   57.7530   31.1820   44.7830 C   0  0  0  0  0  0  0  0  0  0  0  0
   58.7510   30.3510   45.2950 C   0  0  0  0  0  0  0  0  0  0  0  0
   58.5160   28.9790   45.4470 C   0  0  0  0  0  0  0  0  0  0  0  0
   59.9120   27.8700   46.1470 Br  0  0  0  0  0  0  0  0  0  0  0  0
   58.0397   22.0615   46.5849 H   0  0  0  0  0  0  0  0  0  0  0  0
   58.6327   23.7112   46.1934 H   0  0  0  0  0  0  0  0  0  0  0  0
   56.8696   23.3670   46.1934 H   0  0  0  0  0  0  0  0  0  0  0  0
   57.9089   23.5063   43.8963 H   0  0  0  0  0  0  0  0  0  0  0  0
   59.7637   21.5921   45.1073 H   0  0  0  0  0  0  0  0  0  0  0  0
   59.0552   20.9539   43.5850 H   0  0  0  0  0  0  0  0  0  0  0  0
   59.9083   22.5347   43.5850 H   0  0  0  0  0  0  0  0  0  0  0  0
   57.0672   20.9190   43.3988 H   0  0  0  0  0  0  0  0  0  0  0  0
   56.2525   21.3182   44.9624 H   0  0  0  0  0  0  0  0  0  0  0  0
   54.8298   23.1759   46.0997 H   0  0  0  0  0  0  0  0  0  0  0  0
   56.0343   24.3390   45.4265 H   0  0  0  0  0  0  0  0  0  0  0  0
   53.4307   25.3039   44.7182 H   0  0  0  0  0  0  0  0  0  0  0  0
   53.3899   24.8637   46.4672 H   0  0  0  0  0  0  0  0  0  0  0  0
   55.3045   28.8558   44.2593 H   0  0  0  0  0  0  0  0  0  0  0  0
   55.7368   31.3000   44.0008 H   0  0  0  0  0  0  0  0  0  0  0  0
   57.9390   32.2604   44.6718 H   0  0  0  0  0  0  0  0  0  0  0  0
   59.7251   30.7753   45.5799 H   0  0  0  0  0  0  0  0  0  0  0  0
  1  2  1  0
  2  3  1  0
  2  4  1  0
  4  5  1  0
  5  6  1  0
  6  7  2  0
  6  8  1  0
  8  9  1  0
  9 10  1  0
 10 11  1  0
 11 12  2  0
 11 13  1  0
 13 14  1  0
 14 15  2  0
 15 16  1  0
 16 17  2  0
 17 18  1  0
 18 19  2  0
 19 20  1  0
 19 14  1  0
  1 21  1  0
  1 22  1  0
  1 23  1  0
  2 24  1  0
  3 25  1  0
  3 26  1  0
  3 27  1  0
  4 28  1  0
  4 29  1  0
  8 30  1  0
  8 31  1  0
  9 32  1  0
  9 33  1  0
 15 34  1  0
 16 35  1  0
 17 36  1  0
 18 37  1  0
M  CHG  3   5  -1  10  -1  13  -1
M  END
>  <UniqueID>  (4) 
4

>  <SMILES>  (4) 
CC(C)C[N-]C(=O)CC[N-]C(=O)[N-]c1ccccc1Br

>  <Energy>  (4) 
25.478687074515438

>  <Genealogy>  (4) 
CC(C)C[N-]C(=O)CC[N-]C(=O)[N-]c1ccccc1Br (protonated)
CC(C)C[N-]C(=O)CC[N-]C(=O)[N-]c1ccccc1Br (3D coordinates assigned)
CC(C)C[N-]C(=O)CC[N-]C(=O)[N-]c1ccccc1Br (optimized conformer: 25.478687074515438 kcal/mol)

>  <smiles>  (4) 
CC(C)CNC(=O)CCNC(=O)Nc1ccccc1Br

>  <score_type>  (4) 
oracle

>  <origin>  (4) 
adg

>  <m_score__min__energy>  (4) 
-12.41

>  <m_primary>  (4) 
energy

$$$$
4:0
     RDKit          3D

 58 60  0  0  0  0  0  0  0  0999 V2000
   60.7380   29.9680   47.4730 C   0  0  0  0  0  0  0  0  0  0  0  0
   60.3780   29.7960   45.9980 C   0  0  0  0  0  0  0  0  0  0  0  0
   59.0060   30.4310   45.6890 C   0  0  0  0  0  0  0  0  0  0  0  0
   58.4770   30.1400   44.3390 N   0  0  0  0  0  0  0  0  0  0  0  0
   58.2130   28.7140   44.1060 C   0  0  0  0  0  0  0  0  0  0  0  0
   57.0830   31.1050   43.9090 S   0  0  0  0  0  0  0  0  0  0  0  0
   56.6520   30.7300   42.5190 O   0  0  0  0  0  0  0  0  0  0  0  0
   55.9350   30.8290   44.8360 O   0  0  0  0  0  0  0  0  0  0  0  0
   57.4970   32.7940   43.8880 N   0  0  0  0  0  0  0  0  0  0  0  0
   57.6130   33.6610   45.0220 C   0  0  0  0  0  0  0  0  0  0  0  0
   56.6880   34.4850   45.2460 O   0  0  0  0  0  0  0  0  0  0  0  0
   58.7630   33.6190   45.9410 C   0  0  0  0  0  0  0  0  0  0  0  0
   58.5910   33.2060   47.2670 C   0  0  0  0  0  0  0  0  0  0  0  0
   59.6840   33.1560   48.1340 C   0  0  0  0  0  0  0  0  0  0  0  0
   60.9620   33.4970   47.6590 C   0  0  0  0  0  0  0  0  0  0  0  0
   62.1550   33.4570   48.5400 C   0  0  0  0  0  0  0  0  0  0  0  0
   63.2850   32.6870   48.2070 C   0  0  0  0  0  0  0  0  0  0  0  0
   64.3990   32.6600   49.0500 C   0  0  0  0  0  0  0  0  0  0  0  0
   64.4090   33.3990   50.2430 C   0  0  0  0  0  0  0  0  0  0  0  0
   65.5530   33.3590   51.1200 N   0  0  0  0  0  0  0  0  0  0  0  0
   66.8660   33.8390   50.6820 C   0  0  0  0  0  0  0  0  0  0  0  0
   67.9230   32.7320   50.8500 C   0  0  0  0  0  0  0  0  0  0  0  0
   67.6630   31.8170   51.9930 N   0  0  0  0  0  0  0  0  0  0  0  0
   67.1520   30.5120   51.5440 C   0  0  0  0  0  0  0  0  0  0  0  0
   66.8000   32.4150   53.0350 C   0  0  0  0  0  0  0  0  0  0  0  0
   65.4240   32.8190   52.4780 C   0  0  0  0  0  0  0  0  0  0  0  0
   63.2740   34.1500   50.5890 C   0  0  0  0  0  0  0  0  0  0  0  0
   62.1590   34.1790   49.7460 C   0  0  0  0  0  0  0  0  0  0  0  0
   61.1090   33.8420   46.3480 N   0  0  0  0  0  0  0  0  0  0  0  0
   60.0580   33.9030   45.4900 C   0  0  0  0  0  0  0  0  0  0  0  0
   59.9211   29.5777   48.0977 H   0  0  0  0  0  0  0  0  0  0  0  0
   61.6632   29.4147   47.6915 H   0  0  0  0  0  0  0  0  0  0  0  0
   60.8888   31.0355   47.6915 H   0  0  0  0  0  0  0  0  0  0  0  0
   61.1474   30.2823   45.3803 H   0  0  0  0  0  0  0  0  0  0  0  0
   60.3269   28.7208   45.7715 H   0  0  0  0  0  0  0  0  0  0  0  0
   58.2819   30.0573   46.4280 H   0  0  0  0  0  0  0  0  0  0  0  0
   59.1517   31.5203   45.7359 H   0  0  0  0  0  0  0  0  0  0  0  0
   58.1172   28.1963   45.0718 H   0  0  0  0  0  0  0  0  0  0  0  0
   57.2789   28.6024   43.5359 H   0  0  0  0  0  0  0  0  0  0  0  0
   59.0452   28.2754   43.5359 H   0  0  0  0  0  0  0  0  0  0  0  0
   57.5918   32.9200   47.6271 H   0  0  0  0  0  0  0  0  0  0  0  0
   59.5459   32.8517   49.1820 H   0  0  0  0  0  0  0  0  0  0  0  0
   63.2913   32.1017   47.2756 H   0  0  0  0  0  0  0  0  0  0  0  0
   65.2755   32.0544   48.7762 H   0  0  0  0  0  0  0  0  0  0  0  0
   66.8110   34.1304   49.6227 H   0  0  0  0  0  0  0  0  0  0  0  0
   67.1538   34.7047   51.2966 H   0  0  0  0  0  0  0  0  0  0  0  0
   67.9478   32.1342   49.9269 H   0  0  0  0  0  0  0  0  0  0  0  0
   68.8801   33.2339   51.0550 H   0  0  0  0  0  0  0  0  0  0  0  0
   66.9093   29.8922   52.4198 H   0  0  0  0  0  0  0  0  0  0  0  0
   66.2461   30.6616   50.9383 H   0  0  0  0  0  0  0  0  0  0  0  0
   67.9187   30.0067   50.9383 H   0  0  0  0  0  0  0  0  0  0  0  0
   66.6556   31.6810   53.8415 H   0  0  0  0  0  0  0  0  0  0  0  0
   67.2962   33.3227   53.4090 H   0  0  0  0  0  0  0  0  0  0  0  0
   64.7701   31.9348   52.4545 H   0  0  0  0  0  0  0  0  0  0  0  0
   64.9931   33.5949   53.1279 H   0  0  0  0  0  0  0  0  0  0  0  0
   63.2621   34.7195   51.5300 H   0  0  0  0  0  0  0  0  0  0  0  0
   61.2769   34.7722   50.0291 H   0  0  0  0  0  0  0  0  0  0  0  0
   60.2245   34.1763   44.4376 H   0  0  0  0  0  0  0  0  0  0  0  0
  1  2  1  0
  2  3  1  0
  3  4  1  0
  4  5  1  0
  4  6  1  0
  6  7  2  0
  6  8  2  0
  6  9  1  0
  9 10  1  0
 10 11  2  0
 10 12  1  0
 12 13  2  0
 13 14  1  0
 14 15  2  0
 15 16  1  0
 16 17  2  0
 17 18  1  0
 18 19  2  0
 19 20  1  0
 20 21  1  0
 21 22  1  0
 22 23  1  0
 23 24  1  0
 23 25  1  0
 25 26  1  0
 19 27  1  0
 27 28  2  0
 15 29  1  0
 29 30  2  0
 30 12  1  0
 28 16  1  0
 26 20  1  0
  1 31  1  0
  1 32  1  0
  1 33  1  0
  2 34  1  0
  2 35  1  0
  3 36  1  0
  3 37  1  0
  5 38  1  0
  5 39  1  0
  5 40  1  0
 13 41  1  0
 14 42  1  0
 17 43  1  0
 18 44  1  0
 21 45  1  0
 21 46  1  0
 22 47  1  0
 22 48  1  0
 24 49  1  0
 24 50  1  0
 24 51  1  0
 25 52  1  0
 25 53  1  0
 26 54  1  0
 26 55  1  0
 27 56  1  0
 28 57  1  0
 30 58  1  0
M  CHG  1   9  -1
M  END
>  <UniqueID>  (5) 
5

>  <SMILES>  (5) 
CCCN(C)S(=O)(=O)[N-]C(=O)c1ccc(-c2ccc(N3CCN(C)CC3)cc2)nc1

>  <Energy>  (5) 
79.86672232616841

>  <Genealogy>  (5) 
CCCN(C)S(=O)(=O)[N-]C(=O)c1ccc(-c2ccc(N3CCN(C)CC3)cc2)nc1 (protonated)
CCCN(C)S(=O)(=O)[N-]C(=O)c1ccc(-c2ccc(N3CCN(C)CC3)cc2)nc1 (3D coordinates assigned)
CCCN(C)S(=O)(=O)[N-]C(=O)c1ccc(-c2ccc(N3CCN(C)CC3)cc2)nc1 (nonaromatic ring conformer: 79.86672232616841 kcal/mol)

>  <smiles>  (5) 
CCCN(C)S(=O)(=O)NC(=O)c1ccc(-c2ccc(N3CCN(C)CC3)cc2)nc1

>  <score_type>  (5) 
oracle

>  <origin>  (5) 
adg

>  <m_score__min__energy>  (5) 
-9.6999999999999993

>  <m_primary>  (5) 
energy

$$$$
5:0
     RDKit          3D

 30 31  0  0  0  0  0  0  0  0999 V2000
   58.9150   30.6290   48.4630 C   0  0  0  0  0  0  0  0  0  0  0  0
   58.9330   32.0230   47.9090 C   0  0  0  0  0  0  0  0  0  0  0  0
   59.7080   33.0160   48.5170 C   0  0  0  0  0  0  0  0  0  0  0  0
   59.6830   34.3030   47.9830 C   0  0  0  0  0  0  0  0  0  0  0  0
   58.9150   34.5710   46.8960 N   0  0  0  0  0  0  0  0  0  0  0  0
   58.1560   33.6020   46.3230 C   0  0  0  0  0  0  0  0  0  0  0  0
   57.1750   33.9850   44.8690 S   0  0  0  0  0  0  0  0  0  0  0  0
   58.0610   32.8170   43.7770 C   0  0  0  0  0  0  0  0  0  0  0  0
   57.8380   31.4000   44.2140 C   0  0  0  0  0  0  0  0  0  0  0  0
   58.8910   30.4880   44.2480 C   0  0  0  0  0  0  0  0  0  0  0  0
   58.6240   29.1630   44.5950 C   0  0  0  0  0  0  0  0  0  0  0  0
   59.5800   28.3420   44.6450 O   0  0  0  0  0  0  0  0  0  0  0  0
   57.3400   28.7660   44.8760 N   0  0  0  0  0  0  0  0  0  0  0  0
   57.0630   27.3720   45.2630 C   0  0  0  0  0  0  0  0  0  0  0  0
   56.3280   29.6920   44.8600 C   0  0  0  0  0  0  0  0  0  0  0  0
   55.1460   29.3630   45.1540 O   0  0  0  0  0  0  0  0  0  0  0  0
   56.5850   30.9820   44.5240 N   0  0  0  0  0  0  0  0  0  0  0  0
   58.1510   32.3410   46.8390 N   0  0  0  0  0  0  0  0  0  0  0  0
   58.9155   30.6712   49.5622 H   0  0  0  0  0  0  0  0  0  0  0  0
   58.0101   30.1084   48.1165 H   0  0  0  0  0  0  0  0  0  0  0  0
   59.8062   30.0852   48.1165 H   0  0  0  0  0  0  0  0  0  0  0  0
   60.3245   32.7858   49.3984 H   0  0  0  0  0  0  0  0  0  0  0  0
   60.2851   35.1011   48.4419 H   0  0  0  0  0  0  0  0  0  0  0  0
   57.6939   32.9381   42.7471 H   0  0  0  0  0  0  0  0  0  0  0  0
   59.1378   33.0352   43.8298 H   0  0  0  0  0  0  0  0  0  0  0  0
   59.9154   30.8071   44.0054 H   0  0  0  0  0  0  0  0  0  0  0  0
   57.0472   27.2923   46.3600 H   0  0  0  0  0  0  0  0  0  0  0  0
   56.0866   27.0664   44.8590 H   0  0  0  0  0  0  0  0  0  0  0  0
   57.8484   26.7163   44.8590 H   0  0  0  0  0  0  0  0  0  0  0  0
   57.5540   31.6090   46.3920 H   0  0  0  0  0  0  0  0  0  0  0  0
  1  2  1  0
  2  3  2  0
  3  4  1  0
  4  5  2  0
  5  6  1  0
  6  7  1  0
  7  8  1  0
  8  9  1  0
  9 10  2  0
 10 11  1  0
 11 12  2  0
 11 13  1  0
 13 14  1  0
 13 15  1  0
 15 16  2  0
 15 17  1  0
  6 18  2  0
 18  2  1  0
 17  9  1  0
  1 19  1  0
  1 20  1  0
  1 21  1  0
  3 22  1  0
  4 23  1  0
  8 24  1  0
  8 25  1  0
 10 26  1  0
 14 27  1  0
 14 28  1  0
 14 29  1  0
 18 30  1  0
M  CHG  2  17  -1  18   1
M  END
>  <UniqueID>  (6) 
6

>  <SMILES>  (6) 
Cc1ccnc(SCc2cc(=O)n(C)c(=O)[n-]2)[nH+]1

>  <Energy>  (6) 
27.951541555675288

>  <Genealogy>  (6) 
Cc1ccnc(SCc2cc(=O)n(C)c(=O)[n-]2)[nH+]1 (protonated)
Cc1ccnc(SCc2cc(=O)n(C)c(=O)[n-]2)[nH+]1 (3D coordinates assigned)
Cc1ccnc(SCc2cc(=O)n(C)c(=O)[n-]2)[nH+]1 (optimized conformer: 27.951541555675288 kcal/mol)

>  <smiles>  (6) 
Cc1ccnc(SCc2cc(=O)n(C)c(=O)[nH]2)n1

>  <score_type>  (6) 
oracle

>  <origin>  (6) 
adg

>  <m_score__min__energy>  (6) 
-6.6100000000000003

>  <m_primary>  (6) 
energy

$$$$
6:0
     RDKit          3D

 52 54  0  0  1  0  0  0  0  0999 V2000
   59.1030   34.3710   46.3710 C   0  0  0  0  0  0  0  0  0  0  0  0
   59.7210   33.0790   46.4810 O   0  0  0  0  0  0  0  0  0  0  0  0
   61.0340   33.0490   46.9480 C   0  0  0  0  0  0  0  0  0  0  0  0
   62.0190   33.8390   46.3600 C   0  0  0  0  0  0  0  0  0  0  0  0
   63.3190   33.8290   46.8000 C   0  0  0  0  0  0  0  0  0  0  0  0
   63.6060   32.9790   47.8770 C   0  0  0  0  0  0  0  0  0  0  0  0
   62.6230   32.1930   48.4610 C   0  0  0  0  0  0  0  0  0  0  0  0
   61.3020   32.2180   47.9980 C   0  0  0  0  0  0  0  0  0  0  0  0
   60.3410   31.3580   48.6950 C   0  0  0  0  0  0  0  0  0  0  0  0
   60.7600   29.9080   48.7120 C   0  0  0  0  0  0  0  0  0  0  0  0
   61.0840   29.3690   49.7750 O   0  0  0  0  0  0  0  0  0  0  0  0
   56.8730   27.2920   46.0780 N   0  0  0  0  0  0  0  0  0  0  0  0
   57.6660   28.2540   45.9910 C   0  0  0  0  0  0  0  0  0  0  0  0
   59.4600   30.2820   45.9440 N   0  0  0  0  0  0  0  0  0  0  0  0
   58.3630   30.3390   45.1750 C   0  0  0  0  0  0  0  0  0  0  0  0
   58.2020   31.4840   44.3540 N   0  0  0  0  0  0  0  0  0  0  0  0
   57.4090   29.3090   45.1720 C   0  0  0  0  0  0  0  0  0  0  0  0
   56.3090   29.5100   44.3280 N   0  0  0  0  0  0  0  0  0  0  0  0
   55.1560   29.3400   44.8460 O   0  0  0  0  0  0  0  0  0  0  0  0
   56.3480   29.8180   42.9950 O   0  0  0  0  0  0  0  0  0  0  0  0
   59.6930   29.2150   46.7590 C   0  0  0  0  0  0  0  0  0  0  0  0
   60.7500   29.2530   47.4580 N   0  0  0  0  0  0  0  0  0  0  0  0
   56.8780   26.0780   45.3980 C   0  0  0  0  0  0  0  0  0  0  0  0
   57.4830   25.7670   44.2140 C   0  0  0  0  0  0  0  0  0  0  0  0
   57.4550   24.5110   43.6430 C   0  0  0  0  0  0  0  0  0  0  0  0
   56.7890   23.4860   44.2730 C   0  0  0  0  0  0  0  0  0  0  0  0
   56.7010   21.8700   43.5750 S   0  0  0  0  0  0  0  0  0  0  0  0
   58.3140   21.2300   43.5410 N   0  0  0  0  0  0  0  0  0  0  0  0
   56.0510   21.8550   42.2470 O   0  0  0  0  0  0  0  0  0  0  0  0
   55.8790   21.0140   44.5010 O   0  0  0  0  0  0  0  0  0  0  0  0
   56.1660   23.7560   45.4670 C   0  0  0  0  0  0  0  0  0  0  0  0
   56.2000   25.0120   46.0280 C   0  0  0  0  0  0  0  0  0  0  0  0
   58.7880   28.2230   46.7620 N   0  0  0  0  0  0  0  0  0  0  0  0
   58.9110   34.7724   47.3770 H   0  0  0  0  0  0  0  0  0  0  0  0
   59.7726   35.0525   45.8259 H   0  0  0  0  0  0  0  0  0  0  0  0
   58.1522   34.2774   45.8259 H   0  0  0  0  0  0  0  0  0  0  0  0
   61.7466   34.4910   45.5170 H   0  0  0  0  0  0  0  0  0  0  0  0
   64.0939   34.4543   46.3326 H   0  0  0  0  0  0  0  0  0  0  0  0
   64.6332   32.9341   48.2678 H   0  0  0  0  0  0  0  0  0  0  0  0
   62.8867   31.5375   49.3041 H   0  0  0  0  0  0  0  0  0  0  0  0
   60.2442   31.7082   49.7333 H   0  0  0  0  0  0  0  0  0  0  0  0
   59.3859   31.4208   48.1530 H   0  0  0  0  0  0  0  0  0  0  0  0
   60.1510   31.0680   45.9220 H   0  0  0  0  0  0  0  0  0  0  0  0
   58.7030   32.3600   44.6890 H   0  0  0  0  0  0  0  0  0  0  0  0
   57.6330   31.4880   43.4740 H   0  0  0  0  0  0  0  0  0  0  0  0
   58.0245   26.5645   43.6842 H   0  0  0  0  0  0  0  0  0  0  0  0
   57.9647   24.3300   42.6852 H   0  0  0  0  0  0  0  0  0  0  0  0
   58.5040   20.7800   44.4450 H   0  0  0  0  0  0  0  0  0  0  0  0
   58.4330   20.6540   42.7010 H   0  0  0  0  0  0  0  0  0  0  0  0
   55.6276   22.9497   45.9866 H   0  0  0  0  0  0  0  0  0  0  0  0
   55.6890   25.1889   46.9859 H   0  0  0  0  0  0  0  0  0  0  0  0
   58.9980   27.4150   47.3970 H   0  0  0  0  0  0  0  0  0  0  0  0
  1  2  1  0
  2  3  1  0
  3  4  2  0
  4  5  1  0
  5  6  2  0
  6  7  1  0
  7  8  2  0
  8  9  1  0
  9 10  1  0
 10 11  2  0
 10 12  1  0
 12 13  2  0
 13 14  1  0
 14 15  1  0
 15 16  1  0
 15 17  2  0
 17 18  1  0
 18 19  2  0
 18 20  1  0
 17 21  1  0
 21 22  2  0
 22 23  1  0
 23 24  2  0
 24 25  1  0
 25 26  2  0
 26 27  1  0
 27 28  1  0
 27 29  2  0
 27 30  2  0
 26 31  1  0
 31 32  2  0
 21 33  1  0
  8  3  1  0
 33 13  1  0
 32 23  1  0
  1 34  1  0
  1 35  1  0
  1 36  1  0
  4 37  1  0
  5 38  1  0
  6 39  1  0
  7 40  1  0
  9 41  1  0
  9 42  1  0
 14 43  1  0
 16 44  1  0
 16 45  1  0
 24 46  1  0
 25 47  1  0
 28 48  1  0
 28 49  1  0
 31 50  1  0
 32 51  1  0
 33 52  1  0
M  CHG  2  18   1  20  -1
M  END
>  <smiles>  (7) 
COc1ccccc1CC(=O)N=c1[nH]c(N)c([N+](=O)[O-])c(=Nc2ccc(S(N)(=O)=O)cc2)[nH]1

>  <score_type>  (7) 
oracle

>  <origin>  (7) 
adg

>  <m_score__min__energy>  (7) 
-9.6099999999999994

>  <m_primary>  (7) 
energy

$$$$
7:0
     RDKit          3D

 58 61  0  0  0  0  0  0  0  0999 V2000
   59.8858   23.2399   45.2623 H   0  0  0  0  0  0  0  0  0  0  0  0
   58.8560   23.1980   44.8780 C   0  0  0  0  0  0  0  0  0  0  0  0
   58.3960   22.0690   44.2780 N   0  0  0  0  0  0  0  0  0  0  0  0
   57.1300   21.9890   43.7920 C   0  0  0  0  0  0  0  0  0  0  0  0
   56.7740   21.0610   43.3208 H   0  0  0  0  0  0  0  0  0  0  0  0
   56.2850   23.0950   43.8960 C   0  0  0  0  0  0  0  0  0  0  0  0
   55.0730   23.0350   43.4240 N   0  0  0  0  0  0  0  0  0  0  0  0
   53.9140   23.7040   44.0160 C   0  0  0  0  0  0  0  0  0  0  0  0
   54.1225   24.7810   44.0976 H   0  0  0  0  0  0  0  0  0  0  0  0
   53.0401   23.5299   43.3710 H   0  0  0  0  0  0  0  0  0  0  0  0
   53.6190   23.1550   45.3830 C   0  0  0  0  0  0  0  0  0  0  0  0
   52.4780   22.4410   45.5920 N   0  0  0  0  0  0  0  0  0  0  0  0
   52.1560   21.9450   46.8160 C   0  0  0  0  0  0  0  0  0  0  0  0
   51.2267   21.3718   46.9499 H   0  0  0  0  0  0  0  0  0  0  0  0
   53.0050   22.1630   47.9040 C   0  0  0  0  0  0  0  0  0  0  0  0
   52.7501   21.7635   48.8967 H   0  0  0  0  0  0  0  0  0  0  0  0
   54.1800   22.8930   47.7180 C   0  0  0  0  0  0  0  0  0  0  0  0
   54.8580   23.0718   48.5656 H   0  0  0  0  0  0  0  0  0  0  0  0
   54.4930   23.3960   46.4530 C   0  0  0  0  0  0  0  0  0  0  0  0
   55.4153   23.9750   46.2977 H   0  0  0  0  0  0  0  0  0  0  0  0
   56.7480   24.2260   44.4960 N   0  0  0  0  0  0  0  0  0  0  0  0
   58.0070   24.3140   45.0050 C   0  0  0  0  0  0  0  0  0  0  0  0
   58.4410   25.5800   45.6550 C   0  0  0  0  0  0  0  0  0  0  0  0
   59.2130   25.5300   46.8300 C   0  0  0  0  0  0  0  0  0  0  0  0
   59.4789   24.5558   47.2662 H   0  0  0  0  0  0  0  0  0  0  0  0
   59.6450   26.7060   47.4480 C   0  0  0  0  0  0  0  0  0  0  0  0
   60.2508   26.6528   48.3646 H   0  0  0  0  0  0  0  0  0  0  0  0
   59.3110   27.9470   46.9070 C   0  0  0  0  0  0  0  0  0  0  0  0
   59.6577   28.8690   47.3966 H   0  0  0  0  0  0  0  0  0  0  0  0
   58.5340   28.0250   45.7400 C   0  0  0  0  0  0  0  0  0  0  0  0
   58.2030   29.2920   45.1460 N   0  0  0  0  0  0  0  0  0  0  0  0
   58.9570   29.8120   44.6410 H   0  0  0  0  0  0  0  0  0  0  0  0
   56.8680   29.8220   45.0830 C   0  0  0  0  0  0  0  0  0  0  0  0
   55.8770   29.0610   45.2400 O   0  0  0  0  0  0  0  0  0  0  0  0
   56.6380   31.1950   44.7470 N   0  0  0  0  0  0  0  0  0  0  0  0
   57.4050   32.3170   45.2020 C   0  0  0  0  0  0  0  0  0  0  0  0
   57.4000   33.4910   44.4410 C   0  0  0  0  0  0  0  0  0  0  0  0
   56.8368   33.5277   43.4968 H   0  0  0  0  0  0  0  0  0  0  0  0
   58.1050   34.6160   44.8720 C   0  0  0  0  0  0  0  0  0  0  0  0
   58.0994   35.5330   44.2645 H   0  0  0  0  0  0  0  0  0  0  0  0
   58.8170   34.5800   46.0720 C   0  0  0  0  0  0  0  0  0  0  0  0
   59.3679   35.4705   46.4090 H   0  0  0  0  0  0  0  0  0  0  0  0
   58.8330   33.4130   46.8500 C   0  0  0  0  0  0  0  0  0  0  0  0
   59.5550   33.3780   48.1400 C   0  0  0  0  0  0  0  0  0  0  0  0
   58.9210   33.0540   49.1810 O   0  0  0  0  0  0  0  0  0  0  0  0
   60.9590   33.6980   48.2340 N   0  0  0  0  0  0  0  0  0  0  0  0
   61.5070   34.1270   49.5230 C   0  0  0  0  0  0  0  0  0  0  0  0
   60.9256   33.6718   50.3384 H   0  0  0  0  0  0  0  0  0  0  0  0
   62.5571   33.8084   49.5993 H   0  0  0  0  0  0  0  0  0  0  0  0
   61.4498   35.2229   49.5993 H   0  0  0  0  0  0  0  0  0  0  0  0
   61.8550   33.4660   47.0960 C   0  0  0  0  0  0  0  0  0  0  0  0
   62.8579   33.2063   47.4659 H   0  0  0  0  0  0  0  0  0  0  0  0
   61.4644   32.6394   46.4843 H   0  0  0  0  0  0  0  0  0  0  0  0
   61.9147   34.3783   46.4843 H   0  0  0  0  0  0  0  0  0  0  0  0
   58.1010   32.2920   46.4240 C   0  0  0  0  0  0  0  0  0  0  0  0
   58.0720   31.3884   47.0506 H   0  0  0  0  0  0  0  0  0  0  0  0
   58.1250   26.8400   45.1060 C   0  0  0  0  0  0  0  0  0  0  0  0
   57.5509   26.8956   44.1693 H   0  0  0  0  0  0  0  0  0  0  0  0
  1  2  1  0
  2  3  1  0
  3  4  2  0
  4  5  1  0
  4  6  1  0
  6  7  2  0
  7  8  1  0
  8  9  1  0
  8 10  1  0
  8 11  1  0
 11 12  2  0
 12 13  1  0
 13 14  1  0
 13 15  2  0
 15 16  1  0
 15 17  1  0
 17 18  1  0
 17 19  2  0
 19 20  1  0
  6 21  1  0
 21 22  1  0
 22 23  1  0
 23 24  2  0
 24 25  1  0
 24 26  1  0
 26 27  1  0
 26 28  2  0
 28 29  1  0
 28 30  1  0
 30 31  1  0
 31 32  1  0
 31 33  1  0
 33 34  2  0
 33 35  1  0
 35 36  1  0
 36 37  2  0
 37 38  1  0
 37 39  1  0
 39 40  1  0
 39 41  2  0
 41 42  1  0
 41 43  1  0
 43 44  1  0
 44 45  2  0
 44 46  1  0
 46 47  1  0
 47 48  1  0
 47 49  1  0
 47 50  1  0
 46 51  1  0
 51 52  1  0
 51 53  1  0
 51 54  1  0
 43 55  2  0
 55 56  1  0
 30 57  2  0
 57 58  1  0
 22  2  2  0
 57 23  1  0
 19 11  1  0
 55 36  1  0
M  CHG  2  21  -1  35  -1
M  END
>  <UniqueID>  (8) 
7

>  <SMILES>  (8) 
CN(C)C(=O)c1cccc([N-]C(=O)Nc2cccc(-c3cnc/c(=N/Cc4ccccn4)[n-]3)c2)c1

>  <Energy>  (8) 
76.65130411375314

>  <Genealogy>  (8) 
CN(C)C(=O)c1cccc([N-]C(=O)Nc2cccc(-c3cncc(=NCc4ccccn4)[n-]3)c2)c1 (protonated)
CN(C)C(=O)c1cccc([N-]C(=O)Nc2cccc(-c3cnc/c(=N/Cc4ccccn4)[n-]3)c2)c1 (cis-trans isomerization)
CN(C)C(=O)c1cccc([N-]C(=O)Nc2cccc(-c3cnc/c(=N/Cc4ccccn4)[n-]3)c2)c1 (3D coordinates assigned)
CN(C)C(=O)c1cccc([N-]C(=O)Nc2cccc(-c3cnc/c(=N/Cc4ccccn4)[n-]3)c2)c1 (optimized conformer: 76.65130411375314 kcal/mol)

>  <smiles>  (8) 
CN(C)C(=O)c1cccc(NC(=O)Nc2cccc(-c3cncc(=NCc4ccccn4)[nH]3)c2)c1

>  <score_type>  (8) 
oracle

>  <origin>  (8) 
adg

>  <m_score__min__energy>  (8) 
-12.779999999999999

>  <m_primary>  (8) 
energy

$$$$
8:0
     RDKit          3D

 59 62  0  0  0  0  0  0  0  0999 V2000
   54.8921   22.8748   42.6895 H   0  0  0  0  0  0  0  0  0  0  0  0
   55.6260   23.0750   43.4840 C   0  0  0  0  0  0  0  0  0  0  0  0
   55.3940   24.1000   44.4070 C   0  0  0  0  0  0  0  0  0  0  0  0
   54.4845   24.7133   44.3252 H   0  0  0  0  0  0  0  0  0  0  0  0
   56.3130   24.3510   45.4360 C   0  0  0  0  0  0  0  0  0  0  0  0
   56.0480   25.4320   46.3470 N   0  0  0  0  0  0  0  0  0  0  0  0
   56.6150   26.6030   46.3540 C   0  0  0  0  0  0  0  0  0  0  0  0
   57.6930   26.8610   47.1400 N   0  0  0  0  0  0  0  0  0  0  0  0
   58.2610   28.0960   47.1570 C   0  0  0  0  0  0  0  0  0  0  0  0
   59.4070   28.3670   47.9910 N   0  0  0  0  0  0  0  0  0  0  0  0
   59.6270   29.7360   48.4830 C   0  0  0  0  0  0  0  0  0  0  0  0
   59.6096   30.4287   47.6287 H   0  0  0  0  0  0  0  0  0  0  0  0
   58.8283   29.9743   49.2008 H   0  0  0  0  0  0  0  0  0  0  0  0
   60.9720   29.8710   49.2040 C   0  0  0  0  0  0  0  0  0  0  0  0
   61.7850   29.7767   48.4690 H   0  0  0  0  0  0  0  0  0  0  0  0
   61.0083   30.8543   49.6957 H   0  0  0  0  0  0  0  0  0  0  0  0
   61.1350   28.7840   50.2740 C   0  0  0  0  0  0  0  0  0  0  0  0
   62.1802   28.7871   50.6167 H   0  0  0  0  0  0  0  0  0  0  0  0
   60.4289   29.0196   51.0839 H   0  0  0  0  0  0  0  0  0  0  0  0
   60.7900   27.3640   49.7700 C   0  0  0  0  0  0  0  0  0  0  0  0
   61.6695   26.7198   49.9166 H   0  0  0  0  0  0  0  0  0  0  0  0
   59.9186   27.0200   50.3465 H   0  0  0  0  0  0  0  0  0  0  0  0
   60.3960   27.3170   48.2880 C   0  0  0  0  0  0  0  0  0  0  0  0
   61.2913   27.4755   47.6688 H   0  0  0  0  0  0  0  0  0  0  0  0
   59.9543   26.3346   48.0651 H   0  0  0  0  0  0  0  0  0  0  0  0
   57.7330   29.0770   46.3800 N   0  0  0  0  0  0  0  0  0  0  0  0
   56.6450   28.8350   45.6030 C   0  0  0  0  0  0  0  0  0  0  0  0
   56.1250   29.7730   44.8690 N   0  0  0  0  0  0  0  0  0  0  0  0
   56.2660   29.8790   43.4150 C   0  0  0  0  0  0  0  0  0  0  0  0
   56.7412   28.9624   43.0356 H   0  0  0  0  0  0  0  0  0  0  0  0
   55.2632   30.0124   42.9831 H   0  0  0  0  0  0  0  0  0  0  0  0
   57.1230   31.0860   43.0120 C   0  0  0  0  0  0  0  0  0  0  0  0
   57.4430   30.9609   41.9670 H   0  0  0  0  0  0  0  0  0  0  0  0
   56.5120   31.9922   43.1361 H   0  0  0  0  0  0  0  0  0  0  0  0
   58.3750   31.2310   43.9020 C   0  0  0  0  0  0  0  0  0  0  0  0
   58.8551   30.2461   43.9996 H   0  0  0  0  0  0  0  0  0  0  0  0
   59.0449   31.9600   43.4226 H   0  0  0  0  0  0  0  0  0  0  0  0
   58.0490   31.7390   45.2580 N   0  0  0  0  0  0  0  0  0  0  0  0
   57.5170   30.9860   45.7580 H   0  0  0  0  0  0  0  0  0  0  0  0
   59.2900   31.9860   46.0410 C   0  0  0  0  0  0  0  0  0  0  0  0
   59.1191   31.6835   47.0847 H   0  0  0  0  0  0  0  0  0  0  0  0
   60.1032   31.3995   45.5886 H   0  0  0  0  0  0  0  0  0  0  0  0
   59.6960   33.4720   46.0120 C   0  0  0  0  0  0  0  0  0  0  0  0
   60.6212   33.5913   46.5948 H   0  0  0  0  0  0  0  0  0  0  0  0
   59.8284   33.7499   44.9560 H   0  0  0  0  0  0  0  0  0  0  0  0
   58.7090   34.3420   46.5520 O   0  0  0  0  0  0  0  0  0  0  0  0
   57.3820   33.8500   46.4220 C   0  0  0  0  0  0  0  0  0  0  0  0
   57.1349   33.2709   47.3240 H   0  0  0  0  0  0  0  0  0  0  0  0
   56.7235   34.7218   46.2943 H   0  0  0  0  0  0  0  0  0  0  0  0
   57.1830   32.9460   45.1920 C   0  0  0  0  0  0  0  0  0  0  0  0
   56.1306   32.6290   45.1477 H   0  0  0  0  0  0  0  0  0  0  0  0
   57.4570   33.5192   44.2940 H   0  0  0  0  0  0  0  0  0  0  0  0
   56.0900   27.5980   45.5950 N   0  0  0  0  0  0  0  0  0  0  0  0
   57.4980   23.5930   45.4960 C   0  0  0  0  0  0  0  0  0  0  0  0
   58.2464   23.8077   46.2730 H   0  0  0  0  0  0  0  0  0  0  0  0
   57.7280   22.5680   44.5720 C   0  0  0  0  0  0  0  0  0  0  0  0
   58.6482   21.9686   44.6339 H   0  0  0  0  0  0  0  0  0  0  0  0
   56.7890   22.3050   43.5700 C   0  0  0  0  0  0  0  0  0  0  0  0
   57.0140   21.3140   42.6740 F   0  0  0  0  0  0  0  0  0  0  0  0
  1  2  1  0
  2  3  2  0
  3  4  1  0
  3  5  1  0
  5  6  1  0
  6  7  2  0
  7  8  1  0
  8  9  2  0
  9 10  1  0
 10 11  1  0
 11 12  1  0
 11 13  1  0
 11 14  1  0
 14 15  1  0
 14 16  1  0
 14 17  1  0
 17 18  1  0
 17 19  1  0
 17 20  1  0
 20 21  1  0
 20 22  1  0
 20 23  1  0
 23 24  1  0
 23 25  1  0
  9 26  1  0
 26 27  1  0
 27 28  2  0
 28 29  1  0
 29 30  1  0
 29 31  1  0
 29 32  1  0
 32 33  1  0
 32 34  1  0
 32 35  1  0
 35 36  1  0
 35 37  1  0
 35 38  1  0
 38 39  1  0
 38 40  1  0
 40 41  1  0
 40 42  1  0
 40 43  1  0
 43 44  1  0
 43 45  1  0
 43 46  1  0
 46 47  1  0
 47 48  1  0
 47 49  1  0
 47 50  1  0
 50 51  1  0
 50 52  1  0
 27 53  1  0
  5 54  2  0
 54 55  1  0
 54 56  1  0
 56 57  1  0
 56 58  2  0
 58 59  1  0
 58  2  1  0
 53  7  1  0
 23 10  1  0
 50 38  1  0
M  CHG  3  26  -1  38   1  53  -1
M  END
>  <UniqueID>  (9) 
8

>  <SMILES>  (9) 
Fc1ccc(/N=c2\nc(N3CCCCC3)[n-]/c(=N\CCC[NH+]3CCOCC3)[n-]2)cc1

>  <Energy>  (9) 
79.27917958421256

>  <Genealogy>  (9) 
Fc1ccc(N=c2nc(N3CCCCC3)[n-]c(=NCCC[NH+]3CCOCC3)[n-]2)cc1 (protonated)
Fc1ccc(/N=c2\nc(N3CCCCC3)[n-]/c(=N\CCC[NH+]3CCOCC3)[n-]2)cc1 (cis-trans isomerization)
Fc1ccc(/N=c2\nc(N3CCCCC3)[n-]/c(=N\CCC[NH+]3CCOCC3)[n-]2)cc1 (3D coordinates assigned)
Fc1ccc(/N=c2\nc(N3CCCCC3)[n-]/c(=N\CCC[NH+]3CCOCC3)[n-]2)cc1 (nonaromatic ring conformer: 79.27917958421256 kcal/mol)

>  <smiles>  (9) 
Fc1ccc(N=c2nc(N3CCCCC3)[nH]c(=NCCCN3CCOCC3)[nH]2)cc1

>  <score_type>  (9) 
oracle

>  <origin>  (9) 
adg

>  <m_score__min__energy>  (9) 
-9.2200000000000006

>  <m_primary>  (9) 
energy

$$$$
9:0
     RDKit          3D

 25 26  0  0  0  0  0  0  0  0999 V2000
   59.3430   25.6460   45.8310 O   0  0  0  0  0  0  0  0  0  0  0  0
   58.1040   25.4830   45.6750 C   0  0  0  0  0  0  0  0  0  0  0  0
   57.4100   24.0720   45.0890 S   0  0  0  0  0  0  0  0  0  0  0  0
   55.8390   24.6600   45.2310 C   0  0  0  0  0  0  0  0  0  0  0  0
   55.9100   25.9520   45.7410 C   0  0  0  0  0  0  0  0  0  0  0  0
   54.7690   26.6990   46.0130 O   0  0  0  0  0  0  0  0  0  0  0  0
   57.1720   26.4240   45.9680 N   0  0  0  0  0  0  0  0  0  0  0  0
   57.4760   27.7330   46.5610 C   0  0  0  0  0  0  0  0  0  0  0  0
   57.4520   28.8460   45.5280 C   0  0  0  0  0  0  0  0  0  0  0  0
   56.2390   29.0790   44.8470 C   0  0  0  0  0  0  0  0  0  0  0  0
   56.1450   30.0640   43.8660 C   0  0  0  0  0  0  0  0  0  0  0  0
   57.2580   30.8330   43.5420 C   0  0  0  0  0  0  0  0  0  0  0  0
   58.4680   30.6270   44.2030 C   0  0  0  0  0  0  0  0  0  0  0  0
   58.5880   29.6530   45.2180 C   0  0  0  0  0  0  0  0  0  0  0  0
   59.9380   29.4580   45.8840 C   0  0  0  0  0  0  0  0  0  0  0  0
   60.7480   28.6090   45.1500 F   0  0  0  0  0  0  0  0  0  0  0  0
   60.6090   30.6610   46.0020 F   0  0  0  0  0  0  0  0  0  0  0  0
   59.7590   28.9040   47.1370 F   0  0  0  0  0  0  0  0  0  0  0  0
   54.9189   24.1181   44.9671 H   0  0  0  0  0  0  0  0  0  0  0  0
   56.7285   27.9532   47.3374 H   0  0  0  0  0  0  0  0  0  0  0  0
   58.4896   27.6860   46.9857 H   0  0  0  0  0  0  0  0  0  0  0  0
   55.3541   28.4741   45.0940 H   0  0  0  0  0  0  0  0  0  0  0  0
   55.1899   30.2337   43.3473 H   0  0  0  0  0  0  0  0  0  0  0  0
   57.1832   31.6054   42.7624 H   0  0  0  0  0  0  0  0  0  0  0  0
   59.3439   31.2335   43.9292 H   0  0  0  0  0  0  0  0  0  0  0  0
  1  2  2  0
  2  3  1  0
  3  4  1  0
  4  5  2  0
  5  6  1  0
  5  7  1  0
  7  8  1  0
  8  9  1  0
  9 10  2  0
 10 11  1  0
 11 12  2  0
 12 13  1  0
 13 14  2  0
 14 15  1  0
 15 16  1  0
 15 17  1  0
 15 18  1  0
  7  2  1  0
 14  9  1  0
  4 19  1  0
  8 20  1  0
  8 21  1  0
 10 22  1  0
 11 23  1  0
 12 24  1  0
 13 25  1  0
M  CHG  1   6  -1
M  END
>  <UniqueID>  (10) 
9

>  <SMILES>  (10) 
O=c1scc([O-])n1Cc1ccccc1C(F)(F)F

>  <Energy>  (10) 
61.760750650687854

>  <Genealogy>  (10) 
O=c1scc([O-])n1Cc1ccccc1C(F)(F)F (protonated)
O=c1scc([O-])n1Cc1ccccc1C(F)(F)F (3D coordinates assigned)
O=c1scc([O-])n1Cc1ccccc1C(F)(F)F (optimized conformer: 61.760750650687854 kcal/mol)

>  <smiles>  (10) 
O=c1scc(O)n1Cc1ccccc1C(F)(F)F

>  <score_type>  (10) 
oracle

>  <origin>  (10) 
adg

>  <m_score__min__energy>  (10) 
-8.9800000000000004

>  <m_primary>  (10) 
energy

$$$$
10:0
     RDKit          3D

 64 69  0  0  0  0  0  0  0  0999 V2000
   67.6260   33.6680   53.3140 C   0  0  0  0  0  0  0  0  0  0  0  0
   66.5870   33.6110   52.2320 C   0  0  0  0  0  0  0  0  0  0  0  0
   66.8050   32.8540   51.0710 C   0  0  0  0  0  0  0  0  0  0  0  0
   65.8210   32.7790   50.0820 C   0  0  0  0  0  0  0  0  0  0  0  0
   64.5900   33.4480   50.2340 C   0  0  0  0  0  0  0  0  0  0  0  0
   63.5620   33.3520   49.1520 C   0  0  0  0  0  0  0  0  0  0  0  0
   62.4430   33.9130   49.3410 O   0  0  0  0  0  0  0  0  0  0  0  0
   63.8020   32.6070   47.9200 N   0  0  0  0  0  0  0  0  0  0  0  0
   63.7750   33.4400   46.7030 C   0  0  0  0  0  0  0  0  0  0  0  0
   62.3720   33.9760   46.3380 C   0  0  0  0  0  0  0  0  0  0  0  0
   61.2370   33.2190   46.9100 N   0  0  0  0  0  0  0  0  0  0  0  0
   59.9200   33.8240   46.7900 C   0  0  0  0  0  0  0  0  0  0  0  0
   59.8380   35.0430   46.4730 O   0  0  0  0  0  0  0  0  0  0  0  0
   58.6470   33.0920   47.0410 C   0  0  0  0  0  0  0  0  0  0  0  0
   57.6330   33.6840   47.5020 O   0  0  0  0  0  0  0  0  0  0  0  0
   58.5020   31.6780   46.6490 C   0  0  0  0  0  0  0  0  0  0  0  0
   58.7530   30.5930   47.4820 C   0  0  0  0  0  0  0  0  0  0  0  0
   58.3990   29.4390   46.8740 N   0  0  0  0  0  0  0  0  0  0  0  0
   57.9450   29.7770   45.6490 C   0  0  0  0  0  0  0  0  0  0  0  0
   57.4330   28.9240   44.6560 C   0  0  0  0  0  0  0  0  0  0  0  0
   57.3340   27.4640   44.8490 C   0  0  0  0  0  0  0  0  0  0  0  0
   57.8880   26.5760   43.8910 C   0  0  0  0  0  0  0  0  0  0  0  0
   57.7880   25.1840   44.0650 C   0  0  0  0  0  0  0  0  0  0  0  0
   57.1310   24.7140   45.2020 C   0  0  0  0  0  0  0  0  0  0  0  0
   56.8840   23.4290   45.6310 C   0  0  0  0  0  0  0  0  0  0  0  0
   56.1930   23.5680   46.8320 C   0  0  0  0  0  0  0  0  0  0  0  0
   56.0170   24.8750   47.1320 N   0  0  0  0  0  0  0  0  0  0  0  0
   56.5920   25.5630   46.1310 C   0  0  0  0  0  0  0  0  0  0  0  0
   56.6660   26.9460   45.9850 C   0  0  0  0  0  0  0  0  0  0  0  0
   56.9890   29.5140   43.4520 C   0  0  0  0  0  0  0  0  0  0  0  0
   57.0910   30.9050   43.2540 C   0  0  0  0  0  0  0  0  0  0  0  0
   57.6070   31.7350   44.2640 C   0  0  0  0  0  0  0  0  0  0  0  0
   57.7510   33.0640   44.0380 F   0  0  0  0  0  0  0  0  0  0  0  0
   57.9990   31.1410   45.4710 C   0  0  0  0  0  0  0  0  0  0  0  0
   61.4100   31.9560   47.6480 C   0  0  0  0  0  0  0  0  0  0  0  0
   62.8640   31.4870   47.7480 C   0  0  0  0  0  0  0  0  0  0  0  0
   64.3710   34.1910   51.4160 C   0  0  0  0  0  0  0  0  0  0  0  0
   65.3600   34.2680   52.4020 C   0  0  0  0  0  0  0  0  0  0  0  0
   67.1334   33.6410   54.2972 H   0  0  0  0  0  0  0  0  0  0  0  0
   68.3022   32.8056   53.2188 H   0  0  0  0  0  0  0  0  0  0  0  0
   68.2038   34.5992   53.2188 H   0  0  0  0  0  0  0  0  0  0  0  0
   67.7557   32.3167   50.9387 H   0  0  0  0  0  0  0  0  0  0  0  0
   66.0097   32.1898   49.1725 H   0  0  0  0  0  0  0  0  0  0  0  0
   64.7710   32.2130   47.9700 H   0  0  0  0  0  0  0  0  0  0  0  0
   64.4440   34.2994   46.8574 H   0  0  0  0  0  0  0  0  0  0  0  0
   64.0961   32.7968   45.8704 H   0  0  0  0  0  0  0  0  0  0  0  0
   62.3018   35.0144   46.6942 H   0  0  0  0  0  0  0  0  0  0  0  0
   62.2836   33.8774   45.2460 H   0  0  0  0  0  0  0  0  0  0  0  0
   59.1796   30.6640   48.4934 H   0  0  0  0  0  0  0  0  0  0  0  0
   58.4420   28.4840   47.2950 H   0  0  0  0  0  0  0  0  0  0  0  0
   58.3999   26.9796   43.0050 H   0  0  0  0  0  0  0  0  0  0  0  0
   58.2145   24.4879   43.3277 H   0  0  0  0  0  0  0  0  0  0  0  0
   57.1714   22.4921   45.1313 H   0  0  0  0  0  0  0  0  0  0  0  0
   55.8392   22.7305   47.4512 H   0  0  0  0  0  0  0  0  0  0  0  0
   55.5320   25.2640   47.9710 H   0  0  0  0  0  0  0  0  0  0  0  0
   56.2177   27.6177   46.7319 H   0  0  0  0  0  0  0  0  0  0  0  0
   56.5594   28.8813   42.6613 H   0  0  0  0  0  0  0  0  0  0  0  0
   56.7639   31.3454   42.3005 H   0  0  0  0  0  0  0  0  0  0  0  0
   61.0205   32.0949   48.6673 H   0  0  0  0  0  0  0  0  0  0  0  0
   60.8641   31.1827   47.0876 H   0  0  0  0  0  0  0  0  0  0  0  0
   62.9589   30.8107   48.6103 H   0  0  0  0  0  0  0  0  0  0  0  0
   63.1182   30.9770   46.8071 H   0  0  0  0  0  0  0  0  0  0  0  0
   63.4141   34.7135   51.5619 H   0  0  0  0  0  0  0  0  0  0  0  0
   65.1738   34.8483   53.3177 H   0  0  0  0  0  0  0  0  0  0  0  0
  1  2  1  0
  2  3  2  0
  3  4  1  0
  4  5  2  0
  5  6  1  0
  6  7  2  0
  6  8  1  0
  8  9  1  0
  9 10  1  0
 10 11  1  0
 11 12  1  0
 12 13  2  0
 12 14  1  0
 14 15  2  0
 14 16  1  0
 16 17  2  0
 17 18  1  0
 18 19  1  0
 19 20  2  0
 20 21  1  0
 21 22  2  0
 22 23  1  0
 23 24  2  0
 24 25  1  0
 25 26  2  0
 26 27  1  0
 27 28  1  0
 28 29  2  0
 20 30  1  0
 30 31  2  0
 31 32  1  0
 32 33  1  0
 32 34  2  0
 11 35  1  0
 35 36  1  0
  5 37  1  0
 37 38  2  0
 38  2  1  0
 36  8  1  0
 34 16  1  0
 34 19  1  0
 29 21  1  0
 28 24  1  0
  1 39  1  0
  1 40  1  0
  1 41  1  0
  3 42  1  0
  4 43  1  0
  8 44  1  0
  9 45  1  0
  9 46  1  0
 10 47  1  0
 10 48  1  0
 17 49  1  0
 18 50  1  0
 22 51  1  0
 23 52  1  0
 25 53  1  0
 26 54  1  0
 27 55  1  0
 29 56  1  0
 30 57  1  0
 31 58  1  0
 35 59  1  0
 35 60  1  0
 36 61  1  0
 36 62  1  0
 37 63  1  0
 38 64  1  0
M  CHG  1   8   1
M  END
>  <UniqueID>  (11) 
10

>  <SMILES>  (11) 
Cc1ccc(C(=O)[NH+]2CCN(C(=O)C(=O)c3c[nH]c4c(-c5ccc6cc[nH]c6c5)ccc(F)c34)CC2)cc1

>  <Energy>  (11) 
165.06749784647235

>  <Genealogy>  (11) 
Cc1ccc(C(=O)[NH+]2CCN(C(=O)C(=O)c3c[nH]c4c(-c5ccc6cc[nH]c6c5)ccc(F)c34)CC2)cc1 (protonated)
Cc1ccc(C(=O)[NH+]2CCN(C(=O)C(=O)c3c[nH]c4c(-c5ccc6cc[nH]c6c5)ccc(F)c34)CC2)cc1 (3D coordinates assigned)
Cc1ccc(C(=O)[NH+]2CCN(C(=O)C(=O)c3c[nH]c4c(-c5ccc6cc[nH]c6c5)ccc(F)c34)CC2)cc1 (nonaromatic ring conformer: 165.06749784647235 kcal/mol)

>  <smiles>  (11) 
Cc1ccc(C(=O)N2CCN(C(=O)C(=O)c3c[nH]c4c(-c5ccc6cc[nH]c6c5)ccc(F)c34)CC2)cc1

>  <score_type>  (11) 
oracle

>  <origin>  (11) 
adg

>  <m_score__min__energy>  (11) 
-9.0700000000000003

>  <m_primary>  (11) 
energy

$$$$
11:0
     RDKit          3D

 86 91  0  0  0  0  0  0  0  0999 V2000
   56.8664   21.8717   50.0168 H   0  0  0  0  0  0  0  0  0  0  0  0
   56.4930   22.2430   49.0510 C   0  0  0  0  0  0  0  0  0  0  0  0
   57.3560   22.4640   48.0310 N   0  0  0  0  0  0  0  0  0  0  0  0
   56.9380   22.9820   46.8480 C   0  0  0  0  0  0  0  0  0  0  0  0
   57.6669   23.1479   46.0411 H   0  0  0  0  0  0  0  0  0  0  0  0
   55.5850   23.3100   46.6390 C   0  0  0  0  0  0  0  0  0  0  0  0
   55.2780   24.5660   45.4210 S   0  0  0  0  0  0  0  0  0  0  0  0
   55.3170   25.9280   46.0560 O   0  0  0  0  0  0  0  0  0  0  0  0
   53.9540   24.3530   44.7440 O   0  0  0  0  0  0  0  0  0  0  0  0
   56.5190   24.5100   44.2090 N   0  0  0  0  0  0  0  0  0  0  0  0
   57.4610   25.5740   44.0280 C   0  0  0  0  0  0  0  0  0  0  0  0
   57.7940   25.9200   42.8620 O   0  0  0  0  0  0  0  0  0  0  0  0
   58.0230   26.2860   45.2000 C   0  0  0  0  0  0  0  0  0  0  0  0
   59.0230   25.6840   45.9820 C   0  0  0  0  0  0  0  0  0  0  0  0
   59.3541   24.6609   45.7502 H   0  0  0  0  0  0  0  0  0  0  0  0
   59.6000   26.3720   47.0500 C   0  0  0  0  0  0  0  0  0  0  0  0
   60.3920   25.8909   47.6426 H   0  0  0  0  0  0  0  0  0  0  0  0
   59.1830   27.6650   47.3750 C   0  0  0  0  0  0  0  0  0  0  0  0
   59.8830   28.3570   48.4230 N   0  0  0  0  0  0  0  0  0  0  0  0
   59.4180   29.2440   49.2540 C   0  0  0  0  0  0  0  0  0  0  0  0
   59.2490   28.9660   50.5750 N   0  0  0  0  0  0  0  0  0  0  0  0
   58.7810   29.9200   51.4230 C   0  0  0  0  0  0  0  0  0  0  0  0
   58.6220   29.6350   52.6820 N   0  0  0  0  0  0  0  0  0  0  0  0
   57.3520   29.2470   53.2960 C   0  0  0  0  0  0  0  0  0  0  0  0
   56.7702   28.6529   52.5759 H   0  0  0  0  0  0  0  0  0  0  0  0
   57.5637   28.6554   54.1989 H   0  0  0  0  0  0  0  0  0  0  0  0
   56.5400   30.4840   53.6990 C   0  0  0  0  0  0  0  0  0  0  0  0
   56.4213   30.4968   54.7925 H   0  0  0  0  0  0  0  0  0  0  0  0
   57.0764   31.3830   53.3613 H   0  0  0  0  0  0  0  0  0  0  0  0
   55.1790   30.4640   53.0550 C   0  0  0  0  0  0  0  0  0  0  0  0
   54.9250   31.2430   51.9090 C   0  0  0  0  0  0  0  0  0  0  0  0
   55.7212   31.8751   51.4888 H   0  0  0  0  0  0  0  0  0  0  0  0
   53.6640   31.2160   51.3030 C   0  0  0  0  0  0  0  0  0  0  0  0
   53.4679   31.8327   50.4135 H   0  0  0  0  0  0  0  0  0  0  0  0
   52.6520   30.4040   51.8290 C   0  0  0  0  0  0  0  0  0  0  0  0
   51.4000   30.3800   51.2270 O   0  0  0  0  0  0  0  0  0  0  0  0
   52.9020   29.6150   52.9580 C   0  0  0  0  0  0  0  0  0  0  0  0
   52.1076   28.9726   53.3657 H   0  0  0  0  0  0  0  0  0  0  0  0
   54.1610   29.6420   53.5690 C   0  0  0  0  0  0  0  0  0  0  0  0
   54.3544   29.0181   54.4541 H   0  0  0  0  0  0  0  0  0  0  0  0
   58.4880   31.1600   50.9440 N   0  0  0  0  0  0  0  0  0  0  0  0
   58.6750   31.4520   49.6330 C   0  0  0  0  0  0  0  0  0  0  0  0
   58.4110   32.6490   49.2010 N   0  0  0  0  0  0  0  0  0  0  0  0
   59.3380   33.7810   49.2660 C   0  0  0  0  0  0  0  0  0  0  0  0
   58.8041   34.6611   49.6539 H   0  0  0  0  0  0  0  0  0  0  0  0
   60.1726   33.5122   49.9302 H   0  0  0  0  0  0  0  0  0  0  0  0
   59.9090   34.1120   47.8680 C   0  0  0  0  0  0  0  0  0  0  0  0
   59.7984   35.2011   47.7602 H   0  0  0  0  0  0  0  0  0  0  0  0
   61.3800   33.7540   47.7730 C   0  0  0  0  0  0  0  0  0  0  0  0
   62.0550   33.8740   46.5410 C   0  0  0  0  0  0  0  0  0  0  0  0
   61.5118   34.2277   45.6523 H   0  0  0  0  0  0  0  0  0  0  0  0
   63.4110   33.5460   46.4420 C   0  0  0  0  0  0  0  0  0  0  0  0
   63.9296   33.6412   45.4766 H   0  0  0  0  0  0  0  0  0  0  0  0
   64.1080   33.0980   47.5660 C   0  0  0  0  0  0  0  0  0  0  0  0
   65.1741   32.8394   47.4847 H   0  0  0  0  0  0  0  0  0  0  0  0
   63.4520   32.9780   48.7940 C   0  0  0  0  0  0  0  0  0  0  0  0
   64.0033   32.6264   49.6786 H   0  0  0  0  0  0  0  0  0  0  0  0
   62.0960   33.3040   48.9010 C   0  0  0  0  0  0  0  0  0  0  0  0
   61.5854   33.2087   49.8707 H   0  0  0  0  0  0  0  0  0  0  0  0
   59.1260   33.4970   46.7140 C   0  0  0  0  0  0  0  0  0  0  0  0
   58.1290   34.2100   46.0160 C   0  0  0  0  0  0  0  0  0  0  0  0
   57.9163   35.2551   46.2854 H   0  0  0  0  0  0  0  0  0  0  0  0
   57.4090   33.6000   44.9850 C   0  0  0  0  0  0  0  0  0  0  0  0
   56.6386   34.1687   44.4436 H   0  0  0  0  0  0  0  0  0  0  0  0
   57.6640   32.2720   44.6400 C   0  0  0  0  0  0  0  0  0  0  0  0
   57.1003   31.7967   43.8237 H   0  0  0  0  0  0  0  0  0  0  0  0
   58.6360   31.5480   45.3330 C   0  0  0  0  0  0  0  0  0  0  0  0
   58.8328   30.4991   45.0665 H   0  0  0  0  0  0  0  0  0  0  0  0
   59.3600   32.1530   46.3650 C   0  0  0  0  0  0  0  0  0  0  0  0
   60.1199   31.5733   46.9096 H   0  0  0  0  0  0  0  0  0  0  0  0
   59.1400   30.4890   48.7940 N   0  0  0  0  0  0  0  0  0  0  0  0
   58.1870   28.2780   46.5930 C   0  0  0  0  0  0  0  0  0  0  0  0
   57.8630   29.3032   46.8255 H   0  0  0  0  0  0  0  0  0  0  0  0
   57.6060   27.5910   45.5210 C   0  0  0  0  0  0  0  0  0  0  0  0
   56.8179   28.0746   44.9252 H   0  0  0  0  0  0  0  0  0  0  0  0
   54.6430   22.9250   47.6390 C   0  0  0  0  0  0  0  0  0  0  0  0
   53.3490   22.8250   47.4760 N   0  0  0  0  0  0  0  0  0  0  0  0
   52.3870   21.8130   46.4350 S   0  0  0  0  0  0  0  0  0  0  0  0
   52.0340   22.6200   45.2160 O   0  0  0  0  0  0  0  0  0  0  0  0
   53.1380   20.5980   45.9780 O   0  0  0  0  0  0  0  0  0  0  0  0
   50.8510   21.3750   47.2310 C   0  0  0  0  0  0  0  0  0  0  0  0
   50.9803   21.4119   48.3228 H   0  0  0  0  0  0  0  0  0  0  0  0
   50.0667   22.0853   46.9304 H   0  0  0  0  0  0  0  0  0  0  0  0
   50.5593   20.3579   46.9304 H   0  0  0  0  0  0  0  0  0  0  0  0
   55.1320   22.4860   48.8770 C   0  0  0  0  0  0  0  0  0  0  0  0
   54.4374   22.3324   49.7160 H   0  0  0  0  0  0  0  0  0  0  0  0
  1  2  1  0
  2  3  1  0
  3  4  1  0
  4  5  1  0
  4  6  2  0
  6  7  1  0
  7  8  2  0
  7  9  2  0
  7 10  1  0
 10 11  1  0
 11 12  2  0
 11 13  1  0
 13 14  2  0
 14 15  1  0
 14 16  1  0
 16 17  1  0
 16 18  2  0
 18 19  1  0
 19 20  2  3
 20 21  1  0
 21 22  1  0
 22 23  2  3
 23 24  1  0
 24 25  1  0
 24 26  1  0
 24 27  1  0
 27 28  1  0
 27 29  1  0
 27 30  1  0
 30 31  2  0
 31 32  1  0
 31 33  1  0
 33 34  1  0
 33 35  2  0
 35 36  1  0
 35 37  1  0
 37 38  1  0
 37 39  2  0
 39 40  1  0
 22 41  1  0
 41 42  1  0
 42 43  2  3
 43 44  1  0
 44 45  1  0
 44 46  1  0
 44 47  1  0
 47 48  1  0
 47 49  1  0
 49 50  2  0
 50 51  1  0
 50 52  1  0
 52 53  1  0
 52 54  2  0
 54 55  1  0
 54 56  1  0
 56 57  1  0
 56 58  2  0
 58 59  1  0
 47 60  1  0
 60 61  2  0
 61 62  1  0
 61 63  1  0
 63 64  1  0
 63 65  2  0
 65 66  1  0
 65 67  1  0
 67 68  1  0
 67 69  2  0
 69 70  1  0
 42 71  1  0
 18 72  1  0
 72 73  1  0
 72 74  2  0
 74 75  1  0
  6 76  1  0
 76 77  2  0
 77 78  1  0
 78 79  2  0
 78 80  2  0
 78 81  1  0
 81 82  1  0
 81 83  1  0
 81 84  1  0
 76 85  1  0
 85 86  1  0
 85  2  2  0
 74 13  1  0
 71 20  1  0
 39 30  1  0
 58 49  1  0
 69 60  1  0
M  CHG  6   3  -1  10  -1  21  -1  36  -1  41  -1  71  -1
M  END
>  <UniqueID>  (12) 
11

>  <SMILES>  (12) 
CS(=O)(=O)/N=c1/cc[n-]cc1S(=O)(=O)[N-]C(=O)c1ccc(N=c2[n-]c(=NCCc3ccc([O-])cc3)[n-]c(=NCC(c3ccccc3)c3ccccc3)[n-]2)cc1

>  <Energy>  (12) 
127.3818390963107

>  <Genealogy>  (12) 
CS(=O)(=O)N=c1cc[n-]cc1S(=O)(=O)[N-]C(=O)c1ccc(N=c2[n-]c(=NCCc3ccc([O-])cc3)[n-]c(=NCC(c3ccccc3)c3ccccc3)[n-]2)cc1 (protonated)
CS(=O)(=O)/N=c1/cc[n-]cc1S(=O)(=O)[N-]C(=O)c1ccc(N=c2[n-]c(=NCCc3ccc([O-])cc3)[n-]c(=NCC(c3ccccc3)c3ccccc3)[n-]2)cc1 (cis-trans isomerization)
CS(=O)(=O)/N=c1/cc[n-]cc1S(=O)(=O)[N-]C(=O)c1ccc(N=c2[n-]c(=NCCc3ccc([O-])cc3)[n-]c(=NCC(c3ccccc3)c3ccccc3)[n-]2)cc1 (3D coordinates assigned)
CS(=O)(=O)/N=c1/cc[n-]cc1S(=O)(=O)[N-]C(=O)c1ccc(N=c2[n-]c(=NCCc3ccc([O-])cc3)[n-]c(=NCC(c3ccccc3)c3ccccc3)[n-]2)cc1 (optimized conformer: 127.3818390963107 kcal/mol)

>  <smiles>  (12) 
CS(=O)(=O)N=c1cc[nH]cc1S(=O)(=O)NC(=O)c1ccc(N=c2[nH]c(=NCCc3ccc(O)cc3)[nH]c(=NCC(c3ccccc3)c3ccccc3)[nH]2)cc1

>  <score_type>  (12) 
oracle

>  <origin>  (12) 
adg

>  <m_score__min__energy>  (12) 
-22.140000000000001

>  <m_primary>  (12) 
energy

$$$$
12:0
     RDKit          3D

 36 38  0  0  0  0  0  0  0  0999 V2000
   55.6530   28.9560   45.7890 H   0  0  0  0  0  0  0  0  0  0  0  0
   55.2410   29.2400   44.8710 N   0  0  0  0  0  0  0  0  0  0  0  0
   56.5490   29.7720   43.8740 S   0  0  0  0  0  0  0  0  0  0  0  0
   56.0080   30.4450   42.6440 O   0  0  0  0  0  0  0  0  0  0  0  0
   57.3640   28.5770   43.4610 O   0  0  0  0  0  0  0  0  0  0  0  0
   57.5480   30.9160   44.7780 C   0  0  0  0  0  0  0  0  0  0  0  0
   57.4180   32.2940   44.5460 C   0  0  0  0  0  0  0  0  0  0  0  0
   56.6944   32.6572   43.8014 H   0  0  0  0  0  0  0  0  0  0  0  0
   58.2020   33.2070   45.2550 C   0  0  0  0  0  0  0  0  0  0  0  0
   58.0962   34.2854   45.0655 H   0  0  0  0  0  0  0  0  0  0  0  0
   59.1190   32.7530   46.2030 C   0  0  0  0  0  0  0  0  0  0  0  0
   59.7345   33.4741   46.7609 H   0  0  0  0  0  0  0  0  0  0  0  0
   59.2570   31.3850   46.4450 C   0  0  0  0  0  0  0  0  0  0  0  0
   59.9823   31.0324   47.1930 H   0  0  0  0  0  0  0  0  0  0  0  0
   58.4730   30.4540   45.7370 C   0  0  0  0  0  0  0  0  0  0  0  0
   58.3340   23.3040   46.2450 N   0  0  0  0  0  0  0  0  0  0  0  0
   58.6020   29.0450   45.9740 N   0  0  0  0  0  0  0  0  0  0  0  0
   57.6470   26.9590   46.4750 C   0  0  0  0  0  0  0  0  0  0  0  0
   58.9370   25.8850   46.6080 S   0  0  0  0  0  0  0  0  0  0  0  0
   57.9430   24.5430   46.3250 C   0  0  0  0  0  0  0  0  0  0  0  0
   57.7280   28.3790   46.6120 N   0  0  0  0  0  0  0  0  0  0  0  0
   57.6610   22.2390   45.5550 C   0  0  0  0  0  0  0  0  0  0  0  0
   57.5560   22.2980   44.1590 C   0  0  0  0  0  0  0  0  0  0  0  0
   58.0134   23.1349   43.6109 H   0  0  0  0  0  0  0  0  0  0  0  0
   56.8730   21.2990   43.4590 C   0  0  0  0  0  0  0  0  0  0  0  0
   56.8078   21.3434   42.3618 H   0  0  0  0  0  0  0  0  0  0  0  0
   56.2730   20.2440   44.1520 C   0  0  0  0  0  0  0  0  0  0  0  0
   55.7451   19.4526   43.5998 H   0  0  0  0  0  0  0  0  0  0  0  0
   56.3440   20.1950   45.5470 C   0  0  0  0  0  0  0  0  0  0  0  0
   55.8637   19.3697   46.0930 H   0  0  0  0  0  0  0  0  0  0  0  0
   57.0250   21.1940   46.2490 C   0  0  0  0  0  0  0  0  0  0  0  0
   57.0635   21.1626   47.3479 H   0  0  0  0  0  0  0  0  0  0  0  0
   56.6560   24.9000   46.1160 N   0  0  0  0  0  0  0  0  0  0  0  0
   56.4870   26.2450   46.2050 C   0  0  0  0  0  0  0  0  0  0  0  0
   55.2390   26.8370   46.0310 O   0  0  0  0  0  0  0  0  0  0  0  0
   55.1400   27.8410   45.9390 H   0  0  0  0  0  0  0  0  0  0  0  0
  1  2  1  0
  2  3  1  0
  3  4  2  0
  3  5  2  0
  3  6  1  0
  6  7  2  0
  7  8  1  0
  7  9  1  0
  9 10  1  0
  9 11  2  0
 11 12  1  0
 11 13  1  0
 13 14  1  0
 13 15  2  0
 15 16  1  0
 16 17  2  0
 17 18  1  0
 18 19  1  0
 19 20  1  0
 20 21  2  0
 21 22  1  0
 22 23  2  0
 23 24  1  0
 23 25  1  0
 25 26  1  0
 25 27  2  0
 27 28  1  0
 27 29  1  0
 29 30  1  0
 29 31  2  0
 31 32  1  0
 20 33  1  0
 33 34  1  0
 34 35  1  0
 35 36  1  0
 15  6  1  0
 34 18  2  0
 31 22  1  0
M  CHG  2   2  -1  33  -1
M  END
>  <UniqueID>  (13) 
12

>  <SMILES>  (13) 
[NH-]S(=O)(=O)c1ccccc1/N=N/c1s/c(=N\c2ccccc2)[n-]c1O

>  <Energy>  (13) 
76.48995826192626

>  <Genealogy>  (13) 
[NH-]S(=O)(=O)c1ccccc1N=Nc1sc(=Nc2ccccc2)[n-]c1O (protonated)
[NH-]S(=O)(=O)c1ccccc1/N=N/c1s/c(=N\c2ccccc2)[n-]c1O (cis-trans isomerization)
[NH-]S(=O)(=O)c1ccccc1/N=N/c1s/c(=N\c2ccccc2)[n-]c1O (3D coordinates assigned)
[NH-]S(=O)(=O)c1ccccc1/N=N/c1s/c(=N\c2ccccc2)[n-]c1O (optimized conformer: 76.48995826192626 kcal/mol)

>  <smiles>  (13) 
NS(=O)(=O)c1ccccc1N=Nc1sc(=Nc2ccccc2)[nH]c1O

>  <score_type>  (13) 
oracle

>  <origin>  (13) 
adg

>  <m_score__min__energy>  (13) 
-13.99

>  <m_primary>  (13) 
energy

$$$$
13:0
     RDKit          3D

 37 39  0  0  0  0  0  0  0  0999 V2000
   59.2199   23.2076   44.4619 H   0  0  0  0  0  0  0  0  0  0  0  0
   58.1200   23.2230   44.4650 C   0  0  0  0  0  0  0  0  0  0  0  0
   57.4050   22.1860   43.8380 C   0  0  0  0  0  0  0  0  0  0  0  0
   57.9477   21.3680   43.3416 H   0  0  0  0  0  0  0  0  0  0  0  0
   56.0010   22.1920   43.8440 C   0  0  0  0  0  0  0  0  0  0  0  0
   55.4310   21.3780   43.3724 H   0  0  0  0  0  0  0  0  0  0  0  0
   55.3490   23.2560   44.4630 C   0  0  0  0  0  0  0  0  0  0  0  0
   56.0390   24.2900   45.0640 C   0  0  0  0  0  0  0  0  0  0  0  0
   57.4390   24.2780   45.0950 C   0  0  0  0  0  0  0  0  0  0  0  0
   57.9951   25.0796   45.6031 H   0  0  0  0  0  0  0  0  0  0  0  0
   55.1110   25.2610   45.6920 C   0  0  0  0  0  0  0  0  0  0  0  0
   55.5260   26.4330   46.4040 N   0  0  0  0  0  0  0  0  0  0  0  0
   56.6450   27.0650   46.2110 C   0  0  0  0  0  0  0  0  0  0  0  0
   56.6790   28.1060   45.3370 N   0  0  0  0  0  0  0  0  0  0  0  0
   57.8320   28.7830   45.0870 C   0  0  0  0  0  0  0  0  0  0  0  0
   57.8140   29.9580   44.1560 C   0  0  0  0  0  0  0  0  0  0  0  0
   57.7387   29.6009   43.1183 H   0  0  0  0  0  0  0  0  0  0  0  0
   58.7413   30.5362   44.2818 H   0  0  0  0  0  0  0  0  0  0  0  0
   56.6420   30.8300   44.4670 C   0  0  0  0  0  0  0  0  0  0  0  0
   55.4750   30.3570   44.4020 O   0  0  0  0  0  0  0  0  0  0  0  0
   56.8590   32.1510   44.8750 O   0  0  0  0  0  0  0  0  0  0  0  0
   57.9570   32.9400   44.4230 C   0  0  0  0  0  0  0  0  0  0  0  0
   57.7969   33.2132   43.3696 H   0  0  0  0  0  0  0  0  0  0  0  0
   58.8822   32.3541   44.5268 H   0  0  0  0  0  0  0  0  0  0  0  0
   58.0820   34.2100   45.2570 C   0  0  0  0  0  0  0  0  0  0  0  0
   58.0565   33.9508   46.3257 H   0  0  0  0  0  0  0  0  0  0  0  0
   59.0337   34.7098   45.0235 H   0  0  0  0  0  0  0  0  0  0  0  0
   57.2460   34.8857   45.0235 H   0  0  0  0  0  0  0  0  0  0  0  0
   59.0070   28.4120   45.7490 C   0  0  0  0  0  0  0  0  0  0  0  0
   59.9463   28.9577   45.5759 H   0  0  0  0  0  0  0  0  0  0  0  0
   58.9610   27.3340   46.6340 C   0  0  0  0  0  0  0  0  0  0  0  0
   60.0000   26.9670   47.2410 O   0  0  0  0  0  0  0  0  0  0  0  0
   57.7900   26.6810   46.8440 N   0  0  0  0  0  0  0  0  0  0  0  0
   53.8530   24.9440   45.6090 N   0  0  0  0  0  0  0  0  0  0  0  0
   53.6550   23.4820   44.7100 S   0  0  0  0  0  0  0  0  0  0  0  0
   53.0430   22.3950   45.5470 O   0  0  0  0  0  0  0  0  0  0  0  0
   52.9080   23.7150   43.4270 O   0  0  0  0  0  0  0  0  0  0  0  0
  1  2  1  0
  2  3  2  0
  3  4  1  0
  3  5  1  0
  5  6  1  0
  5  7  2  0
  7  8  1  0
  8  9  2  0
  9 10  1  0
  8 11  1  0
 11 12  1  0
 12 13  2  0
 13 14  1  0
 14 15  1  0
 15 16  1  0
 16 17  1  0
 16 18  1  0
 16 19  1  0
 19 20  2  0
 19 21  1  0
 21 22  1  0
 22 23  1  0
 22 24  1  0
 22 25  1  0
 25 26  1  0
 25 27  1  0
 25 28  1  0
 15 29  2  0
 29 30  1  0
 29 31  1  0
 31 32  2  0
 31 33  1  0
 11 34  2  0
 34 35  1  0
 35 36  2  0
 35 37  2  0
  9  2  1  0
 33 13  1  0
 35  7  1  0
M  CHG  2  14  -1  33  -1
M  END
>  <UniqueID>  (14) 
13

>  <SMILES>  (14) 
CCOC(=O)Cc1cc(=O)[n-]/c(=N\C2=NS(=O)(=O)c3ccccc32)[n-]1

>  <Energy>  (14) 
64.91277016864562

>  <Genealogy>  (14) 
CCOC(=O)Cc1cc(=O)[n-]c(=NC2=NS(=O)(=O)c3ccccc32)[n-]1 (protonated)
CCOC(=O)Cc1cc(=O)[n-]/c(=N\C2=NS(=O)(=O)c3ccccc32)[n-]1 (cis-trans isomerization)
CCOC(=O)Cc1cc(=O)[n-]/c(=N\C2=NS(=O)(=O)c3ccccc32)[n-]1 (3D coordinates assigned)
CCOC(=O)Cc1cc(=O)[n-]/c(=N\C2=NS(=O)(=O)c3ccccc32)[n-]1 (nonaromatic ring conformer: 64.91277016864562 kcal/mol)

>  <smiles>  (14) 
CCOC(=O)Cc1cc(=O)[nH]c(=NC2=NS(=O)(=O)c3ccccc32)[nH]1

>  <score_type>  (14) 
oracle

>  <origin>  (14) 
adg

>  <m_score__min__energy>  (14) 
-11.43

>  <m_primary>  (14) 
energy

$$$$
14:0
     RDKit          3D

 41 44  0  0  0  0  0  0  0  0999 V2000
   60.3350   29.5390   47.2780 C   0  0  0  0  0  0  0  0  0  0  0  0
   60.7390   29.6870   45.9480 C   0  0  0  0  0  0  0  0  0  0  0  0
   59.8990   29.2740   44.9100 C   0  0  0  0  0  0  0  0  0  0  0  0
   58.6440   28.7090   45.1970 C   0  0  0  0  0  0  0  0  0  0  0  0
   57.7030   28.3380   44.0810 C   0  0  0  0  0  0  0  0  0  0  0  0
   56.1810   29.3570   44.1090 S   0  0  0  0  0  0  0  0  0  0  0  0
   57.0100   30.8950   43.6940 C   0  0  0  0  0  0  0  0  0  0  0  0
   57.2900   31.2180   42.3940 N   0  0  0  0  0  0  0  0  0  0  0  0
   58.0320   32.3310   42.0830 C   0  0  0  0  0  0  0  0  0  0  0  0
   58.5130   33.1450   43.0720 N   0  0  0  0  0  0  0  0  0  0  0  0
   58.2030   32.8380   44.3540 C   0  0  0  0  0  0  0  0  0  0  0  0
   57.4650   31.7550   44.6860 C   0  0  0  0  0  0  0  0  0  0  0  0
   57.3890   31.6260   46.0230 N   0  0  0  0  0  0  0  0  0  0  0  0
   58.1160   32.6870   46.4690 C   0  0  0  0  0  0  0  0  0  0  0  0
   58.6250   33.4490   45.4670 N   0  0  0  0  0  0  0  0  0  0  0  0
   59.6000   34.5280   45.5870 C   0  0  0  0  0  0  0  0  0  0  0  0
   60.5750   34.2100   46.6860 C   0  0  0  0  0  0  0  0  0  0  0  0
   60.2350   34.4450   48.0280 C   0  0  0  0  0  0  0  0  0  0  0  0
   61.1630   34.1940   49.0440 C   0  0  0  0  0  0  0  0  0  0  0  0
   62.4380   33.7190   48.7270 C   0  0  0  0  0  0  0  0  0  0  0  0
   62.7910   33.4990   47.3920 C   0  0  0  0  0  0  0  0  0  0  0  0
   61.8650   33.7480   46.3730 C   0  0  0  0  0  0  0  0  0  0  0  0
   58.2480   28.5560   46.5360 C   0  0  0  0  0  0  0  0  0  0  0  0
   59.0930   28.9710   47.5710 C   0  0  0  0  0  0  0  0  0  0  0  0
   60.9949   29.8697   48.0935 H   0  0  0  0  0  0  0  0  0  0  0  0
   61.7196   30.1292   45.7179 H   0  0  0  0  0  0  0  0  0  0  0  0
   60.2210   29.3915   43.8648 H   0  0  0  0  0  0  0  0  0  0  0  0
   58.2146   28.4882   43.1189 H   0  0  0  0  0  0  0  0  0  0  0  0
   57.4127   27.2853   44.2137 H   0  0  0  0  0  0  0  0  0  0  0  0
   56.9640   30.5930   41.6240 H   0  0  0  0  0  0  0  0  0  0  0  0
   58.2414   32.5701   41.0299 H   0  0  0  0  0  0  0  0  0  0  0  0
   58.2753   32.9054   47.5353 H   0  0  0  0  0  0  0  0  0  0  0  0
   60.1431   34.6374   44.6367 H   0  0  0  0  0  0  0  0  0  0  0  0
   59.0774   35.4665   45.8240 H   0  0  0  0  0  0  0  0  0  0  0  0
   59.2353   34.8278   48.2812 H   0  0  0  0  0  0  0  0  0  0  0  0
   60.8884   34.3709   50.0944 H   0  0  0  0  0  0  0  0  0  0  0  0
   63.1646   33.5180   49.5280 H   0  0  0  0  0  0  0  0  0  0  0  0
   63.7969   33.1301   47.1428 H   0  0  0  0  0  0  0  0  0  0  0  0
   62.1477   33.5816   45.3230 H   0  0  0  0  0  0  0  0  0  0  0  0
   57.2710   28.1087   46.7714 H   0  0  0  0  0  0  0  0  0  0  0  0
   58.7785   28.8497   48.6181 H   0  0  0  0  0  0  0  0  0  0  0  0
  1  2  2  0
  2  3  1  0
  3  4  2  0
  4  5  1  0
  5  6  1  0
  6  7  1  0
  7  8  2  0
  8  9  1  0
  9 10  2  0
 10 11  1  0
 11 12  2  0
 12 13  1  0
 13 14  2  0
 14 15  1  0
 15 16  1  0
 16 17  1  0
 17 18  2  0
 18 19  1  0
 19 20  2  0
 20 21  1  0
 21 22  2  0
  4 23  1  0
 23 24  2  0
 24  1  1  0
 12  7  1  0
 22 17  1  0
 15 11  1  0
  1 25  1  0
  2 26  1  0
  3 27  1  0
  5 28  1  0
  5 29  1  0
  8 30  1  0
  9 31  1  0
 14 32  1  0
 16 33  1  0
 16 34  1  0
 18 35  1  0
 19 36  1  0
 20 37  1  0
 21 38  1  0
 22 39  1  0
 23 40  1  0
 24 41  1  0
M  CHG  1   8   1
M  END
>  <UniqueID>  (15) 
14

>  <SMILES>  (15) 
c1ccc(CSc2[nH+]cnc3c2ncn3Cc2ccccc2)cc1

>  <Energy>  (15) 
75.51164561203781

>  <Genealogy>  (15) 
c1ccc(CSc2[nH+]cnc3c2ncn3Cc2ccccc2)cc1 (protonated)
c1ccc(CSc2[nH+]cnc3c2ncn3Cc2ccccc2)cc1 (3D coordinates assigned)
c1ccc(CSc2[nH+]cnc3c2ncn3Cc2ccccc2)cc1 (optimized conformer: 75.51164561203781 kcal/mol)

>  <smiles>  (15) 
c1ccc(CSc2ncnc3c2ncn3Cc2ccccc2)cc1

>  <score_type>  (15) 
oracle

>  <origin>  (15) 
adg

>  <m_score__min__energy>  (15) 
-6.5499999999999998

>  <m_primary>  (15) 
energy

$$$$
15:0
     RDKit          3D

 60 64  0  0  1  0  0  0  0  0999 V2000
   63.0580   33.7090   50.8170 O   0  0  0  0  0  0  0  0  0  0  0  0
   63.8060   33.4580   49.8590 C   0  0  0  0  0  0  0  0  0  0  0  0
   65.1580   33.0600   50.0400 N   0  0  0  0  0  0  0  0  0  0  0  0
   65.8060   32.9070   51.3040 C   0  0  0  0  0  0  0  0  0  0  0  0
   66.1690   31.5060   51.6190 C   0  0  0  0  0  0  0  0  0  0  0  0
   65.1840   30.5420   51.6220 C   0  0  0  0  0  0  0  0  0  0  0  0
   65.4870   29.2350   51.9030 C   0  0  0  0  0  0  0  0  0  0  0  0
   66.7770   28.8440   52.1910 C   0  0  0  0  0  0  0  0  0  0  0  0
   67.1560   27.4410   52.5040 C   0  0  0  0  0  0  0  0  0  0  0  0
   67.8530   26.8330   51.3780 N   0  0  0  0  0  0  0  0  0  0  0  0
   68.8700   25.9600   51.5600 C   0  0  0  0  0  0  0  0  0  0  0  0
   69.2780   25.5970   50.2910 C   0  0  0  0  0  0  0  0  0  0  0  0
   68.5160   26.2460   49.3710 N   0  0  0  0  0  0  0  0  0  0  0  0
   67.6590   26.9900   50.0700 C   0  0  0  0  0  0  0  0  0  0  0  0
   67.7890   29.7880   52.1970 C   0  0  0  0  0  0  0  0  0  0  0  0
   67.4500   31.0920   51.9100 C   0  0  0  0  0  0  0  0  0  0  0  0
   63.2510   33.5840   48.4950 C   0  0  0  0  0  0  0  0  0  0  0  0
   61.9440   33.9410   48.1550 C   0  0  0  0  0  0  0  0  0  0  0  0
   61.8930   33.9200   46.7780 C   0  0  0  0  0  0  0  0  0  0  0  0
   60.9180   34.1720   45.9780 N   0  0  0  0  0  0  0  0  0  0  0  0
   59.5450   34.0460   46.4210 C   0  0  0  0  0  0  0  0  0  0  0  0
   59.1250   34.9650   47.1400 O   0  0  0  0  0  0  0  0  0  0  0  0
   58.8390   32.8730   45.9700 C   0  0  0  0  0  0  0  0  0  0  0  0
   58.1000   33.0020   44.7880 C   0  0  0  0  0  0  0  0  0  0  0  0
   57.4130   31.9290   44.2450 C   0  0  0  0  0  0  0  0  0  0  0  0
   57.4400   30.6950   44.8640 C   0  0  0  0  0  0  0  0  0  0  0  0
   58.1640   30.5810   46.0180 C   0  0  0  0  0  0  0  0  0  0  0  0
   58.8630   31.6470   46.5820 C   0  0  0  0  0  0  0  0  0  0  0  0
   59.5540   31.3820   47.8250 C   0  0  0  0  0  0  0  0  0  0  0  0
   59.1050   31.7400   49.0700 C   0  0  0  0  0  0  0  0  0  0  0  0
   59.8220   31.4800   50.2350 C   0  0  0  0  0  0  0  0  0  0  0  0
   61.0270   30.8440   50.1860 C   0  0  0  0  0  0  0  0  0  0  0  0
   61.5060   30.4710   48.9510 C   0  0  0  0  0  0  0  0  0  0  0  0
   60.7930   30.7300   47.7870 C   0  0  0  0  0  0  0  0  0  0  0  0
   63.1190   33.5640   46.3000 N   0  0  0  0  0  0  0  0  0  0  0  0
   63.9070   33.3700   47.3420 N   0  0  0  0  0  0  0  0  0  0  0  0
   65.6970   32.8690   49.1410 H   0  0  0  0  0  0  0  0  0  0  0  0
   66.7250   33.5115   51.2990 H   0  0  0  0  0  0  0  0  0  0  0  0
   65.0926   33.2361   52.0739 H   0  0  0  0  0  0  0  0  0  0  0  0
   64.1449   30.8241   51.3968 H   0  0  0  0  0  0  0  0  0  0  0  0
   64.6843   28.4829   51.8986 H   0  0  0  0  0  0  0  0  0  0  0  0
   67.8157   27.4328   53.3842 H   0  0  0  0  0  0  0  0  0  0  0  0
   66.2416   26.8643   52.7074 H   0  0  0  0  0  0  0  0  0  0  0  0
   69.2851   25.6121   52.5174 H   0  0  0  0  0  0  0  0  0  0  0  0
   70.0916   24.8933   50.0611 H   0  0  0  0  0  0  0  0  0  0  0  0
   66.8948   27.6451   49.6263 H   0  0  0  0  0  0  0  0  0  0  0  0
   68.8281   29.5068   52.4231 H   0  0  0  0  0  0  0  0  0  0  0  0
   68.2497   31.8473   51.9134 H   0  0  0  0  0  0  0  0  0  0  0  0
   61.1237   34.1882   48.8449 H   0  0  0  0  0  0  0  0  0  0  0  0
   58.0642   33.9767   44.2795 H   0  0  0  0  0  0  0  0  0  0  0  0
   56.8419   32.0607   43.3142 H   0  0  0  0  0  0  0  0  0  0  0  0
   56.8985   29.8347   44.4437 H   0  0  0  0  0  0  0  0  0  0  0  0
   58.1964   29.6048   46.5239 H   0  0  0  0  0  0  0  0  0  0  0  0
   58.1364   32.2549   49.1521 H   0  0  0  0  0  0  0  0  0  0  0  0
   59.4112   31.7915   51.2067 H   0  0  0  0  0  0  0  0  0  0  0  0
   61.5974   30.6359   51.1032 H   0  0  0  0  0  0  0  0  0  0  0  0
   62.4757   29.9560   48.8839 H   0  0  0  0  0  0  0  0  0  0  0  0
   61.2092   30.4173   46.8180 H   0  0  0  0  0  0  0  0  0  0  0  0
   63.4270   33.4550   45.3110 H   0  0  0  0  0  0  0  0  0  0  0  0
   64.9070   33.0890   47.2930 H   0  0  0  0  0  0  0  0  0  0  0  0
  1  2  2  0
  2  3  1  0
  3  4  1  0
  4  5  1  0
  5  6  2  0
  6  7  1  0
  7  8  2  0
  8  9  1  0
  9 10  1  0
 10 11  1  0
 11 12  2  0
 12 13  1  0
 13 14  2  0
  8 15  1  0
 15 16  2  0
  2 17  1  0
 17 18  2  0
 18 19  1  0
 19 20  2  0
 20 21  1  0
 21 22  2  0
 21 23  1  0
 23 24  2  0
 24 25  1  0
 25 26  2  0
 26 27  1  0
 27 28  2  0
 28 29  1  0
 29 30  2  0
 30 31  1  0
 31 32  2  0
 32 33  1  0
 33 34  2  0
 19 35  1  0
 35 36  1  0
 16  5  1  0
 36 17  1  0
 14 10  1  0
 28 23  1  0
 34 29  1  0
  3 37  1  0
  4 38  1  0
  4 39  1  0
  6 40  1  0
  7 41  1  0
  9 42  1  0
  9 43  1  0
 11 44  1  0
 12 45  1  0
 14 46  1  0
 15 47  1  0
 16 48  1  0
 18 49  1  0
 24 50  1  0
 25 51  1  0
 26 52  1  0
 27 53  1  0
 30 54  1  0
 31 55  1  0
 32 56  1  0
 33 57  1  0
 34 58  1  0
 35 59  1  0
 36 60  1  0
M  END
>  <smiles>  (16) 
O=C(NCc1ccc(Cn2ccnc2)cc1)c1cc(=NC(=O)c2ccccc2-c2ccccc2)[nH][nH]1

>  <score_type>  (16) 
oracle

>  <origin>  (16) 
adg

>  <m_score__min__energy>  (16) 
-9.7400000000000002

>  <m_primary>  (16) 
energy

$$$$
16:0
     RDKit          3D

 30 31  0  0  0  0  0  0  0  0999 V2000
   60.5131   30.6566   48.1014 H   0  0  0  0  0  0  0  0  0  0  0  0
   59.8000   30.9750   48.8760 C   0  0  0  0  0  0  0  0  0  0  0  0
   59.0140   30.0940   49.5510 N   0  0  0  0  0  0  0  0  0  0  0  0
   58.2280   30.7240   50.4500 C   0  0  0  0  0  0  0  0  0  0  0  0
   57.3750   30.1270   51.2270 N   0  0  0  0  0  0  0  0  0  0  0  0
   56.5710   30.7440   52.2460 C   0  0  0  0  0  0  0  0  0  0  0  0
   56.6520   31.9840   52.4630 O   0  0  0  0  0  0  0  0  0  0  0  0
   55.6540   29.9520   53.0220 N   0  0  0  0  0  0  0  0  0  0  0  0
   55.7540   29.9860   54.3810 O   0  0  0  0  0  0  0  0  0  0  0  0
   56.5090   28.8660   54.7750 C   0  0  0  0  0  0  0  0  0  0  0  0
   56.5434   28.8149   55.8733 H   0  0  0  0  0  0  0  0  0  0  0  0
   56.0422   27.9517   54.3799 H   0  0  0  0  0  0  0  0  0  0  0  0
   57.5317   28.9557   54.3799 H   0  0  0  0  0  0  0  0  0  0  0  0
   54.4560   29.3520   52.4170 C   0  0  0  0  0  0  0  0  0  0  0  0
   54.7081   28.9910   51.4090 H   0  0  0  0  0  0  0  0  0  0  0  0
   54.1245   28.5235   53.0602 H   0  0  0  0  0  0  0  0  0  0  0  0
   53.3260   30.3490   52.3120 C   0  0  0  0  0  0  0  0  0  0  0  0
   53.1370   31.0840   51.1270 C   0  0  0  0  0  0  0  0  0  0  0  0
   53.8221   30.9401   50.2785 H   0  0  0  0  0  0  0  0  0  0  0  0
   52.0830   31.9960   51.0230 C   0  0  0  0  0  0  0  0  0  0  0  0
   51.9369   32.5622   50.0913 H   0  0  0  0  0  0  0  0  0  0  0  0
   51.2140   32.1900   52.1010 C   0  0  0  0  0  0  0  0  0  0  0  0
   50.1670   33.0960   51.9950 O   0  0  0  0  0  0  0  0  0  0  0  0
   51.4020   31.4710   53.2850 C   0  0  0  0  0  0  0  0  0  0  0  0
   50.7207   31.6254   54.1347 H   0  0  0  0  0  0  0  0  0  0  0  0
   52.4540   30.5560   53.3920 C   0  0  0  0  0  0  0  0  0  0  0  0
   52.5988   29.9956   54.3274 H   0  0  0  0  0  0  0  0  0  0  0  0
   58.4670   32.3840   50.4460 S   0  0  0  0  0  0  0  0  0  0  0  0
   59.6360   32.3080   49.2370 C   0  0  0  0  0  0  0  0  0  0  0  0
   60.1764   33.1642   48.8071 H   0  0  0  0  0  0  0  0  0  0  0  0
  1  2  1  0
  2  3  1  0
  3  4  1  0
  4  5  2  0
  5  6  1  0
  6  7  2  0
  6  8  1  0
  8  9  1  0
  9 10  1  0
 10 11  1  0
 10 12  1  0
 10 13  1  0
  8 14  1  0
 14 15  1  0
 14 16  1  0
 14 17  1  0
 17 18  2  0
 18 19  1  0
 18 20  1  0
 20 21  1  0
 20 22  2  0
 22 23  1  0
 22 24  1  0
 24 25  1  0
 24 26  2  0
 26 27  1  0
  4 28  1  0
 28 29  1  0
 29 30  1  0
 29  2  2  0
 26 17  1  0
M  CHG  2   3  -1  23  -1
M  END
>  <UniqueID>  (17) 
15

>  <SMILES>  (17) 
CON(Cc1ccc([O-])cc1)C(=O)/N=c1\[n-]ccs1

>  <Energy>  (17) 
59.09496118762061

>  <Genealogy>  (17) 
CON(Cc1ccc([O-])cc1)C(=O)N=c1[n-]ccs1 (protonated)
CON(Cc1ccc([O-])cc1)C(=O)/N=c1\[n-]ccs1 (cis-trans isomerization)
CON(Cc1ccc([O-])cc1)C(=O)/N=c1\[n-]ccs1 (3D coordinates assigned)
CON(Cc1ccc([O-])cc1)C(=O)/N=c1\[n-]ccs1 (optimized conformer: 59.09496118762061 kcal/mol)

>  <smiles>  (17) 
CON(Cc1ccc(O)cc1)C(=O)N=c1[nH]ccs1

>  <score_type>  (17) 
oracle

>  <origin>  (17) 
adg

>  <m_score__min__energy>  (17) 
-10.34

>  <m_primary>  (17) 
energy

$$$$
17:0
     RDKit          3D

 14 14  0  0  0  0  0  0  0  0999 V2000
   54.0280   29.7940   51.9580 C   0  0  0  0  0  0  0  0  0  0  0  0
   52.8160   30.6680   51.8280 C   0  0  0  0  0  0  0  0  0  0  0  0
   52.2250   31.2230   52.9690 C   0  0  0  0  0  0  0  0  0  0  0  0
   51.1210   32.0600   52.8090 C   0  0  0  0  0  0  0  0  0  0  0  0
   50.5610   32.5690   53.8150 O   0  0  0  0  0  0  0  0  0  0  0  0
   50.6500   32.3290   51.5650 N   0  0  0  0  0  0  0  0  0  0  0  0
   51.2400   31.7970   50.4630 C   0  0  0  0  0  0  0  0  0  0  0  0
   50.6460   32.1530   48.9810 S   0  0  0  0  0  0  0  0  0  0  0  0
   52.3210   30.9770   50.5950 N   0  0  0  0  0  0  0  0  0  0  0  0
   54.2514   29.6329   53.0230 H   0  0  0  0  0  0  0  0  0  0  0  0
   53.8354   28.8256   51.4732 H   0  0  0  0  0  0  0  0  0  0  0  0
   54.8861   30.2825   51.4732 H   0  0  0  0  0  0  0  0  0  0  0  0
   52.6229   31.0036   53.9708 H   0  0  0  0  0  0  0  0  0  0  0  0
   52.7750   30.5790   49.7420 H   0  0  0  0  0  0  0  0  0  0  0  0
  1  2  1  0
  2  3  2  0
  3  4  1  0
  4  5  2  0
  4  6  1  0
  6  7  1  0
  7  8  2  0
  7  9  1  0
  9  2  1  0
  1 10  1  0
  1 11  1  0
  1 12  1  0
  3 13  1  0
  9 14  1  0
M  CHG  1   6  -1
M  END
>  <UniqueID>  (18) 
16

>  <SMILES>  (18) 
Cc1cc(=O)[n-]c(=S)[nH]1

>  <Energy>  (18) 
12.330721955610228

>  <Genealogy>  (18) 
Cc1cc(=O)[n-]c(=S)[nH]1 (protonated)
Cc1cc(=O)[n-]c(=S)[nH]1 (3D coordinates assigned)
Cc1cc(=O)[n-]c(=S)[nH]1 (optimized conformer: 12.330721955610228 kcal/mol)

>  <smiles>  (18) 
Cc1cc(=O)[nH]c(=S)[nH]1

>  <score_type>  (18) 
oracle

>  <origin>  (18) 
adg

>  <m_score__min__energy>  (18) 
-6.5599999999999996

>  <m_primary>  (18) 
energy

$$$$
18:0
     RDKit          3D

 46 48  0  0  0  0  0  0  0  0999 V2000
   50.2940   30.3840   53.1240 C   0  0  0  0  0  0  0  0  0  0  0  0
   51.2790   31.5560   53.0460 C   0  0  2  0  0  0  0  0  0  0  0  0
   50.8630   32.5620   52.0070 C   0  0  0  0  0  0  0  0  0  0  0  0
   50.9940   32.2930   50.7850 O   0  0  0  0  0  0  0  0  0  0  0  0
   50.2830   33.7710   52.3800 O   0  0  0  0  0  0  0  0  0  0  0  0
   52.6900   31.0700   52.7810 C   0  0  0  0  0  0  0  0  0  0  0  0
   53.4460   30.4490   53.7920 C   0  0  0  0  0  0  0  0  0  0  0  0
   54.7480   30.0090   53.5340 C   0  0  0  0  0  0  0  0  0  0  0  0
   55.3200   30.1790   52.2690 C   0  0  0  0  0  0  0  0  0  0  0  0
   56.6310   29.7170   52.0670 O   0  0  0  0  0  0  0  0  0  0  0  0
   57.8190   30.3750   52.5160 C   0  0  2  0  0  0  0  0  0  0  0  0
   57.4970   31.7870   53.0110 C   0  0  0  0  0  0  0  0  0  0  0  0
   57.7430   32.7070   51.8240 C   0  0  0  0  0  0  0  0  0  0  0  0
   58.5860   31.9540   50.9080 N   0  0  0  0  0  0  0  0  0  0  0  0
   59.1890   32.5210   49.7200 C   0  0  0  0  0  0  0  0  0  0  0  0
   58.4280   32.7030   48.5510 C   0  0  0  0  0  0  0  0  0  0  0  0
   59.0210   33.2600   47.4200 C   0  0  0  0  0  0  0  0  0  0  0  0
   60.3640   33.6250   47.4480 C   0  0  0  0  0  0  0  0  0  0  0  0
   61.1150   33.4140   48.6130 C   0  0  0  0  0  0  0  0  0  0  0  0
   62.5580   33.8500   48.6770 C   0  0  0  0  0  0  0  0  0  0  0  0
   62.7050   34.9470   49.5080 F   0  0  0  0  0  0  0  0  0  0  0  0
   63.0130   34.1970   47.4170 F   0  0  0  0  0  0  0  0  0  0  0  0
   63.3260   32.8080   49.1630 F   0  0  0  0  0  0  0  0  0  0  0  0
   60.5070   32.8910   49.7200 N   0  0  0  0  0  0  0  0  0  0  0  0
   58.7640   30.5740   51.3340 C   0  0  0  0  0  0  0  0  0  0  0  0
   54.5700   30.8030   51.2560 C   0  0  0  0  0  0  0  0  0  0  0  0
   53.2670   31.2430   51.5110 C   0  0  0  0  0  0  0  0  0  0  0  0
   50.0923   30.1441   54.1784 H   0  0  0  0  0  0  0  0  0  0  0  0
   49.3539   30.6613   52.6248 H   0  0  0  0  0  0  0  0  0  0  0  0
   50.7290   29.5056   52.6248 H   0  0  0  0  0  0  0  0  0  0  0  0
   51.2647   32.0570   54.0252 H   0  0  0  0  0  0  0  0  0  0  0  0
   53.0100   30.3086   54.7921 H   0  0  0  0  0  0  0  0  0  0  0  0
   55.3278   29.5246   54.3335 H   0  0  0  0  0  0  0  0  0  0  0  0
   58.2585   29.7572   53.3130 H   0  0  0  0  0  0  0  0  0  0  0  0
   56.4473   31.8500   53.3337 H   0  0  0  0  0  0  0  0  0  0  0  0
   58.1181   32.0652   53.8752 H   0  0  0  0  0  0  0  0  0  0  0  0
   56.7911   32.9707   51.3398 H   0  0  0  0  0  0  0  0  0  0  0  0
   58.2205   33.6485   52.1332 H   0  0  0  0  0  0  0  0  0  0  0  0
   57.3689   32.4067   48.5299 H   0  0  0  0  0  0  0  0  0  0  0  0
   58.4284   33.4112   46.5057 H   0  0  0  0  0  0  0  0  0  0  0  0
   60.8333   34.0763   46.5614 H   0  0  0  0  0  0  0  0  0  0  0  0
   61.0700   32.7850   50.5920 H   0  0  0  0  0  0  0  0  0  0  0  0
   58.5046   29.8849   50.5167 H   0  0  0  0  0  0  0  0  0  0  0  0
   59.8081   30.3693   51.6132 H   0  0  0  0  0  0  0  0  0  0  0  0
   55.0103   30.9457   50.2581 H   0  0  0  0  0  0  0  0  0  0  0  0
   52.6889   31.7285   50.7109 H   0  0  0  0  0  0  0  0  0  0  0  0
  1  2  1  0
  2  3  1  0
  3  4  2  0
  3  5  1  0
  2  6  1  0
  6  7  2  0
  7  8  1  0
  8  9  2  0
  9 10  1  0
 10 11  1  0
 11 12  1  0
 12 13  1  0
 13 14  1  0
 14 15  1  0
 15 16  2  0
 16 17  1  0
 17 18  2  0
 18 19  1  0
 19 20  1  0
 20 21  1  0
 20 22  1  0
 20 23  1  0
 19 24  2  0
 14 25  1  0
  9 26  1  0
 26 27  2  0
 27  6  1  0
 25 11  1  0
 24 15  1  0
  1 28  1  0
  1 29  1  0
  1 30  1  0
  2 31  1  1
  7 32  1  0
  8 33  1  0
 11 34  1  1
 12 35  1  0
 12 36  1  0
 13 37  1  0
 13 38  1  0
 16 39  1  0
 17 40  1  0
 18 41  1  0
 24 42  1  0
 25 43  1  0
 25 44  1  0
 26 45  1  0
 27 46  1  0
M  CHG  2   5  -1  24   1
M  END
>  <UniqueID>  (19) 
17

>  <SMILES>  (19) 
C[C@H](C(=O)[O-])c1ccc(O[C@@H]2CCN(c3cccc(C(F)(F)F)[nH+]3)C2)cc1

>  <Energy>  (19) 
48.33942027306683

>  <Genealogy>  (19) 
CC(C(=O)[O-])c1ccc(OC2CCN(c3cccc(C(F)(F)F)[nH+]3)C2)cc1 (protonated)
C[C@H](C(=O)[O-])c1ccc(O[C@@H]2CCN(c3cccc(C(F)(F)F)[nH+]3)C2)cc1 (chirality)
C[C@H](C(=O)[O-])c1ccc(O[C@@H]2CCN(c3cccc(C(F)(F)F)[nH+]3)C2)cc1 (3D coordinates assigned)
C[C@H](C(=O)[O-])c1ccc(O[C@@H]2CCN(c3cccc(C(F)(F)F)[nH+]3)C2)cc1 (nonaromatic ring conformer: 48.33942027306683 kcal/mol)

>  <smiles>  (19) 
CC(C(=O)O)c1ccc(OC2CCN(c3cccc(C(F)(F)F)n3)C2)cc1

>  <score_type>  (19) 
oracle

>  <origin>  (19) 
adg

>  <m_score__min__energy>  (19) 
-9.9299999999999997

>  <m_primary>  (19) 
energy

$$$$
19:0
     RDKit          3D

 50 53  0  0  0  0  0  0  0  0999 V2000
   64.9140   32.7860   53.7640 C   0  0  0  0  0  0  0  0  0  0  0  0
   66.1580   32.0100   53.3450 C   0  0  0  0  0  0  0  0  0  0  0  0
   65.9130   31.2650   52.1520 O   0  0  0  0  0  0  0  0  0  0  0  0
   65.0640   31.6470   51.0970 C   0  0  0  0  0  0  0  0  0  0  0  0
   63.9000   30.9180   50.7850 C   0  0  0  0  0  0  0  0  0  0  0  0
   63.0570   31.3280   49.7530 C   0  0  0  0  0  0  0  0  0  0  0  0
   63.3470   32.4780   49.0090 C   0  0  0  0  0  0  0  0  0  0  0  0
   62.4350   32.8960   47.9170 C   0  0  0  0  0  0  0  0  0  0  0  0
   62.9180   33.1230   46.7750 O   0  0  0  0  0  0  0  0  0  0  0  0
   61.0210   33.0500   48.1450 N   0  0  0  0  0  0  0  0  0  0  0  0
   60.0750   33.3820   47.1130 C   0  0  0  0  0  0  0  0  0  0  0  0
   59.9380   34.6970   46.6410 C   0  0  0  0  0  0  0  0  0  0  0  0
   59.0290   34.9870   45.6220 C   0  0  0  0  0  0  0  0  0  0  0  0
   58.2610   33.9700   45.0520 C   0  0  0  0  0  0  0  0  0  0  0  0
   58.4010   32.6410   45.4920 C   0  0  0  0  0  0  0  0  0  0  0  0
   57.5960   31.5560   44.8830 C   0  0  0  0  0  0  0  0  0  0  0  0
   56.3480   31.6890   44.7670 O   0  0  0  0  0  0  0  0  0  0  0  0
   58.2290   30.3350   44.4750 N   0  0  0  0  0  0  0  0  0  0  0  0
   57.9980   29.0260   45.0150 C   0  0  0  0  0  0  0  0  0  0  0  0
   59.1180   28.2030   45.2900 C   0  0  0  0  0  0  0  0  0  0  0  0
   58.9470   26.9020   45.8000 C   0  0  0  0  0  0  0  0  0  0  0  0
   57.6460   26.4540   46.0080 C   0  0  0  0  0  0  0  0  0  0  0  0
   57.2560   25.2580   46.4710 N   0  0  0  0  0  0  0  0  0  0  0  0
   55.9040   25.3740   46.4470 C   0  0  0  0  0  0  0  0  0  0  0  0
   55.1420   24.4410   46.8150 O   0  0  0  0  0  0  0  0  0  0  0  0
   55.4320   26.5630   45.9980 N   0  0  0  0  0  0  0  0  0  0  0  0
   56.5640   27.2300   45.7280 C   0  0  0  0  0  0  0  0  0  0  0  0
   56.6910   28.5220   45.2230 C   0  0  0  0  0  0  0  0  0  0  0  0
   59.3200   32.3580   46.5200 C   0  0  0  0  0  0  0  0  0  0  0  0
   64.5180   33.1960   49.2980 C   0  0  0  0  0  0  0  0  0  0  0  0
   65.3860   32.7920   50.3320 C   0  0  0  0  0  0  0  0  0  0  0  0
   66.5840   33.5530   50.5930 N   0  0  0  0  0  0  0  0  0  0  0  0
   66.5360   34.5930   51.2830 O   0  0  0  0  0  0  0  0  0  0  0  0
   67.7920   33.1910   50.0400 O   0  0  0  0  0  0  0  0  0  0  0  0
   64.8567   32.8218   54.8619 H   0  0  0  0  0  0  0  0  0  0  0  0
   64.9693   33.8100   53.3662 H   0  0  0  0  0  0  0  0  0  0  0  0
   64.0186   32.2860   53.3662 H   0  0  0  0  0  0  0  0  0  0  0  0
   66.9810   32.7175   53.1657 H   0  0  0  0  0  0  0  0  0  0  0  0
   66.4240   31.3091   54.1500 H   0  0  0  0  0  0  0  0  0  0  0  0
   63.6532   30.0147   51.3622 H   0  0  0  0  0  0  0  0  0  0  0  0
   62.1553   30.7423   49.5211 H   0  0  0  0  0  0  0  0  0  0  0  0
   60.6510   32.9680   49.1170 H   0  0  0  0  0  0  0  0  0  0  0  0
   60.5491   35.5017   47.0757 H   0  0  0  0  0  0  0  0  0  0  0  0
   58.9173   36.0219   45.2664 H   0  0  0  0  0  0  0  0  0  0  0  0
   57.5423   34.2091   44.2543 H   0  0  0  0  0  0  0  0  0  0  0  0
   60.1325   28.5848   45.1029 H   0  0  0  0  0  0  0  0  0  0  0  0
   59.8122   26.2615   46.0263 H   0  0  0  0  0  0  0  0  0  0  0  0
   55.8045   29.1313   44.9931 H   0  0  0  0  0  0  0  0  0  0  0  0
   59.4482   31.3208   46.8631 H   0  0  0  0  0  0  0  0  0  0  0  0
   64.7626   34.0905   48.7064 H   0  0  0  0  0  0  0  0  0  0  0  0
  1  2  1  0
  2  3  1  0
  3  4  1  0
  4  5  2  0
  5  6  1  0
  6  7  2  0
  7  8  1  0
  8  9  2  0
  8 10  1  0
 10 11  1  0
 11 12  2  0
 12 13  1  0
 13 14  2  0
 14 15  1  0
 15 16  1  0
 16 17  2  0
 16 18  1  0
 18 19  1  0
 19 20  2  0
 20 21  1  0
 21 22  2  0
 22 23  1  0
 23 24  1  0
 24 25  2  0
 24 26  1  0
 26 27  1  0
 27 28  2  0
 15 29  2  0
  7 30  1  0
 30 31  2  0
 31 32  1  0
 32 33  2  0
 32 34  1  0
 31  4  1  0
 29 11  1  0
 28 19  1  0
 27 22  1  0
  1 35  1  0
  1 36  1  0
  1 37  1  0
  2 38  1  0
  2 39  1  0
  5 40  1  0
  6 41  1  0
 10 42  1  0
 12 43  1  0
 13 44  1  0
 14 45  1  0
 20 46  1  0
 21 47  1  0
 28 48  1  0
 29 49  1  0
 30 50  1  0
M  CHG  5  18  -1  23  -1  26  -1  32   1  34  -1
M  END
>  <UniqueID>  (20) 
18

>  <SMILES>  (20) 
CCOc1ccc(C(=O)Nc2cccc(C(=O)[N-]c3ccc4[n-]c(=O)[n-]c4c3)c2)cc1[N+](=O)[O-]

>  <Energy>  (20) 
102.92942029336943

>  <Genealogy>  (20) 
CCOc1ccc(C(=O)Nc2cccc(C(=O)[N-]c3ccc4[n-]c(=O)[n-]c4c3)c2)cc1[N+](=O)[O-] (protonated)
CCOc1ccc(C(=O)Nc2cccc(C(=O)[N-]c3ccc4[n-]c(=O)[n-]c4c3)c2)cc1[N+](=O)[O-] (3D coordinates assigned)
CCOc1ccc(C(=O)Nc2cccc(C(=O)[N-]c3ccc4[n-]c(=O)[n-]c4c3)c2)cc1[N+](=O)[O-] (optimized conformer: 102.92942029336943 kcal/mol)

>  <smiles>  (20) 
CCOc1ccc(C(=O)Nc2cccc(C(=O)Nc3ccc4[nH]c(=O)[nH]c4c3)c2)cc1[N+](=O)[O-]

>  <score_type>  (20) 
oracle

>  <origin>  (20) 
adg

>  <m_score__min__energy>  (20) 
-14.220000000000001

>  <m_primary>  (20) 
energy

$$$$
20:0
     RDKit          3D

 45 47  0  0  0  0  0  0  0  0999 V2000
   66.3130   31.0430   51.4430 F   0  0  0  0  0  0  0  0  0  0  0  0
   65.3000   31.5760   50.7190 C   0  0  0  0  0  0  0  0  0  0  0  0
   65.5510   32.6220   49.8290 C   0  0  0  0  0  0  0  0  0  0  0  0
   64.5070   33.1750   49.0820 C   0  0  0  0  0  0  0  0  0  0  0  0
   63.1950   32.6830   49.2170 C   0  0  0  0  0  0  0  0  0  0  0  0
   62.0960   33.2730   48.4150 C   0  0  0  0  0  0  0  0  0  0  0  0
   62.1750   33.3140   47.0140 C   0  0  0  0  0  0  0  0  0  0  0  0
   61.1400   33.8780   46.2610 C   0  0  0  0  0  0  0  0  0  0  0  0
   60.0120   34.4130   46.8920 C   0  0  0  0  0  0  0  0  0  0  0  0
   59.0010   34.9650   46.0930 O   0  0  0  0  0  0  0  0  0  0  0  0
   57.8150   34.2770   45.7020 C   0  0  0  0  0  0  0  0  0  0  0  0
   58.1720   33.0510   44.8610 C   0  0  0  0  0  0  0  0  0  0  0  0
   58.2860   31.7820   45.7340 C   0  0  0  0  0  0  0  0  0  0  0  0
   57.3200   30.7140   45.3940 N   0  0  0  0  0  0  0  0  0  0  0  0
   57.8830   29.3550   45.4330 C   0  0  0  0  0  0  0  0  0  0  0  0
   56.7430   28.3210   45.2970 C   0  0  0  0  0  0  0  0  0  0  0  0
   55.5210   28.9040   44.8720 O   0  0  0  0  0  0  0  0  0  0  0  0
   55.7440   29.7320   43.7470 C   0  0  0  0  0  0  0  0  0  0  0  0
   56.5870   30.9620   44.1370 C   0  0  0  0  0  0  0  0  0  0  0  0
   59.9310   34.3780   48.2970 C   0  0  0  0  0  0  0  0  0  0  0  0
   60.9650   33.8160   49.0500 C   0  0  0  0  0  0  0  0  0  0  0  0
   62.9490   31.6310   50.1240 C   0  0  0  0  0  0  0  0  0  0  0  0
   61.6920   31.1580   50.3180 F   0  0  0  0  0  0  0  0  0  0  0  0
   64.0000   31.0840   50.8680 C   0  0  0  0  0  0  0  0  0  0  0  0
   66.5732   33.0120   49.7153 H   0  0  0  0  0  0  0  0  0  0  0  0
   64.7120   34.0001   48.3840 H   0  0  0  0  0  0  0  0  0  0  0  0
   63.0574   32.8995   46.5046 H   0  0  0  0  0  0  0  0  0  0  0  0
   61.2136   33.9010   45.1637 H   0  0  0  0  0  0  0  0  0  0  0  0
   57.2681   33.9552   46.6005 H   0  0  0  0  0  0  0  0  0  0  0  0
   57.1869   34.9535   45.1038 H   0  0  0  0  0  0  0  0  0  0  0  0
   57.3887   32.8957   44.1044 H   0  0  0  0  0  0  0  0  0  0  0  0
   59.1463   33.2310   44.3832 H   0  0  0  0  0  0  0  0  0  0  0  0
   59.3017   31.3759   45.6187 H   0  0  0  0  0  0  0  0  0  0  0  0
   58.0605   32.0908   46.7654 H   0  0  0  0  0  0  0  0  0  0  0  0
   58.5936   29.2286   44.6029 H   0  0  0  0  0  0  0  0  0  0  0  0
   58.4049   29.2017   46.3891 H   0  0  0  0  0  0  0  0  0  0  0  0
   57.0441   27.5602   44.5618 H   0  0  0  0  0  0  0  0  0  0  0  0
   56.5730   27.8821   46.2912 H   0  0  0  0  0  0  0  0  0  0  0  0
   56.2780   29.1577   42.9756 H   0  0  0  0  0  0  0  0  0  0  0  0
   54.7727   30.0756   43.3616 H   0  0  0  0  0  0  0  0  0  0  0  0
   57.3083   31.1748   43.3342 H   0  0  0  0  0  0  0  0  0  0  0  0
   55.9145   31.8202   44.2828 H   0  0  0  0  0  0  0  0  0  0  0  0
   59.0489   34.7953   48.8047 H   0  0  0  0  0  0  0  0  0  0  0  0
   60.8938   33.7982   50.1475 H   0  0  0  0  0  0  0  0  0  0  0  0
   63.8026   30.2632   51.5733 H   0  0  0  0  0  0  0  0  0  0  0  0
  1  2  1  0
  2  3  2  0
  3  4  1  0
  4  5  2  0
  5  6  1  0
  6  7  2  0
  7  8  1  0
  8  9  2  0
  9 10  1  0
 10 11  1  0
 11 12  1  0
 12 13  1  0
 13 14  1  0
 14 15  1  0
 15 16  1  0
 16 17  1  0
 17 18  1  0
 18 19  1  0
  9 20  1  0
 20 21  2  0
  5 22  1  0
 22 23  1  0
 22 24  2  0
 24  2  1  0
 21  6  1  0
 19 14  1  0
  3 25  1  0
  4 26  1  0
  7 27  1  0
  8 28  1  0
 11 29  1  0
 11 30  1  0
 12 31  1  0
 12 32  1  0
 13 33  1  0
 13 34  1  0
 15 35  1  0
 15 36  1  0
 16 37  1  0
 16 38  1  0
 18 39  1  0
 18 40  1  0
 19 41  1  0
 19 42  1  0
 20 43  1  0
 21 44  1  0
 24 45  1  0
M  END
>  <UniqueID>  (21) 
19

>  <SMILES>  (21) 
Fc1ccc(-c2ccc(OCCCN3CCOCC3)cc2)c(F)c1

>  <Energy>  (21) 
61.41511216789406

>  <Genealogy>  (21) 
Fc1ccc(-c2ccc(OCCCN3CCOCC3)cc2)c(F)c1 (3D coordinates assigned)
Fc1ccc(-c2ccc(OCCCN3CCOCC3)cc2)c(F)c1 (nonaromatic ring conformer: 61.41511216789406 kcal/mol)

>  <smiles>  (21) 
Fc1ccc(-c2ccc(OCCCN3CCOCC3)cc2)c(F)c1

>  <score_type>  (21) 
oracle

>  <origin>  (21) 
adg

>  <m_score__min__energy>  (21) 
-7.8600000000000003

>  <m_primary>  (21) 
energy

$$$$
21:0
     RDKit          3D

 42 44  0  0  0  0  0  0  0  0999 V2000
   57.6700   34.0610   44.8160 C   0  0  0  0  0  0  0  0  0  0  0  0
   58.6240   33.3310   45.7870 C   0  0  1  0  0  0  0  0  0  0  0  0
   57.8940   33.1990   47.1500 C   0  0  0  0  0  0  0  0  0  0  0  0
   58.3960   32.0280   48.0180 C   0  0  0  0  0  0  0  0  0  0  0  0
   58.6230   32.4800   49.4360 C   0  0  0  0  0  0  0  0  0  0  0  0
   59.6310   33.4140   49.7290 C   0  0  0  0  0  0  0  0  0  0  0  0
   59.8340   33.8410   51.0450 C   0  0  0  0  0  0  0  0  0  0  0  0
   59.0270   33.3480   52.0740 C   0  0  0  0  0  0  0  0  0  0  0  0
   58.0100   32.4320   51.7880 C   0  0  0  0  0  0  0  0  0  0  0  0
   57.8040   32.0030   50.4730 C   0  0  0  0  0  0  0  0  0  0  0  0
   58.8890   31.9700   45.2780 N   0  0  0  0  0  0  0  0  0  0  0  0
   57.5620   31.1650   44.4690 S   0  0  0  0  0  0  0  0  0  0  0  0
   56.2710   31.8130   44.8830 O   0  0  0  0  0  0  0  0  0  0  0  0
   57.6920   31.2430   42.9730 O   0  0  0  0  0  0  0  0  0  0  0  0
   57.5370   29.4760   44.9620 C   0  0  0  0  0  0  0  0  0  0  0  0
   58.7520   28.7670   45.1350 C   0  0  0  0  0  0  0  0  0  0  0  0
   58.7440   27.4270   45.5680 C   0  0  0  0  0  0  0  0  0  0  0  0
   57.5090   26.8340   45.8140 C   0  0  0  0  0  0  0  0  0  0  0  0
   57.2690   25.5860   46.2400 N   0  0  0  0  0  0  0  0  0  0  0  0
   55.9130   25.5670   46.3090 C   0  0  0  0  0  0  0  0  0  0  0  0
   55.2710   24.5500   46.6800 O   0  0  0  0  0  0  0  0  0  0  0  0
   55.2970   26.7230   45.9510 N   0  0  0  0  0  0  0  0  0  0  0  0
   56.3380   27.5090   45.6400 C   0  0  0  0  0  0  0  0  0  0  0  0
   56.3060   28.8330   45.2110 C   0  0  0  0  0  0  0  0  0  0  0  0
   59.8980   34.1350   45.9930 C   0  0  0  0  0  0  0  0  0  0  0  0
   60.9970   33.5560   46.2080 O   0  0  0  0  0  0  0  0  0  0  0  0
   59.8510   35.5260   46.0240 O   0  0  0  0  0  0  0  0  0  0  0  0
   56.9258   34.6305   45.3921 H   0  0  0  0  0  0  0  0  0  0  0  0
   58.2482   34.7495   44.1822 H   0  0  0  0  0  0  0  0  0  0  0  0
   57.1566   33.3229   44.1822 H   0  0  0  0  0  0  0  0  0  0  0  0
   58.0388   34.1334   47.7121 H   0  0  0  0  0  0  0  0  0  0  0  0
   56.8356   32.9994   46.9267 H   0  0  0  0  0  0  0  0  0  0  0  0
   57.6450   31.2243   48.0104 H   0  0  0  0  0  0  0  0  0  0  0  0
   59.3479   31.6626   47.6051 H   0  0  0  0  0  0  0  0  0  0  0  0
   60.2626   33.8106   48.9204 H   0  0  0  0  0  0  0  0  0  0  0  0
   60.6300   34.5659   51.2706 H   0  0  0  0  0  0  0  0  0  0  0  0
   59.1920   33.6807   53.1094 H   0  0  0  0  0  0  0  0  0  0  0  0
   57.3717   32.0487   52.5977 H   0  0  0  0  0  0  0  0  0  0  0  0
   56.9974   31.2892   50.2497 H   0  0  0  0  0  0  0  0  0  0  0  0
   59.7095   29.2678   44.9292 H   0  0  0  0  0  0  0  0  0  0  0  0
   59.6813   26.8683   45.7070 H   0  0  0  0  0  0  0  0  0  0  0  0
   55.3513   29.3611   45.0706 H   0  0  0  0  0  0  0  0  0  0  0  0
  1  2  1  0
  2  3  1  0
  3  4  1  0
  4  5  1  0
  5  6  2  0
  6  7  1  0
  7  8  2  0
  8  9  1  0
  9 10  2  0
  2 11  1  6
 11 12  1  0
 12 13  2  0
 12 14  2  0
 12 15  1  0
 15 16  2  0
 16 17  1  0
 17 18  2  0
 18 19  1  0
 19 20  1  0
 20 21  2  0
 20 22  1  0
 22 23  1  0
 23 24  2  0
  2 25  1  0
 25 26  2  0
 25 27  1  0
 10  5  1  0
 24 15  1  0
 23 18  1  0
  1 28  1  0
  1 29  1  0
  1 30  1  0
  3 31  1  0
  3 32  1  0
  4 33  1  0
  4 34  1  0
  6 35  1  0
  7 36  1  0
  8 37  1  0
  9 38  1  0
 10 39  1  0
 16 40  1  0
 17 41  1  0
 24 42  1  0
M  CHG  4  11  -1  19  -1  22  -1  27  -1
M  END
>  <UniqueID>  (22) 
20

>  <SMILES>  (22) 
C[C@@](CCc1ccccc1)([N-]S(=O)(=O)c1ccc2[n-]c(=O)[n-]c2c1)C(=O)[O-]

>  <Energy>  (22) 
82.4590763454921

>  <Genealogy>  (22) 
CC(CCc1ccccc1)([N-]S(=O)(=O)c1ccc2[n-]c(=O)[n-]c2c1)C(=O)[O-] (protonated)
C[C@@](CCc1ccccc1)([N-]S(=O)(=O)c1ccc2[n-]c(=O)[n-]c2c1)C(=O)[O-] (chirality)
C[C@@](CCc1ccccc1)([N-]S(=O)(=O)c1ccc2[n-]c(=O)[n-]c2c1)C(=O)[O-] (3D coordinates assigned)
C[C@@](CCc1ccccc1)([N-]S(=O)(=O)c1ccc2[n-]c(=O)[n-]c2c1)C(=O)[O-] (optimized conformer: 82.4590763454921 kcal/mol)

>  <smiles>  (22) 
CC(CCc1ccccc1)(NS(=O)(=O)c1ccc2[nH]c(=O)[nH]c2c1)C(=O)O

>  <score_type>  (22) 
oracle

>  <origin>  (22) 
adg

>  <m_score__min__energy>  (22) 
-15.220000000000001

>  <m_primary>  (22) 
energy

$$$$
22:0
     RDKit          3D

 41 43  0  0  0  0  0  0  0  0999 V2000
   53.1970   23.7350   44.4940 C   0  0  0  0  0  0  0  0  0  0  0  0
   54.6520   23.7050   44.1520 C   0  0  0  0  0  0  0  0  0  0  0  0
   55.1310   23.0280   43.1310 O   0  0  0  0  0  0  0  0  0  0  0  0
   56.4360   23.1720   43.1000 C   0  0  0  0  0  0  0  0  0  0  0  0
   56.8440   23.9810   44.1400 C   0  0  0  0  0  0  0  0  0  0  0  0
   55.6930   24.3440   44.8150 C   0  0  0  0  0  0  0  0  0  0  0  0
   55.6400   25.1950   46.0160 C   0  0  0  0  0  0  0  0  0  0  0  0
   55.5970   24.6530   47.1480 O   0  0  0  0  0  0  0  0  0  0  0  0
   55.6210   26.6230   45.9370 N   0  0  0  0  0  0  0  0  0  0  0  0
   56.7680   27.4740   45.7590 C   0  0  0  0  0  0  0  0  0  0  0  0
   58.0410   26.9620   46.0460 C   0  0  0  0  0  0  0  0  0  0  0  0
   59.1760   27.7520   45.8670 C   0  0  0  0  0  0  0  0  0  0  0  0
   59.0520   29.0530   45.3770 C   0  0  0  0  0  0  0  0  0  0  0  0
   57.7860   29.5820   45.0830 C   0  0  0  0  0  0  0  0  0  0  0  0
   57.6340   31.2260   44.4360 S   0  0  0  0  0  0  0  0  0  0  0  0
   58.0310   31.2100   42.9870 O   0  0  0  0  0  0  0  0  0  0  0  0
   56.1930   31.6680   44.5180 O   0  0  0  0  0  0  0  0  0  0  0  0
   58.5940   32.3950   45.3130 N   0  0  0  0  0  0  0  0  0  0  0  0
   58.4210   32.2640   46.7760 C   0  0  0  0  0  0  0  0  0  0  0  0
   58.7460   33.5810   47.5060 C   0  0  0  0  0  0  0  0  0  0  0  0
   59.7590   34.2860   46.8180 O   0  0  0  0  0  0  0  0  0  0  0  0
   59.2970   34.7440   45.5500 C   0  0  0  0  0  0  0  0  0  0  0  0
   58.3270   33.7630   44.8490 C   0  0  0  0  0  0  0  0  0  0  0  0
   56.6440   28.7830   45.2680 C   0  0  0  0  0  0  0  0  0  0  0  0
   53.0773   23.7375   45.5875 H   0  0  0  0  0  0  0  0  0  0  0  0
   52.7400   24.6428   44.0731 H   0  0  0  0  0  0  0  0  0  0  0  0
   52.7030   22.8469   44.0731 H   0  0  0  0  0  0  0  0  0  0  0  0
   57.1044   22.7153   42.3553 H   0  0  0  0  0  0  0  0  0  0  0  0
   57.8751   24.2771   44.3830 H   0  0  0  0  0  0  0  0  0  0  0  0
   58.1452   25.9309   46.4146 H   0  0  0  0  0  0  0  0  0  0  0  0
   60.1699   27.3495   46.1122 H   0  0  0  0  0  0  0  0  0  0  0  0
   59.9513   29.6668   45.2205 H   0  0  0  0  0  0  0  0  0  0  0  0
   57.3782   31.9860   46.9886 H   0  0  0  0  0  0  0  0  0  0  0  0
   59.1152   31.4906   47.1365 H   0  0  0  0  0  0  0  0  0  0  0  0
   57.8397   34.2026   47.5538 H   0  0  0  0  0  0  0  0  0  0  0  0
   59.0982   33.3494   48.5221 H   0  0  0  0  0  0  0  0  0  0  0  0
   58.7766   35.7021   45.6955 H   0  0  0  0  0  0  0  0  0  0  0  0
   60.1806   34.8400   44.9019 H   0  0  0  0  0  0  0  0  0  0  0  0
   57.2897   34.0367   45.0920 H   0  0  0  0  0  0  0  0  0  0  0  0
   58.4749   33.8163   43.7603 H   0  0  0  0  0  0  0  0  0  0  0  0
   55.6491   29.1855   45.0269 H   0  0  0  0  0  0  0  0  0  0  0  0
  1  2  1  0
  2  3  1  0
  3  4  1  0
  4  5  2  0
  5  6  1  0
  6  7  1  0
  7  8  2  0
  7  9  1  0
  9 10  1  0
 10 11  2  0
 11 12  1  0
 12 13  2  0
 13 14  1  0
 14 15  1  0
 15 16  2  0
 15 17  2  0
 15 18  1  0
 18 19  1  0
 19 20  1  0
 20 21  1  0
 21 22  1  0
 22 23  1  0
 14 24  2  0
  6  2  2  0
 24 10  1  0
 23 18  1  0
  1 25  1  0
  1 26  1  0
  1 27  1  0
  4 28  1  0
  5 29  1  0
 11 30  1  0
 12 31  1  0
 13 32  1  0
 19 33  1  0
 19 34  1  0
 20 35  1  0
 20 36  1  0
 22 37  1  0
 22 38  1  0
 23 39  1  0
 23 40  1  0
 24 41  1  0
M  CHG  1   9  -1
M  END
>  <UniqueID>  (23) 
21

>  <SMILES>  (23) 
Cc1occc1C(=O)[N-]c1cccc(S(=O)(=O)N2CCOCC2)c1

>  <Energy>  (23) 
83.59561324218933

>  <Genealogy>  (23) 
Cc1occc1C(=O)[N-]c1cccc(S(=O)(=O)N2CCOCC2)c1 (protonated)
Cc1occc1C(=O)[N-]c1cccc(S(=O)(=O)N2CCOCC2)c1 (3D coordinates assigned)
Cc1occc1C(=O)[N-]c1cccc(S(=O)(=O)N2CCOCC2)c1 (nonaromatic ring conformer: 83.59561324218933 kcal/mol)

>  <smiles>  (23) 
Cc1occc1C(=O)Nc1cccc(S(=O)(=O)N2CCOCC2)c1

>  <score_type>  (23) 
oracle

>  <origin>  (23) 
adg

>  <m_score__min__energy>  (23) 
-10.66

>  <m_primary>  (23) 
energy

$$$$
23:0
     RDKit          3D

 29 30  0  0  0  0  0  0  0  0999 V2000
   56.7099   28.0887   46.5185 H   0  0  0  0  0  0  0  0  0  0  0  0
   56.9090   28.1420   45.4380 C   0  0  0  0  0  0  0  0  0  0  0  0
   56.3080   29.0390   44.7170 N   0  0  0  0  0  0  0  0  0  0  0  0
   56.8830   30.3110   44.4000 C   0  0  0  0  0  0  0  0  0  0  0  0
   57.4080   31.1550   45.3140 N   0  0  0  0  0  0  0  0  0  0  0  0
   57.8840   32.2920   44.7380 C   0  0  0  0  0  0  0  0  0  0  0  0
   58.5090   33.3760   45.5290 C   0  0  0  0  0  0  0  0  0  0  0  0
   59.1730   34.7780   44.8710 S   0  0  0  0  0  0  0  0  0  0  0  0
   59.6570   35.4760   46.3180 C   0  0  0  0  0  0  0  0  0  0  0  0
   60.1645   36.4456   46.4290 H   0  0  0  0  0  0  0  0  0  0  0  0
   59.3060   34.6180   47.3500 C   0  0  0  0  0  0  0  0  0  0  0  0
   59.5112   34.8368   48.4083 H   0  0  0  0  0  0  0  0  0  0  0  0
   58.6640   33.4430   46.9200 C   0  0  0  0  0  0  0  0  0  0  0  0
   58.2050   32.3880   47.8830 C   0  0  0  0  0  0  0  0  0  0  0  0
   58.3584   32.7406   48.9136 H   0  0  0  0  0  0  0  0  0  0  0  0
   57.1365   32.1833   47.7207 H   0  0  0  0  0  0  0  0  0  0  0  0
   58.7836   31.4667   47.7207 H   0  0  0  0  0  0  0  0  0  0  0  0
   57.7330   32.3490   43.3520 C   0  0  0  0  0  0  0  0  0  0  0  0
   58.0500   33.1782   42.7025 H   0  0  0  0  0  0  0  0  0  0  0  0
   56.9820   30.9300   42.8450 S   0  0  0  0  0  0  0  0  0  0  0  0
   57.8320   27.2180   44.8380 N   0  0  0  0  0  0  0  0  0  0  0  0
   58.1110   27.2730   43.4000 C   0  0  0  0  0  0  0  0  0  0  0  0
   59.1790   27.4835   43.2415 H   0  0  0  0  0  0  0  0  0  0  0  0
   57.8554   26.3072   42.9397 H   0  0  0  0  0  0  0  0  0  0  0  0
   57.5080   28.0696   42.9397 H   0  0  0  0  0  0  0  0  0  0  0  0
   58.4820   26.2260   45.6950 C   0  0  0  0  0  0  0  0  0  0  0  0
   58.3120   26.4855   46.7503 H   0  0  0  0  0  0  0  0  0  0  0  0
   58.0601   25.2311   45.4895 H   0  0  0  0  0  0  0  0  0  0  0  0
   59.5626   26.2156   45.4895 H   0  0  0  0  0  0  0  0  0  0  0  0
  1  2  1  0
  2  3  2  0
  3  4  1  0
  4  5  2  0
  5  6  1  0
  6  7  1  0
  7  8  1  0
  8  9  1  0
  9 10  1  0
  9 11  2  0
 11 12  1  0
 11 13  1  0
 13 14  1  0
 14 15  1  0
 14 16  1  0
 14 17  1  0
  6 18  2  0
 18 19  1  0
 18 20  1  0
  2 21  1  0
 21 22  1  0
 22 23  1  0
 22 24  1  0
 22 25  1  0
 21 26  1  0
 26 27  1  0
 26 28  1  0
 26 29  1  0
 20  4  1  0
 13  7  2  0
M  END
>  <UniqueID>  (24) 
22

>  <SMILES>  (24) 
Cc1ccsc1-c1csc(/N=C/N(C)C)n1

>  <Energy>  (24) 
79.77427984033737

>  <Genealogy>  (24) 
Cc1ccsc1-c1csc(/N=C/N(C)C)n1 (cis-trans isomerization)
Cc1ccsc1-c1csc(/N=C/N(C)C)n1 (3D coordinates assigned)
Cc1ccsc1-c1csc(/N=C/N(C)C)n1 (optimized conformer: 79.77427984033737 kcal/mol)

>  <smiles>  (24) 
Cc1ccsc1-c1csc(N=CN(C)C)n1

>  <score_type>  (24) 
oracle

>  <origin>  (24) 
adg

>  <m_score__min__energy>  (24) 
-6.3099999999999996

>  <m_primary>  (24) 
energy

$$$$
24:0
     RDKit          3D

 49 52  0  0  0  0  0  0  0  0999 V2000
   55.8444   30.3354   44.5438 H   0  0  0  0  0  0  0  0  0  0  0  0
   56.4400   29.5550   45.0400 C   0  0  0  0  0  0  0  0  0  0  0  0
   55.9030   28.3270   45.2480 N   0  0  0  0  0  0  0  0  0  0  0  0
   56.6020   27.3340   45.8570 C   0  0  0  0  0  0  0  0  0  0  0  0
   56.0010   26.0830   46.0510 C   0  0  0  0  0  0  0  0  0  0  0  0
   54.9701   25.9105   45.7081 H   0  0  0  0  0  0  0  0  0  0  0  0
   56.7080   25.0540   46.6790 C   0  0  0  0  0  0  0  0  0  0  0  0
   55.9510   23.4900   46.9200 Cl  0  0  0  0  0  0  0  0  0  0  0  0
   58.0180   25.2700   47.1160 C   0  0  0  0  0  0  0  0  0  0  0  0
   58.5711   24.4577   47.6102 H   0  0  0  0  0  0  0  0  0  0  0  0
   58.6290   26.5140   46.9280 C   0  0  0  0  0  0  0  0  0  0  0  0
   59.6601   26.6757   47.2754 H   0  0  0  0  0  0  0  0  0  0  0  0
   57.9290   27.5620   46.2950 C   0  0  0  0  0  0  0  0  0  0  0  0
   58.5090   28.8340   46.0870 C   0  0  0  0  0  0  0  0  0  0  0  0
   59.7310   29.0590   46.4890 N   0  0  0  0  0  0  0  0  0  0  0  0
   60.1370   29.5990   47.7860 C   0  0  0  0  0  0  0  0  0  0  0  0
   59.9362   30.6803   47.8077 H   0  0  0  0  0  0  0  0  0  0  0  0
   61.2113   29.4120   47.9308 H   0  0  0  0  0  0  0  0  0  0  0  0
   59.3570   28.9180   48.9130 C   0  0  0  0  0  0  0  0  0  0  0  0
   59.5421   27.8354   48.8522 H   0  0  0  0  0  0  0  0  0  0  0  0
   58.3003   29.1855   48.7651 H   0  0  0  0  0  0  0  0  0  0  0  0
   59.7310   29.3900   50.3320 C   0  0  0  0  0  0  0  0  0  0  0  0
   60.8215   29.5250   50.3831 H   0  0  0  0  0  0  0  0  0  0  0  0
   59.3852   28.6239   51.0415 H   0  0  0  0  0  0  0  0  0  0  0  0
   59.0790   30.6630   50.6930 N   0  0  0  0  0  0  0  0  0  0  0  0
   57.8100   30.6460   51.3700 C   0  0  0  0  0  0  0  0  0  0  0  0
   57.3640   29.5810   51.8790 O   0  0  0  0  0  0  0  0  0  0  0  0
   57.0350   31.9040   51.5210 C   0  0  0  0  0  0  0  0  0  0  0  0
   56.8512   32.3398   50.5279 H   0  0  0  0  0  0  0  0  0  0  0  0
   56.0774   31.6807   52.0140 H   0  0  0  0  0  0  0  0  0  0  0  0
   57.8150   32.8990   52.3720 C   0  0  0  0  0  0  0  0  0  0  0  0
   57.3272   33.8803   52.2772 H   0  0  0  0  0  0  0  0  0  0  0  0
   57.8043   32.4928   53.3942 H   0  0  0  0  0  0  0  0  0  0  0  0
   59.5910   33.1050   51.9320 S   0  0  0  0  0  0  0  0  0  0  0  0
   59.8010   31.9410   50.5140 C   0  0  2  0  0  0  0  0  0  0  0  0
   60.8737   31.6976   50.5211 H   0  0  0  0  0  0  0  0  0  0  0  0
   59.5300   32.5660   49.1540 C   0  0  0  0  0  0  0  0  0  0  0  0
   58.3380   32.3420   48.4350 C   0  0  0  0  0  0  0  0  0  0  0  0
   57.5559   31.6981   48.8635 H   0  0  0  0  0  0  0  0  0  0  0  0
   58.1410   32.9310   47.1820 C   0  0  0  0  0  0  0  0  0  0  0  0
   57.2105   32.7408   46.6270 H   0  0  0  0  0  0  0  0  0  0  0  0
   59.1220   33.7600   46.6330 C   0  0  0  0  0  0  0  0  0  0  0  0
   58.8510   34.5630   44.9220 Br  0  0  0  0  0  0  0  0  0  0  0  0
   60.2980   34.0110   47.3450 C   0  0  0  0  0  0  0  0  0  0  0  0
   61.0678   34.6714   46.9192 H   0  0  0  0  0  0  0  0  0  0  0  0
   60.4970   33.4240   48.5970 C   0  0  0  0  0  0  0  0  0  0  0  0
   61.4213   33.6350   49.1548 H   0  0  0  0  0  0  0  0  0  0  0  0
   57.7440   29.8340   45.4520 C   0  0  0  0  0  0  0  0  0  0  0  0
   58.1741   30.8320   45.2817 H   0  0  0  0  0  0  0  0  0  0  0  0
  1  2  1  0
  2  3  1  0
  3  4  1  0
  4  5  2  0
  5  6  1  0
  5  7  1  0
  7  8  1  0
  7  9  2  0
  9 10  1  0
  9 11  1  0
 11 12  1  0
 11 13  2  0
 13 14  1  0
 14 15  2  0
 15 16  1  0
 16 17  1  0
 16 18  1  0
 16 19  1  0
 19 20  1  0
 19 21  1  0
 19 22  1  0
 22 23  1  0
 22 24  1  0
 22 25  1  0
 25 26  1  0
 26 27  2  0
 26 28  1  0
 28 29  1  0
 28 30  1  0
 28 31  1  0
 31 32  1  0
 31 33  1  0
 31 34  1  0
 34 35  1  0
 35 36  1  6
 35 37  1  0
 37 38  2  0
 38 39  1  0
 38 40  1  0
 40 41  1  0
 40 42  2  0
 42 43  1  0
 42 44  1  0
 44 45  1  0
 44 46  2  0
 46 47  1  0
 14 48  1  0
 48 49  1  0
 48  2  2  0
 13  4  1  0
 35 25  1  0
 46 37  1  0
M  CHG  1   3  -1
M  END
>  <UniqueID>  (25) 
23

>  <SMILES>  (25) 
O=C1CCS[C@H](c2ccc(Br)cc2)N1CCC/N=c1\cc[n-]c2cc(Cl)ccc12

>  <Energy>  (25) 
62.73066849729618

>  <Genealogy>  (25) 
O=C1CCSC(c2ccc(Br)cc2)N1CCCN=c1cc[n-]c2cc(Cl)ccc12 (protonated)
O=C1CCS[C@H](c2ccc(Br)cc2)N1CCCN=c1cc[n-]c2cc(Cl)ccc12 (chirality)
O=C1CCS[C@H](c2ccc(Br)cc2)N1CCC/N=c1\cc[n-]c2cc(Cl)ccc12 (cis-trans isomerization)
O=C1CCS[C@H](c2ccc(Br)cc2)N1CCC/N=c1\cc[n-]c2cc(Cl)ccc12 (3D coordinates assigned)
O=C1CCS[C@H](c2ccc(Br)cc2)N1CCC/N=c1\cc[n-]c2cc(Cl)ccc12 (nonaromatic ring conformer: 62.73066849729618 kcal/mol)

>  <smiles>  (25) 
O=C1CCSC(c2ccc(Br)cc2)N1CCCN=c1cc[nH]c2cc(Cl)ccc12

>  <score_type>  (25) 
oracle

>  <origin>  (25) 
adg

>  <m_score__min__energy>  (25) 
-11.16

>  <m_primary>  (25) 
energy

$$$$
25:0
     RDKit          3D

 57 60  0  0  0  0  0  0  0  0999 V2000
   52.6760   23.9880   44.8140 C   0  0  0  0  0  0  0  0  0  0  0  0
   54.0800   23.8550   44.7720 O   0  0  0  0  0  0  0  0  0  0  0  0
   54.6000   23.7890   46.0900 C   0  0  1  0  0  0  0  0  0  0  0  0
   55.3680   22.4950   46.3060 C   0  0  0  0  0  0  0  0  0  0  0  0
   56.3810   22.8390   47.3870 C   0  0  0  0  0  0  0  0  0  0  0  0
   56.2930   24.3550   47.5550 C   0  0  0  0  0  0  0  0  0  0  0  0
   55.5380   24.8860   46.4060 N   0  0  0  0  0  0  0  0  0  0  0  0
   56.4580   25.2410   45.2890 C   0  0  0  0  0  0  0  0  0  0  0  0
   57.7290   25.9030   45.8370 C   0  0  0  0  0  0  0  0  0  0  0  0
   57.7390   27.4200   45.6270 C   0  0  0  0  0  0  0  0  0  0  0  0
   57.4400   27.7350   44.2280 N   0  0  0  0  0  0  0  0  0  0  0  0
   56.6500   29.2790   44.1310 S   0  0  0  0  0  0  0  0  0  0  0  0
   55.3270   29.2230   44.8450 O   0  0  0  0  0  0  0  0  0  0  0  0
   56.4000   29.6190   42.6900 O   0  0  0  0  0  0  0  0  0  0  0  0
   57.6680   30.5270   44.8460 C   0  0  0  0  0  0  0  0  0  0  0  0
   58.8670   30.1810   45.5090 C   0  0  0  0  0  0  0  0  0  0  0  0
   59.6960   31.1780   46.0500 C   0  0  0  0  0  0  0  0  0  0  0  0
   59.2970   32.5130   45.9330 C   0  0  0  0  0  0  0  0  0  0  0  0
   58.1490   32.8450   45.2620 C   0  0  0  0  0  0  0  0  0  0  0  0
   57.3100   31.8810   44.7070 C   0  0  0  0  0  0  0  0  0  0  0  0
   58.0730   34.2900   45.2200 C   0  0  0  0  0  0  0  0  0  0  0  0
   57.1530   34.9570   44.6760 O   0  0  0  0  0  0  0  0  0  0  0  0
   59.2710   34.8680   45.9090 C   0  0  0  0  0  0  0  0  0  0  0  0
   60.0060   33.6800   46.3620 N   0  0  0  0  0  0  0  0  0  0  0  0
   61.1230   33.7260   47.2660 C   0  0  0  0  0  0  0  0  0  0  0  0
   60.9370   34.0530   48.6200 C   0  0  0  0  0  0  0  0  0  0  0  0
   62.0330   34.1170   49.4870 C   0  0  0  0  0  0  0  0  0  0  0  0
   63.3210   33.8650   49.0070 C   0  0  0  0  0  0  0  0  0  0  0  0
   63.5150   33.5560   47.6590 C   0  0  0  0  0  0  0  0  0  0  0  0
   62.4220   33.4920   46.7890 C   0  0  0  0  0  0  0  0  0  0  0  0
   52.3419   24.0197   45.8615 H   0  0  0  0  0  0  0  0  0  0  0  0
   52.3805   24.9182   44.3066 H   0  0  0  0  0  0  0  0  0  0  0  0
   52.2111   23.1299   44.3066 H   0  0  0  0  0  0  0  0  0  0  0  0
   53.7181   23.8600   46.7436 H   0  0  0  0  0  0  0  0  0  0  0  0
   54.6946   21.6932   46.6432 H   0  0  0  0  0  0  0  0  0  0  0  0
   55.8433   22.1280   45.3843 H   0  0  0  0  0  0  0  0  0  0  0  0
   56.1262   22.3316   48.3291 H   0  0  0  0  0  0  0  0  0  0  0  0
   57.3965   22.5150   47.1152 H   0  0  0  0  0  0  0  0  0  0  0  0
   55.7713   24.5992   48.4921 H   0  0  0  0  0  0  0  0  0  0  0  0
   57.2986   24.7989   47.5957 H   0  0  0  0  0  0  0  0  0  0  0  0
   56.7320   24.3279   44.7402 H   0  0  0  0  0  0  0  0  0  0  0  0
   55.9486   25.9462   44.6158 H   0  0  0  0  0  0  0  0  0  0  0  0
   57.7975   25.6959   46.9152 H   0  0  0  0  0  0  0  0  0  0  0  0
   58.5860   25.4846   45.2888 H   0  0  0  0  0  0  0  0  0  0  0  0
   56.9795   27.8822   46.2747 H   0  0  0  0  0  0  0  0  0  0  0  0
   58.7349   27.8126   45.8802 H   0  0  0  0  0  0  0  0  0  0  0  0
   56.7560   27.0270   43.8740 H   0  0  0  0  0  0  0  0  0  0  0  0
   59.1535   29.1231   45.6022 H   0  0  0  0  0  0  0  0  0  0  0  0
   60.6375   30.9144   46.5541 H   0  0  0  0  0  0  0  0  0  0  0  0
   56.3922   32.1705   44.1743 H   0  0  0  0  0  0  0  0  0  0  0  0
   59.8774   35.4642   45.2113 H   0  0  0  0  0  0  0  0  0  0  0  0
   59.0076   35.5504   46.7305 H   0  0  0  0  0  0  0  0  0  0  0  0
   59.9255   34.2595   48.9997 H   0  0  0  0  0  0  0  0  0  0  0  0
   61.8808   34.3659   50.5476 H   0  0  0  0  0  0  0  0  0  0  0  0
   64.1816   33.9100   49.6906 H   0  0  0  0  0  0  0  0  0  0  0  0
   64.5296   33.3625   47.2808 H   0  0  0  0  0  0  0  0  0  0  0  0
   62.5811   33.2572   45.7262 H   0  0  0  0  0  0  0  0  0  0  0  0
  1  2  1  0
  2  3  1  0
  3  4  1  0
  4  5  1  0
  5  6  1  0
  6  7  1  0
  7  8  1  0
  8  9  1  0
  9 10  1  0
 10 11  1  0
 11 12  1  0
 12 13  2  0
 12 14  2  0
 12 15  1  0
 15 16  2  0
 16 17  1  0
 17 18  2  0
 18 19  1  0
 19 20  2  0
 19 21  1  0
 21 22  2  0
 21 23  1  0
 23 24  1  0
 24 25  1  0
 25 26  2  0
 26 27  1  0
 27 28  2  0
 28 29  1  0
 29 30  2  0
  7  3  1  0
 20 15  1  0
 30 25  1  0
 24 18  1  0
  1 31  1  0
  1 32  1  0
  1 33  1  0
  3 34  1  1
  4 35  1  0
  4 36  1  0
  5 37  1  0
  5 38  1  0
  6 39  1  0
  6 40  1  0
  8 41  1  0
  8 42  1  0
  9 43  1  0
  9 44  1  0
 10 45  1  0
 10 46  1  0
 11 47  1  0
 16 48  1  0
 17 49  1  0
 20 50  1  0
 23 51  1  0
 23 52  1  0
 26 53  1  0
 27 54  1  0
 28 55  1  0
 29 56  1  0
 30 57  1  0
M  END
>  <UniqueID>  (26) 
24

>  <SMILES>  (26) 
CO[C@H]1CCCN1CCCNS(=O)(=O)c1ccc2c(c1)C(=O)CN2c1ccccc1

>  <Energy>  (26) 
89.71967545288605

>  <Genealogy>  (26) 
CO[C@H]1CCCN1CCCNS(=O)(=O)c1ccc2c(c1)C(=O)CN2c1ccccc1 (chirality)
CO[C@H]1CCCN1CCCNS(=O)(=O)c1ccc2c(c1)C(=O)CN2c1ccccc1 (3D coordinates assigned)
CO[C@H]1CCCN1CCCNS(=O)(=O)c1ccc2c(c1)C(=O)CN2c1ccccc1 (nonaromatic ring conformer: 89.71967545288605 kcal/mol)

>  <smiles>  (26) 
COC1CCCN1CCCNS(=O)(=O)c1ccc2c(c1)C(=O)CN2c1ccccc1

>  <score_type>  (26) 
oracle

>  <origin>  (26) 
adg

>  <m_score__min__energy>  (26) 
-10.19

>  <m_primary>  (26) 
energy

$$$$
26:0
     RDKit          3D

 41 43  0  0  0  0  0  0  0  0999 V2000
   59.4420   29.6070   48.3410 C   0  0  0  0  0  0  0  0  0  0  0  0
   58.5600   30.7190   48.4720 O   0  0  0  0  0  0  0  0  0  0  0  0
   58.9320   32.0600   48.2800 C   0  0  0  0  0  0  0  0  0  0  0  0
   59.4560   32.8380   49.3320 C   0  0  0  0  0  0  0  0  0  0  0  0
   59.8190   34.1690   49.1190 C   0  0  0  0  0  0  0  0  0  0  0  0
   59.6700   34.7480   47.8600 C   0  0  0  0  0  0  0  0  0  0  0  0
   59.1520   33.9960   46.7970 C   0  0  0  0  0  0  0  0  0  0  0  0
   58.9950   34.5780   45.5300 C   0  0  0  0  0  0  0  0  0  0  0  0
   58.4760   33.8320   44.4710 C   0  0  0  0  0  0  0  0  0  0  0  0
   58.1160   32.4900   44.6570 C   0  0  0  0  0  0  0  0  0  0  0  0
   57.5150   31.7060   43.5230 C   0  0  0  0  0  0  0  0  0  0  0  0
   57.0530   30.3700   44.0180 C   0  0  0  0  0  0  0  0  0  0  0  0
   55.8960   30.2590   44.5080 O   0  0  0  0  0  0  0  0  0  0  0  0
   57.9250   29.2330   43.9350 N   0  0  0  0  0  0  0  0  0  0  0  0
   57.7080   28.0000   44.6420 C   0  0  0  0  0  0  0  0  0  0  0  0
   57.3540   28.0380   45.9980 C   0  0  0  0  0  0  0  0  0  0  0  0
   57.1160   26.8540   46.7030 C   0  0  0  0  0  0  0  0  0  0  0  0
   57.2120   25.6090   46.0570 C   0  0  0  0  0  0  0  0  0  0  0  0
   56.9640   24.3530   46.7990 C   0  0  0  0  0  0  0  0  0  0  0  0
   55.8970   24.1940   47.4510 O   0  0  0  0  0  0  0  0  0  0  0  0
   57.9060   23.3310   46.7870 O   0  0  0  0  0  0  0  0  0  0  0  0
   57.5420   25.5740   44.6910 C   0  0  0  0  0  0  0  0  0  0  0  0
   57.7810   26.7580   43.9890 C   0  0  0  0  0  0  0  0  0  0  0  0
   58.2590   31.9030   45.9240 C   0  0  0  0  0  0  0  0  0  0  0  0
   58.7810   32.6430   47.0030 C   0  0  0  0  0  0  0  0  0  0  0  0
   59.7281   29.2463   49.3400 H   0  0  0  0  0  0  0  0  0  0  0  0
   58.9356   28.8002   47.7909 H   0  0  0  0  0  0  0  0  0  0  0  0
   60.3430   29.9164   47.7909 H   0  0  0  0  0  0  0  0  0  0  0  0
   59.5800   32.3923   50.3300 H   0  0  0  0  0  0  0  0  0  0  0  0
   60.2251   34.7645   49.9499 H   0  0  0  0  0  0  0  0  0  0  0  0
   59.9595   35.7972   47.7005 H   0  0  0  0  0  0  0  0  0  0  0  0
   59.2825   35.6277   45.3706 H   0  0  0  0  0  0  0  0  0  0  0  0
   58.3485   34.3001   43.4838 H   0  0  0  0  0  0  0  0  0  0  0  0
   56.6581   32.2589   43.1107 H   0  0  0  0  0  0  0  0  0  0  0  0
   58.2738   31.5604   42.7401 H   0  0  0  0  0  0  0  0  0  0  0  0
   58.7330   29.2850   43.2740 H   0  0  0  0  0  0  0  0  0  0  0  0
   57.2628   29.0066   46.5113 H   0  0  0  0  0  0  0  0  0  0  0  0
   56.8520   26.8970   47.7700 H   0  0  0  0  0  0  0  0  0  0  0  0
   57.6126   24.6072   44.1710 H   0  0  0  0  0  0  0  0  0  0  0  0
   58.0280   26.7177   42.9178 H   0  0  0  0  0  0  0  0  0  0  0  0
   57.9606   30.8552   46.0758 H   0  0  0  0  0  0  0  0  0  0  0  0
  1  2  1  0
  2  3  1  0
  3  4  2  0
  4  5  1  0
  5  6  2  0
  6  7  1  0
  7  8  2  0
  8  9  1  0
  9 10  2  0
 10 11  1  0
 11 12  1  0
 12 13  2  0
 12 14  1  0
 14 15  1  0
 15 16  2  0
 16 17  1  0
 17 18  2  0
 18 19  1  0
 19 20  2  0
 19 21  1  0
 18 22  1  0
 22 23  2  0
 10 24  1  0
 24 25  2  0
 25  3  1  0
 25  7  1  0
 23 15  1  0
  1 26  1  0
  1 27  1  0
  1 28  1  0
  4 29  1  0
  5 30  1  0
  6 31  1  0
  8 32  1  0
  9 33  1  0
 11 34  1  0
 11 35  1  0
 14 36  1  0
 16 37  1  0
 17 38  1  0
 22 39  1  0
 23 40  1  0
 24 41  1  0
M  CHG  1  21  -1
M  END
>  <UniqueID>  (27) 
25

>  <SMILES>  (27) 
COc1cccc2ccc(CC(=O)Nc3ccc(C(=O)[O-])cc3)cc12

>  <Energy>  (27) 
48.57494806768103

>  <Genealogy>  (27) 
COc1cccc2ccc(CC(=O)Nc3ccc(C(=O)[O-])cc3)cc12 (protonated)
COc1cccc2ccc(CC(=O)Nc3ccc(C(=O)[O-])cc3)cc12 (3D coordinates assigned)
COc1cccc2ccc(CC(=O)Nc3ccc(C(=O)[O-])cc3)cc12 (optimized conformer: 48.57494806768103 kcal/mol)

>  <smiles>  (27) 
COc1cccc2ccc(CC(=O)Nc3ccc(C(=O)O)cc3)cc12

>  <score_type>  (27) 
oracle

>  <origin>  (27) 
adg

>  <m_score__min__energy>  (27) 
-10.27

>  <m_primary>  (27) 
energy

$$$$
27:0
     RDKit          3D

 25 26  0  0  0  0  0  0  0  0999 V2000
   61.1310   28.5770   44.8380 C   0  0  0  0  0  0  0  0  0  0  0  0
   59.6630   28.6370   44.5780 C   0  0  0  0  0  0  0  0  0  0  0  0
   58.8000   29.6310   44.9990 C   0  0  0  0  0  0  0  0  0  0  0  0
   57.5760   29.2370   44.4930 C   0  0  0  0  0  0  0  0  0  0  0  0
   56.3060   29.9750   44.6260 C   0  0  0  0  0  0  0  0  0  0  0  0
   55.2470   29.3390   44.8700 O   0  0  0  0  0  0  0  0  0  0  0  0
   56.2490   31.4050   44.5430 N   0  0  0  0  0  0  0  0  0  0  0  0
   57.2770   32.3170   44.9530 C   0  0  0  0  0  0  0  0  0  0  0  0
   57.4050   32.6270   46.3130 C   0  0  0  0  0  0  0  0  0  0  0  0
   58.3840   33.5290   46.7440 C   0  0  0  0  0  0  0  0  0  0  0  0
   59.2330   34.1370   45.8140 C   0  0  0  0  0  0  0  0  0  0  0  0
   59.0970   33.8510   44.4530 C   0  0  0  0  0  0  0  0  0  0  0  0
   58.1180   32.9510   44.0200 C   0  0  0  0  0  0  0  0  0  0  0  0
   57.7400   28.0900   43.8050 N   0  0  0  0  0  0  0  0  0  0  0  0
   58.9940   27.7550   43.8720 O   0  0  0  0  0  0  0  0  0  0  0  0
   61.3112   28.5696   45.9231 H   0  0  0  0  0  0  0  0  0  0  0  0
   61.5454   27.6612   44.3913 H   0  0  0  0  0  0  0  0  0  0  0  0
   61.6187   29.4560   44.3913 H   0  0  0  0  0  0  0  0  0  0  0  0
   59.0326   30.5250   45.5961 H   0  0  0  0  0  0  0  0  0  0  0  0
   56.7320   32.1587   47.0463 H   0  0  0  0  0  0  0  0  0  0  0  0
   58.4858   33.7599   47.8147 H   0  0  0  0  0  0  0  0  0  0  0  0
   60.0077   34.8402   46.1537 H   0  0  0  0  0  0  0  0  0  0  0  0
   59.7609   34.3344   43.7212 H   0  0  0  0  0  0  0  0  0  0  0  0
   58.0051   32.7381   42.9467 H   0  0  0  0  0  0  0  0  0  0  0  0
   57.0140   27.5580   43.2750 H   0  0  0  0  0  0  0  0  0  0  0  0
  1  2  1  0
  2  3  2  0
  3  4  1  0
  4  5  1  0
  5  6  2  0
  5  7  1  0
  7  8  1  0
  8  9  2  0
  9 10  1  0
 10 11  2  0
 11 12  1  0
 12 13  2  0
  4 14  2  0
 14 15  1  0
 15  2  1  0
 13  8  1  0
  1 16  1  0
  1 17  1  0
  1 18  1  0
  3 19  1  0
  9 20  1  0
 10 21  1  0
 11 22  1  0
 12 23  1  0
 13 24  1  0
 14 25  1  0
M  CHG  2   7  -1  14   1
M  END
>  <UniqueID>  (28) 
26

>  <SMILES>  (28) 
Cc1cc(C(=O)[N-]c2ccccc2)[nH+]o1

>  <Energy>  (28) 
59.961615733563605

>  <Genealogy>  (28) 
Cc1cc(C(=O)[N-]c2ccccc2)[nH+]o1 (protonated)
Cc1cc(C(=O)[N-]c2ccccc2)[nH+]o1 (3D coordinates assigned)
Cc1cc(C(=O)[N-]c2ccccc2)[nH+]o1 (optimized conformer: 59.961615733563605 kcal/mol)

>  <smiles>  (28) 
Cc1cc(C(=O)Nc2ccccc2)no1

>  <score_type>  (28) 
oracle

>  <origin>  (28) 
adg

>  <m_score__min__energy>  (28) 
-6.8600000000000003

>  <m_primary>  (28) 
energy

$$$$
28:0
     RDKit          3D

 41 43  0  0  0  0  0  0  0  0999 V2000
   57.7498   33.3775   47.7680 H   0  0  0  0  0  0  0  0  0  0  0  0
   58.8280   33.4890   47.9550 C   0  0  0  0  0  0  0  0  0  0  0  0
   59.2840   33.6580   49.2250 N   0  0  0  0  0  0  0  0  0  0  0  0
   60.6110   33.8070   49.5030 C   0  0  0  0  0  0  0  0  0  0  0  0
   61.0300   33.9540   50.7280 N   0  0  0  0  0  0  0  0  0  0  0  0
   60.4670   33.3290   51.8930 C   0  0  0  0  0  0  0  0  0  0  0  0
   61.0160   33.5330   53.0080 O   0  0  0  0  0  0  0  0  0  0  0  0
   59.2350   32.5080   51.8330 C   0  0  0  0  0  0  0  0  0  0  0  0
   57.9880   33.0830   52.1330 C   0  0  0  0  0  0  0  0  0  0  0  0
   57.9308   34.1427   52.4226 H   0  0  0  0  0  0  0  0  0  0  0  0
   56.8200   32.3180   52.0660 C   0  0  0  0  0  0  0  0  0  0  0  0
   55.8517   32.7741   52.3195 H   0  0  0  0  0  0  0  0  0  0  0  0
   56.8770   30.9680   51.6760 C   0  0  0  0  0  0  0  0  0  0  0  0
   55.7300   30.1640   51.6150 O   0  0  0  0  0  0  0  0  0  0  0  0
   54.5240   30.4160   52.2860 C   0  0  0  0  0  0  0  0  0  0  0  0
   54.2880   29.9560   53.5900 C   0  0  0  0  0  0  0  0  0  0  0  0
   55.0496   29.3601   54.1143 H   0  0  0  0  0  0  0  0  0  0  0  0
   53.0780   30.2610   54.2170 C   0  0  0  0  0  0  0  0  0  0  0  0
   52.8858   29.9023   55.2390 H   0  0  0  0  0  0  0  0  0  0  0  0
   52.1360   30.9990   53.5710 N   0  0  0  0  0  0  0  0  0  0  0  0
   51.2620   31.2460   54.0860 H   0  0  0  0  0  0  0  0  0  0  0  0
   52.3360   31.4580   52.3000 C   0  0  0  0  0  0  0  0  0  0  0  0
   51.3060   32.2710   51.6240 C   0  0  0  0  0  0  0  0  0  0  0  0
   50.3330   32.7060   52.2930 O   0  0  0  0  0  0  0  0  0  0  0  0
   51.3970   32.6130   50.2360 N   0  0  0  0  0  0  0  0  0  0  0  0
   50.6550   31.9550   49.1680 C   0  0  0  0  0  0  0  0  0  0  0  0
   49.8997   31.2852   49.6050 H   0  0  0  0  0  0  0  0  0  0  0  0
   50.1567   32.7136   48.5465 H   0  0  0  0  0  0  0  0  0  0  0  0
   51.3485   31.3696   48.5465 H   0  0  0  0  0  0  0  0  0  0  0  0
   53.5500   31.1910   51.6510 C   0  0  0  0  0  0  0  0  0  0  0  0
   53.7354   31.5911   50.6433 H   0  0  0  0  0  0  0  0  0  0  0  0
   58.1180   30.3940   51.3820 C   0  0  0  0  0  0  0  0  0  0  0  0
   58.1744   29.3330   51.0972 H   0  0  0  0  0  0  0  0  0  0  0  0
   59.2870   31.1570   51.4470 C   0  0  0  0  0  0  0  0  0  0  0  0
   60.2541   30.6977   51.1945 H   0  0  0  0  0  0  0  0  0  0  0  0
   61.5420   33.7690   48.4560 C   0  0  0  0  0  0  0  0  0  0  0  0
   62.8700   33.9010   48.7030 F   0  0  0  0  0  0  0  0  0  0  0  0
   61.0930   33.5960   47.1450 C   0  0  0  0  0  0  0  0  0  0  0  0
   61.8144   33.5693   46.3150 H   0  0  0  0  0  0  0  0  0  0  0  0
   59.7280   33.4570   46.8890 C   0  0  0  0  0  0  0  0  0  0  0  0
   59.3659   33.3238   45.8589 H   0  0  0  0  0  0  0  0  0  0  0  0
  1  2  1  0
  2  3  1  0
  3  4  1  0
  4  5  2  0
  5  6  1  0
  6  7  2  0
  6  8  1  0
  8  9  2  0
  9 10  1  0
  9 11  1  0
 11 12  1  0
 11 13  2  0
 13 14  1  0
 14 15  1  0
 15 16  2  0
 16 17  1  0
 16 18  1  0
 18 19  1  0
 18 20  2  0
 20 21  1  0
 20 22  1  0
 22 23  1  0
 23 24  2  0
 23 25  1  0
 25 26  1  0
 26 27  1  0
 26 28  1  0
 26 29  1  0
 22 30  2  0
 30 31  1  0
 13 32  1  0
 32 33  1  0
 32 34  2  0
 34 35  1  0
  4 36  1  0
 36 37  1  0
 36 38  2  0
 38 39  1  0
 38 40  1  0
 40 41  1  0
 40  2  2  0
 34  8  1  0
 30 15  1  0
M  CHG  3   3  -1  20   1  25  -1
M  END
>  <UniqueID>  (29) 
27

>  <SMILES>  (29) 
C[N-]C(=O)c1cc(Oc2ccc(C(=O)/N=c3\[n-]cccc3F)cc2)cc[nH+]1

>  <Energy>  (29) 
62.58750881383909

>  <Genealogy>  (29) 
C[N-]C(=O)c1cc(Oc2ccc(C(=O)N=c3[n-]cccc3F)cc2)cc[nH+]1 (protonated)
C[N-]C(=O)c1cc(Oc2ccc(C(=O)/N=c3\[n-]cccc3F)cc2)cc[nH+]1 (cis-trans isomerization)
C[N-]C(=O)c1cc(Oc2ccc(C(=O)/N=c3\[n-]cccc3F)cc2)cc[nH+]1 (3D coordinates assigned)
C[N-]C(=O)c1cc(Oc2ccc(C(=O)/N=c3\[n-]cccc3F)cc2)cc[nH+]1 (optimized conformer: 62.58750881383909 kcal/mol)

>  <smiles>  (29) 
CNC(=O)c1cc(Oc2ccc(C(=O)N=c3[nH]cccc3F)cc2)ccn1

>  <score_type>  (29) 
oracle

>  <origin>  (29) 
adg

>  <m_score__min__energy>  (29) 
-9.8599999999999994

>  <m_primary>  (29) 
energy

$$$$
29:0
     RDKit          3D

 29 30  0  0  0  0  0  0  0  0999 V2000
   57.6770   32.4070   43.1870 O   0  0  0  0  0  0  0  0  0  0  0  0
   57.3140   31.5770   44.0640 C   0  0  0  0  0  0  0  0  0  0  0  0
   56.5770   30.3410   43.6440 C   0  0  0  0  0  0  0  0  0  0  0  0
   56.0930   29.6420   44.7880 O   0  0  0  0  0  0  0  0  0  0  0  0
   56.6520   28.4460   45.2550 C   0  0  0  0  0  0  0  0  0  0  0  0
   58.0410   28.3270   45.3480 C   0  0  0  0  0  0  0  0  0  0  0  0
   58.5980   27.1370   45.8230 C   0  0  0  0  0  0  0  0  0  0  0  0
   57.7650   26.0810   46.1970 C   0  0  0  0  0  0  0  0  0  0  0  0
   56.3800   26.2330   46.0880 C   0  0  0  0  0  0  0  0  0  0  0  0
   55.6110   25.2920   46.4200 O   0  0  0  0  0  0  0  0  0  0  0  0
   55.8590   27.3990   45.6220 N   0  0  0  0  0  0  0  0  0  0  0  0
   57.6090   31.8070   45.4490 N   0  0  0  0  0  0  0  0  0  0  0  0
   58.5950   32.7480   45.9000 C   0  0  0  0  0  0  0  0  0  0  0  0
   59.7390   32.2760   46.5640 C   0  0  0  0  0  0  0  0  0  0  0  0
   60.7240   33.1700   46.9960 C   0  0  0  0  0  0  0  0  0  0  0  0
   60.5820   34.5380   46.7550 C   0  0  0  0  0  0  0  0  0  0  0  0
   59.4610   35.0150   46.0710 C   0  0  0  0  0  0  0  0  0  0  0  0
   58.4710   34.1260   45.6360 C   0  0  0  0  0  0  0  0  0  0  0  0
   57.4250   34.6060   44.9180 F   0  0  0  0  0  0  0  0  0  0  0  0
   55.7274   30.6243   43.0053 H   0  0  0  0  0  0  0  0  0  0  0  0
   57.2638   29.6859   43.0880 H   0  0  0  0  0  0  0  0  0  0  0  0
   58.6905   29.1632   45.0498 H   0  0  0  0  0  0  0  0  0  0  0  0
   59.6902   27.0324   45.9021 H   0  0  0  0  0  0  0  0  0  0  0  0
   58.1937   25.1404   46.5731 H   0  0  0  0  0  0  0  0  0  0  0  0
   57.0200   31.3270   46.1670 H   0  0  0  0  0  0  0  0  0  0  0  0
   59.8609   31.1979   46.7452 H   0  0  0  0  0  0  0  0  0  0  0  0
   61.6117   32.7949   47.5263 H   0  0  0  0  0  0  0  0  0  0  0  0
   61.3532   35.2406   47.1039 H   0  0  0  0  0  0  0  0  0  0  0  0
   59.3561   36.0921   45.8737 H   0  0  0  0  0  0  0  0  0  0  0  0
  1  2  2  0
  2  3  1  0
  3  4  1  0
  4  5  1  0
  5  6  2  0
  6  7  1  0
  7  8  2  0
  8  9  1  0
  9 10  2  0
  9 11  1  0
  2 12  1  0
 12 13  1  0
 13 14  2  0
 14 15  1  0
 15 16  2  0
 16 17  1  0
 17 18  2  0
 18 19  1  0
 11  5  1  0
 18 13  1  0
  3 20  1  0
  3 21  1  0
  6 22  1  0
  7 23  1  0
  8 24  1  0
 12 25  1  0
 14 26  1  0
 15 27  1  0
 16 28  1  0
 17 29  1  0
M  CHG  1  11  -1
M  END
>  <UniqueID>  (30) 
28

>  <SMILES>  (30) 
O=C(COc1cccc(=O)[n-]1)Nc1ccccc1F

>  <Energy>  (30) 
31.932311863112524

>  <Genealogy>  (30) 
O=C(COc1cccc(=O)[n-]1)Nc1ccccc1F (protonated)
O=C(COc1cccc(=O)[n-]1)Nc1ccccc1F (3D coordinates assigned)
O=C(COc1cccc(=O)[n-]1)Nc1ccccc1F (optimized conformer: 31.932311863112524 kcal/mol)

>  <smiles>  (30) 
O=C(COc1cccc(=O)[nH]1)Nc1ccccc1F

>  <score_type>  (30) 
oracle

>  <origin>  (30) 
adg

>  <m_score__min__energy>  (30) 
-9.6199999999999992

>  <m_primary>  (30) 
energy

$$$$
30:0
     RDKit          3D

 33 34  0  0  0  0  0  0  0  0999 V2000
   56.6940   30.7340   42.6010 C   0  0  0  0  0  0  0  0  0  0  0  0
   57.3470   29.7490   43.4540 N   0  0  0  0  0  0  0  0  0  0  0  0
   56.6850   29.1810   44.5930 C   0  0  0  0  0  0  0  0  0  0  0  0
   55.5080   29.5330   44.8740 O   0  0  0  0  0  0  0  0  0  0  0  0
   57.3810   28.1890   45.4450 C   0  0  0  0  0  0  0  0  0  0  0  0
   56.7790   26.9330   45.6400 C   0  0  0  0  0  0  0  0  0  0  0  0
   57.4080   25.9550   46.4130 C   0  0  0  0  0  0  0  0  0  0  0  0
   58.6440   26.2160   47.0010 C   0  0  0  0  0  0  0  0  0  0  0  0
   59.2530   27.4600   46.8280 C   0  0  0  0  0  0  0  0  0  0  0  0
   58.6300   28.4640   46.0650 C   0  0  0  0  0  0  0  0  0  0  0  0
   59.3090   29.8130   45.9510 C   0  0  0  0  0  0  0  0  0  0  0  0
   58.4380   30.8670   46.3630 O   0  0  0  0  0  0  0  0  0  0  0  0
   58.5570   32.2150   45.9860 C   0  0  0  0  0  0  0  0  0  0  0  0
   57.5720   32.8800   45.2290 C   0  0  0  0  0  0  0  0  0  0  0  0
   57.7470   34.2220   44.8730 C   0  0  0  0  0  0  0  0  0  0  0  0
   58.8980   34.9080   45.2690 C   0  0  0  0  0  0  0  0  0  0  0  0
   59.8740   34.2560   46.0250 C   0  0  0  0  0  0  0  0  0  0  0  0
   59.7020   32.9140   46.3830 C   0  0  0  0  0  0  0  0  0  0  0  0
   56.1943   31.4877   43.2273 H   0  0  0  0  0  0  0  0  0  0  0  0
   57.4460   31.2251   41.9659 H   0  0  0  0  0  0  0  0  0  0  0  0
   55.9488   30.2326   41.9659 H   0  0  0  0  0  0  0  0  0  0  0  0
   58.3060   29.4220   43.1950 H   0  0  0  0  0  0  0  0  0  0  0  0
   55.8034   26.7191   45.1792 H   0  0  0  0  0  0  0  0  0  0  0  0
   56.9268   24.9765   46.5581 H   0  0  0  0  0  0  0  0  0  0  0  0
   59.1406   25.4404   47.6025 H   0  0  0  0  0  0  0  0  0  0  0  0
   60.2301   27.6572   47.2931 H   0  0  0  0  0  0  0  0  0  0  0  0
   60.2052   29.8184   46.5888 H   0  0  0  0  0  0  0  0  0  0  0  0
   59.5808   29.9778   44.8979 H   0  0  0  0  0  0  0  0  0  0  0  0
   56.6638   32.3433   44.9173 H   0  0  0  0  0  0  0  0  0  0  0  0
   56.9771   34.7377   44.2804 H   0  0  0  0  0  0  0  0  0  0  0  0
   59.0352   35.9618   44.9851 H   0  0  0  0  0  0  0  0  0  0  0  0
   60.7785   34.7973   46.3394 H   0  0  0  0  0  0  0  0  0  0  0  0
   60.4726   32.4052   46.9808 H   0  0  0  0  0  0  0  0  0  0  0  0
  1  2  1  0
  2  3  1  0
  3  4  2  0
  3  5  1  0
  5  6  2  0
  6  7  1  0
  7  8  2  0
  8  9  1  0
  9 10  2  0
 10 11  1  0
 11 12  1  0
 12 13  1  0
 13 14  2  0
 14 15  1  0
 15 16  2  0
 16 17  1  0
 17 18  2  0
 10  5  1  0
 18 13  1  0
  1 19  1  0
  1 20  1  0
  1 21  1  0
  2 22  1  0
  6 23  1  0
  7 24  1  0
  8 25  1  0
  9 26  1  0
 11 27  1  0
 11 28  1  0
 14 29  1  0
 15 30  1  0
 16 31  1  0
 17 32  1  0
 18 33  1  0
M  END
>  <UniqueID>  (31) 
29

>  <SMILES>  (31) 
CNC(=O)c1ccccc1COc1ccccc1

>  <Energy>  (31) 
35.67344684114839

>  <Genealogy>  (31) 
CNC(=O)c1ccccc1COc1ccccc1 (3D coordinates assigned)
CNC(=O)c1ccccc1COc1ccccc1 (optimized conformer: 35.67344684114839 kcal/mol)

>  <smiles>  (31) 
CNC(=O)c1ccccc1COc1ccccc1

>  <score_type>  (31) 
oracle

>  <origin>  (31) 
adg

>  <m_score__min__energy>  (31) 
-6.7699999999999996

>  <m_primary>  (31) 
energy

$$$$
31:0
     RDKit          3D

 41 44  0  0  0  0  0  0  0  0999 V2000
   58.6990   34.7500   44.7340 O   0  0  0  0  0  0  0  0  0  0  0  0
   58.2460   33.7290   45.3140 C   0  0  0  0  0  0  0  0  0  0  0  0
   57.8580   33.8270   46.7630 C   0  0  0  0  0  0  0  0  0  0  0  0
   58.9300   34.3780   47.5270 O   0  0  0  0  0  0  0  0  0  0  0  0
   60.2240   33.8330   47.6240 C   0  0  0  0  0  0  0  0  0  0  0  0
   61.1740   33.9770   46.5960 C   0  0  0  0  0  0  0  0  0  0  0  0
   62.4560   33.4560   46.7490 C   0  0  0  0  0  0  0  0  0  0  0  0
   62.7880   32.7910   47.9270 C   0  0  0  0  0  0  0  0  0  0  0  0
   61.8660   32.6450   48.9150 N   0  0  0  0  0  0  0  0  0  0  0  0
   60.5950   33.1360   48.7930 C   0  0  0  0  0  0  0  0  0  0  0  0
   59.6320   32.9420   49.9050 C   0  0  0  0  0  0  0  0  0  0  0  0
   58.6890   31.9030   49.8460 C   0  0  0  0  0  0  0  0  0  0  0  0
   57.7720   31.7220   50.8870 C   0  0  0  0  0  0  0  0  0  0  0  0
   57.7840   32.5800   51.9890 C   0  0  0  0  0  0  0  0  0  0  0  0
   58.7110   33.6240   52.0510 C   0  0  0  0  0  0  0  0  0  0  0  0
   59.6300   33.8080   51.0140 C   0  0  0  0  0  0  0  0  0  0  0  0
   58.1830   32.4930   44.5920 N   0  0  0  0  0  0  0  0  0  0  0  0
   58.1910   31.1790   45.1670 C   0  0  0  0  0  0  0  0  0  0  0  0
   59.2590   30.7080   45.9670 C   0  0  0  0  0  0  0  0  0  0  0  0
   59.2070   29.4160   46.5410 C   0  0  0  0  0  0  0  0  0  0  0  0
   58.0860   28.5890   46.3380 C   0  0  0  0  0  0  0  0  0  0  0  0
   57.0430   29.0910   45.5650 C   0  0  0  0  0  0  0  0  0  0  0  0
   55.8860   28.4860   45.2470 N   0  0  0  0  0  0  0  0  0  0  0  0
   55.1940   29.3340   44.4920 N   0  0  0  0  0  0  0  0  0  0  0  0
   55.9070   30.4740   44.3290 C   0  0  0  0  0  0  0  0  0  0  0  0
   57.0920   30.3360   45.0110 C   0  0  0  0  0  0  0  0  0  0  0  0
   56.9739   34.4745   46.8589 H   0  0  0  0  0  0  0  0  0  0  0  0
   57.6302   32.8195   47.1412 H   0  0  0  0  0  0  0  0  0  0  0  0
   60.9029   34.5028   45.6686 H   0  0  0  0  0  0  0  0  0  0  0  0
   63.2001   33.5685   45.9467 H   0  0  0  0  0  0  0  0  0  0  0  0
   63.8007   32.3822   48.0583 H   0  0  0  0  0  0  0  0  0  0  0  0
   62.1450   32.1260   49.7780 H   0  0  0  0  0  0  0  0  0  0  0  0
   58.6713   31.2284   48.9773 H   0  0  0  0  0  0  0  0  0  0  0  0
   57.0401   30.9023   50.8375 H   0  0  0  0  0  0  0  0  0  0  0  0
   57.0641   32.4341   52.8078 H   0  0  0  0  0  0  0  0  0  0  0  0
   58.7174   34.3020   52.9172 H   0  0  0  0  0  0  0  0  0  0  0  0
   60.3550   34.6337   51.0651 H   0  0  0  0  0  0  0  0  0  0  0  0
   60.1345   31.3501   46.1436 H   0  0  0  0  0  0  0  0  0  0  0  0
   60.0486   29.0550   47.1504 H   0  0  0  0  0  0  0  0  0  0  0  0
   58.0361   27.5808   46.7752 H   0  0  0  0  0  0  0  0  0  0  0  0
   55.5925   31.3560   43.7517 H   0  0  0  0  0  0  0  0  0  0  0  0
  1  2  2  0
  2  3  1  0
  3  4  1  0
  4  5  1  0
  5  6  2  0
  6  7  1  0
  7  8  2  0
  8  9  1  0
  9 10  2  0
 10 11  1  0
 11 12  2  0
 12 13  1  0
 13 14  2  0
 14 15  1  0
 15 16  2  0
  2 17  1  0
 17 18  1  0
 18 19  2  0
 19 20  1  0
 20 21  2  0
 21 22  1  0
 22 23  1  0
 23 24  1  0
 24 25  2  0
 25 26  1  0
 10  5  1  0
 16 11  1  0
 26 18  1  0
 26 22  2  0
  3 27  1  0
  3 28  1  0
  6 29  1  0
  7 30  1  0
  8 31  1  0
  9 32  1  0
 12 33  1  0
 13 34  1  0
 14 35  1  0
 15 36  1  0
 16 37  1  0
 19 38  1  0
 20 39  1  0
 21 40  1  0
 25 41  1  0
M  CHG  3   9   1  17  -1  23  -1
M  END
>  <UniqueID>  (32) 
30

>  <SMILES>  (32) 
O=C(COc1ccc[nH+]c1-c1ccccc1)[N-]c1cccc2[n-]ncc12

>  <Energy>  (32) 
93.44070788954203

>  <Genealogy>  (32) 
O=C(COc1ccc[nH+]c1-c1ccccc1)[N-]c1cccc2[n-]ncc12 (protonated)
O=C(COc1ccc[nH+]c1-c1ccccc1)[N-]c1cccc2[n-]ncc12 (3D coordinates assigned)
O=C(COc1ccc[nH+]c1-c1ccccc1)[N-]c1cccc2[n-]ncc12 (optimized conformer: 93.44070788954203 kcal/mol)

>  <smiles>  (32) 
O=C(COc1cccnc1-c1ccccc1)Nc1cccc2[nH]ncc12

>  <score_type>  (32) 
oracle

>  <origin>  (32) 
adg

>  <m_score__min__energy>  (32) 
-9.4000000000000004

>  <m_primary>  (32) 
energy

$$$$
32:0
     RDKit          3D

 77 83  0  0  0  0  0  0  0  0999 V2000
   57.8560   27.2640   44.3470 C   0  0  0  0  0  0  0  0  0  0  0  0
   57.7710   28.7660   44.3790 C   0  0  0  0  0  0  0  0  0  0  0  0
   56.8650   29.4260   43.5350 C   0  0  0  0  0  0  0  0  0  0  0  0
   56.7620   30.8180   43.5610 C   0  0  0  0  0  0  0  0  0  0  0  0
   57.5530   31.5750   44.4350 C   0  0  0  0  0  0  0  0  0  0  0  0
   57.3990   33.0020   44.4410 N   0  0  0  0  0  0  0  0  0  0  0  0
   58.2620   33.9070   45.1390 C   0  0  0  0  0  0  0  0  0  0  0  0
   58.6570   34.9500   44.5520 O   0  0  0  0  0  0  0  0  0  0  0  0
   58.6230   33.6650   46.5540 C   0  0  0  0  0  0  0  0  0  0  0  0
   57.8220   32.8460   47.3690 C   0  0  0  0  0  0  0  0  0  0  0  0
   58.1420   32.6630   48.7190 C   0  0  0  0  0  0  0  0  0  0  0  0
   59.2550   33.3070   49.2910 C   0  0  0  0  0  0  0  0  0  0  0  0
   59.5020   33.2060   50.7160 N   0  0  0  0  0  0  0  0  0  0  0  0
   58.9360   34.1720   51.6710 C   0  0  0  0  0  0  0  0  0  0  0  0
   57.7970   33.4960   52.4450 C   0  0  0  0  0  0  0  0  0  0  0  0
   58.1390   32.0980   52.7560 N   0  0  0  0  0  0  0  0  0  0  0  0
   57.0800   31.1190   52.8600 C   0  0  0  0  0  0  0  0  0  0  0  0
   57.1610   30.0910   53.8170 C   0  0  0  0  0  0  0  0  0  0  0  0
   56.1010   29.1860   53.9440 C   0  0  0  0  0  0  0  0  0  0  0  0
   54.9960   29.3070   53.1530 N   0  0  0  0  0  0  0  0  0  0  0  0
   54.8900   30.2930   52.2200 C   0  0  0  0  0  0  0  0  0  0  0  0
   55.9280   31.2150   52.0530 C   0  0  0  0  0  0  0  0  0  0  0  0
   59.5450   31.6760   52.6740 C   0  0  0  0  0  0  0  0  0  0  0  0
   60.0790   31.9610   51.2620 C   0  0  0  0  0  0  0  0  0  0  0  0
   60.0590   34.1160   48.4670 C   0  0  0  0  0  0  0  0  0  0  0  0
   59.7540   34.2820   47.1140 C   0  0  0  0  0  0  0  0  0  0  0  0
   58.4600   30.9220   45.2870 C   0  0  0  0  0  0  0  0  0  0  0  0
   58.5770   29.5210   45.2580 C   0  0  0  0  0  0  0  0  0  0  0  0
   59.4830   28.8650   46.1560 N   0  0  0  0  0  0  0  0  0  0  0  0
   60.3950   29.5650   47.0260 C   0  0  0  0  0  0  0  0  0  0  0  0
   60.5270   29.2280   48.4000 C   0  0  0  0  0  0  0  0  0  0  0  0
   61.3650   29.9720   49.2490 C   0  0  0  0  0  0  0  0  0  0  0  0
   62.0640   31.0520   48.7080 C   0  0  0  0  0  0  0  0  0  0  0  0
   61.9530   31.3800   47.3660 C   0  0  0  0  0  0  0  0  0  0  0  0
   61.1230   30.6570   46.5110 C   0  0  0  0  0  0  0  0  0  0  0  0
   62.6660   32.4020   47.0190 N   0  0  0  0  0  0  0  0  0  0  0  0
   63.3090   32.7820   48.2300 C   0  0  0  0  0  0  0  0  0  0  0  0
   64.1310   33.7320   48.3250 O   0  0  0  0  0  0  0  0  0  0  0  0
   62.8890   31.9010   49.3080 C   0  0  0  0  0  0  0  0  0  0  0  0
   63.3510   31.9080   50.7360 C   0  0  0  0  0  0  0  0  0  0  0  0
   64.8330   31.7040   50.8080 C   0  0  0  0  0  0  0  0  0  0  0  0
   65.4770   30.6950   51.4960 C   0  0  0  0  0  0  0  0  0  0  0  0
   66.8330   30.9020   51.3120 C   0  0  0  0  0  0  0  0  0  0  0  0
   66.9570   32.0240   50.5150 C   0  0  0  0  0  0  0  0  0  0  0  0
   65.7370   32.5100   50.2130 N   0  0  0  0  0  0  0  0  0  0  0  0
   57.8780   26.8760   45.3761 H   0  0  0  0  0  0  0  0  0  0  0  0
   56.9794   26.8583   43.8208 H   0  0  0  0  0  0  0  0  0  0  0  0
   58.7728   26.9598   43.8208 H   0  0  0  0  0  0  0  0  0  0  0  0
   56.2324   28.8434   42.8491 H   0  0  0  0  0  0  0  0  0  0  0  0
   56.0535   31.3249   42.8893 H   0  0  0  0  0  0  0  0  0  0  0  0
   56.9392   32.3465   46.9433 H   0  0  0  0  0  0  0  0  0  0  0  0
   57.5154   32.0072   49.3413 H   0  0  0  0  0  0  0  0  0  0  0  0
   59.7173   34.4979   52.3734 H   0  0  0  0  0  0  0  0  0  0  0  0
   58.5502   35.0487   51.1301 H   0  0  0  0  0  0  0  0  0  0  0  0
   57.6234   34.0429   53.3835 H   0  0  0  0  0  0  0  0  0  0  0  0
   56.8897   33.5089   51.8232 H   0  0  0  0  0  0  0  0  0  0  0  0
   58.0492   29.9994   54.4595 H   0  0  0  0  0  0  0  0  0  0  0  0
   56.1590   28.3743   54.6841 H   0  0  0  0  0  0  0  0  0  0  0  0
   53.9865   30.3644   51.5967 H   0  0  0  0  0  0  0  0  0  0  0  0
   55.8462   32.0099   51.2970 H   0  0  0  0  0  0  0  0  0  0  0  0
   60.1399   32.2346   53.4116 H   0  0  0  0  0  0  0  0  0  0  0  0
   59.6195   30.5992   52.8858 H   0  0  0  0  0  0  0  0  0  0  0  0
   61.1736   32.0613   51.3054 H   0  0  0  0  0  0  0  0  0  0  0  0
   59.7927   31.1262   50.6054 H   0  0  0  0  0  0  0  0  0  0  0  0
   60.9372   34.6232   48.8929 H   0  0  0  0  0  0  0  0  0  0  0  0
   60.4058   34.9019   46.4808 H   0  0  0  0  0  0  0  0  0  0  0  0
   59.0810   31.5093   45.9794 H   0  0  0  0  0  0  0  0  0  0  0  0
   59.6250   27.8360   46.0200 H   0  0  0  0  0  0  0  0  0  0  0  0
   59.9657   28.3731   48.8051 H   0  0  0  0  0  0  0  0  0  0  0  0
   61.4671   29.7096   50.3124 H   0  0  0  0  0  0  0  0  0  0  0  0
   61.0372   30.9343   45.4500 H   0  0  0  0  0  0  0  0  0  0  0  0
   63.0958   32.8748   51.1944 H   0  0  0  0  0  0  0  0  0  0  0  0
   62.8522   31.0895   51.2757 H   0  0  0  0  0  0  0  0  0  0  0  0
   65.0060   29.8872   52.0752 H   0  0  0  0  0  0  0  0  0  0  0  0
   67.6523   30.2922   51.7206 H   0  0  0  0  0  0  0  0  0  0  0  0
   67.9104   32.4564   50.1771 H   0  0  0  0  0  0  0  0  0  0  0  0
   65.5390   33.3550   49.6300 H   0  0  0  0  0  0  0  0  0  0  0  0
  1  2  1  0
  2  3  2  0
  3  4  1  0
  4  5  2  0
  5  6  1  0
  6  7  1  0
  7  8  2  0
  7  9  1  0
  9 10  2  0
 10 11  1  0
 11 12  2  0
 12 13  1  0
 13 14  1  0
 14 15  1  0
 15 16  1  0
 16 17  1  0
 17 18  2  0
 18 19  1  0
 19 20  2  0
 20 21  1  0
 21 22  2  0
 16 23  1  0
 23 24  1  0
 12 25  1  0
 25 26  2  0
  5 27  1  0
 27 28  2  0
 28 29  1  0
 29 30  1  0
 30 31  1  0
 31 32  2  0
 32 33  1  0
 33 34  1  0
 34 35  1  0
 34 36  2  0
 36 37  1  0
 37 38  2  0
 37 39  1  0
 39 40  1  0
 40 41  1  0
 41 42  2  0
 42 43  1  0
 43 44  2  0
 44 45  1  0
 28  2  1  0
 35 30  2  0
 45 41  1  0
 26  9  1  0
 39 33  2  0
 24 13  1  0
 22 17  1  0
  1 46  1  0
  1 47  1  0
  1 48  1  0
  3 49  1  0
  4 50  1  0
 10 51  1  0
 11 52  1  0
 14 53  1  0
 14 54  1  0
 15 55  1  0
 15 56  1  0
 18 57  1  0
 19 58  1  0
 21 59  1  0
 22 60  1  0
 23 61  1  0
 23 62  1  0
 24 63  1  0
 24 64  1  0
 25 65  1  0
 26 66  1  0
 27 67  1  0
 29 68  1  0
 31 69  1  0
 32 70  1  0
 35 71  1  0
 40 72  1  0
 40 73  1  0
 42 74  1  0
 43 75  1  0
 44 76  1  0
 45 77  1  0
M  CHG  1   6  -1
M  END
>  <UniqueID>  (33) 
31

>  <SMILES>  (33) 
Cc1ccc([N-]C(=O)c2ccc(N3CCN(c4ccncc4)CC3)cc2)cc1Nc1ccc2c(c1)=NC(=O)C=2Cc1ccc[nH]1

>  <Energy>  (33) 
170.1935527722551

>  <Genealogy>  (33) 
Cc1ccc([N-]C(=O)c2ccc(N3CCN(c4ccncc4)CC3)cc2)cc1Nc1ccc2c(c1)=NC(=O)C=2Cc1ccc[nH]1 (protonated)
Cc1ccc([N-]C(=O)c2ccc(N3CCN(c4ccncc4)CC3)cc2)cc1Nc1ccc2c(c1)=NC(=O)C=2Cc1ccc[nH]1 (3D coordinates assigned)
Cc1ccc([N-]C(=O)c2ccc(N3CCN(c4ccncc4)CC3)cc2)cc1Nc1ccc2c(c1)=NC(=O)C=2Cc1ccc[nH]1 (nonaromatic ring conformer: 170.1935527722551 kcal/mol)

>  <smiles>  (33) 
Cc1ccc(NC(=O)c2ccc(N3CCN(c4ccncc4)CC3)cc2)cc1Nc1ccc2c(c1)=NC(=O)C=2Cc1ccc[nH]1

>  <score_type>  (33) 
oracle

>  <origin>  (33) 
adg

>  <m_score__min__energy>  (33) 
-11.609999999999999

>  <m_primary>  (33) 
energy

$$$$
33:0
     RDKit          3D

 63 65  0  0  0  0  0  0  0  0999 V2000
   61.4480   29.1860   51.1510 C   0  0  0  0  0  0  0  0  0  0  0  0
   60.1310   28.8080   50.4450 C   0  0  0  0  0  0  0  0  0  0  0  0
   60.4180   27.8140   49.3040 C   0  0  0  0  0  0  0  0  0  0  0  0
   59.3960   30.0660   49.9140 C   0  0  1  0  0  0  0  0  0  0  0  0
   58.7710   29.7860   48.6220 N   0  0  0  0  0  0  0  0  0  0  0  0
   59.3340   30.1950   47.3690 C   0  0  0  0  0  0  0  0  0  0  0  0
   60.4930   30.6980   47.3420 O   0  0  0  0  0  0  0  0  0  0  0  0
   58.5570   30.0530   46.1050 C   0  0  0  0  0  0  0  0  0  0  0  0
   58.6760   31.0340   45.0970 C   0  0  0  0  0  0  0  0  0  0  0  0
   57.9480   30.9310   43.9080 C   0  0  0  0  0  0  0  0  0  0  0  0
   57.0930   29.8480   43.7040 C   0  0  0  0  0  0  0  0  0  0  0  0
   56.9780   28.8570   44.6830 C   0  0  0  0  0  0  0  0  0  0  0  0
   57.7000   28.9520   45.8760 C   0  0  0  0  0  0  0  0  0  0  0  0
   57.5390   27.9750   46.8070 F   0  0  0  0  0  0  0  0  0  0  0  0
   58.3380   30.5300   50.8750 C   0  0  0  0  0  0  0  0  0  0  0  0
   57.4320   29.7360   51.2470 O   0  0  0  0  0  0  0  0  0  0  0  0
   58.3320   31.8630   51.2930 O   0  0  0  0  0  0  0  0  0  0  0  0
   58.8900   32.9250   50.5200 C   0  0  0  0  0  0  0  0  0  0  0  0
   60.3570   33.0300   50.8060 C   0  0  0  0  0  0  0  0  0  0  0  0
   60.7540   33.6840   51.8100 O   0  0  0  0  0  0  0  0  0  0  0  0
   61.2990   32.4530   49.8870 N   0  0  0  0  0  0  0  0  0  0  0  0
   62.7250   32.5550   50.0310 C   0  0  0  0  0  0  0  0  0  0  0  0
   63.3470   32.0810   51.1990 C   0  0  0  0  0  0  0  0  0  0  0  0
   64.7380   32.0600   51.3030 C   0  0  0  0  0  0  0  0  0  0  0  0
   65.5250   32.4990   50.2380 C   0  0  0  0  0  0  0  0  0  0  0  0
   64.9230   32.9670   49.0680 C   0  0  0  0  0  0  0  0  0  0  0  0
   63.5230   33.0090   48.9520 C   0  0  0  0  0  0  0  0  0  0  0  0
   62.9190   33.5410   47.7100 C   0  0  0  0  0  0  0  0  0  0  0  0
   63.6360   34.1350   46.8570 O   0  0  0  0  0  0  0  0  0  0  0  0
   61.5160   33.3910   47.4780 N   0  0  0  0  0  0  0  0  0  0  0  0
   60.5390   34.4430   47.7440 C   0  0  0  0  0  0  0  0  0  0  0  0
   59.3270   34.2460   46.8760 C   0  0  0  0  0  0  0  0  0  0  0  0
   59.2960   34.7410   45.5570 C   0  0  0  0  0  0  0  0  0  0  0  0
   58.1450   34.5890   44.7760 C   0  0  0  0  0  0  0  0  0  0  0  0
   57.0190   33.9460   45.3050 C   0  0  0  0  0  0  0  0  0  0  0  0
   57.0430   33.4570   46.6130 C   0  0  0  0  0  0  0  0  0  0  0  0
   58.1890   33.6110   47.4020 C   0  0  0  0  0  0  0  0  0  0  0  0
   61.3047   29.1449   52.2409 H   0  0  0  0  0  0  0  0  0  0  0  0
   62.2374   28.4782   50.8580 H   0  0  0  0  0  0  0  0  0  0  0  0
   61.7418   30.2047   50.8580 H   0  0  0  0  0  0  0  0  0  0  0  0
   59.4668   28.3262   51.1776 H   0  0  0  0  0  0  0  0  0  0  0  0
   60.6994   26.8392   49.7290 H   0  0  0  0  0  0  0  0  0  0  0  0
   59.5169   27.6973   48.6841 H   0  0  0  0  0  0  0  0  0  0  0  0
   61.2427   28.1956   48.6841 H   0  0  0  0  0  0  0  0  0  0  0  0
   60.1486   30.8603   49.8014 H   0  0  0  0  0  0  0  0  0  0  0  0
   59.3499   31.8900   45.2489 H   0  0  0  0  0  0  0  0  0  0  0  0
   58.0495   31.7047   43.1327 H   0  0  0  0  0  0  0  0  0  0  0  0
   56.5101   29.7739   42.7741 H   0  0  0  0  0  0  0  0  0  0  0  0
   56.3145   27.9962   44.5133 H   0  0  0  0  0  0  0  0  0  0  0  0
   58.7383   32.7193   49.4501 H   0  0  0  0  0  0  0  0  0  0  0  0
   58.3952   33.8713   50.7839 H   0  0  0  0  0  0  0  0  0  0  0  0
   60.9220   31.9820   49.0310 H   0  0  0  0  0  0  0  0  0  0  0  0
   62.7318   31.7237   52.0380 H   0  0  0  0  0  0  0  0  0  0  0  0
   65.2147   31.6970   52.2255 H   0  0  0  0  0  0  0  0  0  0  0  0
   66.6217   32.4765   50.3200 H   0  0  0  0  0  0  0  0  0  0  0  0
   65.5500   33.3057   48.2300 H   0  0  0  0  0  0  0  0  0  0  0  0
   60.2403   34.4045   48.8020 H   0  0  0  0  0  0  0  0  0  0  0  0
   60.9897   35.4212   47.5207 H   0  0  0  0  0  0  0  0  0  0  0  0
   60.1788   35.2481   45.1404 H   0  0  0  0  0  0  0  0  0  0  0  0
   58.1246   34.9747   43.7461 H   0  0  0  0  0  0  0  0  0  0  0  0
   56.1150   33.8260   44.6899 H   0  0  0  0  0  0  0  0  0  0  0  0
   56.1583   32.9491   47.0246 H   0  0  0  0  0  0  0  0  0  0  0  0
   58.1988   33.2343   48.4355 H   0  0  0  0  0  0  0  0  0  0  0  0
  1  2  1  0
  2  3  1  0
  2  4  1  0
  4  5  1  0
  5  6  1  0
  6  7  2  0
  6  8  1  0
  8  9  2  0
  9 10  1  0
 10 11  2  0
 11 12  1  0
 12 13  2  0
 13 14  1  0
  4 15  1  0
 15 16  2  0
 15 17  1  0
 17 18  1  0
 18 19  1  0
 19 20  2  0
 19 21  1  0
 21 22  1  0
 22 23  2  0
 23 24  1  0
 24 25  2  0
 25 26  1  0
 26 27  2  0
 27 28  1  0
 28 29  2  0
 28 30  1  0
 30 31  1  0
 31 32  1  0
 32 33  2  0
 33 34  1  0
 34 35  2  0
 35 36  1  0
 36 37  2  0
 13  8  1  0
 27 22  1  0
 37 32  1  0
  1 38  1  0
  1 39  1  0
  1 40  1  0
  2 41  1  0
  3 42  1  0
  3 43  1  0
  3 44  1  0
  4 45  1  6
  9 46  1  0
 10 47  1  0
 11 48  1  0
 12 49  1  0
 18 50  1  0
 18 51  1  0
 21 52  1  0
 23 53  1  0
 24 54  1  0
 25 55  1  0
 26 56  1  0
 31 57  1  0
 31 58  1  0
 33 59  1  0
 34 60  1  0
 35 61  1  0
 36 62  1  0
 37 63  1  0
M  CHG  2   5  -1  30  -1
M  END
>  <UniqueID>  (34) 
32

>  <SMILES>  (34) 
CC(C)[C@@H]([N-]C(=O)c1ccccc1F)C(=O)OCC(=O)Nc1ccccc1C(=O)[N-]Cc1ccccc1

>  <Energy>  (34) 
63.66583956972951

>  <Genealogy>  (34) 
CC(C)C([N-]C(=O)c1ccccc1F)C(=O)OCC(=O)Nc1ccccc1C(=O)[N-]Cc1ccccc1 (protonated)
CC(C)[C@@H]([N-]C(=O)c1ccccc1F)C(=O)OCC(=O)Nc1ccccc1C(=O)[N-]Cc1ccccc1 (chirality)
CC(C)[C@@H]([N-]C(=O)c1ccccc1F)C(=O)OCC(=O)Nc1ccccc1C(=O)[N-]Cc1ccccc1 (3D coordinates assigned)
CC(C)[C@@H]([N-]C(=O)c1ccccc1F)C(=O)OCC(=O)Nc1ccccc1C(=O)[N-]Cc1ccccc1 (optimized conformer: 63.66583956972951 kcal/mol)

>  <smiles>  (34) 
CC(C)C(NC(=O)c1ccccc1F)C(=O)OCC(=O)Nc1ccccc1C(=O)NCc1ccccc1

>  <score_type>  (34) 
oracle

>  <origin>  (34) 
adg

>  <m_score__min__energy>  (34) 
-13.039999999999999

>  <m_primary>  (34) 
energy

$$$$
34:0
     RDKit          3D

 49 52  0  0  0  0  0  0  0  0999 V2000
   55.8030   25.7280   46.6860 O   0  0  0  0  0  0  0  0  0  0  0  0
   56.9340   26.2200   46.4350 C   0  0  0  0  0  0  0  0  0  0  0  0
   58.0890   25.7810   47.1600 N   0  0  0  0  0  0  0  0  0  0  0  0
   59.4490   25.8570   46.6520 C   0  0  0  0  0  0  0  0  0  0  0  0
   59.9360   27.2800   46.7150 C   0  0  0  0  0  0  0  0  0  0  0  0
   59.9140   27.9740   47.9370 C   0  0  0  0  0  0  0  0  0  0  0  0
   60.3280   29.3070   47.9980 C   0  0  0  0  0  0  0  0  0  0  0  0
   60.7530   29.9600   46.8360 C   0  0  0  0  0  0  0  0  0  0  0  0
   60.7650   29.2800   45.6160 C   0  0  0  0  0  0  0  0  0  0  0  0
   60.3550   27.9440   45.5530 C   0  0  0  0  0  0  0  0  0  0  0  0
   57.0700   27.2440   45.3840 C   0  0  0  0  0  0  0  0  0  0  0  0
   56.6570   28.5660   45.6130 C   0  0  0  0  0  0  0  0  0  0  0  0
   56.8470   29.5370   44.6190 C   0  0  0  0  0  0  0  0  0  0  0  0
   56.4730   30.8770   44.8250 O   0  0  0  0  0  0  0  0  0  0  0  0
   57.3810   31.9160   45.0790 C   0  0  0  0  0  0  0  0  0  0  0  0
   57.3930   33.0310   44.2350 C   0  0  0  0  0  0  0  0  0  0  0  0
   58.2600   34.0970   44.4900 C   0  0  0  0  0  0  0  0  0  0  0  0
   59.1390   34.0410   45.5760 C   0  0  0  0  0  0  0  0  0  0  0  0
   59.1680   32.9120   46.4060 C   0  0  0  0  0  0  0  0  0  0  0  0
   60.0320   32.8470   47.5510 N   0  0  0  0  0  0  0  0  0  0  0  0
   61.4120   33.2370   47.5190 C   0  0  0  0  0  0  0  0  0  0  0  0
   61.9960   33.4250   46.4160 O   0  0  0  0  0  0  0  0  0  0  0  0
   62.1640   33.3620   48.7750 C   0  0  0  0  0  0  0  0  0  0  0  0
   63.5370   33.4660   48.8920 C   0  0  0  0  0  0  0  0  0  0  0  0
   63.7880   33.5570   50.2440 C   0  0  0  0  0  0  0  0  0  0  0  0
   62.5570   33.5090   50.8670 C   0  0  0  0  0  0  0  0  0  0  0  0
   61.6090   33.3930   49.9650 O   0  0  0  0  0  0  0  0  0  0  0  0
   58.2840   31.8570   46.1550 C   0  0  0  0  0  0  0  0  0  0  0  0
   57.3980   29.1600   43.3910 C   0  0  0  0  0  0  0  0  0  0  0  0
   57.7970   27.8350   43.1950 C   0  0  0  0  0  0  0  0  0  0  0  0
   57.6320   26.9190   44.1880 N   0  0  0  0  0  0  0  0  0  0  0  0
   60.1039   25.2191   47.2637 H   0  0  0  0  0  0  0  0  0  0  0  0
   59.4673   25.5119   45.6077 H   0  0  0  0  0  0  0  0  0  0  0  0
   59.5693   27.4654   48.8494 H   0  0  0  0  0  0  0  0  0  0  0  0
   60.3198   29.8426   48.9588 H   0  0  0  0  0  0  0  0  0  0  0  0
   61.0780   31.0098   46.8832 H   0  0  0  0  0  0  0  0  0  0  0  0
   61.0974   29.7959   44.7031 H   0  0  0  0  0  0  0  0  0  0  0  0
   60.3613   27.4130   44.5897 H   0  0  0  0  0  0  0  0  0  0  0  0
   56.1860   28.8394   46.5687 H   0  0  0  0  0  0  0  0  0  0  0  0
   56.7177   33.0691   43.3675 H   0  0  0  0  0  0  0  0  0  0  0  0
   58.2509   34.9811   43.8356 H   0  0  0  0  0  0  0  0  0  0  0  0
   59.8112   34.8874   45.7800 H   0  0  0  0  0  0  0  0  0  0  0  0
   59.6540   32.4320   48.4320 H   0  0  0  0  0  0  0  0  0  0  0  0
   64.2752   33.4744   48.0765 H   0  0  0  0  0  0  0  0  0  0  0  0
   64.7710   33.6493   50.7290 H   0  0  0  0  0  0  0  0  0  0  0  0
   62.3946   33.5601   51.9537 H   0  0  0  0  0  0  0  0  0  0  0  0
   58.2956   30.9712   46.8070 H   0  0  0  0  0  0  0  0  0  0  0  0
   57.5166   29.8999   42.5857 H   0  0  0  0  0  0  0  0  0  0  0  0
   58.2449   27.5321   42.2371 H   0  0  0  0  0  0  0  0  0  0  0  0
  1  2  2  0
  2  3  1  0
  3  4  1  0
  4  5  1  0
  5  6  2  0
  6  7  1  0
  7  8  2  0
  8  9  1  0
  9 10  2  0
  2 11  1  0
 11 12  2  0
 12 13  1  0
 13 14  1  0
 14 15  1  0
 15 16  2  0
 16 17  1  0
 17 18  2  0
 18 19  1  0
 19 20  1  0
 20 21  1  0
 21 22  2  0
 21 23  1  0
 23 24  2  0
 24 25  1  0
 25 26  2  0
 26 27  1  0
 19 28  2  0
 13 29  2  0
 29 30  1  0
 30 31  2  0
 10  5  1  0
 31 11  1  0
 28 15  1  0
 27 23  1  0
  4 32  1  0
  4 33  1  0
  6 34  1  0
  7 35  1  0
  8 36  1  0
  9 37  1  0
 10 38  1  0
 12 39  1  0
 16 40  1  0
 17 41  1  0
 18 42  1  0
 20 43  1  0
 24 44  1  0
 25 45  1  0
 26 46  1  0
 28 47  1  0
 29 48  1  0
 30 49  1  0
M  CHG  1   3  -1
M  END
>  <UniqueID>  (35) 
33

>  <SMILES>  (35) 
O=C([N-]Cc1ccccc1)c1cc(Oc2cccc(NC(=O)c3ccco3)c2)ccn1

>  <Energy>  (35) 
86.02427947704803

>  <Genealogy>  (35) 
O=C([N-]Cc1ccccc1)c1cc(Oc2cccc(NC(=O)c3ccco3)c2)ccn1 (protonated)
O=C([N-]Cc1ccccc1)c1cc(Oc2cccc(NC(=O)c3ccco3)c2)ccn1 (3D coordinates assigned)
O=C([N-]Cc1ccccc1)c1cc(Oc2cccc(NC(=O)c3ccco3)c2)ccn1 (optimized conformer: 86.02427947704803 kcal/mol)

>  <smiles>  (35) 
O=C(NCc1ccccc1)c1cc(Oc2cccc(NC(=O)c3ccco3)c2)ccn1

>  <score_type>  (35) 
oracle

>  <origin>  (35) 
adg

>  <m_score__min__energy>  (35) 
-11.09

>  <m_primary>  (35) 
energy

$$$$
35:0
     RDKit          3D

 48 51  0  0  0  0  0  0  0  0999 V2000
   58.0960   21.4890   44.8910 C   0  0  0  0  0  0  0  0  0  0  0  0
   57.7810   21.4140   43.4020 C   0  0  0  0  0  0  0  0  0  0  0  0
   56.3770   21.5360   43.1780 O   0  0  0  0  0  0  0  0  0  0  0  0
   55.7040   22.7640   43.1300 C   0  0  0  0  0  0  0  0  0  0  0  0
   54.8830   22.9950   42.2000 O   0  0  0  0  0  0  0  0  0  0  0  0
   55.9690   23.7880   44.1730 C   0  0  0  0  0  0  0  0  0  0  0  0
   57.1110   24.6120   44.0560 C   0  0  0  0  0  0  0  0  0  0  0  0
   57.3580   25.5680   45.0380 C   0  0  0  0  0  0  0  0  0  0  0  0
   58.4300   26.4670   45.0840 C   0  0  0  0  0  0  0  0  0  0  0  0
   58.3830   27.3050   46.2090 C   0  0  0  0  0  0  0  0  0  0  0  0
   59.3620   28.3700   46.5540 C   0  0  0  0  0  0  0  0  0  0  0  0
   60.2870   28.8390   45.6040 C   0  0  0  0  0  0  0  0  0  0  0  0
   61.2010   29.8430   45.9350 C   0  0  0  0  0  0  0  0  0  0  0  0
   61.2080   30.4070   47.2240 C   0  0  0  0  0  0  0  0  0  0  0  0
   62.1260   31.4510   47.5940 N   0  0  0  0  0  0  0  0  0  0  0  0
   61.7360   33.1410   47.5590 S   0  0  0  0  0  0  0  0  0  0  0  0
   62.7700   33.8670   46.7450 O   0  0  0  0  0  0  0  0  0  0  0  0
   61.7490   33.6820   48.9600 O   0  0  0  0  0  0  0  0  0  0  0  0
   60.1290   33.3730   46.8780 C   0  0  0  0  0  0  0  0  0  0  0  0
   59.0000   32.9300   47.5810 C   0  0  0  0  0  0  0  0  0  0  0  0
   57.7230   33.0970   47.0390 C   0  0  0  0  0  0  0  0  0  0  0  0
   57.5670   33.7120   45.7940 C   0  0  0  0  0  0  0  0  0  0  0  0
   58.6880   34.1630   45.0910 C   0  0  0  0  0  0  0  0  0  0  0  0
   59.9680   33.9960   45.6300 C   0  0  0  0  0  0  0  0  0  0  0  0
   60.2950   29.9290   48.1750 C   0  0  0  0  0  0  0  0  0  0  0  0
   59.3830   28.9230   47.8460 C   0  0  0  0  0  0  0  0  0  0  0  0
   57.0040   26.9140   47.1240 S   0  0  0  0  0  0  0  0  0  0  0  0
   56.4900   25.6970   46.0980 C   0  0  0  0  0  0  0  0  0  0  0  0
   55.3880   24.9230   46.2330 N   0  0  0  0  0  0  0  0  0  0  0  0
   55.1080   23.9710   45.2950 C   0  0  0  0  0  0  0  0  0  0  0  0
   54.0780   23.2620   45.4430 O   0  0  0  0  0  0  0  0  0  0  0  0
   57.1860   21.2723   45.4697 H   0  0  0  0  0  0  0  0  0  0  0  0
   58.8728   20.7507   45.1391 H   0  0  0  0  0  0  0  0  0  0  0  0
   58.4567   22.4981   45.1391 H   0  0  0  0  0  0  0  0  0  0  0  0
   58.3023   22.2304   42.8808 H   0  0  0  0  0  0  0  0  0  0  0  0
   58.1178   20.4400   43.0173 H   0  0  0  0  0  0  0  0  0  0  0  0
   57.7949   24.4999   43.2017 H   0  0  0  0  0  0  0  0  0  0  0  0
   59.2222   26.5118   44.3222 H   0  0  0  0  0  0  0  0  0  0  0  0
   60.2911   28.4114   44.5905 H   0  0  0  0  0  0  0  0  0  0  0  0
   61.9209   30.1952   45.1816 H   0  0  0  0  0  0  0  0  0  0  0  0
   63.0600   31.1900   47.9840 H   0  0  0  0  0  0  0  0  0  0  0  0
   59.1198   32.4491   48.5630 H   0  0  0  0  0  0  0  0  0  0  0  0
   56.8403   32.7443   47.5925 H   0  0  0  0  0  0  0  0  0  0  0  0
   56.5616   33.8413   45.3669 H   0  0  0  0  0  0  0  0  0  0  0  0
   58.5634   34.6499   44.1125 H   0  0  0  0  0  0  0  0  0  0  0  0
   60.8487   34.3529   45.0760 H   0  0  0  0  0  0  0  0  0  0  0  0
   60.2969   30.3506   49.1910 H   0  0  0  0  0  0  0  0  0  0  0  0
   58.6746   28.5603   48.6054 H   0  0  0  0  0  0  0  0  0  0  0  0
  1  2  1  0
  2  3  1  0
  3  4  1  0
  4  5  2  0
  4  6  1  0
  6  7  2  0
  7  8  1  0
  8  9  1  0
  9 10  2  0
 10 11  1  0
 11 12  2  0
 12 13  1  0
 13 14  2  0
 14 15  1  0
 15 16  1  0
 16 17  2  0
 16 18  2  0
 16 19  1  0
 19 20  2  0
 20 21  1  0
 21 22  2  0
 22 23  1  0
 23 24  2  0
 14 25  1  0
 25 26  2  0
 10 27  1  0
 27 28  1  0
 28 29  1  0
 29 30  1  0
 30 31  2  0
 30  6  1  0
 28  8  2  0
 26 11  1  0
 24 19  1  0
  1 32  1  0
  1 33  1  0
  1 34  1  0
  2 35  1  0
  2 36  1  0
  7 37  1  0
  9 38  1  0
 12 39  1  0
 13 40  1  0
 15 41  1  0
 20 42  1  0
 21 43  1  0
 22 44  1  0
 23 45  1  0
 24 46  1  0
 25 47  1  0
 26 48  1  0
M  CHG  1  29  -1
M  END
>  <UniqueID>  (36) 
34

>  <SMILES>  (36) 
CCOC(=O)c1cc2cc(-c3ccc(NS(=O)(=O)c4ccccc4)cc3)sc2[n-]c1=O

>  <Energy>  (36) 
88.65457198580637

>  <Genealogy>  (36) 
CCOC(=O)c1cc2cc(-c3ccc(NS(=O)(=O)c4ccccc4)cc3)sc2[n-]c1=O (protonated)
CCOC(=O)c1cc2cc(-c3ccc(NS(=O)(=O)c4ccccc4)cc3)sc2[n-]c1=O (3D coordinates assigned)
CCOC(=O)c1cc2cc(-c3ccc(NS(=O)(=O)c4ccccc4)cc3)sc2[n-]c1=O (optimized conformer: 88.65457198580637 kcal/mol)

>  <smiles>  (36) 
CCOC(=O)c1cc2cc(-c3ccc(NS(=O)(=O)c4ccccc4)cc3)sc2[nH]c1=O

>  <score_type>  (36) 
oracle

>  <origin>  (36) 
adg

>  <m_score__min__energy>  (36) 
-10.640000000000001

>  <m_primary>  (36) 
energy

$$$$
36:0
     RDKit          3D

 56 61  0  0  0  0  0  0  0  0999 V2000
   60.9830   30.0200   49.1930 O   0  0  0  0  0  0  0  0  0  0  0  0
   59.8620   29.4480   49.2890 C   0  0  0  0  0  0  0  0  0  0  0  0
   59.3380   29.1120   50.5760 N   0  0  0  0  0  0  0  0  0  0  0  0
   58.1410   29.7270   51.1310 C   0  0  0  0  0  0  0  0  0  0  0  0
   58.4640   31.1230   51.5800 C   0  0  0  0  0  0  0  0  0  0  0  0
   57.4310   32.0010   51.9490 C   0  0  0  0  0  0  0  0  0  0  0  0
   57.7260   33.3140   52.3270 C   0  0  0  0  0  0  0  0  0  0  0  0
   59.0510   33.7620   52.3300 C   0  0  0  0  0  0  0  0  0  0  0  0
   60.0830   32.9000   51.9480 C   0  0  0  0  0  0  0  0  0  0  0  0
   61.3670   33.3390   51.9440 F   0  0  0  0  0  0  0  0  0  0  0  0
   59.7920   31.5850   51.5680 C   0  0  0  0  0  0  0  0  0  0  0  0
   59.0870   29.1160   48.0810 C   0  0  0  0  0  0  0  0  0  0  0  0
   58.8560   30.0780   47.0750 C   0  0  0  0  0  0  0  0  0  0  0  0
   58.1250   29.6720   45.9660 C   0  0  0  0  0  0  0  0  0  0  0  0
   57.6350   28.3890   45.8380 C   0  0  0  0  0  0  0  0  0  0  0  0
   56.9980   28.2240   44.6540 N   0  0  0  0  0  0  0  0  0  0  0  0
   57.0820   29.4260   44.0450 C   0  0  0  0  0  0  0  0  0  0  0  0
   56.5820   29.7700   42.7890 C   0  0  0  0  0  0  0  0  0  0  0  0
   56.7900   31.0860   42.3340 C   0  0  0  0  0  0  0  0  0  0  0  0
   57.4900   32.0180   43.1310 C   0  0  0  0  0  0  0  0  0  0  0  0
   57.9910   31.6470   44.3920 C   0  0  0  0  0  0  0  0  0  0  0  0
   57.7640   30.3400   44.8180 C   0  0  0  0  0  0  0  0  0  0  0  0
   57.8660   27.4430   46.8480 C   0  0  0  0  0  0  0  0  0  0  0  0
   57.3370   26.0610   46.7900 C   0  0  0  0  0  0  0  0  0  0  0  0
   58.1380   25.0210   47.1310 N   0  0  0  0  0  0  0  0  0  0  0  0
   57.7130   23.7620   47.0590 N   0  0  0  0  0  0  0  0  0  0  0  0
   56.4820   23.4560   46.6410 N   0  0  0  0  0  0  0  0  0  0  0  0
   56.1070   22.0660   46.5890 C   0  0  0  0  0  0  0  0  0  0  0  0
   55.5380   21.4500   47.7180 C   0  0  0  0  0  0  0  0  0  0  0  0
   55.1940   20.0960   47.6850 C   0  0  0  0  0  0  0  0  0  0  0  0
   55.4270   19.3410   46.5330 C   0  0  0  0  0  0  0  0  0  0  0  0
   56.0060   19.9390   45.4110 C   0  0  0  0  0  0  0  0  0  0  0  0
   56.3520   21.2950   45.4380 C   0  0  0  0  0  0  0  0  0  0  0  0
   55.6140   24.4560   46.2920 C   0  0  0  0  0  0  0  0  0  0  0  0
   54.4310   24.1880   45.9440 O   0  0  0  0  0  0  0  0  0  0  0  0
   56.0340   25.7890   46.3500 C   0  0  0  0  0  0  0  0  0  0  0  0
   55.1730   26.8320   45.9970 O   0  0  0  0  0  0  0  0  0  0  0  0
   58.5880   27.8480   47.9370 N   0  0  0  0  0  0  0  0  0  0  0  0
   57.3549   29.7607   50.3623 H   0  0  0  0  0  0  0  0  0  0  0  0
   57.7866   29.1364   51.9887 H   0  0  0  0  0  0  0  0  0  0  0  0
   56.3872   31.6541   51.9404 H   0  0  0  0  0  0  0  0  0  0  0  0
   56.9150   33.9959   52.6225 H   0  0  0  0  0  0  0  0  0  0  0  0
   59.2812   34.7940   52.6334 H   0  0  0  0  0  0  0  0  0  0  0  0
   60.6044   30.9109   51.2590 H   0  0  0  0  0  0  0  0  0  0  0  0
   59.2384   31.1054   47.1652 H   0  0  0  0  0  0  0  0  0  0  0  0
   56.5610   27.3590   44.2660 H   0  0  0  0  0  0  0  0  0  0  0  0
   56.0419   29.0358   42.1731 H   0  0  0  0  0  0  0  0  0  0  0  0
   56.4042   31.3905   41.3499 H   0  0  0  0  0  0  0  0  0  0  0  0
   57.6449   33.0429   42.7627 H   0  0  0  0  0  0  0  0  0  0  0  0
   58.5422   32.3631   45.0192 H   0  0  0  0  0  0  0  0  0  0  0  0
   55.3628   22.0370   48.6317 H   0  0  0  0  0  0  0  0  0  0  0  0
   54.7388   19.6237   48.5680 H   0  0  0  0  0  0  0  0  0  0  0  0
   55.1546   18.2755   46.5093 H   0  0  0  0  0  0  0  0  0  0  0  0
   56.1903   19.3432   44.5049 H   0  0  0  0  0  0  0  0  0  0  0  0
   56.8172   21.7595   44.5561 H   0  0  0  0  0  0  0  0  0  0  0  0
   54.1660   26.7180   45.9700 H   0  0  0  0  0  0  0  0  0  0  0  0
  1  2  2  0
  2  3  1  0
  3  4  1  0
  4  5  1  0
  5  6  2  0
  6  7  1  0
  7  8  2  0
  8  9  1  0
  9 10  1  0
  9 11  2  0
  2 12  1  0
 12 13  2  0
 13 14  1  0
 14 15  2  0
 15 16  1  0
 16 17  1  0
 17 18  2  0
 18 19  1  0
 19 20  2  0
 20 21  1  0
 21 22  2  0
 15 23  1  0
 23 24  1  0
 24 25  1  0
 25 26  2  0
 26 27  1  0
 27 28  1  0
 28 29  2  0
 29 30  1  0
 30 31  2  0
 31 32  1  0
 32 33  2  0
 27 34  1  0
 34 35  2  0
 34 36  1  0
 36 37  1  0
 23 38  2  0
 11  5  1  0
 38 12  1  0
 22 14  1  0
 36 24  2  0
 22 17  1  0
 33 28  1  0
  4 39  1  0
  4 40  1  0
  6 41  1  0
  7 42  1  0
  8 43  1  0
 11 44  1  0
 13 45  1  0
 16 46  1  0
 18 47  1  0
 19 48  1  0
 20 49  1  0
 21 50  1  0
 29 51  1  0
 30 52  1  0
 31 53  1  0
 32 54  1  0
 33 55  1  0
 37 56  1  0
M  CHG  1   3  -1
M  END
>  <UniqueID>  (37) 
35

>  <SMILES>  (37) 
O=C([N-]Cc1cccc(F)c1)c1cc2c([nH]c3ccccc32)c(-c2nnn(-c3ccccc3)c(=O)c2O)n1

>  <Energy>  (37) 
116.75661857234265

>  <Genealogy>  (37) 
O=C([N-]Cc1cccc(F)c1)c1cc2c([nH]c3ccccc32)c(-c2nnn(-c3ccccc3)c(=O)c2O)n1 (protonated)
O=C([N-]Cc1cccc(F)c1)c1cc2c([nH]c3ccccc32)c(-c2nnn(-c3ccccc3)c(=O)c2O)n1 (3D coordinates assigned)
O=C([N-]Cc1cccc(F)c1)c1cc2c([nH]c3ccccc32)c(-c2nnn(-c3ccccc3)c(=O)c2O)n1 (optimized conformer: 116.75661857234265 kcal/mol)

>  <smiles>  (37) 
O=C(NCc1cccc(F)c1)c1cc2c([nH]c3ccccc32)c(-c2nnn(-c3ccccc3)c(=O)c2O)n1

>  <score_type>  (37) 
oracle

>  <origin>  (37) 
adg

>  <m_score__min__energy>  (37) 
-11.68

>  <m_primary>  (37) 
energy

$$$$
37:0
     RDKit          3D

 50 52  0  0  0  0  0  0  0  0999 V2000
   60.3860   29.1560   48.4420 C   0  0  0  0  0  0  0  0  0  0  0  0
   60.0400   30.1480   47.3230 C   0  0  2  0  0  0  0  0  0  0  0  0
   61.2960   30.9060   46.8290 C   0  0  0  0  0  0  0  0  0  0  0  0
   61.4510   32.2560   47.5450 C   0  0  1  0  0  0  0  0  0  0  0  0
   62.7260   32.9750   47.0900 C   0  0  0  0  0  0  0  0  0  0  0  0
   60.1960   33.1520   47.3370 C   0  0  0  0  0  0  0  0  0  0  0  0
   58.9650   32.3820   47.0100 N   0  0  0  0  0  0  0  0  0  0  0  0
   57.7640   33.2180   47.2690 C   0  0  0  0  0  0  0  0  0  0  0  0
   57.0180   33.6420   45.9810 C   0  0  0  0  0  0  0  0  0  0  0  0
   57.9450   34.1920   44.8810 C   0  0  0  0  0  0  0  0  0  0  0  0
   58.6830   33.1310   44.1970 N   0  0  0  0  0  0  0  0  0  0  0  0
   58.1170   32.0930   43.3820 C   0  0  0  0  0  0  0  0  0  0  0  0
   58.1850   32.2030   42.1300 O   0  0  0  0  0  0  0  0  0  0  0  0
   57.4980   30.8860   43.9620 C   0  0  0  0  0  0  0  0  0  0  0  0
   56.1170   30.6590   43.8360 C   0  0  0  0  0  0  0  0  0  0  0  0
   55.5350   29.5150   44.3940 C   0  0  0  0  0  0  0  0  0  0  0  0
   56.3310   28.5850   45.0680 C   0  0  0  0  0  0  0  0  0  0  0  0
   55.7810   27.4720   45.6200 N   0  0  0  0  0  0  0  0  0  0  0  0
   56.5480   26.5570   46.2730 C   0  0  0  0  0  0  0  0  0  0  0  0
   56.0100   25.5340   46.7730 O   0  0  0  0  0  0  0  0  0  0  0  0
   57.9310   26.7650   46.3760 C   0  0  0  0  0  0  0  0  0  0  0  0
   58.6640   25.9300   46.9720 O   0  0  0  0  0  0  0  0  0  0  0  0
   58.4850   27.8780   45.8260 N   0  0  0  0  0  0  0  0  0  0  0  0
   57.7200   28.7950   45.1740 C   0  0  0  0  0  0  0  0  0  0  0  0
   58.3010   29.9370   44.6150 C   0  0  0  0  0  0  0  0  0  0  0  0
   58.9220   31.1180   47.7830 C   0  0  0  0  0  0  0  0  0  0  0  0
   60.2197   29.6329   49.4192 H   0  0  0  0  0  0  0  0  0  0  0  0
   59.7451   28.2663   48.3544 H   0  0  0  0  0  0  0  0  0  0  0  0
   61.4412   28.8579   48.3544 H   0  0  0  0  0  0  0  0  0  0  0  0
   59.6565   29.5777   46.4641 H   0  0  0  0  0  0  0  0  0  0  0  0
   62.1864   30.2912   47.0269 H   0  0  0  0  0  0  0  0  0  0  0  0
   61.1855   31.0955   45.7511 H   0  0  0  0  0  0  0  0  0  0  0  0
   61.5420   32.0565   48.6229 H   0  0  0  0  0  0  0  0  0  0  0  0
   63.2991   33.2982   47.9715 H   0  0  0  0  0  0  0  0  0  0  0  0
   63.3381   32.2891   46.4860 H   0  0  0  0  0  0  0  0  0  0  0  0
   62.4558   33.8537   46.4860 H   0  0  0  0  0  0  0  0  0  0  0  0
   60.0163   33.7198   48.2619 H   0  0  0  0  0  0  0  0  0  0  0  0
   60.4051   33.8079   46.4791 H   0  0  0  0  0  0  0  0  0  0  0  0
   59.0000   32.1470   45.9940 H   0  0  0  0  0  0  0  0  0  0  0  0
   57.0699   32.6442   47.9006 H   0  0  0  0  0  0  0  0  0  0  0  0
   58.1106   34.1391   47.7605 H   0  0  0  0  0  0  0  0  0  0  0  0
   56.4881   32.7646   45.5819 H   0  0  0  0  0  0  0  0  0  0  0  0
   56.3323   34.4556   46.2599 H   0  0  0  0  0  0  0  0  0  0  0  0
   57.3353   34.7323   44.1418 H   0  0  0  0  0  0  0  0  0  0  0  0
   58.6782   34.8577   45.3599 H   0  0  0  0  0  0  0  0  0  0  0  0
   55.4902   31.3840   43.2961 H   0  0  0  0  0  0  0  0  0  0  0  0
   54.4516   29.3480   44.3021 H   0  0  0  0  0  0  0  0  0  0  0  0
   59.3876   30.0923   44.6867 H   0  0  0  0  0  0  0  0  0  0  0  0
   59.0588   31.3444   48.8507 H   0  0  0  0  0  0  0  0  0  0  0  0
   57.9479   30.6361   47.6133 H   0  0  0  0  0  0  0  0  0  0  0  0
  1  2  1  0
  2  3  1  0
  3  4  1  0
  4  5  1  0
  4  6  1  0
  6  7  1  0
  7  8  1  0
  8  9  1  0
  9 10  1  0
 10 11  1  0
 11 12  1  0
 12 13  2  0
 12 14  1  0
 14 15  2  0
 15 16  1  0
 16 17  2  0
 17 18  1  0
 18 19  1  0
 19 20  2  0
 19 21  1  0
 21 22  2  0
 21 23  1  0
 23 24  1  0
 24 25  2  0
  7 26  1  0
 26  2  1  0
 25 14  1  0
 24 17  1  0
  1 27  1  0
  1 28  1  0
  1 29  1  0
  2 30  1  6
  3 31  1  0
  3 32  1  0
  4 33  1  1
  5 34  1  0
  5 35  1  0
  5 36  1  0
  6 37  1  0
  6 38  1  0
  7 39  1  0
  8 40  1  0
  8 41  1  0
  9 42  1  0
  9 43  1  0
 10 44  1  0
 10 45  1  0
 15 46  1  0
 16 47  1  0
 25 48  1  0
 26 49  1  0
 26 50  1  0
M  CHG  4   7   1  11  -1  18  -1  23  -1
M  END
>  <UniqueID>  (38) 
36

>  <SMILES>  (38) 
C[C@@H]1C[C@@H](C)C[NH+](CCC[N-]C(=O)c2ccc3[n-]c(=O)c(=O)[n-]c3c2)C1

>  <Energy>  (38) 
61.66818103781271

>  <Genealogy>  (38) 
CC1CC(C)C[NH+](CCC[N-]C(=O)c2ccc3[n-]c(=O)c(=O)[n-]c3c2)C1 (protonated)
C[C@@H]1C[C@@H](C)C[NH+](CCC[N-]C(=O)c2ccc3[n-]c(=O)c(=O)[n-]c3c2)C1 (chirality)
C[C@@H]1C[C@@H](C)C[NH+](CCC[N-]C(=O)c2ccc3[n-]c(=O)c(=O)[n-]c3c2)C1 (3D coordinates assigned)
C[C@@H]1C[C@@H](C)C[NH+](CCC[N-]C(=O)c2ccc3[n-]c(=O)c(=O)[n-]c3c2)C1 (nonaromatic ring conformer: 61.66818103781271 kcal/mol)

>  <smiles>  (38) 
CC1CC(C)CN(CCCNC(=O)c2ccc3[nH]c(=O)c(=O)[nH]c3c2)C1

>  <score_type>  (38) 
oracle

>  <origin>  (38) 
adg

>  <m_score__min__energy>  (38) 
-11.039999999999999

>  <m_primary>  (38) 
energy

$$$$
38:0
     RDKit          3D

 47 50  0  0  0  0  0  0  0  0999 V2000
   63.0360   32.1650   47.4910 C   0  0  0  0  0  0  0  0  0  0  0  0
   61.6840   32.5480   47.2740 O   0  0  0  0  0  0  0  0  0  0  0  0
   60.7560   31.7140   46.6410 C   0  0  0  0  0  0  0  0  0  0  0  0
   61.0630   30.5200   46.3760 O   0  0  0  0  0  0  0  0  0  0  0  0
   59.4250   32.2510   46.2680 C   0  0  0  0  0  0  0  0  0  0  0  0
   59.1790   33.6360   46.3970 C   0  0  0  0  0  0  0  0  0  0  0  0
   57.9800   34.1990   45.9300 C   0  0  0  0  0  0  0  0  0  0  0  0
   57.0180   33.3940   45.3060 C   0  0  0  0  0  0  0  0  0  0  0  0
   57.2560   32.0250   45.2190 C   0  0  0  0  0  0  0  0  0  0  0  0
   58.3830   31.4420   45.7520 C   0  0  0  0  0  0  0  0  0  0  0  0
   58.3830   29.9780   45.3890 C   0  0  1  0  0  0  0  0  0  0  0  0
   58.6730   28.9030   46.4350 C   0  0  0  0  0  0  0  0  0  0  0  0
   58.7380   27.5340   46.0230 C   0  0  0  0  0  0  0  0  0  0  0  0
   59.1970   26.5760   46.9450 C   0  0  0  0  0  0  0  0  0  0  0  0
   59.5270   26.9240   48.2490 C   0  0  0  0  0  0  0  0  0  0  0  0
   59.3300   28.2350   48.7000 C   0  0  0  0  0  0  0  0  0  0  0  0
   59.5720   28.6090   50.0320 O   0  0  0  0  0  0  0  0  0  0  0  0
   60.4930   29.6170   50.4350 C   0  0  0  0  0  0  0  0  0  0  0  0
   58.8700   29.2080   47.8080 C   0  0  0  0  0  0  0  0  0  0  0  0
   58.5790   30.4680   48.3180 O   0  0  0  0  0  0  0  0  0  0  0  0
   58.0910   26.9700   44.7490 C   0  0  0  0  0  0  0  0  0  0  0  0
   58.1410   27.8140   43.4510 C   0  0  1  0  0  0  0  0  0  0  0  0
   57.9350   26.9850   42.3340 O   0  0  0  0  0  0  0  0  0  0  0  0
   57.1180   28.9880   43.4070 C   0  0  0  0  0  0  0  0  0  0  0  0
   56.9830   29.7580   44.7370 C   0  0  1  0  0  0  0  0  0  0  0  0
   56.1010   29.0600   45.5890 O   0  0  0  0  0  0  0  0  0  0  0  0
   56.4490   31.1000   44.5170 N   0  0  0  0  0  0  0  0  0  0  0  0
   63.2324   32.1094   48.5719 H   0  0  0  0  0  0  0  0  0  0  0  0
   63.2160   31.1805   47.0345 H   0  0  0  0  0  0  0  0  0  0  0  0
   63.7056   32.9088   47.0345 H   0  0  0  0  0  0  0  0  0  0  0  0
   59.9351   34.2809   46.8686 H   0  0  0  0  0  0  0  0  0  0  0  0
   57.7955   35.2762   46.0547 H   0  0  0  0  0  0  0  0  0  0  0  0
   56.0970   33.8329   44.8948 H   0  0  0  0  0  0  0  0  0  0  0  0
   59.2677   29.8206   44.7546 H   0  0  0  0  0  0  0  0  0  0  0  0
   59.2969   25.5279   46.6265 H   0  0  0  0  0  0  0  0  0  0  0  0
   59.9444   26.1671   48.9294 H   0  0  0  0  0  0  0  0  0  0  0  0
   60.5322   29.6599   51.5335 H   0  0  0  0  0  0  0  0  0  0  0  0
   61.4923   29.3792   50.0415 H   0  0  0  0  0  0  0  0  0  0  0  0
   60.1662   30.5908   50.0415 H   0  0  0  0  0  0  0  0  0  0  0  0
   58.5865   26.0123   44.5314 H   0  0  0  0  0  0  0  0  0  0  0  0
   57.0197   26.9210   44.9937 H   0  0  0  0  0  0  0  0  0  0  0  0
   59.1418   28.2701   43.4326 H   0  0  0  0  0  0  0  0  0  0  0  0
   56.9620   26.7980   42.2710 H   0  0  0  0  0  0  0  0  0  0  0  0
   57.4389   29.6964   42.6291 H   0  0  0  0  0  0  0  0  0  0  0  0
   56.1341   28.5428   43.1977 H   0  0  0  0  0  0  0  0  0  0  0  0
   55.5540   29.7330   46.0750 H   0  0  0  0  0  0  0  0  0  0  0  0
   55.5260   31.3190   44.0800 H   0  0  0  0  0  0  0  0  0  0  0  0
  1  2  1  0
  2  3  1  0
  3  4  2  0
  3  5  1  0
  5  6  2  0
  6  7  1  0
  7  8  2  0
  8  9  1  0
  9 10  2  0
 10 11  1  0
 11 12  1  0
 12 13  2  0
 13 14  1  0
 14 15  2  0
 15 16  1  0
 16 17  1  0
 17 18  1  0
 16 19  2  0
 19 20  1  0
 13 21  1  0
 21 22  1  0
 22 23  1  0
 22 24  1  0
 24 25  1  0
 25 26  1  1
 25 27  1  0
 10  5  1  0
 25 11  1  0
 27  9  1  0
 19 12  1  0
  1 28  1  0
  1 29  1  0
  1 30  1  0
  6 31  1  0
  7 32  1  0
  8 33  1  0
 11 34  1  6
 14 35  1  0
 15 36  1  0
 18 37  1  0
 18 38  1  0
 18 39  1  0
 21 40  1  0
 21 41  1  0
 22 42  1  6
 23 43  1  0
 24 44  1  0
 24 45  1  0
 26 46  1  0
 27 47  1  0
M  CHG  1  20  -1
M  END
>  <UniqueID>  (39) 
37

>  <SMILES>  (39) 
COC(=O)c1cccc2c1[C@H]1c3c(ccc(OC)c3[O-])C[C@@H](O)CC1(O)N2

>  <Energy>  (39) 
93.05668442083002

>  <Genealogy>  (39) 
COC(=O)c1cccc2c1C1c3c(ccc(OC)c3[O-])CC(O)CC1(O)N2 (protonated)
COC(=O)c1cccc2c1[C@H]1c3c(ccc(OC)c3[O-])C[C@@H](O)CC1(O)N2 (chirality)
COC(=O)c1cccc2c1[C@H]1c3c(ccc(OC)c3[O-])C[C@@H](O)CC1(O)N2 (3D coordinates assigned)
COC(=O)c1cccc2c1[C@H]1c3c(ccc(OC)c3[O-])C[C@@H](O)CC1(O)N2 (nonaromatic ring conformer: 93.05668442083002 kcal/mol)

>  <smiles>  (39) 
COC(=O)c1cccc2c1C1c3c(ccc(OC)c3O)CC(O)CC1(O)N2

>  <score_type>  (39) 
oracle

>  <origin>  (39) 
adg

>  <m_score__min__energy>  (39) 
-7.4100000000000001

>  <m_primary>  (39) 
energy

$$$$
39:0
     RDKit          3D

 52 54  0  0  0  0  0  0  0  0999 V2000
   56.5147   29.4420   44.1746 H   0  0  0  0  0  0  0  0  0  0  0  0
   57.4130   29.2860   44.7900 C   0  0  0  0  0  0  0  0  0  0  0  0
   57.6310   28.0480   45.3990 C   0  0  0  0  0  0  0  0  0  0  0  0
   56.9011   27.2360   45.2653 H   0  0  0  0  0  0  0  0  0  0  0  0
   58.7730   27.8360   46.1780 C   0  0  0  0  0  0  0  0  0  0  0  0
   59.0130   26.2780   46.9600 S   0  0  0  0  0  0  0  0  0  0  0  0
   59.5890   25.3060   45.9680 O   0  0  0  0  0  0  0  0  0  0  0  0
   59.9570   26.4230   48.1220 O   0  0  0  0  0  0  0  0  0  0  0  0
   57.4830   25.7050   47.5310 N   0  0  0  0  0  0  0  0  0  0  0  0
   56.4650   25.5280   46.7500 C   0  0  0  0  0  0  0  0  0  0  0  0
   55.5470   26.4310   46.4990 O   0  0  0  0  0  0  0  0  0  0  0  0
   54.6450   25.9540   45.6880 N   0  0  0  0  0  0  0  0  0  0  0  0
   54.9970   24.6820   45.4080 C   0  0  0  0  0  0  0  0  0  0  0  0
   54.2270   23.7840   44.4960 C   0  0  0  0  0  0  0  0  0  0  0  0
   53.6258   23.0829   45.0935 H   0  0  0  0  0  0  0  0  0  0  0  0
   53.5623   24.3885   43.8615 H   0  0  0  0  0  0  0  0  0  0  0  0
   54.9259   23.2193   43.8615 H   0  0  0  0  0  0  0  0  0  0  0  0
   56.1790   24.3740   46.0570 C   0  0  0  0  0  0  0  0  0  0  0  0
   56.9080   23.0680   46.0880 C   0  0  0  0  0  0  0  0  0  0  0  0
   57.0762   22.7667   47.1325 H   0  0  0  0  0  0  0  0  0  0  0  0
   56.3077   22.3008   45.5772 H   0  0  0  0  0  0  0  0  0  0  0  0
   57.8762   23.1763   45.5772 H   0  0  0  0  0  0  0  0  0  0  0  0
   59.6990   28.8740   46.3460 C   0  0  0  0  0  0  0  0  0  0  0  0
   60.5975   28.7117   46.9595 H   0  0  0  0  0  0  0  0  0  0  0  0
   59.4870   30.1150   45.7380 C   0  0  0  0  0  0  0  0  0  0  0  0
   60.4040   31.0990   45.9150 F   0  0  0  0  0  0  0  0  0  0  0  0
   58.3350   30.3340   44.9590 C   0  0  0  0  0  0  0  0  0  0  0  0
   58.0840   31.6630   44.2930 C   0  0  0  0  0  0  0  0  0  0  0  0
   59.0453   32.1759   44.1421 H   0  0  0  0  0  0  0  0  0  0  0  0
   57.5859   31.4810   43.3292 H   0  0  0  0  0  0  0  0  0  0  0  0
   57.2150   32.5090   45.1110 N   0  0  0  0  0  0  0  0  0  0  0  0
   57.5690   33.1020   46.3680 C   0  0  0  0  0  0  0  0  0  0  0  0
   56.6520   33.4750   47.1450 O   0  0  0  0  0  0  0  0  0  0  0  0
   58.9680   33.2290   46.8040 C   0  0  0  0  0  0  0  0  0  0  0  0
   59.9660   33.8540   46.0770 C   0  0  0  0  0  0  0  0  0  0  0  0
   59.8870   34.3307   45.0888 H   0  0  0  0  0  0  0  0  0  0  0  0
   61.0890   33.7400   46.8830 C   0  0  0  0  0  0  0  0  0  0  0  0
   62.3800   34.2110   46.6110 O   0  0  0  0  0  0  0  0  0  0  0  0
   63.5740   33.4630   46.8390 C   0  0  0  0  0  0  0  0  0  0  0  0
   63.5345   32.5356   46.2488 H   0  0  0  0  0  0  0  0  0  0  0  0
   64.4337   34.0791   46.5368 H   0  0  0  0  0  0  0  0  0  0  0  0
   63.7300   33.1070   48.3160 C   0  0  0  0  0  0  0  0  0  0  0  0
   63.0700   34.0440   49.0890 F   0  0  0  0  0  0  0  0  0  0  0  0
   63.1880   31.8620   48.5680 F   0  0  0  0  0  0  0  0  0  0  0  0
   65.0700   33.0990   48.6620 F   0  0  0  0  0  0  0  0  0  0  0  0
   60.7740   33.0700   48.0040 N   0  0  0  0  0  0  0  0  0  0  0  0
   61.4280   32.8130   48.7780 H   0  0  0  0  0  0  0  0  0  0  0  0
   59.4900   32.7520   47.9580 N   0  0  0  0  0  0  0  0  0  0  0  0
   58.8330   31.9230   48.9640 C   0  0  0  0  0  0  0  0  0  0  0  0
   59.1119   32.2749   49.9682 H   0  0  0  0  0  0  0  0  0  0  0  0
   57.7421   31.9926   48.8409 H   0  0  0  0  0  0  0  0  0  0  0  0
   59.1499   30.8769   48.8409 H   0  0  0  0  0  0  0  0  0  0  0  0
  1  2  1  0
  2  3  2  0
  3  4  1  0
  3  5  1  0
  5  6  1  0
  6  7  2  0
  6  8  2  0
  6  9  1  0
  9 10  2  0
 10 11  1  0
 11 12  1  0
 12 13  1  0
 13 14  1  0
 14 15  1  0
 14 16  1  0
 14 17  1  0
 13 18  2  0
 18 19  1  0
 19 20  1  0
 19 21  1  0
 19 22  1  0
  5 23  2  0
 23 24  1  0
 23 25  1  0
 25 26  1  0
 25 27  2  0
 27 28  1  0
 28 29  1  0
 28 30  1  0
 28 31  1  0
 31 32  1  0
 32 33  2  0
 32 34  1  0
 34 35  2  0
 35 36  1  0
 35 37  1  0
 37 38  1  0
 38 39  1  0
 39 40  1  0
 39 41  1  0
 39 42  1  0
 42 43  1  0
 42 44  1  0
 42 45  1  0
 37 46  2  0
 46 47  1  0
 46 48  1  0
 48 49  1  0
 49 50  1  0
 49 51  1  0
 49 52  1  0
 27  2  1  0
 48 34  1  0
 18 10  1  0
M  CHG  3  12  -1  31  -1  46   1
M  END
>  <UniqueID>  (40) 
38

>  <SMILES>  (40) 
Cc1[n-]o/c(=N\S(=O)(=O)c2ccc(C[N-]C(=O)c3cc(OCC(F)(F)F)[nH+]n3C)c(F)c2)c1C

>  <Energy>  (40) 
115.07716982336967

>  <Genealogy>  (40) 
Cc1[n-]oc(=NS(=O)(=O)c2ccc(C[N-]C(=O)c3cc(OCC(F)(F)F)[nH+]n3C)c(F)c2)c1C (protonated)
Cc1[n-]o/c(=N\S(=O)(=O)c2ccc(C[N-]C(=O)c3cc(OCC(F)(F)F)[nH+]n3C)c(F)c2)c1C (cis-trans isomerization)
Cc1[n-]o/c(=N\S(=O)(=O)c2ccc(C[N-]C(=O)c3cc(OCC(F)(F)F)[nH+]n3C)c(F)c2)c1C (3D coordinates assigned)
Cc1[n-]o/c(=N\S(=O)(=O)c2ccc(C[N-]C(=O)c3cc(OCC(F)(F)F)[nH+]n3C)c(F)c2)c1C (optimized conformer: 115.07716982336967 kcal/mol)

>  <smiles>  (40) 
Cc1[nH]oc(=NS(=O)(=O)c2ccc(CNC(=O)c3cc(OCC(F)(F)F)nn3C)c(F)c2)c1C

>  <score_type>  (40) 
oracle

>  <origin>  (40) 
adg

>  <m_score__min__energy>  (40) 
-11

>  <m_primary>  (40) 
energy

$$$$
40:0
     RDKit          3D

 25 26  0  0  0  0  0  0  0  0999 V2000
   57.7090   24.3820   47.4940 H   0  0  0  0  0  0  0  0  0  0  0  0
   56.8940   24.8730   47.1450 O   0  0  0  0  0  0  0  0  0  0  0  0
   56.9960   26.0810   46.4550 C   0  0  0  0  0  0  0  0  0  0  0  0
   55.8360   26.7160   46.0170 C   0  0  0  0  0  0  0  0  0  0  0  0
   54.8538   26.2638   46.2188 H   0  0  0  0  0  0  0  0  0  0  0  0
   55.9140   27.8910   45.3420 N   0  0  0  0  0  0  0  0  0  0  0  0
   57.0990   28.5010   45.0610 C   0  0  0  0  0  0  0  0  0  0  0  0
   57.0270   29.7770   44.3140 C   0  0  0  0  0  0  0  0  0  0  0  0
   57.3423   29.7961   43.2603 H   0  0  0  0  0  0  0  0  0  0  0  0
   56.6030   30.8750   44.8640 N   0  0  0  0  0  0  0  0  0  0  0  0
   57.3990   32.0170   45.2260 C   0  0  0  0  0  0  0  0  0  0  0  0
   57.4110   33.2120   44.4750 C   0  0  0  0  0  0  0  0  0  0  0  0
   56.7994   33.2934   43.5643 H   0  0  0  0  0  0  0  0  0  0  0  0
   58.1980   34.2930   44.8850 C   0  0  0  0  0  0  0  0  0  0  0  0
   58.2084   35.2198   44.2925 H   0  0  0  0  0  0  0  0  0  0  0  0
   58.9710   34.1990   46.0450 C   0  0  0  0  0  0  0  0  0  0  0  0
   59.5931   35.0488   46.3625 H   0  0  0  0  0  0  0  0  0  0  0  0
   58.9530   33.0250   46.8010 C   0  0  0  0  0  0  0  0  0  0  0  0
   59.5582   32.9522   47.7166 H   0  0  0  0  0  0  0  0  0  0  0  0
   58.1670   31.9420   46.3960 C   0  0  0  0  0  0  0  0  0  0  0  0
   58.1512   31.0233   47.0007 H   0  0  0  0  0  0  0  0  0  0  0  0
   58.3060   27.8930   45.4950 C   0  0  0  0  0  0  0  0  0  0  0  0
   59.8980   28.6110   45.2210 Cl  0  0  0  0  0  0  0  0  0  0  0  0
   58.2390   26.6750   46.1940 C   0  0  0  0  0  0  0  0  0  0  0  0
   59.2980   26.1160   46.5880 O   0  0  0  0  0  0  0  0  0  0  0  0
  1  2  1  0
  2  3  1  0
  3  4  2  0
  4  5  1  0
  4  6  1  0
  6  7  1  0
  7  8  1  0
  8  9  1  0
  8 10  2  0
 10 11  1  0
 11 12  2  0
 12 13  1  0
 12 14  1  0
 14 15  1  0
 14 16  2  0
 16 17  1  0
 16 18  1  0
 18 19  1  0
 18 20  2  0
 20 21  1  0
  7 22  2  0
 22 23  1  0
 22 24  1  0
 24 25  2  0
 24  3  1  0
 20 11  1  0
M  CHG  1   6  -1
M  END
>  <UniqueID>  (41) 
39

>  <SMILES>  (41) 
O=c1c(O)c[n-]c(/C=N/c2ccccc2)c1Cl

>  <Energy>  (41) 
33.94583803966738

>  <Genealogy>  (41) 
O=c1c(O)c[n-]c(C=Nc2ccccc2)c1Cl (protonated)
O=c1c(O)c[n-]c(/C=N/c2ccccc2)c1Cl (cis-trans isomerization)
O=c1c(O)c[n-]c(/C=N/c2ccccc2)c1Cl (3D coordinates assigned)
O=c1c(O)c[n-]c(/C=N/c2ccccc2)c1Cl (optimized conformer: 33.94583803966738 kcal/mol)

>  <smiles>  (41) 
O=c1c(O)c[nH]c(C=Nc2ccccc2)c1Cl

>  <score_type>  (41) 
oracle

>  <origin>  (41) 
adg

>  <m_score__min__energy>  (41) 
-8.25

>  <m_primary>  (41) 
energy

$$$$
41:0
     RDKit          3D

 48 51  0  0  0  0  0  0  0  0999 V2000
   54.7020   27.0830   46.7100 H   0  0  0  0  0  0  0  0  0  0  0  0
   54.8490   26.3360   45.9940 N   0  0  0  0  0  0  0  0  0  0  0  0
   56.5300   25.9380   46.0180 S   0  0  0  0  0  0  0  0  0  0  0  0
   56.7790   24.7650   45.1110 O   0  0  0  0  0  0  0  0  0  0  0  0
   56.9380   25.5610   47.4150 O   0  0  0  0  0  0  0  0  0  0  0  0
   57.4710   27.3240   45.4770 C   0  0  0  0  0  0  0  0  0  0  0  0
   58.7290   27.1380   44.8900 C   0  0  0  0  0  0  0  0  0  0  0  0
   59.1418   26.1236   44.7869 H   0  0  0  0  0  0  0  0  0  0  0  0
   59.4610   28.2380   44.4350 C   0  0  0  0  0  0  0  0  0  0  0  0
   60.4458   28.0869   43.9687 H   0  0  0  0  0  0  0  0  0  0  0  0
   58.9450   29.5290   44.5710 C   0  0  0  0  0  0  0  0  0  0  0  0
   59.5191   30.3907   44.1997 H   0  0  0  0  0  0  0  0  0  0  0  0
   57.6920   29.7310   45.1820 C   0  0  0  0  0  0  0  0  0  0  0  0
   57.1050   31.0380   45.3030 N   0  0  0  0  0  0  0  0  0  0  0  0
   57.7340   32.1630   45.4910 C   0  0  0  0  0  0  0  0  0  0  0  0
   58.8180   32.1840   46.3090 N   0  0  0  0  0  0  0  0  0  0  0  0
   59.5300   33.3240   46.5300 C   0  0  0  0  0  0  0  0  0  0  0  0
   60.7070   33.2830   47.4350 C   0  0  0  0  0  0  0  0  0  0  0  0
   60.6470   33.7750   48.7520 C   0  0  0  0  0  0  0  0  0  0  0  0
   59.7110   34.2111   49.1312 H   0  0  0  0  0  0  0  0  0  0  0  0
   61.7400   33.7140   49.5580 N   0  0  0  0  0  0  0  0  0  0  0  0
   62.9200   33.1740   49.1470 C   0  0  0  0  0  0  0  0  0  0  0  0
   64.0470   33.1600   50.0440 N   0  0  0  0  0  0  0  0  0  0  0  0
   64.9790   32.0250   50.0880 C   0  0  0  0  0  0  0  0  0  0  0  0
   64.7511   31.4044   50.9672 H   0  0  0  0  0  0  0  0  0  0  0  0
   64.8640   31.4367   49.1657 H   0  0  0  0  0  0  0  0  0  0  0  0
   66.4380   32.5210   50.1820 C   0  0  0  0  0  0  0  0  0  0  0  0
   67.0168   31.7859   50.7605 H   0  0  0  0  0  0  0  0  0  0  0  0
   66.8040   32.6310   49.1505 H   0  0  0  0  0  0  0  0  0  0  0  0
   66.5830   33.8400   50.8300 N   0  0  0  0  0  0  0  0  0  0  0  0
   66.5670   34.5830   50.0910 H   0  0  0  0  0  0  0  0  0  0  0  0
   65.5090   34.1190   51.7920 C   0  0  0  0  0  0  0  0  0  0  0  0
   65.4744   33.3136   52.5405 H   0  0  0  0  0  0  0  0  0  0  0  0
   65.7108   35.0825   52.2829 H   0  0  0  0  0  0  0  0  0  0  0  0
   64.1550   34.2000   51.0730 C   0  0  0  0  0  0  0  0  0  0  0  0
   63.3480   34.0648   51.8081 H   0  0  0  0  0  0  0  0  0  0  0  0
   64.0719   35.1842   50.5888 H   0  0  0  0  0  0  0  0  0  0  0  0
   63.0250   32.6780   47.8390 C   0  0  0  0  0  0  0  0  0  0  0  0
   63.9753   32.2536   47.4829 H   0  0  0  0  0  0  0  0  0  0  0  0
   61.9180   32.7260   46.9930 C   0  0  0  0  0  0  0  0  0  0  0  0
   61.9937   32.3246   45.9717 H   0  0  0  0  0  0  0  0  0  0  0  0
   59.1400   34.5030   45.8750 C   0  0  0  0  0  0  0  0  0  0  0  0
   59.6987   35.4386   46.0248 H   0  0  0  0  0  0  0  0  0  0  0  0
   58.0310   34.4650   45.0310 C   0  0  0  0  0  0  0  0  0  0  0  0
   57.7046   35.3773   44.5102 H   0  0  0  0  0  0  0  0  0  0  0  0
   57.3540   33.3020   44.8520 N   0  0  0  0  0  0  0  0  0  0  0  0
   56.9510   28.6200   45.6040 C   0  0  0  0  0  0  0  0  0  0  0  0
   55.9513   28.7655   46.0393 H   0  0  0  0  0  0  0  0  0  0  0  0
  1  2  1  0
  2  3  1  0
  3  4  2  0
  3  5  2  0
  3  6  1  0
  6  7  2  0
  7  8  1  0
  7  9  1  0
  9 10  1  0
  9 11  2  0
 11 12  1  0
 11 13  1  0
 13 14  1  0
 14 15  2  0
 15 16  1  0
 16 17  2  0
 17 18  1  0
 18 19  2  0
 19 20  1  0
 19 21  1  0
 21 22  2  0
 22 23  1  0
 23 24  1  0
 24 25  1  0
 24 26  1  0
 24 27  1  0
 27 28  1  0
 27 29  1  0
 27 30  1  0
 30 31  1  0
 30 32  1  0
 32 33  1  0
 32 34  1  0
 32 35  1  0
 35 36  1  0
 35 37  1  0
 22 38  1  0
 38 39  1  0
 38 40  2  0
 40 41  1  0
 17 42  1  0
 42 43  1  0
 42 44  2  0
 44 45  1  0
 44 46  1  0
 13 47  2  0
 47 48  1  0
 47  6  1  0
 46 15  1  0
 40 18  1  0
 35 23  1  0
M  CHG  2   2  -1  46  -1
M  END
>  <UniqueID>  (42) 
40

>  <SMILES>  (42) 
[NH-]S(=O)(=O)c1cccc(/N=c2/nc(-c3ccc(N4CCNCC4)nc3)cc[n-]2)c1

>  <Energy>  (42) 
70.72218459923057

>  <Genealogy>  (42) 
[NH-]S(=O)(=O)c1cccc(N=c2nc(-c3ccc(N4CCNCC4)nc3)cc[n-]2)c1 (protonated)
[NH-]S(=O)(=O)c1cccc(/N=c2/nc(-c3ccc(N4CCNCC4)nc3)cc[n-]2)c1 (cis-trans isomerization)
[NH-]S(=O)(=O)c1cccc(/N=c2/nc(-c3ccc(N4CCNCC4)nc3)cc[n-]2)c1 (3D coordinates assigned)
[NH-]S(=O)(=O)c1cccc(/N=c2/nc(-c3ccc(N4CCNCC4)nc3)cc[n-]2)c1 (nonaromatic ring conformer: 70.72218459923057 kcal/mol)

>  <smiles>  (42) 
NS(=O)(=O)c1cccc(N=c2nc(-c3ccc(N4CCNCC4)nc3)cc[nH]2)c1

>  <score_type>  (42) 
oracle

>  <origin>  (42) 
adg

>  <m_score__min__energy>  (42) 
-13.56

>  <m_primary>  (42) 
energy

$$$$
42:0
     RDKit          3D

 20 20  0  0  0  0  0  0  0  0999 V2000
   55.2150   29.7230   43.5800 N   0  0  0  0  0  0  0  0  0  0  0  0
   56.6030   29.4940   43.8240 C   0  0  0  0  0  0  0  0  0  0  0  0
   57.2660   28.6490   43.0990 N   0  0  0  0  0  0  0  0  0  0  0  0
   57.4260   30.3710   45.1600 S   0  0  0  0  0  0  0  0  0  0  0  0
   57.3940   31.9940   44.3230 C   0  0  0  0  0  0  0  0  0  0  0  0
   58.0180   33.0450   45.1870 C   0  0  0  0  0  0  0  0  0  0  0  0
   58.8950   34.0210   44.7560 C   0  0  0  0  0  0  0  0  0  0  0  0
   59.2620   34.7310   45.8820 C   0  0  0  0  0  0  0  0  0  0  0  0
   58.6000   34.1540   46.9470 C   0  0  0  0  0  0  0  0  0  0  0  0
   57.8450   33.1250   46.5190 N   0  0  0  0  0  0  0  0  0  0  0  0
   54.7160   29.2290   42.8080 H   0  0  0  0  0  0  0  0  0  0  0  0
   54.6830   30.4000   44.1700 H   0  0  0  0  0  0  0  0  0  0  0  0
   56.9150   27.6760   42.9620 H   0  0  0  0  0  0  0  0  0  0  0  0
   58.1640   28.9230   42.6400 H   0  0  0  0  0  0  0  0  0  0  0  0
   57.9526   31.9244   43.3780 H   0  0  0  0  0  0  0  0  0  0  0  0
   56.3477   32.2713   44.1271 H   0  0  0  0  0  0  0  0  0  0  0  0
   59.2329   34.1972   43.7241 H   0  0  0  0  0  0  0  0  0  0  0  0
   59.9485   35.5895   45.9225 H   0  0  0  0  0  0  0  0  0  0  0  0
   58.6780   34.4865   47.9926 H   0  0  0  0  0  0  0  0  0  0  0  0
   57.2520   32.5040   47.1140 H   0  0  0  0  0  0  0  0  0  0  0  0
  1  2  1  0
  2  3  2  0
  2  4  1  0
  4  5  1  0
  5  6  1  0
  6  7  2  0
  7  8  1  0
  8  9  2  0
  9 10  1  0
 10  6  1  0
  1 11  1  0
  1 12  1  0
  3 13  1  0
  3 14  1  0
  5 15  1  0
  5 16  1  0
  7 17  1  0
  8 18  1  0
  9 19  1  0
 10 20  1  0
M  CHG  1   3   1
M  END
>  <UniqueID>  (43) 
41

>  <SMILES>  (43) 
NC(=[NH2+])SCc1ccc[nH]1

>  <Energy>  (43) 
35.03578116465571

>  <Genealogy>  (43) 
NC(=[NH2+])SCc1ccc[nH]1 (protonated)
NC(=[NH2+])SCc1ccc[nH]1 (3D coordinates assigned)
NC(=[NH2+])SCc1ccc[nH]1 (optimized conformer: 35.03578116465571 kcal/mol)

>  <smiles>  (43) 
N=C(N)SCc1ccc[nH]1

>  <score_type>  (43) 
oracle

>  <origin>  (43) 
adg

>  <m_score__min__energy>  (43) 
-3.8700000000000001

>  <m_primary>  (43) 
energy

$$$$
43:0
     RDKit          3D

 44 46  0  0  0  0  0  0  0  0999 V2000
   64.8020   35.3010   52.4760 C   0  0  0  0  0  0  0  0  0  0  0  0
   64.5430   33.9580   52.0780 O   0  0  0  0  0  0  0  0  0  0  0  0
   63.8130   33.5930   50.9350 C   0  0  0  0  0  0  0  0  0  0  0  0
   62.4140   33.7120   50.8730 C   0  0  0  0  0  0  0  0  0  0  0  0
   61.7130   33.3410   49.7150 C   0  0  0  0  0  0  0  0  0  0  0  0
   62.4150   32.8130   48.6130 C   0  0  0  0  0  0  0  0  0  0  0  0
   63.8140   32.7120   48.6730 C   0  0  0  0  0  0  0  0  0  0  0  0
   64.5160   33.0940   49.8290 C   0  0  0  0  0  0  0  0  0  0  0  0
   65.9140   32.9920   49.9220 O   0  0  0  0  0  0  0  0  0  0  0  0
   66.6030   32.0090   50.6880 C   0  0  0  0  0  0  0  0  0  0  0  0
   61.6960   32.3880   47.3520 C   0  0  0  0  0  0  0  0  0  0  0  0
   60.8440   33.4560   46.6860 C   0  0  0  0  0  0  0  0  0  0  0  0
   61.2400   33.9000   45.6180 O   0  0  0  0  0  0  0  0  0  0  0  0
   59.5970   33.9700   47.2460 N   0  0  1  0  0  0  0  0  0  0  0  0
   58.4480   33.0430   47.0830 C   0  0  0  0  0  0  0  0  0  0  0  0
   57.7020   33.2690   45.7850 C   0  0  0  0  0  0  0  0  0  0  0  0
   57.8410   34.3800   45.2070 O   0  0  0  0  0  0  0  0  0  0  0  0
   56.7850   32.3180   45.2140 N   0  0  0  0  0  0  0  0  0  0  0  0
   56.9910   31.0740   44.8960 C   0  0  0  0  0  0  0  0  0  0  0  0
   56.0420   30.1130   44.8770 N   0  0  0  0  0  0  0  0  0  0  0  0
   56.5590   28.9060   44.5270 C   0  0  0  0  0  0  0  0  0  0  0  0
   57.9260   28.9000   44.2740 C   0  0  0  0  0  0  0  0  0  0  0  0
   58.5020   30.4660   44.4960 S   0  0  0  0  0  0  0  0  0  0  0  0
   59.7340   34.4740   48.6430 C   0  0  0  0  0  0  0  0  0  0  0  0
   60.2130   33.4410   49.6840 C   0  0  0  0  0  0  0  0  0  0  0  0
   64.8138   35.3622   53.5742 H   0  0  0  0  0  0  0  0  0  0  0  0
   65.7780   35.6189   52.0806 H   0  0  0  0  0  0  0  0  0  0  0  0
   64.0142   35.9590   52.0806 H   0  0  0  0  0  0  0  0  0  0  0  0
   61.8622   34.1003   51.7418 H   0  0  0  0  0  0  0  0  0  0  0  0
   64.3681   32.3287   47.8035 H   0  0  0  0  0  0  0  0  0  0  0  0
   66.4602   32.2127   51.7595 H   0  0  0  0  0  0  0  0  0  0  0  0
   66.2050   31.0120   50.4481 H   0  0  0  0  0  0  0  0  0  0  0  0
   67.6760   32.0430   50.4481 H   0  0  0  0  0  0  0  0  0  0  0  0
   62.4538   32.0590   46.6257 H   0  0  0  0  0  0  0  0  0  0  0  0
   60.9972   31.5957   47.6584 H   0  0  0  0  0  0  0  0  0  0  0  0
   59.3460   34.8160   46.6780 H   0  0  0  0  0  0  0  0  0  0  0  0
   58.8235   32.0092   47.0990 H   0  0  0  0  0  0  0  0  0  0  0  0
   57.7466   33.2306   47.9093 H   0  0  0  0  0  0  0  0  0  0  0  0
   55.9407   27.9995   44.4495 H   0  0  0  0  0  0  0  0  0  0  0  0
   58.5256   28.0258   43.9804 H   0  0  0  0  0  0  0  0  0  0  0  0
   60.4562   35.3037   48.6335 H   0  0  0  0  0  0  0  0  0  0  0  0
   58.7211   34.7671   48.9562 H   0  0  0  0  0  0  0  0  0  0  0  0
   59.8548   33.7443   50.6788 H   0  0  0  0  0  0  0  0  0  0  0  0
   59.8083   32.4572   49.4038 H   0  0  0  0  0  0  0  0  0  0  0  0
  1  2  1  0
  2  3  1  0
  3  4  2  0
  4  5  1  0
  5  6  2  0
  6  7  1  0
  7  8  2  0
  8  9  1  0
  9 10  1  0
  6 11  1  0
 11 12  1  0
 12 13  2  0
 12 14  1  0
 14 15  1  0
 15 16  1  0
 16 17  2  0
 16 18  1  0
 18 19  2  3
 19 20  1  0
 20 21  1  0
 21 22  2  0
 22 23  1  0
 14 24  1  0
 24 25  1  0
  8  3  1  0
 23 19  1  0
 25  5  1  0
  1 26  1  0
  1 27  1  0
  1 28  1  0
  4 29  1  0
  7 30  1  0
 10 31  1  0
 10 32  1  0
 10 33  1  0
 11 34  1  0
 11 35  1  0
 14 36  1  6
 15 37  1  0
 15 38  1  0
 21 39  1  0
 22 40  1  0
 24 41  1  0
 24 42  1  0
 25 43  1  0
 25 44  1  0
M  CHG  2  14   1  20  -1
M  END
>  <UniqueID>  (44) 
42

>  <SMILES>  (44) 
COc1cc2c(cc1OC)CC(=O)[N@@H+](CC(=O)N=c1[n-]ccs1)CC2

>  <Energy>  (44) 
93.64926545302157

>  <Genealogy>  (44) 
COc1cc2c(cc1OC)CC(=O)[NH+](CC(=O)N=c1[n-]ccs1)CC2 (protonated)
COc1cc2c(cc1OC)CC(=O)[N@@H+](CC(=O)N=c1[n-]ccs1)CC2 (chirality)
COc1cc2c(cc1OC)CC(=O)[N@@H+](CC(=O)N=c1[n-]ccs1)CC2 (3D coordinates assigned)
COc1cc2c(cc1OC)CC(=O)[N@@H+](CC(=O)N=c1[n-]ccs1)CC2 (nonaromatic ring conformer: 93.64926545302157 kcal/mol)

>  <smiles>  (44) 
COc1cc2c(cc1OC)CC(=O)N(CC(=O)N=c1[nH]ccs1)CC2

>  <score_type>  (44) 
oracle

>  <origin>  (44) 
adg

>  <m_score__min__energy>  (44) 
-5.0199999999999996

>  <m_primary>  (44) 
energy

$$$$
44:0
     RDKit          3D

 51 54  0  0  0  0  0  0  0  0999 V2000
   61.9500   32.0810   50.2330 O   0  0  0  0  0  0  0  0  0  0  0  0
   61.5660   32.2930   49.0500 C   0  0  0  0  0  0  0  0  0  0  0  0
   61.8040   33.6480   48.4290 C   0  0  0  0  0  0  0  0  0  0  0  0
   60.6170   34.6000   48.6280 C   0  0  0  0  0  0  0  0  0  0  0  0
   59.5500   34.2910   47.6630 N   0  0  0  0  0  0  0  0  0  0  0  0
   58.6070   33.3550   47.9880 C   0  0  0  0  0  0  0  0  0  0  0  0
   57.5990   33.0220   47.0840 C   0  0  0  0  0  0  0  0  0  0  0  0
   57.5810   33.6550   45.8450 C   0  0  0  0  0  0  0  0  0  0  0  0
   56.6850   33.3810   45.0050 O   0  0  0  0  0  0  0  0  0  0  0  0
   58.5360   34.5690   45.5410 N   0  0  0  0  0  0  0  0  0  0  0  0
   59.5160   34.8880   46.4280 C   0  0  0  0  0  0  0  0  0  0  0  0
   60.3890   35.7350   46.0960 O   0  0  0  0  0  0  0  0  0  0  0  0
   60.9460   31.2220   48.3070 N   0  0  0  0  0  0  0  0  0  0  0  0
   60.2310   30.1780   49.0570 C   0  0  0  0  0  0  0  0  0  0  0  0
   59.5590   29.1660   48.1250 C   0  0  0  0  0  0  0  0  0  0  0  0
   60.5630   28.6770   47.0710 C   0  0  0  0  0  0  0  0  0  0  0  0
   59.9410   27.6730   46.1970 N   0  0  0  0  0  0  0  0  0  0  0  0
   58.5200   27.6040   45.9670 C   0  0  0  0  0  0  0  0  0  0  0  0
   57.7790   26.5160   46.4610 C   0  0  0  0  0  0  0  0  0  0  0  0
   56.3960   26.4700   46.2780 C   0  0  0  0  0  0  0  0  0  0  0  0
   55.7330   25.4990   46.7260 O   0  0  0  0  0  0  0  0  0  0  0  0
   55.7610   27.4740   45.6230 N   0  0  0  0  0  0  0  0  0  0  0  0
   56.4330   28.5420   45.1220 C   0  0  0  0  0  0  0  0  0  0  0  0
   55.7290   29.5440   44.4450 C   0  0  0  0  0  0  0  0  0  0  0  0
   56.4090   30.6360   43.9020 C   0  0  0  0  0  0  0  0  0  0  0  0
   57.7960   30.7280   44.0260 C   0  0  0  0  0  0  0  0  0  0  0  0
   58.4530   31.7820   43.4810 F   0  0  0  0  0  0  0  0  0  0  0  0
   58.5130   29.7360   44.7020 C   0  0  0  0  0  0  0  0  0  0  0  0
   57.8400   28.6360   45.2750 C   0  0  0  0  0  0  0  0  0  0  0  0
   61.1320   29.8520   46.2320 C   0  0  0  0  0  0  0  0  0  0  0  0
   60.8840   31.2470   46.8360 C   0  0  0  0  0  0  0  0  0  0  0  0
   62.6969   34.0957   48.8898 H   0  0  0  0  0  0  0  0  0  0  0  0
   61.9387   33.5018   47.3471 H   0  0  0  0  0  0  0  0  0  0  0  0
   60.2268   34.4854   49.6501 H   0  0  0  0  0  0  0  0  0  0  0  0
   60.9560   35.6343   48.4690 H   0  0  0  0  0  0  0  0  0  0  0  0
   58.6442   32.8611   48.9702 H   0  0  0  0  0  0  0  0  0  0  0  0
   56.8346   32.2751   47.3446 H   0  0  0  0  0  0  0  0  0  0  0  0
   60.9484   29.6475   49.7004 H   0  0  0  0  0  0  0  0  0  0  0  0
   59.4466   30.6642   49.6556 H   0  0  0  0  0  0  0  0  0  0  0  0
   59.2026   28.3084   48.7145 H   0  0  0  0  0  0  0  0  0  0  0  0
   58.7100   29.6488   47.6190 H   0  0  0  0  0  0  0  0  0  0  0  0
   61.4056   28.2118   47.6036 H   0  0  0  0  0  0  0  0  0  0  0  0
   60.5530   26.9630   45.7360 H   0  0  0  0  0  0  0  0  0  0  0  0
   58.2900   25.6997   46.9926 H   0  0  0  0  0  0  0  0  0  0  0  0
   54.6364   29.4712   44.3402 H   0  0  0  0  0  0  0  0  0  0  0  0
   55.8509   31.4245   43.3760 H   0  0  0  0  0  0  0  0  0  0  0  0
   59.6069   29.8134   44.7875 H   0  0  0  0  0  0  0  0  0  0  0  0
   62.2181   29.7088   46.1326 H   0  0  0  0  0  0  0  0  0  0  0  0
   60.6052   29.8309   45.2666 H   0  0  0  0  0  0  0  0  0  0  0  0
   61.6501   31.9403   46.4586 H   0  0  0  0  0  0  0  0  0  0  0  0
   59.8763   31.5746   46.5406 H   0  0  0  0  0  0  0  0  0  0  0  0
  1  2  2  0
  2  3  1  0
  3  4  1  0
  4  5  1  0
  5  6  1  0
  6  7  2  0
  7  8  1  0
  8  9  2  0
  8 10  1  0
 10 11  1  0
 11 12  2  0
  2 13  1  0
 13 14  1  0
 14 15  1  0
 15 16  1  0
 16 17  1  0
 17 18  1  0
 18 19  2  0
 19 20  1  0
 20 21  2  0
 20 22  1  0
 22 23  1  0
 23 24  2  0
 24 25  1  0
 25 26  2  0
 26 27  1  0
 26 28  1  0
 28 29  2  0
 16 30  1  0
 30 31  1  0
 11  5  1  0
 31 13  1  0
 29 18  1  0
 29 23  1  0
  3 32  1  0
  3 33  1  0
  4 34  1  0
  4 35  1  0
  6 36  1  0
  7 37  1  0
 14 38  1  0
 14 39  1  0
 15 40  1  0
 15 41  1  0
 16 42  1  0
 17 43  1  0
 19 44  1  0
 24 45  1  0
 25 46  1  0
 28 47  1  0
 30 48  1  0
 30 49  1  0
 31 50  1  0
 31 51  1  0
M  CHG  2  10  -1  22  -1
M  END
>  <UniqueID>  (45) 
43

>  <SMILES>  (45) 
O=C(CCn1ccc(=O)[n-]c1=O)N1CCC(Nc2cc(=O)[n-]c3ccc(F)cc23)CC1

>  <Energy>  (45) 
65.71542206263615

>  <Genealogy>  (45) 
O=C(CCn1ccc(=O)[n-]c1=O)N1CCC(Nc2cc(=O)[n-]c3ccc(F)cc23)CC1 (protonated)
O=C(CCn1ccc(=O)[n-]c1=O)N1CCC(Nc2cc(=O)[n-]c3ccc(F)cc23)CC1 (3D coordinates assigned)
O=C(CCn1ccc(=O)[n-]c1=O)N1CCC(Nc2cc(=O)[n-]c3ccc(F)cc23)CC1 (nonaromatic ring conformer: 65.71542206263615 kcal/mol)

>  <smiles>  (45) 
O=C(CCn1ccc(=O)[nH]c1=O)N1CCC(Nc2cc(=O)[nH]c3ccc(F)cc23)CC1

>  <score_type>  (45) 
oracle

>  <origin>  (45) 
adg

>  <m_score__min__energy>  (45) 
-11.609999999999999

>  <m_primary>  (45) 
energy

$$$$
45:0
     RDKit          3D

 32 34  0  0  0  0  0  0  0  0999 V2000
   54.9150   26.6980   45.9960 O   0  0  0  0  0  0  0  0  0  0  0  0
   56.2640   26.4110   46.1730 C   0  0  0  0  0  0  0  0  0  0  0  0
   56.6290   25.2260   46.8390 C   0  0  0  0  0  0  0  0  0  0  0  0
   55.6650   24.3270   47.2940 O   0  0  0  0  0  0  0  0  0  0  0  0
   57.9790   24.9370   47.0600 C   0  0  0  0  0  0  0  0  0  0  0  0
   58.9660   25.8200   46.6250 C   0  0  0  0  0  0  0  0  0  0  0  0
   58.6130   26.9950   45.9600 C   0  0  0  0  0  0  0  0  0  0  0  0
   57.2610   27.3030   45.7130 C   0  0  0  0  0  0  0  0  0  0  0  0
   56.9240   28.5550   44.9880 C   0  0  0  0  0  0  0  0  0  0  0  0
   56.3190   29.5290   45.5760 N   0  0  0  0  0  0  0  0  0  0  0  0
   56.1310   30.6330   44.7840 O   0  0  0  0  0  0  0  0  0  0  0  0
   56.6350   30.5510   43.4600 C   0  0  1  0  0  0  0  0  0  0  0  0
   57.6620   31.6650   43.2310 C   0  0  0  0  0  0  0  0  0  0  0  0
   58.0610   32.3250   44.5260 C   0  0  0  0  0  0  0  0  0  0  0  0
   58.8610   31.6360   45.4530 C   0  0  0  0  0  0  0  0  0  0  0  0
   59.2130   32.2380   46.6650 C   0  0  0  0  0  0  0  0  0  0  0  0
   58.7660   33.5280   46.9610 C   0  0  0  0  0  0  0  0  0  0  0  0
   57.9650   34.2190   46.0480 C   0  0  0  0  0  0  0  0  0  0  0  0
   57.6110   33.6210   44.8350 C   0  0  0  0  0  0  0  0  0  0  0  0
   57.3980   28.8940   43.2930 S   0  0  0  0  0  0  0  0  0  0  0  0
   54.6730   24.4900   47.1680 H   0  0  0  0  0  0  0  0  0  0  0  0
   58.2632   24.0097   47.5789 H   0  0  0  0  0  0  0  0  0  0  0  0
   60.0263   25.5899   46.8064 H   0  0  0  0  0  0  0  0  0  0  0  0
   59.3989   27.6880   45.6252 H   0  0  0  0  0  0  0  0  0  0  0  0
   55.8417   30.6809   42.7091 H   0  0  0  0  0  0  0  0  0  0  0  0
   58.5573   31.2340   42.7591 H   0  0  0  0  0  0  0  0  0  0  0  0
   57.2050   32.4269   42.5824 H   0  0  0  0  0  0  0  0  0  0  0  0
   59.2119   30.6188   45.2244 H   0  0  0  0  0  0  0  0  0  0  0  0
   59.8423   31.6954   47.3858 H   0  0  0  0  0  0  0  0  0  0  0  0
   59.0450   34.0006   47.9143 H   0  0  0  0  0  0  0  0  0  0  0  0
   57.6128   35.2341   46.2839 H   0  0  0  0  0  0  0  0  0  0  0  0
   56.9780   34.1663   44.1195 H   0  0  0  0  0  0  0  0  0  0  0  0
  1  2  1  0
  2  3  2  0
  3  4  1  0
  3  5  1  0
  5  6  2  0
  6  7  1  0
  7  8  2  0
  8  9  1  0
  9 10  2  0
 10 11  1  0
 11 12  1  0
 12 13  1  0
 13 14  1  0
 14 15  2  0
 15 16  1  0
 16 17  2  0
 17 18  1  0
 18 19  2  0
 12 20  1  0
  8  2  1  0
 20  9  1  0
 19 14  1  0
  4 21  1  0
  5 22  1  0
  6 23  1  0
  7 24  1  0
 12 25  1  6
 13 26  1  0
 13 27  1  0
 15 28  1  0
 16 29  1  0
 17 30  1  0
 18 31  1  0
 19 32  1  0
M  CHG  1   1  -1
M  END
>  <UniqueID>  (46) 
44

>  <SMILES>  (46) 
[O-]c1c(O)cccc1C1=NO[C@@H](Cc2ccccc2)S1

>  <Energy>  (46) 
46.086063747922566

>  <Genealogy>  (46) 
[O-]c1c(O)cccc1C1=NOC(Cc2ccccc2)S1 (protonated)
[O-]c1c(O)cccc1C1=NO[C@@H](Cc2ccccc2)S1 (chirality)
[O-]c1c(O)cccc1C1=NO[C@@H](Cc2ccccc2)S1 (3D coordinates assigned)
[O-]c1c(O)cccc1C1=NO[C@@H](Cc2ccccc2)S1 (nonaromatic ring conformer: 46.086063747922566 kcal/mol)

>  <smiles>  (46) 
Oc1cccc(C2=NOC(Cc3ccccc3)S2)c1O

>  <score_type>  (46) 
oracle

>  <origin>  (46) 
adg

>  <m_score__min__energy>  (46) 
-12.81

>  <m_primary>  (46) 
energy

$$$$
46:0
     RDKit          3D

 46 49  0  0  0  0  0  0  0  0999 V2000
   59.0310   27.8390   47.5210 C   0  0  0  0  0  0  0  0  0  0  0  0
   58.0800   28.4600   46.5990 N   0  0  0  0  0  0  0  0  0  0  0  0
   57.0160   27.8790   45.9690 C   0  0  0  0  0  0  0  0  0  0  0  0
   56.6160   26.4670   46.1030 C   0  0  0  0  0  0  0  0  0  0  0  0
   55.4050   26.1280   46.0120 O   0  0  0  0  0  0  0  0  0  0  0  0
   57.6030   25.5020   46.3350 O   0  0  0  0  0  0  0  0  0  0  0  0
   58.4620   24.9970   45.3150 C   0  0  0  0  0  0  0  0  0  0  0  0
   57.7440   23.9570   44.4870 C   0  0  0  0  0  0  0  0  0  0  0  0
   56.5580   24.3040   43.8150 C   0  0  0  0  0  0  0  0  0  0  0  0
   55.8690   23.3550   43.0560 C   0  0  0  0  0  0  0  0  0  0  0  0
   56.3540   22.0490   42.9610 C   0  0  0  0  0  0  0  0  0  0  0  0
   57.5280   21.6870   43.6240 C   0  0  0  0  0  0  0  0  0  0  0  0
   58.2280   22.6310   44.3890 C   0  0  0  0  0  0  0  0  0  0  0  0
   59.4340   22.2190   45.0670 C   0  0  0  0  0  0  0  0  0  0  0  0
   60.4010   21.8890   45.6100 N   0  0  0  0  0  0  0  0  0  0  0  0
   56.3310   28.7380   45.1660 N   0  0  0  0  0  0  0  0  0  0  0  0
   57.0080   29.8870   45.3180 C   0  0  0  0  0  0  0  0  0  0  0  0
   56.7270   31.0650   44.7130 N   0  0  0  0  0  0  0  0  0  0  0  0
   57.5170   32.1520   44.9630 C   0  0  0  0  0  0  0  0  0  0  0  0
   57.2430   33.2470   44.4040 O   0  0  0  0  0  0  0  0  0  0  0  0
   58.6270   32.0490   45.8540 C   0  0  0  0  0  0  0  0  0  0  0  0
   59.5100   33.2140   46.1170 C   0  0  0  0  0  0  0  0  0  0  0  0
   59.2090   34.3320   45.6190 O   0  0  0  0  0  0  0  0  0  0  0  0
   60.7430   33.1000   46.9350 C   0  0  0  0  0  0  0  0  0  0  0  0
   61.9930   33.5000   46.4240 C   0  0  0  0  0  0  0  0  0  0  0  0
   63.1490   33.3760   47.2010 C   0  0  0  0  0  0  0  0  0  0  0  0
   63.0730   32.8420   48.4910 C   0  0  0  0  0  0  0  0  0  0  0  0
   64.5240   32.6860   49.4630 Cl  0  0  0  0  0  0  0  0  0  0  0  0
   61.8400   32.4280   49.0020 C   0  0  0  0  0  0  0  0  0  0  0  0
   60.6820   32.5500   48.2280 C   0  0  0  0  0  0  0  0  0  0  0  0
   58.9020   30.8020   46.4610 C   0  0  0  0  0  0  0  0  0  0  0  0
   58.0540   29.7350   46.1680 C   0  0  0  0  0  0  0  0  0  0  0  0
   58.7221   28.0407   48.5573 H   0  0  0  0  0  0  0  0  0  0  0  0
   59.0519   26.7527   47.3495 H   0  0  0  0  0  0  0  0  0  0  0  0
   60.0341   28.2567   47.3495 H   0  0  0  0  0  0  0  0  0  0  0  0
   58.7761   25.8254   44.6630 H   0  0  0  0  0  0  0  0  0  0  0  0
   59.3404   24.5324   45.7868 H   0  0  0  0  0  0  0  0  0  0  0  0
   56.1700   25.3307   43.8877 H   0  0  0  0  0  0  0  0  0  0  0  0
   54.9434   23.6368   42.5326 H   0  0  0  0  0  0  0  0  0  0  0  0
   55.8098   21.3037   42.3624 H   0  0  0  0  0  0  0  0  0  0  0  0
   57.9056   20.6568   43.5460 H   0  0  0  0  0  0  0  0  0  0  0  0
   62.0604   33.9128   45.4066 H   0  0  0  0  0  0  0  0  0  0  0  0
   64.1197   33.6991   46.7967 H   0  0  0  0  0  0  0  0  0  0  0  0
   61.7803   32.0051   50.0157 H   0  0  0  0  0  0  0  0  0  0  0  0
   59.7163   32.2134   48.6332 H   0  0  0  0  0  0  0  0  0  0  0  0
   59.7569   30.6779   47.1420 H   0  0  0  0  0  0  0  0  0  0  0  0
  1  2  1  0
  2  3  1  0
  3  4  1  0
  4  5  2  0
  4  6  1  0
  6  7  1  0
  7  8  1  0
  8  9  2  0
  9 10  1  0
 10 11  2  0
 11 12  1  0
 12 13  2  0
 13 14  1  0
 14 15  3  0
  3 16  2  0
 16 17  1  0
 17 18  1  0
 18 19  1  0
 19 20  2  0
 19 21  1  0
 21 22  1  0
 22 23  2  0
 22 24  1  0
 24 25  2  0
 25 26  1  0
 26 27  2  0
 27 28  1  0
 27 29  1  0
 29 30  2  0
 21 31  2  0
 31 32  1  0
 32  2  1  0
 13  8  1  0
 32 17  2  0
 30 24  1  0
  1 33  1  0
  1 34  1  0
  1 35  1  0
  7 36  1  0
  7 37  1  0
  9 38  1  0
 10 39  1  0
 11 40  1  0
 12 41  1  0
 25 42  1  0
 26 43  1  0
 29 44  1  0
 30 45  1  0
 31 46  1  0
M  CHG  1  18  -1
M  END
>  <UniqueID>  (47) 
45

>  <SMILES>  (47) 
Cn1c(C(=O)OCc2ccccc2C#N)nc2[n-]c(=O)c(C(=O)c3ccc(Cl)cc3)cc21

>  <Energy>  (47) 
96.99794191283297

>  <Genealogy>  (47) 
Cn1c(C(=O)OCc2ccccc2C#N)nc2[n-]c(=O)c(C(=O)c3ccc(Cl)cc3)cc21 (protonated)
Cn1c(C(=O)OCc2ccccc2C#N)nc2[n-]c(=O)c(C(=O)c3ccc(Cl)cc3)cc21 (3D coordinates assigned)
Cn1c(C(=O)OCc2ccccc2C#N)nc2[n-]c(=O)c(C(=O)c3ccc(Cl)cc3)cc21 (optimized conformer: 96.99794191283297 kcal/mol)

>  <smiles>  (47) 
Cn1c(C(=O)OCc2ccccc2C#N)nc2[nH]c(=O)c(C(=O)c3ccc(Cl)cc3)cc21

>  <score_type>  (47) 
oracle

>  <origin>  (47) 
adg

>  <m_score__min__energy>  (47) 
-11.619999999999999

>  <m_primary>  (47) 
energy

$$$$
47:0
     RDKit          3D

 50 52  0  0  0  0  0  0  0  0999 V2000
   56.6190   30.4360   42.1520 O   0  0  0  0  0  0  0  0  0  0  0  0
   56.9320   30.8740   43.2940 C   0  0  0  0  0  0  0  0  0  0  0  0
   58.0760   31.8330   43.4310 C   0  0  0  0  0  0  0  0  0  0  0  0
   57.6800   33.0490   44.2760 C   0  0  0  0  0  0  0  0  0  0  0  0
   58.3810   33.0210   45.6090 C   0  0  0  0  0  0  0  0  0  0  0  0
   58.5920   31.8020   46.2700 C   0  0  0  0  0  0  0  0  0  0  0  0
   59.2560   31.7730   47.5000 C   0  0  0  0  0  0  0  0  0  0  0  0
   59.7360   32.9590   48.0720 C   0  0  0  0  0  0  0  0  0  0  0  0
   60.5370   32.9270   49.6430 S   0  0  0  0  0  0  0  0  0  0  0  0
   60.0200   31.7470   50.4200 O   0  0  0  0  0  0  0  0  0  0  0  0
   60.1490   34.1700   50.3990 O   0  0  0  0  0  0  0  0  0  0  0  0
   62.2870   32.8390   49.5550 N   0  0  0  0  0  0  0  0  0  0  0  0
   62.7760   31.5460   49.0230 C   0  0  0  0  0  0  0  0  0  0  0  0
   62.9190   31.5430   47.4940 C   0  0  0  0  0  0  0  0  0  0  0  0
   63.7050   32.6330   47.0660 O   0  0  0  0  0  0  0  0  0  0  0  0
   63.0240   33.8320   47.3650 C   0  0  0  0  0  0  0  0  0  0  0  0
   62.8870   34.0160   48.8840 C   0  0  0  0  0  0  0  0  0  0  0  0
   59.5210   34.1790   47.4140 C   0  0  0  0  0  0  0  0  0  0  0  0
   58.8590   34.2090   46.1840 C   0  0  0  0  0  0  0  0  0  0  0  0
   56.1370   30.5550   44.4480 N   0  0  0  0  0  0  0  0  0  0  0  0
   55.8470   29.3680   44.8980 C   0  0  0  0  0  0  0  0  0  0  0  0
   56.8630   28.3720   45.3020 C   0  0  0  0  0  0  0  0  0  0  0  0
   58.2200   28.6570   45.0940 C   0  0  0  0  0  0  0  0  0  0  0  0
   59.1970   27.7230   45.4530 C   0  0  0  0  0  0  0  0  0  0  0  0
   58.8230   26.4950   46.0050 C   0  0  0  0  0  0  0  0  0  0  0  0
   57.4720   26.1910   46.1890 C   0  0  0  0  0  0  0  0  0  0  0  0
   56.4900   27.1210   45.8300 C   0  0  0  0  0  0  0  0  0  0  0  0
   55.1480   26.7890   45.9890 O   0  0  0  0  0  0  0  0  0  0  0  0
   58.9195   31.3189   43.9149 H   0  0  0  0  0  0  0  0  0  0  0  0
   58.3600   32.1830   42.4276 H   0  0  0  0  0  0  0  0  0  0  0  0
   57.9597   33.9679   43.7400 H   0  0  0  0  0  0  0  0  0  0  0  0
   56.5936   33.0229   44.4467 H   0  0  0  0  0  0  0  0  0  0  0  0
   58.2336   30.8650   45.8188 H   0  0  0  0  0  0  0  0  0  0  0  0
   59.4023   30.8153   48.0210 H   0  0  0  0  0  0  0  0  0  0  0  0
   62.5960   32.8810   50.5560 H   0  0  0  0  0  0  0  0  0  0  0  0
   63.7594   31.3332   49.4676 H   0  0  0  0  0  0  0  0  0  0  0  0
   62.0324   30.7792   49.2859 H   0  0  0  0  0  0  0  0  0  0  0  0
   63.3990   30.6051   47.1778 H   0  0  0  0  0  0  0  0  0  0  0  0
   61.9188   31.6294   47.0445 H   0  0  0  0  0  0  0  0  0  0  0  0
   63.5868   34.6802   46.9481 H   0  0  0  0  0  0  0  0  0  0  0  0
   62.0179   33.7863   46.9227 H   0  0  0  0  0  0  0  0  0  0  0  0
   63.8869   34.1901   49.3082 H   0  0  0  0  0  0  0  0  0  0  0  0
   62.2160   34.8709   49.0540 H   0  0  0  0  0  0  0  0  0  0  0  0
   59.8751   35.1161   47.8683 H   0  0  0  0  0  0  0  0  0  0  0  0
   58.7118   35.1672   45.6642 H   0  0  0  0  0  0  0  0  0  0  0  0
   54.7860   29.0902   44.9825 H   0  0  0  0  0  0  0  0  0  0  0  0
   58.5168   29.6175   44.6474 H   0  0  0  0  0  0  0  0  0  0  0  0
   60.2613   27.9554   45.3006 H   0  0  0  0  0  0  0  0  0  0  0  0
   59.5940   25.7661   46.2953 H   0  0  0  0  0  0  0  0  0  0  0  0
   57.1801   25.2203   46.6162 H   0  0  0  0  0  0  0  0  0  0  0  0
  1  2  2  0
  2  3  1  0
  3  4  1  0
  4  5  1  0
  5  6  2  0
  6  7  1  0
  7  8  2  0
  8  9  1  0
  9 10  2  0
  9 11  2  0
  9 12  1  0
 12 13  1  0
 13 14  1  0
 14 15  1  0
 15 16  1  0
 16 17  1  0
  8 18  1  0
 18 19  2  0
  2 20  1  0
 20 21  2  3
 21 22  1  0
 22 23  2  0
 23 24  1  0
 24 25  2  0
 25 26  1  0
 26 27  2  0
 27 28  1  0
 19  5  1  0
 27 22  1  0
 17 12  1  0
  3 29  1  0
  3 30  1  0
  4 31  1  0
  4 32  1  0
  6 33  1  0
  7 34  1  0
 12 35  1  0
 13 36  1  0
 13 37  1  0
 14 38  1  0
 14 39  1  0
 16 40  1  0
 16 41  1  0
 17 42  1  0
 17 43  1  0
 18 44  1  0
 19 45  1  0
 21 46  1  0
 23 47  1  0
 24 48  1  0
 25 49  1  0
 26 50  1  0
M  CHG  2  12   1  28  -1
M  END
>  <UniqueID>  (48) 
46

>  <SMILES>  (48) 
O=C(CCc1ccc(S(=O)(=O)[NH+]2CCOCC2)cc1)N=Cc1ccccc1[O-]

>  <Energy>  (48) 
63.79231746177917

>  <Genealogy>  (48) 
O=C(CCc1ccc(S(=O)(=O)[NH+]2CCOCC2)cc1)N=Cc1ccccc1[O-] (protonated)
O=C(CCc1ccc(S(=O)(=O)[NH+]2CCOCC2)cc1)N=Cc1ccccc1[O-] (3D coordinates assigned)
O=C(CCc1ccc(S(=O)(=O)[NH+]2CCOCC2)cc1)N=Cc1ccccc1[O-] (nonaromatic ring conformer: 63.79231746177917 kcal/mol)

>  <smiles>  (48) 
O=C(CCc1ccc(S(=O)(=O)N2CCOCC2)cc1)N=Cc1ccccc1O

>  <score_type>  (48) 
oracle

>  <origin>  (48) 
adg

>  <m_score__min__energy>  (48) 
-11.69

>  <m_primary>  (48) 
energy

$$$$
48:0
     RDKit          3D

 51 53  0  0  0  0  0  0  0  0999 V2000
   59.6280   33.8320   51.9830 C   0  0  0  0  0  0  0  0  0  0  0  0
   59.4810   32.9650   50.4340 S   0  0  0  0  0  0  0  0  0  0  0  0
   59.4810   33.9800   49.3270 O   0  0  0  0  0  0  0  0  0  0  0  0
   60.6490   32.0380   50.2470 O   0  0  0  0  0  0  0  0  0  0  0  0
   57.9930   32.0730   50.3640 N   0  0  0  0  0  0  0  0  0  0  0  0
   57.8000   30.7480   50.8730 C   0  0  0  0  0  0  0  0  0  0  0  0
   56.6940   30.4570   51.3990 O   0  0  0  0  0  0  0  0  0  0  0  0
   58.8520   29.7180   50.8070 C   0  0  0  0  0  0  0  0  0  0  0  0
   59.4690   29.2480   51.9750 C   0  0  0  0  0  0  0  0  0  0  0  0
   60.4560   28.2630   51.9010 C   0  0  0  0  0  0  0  0  0  0  0  0
   60.8620   27.7680   50.6600 C   0  0  0  0  0  0  0  0  0  0  0  0
   60.2780   28.2530   49.4860 C   0  0  0  0  0  0  0  0  0  0  0  0
   60.7450   27.5520   47.9010 S   0  0  0  0  0  0  0  0  0  0  0  0
   59.4030   28.3290   46.9780 C   0  0  0  0  0  0  0  0  0  0  0  0
   58.4090   27.4860   46.4660 C   0  0  0  0  0  0  0  0  0  0  0  0
   57.4120   27.9810   45.6290 C   0  0  0  0  0  0  0  0  0  0  0  0
   57.4290   29.3230   45.2260 C   0  0  0  0  0  0  0  0  0  0  0  0
   56.3550   29.8700   44.3190 C   0  0  0  0  0  0  0  0  0  0  0  0
   56.6280   29.5790   42.9940 F   0  0  0  0  0  0  0  0  0  0  0  0
   55.1410   29.3050   44.6620 F   0  0  0  0  0  0  0  0  0  0  0  0
   56.2660   31.2450   44.4490 F   0  0  0  0  0  0  0  0  0  0  0  0
   58.4220   30.1740   45.7360 C   0  0  0  0  0  0  0  0  0  0  0  0
   59.3890   29.7100   46.6530 C   0  0  0  0  0  0  0  0  0  0  0  0
   60.4690   30.6690   47.1380 C   0  0  0  0  0  0  0  0  0  0  0  0
   59.9320   31.8660   47.8180 N   0  0  0  0  0  0  0  0  0  0  0  0
   59.2400   32.7480   46.9070 C   0  0  0  0  0  0  0  0  0  0  0  0
   57.8340   32.8260   46.9320 C   0  0  0  0  0  0  0  0  0  0  0  0
   57.1580   33.7250   46.1040 C   0  0  0  0  0  0  0  0  0  0  0  0
   57.8740   34.5460   45.2300 C   0  0  0  0  0  0  0  0  0  0  0  0
   59.2670   34.4660   45.1790 C   0  0  0  0  0  0  0  0  0  0  0  0
   59.9520   33.5790   46.0170 C   0  0  0  0  0  0  0  0  0  0  0  0
   61.3080   33.5570   45.9800 F   0  0  0  0  0  0  0  0  0  0  0  0
   59.2630   29.2170   49.5610 C   0  0  0  0  0  0  0  0  0  0  0  0
   59.5075   33.1213   52.8139 H   0  0  0  0  0  0  0  0  0  0  0  0
   60.6191   34.3049   52.0459 H   0  0  0  0  0  0  0  0  0  0  0  0
   58.8481   34.6052   52.0459 H   0  0  0  0  0  0  0  0  0  0  0  0
   59.1746   29.6566   52.9529 H   0  0  0  0  0  0  0  0  0  0  0  0
   60.9149   27.8760   52.8227 H   0  0  0  0  0  0  0  0  0  0  0  0
   61.6428   26.9950   50.6060 H   0  0  0  0  0  0  0  0  0  0  0  0
   58.4157   26.4178   46.7286 H   0  0  0  0  0  0  0  0  0  0  0  0
   56.6075   27.3155   45.2827 H   0  0  0  0  0  0  0  0  0  0  0  0
   58.4469   31.2255   45.4138 H   0  0  0  0  0  0  0  0  0  0  0  0
   61.1211   30.1316   47.8422 H   0  0  0  0  0  0  0  0  0  0  0  0
   61.0140   31.0190   46.2489 H   0  0  0  0  0  0  0  0  0  0  0  0
   59.2580   31.5430   48.5510 H   0  0  0  0  0  0  0  0  0  0  0  0
   60.6700   32.3930   48.3350 H   0  0  0  0  0  0  0  0  0  0  0  0
   57.2635   32.1735   47.6093 H   0  0  0  0  0  0  0  0  0  0  0  0
   56.0603   33.7865   46.1403 H   0  0  0  0  0  0  0  0  0  0  0  0
   57.3401   35.2561   44.5814 H   0  0  0  0  0  0  0  0  0  0  0  0
   59.8276   35.1020   44.4781 H   0  0  0  0  0  0  0  0  0  0  0  0
   58.7862   29.5827   48.6396 H   0  0  0  0  0  0  0  0  0  0  0  0
  1  2  1  0
  2  3  2  0
  2  4  2  0
  2  5  1  0
  5  6  1  0
  6  7  2  0
  6  8  1  0
  8  9  2  0
  9 10  1  0
 10 11  2  0
 11 12  1  0
 12 13  1  0
 13 14  1  0
 14 15  2  0
 15 16  1  0
 16 17  2  0
 17 18  1  0
 18 19  1  0
 18 20  1  0
 18 21  1  0
 17 22  1  0
 22 23  2  0
 23 24  1  0
 24 25  1  0
 25 26  1  0
 26 27  2  0
 27 28  1  0
 28 29  2  0
 29 30  1  0
 30 31  2  0
 31 32  1  0
 12 33  2  0
 33  8  1  0
 23 14  1  0
 31 26  1  0
  1 34  1  0
  1 35  1  0
  1 36  1  0
  9 37  1  0
 10 38  1  0
 11 39  1  0
 15 40  1  0
 16 41  1  0
 22 42  1  0
 24 43  1  0
 24 44  1  0
 25 45  1  0
 25 46  1  0
 27 47  1  0
 28 48  1  0
 29 49  1  0
 30 50  1  0
 33 51  1  0
M  CHG  2   5  -1  25   1
M  END
>  <UniqueID>  (49) 
47

>  <SMILES>  (49) 
CS(=O)(=O)[N-]C(=O)c1cccc(Sc2ccc(C(F)(F)F)cc2C[NH2+]c2ccccc2F)c1

>  <Energy>  (49) 
56.77119002707831

>  <Genealogy>  (49) 
CS(=O)(=O)[N-]C(=O)c1cccc(Sc2ccc(C(F)(F)F)cc2C[NH2+]c2ccccc2F)c1 (protonated)
CS(=O)(=O)[N-]C(=O)c1cccc(Sc2ccc(C(F)(F)F)cc2C[NH2+]c2ccccc2F)c1 (3D coordinates assigned)
CS(=O)(=O)[N-]C(=O)c1cccc(Sc2ccc(C(F)(F)F)cc2C[NH2+]c2ccccc2F)c1 (optimized conformer: 56.77119002707831 kcal/mol)

>  <smiles>  (49) 
CS(=O)(=O)NC(=O)c1cccc(Sc2ccc(C(F)(F)F)cc2CNc2ccccc2F)c1

>  <score_type>  (49) 
oracle

>  <origin>  (49) 
adg

>  <m_score__min__energy>  (49) 
-9.4299999999999997

>  <m_primary>  (49) 
energy

$$$$
49:0
     RDKit          3D

 61 66  0  0  0  0  0  0  0  0999 V2000
   57.0703   28.2519   43.7853 H   0  0  0  0  0  0  0  0  0  0  0  0
   57.5080   28.0180   44.7670 C   0  0  0  0  0  0  0  0  0  0  0  0
   57.7820   26.7310   45.0910 N   0  0  0  0  0  0  0  0  0  0  0  0
   58.3090   26.4060   46.2970 C   0  0  0  0  0  0  0  0  0  0  0  0
   58.5310   25.1560   46.5790 N   0  0  0  0  0  0  0  0  0  0  0  0
   58.2170   24.0190   45.7550 C   0  0  0  0  0  0  0  0  0  0  0  0
   59.2200   23.3530   45.0240 C   0  0  0  0  0  0  0  0  0  0  0  0
   60.2651   23.6871   45.1019 H   0  0  0  0  0  0  0  0  0  0  0  0
   58.8980   22.2730   44.2020 C   0  0  0  0  0  0  0  0  0  0  0  0
   59.6909   21.7478   43.6493 H   0  0  0  0  0  0  0  0  0  0  0  0
   57.5710   21.8580   44.0800 C   0  0  0  0  0  0  0  0  0  0  0  0
   57.3198   21.0018   43.4367 H   0  0  0  0  0  0  0  0  0  0  0  0
   56.5620   22.5290   44.7740 C   0  0  0  0  0  0  0  0  0  0  0  0
   55.5164   22.2049   44.6661 H   0  0  0  0  0  0  0  0  0  0  0  0
   56.8730   23.6150   45.6090 C   0  0  0  0  0  0  0  0  0  0  0  0
   55.5900   24.4640   46.4850 S   0  0  0  0  0  0  0  0  0  0  0  0
   55.8720   24.3940   47.9600 O   0  0  0  0  0  0  0  0  0  0  0  0
   54.2730   23.7980   46.1980 O   0  0  0  0  0  0  0  0  0  0  0  0
   55.4770   26.1280   46.0200 N   0  0  0  0  0  0  0  0  0  0  0  0
   55.7160   26.1880   45.0050 H   0  0  0  0  0  0  0  0  0  0  0  0
   56.2050   26.6540   46.5520 H   0  0  0  0  0  0  0  0  0  0  0  0
   58.5460   27.3880   47.2070 N   0  0  0  0  0  0  0  0  0  0  0  0
   58.3110   28.7000   46.9370 C   0  0  0  0  0  0  0  0  0  0  0  0
   57.7770   29.0510   45.6700 C   0  0  0  0  0  0  0  0  0  0  0  0
   57.3880   30.3830   45.2990 N   0  0  0  0  0  0  0  0  0  0  0  0
   57.9600   31.6090   45.7610 C   0  0  0  0  0  0  0  0  0  0  0  0
   57.3320   32.6830   45.5690 O   0  0  0  0  0  0  0  0  0  0  0  0
   59.2720   31.6020   46.4910 C   0  0  1  0  0  0  0  0  0  0  0  0
   60.0095   31.0142   45.9248 H   0  0  0  0  0  0  0  0  0  0  0  0
   59.9350   32.9970   46.5900 C   0  0  0  0  0  0  0  0  0  0  0  0
   60.0950   33.3870   45.5740 H   0  0  0  0  0  0  0  0  0  0  0  0
   59.2647   33.6514   47.1666 H   0  0  0  0  0  0  0  0  0  0  0  0
   61.2630   32.9430   47.3060 C   0  0  0  0  0  0  0  0  0  0  0  0
   61.6860   34.0310   48.0910 C   0  0  0  0  0  0  0  0  0  0  0  0
   61.0507   34.9249   48.1768 H   0  0  0  0  0  0  0  0  0  0  0  0
   62.9120   33.9800   48.7630 C   0  0  0  0  0  0  0  0  0  0  0  0
   63.2381   34.8333   49.3759 H   0  0  0  0  0  0  0  0  0  0  0  0
   63.7230   32.8470   48.6570 C   0  0  0  0  0  0  0  0  0  0  0  0
   64.6858   32.8085   49.1877 H   0  0  0  0  0  0  0  0  0  0  0  0
   63.3120   31.7640   47.8780 C   0  0  0  0  0  0  0  0  0  0  0  0
   63.9522   30.8734   47.7949 H   0  0  0  0  0  0  0  0  0  0  0  0
   62.0880   31.8090   47.2030 C   0  0  0  0  0  0  0  0  0  0  0  0
   61.7693   30.9538   46.5890 H   0  0  0  0  0  0  0  0  0  0  0  0
   59.0200   30.9770   47.8300 C   0  0  0  0  0  0  0  0  0  0  0  0
   59.2350   31.6920   49.3440 S   0  0  0  0  0  0  0  0  0  0  0  0
   58.7660   30.3020   50.1750 C   0  0  0  0  0  0  0  0  0  0  0  0
   58.7540   30.1440   51.4660 N   0  0  0  0  0  0  0  0  0  0  0  0
   57.6060   30.2090   52.3250 C   0  0  0  0  0  0  0  0  0  0  0  0
   57.7200   30.0780   53.7220 C   0  0  0  0  0  0  0  0  0  0  0  0
   58.7038   29.8892   54.1763 H   0  0  0  0  0  0  0  0  0  0  0  0
   56.5870   30.1870   54.5340 C   0  0  0  0  0  0  0  0  0  0  0  0
   56.6785   30.0679   55.6237 H   0  0  0  0  0  0  0  0  0  0  0  0
   55.3390   30.4470   53.9630 C   0  0  0  0  0  0  0  0  0  0  0  0
   54.4475   30.5230   54.6029 H   0  0  0  0  0  0  0  0  0  0  0  0
   55.2210   30.6110   52.5780 C   0  0  0  0  0  0  0  0  0  0  0  0
   53.9370   30.8910   51.9910 C   0  0  0  0  0  0  0  0  0  0  0  0
   52.9050   31.1190   51.5200 N   0  0  0  0  0  0  0  0  0  0  0  0
   56.3570   30.5030   51.7630 C   0  0  0  0  0  0  0  0  0  0  0  0
   56.2669   30.6499   50.6766 H   0  0  0  0  0  0  0  0  0  0  0  0
   58.4600   29.2970   49.3290 N   0  0  0  0  0  0  0  0  0  0  0  0
   58.5750   29.6680   48.0230 C   0  0  0  0  0  0  0  0  0  0  0  0
  1  2  1  0
  2  3  1  0
  3  4  1  0
  4  5  2  3
  5  6  1  0
  6  7  2  0
  7  8  1  0
  7  9  1  0
  9 10  1  0
  9 11  2  0
 11 12  1  0
 11 13  1  0
 13 14  1  0
 13 15  2  0
 15 16  1  0
 16 17  2  0
 16 18  2  0
 16 19  1  0
 19 20  1  0
 19 21  1  0
  4 22  1  0
 22 23  2  0
 23 24  1  0
 24 25  1  0
 25 26  1  0
 26 27  2  0
 26 28  1  0
 28 29  1  6
 28 30  1  0
 30 31  1  0
 30 32  1  0
 30 33  1  0
 33 34  2  0
 34 35  1  0
 34 36  1  0
 36 37  1  0
 36 38  2  0
 38 39  1  0
 38 40  1  0
 40 41  1  0
 40 42  2  0
 42 43  1  0
 28 44  1  0
 44 45  1  0
 45 46  1  0
 46 47  2  0
 47 48  1  0
 48 49  2  0
 49 50  1  0
 49 51  1  0
 51 52  1  0
 51 53  2  0
 53 54  1  0
 53 55  1  0
 55 56  1  0
 56 57  3  0
 55 58  2  0
 58 59  1  0
 46 60  1  0
 60 61  1  0
 24  2  2  0
 42 33  1  0
 61 44  2  0
 15  6  1  0
 61 23  1  0
 58 48  1  0
M  CHG  3   3  -1  25  -1  60  -1
M  END
>  <UniqueID>  (50) 
48

>  <SMILES>  (50) 
N#Cc1cccc(/N=c2/[n-]c3c(s2)[C@H](Cc2ccccc2)C(=O)[N-]c2c[n-]c(=Nc4ccccc4S(N)(=O)=O)nc2-3)c1

>  <Energy>  (50) 
123.91064978518949

>  <Genealogy>  (50) 
N#Cc1cccc(N=c2[n-]c3c(s2)C(Cc2ccccc2)C(=O)[N-]c2c[n-]c(=Nc4ccccc4S(N)(=O)=O)nc2-3)c1 (protonated)
N#Cc1cccc(N=c2[n-]c3c(s2)[C@H](Cc2ccccc2)C(=O)[N-]c2c[n-]c(=Nc4ccccc4S(N)(=O)=O)nc2-3)c1 (chirality)
N#Cc1cccc(/N=c2/[n-]c3c(s2)[C@H](Cc2ccccc2)C(=O)[N-]c2c[n-]c(=Nc4ccccc4S(N)(=O)=O)nc2-3)c1 (cis-trans isomerization)
N#Cc1cccc(/N=c2/[n-]c3c(s2)[C@H](Cc2ccccc2)C(=O)[N-]c2c[n-]c(=Nc4ccccc4S(N)(=O)=O)nc2-3)c1 (3D coordinates assigned)
N#Cc1cccc(/N=c2/[n-]c3c(s2)[C@H](Cc2ccccc2)C(=O)[N-]c2c[n-]c(=Nc4ccccc4S(N)(=O)=O)nc2-3)c1 (nonaromatic ring conformer: 123.91064978518949 kcal/mol)

>  <smiles>  (50) 
N#Cc1cccc(N=c2[nH]c3c(s2)C(Cc2ccccc2)C(=O)Nc2c[nH]c(=Nc4ccccc4S(N)(=O)=O)nc2-3)c1

>  <score_type>  (50) 
oracle

>  <origin>  (50) 
adg

>  <m_score__min__energy>  (50) 
-12.17

>  <m_primary>  (50) 
energy

$$$$
50:0
     RDKit          3D

 35 38  0  0  0  0  0  0  0  0999 V2000
   57.7810   30.6290   46.6980 O   0  0  0  0  0  0  0  0  0  0  0  0
   58.0150   31.5360   45.8540 C   0  0  0  0  0  0  0  0  0  0  0  0
   58.6140   32.8240   46.1760 C   0  0  0  0  0  0  0  0  0  0  0  0
   58.9640   33.3920   47.4000 C   0  0  0  0  0  0  0  0  0  0  0  0
   59.4850   34.6980   47.3960 C   0  0  0  0  0  0  0  0  0  0  0  0
   59.6380   35.4010   46.1810 C   0  0  0  0  0  0  0  0  0  0  0  0
   59.2740   34.8020   44.9620 C   0  0  0  0  0  0  0  0  0  0  0  0
   58.7660   33.5040   45.0000 C   0  0  0  0  0  0  0  0  0  0  0  0
   58.2560   32.6490   43.9380 C   0  0  0  0  0  0  0  0  0  0  0  0
   58.2830   32.9450   42.7140 O   0  0  0  0  0  0  0  0  0  0  0  0
   57.7520   31.3950   44.4420 N   0  0  0  0  0  0  0  0  0  0  0  0
   56.3180   31.1780   44.1190 C   0  0  0  0  0  0  0  0  0  0  0  0
   55.8760   29.7040   43.9360 C   0  0  0  0  0  0  0  0  0  0  0  0
   56.7300   28.7310   44.6870 C   0  0  0  0  0  0  0  0  0  0  0  0
   58.0820   28.6860   44.5460 N   0  0  0  0  0  0  0  0  0  0  0  0
   58.4320   27.7320   45.4180 C   0  0  0  0  0  0  0  0  0  0  0  0
   59.7160   27.2850   45.7220 C   0  0  0  0  0  0  0  0  0  0  0  0
   59.8430   26.2850   46.7040 C   0  0  0  0  0  0  0  0  0  0  0  0
   58.6970   25.7670   47.3490 C   0  0  0  0  0  0  0  0  0  0  0  0
   57.4160   26.2470   47.0180 C   0  0  0  0  0  0  0  0  0  0  0  0
   57.3290   27.2360   46.0420 C   0  0  0  0  0  0  0  0  0  0  0  0
   56.2250   27.8520   45.5930 N   0  0  0  0  0  0  0  0  0  0  0  0
   58.8365   32.8355   48.3402 H   0  0  0  0  0  0  0  0  0  0  0  0
   59.7749   35.1744   48.3441 H   0  0  0  0  0  0  0  0  0  0  0  0
   60.0443   36.4232   46.1881 H   0  0  0  0  0  0  0  0  0  0  0  0
   59.3864   35.3400   44.0092 H   0  0  0  0  0  0  0  0  0  0  0  0
   58.3340   30.6150   44.0580 H   0  0  0  0  0  0  0  0  0  0  0  0
   55.7205   31.6091   44.9358 H   0  0  0  0  0  0  0  0  0  0  0  0
   56.1593   31.6576   43.1419 H   0  0  0  0  0  0  0  0  0  0  0  0
   54.8393   29.6041   44.2900 H   0  0  0  0  0  0  0  0  0  0  0  0
   55.9743   29.4653   42.8667 H   0  0  0  0  0  0  0  0  0  0  0  0
   60.5988   27.6988   45.2127 H   0  0  0  0  0  0  0  0  0  0  0  0
   60.8399   25.9043   46.9711 H   0  0  0  0  0  0  0  0  0  0  0  0
   58.8069   24.9843   48.1140 H   0  0  0  0  0  0  0  0  0  0  0  0
   56.5154   25.8546   47.5130 H   0  0  0  0  0  0  0  0  0  0  0  0
  1  2  2  0
  2  3  1  0
  3  4  2  0
  4  5  1  0
  5  6  2  0
  6  7  1  0
  7  8  2  0
  8  9  1  0
  9 10  2  0
  9 11  1  0
 11 12  1  0
 12 13  1  0
 13 14  1  0
 14 15  2  0
 15 16  1  0
 16 17  2  0
 17 18  1  0
 18 19  2  0
 19 20  1  0
 20 21  2  0
 21 22  1  0
 11  2  1  0
 22 14  1  0
  8  3  1  0
 21 16  1  0
  4 23  1  0
  5 24  1  0
  6 25  1  0
  7 26  1  0
 11 27  1  0
 12 28  1  0
 12 29  1  0
 13 30  1  0
 13 31  1  0
 17 32  1  0
 18 33  1  0
 19 34  1  0
 20 35  1  0
M  CHG  2  11   1  22  -1
M  END
>  <UniqueID>  (51) 
49

>  <SMILES>  (51) 
O=C1c2ccccc2C(=O)[NH+]1CCc1nc2ccccc2[n-]1

>  <Energy>  (51) 
98.28288577702068

>  <Genealogy>  (51) 
O=C1c2ccccc2C(=O)[NH+]1CCc1nc2ccccc2[n-]1 (protonated)
O=C1c2ccccc2C(=O)[NH+]1CCc1nc2ccccc2[n-]1 (3D coordinates assigned)
O=C1c2ccccc2C(=O)[NH+]1CCc1nc2ccccc2[n-]1 (nonaromatic ring conformer: 98.28288577702068 kcal/mol)

>  <smiles>  (51) 
O=C1c2ccccc2C(=O)N1CCc1nc2ccccc2[nH]1

>  <score_type>  (51) 
oracle

>  <origin>  (51) 
adg

>  <m_score__min__energy>  (51) 
-7.3300000000000001

>  <m_primary>  (51) 
energy

$$$$
51:0
     RDKit          3D

 28 28  0  0  0  0  0  0  0  0999 V2000
   57.1930   33.2130   45.5370 C   0  0  0  0  0  0  0  0  0  0  0  0
   57.8360   33.0310   44.1730 C   0  0  0  0  0  0  0  0  0  0  0  0
   57.4210   31.6540   43.6450 C   0  0  0  0  0  0  0  0  0  0  0  0
   57.9740   30.5750   44.5540 C   0  0  0  0  0  0  0  0  0  0  0  0
   57.0630   29.3950   44.5460 C   0  0  0  0  0  0  0  0  0  0  0  0
   55.8970   29.5170   44.9410 O   0  0  0  0  0  0  0  0  0  0  0  0
   57.6140   28.1110   44.0570 C   0  0  0  0  0  0  0  0  0  0  0  0
   57.8710   27.1430   45.1260 C   0  0  0  0  0  0  0  0  0  0  0  0
   59.0710   26.6020   45.4610 N   0  0  0  0  0  0  0  0  0  0  0  0
   58.9320   25.7750   46.4600 N   0  0  0  0  0  0  0  0  0  0  0  0
   57.6290   25.7440   46.8170 C   0  0  0  0  0  0  0  0  0  0  0  0
   57.1830   25.0470   47.7430 O   0  0  0  0  0  0  0  0  0  0  0  0
   56.9850   26.5920   45.9870 N   0  0  0  0  0  0  0  0  0  0  0  0
   55.6120   26.8580   46.0140 N   0  0  0  0  0  0  0  0  0  0  0  0
   57.9339   33.0033   46.3225 H   0  0  0  0  0  0  0  0  0  0  0  0
   56.8343   34.2480   45.6381 H   0  0  0  0  0  0  0  0  0  0  0  0
   56.3451   32.5196   45.6381 H   0  0  0  0  0  0  0  0  0  0  0  0
   57.4876   33.8166   43.4863 H   0  0  0  0  0  0  0  0  0  0  0  0
   58.9311   33.1012   44.2498 H   0  0  0  0  0  0  0  0  0  0  0  0
   56.3233   31.5862   43.6215 H   0  0  0  0  0  0  0  0  0  0  0  0
   57.8195   31.5163   42.6290 H   0  0  0  0  0  0  0  0  0  0  0  0
   58.9691   30.2710   44.1972 H   0  0  0  0  0  0  0  0  0  0  0  0
   58.0527   30.9673   45.5787 H   0  0  0  0  0  0  0  0  0  0  0  0
   56.8947   27.6689   43.3519 H   0  0  0  0  0  0  0  0  0  0  0  0
   58.5805   28.3329   43.5809 H   0  0  0  0  0  0  0  0  0  0  0  0
   59.6930   25.2270   46.9140 H   0  0  0  0  0  0  0  0  0  0  0  0
   55.1570   27.5300   45.3390 H   0  0  0  0  0  0  0  0  0  0  0  0
   55.0370   26.3580   46.7430 H   0  0  0  0  0  0  0  0  0  0  0  0
  1  2  1  0
  2  3  1  0
  3  4  1  0
  4  5  1  0
  5  6  2  0
  5  7  1  0
  7  8  1  0
  8  9  2  0
  9 10  1  0
 10 11  1  0
 11 12  2  0
 11 13  1  0
 13 14  1  0
 13  8  1  0
  1 15  1  0
  1 16  1  0
  1 17  1  0
  2 18  1  0
  2 19  1  0
  3 20  1  0
  3 21  1  0
  4 22  1  0
  4 23  1  0
  7 24  1  0
  7 25  1  0
 10 26  1  0
 14 27  1  0
 14 28  1  0
M  END
>  <smiles>  (52) 
CCCCC(=O)Cc1n[nH]c(=O)n1N

>  <score_type>  (52) 
oracle

>  <origin>  (52) 
adg

>  <m_score__min__energy>  (52) 
-5.8399999999999999

>  <m_primary>  (52) 
energy

$$$$
52:0
     RDKit          3D

 25 26  0  0  0  0  0  0  0  0999 V2000
   56.6470   31.1800   44.6670 O   0  0  0  0  0  0  0  0  0  0  0  0
   57.3880   32.0160   45.2500 C   0  0  0  0  0  0  0  0  0  0  0  0
   57.4210   33.3430   44.8200 C   0  0  0  0  0  0  0  0  0  0  0  0
   58.2470   34.2560   45.4780 C   0  0  0  0  0  0  0  0  0  0  0  0
   59.0140   33.8620   46.5400 N   0  0  0  0  0  0  0  0  0  0  0  0
   59.9010   34.8280   47.1980 C   0  0  0  0  0  0  0  0  0  0  0  0
   61.2280   34.1870   47.5050 C   0  0  0  0  0  0  0  0  0  0  0  0
   61.6260   33.9880   48.8370 C   0  0  0  0  0  0  0  0  0  0  0  0
   62.8770   33.4280   49.1210 C   0  0  0  0  0  0  0  0  0  0  0  0
   63.7390   33.0740   48.0800 C   0  0  0  0  0  0  0  0  0  0  0  0
   63.3550   33.2830   46.7530 C   0  0  0  0  0  0  0  0  0  0  0  0
   62.1060   33.8420   46.4640 C   0  0  0  0  0  0  0  0  0  0  0  0
   58.9960   32.5600   46.9620 C   0  0  0  0  0  0  0  0  0  0  0  0
   58.1800   31.6190   46.3280 C   0  0  0  0  0  0  0  0  0  0  0  0
   56.8019   33.6667   43.9704 H   0  0  0  0  0  0  0  0  0  0  0  0
   58.2814   35.3020   45.1394 H   0  0  0  0  0  0  0  0  0  0  0  0
   60.0585   35.6893   46.5322 H   0  0  0  0  0  0  0  0  0  0  0  0
   59.4363   35.1610   48.1378 H   0  0  0  0  0  0  0  0  0  0  0  0
   60.9530   34.2729   49.6591 H   0  0  0  0  0  0  0  0  0  0  0  0
   63.1819   33.2664   50.1655 H   0  0  0  0  0  0  0  0  0  0  0  0
   64.7202   32.6307   48.3052 H   0  0  0  0  0  0  0  0  0  0  0  0
   64.0361   33.0075   45.9343 H   0  0  0  0  0  0  0  0  0  0  0  0
   61.8102   34.0121   45.4183 H   0  0  0  0  0  0  0  0  0  0  0  0
   59.6290   32.2518   47.8071 H   0  0  0  0  0  0  0  0  0  0  0  0
   58.1623   30.5755   46.6755 H   0  0  0  0  0  0  0  0  0  0  0  0
  1  2  2  0
  2  3  1  0
  3  4  2  0
  4  5  1  0
  5  6  1  0
  6  7  1  0
  7  8  2  0
  8  9  1  0
  9 10  2  0
 10 11  1  0
 11 12  2  0
  5 13  1  0
 13 14  2  0
 14  2  1  0
 12  7  1  0
  3 15  1  0
  4 16  1  0
  6 17  1  0
  6 18  1  0
  8 19  1  0
  9 20  1  0
 10 21  1  0
 11 22  1  0
 12 23  1  0
 13 24  1  0
 14 25  1  0
M  END
>  <UniqueID>  (53) 
50

>  <SMILES>  (53) 
O=c1ccn(Cc2ccccc2)cc1

>  <Energy>  (53) 
25.56955931934799

>  <Genealogy>  (53) 
O=c1ccn(Cc2ccccc2)cc1 (3D coordinates assigned)
O=c1ccn(Cc2ccccc2)cc1 (optimized conformer: 25.56955931934799 kcal/mol)

>  <smiles>  (53) 
O=c1ccn(Cc2ccccc2)cc1

>  <score_type>  (53) 
oracle

>  <origin>  (53) 
adg

>  <m_score__min__energy>  (53) 
-5.71

>  <m_primary>  (53) 
energy

$$$$
53:0
     RDKit          3D

 71 75  0  0  0  0  0  0  0  0999 V2000
   58.7061   30.7625   45.9913 H   0  0  0  0  0  0  0  0  0  0  0  0
   58.5630   29.7470   46.3890 C   0  0  0  0  0  0  0  0  0  0  0  0
   57.5370   28.9840   45.9460 N   0  0  0  0  0  0  0  0  0  0  0  0
   57.3240   27.7230   46.4140 C   0  0  0  0  0  0  0  0  0  0  0  0
   56.3380   27.0080   45.9450 N   0  0  0  0  0  0  0  0  0  0  0  0
   56.4270   25.7100   45.3340 C   0  0  0  0  0  0  0  0  0  0  0  0
   55.6110   24.6400   45.7450 C   0  0  0  0  0  0  0  0  0  0  0  0
   54.8461   24.8007   46.5190 H   0  0  0  0  0  0  0  0  0  0  0  0
   55.7680   23.3730   45.1740 C   0  0  0  0  0  0  0  0  0  0  0  0
   55.1173   22.5447   45.4908 H   0  0  0  0  0  0  0  0  0  0  0  0
   56.7510   23.1550   44.2000 C   0  0  0  0  0  0  0  0  0  0  0  0
   56.9340   21.5570   43.4830 S   0  0  0  0  0  0  0  0  0  0  0  0
   56.2020   21.4890   42.1710 O   0  0  0  0  0  0  0  0  0  0  0  0
   58.3930   21.2850   43.2360 O   0  0  0  0  0  0  0  0  0  0  0  0
   56.2970   20.3640   44.5570 N   0  0  0  0  0  0  0  0  0  0  0  0
   56.7110   19.4460   44.2750 H   0  0  0  0  0  0  0  0  0  0  0  0
   56.6700   20.5790   45.5090 H   0  0  0  0  0  0  0  0  0  0  0  0
   57.5780   24.2160   43.8020 C   0  0  0  0  0  0  0  0  0  0  0  0
   58.3490   24.0524   43.0347 H   0  0  0  0  0  0  0  0  0  0  0  0
   57.4250   25.4810   44.3780 C   0  0  0  0  0  0  0  0  0  0  0  0
   58.0930   26.3020   44.0783 H   0  0  0  0  0  0  0  0  0  0  0  0
   58.1730   27.1920   47.3570 N   0  0  0  0  0  0  0  0  0  0  0  0
   57.9670   25.8110   47.8300 C   0  0  0  0  0  0  0  0  0  0  0  0
   57.9649   25.7966   48.9299 H   0  0  0  0  0  0  0  0  0  0  0  0
   57.0029   25.4355   47.4565 H   0  0  0  0  0  0  0  0  0  0  0  0
   58.7795   25.1705   47.4565 H   0  0  0  0  0  0  0  0  0  0  0  0
   59.2310   27.9370   47.8220 C   0  0  0  0  0  0  0  0  0  0  0  0
   60.0330   27.4520   48.6680 O   0  0  0  0  0  0  0  0  0  0  0  0
   59.4380   29.2440   47.3500 C   0  0  0  0  0  0  0  0  0  0  0  0
   60.5230   30.0990   47.8780 C   0  0  0  0  0  0  0  0  0  0  0  0
   61.3870   30.7440   46.9810 C   0  0  0  0  0  0  0  0  0  0  0  0
   61.2280   30.6379   45.8977 H   0  0  0  0  0  0  0  0  0  0  0  0
   62.4450   31.5180   47.4520 C   0  0  0  0  0  0  0  0  0  0  0  0
   63.1209   32.0126   46.7388 H   0  0  0  0  0  0  0  0  0  0  0  0
   62.6530   31.6700   48.8290 C   0  0  0  0  0  0  0  0  0  0  0  0
   63.7870   32.4780   49.3220 C   0  0  0  0  0  0  0  0  0  0  0  0
   63.8890   33.6840   48.9700 O   0  0  0  0  0  0  0  0  0  0  0  0
   64.7580   31.9100   50.2160 N   0  0  0  0  0  0  0  0  0  0  0  0
   66.1660   32.3220   50.1200 C   0  0  0  0  0  0  0  0  0  0  0  0
   66.3823   32.6333   49.0874 H   0  0  0  0  0  0  0  0  0  0  0  0
   66.3396   33.1585   50.8129 H   0  0  0  0  0  0  0  0  0  0  0  0
   67.0960   31.1580   50.5030 C   0  0  0  0  0  0  0  0  0  0  0  0
   67.1753   30.4701   49.6483 H   0  0  0  0  0  0  0  0  0  0  0  0
   68.0779   31.5783   50.7660 H   0  0  0  0  0  0  0  0  0  0  0  0
   66.5920   30.4140   51.6670 N   0  0  0  0  0  0  0  0  0  0  0  0
   67.1730   29.1410   52.0050 C   0  0  0  0  0  0  0  0  0  0  0  0
   67.5860   28.8720   53.3210 C   0  0  0  0  0  0  0  0  0  0  0  0
   67.4519   29.6348   54.1021 H   0  0  0  0  0  0  0  0  0  0  0  0
   68.1670   27.6400   53.6450 C   0  0  0  0  0  0  0  0  0  0  0  0
   68.4904   27.4402   54.6772 H   0  0  0  0  0  0  0  0  0  0  0  0
   68.3370   26.6630   52.6590 C   0  0  0  0  0  0  0  0  0  0  0  0
   68.9240   25.3920   52.9970 C   0  0  0  0  0  0  0  0  0  0  0  0
   69.3930   24.3700   53.2670 N   0  0  0  0  0  0  0  0  0  0  0  0
   67.9340   26.9230   51.3440 C   0  0  0  0  0  0  0  0  0  0  0  0
   68.0672   26.1561   50.5668 H   0  0  0  0  0  0  0  0  0  0  0  0
   67.3620   28.1570   51.0170 C   0  0  0  0  0  0  0  0  0  0  0  0
   67.0576   28.3597   49.9796 H   0  0  0  0  0  0  0  0  0  0  0  0
   65.4160   30.9160   52.3860 C   0  0  0  0  0  0  0  0  0  0  0  0
   65.0988   30.1761   53.1356 H   0  0  0  0  0  0  0  0  0  0  0  0
   65.6659   31.8599   52.8926 H   0  0  0  0  0  0  0  0  0  0  0  0
   64.2840   31.1510   51.3880 C   0  0  0  0  0  0  0  0  0  0  0  0
   63.8934   30.1790   51.0524 H   0  0  0  0  0  0  0  0  0  0  0  0
   63.4951   31.7339   51.8858 H   0  0  0  0  0  0  0  0  0  0  0  0
   61.7730   31.0540   49.7330 C   0  0  0  0  0  0  0  0  0  0  0  0
   61.9132   31.1981   50.8145 H   0  0  0  0  0  0  0  0  0  0  0  0
   60.7120   30.2530   49.2670 C   0  0  0  0  0  0  0  0  0  0  0  0
   59.8270   29.6080   50.1470 O   0  0  0  0  0  0  0  0  0  0  0  0
   58.9320   30.2780   51.0290 C   0  0  0  0  0  0  0  0  0  0  0  0
   59.2158   30.0656   52.0703 H   0  0  0  0  0  0  0  0  0  0  0  0
   58.9827   31.3620   50.8490 H   0  0  0  0  0  0  0  0  0  0  0  0
   57.9062   29.9240   50.8490 H   0  0  0  0  0  0  0  0  0  0  0  0
  1  2  1  0
  2  3  1  0
  3  4  1  0
  4  5  2  0
  5  6  1  0
  6  7  2  0
  7  8  1  0
  7  9  1  0
  9 10  1  0
  9 11  2  0
 11 12  1  0
 12 13  2  0
 12 14  2  0
 12 15  1  0
 15 16  1  0
 15 17  1  0
 11 18  1  0
 18 19  1  0
 18 20  2  0
 20 21  1  0
  4 22  1  0
 22 23  1  0
 23 24  1  0
 23 25  1  0
 23 26  1  0
 22 27  1  0
 27 28  2  0
 27 29  1  0
 29 30  1  0
 30 31  2  0
 31 32  1  0
 31 33  1  0
 33 34  1  0
 33 35  2  0
 35 36  1  0
 36 37  2  0
 36 38  1  0
 38 39  1  0
 39 40  1  0
 39 41  1  0
 39 42  1  0
 42 43  1  0
 42 44  1  0
 42 45  1  0
 45 46  1  0
 46 47  2  0
 47 48  1  0
 47 49  1  0
 49 50  1  0
 49 51  2  0
 51 52  1  0
 52 53  3  0
 51 54  1  0
 54 55  1  0
 54 56  2  0
 56 57  1  0
 45 58  1  0
 58 59  1  0
 58 60  1  0
 58 61  1  0
 61 62  1  0
 61 63  1  0
 35 64  1  0
 64 65  1  0
 64 66  2  0
 66 67  1  0
 67 68  1  0
 68 69  1  0
 68 70  1  0
 68 71  1  0
 29  2  2  0
 66 30  1  0
 20  6  1  0
 61 38  1  0
 56 46  1  0
M  CHG  1   3  -1
M  END
>  <UniqueID>  (54) 
51

>  <SMILES>  (54) 
COc1cc(C(=O)N2CCN(c3ccc(C#N)cc3)CC2)ccc1-c1c[n-]/c(=N\c2ccc(S(N)(=O)=O)cc2)n(C)c1=O

>  <Energy>  (54) 
102.84586026173349

>  <Genealogy>  (54) 
COc1cc(C(=O)N2CCN(c3ccc(C#N)cc3)CC2)ccc1-c1c[n-]c(=Nc2ccc(S(N)(=O)=O)cc2)n(C)c1=O (protonated)
COc1cc(C(=O)N2CCN(c3ccc(C#N)cc3)CC2)ccc1-c1c[n-]/c(=N\c2ccc(S(N)(=O)=O)cc2)n(C)c1=O (cis-trans isomerization)
COc1cc(C(=O)N2CCN(c3ccc(C#N)cc3)CC2)ccc1-c1c[n-]/c(=N\c2ccc(S(N)(=O)=O)cc2)n(C)c1=O (3D coordinates assigned)
COc1cc(C(=O)N2CCN(c3ccc(C#N)cc3)CC2)ccc1-c1c[n-]/c(=N\c2ccc(S(N)(=O)=O)cc2)n(C)c1=O (nonaromatic ring conformer: 102.84586026173349 kcal/mol)

>  <smiles>  (54) 
COc1cc(C(=O)N2CCN(c3ccc(C#N)cc3)CC2)ccc1-c1c[nH]c(=Nc2ccc(S(N)(=O)=O)cc2)n(C)c1=O

>  <score_type>  (54) 
oracle

>  <origin>  (54) 
adg

>  <m_score__min__energy>  (54) 
-10.77

>  <m_primary>  (54) 
energy

$$$$
54:0
     RDKit          3D

 43 45  0  0  0  0  0  0  0  0999 V2000
   59.8460   30.1810   49.9830 O   0  0  0  0  0  0  0  0  0  0  0  0
   60.7250   30.7150   49.2520 C   0  0  0  0  0  0  0  0  0  0  0  0
   61.8770   31.4320   49.8950 C   0  0  0  0  0  0  0  0  0  0  0  0
   62.5450   32.3080   48.9280 N   0  0  0  0  0  0  0  0  0  0  0  0
   63.7980   32.1420   48.4590 C   0  0  0  0  0  0  0  0  0  0  0  0
   64.0680   33.0810   47.4850 C   0  0  0  0  0  0  0  0  0  0  0  0
   62.9310   33.8530   47.3520 C   0  0  0  0  0  0  0  0  0  0  0  0
   62.0110   33.3520   48.2530 C   0  0  0  0  0  0  0  0  0  0  0  0
   60.6340   33.8540   48.4300 C   0  0  0  0  0  0  0  0  0  0  0  0
   60.2720   34.2250   49.5790 O   0  0  0  0  0  0  0  0  0  0  0  0
   59.6680   33.9050   47.3040 C   0  0  0  0  0  0  0  0  0  0  0  0
   60.0380   34.5000   46.0840 C   0  0  0  0  0  0  0  0  0  0  0  0
   59.1200   34.5960   45.0330 C   0  0  0  0  0  0  0  0  0  0  0  0
   57.8230   34.1060   45.1900 C   0  0  0  0  0  0  0  0  0  0  0  0
   57.4390   33.5220   46.3980 C   0  0  0  0  0  0  0  0  0  0  0  0
   58.3520   33.4210   47.4510 C   0  0  0  0  0  0  0  0  0  0  0  0
   60.6340   30.6350   47.8210 N   0  0  0  0  0  0  0  0  0  0  0  0
   59.4070   30.4020   47.1150 C   0  0  0  0  0  0  0  0  0  0  0  0
   58.3550   30.1100   47.7480 O   0  0  0  0  0  0  0  0  0  0  0  0
   59.3680   30.5840   45.6910 N   0  0  0  0  0  0  0  0  0  0  0  0
   58.2010   30.3610   44.8820 C   0  0  0  0  0  0  0  0  0  0  0  0
   58.0030   31.0580   43.6750 C   0  0  0  0  0  0  0  0  0  0  0  0
   56.8430   30.8480   42.9210 C   0  0  0  0  0  0  0  0  0  0  0  0
   55.8690   29.9510   43.3700 C   0  0  0  0  0  0  0  0  0  0  0  0
   56.0510   29.2700   44.5760 C   0  0  0  0  0  0  0  0  0  0  0  0
   57.2070   29.4800   45.3340 C   0  0  0  0  0  0  0  0  0  0  0  0
   61.5029   32.0380   50.7333 H   0  0  0  0  0  0  0  0  0  0  0  0
   62.6007   30.6868   50.2568 H   0  0  0  0  0  0  0  0  0  0  0  0
   64.5024   31.3703   48.8028 H   0  0  0  0  0  0  0  0  0  0  0  0
   65.0071   33.1930   46.9232 H   0  0  0  0  0  0  0  0  0  0  0  0
   62.7862   34.6995   46.6647 H   0  0  0  0  0  0  0  0  0  0  0  0
   61.0574   34.8929   45.9556 H   0  0  0  0  0  0  0  0  0  0  0  0
   59.4210   35.0584   44.0814 H   0  0  0  0  0  0  0  0  0  0  0  0
   57.1031   34.1800   44.3616 H   0  0  0  0  0  0  0  0  0  0  0  0
   56.4148   33.1402   46.5215 H   0  0  0  0  0  0  0  0  0  0  0  0
   58.0419   32.9609   48.4008 H   0  0  0  0  0  0  0  0  0  0  0  0
   61.4740   30.9010   47.2580 H   0  0  0  0  0  0  0  0  0  0  0  0
   60.1910   31.0430   45.2410 H   0  0  0  0  0  0  0  0  0  0  0  0
   58.7634   31.7707   43.3231 H   0  0  0  0  0  0  0  0  0  0  0  0
   56.6973   31.3890   41.9744 H   0  0  0  0  0  0  0  0  0  0  0  0
   54.9601   29.7817   42.7740 H   0  0  0  0  0  0  0  0  0  0  0  0
   55.2829   28.5667   44.9302 H   0  0  0  0  0  0  0  0  0  0  0  0
   57.3378   28.9516   46.2899 H   0  0  0  0  0  0  0  0  0  0  0  0
  1  2  2  0
  2  3  1  0
  3  4  1  0
  4  5  1  0
  5  6  2  0
  6  7  1  0
  7  8  2  0
  8  9  1  0
  9 10  2  0
  9 11  1  0
 11 12  2  0
 12 13  1  0
 13 14  2  0
 14 15  1  0
 15 16  2  0
  2 17  1  0
 17 18  1  0
 18 19  2  0
 18 20  1  0
 20 21  1  0
 21 22  2  0
 22 23  1  0
 23 24  2  0
 24 25  1  0
 25 26  2  0
  8  4  1  0
 16 11  1  0
 26 21  1  0
  3 27  1  0
  3 28  1  0
  5 29  1  0
  6 30  1  0
  7 31  1  0
 12 32  1  0
 13 33  1  0
 14 34  1  0
 15 35  1  0
 16 36  1  0
 17 37  1  0
 20 38  1  0
 22 39  1  0
 23 40  1  0
 24 41  1  0
 25 42  1  0
 26 43  1  0
M  END
>  <UniqueID>  (55) 
52

>  <SMILES>  (55) 
O=C(Cn1cccc1C(=O)c1ccccc1)NC(=O)Nc1ccccc1

>  <Energy>  (55) 
76.9226944000933

>  <Genealogy>  (55) 
O=C(Cn1cccc1C(=O)c1ccccc1)NC(=O)Nc1ccccc1 (3D coordinates assigned)
O=C(Cn1cccc1C(=O)c1ccccc1)NC(=O)Nc1ccccc1 (optimized conformer: 76.9226944000933 kcal/mol)

>  <smiles>  (55) 
O=C(Cn1cccc1C(=O)c1ccccc1)NC(=O)Nc1ccccc1

>  <score_type>  (55) 
oracle

>  <origin>  (55) 
adg

>  <m_score__min__energy>  (55) 
-7.8399999999999999

>  <m_primary>  (55) 
energy

$$$$
55:0
     RDKit          3D

 31 32  0  0  0  0  0  0  0  0999 V2000
   61.6836   29.4975   45.7286 H   0  0  0  0  0  0  0  0  0  0  0  0
   60.8640   29.8020   46.3960 C   0  0  0  0  0  0  0  0  0  0  0  0
   61.0370   30.9230   47.1240 C   0  0  0  0  0  0  0  0  0  0  0  0
   62.3580   31.4490   47.3890 C   0  0  0  0  0  0  0  0  0  0  0  0
   63.4150   31.8680   47.5990 N   0  0  0  0  0  0  0  0  0  0  0  0
   59.8720   31.7330   47.5520 C   0  0  0  0  0  0  0  0  0  0  0  0
   59.4050   31.5580   48.7110 O   0  0  0  0  0  0  0  0  0  0  0  0
   59.2240   32.7340   46.6660 C   0  0  0  0  0  0  0  0  0  0  0  0
   59.8640   33.9470   46.3520 C   0  0  0  0  0  0  0  0  0  0  0  0
   60.8542   34.1685   46.7768 H   0  0  0  0  0  0  0  0  0  0  0  0
   59.2490   34.8730   45.5030 C   0  0  0  0  0  0  0  0  0  0  0  0
   59.7531   35.8220   45.2680 H   0  0  0  0  0  0  0  0  0  0  0  0
   57.9950   34.5940   44.9530 C   0  0  0  0  0  0  0  0  0  0  0  0
   57.5098   35.3257   44.2903 H   0  0  0  0  0  0  0  0  0  0  0  0
   57.3580   33.3860   45.2450 C   0  0  0  0  0  0  0  0  0  0  0  0
   56.3735   33.1643   44.8073 H   0  0  0  0  0  0  0  0  0  0  0  0
   57.9700   32.4580   46.0930 C   0  0  0  0  0  0  0  0  0  0  0  0
   57.4668   31.5050   46.3135 H   0  0  0  0  0  0  0  0  0  0  0  0
   59.6530   28.9490   46.4270 C   0  0  0  0  0  0  0  0  0  0  0  0
   58.6200   29.0990   45.4860 C   0  0  0  0  0  0  0  0  0  0  0  0
   58.6892   29.8847   44.7192 H   0  0  0  0  0  0  0  0  0  0  0  0
   57.5060   28.2570   45.5180 C   0  0  0  0  0  0  0  0  0  0  0  0
   56.6981   28.3929   44.7840 H   0  0  0  0  0  0  0  0  0  0  0  0
   57.4090   27.2370   46.4810 C   0  0  0  0  0  0  0  0  0  0  0  0
   56.2270   26.3490   46.5120 C   0  0  0  0  0  0  0  0  0  0  0  0
   55.1360   26.7160   46.0000 O   0  0  0  0  0  0  0  0  0  0  0  0
   56.3030   25.0940   47.1070 O   0  0  0  0  0  0  0  0  0  0  0  0
   58.4580   27.0710   47.4030 C   0  0  0  0  0  0  0  0  0  0  0  0
   58.4011   26.2716   48.1565 H   0  0  0  0  0  0  0  0  0  0  0  0
   59.5720   27.9140   47.3690 C   0  0  0  0  0  0  0  0  0  0  0  0
   60.3918   27.7643   48.0870 H   0  0  0  0  0  0  0  0  0  0  0  0
  1  2  1  0
  2  3  2  0
  3  4  1  0
  4  5  3  0
  3  6  1  0
  6  7  2  0
  6  8  1  0
  8  9  2  0
  9 10  1  0
  9 11  1  0
 11 12  1  0
 11 13  2  0
 13 14  1  0
 13 15  1  0
 15 16  1  0
 15 17  2  0
 17 18  1  0
  2 19  1  0
 19 20  2  0
 20 21  1  0
 20 22  1  0
 22 23  1  0
 22 24  2  0
 24 25  1  0
 25 26  2  0
 25 27  1  0
 24 28  1  0
 28 29  1  0
 28 30  2  0
 30 31  1  0
 17  8  1  0
 30 19  1  0
M  CHG  1  27  -1
M  END
>  <UniqueID>  (56) 
53

>  <SMILES>  (56) 
N#C/C(=C\c1ccc(C(=O)[O-])cc1)C(=O)c1ccccc1

>  <Energy>  (56) 
43.37458444267232

>  <Genealogy>  (56) 
N#CC(=Cc1ccc(C(=O)[O-])cc1)C(=O)c1ccccc1 (protonated)
N#C/C(=C\c1ccc(C(=O)[O-])cc1)C(=O)c1ccccc1 (cis-trans isomerization)
N#C/C(=C\c1ccc(C(=O)[O-])cc1)C(=O)c1ccccc1 (3D coordinates assigned)
N#C/C(=C\c1ccc(C(=O)[O-])cc1)C(=O)c1ccccc1 (optimized conformer: 43.37458444267232 kcal/mol)

>  <smiles>  (56) 
N#CC(=Cc1ccc(C(=O)O)cc1)C(=O)c1ccccc1

>  <score_type>  (56) 
oracle

>  <origin>  (56) 
adg

>  <m_score__min__energy>  (56) 
-9.7899999999999991

>  <m_primary>  (56) 
energy

$$$$
56:0
     RDKit          3D

 36 37  0  0  0  0  0  0  0  0999 V2000
   57.4280   31.7650   44.3360 C   0  0  0  0  0  0  0  0  0  0  0  0
   57.0950   30.6570   43.3500 C   0  0  0  0  0  0  0  0  0  0  0  0
   57.4670   29.4030   43.9080 O   0  0  0  0  0  0  0  0  0  0  0  0
   56.7130   28.7530   44.8880 C   0  0  0  0  0  0  0  0  0  0  0  0
   55.5270   29.1150   45.1230 O   0  0  0  0  0  0  0  0  0  0  0  0
   57.3200   27.6640   45.6860 C   0  0  0  0  0  0  0  0  0  0  0  0
   56.4690   26.6710   46.2110 C   0  0  0  0  0  0  0  0  0  0  0  0
   55.1000   26.7070   45.9690 O   0  0  0  0  0  0  0  0  0  0  0  0
   56.9830   25.6460   47.0000 C   0  0  0  0  0  0  0  0  0  0  0  0
   58.3430   25.5850   47.2770 C   0  0  0  0  0  0  0  0  0  0  0  0
   59.2240   26.5380   46.7490 C   0  0  0  0  0  0  0  0  0  0  0  0
   60.6230   26.4150   47.0430 N   0  0  0  0  0  0  0  0  0  0  0  0
   61.4520   26.3640   46.1100 O   0  0  0  0  0  0  0  0  0  0  0  0
   61.0810   26.6120   48.3250 O   0  0  0  0  0  0  0  0  0  0  0  0
   58.7220   27.6040   45.9500 C   0  0  0  0  0  0  0  0  0  0  0  0
   59.6350   28.6010   45.4150 N   0  0  0  0  0  0  0  0  0  0  0  0
   59.7980   29.7180   46.3220 C   0  0  0  0  0  0  0  0  0  0  0  0
   61.0350   30.3830   46.4100 C   0  0  0  0  0  0  0  0  0  0  0  0
   61.1900   31.4860   47.2550 C   0  0  0  0  0  0  0  0  0  0  0  0
   60.1100   31.9460   48.0130 C   0  0  0  0  0  0  0  0  0  0  0  0
   60.3060   33.3310   49.0710 Cl  0  0  0  0  0  0  0  0  0  0  0  0
   58.8710   31.3060   47.9210 C   0  0  0  0  0  0  0  0  0  0  0  0
   58.7120   30.2030   47.0780 C   0  0  0  0  0  0  0  0  0  0  0  0
   57.3147   31.3880   45.3632 H   0  0  0  0  0  0  0  0  0  0  0  0
   58.4653   32.0959   44.1792 H   0  0  0  0  0  0  0  0  0  0  0  0
   56.7450   32.6129   44.1792 H   0  0  0  0  0  0  0  0  0  0  0  0
   56.0145   30.6613   43.1438 H   0  0  0  0  0  0  0  0  0  0  0  0
   57.6461   30.8207   42.4122 H   0  0  0  0  0  0  0  0  0  0  0  0
   56.3077   24.8790   47.4070 H   0  0  0  0  0  0  0  0  0  0  0  0
   58.7323   24.7800   47.9176 H   0  0  0  0  0  0  0  0  0  0  0  0
   60.5520   28.1390   45.2230 H   0  0  0  0  0  0  0  0  0  0  0  0
   59.3330   28.9740   44.4900 H   0  0  0  0  0  0  0  0  0  0  0  0
   61.8869   30.0322   45.8091 H   0  0  0  0  0  0  0  0  0  0  0  0
   62.1640   31.9927   47.3233 H   0  0  0  0  0  0  0  0  0  0  0  0
   58.0192   31.6713   48.5134 H   0  0  0  0  0  0  0  0  0  0  0  0
   57.7317   29.7095   47.0039 H   0  0  0  0  0  0  0  0  0  0  0  0
  1  2  1  0
  2  3  1  0
  3  4  1  0
  4  5  2  0
  4  6  1  0
  6  7  2  0
  7  8  1  0
  7  9  1  0
  9 10  2  0
 10 11  1  0
 11 12  1  0
 12 13  2  0
 12 14  1  0
 11 15  2  0
 15 16  1  0
 16 17  1  0
 17 18  2  0
 18 19  1  0
 19 20  2  0
 20 21  1  0
 20 22  1  0
 22 23  2  0
 15  6  1  0
 23 17  1  0
  1 24  1  0
  1 25  1  0
  1 26  1  0
  2 27  1  0
  2 28  1  0
  9 29  1  0
 10 30  1  0
 16 31  1  0
 16 32  1  0
 18 33  1  0
 19 34  1  0
 22 35  1  0
 23 36  1  0
M  CHG  4   8  -1  12   1  14  -1  16   1
M  END
>  <UniqueID>  (57) 
54

>  <SMILES>  (57) 
CCOC(=O)c1c([O-])ccc([N+](=O)[O-])c1[NH2+]c1ccc(Cl)cc1

>  <Energy>  (57) 
49.38825445140101

>  <Genealogy>  (57) 
CCOC(=O)c1c([O-])ccc([N+](=O)[O-])c1[NH2+]c1ccc(Cl)cc1 (protonated)
CCOC(=O)c1c([O-])ccc([N+](=O)[O-])c1[NH2+]c1ccc(Cl)cc1 (3D coordinates assigned)
CCOC(=O)c1c([O-])ccc([N+](=O)[O-])c1[NH2+]c1ccc(Cl)cc1 (optimized conformer: 49.38825445140101 kcal/mol)

>  <smiles>  (57) 
CCOC(=O)c1c(O)ccc([N+](=O)[O-])c1Nc1ccc(Cl)cc1

>  <score_type>  (57) 
oracle

>  <origin>  (57) 
adg

>  <m_score__min__energy>  (57) 
-8.8399999999999999

>  <m_primary>  (57) 
energy

$$$$
57:0
     RDKit          3D

 48 51  0  0  0  0  0  0  0  0999 V2000
   66.2060   32.3490   50.1720 C   0  0  0  0  0  0  0  0  0  0  0  0
   64.8070   32.5180   49.6770 C   0  0  0  0  0  0  0  0  0  0  0  0
   64.4240   33.2020   48.5390 C   0  0  0  0  0  0  0  0  0  0  0  0
   63.0400   33.1410   48.5470 C   0  0  0  0  0  0  0  0  0  0  0  0
   62.1770   33.6470   47.4630 C   0  0  0  0  0  0  0  0  0  0  0  0
   62.6590   33.8840   46.3220 O   0  0  0  0  0  0  0  0  0  0  0  0
   60.8120   33.8410   47.7130 O   0  0  0  0  0  0  0  0  0  0  0  0
   59.7770   33.5640   46.8050 C   0  0  0  0  0  0  0  0  0  0  0  0
   59.3320   32.2510   46.5620 C   0  0  0  0  0  0  0  0  0  0  0  0
   58.2740   32.0050   45.6710 C   0  0  0  0  0  0  0  0  0  0  0  0
   57.7880   30.6230   45.4300 C   0  0  0  0  0  0  0  0  0  0  0  0
   56.6450   30.4580   44.9260 O   0  0  0  0  0  0  0  0  0  0  0  0
   58.6040   29.4280   45.7620 C   0  0  0  0  0  0  0  0  0  0  0  0
   59.8120   29.1630   45.0870 C   0  0  0  0  0  0  0  0  0  0  0  0
   60.5720   28.0350   45.4120 C   0  0  0  0  0  0  0  0  0  0  0  0
   60.1440   27.1700   46.4210 C   0  0  0  0  0  0  0  0  0  0  0  0
   58.9570   27.4320   47.1100 C   0  0  0  0  0  0  0  0  0  0  0  0
   58.1930   28.5580   46.7880 C   0  0  0  0  0  0  0  0  0  0  0  0
   57.7030   33.0820   44.9750 C   0  0  0  0  0  0  0  0  0  0  0  0
   58.1660   34.3840   45.1860 C   0  0  0  0  0  0  0  0  0  0  0  0
   59.1980   34.6250   46.0980 C   0  0  0  0  0  0  0  0  0  0  0  0
   59.6440   35.9250   46.3030 O   0  0  0  0  0  0  0  0  0  0  0  0
   62.6400   32.4690   49.6550 N   0  0  0  0  0  0  0  0  0  0  0  0
   61.2990   32.2150   50.1030 C   0  0  0  0  0  0  0  0  0  0  0  0
   60.7110   30.9620   49.8740 C   0  0  0  0  0  0  0  0  0  0  0  0
   59.4120   30.7010   50.3240 C   0  0  0  0  0  0  0  0  0  0  0  0
   58.7000   31.6850   51.0170 C   0  0  0  0  0  0  0  0  0  0  0  0
   56.9260   31.3290   51.6270 Br  0  0  0  0  0  0  0  0  0  0  0  0
   59.2900   32.9280   51.2680 C   0  0  0  0  0  0  0  0  0  0  0  0
   60.5890   33.1910   50.8190 C   0  0  0  0  0  0  0  0  0  0  0  0
   63.7120   32.0940   50.3340 N   0  0  0  0  0  0  0  0  0  0  0  0
   66.2082   32.3487   51.2720 H   0  0  0  0  0  0  0  0  0  0  0  0
   66.6124   31.3952   49.8043 H   0  0  0  0  0  0  0  0  0  0  0  0
   66.8278   33.1786   49.8043 H   0  0  0  0  0  0  0  0  0  0  0  0
   65.0725   33.6862   47.7940 H   0  0  0  0  0  0  0  0  0  0  0  0
   59.8179   31.4082   47.0754 H   0  0  0  0  0  0  0  0  0  0  0  0
   60.1595   29.8477   44.2994 H   0  0  0  0  0  0  0  0  0  0  0  0
   61.5080   27.8290   44.8721 H   0  0  0  0  0  0  0  0  0  0  0  0
   60.7416   26.2817   46.6737 H   0  0  0  0  0  0  0  0  0  0  0  0
   58.6230   26.7514   47.9070 H   0  0  0  0  0  0  0  0  0  0  0  0
   57.2646   28.7647   47.3406 H   0  0  0  0  0  0  0  0  0  0  0  0
   56.8871   32.9005   44.2599 H   0  0  0  0  0  0  0  0  0  0  0  0
   57.7168   35.2219   44.6326 H   0  0  0  0  0  0  0  0  0  0  0  0
   61.2729   30.1822   49.3390 H   0  0  0  0  0  0  0  0  0  0  0  0
   58.9506   29.7210   50.1325 H   0  0  0  0  0  0  0  0  0  0  0  0
   58.7323   33.6997   51.8189 H   0  0  0  0  0  0  0  0  0  0  0  0
   61.0548   34.1654   51.0278 H   0  0  0  0  0  0  0  0  0  0  0  0
   63.6960   31.5800   51.2440 H   0  0  0  0  0  0  0  0  0  0  0  0
  1  2  1  0
  2  3  1  0
  3  4  2  0
  4  5  1  0
  5  6  2  0
  5  7  1  0
  7  8  1  0
  8  9  2  0
  9 10  1  0
 10 11  1  0
 11 12  2  0
 11 13  1  0
 13 14  2  0
 14 15  1  0
 15 16  2  0
 16 17  1  0
 17 18  2  0
 10 19  2  0
 19 20  1  0
 20 21  2  0
 21 22  1  0
  4 23  1  0
 23 24  1  0
 24 25  2  0
 25 26  1  0
 26 27  2  0
 27 28  1  0
 27 29  1  0
 29 30  2  0
 23 31  1  0
 31  2  2  0
 21  8  1  0
 30 24  1  0
 18 13  1  0
  1 32  1  0
  1 33  1  0
  1 34  1  0
  3 35  1  0
  9 36  1  0
 14 37  1  0
 15 38  1  0
 16 39  1  0
 17 40  1  0
 18 41  1  0
 19 42  1  0
 20 43  1  0
 25 44  1  0
 26 45  1  0
 29 46  1  0
 30 47  1  0
 31 48  1  0
M  CHG  2  22  -1  31   1
M  END
>  <UniqueID>  (58) 
55

>  <SMILES>  (58) 
Cc1cc(C(=O)Oc2cc(C(=O)c3ccccc3)ccc2[O-])n(-c2ccc(Br)cc2)[nH+]1

>  <Energy>  (58) 
98.74949246899587

>  <Genealogy>  (58) 
Cc1cc(C(=O)Oc2cc(C(=O)c3ccccc3)ccc2[O-])n(-c2ccc(Br)cc2)[nH+]1 (protonated)
Cc1cc(C(=O)Oc2cc(C(=O)c3ccccc3)ccc2[O-])n(-c2ccc(Br)cc2)[nH+]1 (3D coordinates assigned)
Cc1cc(C(=O)Oc2cc(C(=O)c3ccccc3)ccc2[O-])n(-c2ccc(Br)cc2)[nH+]1 (optimized conformer: 98.74949246899587 kcal/mol)

>  <smiles>  (58) 
Cc1cc(C(=O)Oc2cc(C(=O)c3ccccc3)ccc2O)n(-c2ccc(Br)cc2)n1

>  <score_type>  (58) 
oracle

>  <origin>  (58) 
adg

>  <m_score__min__energy>  (58) 
-10.6

>  <m_primary>  (58) 
energy

$$$$
58:0
     RDKit          3D

 39 41  0  0  1  0  0  0  0  0999 V2000
   57.3810   33.1450   45.3920 C   0  0  0  0  0  0  0  0  0  0  0  0
   58.1200   32.5140   44.2290 C   0  0  0  0  0  0  0  0  0  0  0  0
   57.1430   31.6010   43.5200 C   0  0  0  0  0  0  0  0  0  0  0  0
   57.0960   30.2600   44.1750 C   0  0  0  0  0  0  0  0  0  0  0  0
   56.1240   29.9130   44.9090 O   0  0  0  0  0  0  0  0  0  0  0  0
   58.1990   29.3910   43.9310 N   0  0  0  0  0  0  0  0  0  0  0  0
   58.2840   28.0850   44.4900 C   0  0  0  0  0  0  0  0  0  0  0  0
   57.7750   27.0190   43.7910 C   0  0  0  0  0  0  0  0  0  0  0  0
   57.8450   25.7090   44.3220 C   0  0  0  0  0  0  0  0  0  0  0  0
   57.3910   24.5770   43.7500 C   0  0  0  0  0  0  0  0  0  0  0  0
   57.5570   23.4110   44.4350 C   0  0  0  0  0  0  0  0  0  0  0  0
   57.2180   22.0300   44.1680 C   0  0  0  0  0  0  0  0  0  0  0  0
   57.8780   21.0280   44.9010 O   0  0  0  0  0  0  0  0  0  0  0  0
   56.3380   21.6650   43.2900 N   0  0  0  0  0  0  0  0  0  0  0  0
   56.2390   20.3250   42.9990 O   0  0  0  0  0  0  0  0  0  0  0  0
   58.4220   23.9450   46.0060 S   0  0  0  0  0  0  0  0  0  0  0  0
   58.4390   25.6190   45.5380 C   0  0  0  0  0  0  0  0  0  0  0  0
   58.9550   26.6950   46.2510 C   0  0  0  0  0  0  0  0  0  0  0  0
   58.8860   27.9800   45.7290 C   0  0  0  0  0  0  0  0  0  0  0  0
   59.3940   29.0370   46.4290 O   0  0  0  0  0  0  0  0  0  0  0  0
   60.1420   28.8540   47.6160 C   0  0  0  0  0  0  0  0  0  0  0  0
   59.7780   27.6010   48.3450 C   0  0  0  0  0  0  0  0  0  0  0  0
   59.5380   26.4930   47.4790 O   0  0  0  0  0  0  0  0  0  0  0  0
   57.8074   32.7809   46.3383 H   0  0  0  0  0  0  0  0  0  0  0  0
   57.4828   34.2391   45.3409 H   0  0  0  0  0  0  0  0  0  0  0  0
   56.3164   32.8730   45.3409 H   0  0  0  0  0  0  0  0  0  0  0  0
   58.4746   33.2945   43.5397 H   0  0  0  0  0  0  0  0  0  0  0  0
   58.9954   31.9496   44.5828 H   0  0  0  0  0  0  0  0  0  0  0  0
   56.1404   32.0525   43.5512 H   0  0  0  0  0  0  0  0  0  0  0  0
   57.4740   31.4724   42.4789 H   0  0  0  0  0  0  0  0  0  0  0  0
   58.9930   29.6900   43.3240 H   0  0  0  0  0  0  0  0  0  0  0  0
   57.3083   27.1845   42.8088 H   0  0  0  0  0  0  0  0  0  0  0  0
   56.9032   24.5935   42.7642 H   0  0  0  0  0  0  0  0  0  0  0  0
   57.9320   20.0800   44.5430 H   0  0  0  0  0  0  0  0  0  0  0  0
   56.9450   19.7080   43.3820 H   0  0  0  0  0  0  0  0  0  0  0  0
   61.2097   28.8107   47.3550 H   0  0  0  0  0  0  0  0  0  0  0  0
   59.9175   29.7005   48.2817 H   0  0  0  0  0  0  0  0  0  0  0  0
   60.6028   27.3405   49.0247 H   0  0  0  0  0  0  0  0  0  0  0  0
   58.8413   27.7998   48.8864 H   0  0  0  0  0  0  0  0  0  0  0  0
  1  2  1  0
  2  3  1  0
  3  4  1  0
  4  5  2  0
  4  6  1  0
  6  7  1  0
  7  8  2  0
  8  9  1  0
  9 10  1  0
 10 11  2  0
 11 12  1  0
 12 13  1  0
 12 14  2  0
 14 15  1  0
 11 16  1  0
 16 17  1  0
 17 18  1  0
 18 19  2  0
 19 20  1  0
 20 21  1  0
 21 22  1  0
 22 23  1  0
 19  7  1  0
 17  9  2  0
 23 18  1  0
  1 24  1  0
  1 25  1  0
  1 26  1  0
  2 27  1  0
  2 28  1  0
  3 29  1  0
  3 30  1  0
  6 31  1  0
  8 32  1  0
 10 33  1  0
 13 34  1  0
 15 35  1  0
 21 36  1  0
 21 37  1  0
 22 38  1  0
 22 39  1  0
M  END
>  <smiles>  (59) 
CCCC(=O)Nc1cc2cc(C(O)=NO)sc2c2c1OCCO2

>  <score_type>  (59) 
oracle

>  <origin>  (59) 
adg

>  <m_score__min__energy>  (59) 
-8.3499999999999996

>  <m_primary>  (59) 
energy

$$$$
59:0
     RDKit          3D

 32 34  0  0  0  0  0  0  0  0999 V2000
   57.3940   28.6710   43.3370 N   0  0  0  0  0  0  0  0  0  0  0  0
   56.8340   30.2180   43.8660 S   0  0  0  0  0  0  0  0  0  0  0  0
   55.4750   30.0710   44.4910 O   0  0  0  0  0  0  0  0  0  0  0  0
   56.7230   31.1420   42.6860 O   0  0  0  0  0  0  0  0  0  0  0  0
   57.9610   30.8860   45.0430 C   0  0  0  0  0  0  0  0  0  0  0  0
   58.6370   30.0400   45.9310 C   0  0  0  0  0  0  0  0  0  0  0  0
   59.5430   30.5680   46.8550 C   0  0  0  0  0  0  0  0  0  0  0  0
   59.7970   31.9500   46.8920 C   0  0  0  0  0  0  0  0  0  0  0  0
   60.7100   32.5090   47.8550 N   0  0  0  0  0  0  0  0  0  0  0  0
   60.2440   33.4440   48.6890 N   0  0  0  0  0  0  0  0  0  0  0  0
   61.0210   34.0300   49.6340 C   0  0  0  0  0  0  0  0  0  0  0  0
   62.3590   33.6580   49.7550 C   0  0  0  0  0  0  0  0  0  0  0  0
   63.1850   34.2410   50.7260 C   0  0  0  0  0  0  0  0  0  0  0  0
   64.5250   33.8590   50.8260 C   0  0  0  0  0  0  0  0  0  0  0  0
   65.0470   32.8960   49.9590 C   0  0  0  0  0  0  0  0  0  0  0  0
   64.2300   32.3090   48.9880 C   0  0  0  0  0  0  0  0  0  0  0  0
   62.8770   32.6830   48.8770 C   0  0  0  0  0  0  0  0  0  0  0  0
   62.0250   32.1180   47.9120 C   0  0  0  0  0  0  0  0  0  0  0  0
   62.4750   31.2720   47.0890 O   0  0  0  0  0  0  0  0  0  0  0  0
   59.1100   32.7950   46.0040 C   0  0  0  0  0  0  0  0  0  0  0  0
   58.2050   32.2650   45.0800 C   0  0  0  0  0  0  0  0  0  0  0  0
   58.1420   28.8440   42.6280 H   0  0  0  0  0  0  0  0  0  0  0  0
   56.6010   28.2160   42.8320 H   0  0  0  0  0  0  0  0  0  0  0  0
   58.4542   28.9557   45.9012 H   0  0  0  0  0  0  0  0  0  0  0  0
   60.0604   29.8980   47.5575 H   0  0  0  0  0  0  0  0  0  0  0  0
   60.5974   34.7949   50.3015 H   0  0  0  0  0  0  0  0  0  0  0  0
   62.7776   35.0001   51.4100 H   0  0  0  0  0  0  0  0  0  0  0  0
   65.1707   34.3176   51.5893 H   0  0  0  0  0  0  0  0  0  0  0  0
   66.1030   32.5989   50.0404 H   0  0  0  0  0  0  0  0  0  0  0  0
   64.6461   31.5515   48.3076 H   0  0  0  0  0  0  0  0  0  0  0  0
   59.2855   33.8804   46.0362 H   0  0  0  0  0  0  0  0  0  0  0  0
   57.6826   32.9330   44.3794 H   0  0  0  0  0  0  0  0  0  0  0  0
  1  2  1  0
  2  3  2  0
  2  4  2  0
  2  5  1  0
  5  6  2  0
  6  7  1  0
  7  8  2  0
  8  9  1  0
  9 10  1  0
 10 11  2  0
 11 12  1  0
 12 13  2  0
 13 14  1  0
 14 15  2  0
 15 16  1  0
 16 17  2  0
 17 18  1  0
 18 19  2  0
  8 20  1  0
 20 21  2  0
 21  5  1  0
 18  9  1  0
 17 12  1  0
  1 22  1  0
  1 23  1  0
  6 24  1  0
  7 25  1  0
 11 26  1  0
 13 27  1  0
 14 28  1  0
 15 29  1  0
 16 30  1  0
 20 31  1  0
 21 32  1  0
M  END
>  <UniqueID>  (60) 
56

>  <SMILES>  (60) 
NS(=O)(=O)c1ccc(-n2ncc3ccccc3c2=O)cc1

>  <Energy>  (60) 
45.8407131490678

>  <Genealogy>  (60) 
NS(=O)(=O)c1ccc(-n2ncc3ccccc3c2=O)cc1 (3D coordinates assigned)
NS(=O)(=O)c1ccc(-n2ncc3ccccc3c2=O)cc1 (optimized conformer: 45.8407131490678 kcal/mol)

>  <smiles>  (60) 
NS(=O)(=O)c1ccc(-n2ncc3ccccc3c2=O)cc1

>  <score_type>  (60) 
oracle

>  <origin>  (60) 
adg

>  <m_score__min__energy>  (60) 
-7.8899999999999997

>  <m_primary>  (60) 
energy

$$$$
60:0
     RDKit          3D

 32 32  0  0  0  0  0  0  0  0999 V2000
   58.7210   29.4310   44.1170 N   0  0  0  0  0  0  0  0  0  0  0  0
   57.4410   28.7100   44.0940 C   0  0  1  0  0  0  0  0  0  0  0  0
   57.5100   27.4780   44.9550 C   0  0  0  0  0  0  0  0  0  0  0  0
   58.5690   27.1300   45.4510 O   0  0  0  0  0  0  0  0  0  0  0  0
   56.2730   29.6330   44.5030 C   0  0  0  0  0  0  0  0  0  0  0  0
   56.7380   30.8290   45.2040 N   0  0  0  0  0  0  0  0  0  0  0  0
   57.3710   31.9970   44.6580 C   0  0  0  0  0  0  0  0  0  0  0  0
   58.0980   31.8570   43.6400 O   0  0  0  0  0  0  0  0  0  0  0  0
   57.1640   33.3870   45.2100 C   0  0  0  0  0  0  0  0  0  0  0  0
   58.4160   34.2670   45.0600 C   0  0  0  0  0  0  0  0  0  0  0  0
   59.3700   34.1110   46.2190 C   0  0  0  0  0  0  0  0  0  0  0  0
   58.9060   34.2390   47.5390 C   0  0  0  0  0  0  0  0  0  0  0  0
   59.7910   34.1080   48.6130 C   0  0  0  0  0  0  0  0  0  0  0  0
   61.1440   33.8490   48.3780 C   0  0  0  0  0  0  0  0  0  0  0  0
   61.6150   33.7210   47.0680 C   0  0  0  0  0  0  0  0  0  0  0  0
   60.7320   33.8510   45.9910 C   0  0  0  0  0  0  0  0  0  0  0  0
   59.5000   28.7670   44.3350 H   0  0  0  0  0  0  0  0  0  0  0  0
   58.9070   29.8920   43.1950 H   0  0  0  0  0  0  0  0  0  0  0  0
   58.6980   30.1630   44.8630 H   0  0  0  0  0  0  0  0  0  0  0  0
   57.2468   28.3834   43.0617 H   0  0  0  0  0  0  0  0  0  0  0  0
   56.6002   26.8875   45.1384 H   0  0  0  0  0  0  0  0  0  0  0  0
   55.7302   29.9410   43.5972 H   0  0  0  0  0  0  0  0  0  0  0  0
   55.6202   29.0711   45.1871 H   0  0  0  0  0  0  0  0  0  0  0  0
   56.3313   33.8616   44.6702 H   0  0  0  0  0  0  0  0  0  0  0  0
   56.9452   33.2934   46.2839 H   0  0  0  0  0  0  0  0  0  0  0  0
   58.9370   33.9853   44.1330 H   0  0  0  0  0  0  0  0  0  0  0  0
   58.0876   35.3165   45.0343 H   0  0  0  0  0  0  0  0  0  0  0  0
   57.8418   34.4432   47.7281 H   0  0  0  0  0  0  0  0  0  0  0  0
   59.4220   34.2089   49.6443 H   0  0  0  0  0  0  0  0  0  0  0  0
   61.8389   33.7458   49.2244 H   0  0  0  0  0  0  0  0  0  0  0  0
   62.6804   33.5180   46.8841 H   0  0  0  0  0  0  0  0  0  0  0  0
   61.1053   33.7493   44.9613 H   0  0  0  0  0  0  0  0  0  0  0  0
  1  2  1  0
  2  3  1  0
  3  4  2  0
  2  5  1  0
  5  6  1  0
  6  7  1  0
  7  8  2  0
  7  9  1  0
  9 10  1  0
 10 11  1  0
 11 12  2  0
 12 13  1  0
 13 14  2  0
 14 15  1  0
 15 16  2  0
 16 11  1  0
  1 17  1  0
  1 18  1  0
  1 19  1  0
  2 20  1  6
  3 21  1  0
  5 22  1  0
  5 23  1  0
  9 24  1  0
  9 25  1  0
 10 26  1  0
 10 27  1  0
 12 28  1  0
 13 29  1  0
 14 30  1  0
 15 31  1  0
 16 32  1  0
M  CHG  2   1   1   6  -1
M  END
>  <UniqueID>  (61) 
57

>  <SMILES>  (61) 
[NH3+][C@@H](C=O)C[N-]C(=O)CCc1ccccc1

>  <Energy>  (61) 
26.407996538310407

>  <Genealogy>  (61) 
[NH3+]C(C=O)C[N-]C(=O)CCc1ccccc1 (protonated)
[NH3+][C@@H](C=O)C[N-]C(=O)CCc1ccccc1 (chirality)
[NH3+][C@@H](C=O)C[N-]C(=O)CCc1ccccc1 (3D coordinates assigned)
[NH3+][C@@H](C=O)C[N-]C(=O)CCc1ccccc1 (optimized conformer: 26.407996538310407 kcal/mol)

>  <smiles>  (61) 
NC(C=O)CNC(=O)CCc1ccccc1

>  <score_type>  (61) 
oracle

>  <origin>  (61) 
adg

>  <m_score__min__energy>  (61) 
-6.0800000000000001

>  <m_primary>  (61) 
energy

$$$$
61:0
     RDKit          3D

 40 43  0  0  0  0  0  0  0  0999 V2000
   59.8286   35.8232   46.6841 H   0  0  0  0  0  0  0  0  0  0  0  0
   59.2520   34.9610   46.3180 C   0  0  0  0  0  0  0  0  0  0  0  0
   58.5210   34.1770   47.2150 C   0  0  0  0  0  0  0  0  0  0  0  0
   58.5288   34.4178   48.2883 H   0  0  0  0  0  0  0  0  0  0  0  0
   57.7800   33.0870   46.7490 C   0  0  0  0  0  0  0  0  0  0  0  0
   57.2221   32.4591   47.4592 H   0  0  0  0  0  0  0  0  0  0  0  0
   57.7460   32.7910   45.3740 C   0  0  0  0  0  0  0  0  0  0  0  0
   57.0410   31.6430   44.8770 N   0  0  0  0  0  0  0  0  0  0  0  0
   57.4510   30.4030   44.8600 C   0  0  0  0  0  0  0  0  0  0  0  0
   56.5570   29.2440   45.1080 C   0  0  0  0  0  0  0  0  0  0  0  0
   55.3110   29.3470   44.9420 O   0  0  0  0  0  0  0  0  0  0  0  0
   57.1490   27.9450   45.5000 C   0  0  0  0  0  0  0  0  0  0  0  0
   56.3260   26.8650   45.8660 C   0  0  0  0  0  0  0  0  0  0  0  0
   55.2326   26.9813   45.8352 H   0  0  0  0  0  0  0  0  0  0  0  0
   56.8820   25.6380   46.2710 C   0  0  0  0  0  0  0  0  0  0  0  0
   56.0320   24.5370   46.6480 N   0  0  0  0  0  0  0  0  0  0  0  0
   56.1860   23.7050   47.7030 C   0  0  0  0  0  0  0  0  0  0  0  0
   57.0095   23.7869   48.4276 H   0  0  0  0  0  0  0  0  0  0  0  0
   55.2210   22.7630   47.7720 N   0  0  0  0  0  0  0  0  0  0  0  0
   54.4260   23.0350   46.7180 C   0  0  0  0  0  0  0  0  0  0  0  0
   53.2380   22.2160   46.3370 C   0  0  0  0  0  0  0  0  0  0  0  0
   52.7281   21.8645   47.2461 H   0  0  0  0  0  0  0  0  0  0  0  0
   52.5453   22.8294   45.7420 H   0  0  0  0  0  0  0  0  0  0  0  0
   53.5649   21.3505   45.7420 H   0  0  0  0  0  0  0  0  0  0  0  0
   54.9220   24.1100   46.0170 C   0  0  0  0  0  0  0  0  0  0  0  0
   54.4887   24.5434   45.1035 H   0  0  0  0  0  0  0  0  0  0  0  0
   58.2800   25.5050   46.3060 C   0  0  0  0  0  0  0  0  0  0  0  0
   58.7291   24.5526   46.6241 H   0  0  0  0  0  0  0  0  0  0  0  0
   59.1040   26.5700   45.9410 C   0  0  0  0  0  0  0  0  0  0  0  0
   60.1969   26.4495   45.9748 H   0  0  0  0  0  0  0  0  0  0  0  0
   58.5520   27.7940   45.5310 C   0  0  0  0  0  0  0  0  0  0  0  0
   59.4300   28.9180   45.1200 C   0  0  0  0  0  0  0  0  0  0  0  0
   60.6770   28.8400   45.2870 O   0  0  0  0  0  0  0  0  0  0  0  0
   58.8630   30.1270   44.4320 C   0  0  0  0  0  0  0  0  0  0  0  0
   58.8787   29.9579   43.3452 H   0  0  0  0  0  0  0  0  0  0  0  0
   59.4788   30.9961   44.7067 H   0  0  0  0  0  0  0  0  0  0  0  0
   58.5090   33.5600   44.4870 C   0  0  0  0  0  0  0  0  0  0  0  0
   58.5256   33.3064   43.4168 H   0  0  0  0  0  0  0  0  0  0  0  0
   59.2500   34.6490   44.9560 C   0  0  0  0  0  0  0  0  0  0  0  0
   59.8323   35.2611   44.2516 H   0  0  0  0  0  0  0  0  0  0  0  0
  1  2  1  0
  2  3  2  0
  3  4  1  0
  3  5  1  0
  5  6  1  0
  5  7  2  0
  7  8  1  0
  8  9  2  0
  9 10  1  0
 10 11  2  0
 10 12  1  0
 12 13  2  0
 13 14  1  0
 13 15  1  0
 15 16  1  0
 16 17  1  0
 17 18  1  0
 17 19  2  0
 19 20  1  0
 20 21  1  0
 21 22  1  0
 21 23  1  0
 21 24  1  0
 20 25  2  0
 25 26  1  0
 15 27  2  0
 27 28  1  0
 27 29  1  0
 29 30  1  0
 29 31  2  0
 31 32  1  0
 32 33  2  0
 32 34  1  0
 34 35  1  0
 34 36  1  0
  7 37  1  0
 37 38  1  0
 37 39  2  0
 39 40  1  0
 39  2  1  0
 34  9  1  0
 31 12  1  0
 25 16  1  0
M  END
>  <UniqueID>  (62) 
58

>  <SMILES>  (62) 
Cc1cn(-c2ccc3c(c2)C(=O)/C(=N\c2ccccc2)CC3=O)cn1

>  <Energy>  (62) 
88.51898454097893

>  <Genealogy>  (62) 
Cc1cn(-c2ccc3c(c2)C(=O)/C(=N\c2ccccc2)CC3=O)cn1 (cis-trans isomerization)
Cc1cn(-c2ccc3c(c2)C(=O)/C(=N\c2ccccc2)CC3=O)cn1 (3D coordinates assigned)
Cc1cn(-c2ccc3c(c2)C(=O)/C(=N\c2ccccc2)CC3=O)cn1 (nonaromatic ring conformer: 88.51898454097893 kcal/mol)

>  <smiles>  (62) 
Cc1cn(-c2ccc3c(c2)C(=O)C(=Nc2ccccc2)CC3=O)cn1

>  <score_type>  (62) 
oracle

>  <origin>  (62) 
adg

>  <m_score__min__energy>  (62) 
-8.6699999999999999

>  <m_primary>  (62) 
energy

$$$$
62:0
     RDKit          3D

 64 67  0  0  0  0  0  0  0  0999 V2000
   58.9540   22.5670   44.8110 C   0  0  0  0  0  0  0  0  0  0  0  0
   58.1870   23.3360   45.8890 C   0  0  0  0  0  0  0  0  0  0  0  0
   56.9570   23.9470   45.3580 N   0  0  0  0  0  0  0  0  0  0  0  0
   56.0160   23.1280   44.5780 C   0  0  0  0  0  0  0  0  0  0  0  0
   56.2380   23.3440   43.0850 C   0  0  0  0  0  0  0  0  0  0  0  0
   56.5220   25.2290   45.8560 C   0  0  0  0  0  0  0  0  0  0  0  0
   55.3240   25.3770   46.2230 O   0  0  0  0  0  0  0  0  0  0  0  0
   57.4460   26.3850   45.9270 C   0  0  0  0  0  0  0  0  0  0  0  0
   57.4060   27.3820   44.9370 C   0  0  0  0  0  0  0  0  0  0  0  0
   58.2670   28.4890   44.9910 C   0  0  0  0  0  0  0  0  0  0  0  0
   58.2080   29.4760   43.9470 N   0  0  0  0  0  0  0  0  0  0  0  0
   57.2040   30.8870   44.0370 S   0  0  0  0  0  0  0  0  0  0  0  0
   57.0450   31.4890   42.6670 O   0  0  0  0  0  0  0  0  0  0  0  0
   55.8440   30.5020   44.5520 O   0  0  0  0  0  0  0  0  0  0  0  0
   57.9310   32.0340   45.1580 C   0  0  0  0  0  0  0  0  0  0  0  0
   57.1920   33.1500   45.5700 C   0  0  0  0  0  0  0  0  0  0  0  0
   57.7330   34.0560   46.4840 C   0  0  0  0  0  0  0  0  0  0  0  0
   59.0160   33.8520   46.9990 C   0  0  0  0  0  0  0  0  0  0  0  0
   59.5330   34.7370   47.8910 N   0  0  0  0  0  0  0  0  0  0  0  0
   60.7780   34.5860   48.4120 C   0  0  0  0  0  0  0  0  0  0  0  0
   61.5790   33.5010   48.0320 C   0  0  0  0  0  0  0  0  0  0  0  0
   62.9510   33.3820   48.5620 C   0  0  0  0  0  0  0  0  0  0  0  0
   63.8690   34.0800   48.0570 O   0  0  0  0  0  0  0  0  0  0  0  0
   63.2610   32.5070   49.6550 N   0  0  0  0  0  0  0  0  0  0  0  0
   62.7190   31.1610   49.8340 C   0  0  0  0  0  0  0  0  0  0  0  0
   61.2890   31.2270   50.3020 C   0  0  0  0  0  0  0  0  0  0  0  0
   60.3330   30.3100   49.8260 C   0  0  0  0  0  0  0  0  0  0  0  0
   58.9960   30.4130   50.2270 C   0  0  0  0  0  0  0  0  0  0  0  0
   58.6060   31.4240   51.1130 C   0  0  0  0  0  0  0  0  0  0  0  0
   56.9290   31.5540   51.6190 Cl  0  0  0  0  0  0  0  0  0  0  0  0
   59.5530   32.3350   51.5960 C   0  0  0  0  0  0  0  0  0  0  0  0
   60.8880   32.2400   51.1910 C   0  0  0  0  0  0  0  0  0  0  0  0
   61.0660   32.5540   47.1270 C   0  0  0  0  0  0  0  0  0  0  0  0
   61.7720   31.5660   46.7820 O   0  0  0  0  0  0  0  0  0  0  0  0
   59.7730   32.7280   46.5960 C   0  0  0  0  0  0  0  0  0  0  0  0
   59.2200   31.8220   45.6700 C   0  0  0  0  0  0  0  0  0  0  0  0
   59.1730   28.6010   46.0600 C   0  0  0  0  0  0  0  0  0  0  0  0
   59.2020   27.6280   47.0600 C   0  0  0  0  0  0  0  0  0  0  0  0
   58.3450   26.5240   47.0010 C   0  0  0  0  0  0  0  0  0  0  0  0
   58.4160   25.5820   47.9760 F   0  0  0  0  0  0  0  0  0  0  0  0
   59.6537   21.8655   45.2888 H   0  0  0  0  0  0  0  0  0  0  0  0
   58.2439   22.0071   44.1847 H   0  0  0  0  0  0  0  0  0  0  0  0
   59.5157   23.2756   44.1847 H   0  0  0  0  0  0  0  0  0  0  0  0
   57.9181   22.6410   46.6981 H   0  0  0  0  0  0  0  0  0  0  0  0
   58.8363   24.1433   46.2587 H   0  0  0  0  0  0  0  0  0  0  0  0
   56.1735   22.0662   44.8184 H   0  0  0  0  0  0  0  0  0  0  0  0
   54.9877   23.4237   44.8333 H   0  0  0  0  0  0  0  0  0  0  0  0
   57.0192   24.1041   42.9367 H   0  0  0  0  0  0  0  0  0  0  0  0
   56.5538   22.3981   42.6206 H   0  0  0  0  0  0  0  0  0  0  0  0
   55.3012   23.6856   42.6206 H   0  0  0  0  0  0  0  0  0  0  0  0
   56.6891   27.2933   44.1074 H   0  0  0  0  0  0  0  0  0  0  0  0
   58.6360   29.2580   43.0180 H   0  0  0  0  0  0  0  0  0  0  0  0
   56.1799   33.3136   45.1713 H   0  0  0  0  0  0  0  0  0  0  0  0
   57.1480   34.9325   46.7995 H   0  0  0  0  0  0  0  0  0  0  0  0
   61.1600   35.3200   49.1368 H   0  0  0  0  0  0  0  0  0  0  0  0
   62.7619   30.6229   48.8756 H   0  0  0  0  0  0  0  0  0  0  0  0
   63.3176   30.6339   50.5915 H   0  0  0  0  0  0  0  0  0  0  0  0
   60.6379   29.5093   49.1361 H   0  0  0  0  0  0  0  0  0  0  0  0
   58.2512   29.6990   49.8456 H   0  0  0  0  0  0  0  0  0  0  0  0
   59.2464   33.1268   52.2953 H   0  0  0  0  0  0  0  0  0  0  0  0
   61.6277   32.9608   51.5695 H   0  0  0  0  0  0  0  0  0  0  0  0
   59.8007   30.9453   45.3472 H   0  0  0  0  0  0  0  0  0  0  0  0
   59.8610   29.4579   46.1084 H   0  0  0  0  0  0  0  0  0  0  0  0
   59.9039   27.7300   47.9008 H   0  0  0  0  0  0  0  0  0  0  0  0
  1  2  1  0
  2  3  1  0
  3  4  1  0
  4  5  1  0
  3  6  1  0
  6  7  2  0
  6  8  1  0
  8  9  2  0
  9 10  1  0
 10 11  1  0
 11 12  1  0
 12 13  2  0
 12 14  2  0
 12 15  1  0
 15 16  2  0
 16 17  1  0
 17 18  2  0
 18 19  1  0
 19 20  1  0
 20 21  2  0
 21 22  1  0
 22 23  2  0
 22 24  1  0
 24 25  1  0
 25 26  1  0
 26 27  2  0
 27 28  1  0
 28 29  2  0
 29 30  1  0
 29 31  1  0
 31 32  2  0
 21 33  1  0
 33 34  2  0
 33 35  1  0
 35 36  2  0
 10 37  2  0
 37 38  1  0
 38 39  2  0
 39 40  1  0
 39  8  1  0
 36 15  1  0
 35 18  1  0
 32 26  1  0
  1 41  1  0
  1 42  1  0
  1 43  1  0
  2 44  1  0
  2 45  1  0
  4 46  1  0
  4 47  1  0
  5 48  1  0
  5 49  1  0
  5 50  1  0
  9 51  1  0
 11 52  1  0
 16 53  1  0
 17 54  1  0
 20 55  1  0
 25 56  1  0
 25 57  1  0
 27 58  1  0
 28 59  1  0
 31 60  1  0
 32 61  1  0
 36 62  1  0
 37 63  1  0
 38 64  1  0
M  CHG  2  19  -1  24  -1
M  END
>  <UniqueID>  (63) 
59

>  <SMILES>  (63) 
CCN(CC)C(=O)c1cc(NS(=O)(=O)c2ccc3[n-]cc(C(=O)[N-]Cc4ccc(Cl)cc4)c(=O)c3c2)ccc1F

>  <Energy>  (63) 
78.18249011125283

>  <Genealogy>  (63) 
CCN(CC)C(=O)c1cc(NS(=O)(=O)c2ccc3[n-]cc(C(=O)[N-]Cc4ccc(Cl)cc4)c(=O)c3c2)ccc1F (protonated)
CCN(CC)C(=O)c1cc(NS(=O)(=O)c2ccc3[n-]cc(C(=O)[N-]Cc4ccc(Cl)cc4)c(=O)c3c2)ccc1F (3D coordinates assigned)
CCN(CC)C(=O)c1cc(NS(=O)(=O)c2ccc3[n-]cc(C(=O)[N-]Cc4ccc(Cl)cc4)c(=O)c3c2)ccc1F (optimized conformer: 78.18249011125283 kcal/mol)

>  <smiles>  (63) 
CCN(CC)C(=O)c1cc(NS(=O)(=O)c2ccc3[nH]cc(C(=O)NCc4ccc(Cl)cc4)c(=O)c3c2)ccc1F

>  <score_type>  (63) 
oracle

>  <origin>  (63) 
adg

>  <m_score__min__energy>  (63) 
-12.779999999999999

>  <m_primary>  (63) 
energy

$$$$
63:0
     RDKit          3D

 15 16  0  0  0  0  0  0  0  0999 V2000
   59.4010   34.9640   45.1390 N   0  0  0  0  0  0  0  0  0  0  0  0
   58.8250   34.0680   44.6860 C   0  0  0  0  0  0  0  0  0  0  0  0
   58.1080   32.9550   44.1220 C   0  0  0  0  0  0  0  0  0  0  0  0
   58.1550   32.7090   42.7250 C   0  0  0  0  0  0  0  0  0  0  0  0
   57.4770   31.6520   42.1810 N   0  0  0  0  0  0  0  0  0  0  0  0
   56.7610   30.8490   43.0060 C   0  0  0  0  0  0  0  0  0  0  0  0
   56.0380   29.7760   42.6660 N   0  0  0  0  0  0  0  0  0  0  0  0
   55.5410   29.3530   43.8570 C   0  0  0  0  0  0  0  0  0  0  0  0
   55.9320   30.1170   44.8680 O   0  0  0  0  0  0  0  0  0  0  0  0
   56.6910   31.0470   44.3450 C   0  0  0  0  0  0  0  0  0  0  0  0
   57.3570   32.1020   44.9570 C   0  0  0  0  0  0  0  0  0  0  0  0
   58.7415   33.3738   42.0738 H   0  0  0  0  0  0  0  0  0  0  0  0
   55.8900   29.3620   41.7180 H   0  0  0  0  0  0  0  0  0  0  0  0
   54.8876   28.4754   43.9703 H   0  0  0  0  0  0  0  0  0  0  0  0
   57.3009   32.2644   46.0435 H   0  0  0  0  0  0  0  0  0  0  0  0
  1  2  3  0
  2  3  1  0
  3  4  2  0
  4  5  1  0
  5  6  2  0
  6  7  1  0
  7  8  2  0
  8  9  1  0
  9 10  1  0
 10 11  2  0
 11  3  1  0
 10  6  1  0
  4 12  1  0
  7 13  1  0
  8 14  1  0
 11 15  1  0
M  CHG  1   7   1
M  END
>  <UniqueID>  (64) 
60

>  <SMILES>  (64) 
N#Cc1cnc2[nH+]coc2c1

>  <Energy>  (64) 
56.45099100195852

>  <Genealogy>  (64) 
N#Cc1cnc2[nH+]coc2c1 (protonated)
N#Cc1cnc2[nH+]coc2c1 (3D coordinates assigned)
N#Cc1cnc2[nH+]coc2c1 (optimized conformer: 56.45099100195852 kcal/mol)

>  <smiles>  (64) 
N#Cc1cnc2ncoc2c1

>  <score_type>  (64) 
oracle

>  <origin>  (64) 
adg

>  <m_score__min__energy>  (64) 
-3.29

>  <m_primary>  (64) 
energy

$$$$
64:0
     RDKit          3D

 62 66  0  0  0  0  0  0  0  0999 V2000
   59.0170   33.5260   47.3350 C   0  0  0  0  0  0  0  0  0  0  0  0
   60.4710   33.7250   47.0530 C   0  0  0  0  0  0  0  0  0  0  0  0
   60.8220   34.3070   45.9900 O   0  0  0  0  0  0  0  0  0  0  0  0
   61.4510   33.2350   47.9840 N   0  0  0  0  0  0  0  0  0  0  0  0
   62.8690   33.3940   47.8150 C   0  0  0  0  0  0  0  0  0  0  0  0
   63.3310   33.9960   46.8070 O   0  0  0  0  0  0  0  0  0  0  0  0
   63.8060   32.8560   48.8130 C   0  0  0  0  0  0  0  0  0  0  0  0
   64.9450   33.3780   48.9530 O   0  0  0  0  0  0  0  0  0  0  0  0
   63.4140   31.7340   49.6180 N   0  0  0  0  0  0  0  0  0  0  0  0
   63.2340   31.7230   51.0710 C   0  0  1  0  0  0  0  0  0  0  0  0
   62.6350   33.0380   51.5860 C   0  0  0  0  0  0  0  0  0  0  0  0
   61.2980   33.3540   50.9070 C   0  0  0  0  0  0  0  0  0  0  0  0
   60.1670   32.6500   51.6220 C   0  0  0  0  0  0  0  0  0  0  0  0
   59.1660   33.4730   52.1760 C   0  0  0  0  0  0  0  0  0  0  0  0
   58.0260   32.9300   52.7530 C   0  0  0  0  0  0  0  0  0  0  0  0
   57.8550   31.5550   52.7800 C   0  0  0  0  0  0  0  0  0  0  0  0
   58.8350   30.7140   52.2570 C   0  0  0  0  0  0  0  0  0  0  0  0
   60.0370   31.2210   51.6960 C   0  0  0  0  0  0  0  0  0  0  0  0
   61.0820   30.2970   51.2270 N   0  0  0  0  0  0  0  0  0  0  0  0
   60.7760   29.0150   50.5550 C   0  0  0  0  0  0  0  0  0  0  0  0
   60.1210   29.2390   49.2110 C   0  0  0  0  0  0  0  0  0  0  0  0
   60.4660   28.4270   48.1150 C   0  0  0  0  0  0  0  0  0  0  0  0
   59.8350   28.5960   46.8810 C   0  0  0  0  0  0  0  0  0  0  0  0
   58.8440   29.5740   46.7220 C   0  0  0  0  0  0  0  0  0  0  0  0
   58.1630   29.7410   45.4200 C   0  0  0  0  0  0  0  0  0  0  0  0
   58.4650   30.8830   44.6580 C   0  0  0  0  0  0  0  0  0  0  0  0
   57.7980   31.1340   43.4600 C   0  0  0  0  0  0  0  0  0  0  0  0
   56.8220   30.2480   43.0050 C   0  0  0  0  0  0  0  0  0  0  0  0
   56.5200   29.0990   43.7390 C   0  0  0  0  0  0  0  0  0  0  0  0
   57.1910   28.8180   44.9450 C   0  0  0  0  0  0  0  0  0  0  0  0
   56.8800   27.5460   45.6460 C   0  0  0  0  0  0  0  0  0  0  0  0
   55.6470   27.0110   45.7310 N   0  0  0  0  0  0  0  0  0  0  0  0
   55.8110   25.8780   46.3950 N   0  0  0  0  0  0  0  0  0  0  0  0
   57.0910   25.7200   46.6970 N   0  0  0  0  0  0  0  0  0  0  0  0
   57.7880   26.7450   46.2370 N   0  0  0  0  0  0  0  0  0  0  0  0
   58.5200   30.4090   47.8030 C   0  0  0  0  0  0  0  0  0  0  0  0
   59.1520   30.2400   49.0380 C   0  0  0  0  0  0  0  0  0  0  0  0
   62.4810   30.4940   51.5150 C   0  0  0  0  0  0  0  0  0  0  0  0
   63.1260   29.5830   52.1030 O   0  0  0  0  0  0  0  0  0  0  0  0
   58.8541   33.5037   48.4226 H   0  0  0  0  0  0  0  0  0  0  0  0
   58.4415   34.3538   46.8950 H   0  0  0  0  0  0  0  0  0  0  0  0
   58.6851   32.5741   46.8950 H   0  0  0  0  0  0  0  0  0  0  0  0
   61.0990   32.7470   48.8390 H   0  0  0  0  0  0  0  0  0  0  0  0
   64.2269   31.6585   51.5401 H   0  0  0  0  0  0  0  0  0  0  0  0
   62.4735   32.9558   52.6710 H   0  0  0  0  0  0  0  0  0  0  0  0
   63.3390   33.8506   51.3536 H   0  0  0  0  0  0  0  0  0  0  0  0
   61.1247   34.4399   50.9347 H   0  0  0  0  0  0  0  0  0  0  0  0
   61.3347   33.0047   49.8646 H   0  0  0  0  0  0  0  0  0  0  0  0
   59.2903   34.5657   52.1508 H   0  0  0  0  0  0  0  0  0  0  0  0
   57.2604   33.5895   53.1877 H   0  0  0  0  0  0  0  0  0  0  0  0
   56.9412   31.1255   53.2164 H   0  0  0  0  0  0  0  0  0  0  0  0
   58.6730   29.6262   52.2793 H   0  0  0  0  0  0  0  0  0  0  0  0
   61.7117   28.4556   50.4083 H   0  0  0  0  0  0  0  0  0  0  0  0
   60.0783   28.4493   51.1900 H   0  0  0  0  0  0  0  0  0  0  0  0
   61.2389   27.6530   48.2312 H   0  0  0  0  0  0  0  0  0  0  0  0
   60.1170   27.9587   46.0299 H   0  0  0  0  0  0  0  0  0  0  0  0
   59.2349   31.5852   45.0104 H   0  0  0  0  0  0  0  0  0  0  0  0
   58.0418   32.0318   42.8730 H   0  0  0  0  0  0  0  0  0  0  0  0
   56.2886   30.4547   42.0655 H   0  0  0  0  0  0  0  0  0  0  0  0
   55.7494   28.4056   43.3711 H   0  0  0  0  0  0  0  0  0  0  0  0
   57.7655   31.1996   47.6775 H   0  0  0  0  0  0  0  0  0  0  0  0
   58.8883   30.8961   49.8806 H   0  0  0  0  0  0  0  0  0  0  0  0
  1  2  1  0
  2  3  2  0
  2  4  1  0
  4  5  1  0
  5  6  2  0
  5  7  1  0
  7  8  2  0
  7  9  1  0
  9 10  1  0
 10 11  1  0
 11 12  1  0
 12 13  1  0
 13 14  2  0
 14 15  1  0
 15 16  2  0
 16 17  1  0
 17 18  2  0
 18 19  1  0
 19 20  1  0
 20 21  1  0
 21 22  2  0
 22 23  1  0
 23 24  2  0
 24 25  1  0
 25 26  2  0
 26 27  1  0
 27 28  2  0
 28 29  1  0
 29 30  2  0
 30 31  1  0
 31 32  1  0
 32 33  2  0
 33 34  1  0
 34 35  1  0
 24 36  1  0
 36 37  2  0
 19 38  1  0
 38 39  2  0
 38 10  1  0
 18 13  1  0
 37 21  1  0
 30 25  1  0
 35 31  2  0
  1 40  1  0
  1 41  1  0
  1 42  1  0
  4 43  1  0
 10 44  1  1
 11 45  1  0
 11 46  1  0
 12 47  1  0
 12 48  1  0
 14 49  1  0
 15 50  1  0
 16 51  1  0
 17 52  1  0
 20 53  1  0
 20 54  1  0
 22 55  1  0
 23 56  1  0
 26 57  1  0
 27 58  1  0
 28 59  1  0
 29 60  1  0
 36 61  1  0
 37 62  1  0
M  CHG  2   9  -1  34  -1
M  END
>  <UniqueID>  (65) 
61

>  <SMILES>  (65) 
CC(=O)NC(=O)C(=O)[N-][C@H]1CCc2ccccc2N(Cc2ccc(-c3ccccc3-c3nn[n-]n3)cc2)C1=O

>  <Energy>  (65) 
133.30448144765086

>  <Genealogy>  (65) 
CC(=O)NC(=O)C(=O)[N-]C1CCc2ccccc2N(Cc2ccc(-c3ccccc3-c3nn[n-]n3)cc2)C1=O (protonated)
CC(=O)NC(=O)C(=O)[N-][C@H]1CCc2ccccc2N(Cc2ccc(-c3ccccc3-c3nn[n-]n3)cc2)C1=O (chirality)
CC(=O)NC(=O)C(=O)[N-][C@H]1CCc2ccccc2N(Cc2ccc(-c3ccccc3-c3nn[n-]n3)cc2)C1=O (3D coordinates assigned)
CC(=O)NC(=O)C(=O)[N-][C@H]1CCc2ccccc2N(Cc2ccc(-c3ccccc3-c3nn[n-]n3)cc2)C1=O (nonaromatic ring conformer: 133.30448144765086 kcal/mol)

>  <smiles>  (65) 
CC(=O)NC(=O)C(=O)NC1CCc2ccccc2N(Cc2ccc(-c3ccccc3-c3nn[nH]n3)cc2)C1=O

>  <score_type>  (65) 
oracle

>  <origin>  (65) 
adg

>  <m_score__min__energy>  (65) 
-11.17

>  <m_primary>  (65) 
energy

$$$$
65:0
     RDKit          3D

 38 40  0  0  0  0  0  0  0  0999 V2000
   57.0020   34.4900   45.4640 O   0  0  0  0  0  0  0  0  0  0  0  0
   58.3750   33.8840   45.5520 S   0  0  0  0  0  0  0  0  0  0  0  0
   59.2440   34.5100   44.4980 O   0  0  0  0  0  0  0  0  0  0  0  0
   59.0410   34.2190   47.1190 N   0  0  0  0  0  0  0  0  0  0  0  0
   60.2980   34.0820   47.4110 C   0  0  0  0  0  0  0  0  0  0  0  0
   60.7070   34.2550   48.6950 N   0  0  0  0  0  0  0  0  0  0  0  0
   62.0150   34.1230   49.0380 C   0  0  0  0  0  0  0  0  0  0  0  0
   62.9610   33.8060   48.0650 C   0  0  0  0  0  0  0  0  0  0  0  0
   62.5280   33.6290   46.7510 C   0  0  0  0  0  0  0  0  0  0  0  0
   61.2120   33.7680   46.4490 N   0  0  0  0  0  0  0  0  0  0  0  0
   58.3120   32.1370   45.2840 C   0  0  0  0  0  0  0  0  0  0  0  0
   58.5280   31.2650   46.3620 C   0  0  0  0  0  0  0  0  0  0  0  0
   58.5010   29.8770   46.1790 C   0  0  0  0  0  0  0  0  0  0  0  0
   58.7270   29.0320   47.3160 N   0  0  0  0  0  0  0  0  0  0  0  0
   59.3050   27.3980   47.2490 S   0  0  0  0  0  0  0  0  0  0  0  0
   60.5300   27.3430   46.3810 O   0  0  0  0  0  0  0  0  0  0  0  0
   59.6310   26.9250   48.6370 O   0  0  0  0  0  0  0  0  0  0  0  0
   58.0650   26.3460   46.5640 C   0  0  0  0  0  0  0  0  0  0  0  0
   56.7230   26.7590   46.5370 C   0  0  0  0  0  0  0  0  0  0  0  0
   55.7380   25.9220   46.0010 C   0  0  0  0  0  0  0  0  0  0  0  0
   54.4120   26.3370   45.9780 O   0  0  0  0  0  0  0  0  0  0  0  0
   56.0880   24.6700   45.4890 C   0  0  0  0  0  0  0  0  0  0  0  0
   57.4200   24.2490   45.5160 C   0  0  0  0  0  0  0  0  0  0  0  0
   58.4090   25.0820   46.0520 C   0  0  0  0  0  0  0  0  0  0  0  0
   59.7280   24.6440   46.0760 O   0  0  0  0  0  0  0  0  0  0  0  0
   58.2560   29.3570   44.8980 C   0  0  0  0  0  0  0  0  0  0  0  0
   58.0440   30.2180   43.8200 C   0  0  0  0  0  0  0  0  0  0  0  0
   58.0710   31.6040   44.0010 C   0  0  0  0  0  0  0  0  0  0  0  0
   57.8020   32.6350   42.6000 Cl  0  0  0  0  0  0  0  0  0  0  0  0
   62.3271   34.2663   50.0830 H   0  0  0  0  0  0  0  0  0  0  0  0
   64.0239   33.6979   48.3270 H   0  0  0  0  0  0  0  0  0  0  0  0
   63.2513   33.3774   45.9613 H   0  0  0  0  0  0  0  0  0  0  0  0
   58.7210   31.6770   47.3635 H   0  0  0  0  0  0  0  0  0  0  0  0
   56.4450   27.7445   46.9389 H   0  0  0  0  0  0  0  0  0  0  0  0
   55.3135   24.0146   45.0639 H   0  0  0  0  0  0  0  0  0  0  0  0
   57.6919   23.2613   45.1154 H   0  0  0  0  0  0  0  0  0  0  0  0
   58.2311   28.2682   44.7435 H   0  0  0  0  0  0  0  0  0  0  0  0
   57.8540   29.8024   42.8194 H   0  0  0  0  0  0  0  0  0  0  0  0
  1  2  2  0
  2  3  2  0
  2  4  1  0
  4  5  2  3
  5  6  1  0
  6  7  2  0
  7  8  1  0
  8  9  2  0
  9 10  1  0
  2 11  1  0
 11 12  2  0
 12 13  1  0
 13 14  1  0
 14 15  1  0
 15 16  2  0
 15 17  2  0
 15 18  1  0
 18 19  2  0
 19 20  1  0
 20 21  1  0
 20 22  2  0
 22 23  1  0
 23 24  2  0
 24 25  1  0
 13 26  2  0
 26 27  1  0
 27 28  2  0
 28 29  1  0
 10  5  1  0
 28 11  1  0
 24 18  1  0
  7 30  1  0
  8 31  1  0
  9 32  1  0
 12 33  1  0
 19 34  1  0
 22 35  1  0
 23 36  1  0
 26 37  1  0
 27 38  1  0
M  CHG  4  10  -1  14  -1  21  -1  25  -1
M  END
>  <UniqueID>  (66) 
62

>  <SMILES>  (66) 
O=S(=O)(N=c1nccc[n-]1)c1cc([N-]S(=O)(=O)c2cc([O-])ccc2[O-])ccc1Cl

>  <Energy>  (66) 
51.41491954343537

>  <Genealogy>  (66) 
O=S(=O)(N=c1nccc[n-]1)c1cc([N-]S(=O)(=O)c2cc([O-])ccc2[O-])ccc1Cl (protonated)
O=S(=O)(N=c1nccc[n-]1)c1cc([N-]S(=O)(=O)c2cc([O-])ccc2[O-])ccc1Cl (3D coordinates assigned)
O=S(=O)(N=c1nccc[n-]1)c1cc([N-]S(=O)(=O)c2cc([O-])ccc2[O-])ccc1Cl (optimized conformer: 51.41491954343537 kcal/mol)

>  <smiles>  (66) 
O=S(=O)(N=c1nccc[nH]1)c1cc(NS(=O)(=O)c2cc(O)ccc2O)ccc1Cl

>  <score_type>  (66) 
oracle

>  <origin>  (66) 
adg

>  <m_score__min__energy>  (66) 
-16.82

>  <m_primary>  (66) 
energy

$$$$
66:0
     RDKit          3D

 47 49  0  0  0  0  0  0  0  0999 V2000
   56.0708   21.0624   42.8492 H   0  0  0  0  0  0  0  0  0  0  0  0
   56.6030   21.8540   43.3970 C   0  0  0  0  0  0  0  0  0  0  0  0
   56.1640   23.1400   43.4280 N   0  0  0  0  0  0  0  0  0  0  0  0
   56.9850   23.9200   44.1640 C   0  0  0  0  0  0  0  0  0  0  0  0
   56.7990   25.1880   44.3580 N   0  0  0  0  0  0  0  0  0  0  0  0
   56.5280   25.8760   45.9250 S   0  0  0  0  0  0  0  0  0  0  0  0
   55.1090   26.3690   46.0080 O   0  0  0  0  0  0  0  0  0  0  0  0
   56.7700   24.8420   46.9880 O   0  0  0  0  0  0  0  0  0  0  0  0
   57.6380   27.2220   46.1670 C   0  0  0  0  0  0  0  0  0  0  0  0
   57.5110   28.3930   45.4070 C   0  0  0  0  0  0  0  0  0  0  0  0
   56.7153   28.4729   44.6517 H   0  0  0  0  0  0  0  0  0  0  0  0
   58.3920   29.4590   45.6060 C   0  0  0  0  0  0  0  0  0  0  0  0
   58.2955   30.3696   44.9964 H   0  0  0  0  0  0  0  0  0  0  0  0
   59.4020   29.3740   46.5820 C   0  0  0  0  0  0  0  0  0  0  0  0
   60.3350   30.4470   46.7900 N   0  0  0  0  0  0  0  0  0  0  0  0
   61.0390   30.6450   46.0430 H   0  0  0  0  0  0  0  0  0  0  0  0
   60.3980   31.2260   47.9940 C   0  0  0  0  0  0  0  0  0  0  0  0
   59.9340   30.7670   49.0740 O   0  0  0  0  0  0  0  0  0  0  0  0
   61.0350   32.5910   47.9850 C   0  0  0  0  0  0  0  0  0  0  0  0
   61.2509   32.8839   49.0231 H   0  0  0  0  0  0  0  0  0  0  0  0
   61.9503   32.5229   47.3787 H   0  0  0  0  0  0  0  0  0  0  0  0
   60.1740   33.6270   47.3720 N   0  0  0  0  0  0  0  0  0  0  0  0
   60.1960   33.5950   45.8920 C   0  0  0  0  0  0  0  0  0  0  0  0
   61.2304   33.7442   45.5489 H   0  0  0  0  0  0  0  0  0  0  0  0
   59.8059   32.6190   45.5675 H   0  0  0  0  0  0  0  0  0  0  0  0
   59.3000   34.6980   45.2740 C   0  0  0  0  0  0  0  0  0  0  0  0
   59.1936   35.5089   46.0096 H   0  0  0  0  0  0  0  0  0  0  0  0
   59.7946   35.0264   44.3480 H   0  0  0  0  0  0  0  0  0  0  0  0
   57.8910   34.2160   44.8780 C   0  0  0  0  0  0  0  0  0  0  0  0
   57.3551   35.0604   44.4200 H   0  0  0  0  0  0  0  0  0  0  0  0
   58.0317   33.3710   44.1880 H   0  0  0  0  0  0  0  0  0  0  0  0
   57.0380   33.6840   46.0590 C   0  0  0  0  0  0  0  0  0  0  0  0
   56.6072   34.5502   46.5826 H   0  0  0  0  0  0  0  0  0  0  0  0
   56.2869   33.0166   45.6113 H   0  0  0  0  0  0  0  0  0  0  0  0
   57.7940   32.8330   47.0940 C   0  0  0  0  0  0  0  0  0  0  0  0
   57.0562   32.3795   47.7723 H   0  0  0  0  0  0  0  0  0  0  0  0
   58.3697   32.0860   46.5278 H   0  0  0  0  0  0  0  0  0  0  0  0
   58.8080   33.6210   47.9420 C   0  0  0  0  0  0  0  0  0  0  0  0
   58.4600   34.6613   48.0238 H   0  0  0  0  0  0  0  0  0  0  0  0
   58.8676   33.1236   48.9213 H   0  0  0  0  0  0  0  0  0  0  0  0
   59.5340   28.1930   47.3270 C   0  0  0  0  0  0  0  0  0  0  0  0
   60.3376   28.1047   48.0729 H   0  0  0  0  0  0  0  0  0  0  0  0
   58.6510   27.1270   47.1280 C   0  0  0  0  0  0  0  0  0  0  0  0
   58.7529   26.2111   47.7286 H   0  0  0  0  0  0  0  0  0  0  0  0
   58.2780   23.0610   44.8010 S   0  0  0  0  0  0  0  0  0  0  0  0
   57.7740   21.6110   44.1080 C   0  0  0  0  0  0  0  0  0  0  0  0
   58.2825   20.6401   44.2014 H   0  0  0  0  0  0  0  0  0  0  0  0
  1  2  1  0
  2  3  1  0
  3  4  1  0
  4  5  2  0
  5  6  1  0
  6  7  2  0
  6  8  2  0
  6  9  1  0
  9 10  2  0
 10 11  1  0
 10 12  1  0
 12 13  1  0
 12 14  2  0
 14 15  1  0
 15 16  1  0
 15 17  1  0
 17 18  2  0
 17 19  1  0
 19 20  1  0
 19 21  1  0
 19 22  1  0
 22 23  1  0
 23 24  1  0
 23 25  1  0
 23 26  1  0
 26 27  1  0
 26 28  1  0
 26 29  1  0
 29 30  1  0
 29 31  1  0
 29 32  1  0
 32 33  1  0
 32 34  1  0
 32 35  1  0
 35 36  1  0
 35 37  1  0
 35 38  1  0
 38 39  1  0
 38 40  1  0
 14 41  1  0
 41 42  1  0
 41 43  2  0
 43 44  1  0
  4 45  1  0
 45 46  1  0
 46 47  1  0
 46  2  2  0
 43  9  1  0
 38 22  1  0
M  CHG  1   3  -1
M  END
>  <UniqueID>  (67) 
63

>  <SMILES>  (67) 
O=C(CN1CCCCCC1)Nc1ccc(S(=O)(=O)/N=c2\[n-]ccs2)cc1

>  <Energy>  (67) 
94.78234696501522

>  <Genealogy>  (67) 
O=C(CN1CCCCCC1)Nc1ccc(S(=O)(=O)N=c2[n-]ccs2)cc1 (protonated)
O=C(CN1CCCCCC1)Nc1ccc(S(=O)(=O)/N=c2\[n-]ccs2)cc1 (cis-trans isomerization)
O=C(CN1CCCCCC1)Nc1ccc(S(=O)(=O)/N=c2\[n-]ccs2)cc1 (3D coordinates assigned)
O=C(CN1CCCCCC1)Nc1ccc(S(=O)(=O)/N=c2\[n-]ccs2)cc1 (nonaromatic ring conformer: 94.78234696501522 kcal/mol)

>  <smiles>  (67) 
O=C(CN1CCCCCC1)Nc1ccc(S(=O)(=O)N=c2[nH]ccs2)cc1

>  <score_type>  (67) 
oracle

>  <origin>  (67) 
adg

>  <m_score__min__energy>  (67) 
-7.0999999999999996

>  <m_primary>  (67) 
energy

$$$$
67:0
     RDKit          3D

 53 57  0  0  0  0  0  0  0  0999 V2000
   54.9456   30.1860   43.2383 H   0  0  0  0  0  0  0  0  0  0  0  0
   55.7970   30.1040   43.9300 C   0  0  0  0  0  0  0  0  0  0  0  0
   55.9080   29.0230   44.7440 N   0  0  0  0  0  0  0  0  0  0  0  0
   56.9480   28.8700   45.6120 C   0  0  0  0  0  0  0  0  0  0  0  0
   56.9990   27.8380   46.4070 N   0  0  0  0  0  0  0  0  0  0  0  0
   57.0200   26.4620   45.9980 C   0  0  0  0  0  0  0  0  0  0  0  0
   58.2550   25.8610   45.7190 C   0  0  0  0  0  0  0  0  0  0  0  0
   59.1828   26.4415   45.8295 H   0  0  0  0  0  0  0  0  0  0  0  0
   58.3150   24.5280   45.3010 C   0  0  0  0  0  0  0  0  0  0  0  0
   59.2890   24.0585   45.0988 H   0  0  0  0  0  0  0  0  0  0  0  0
   57.1380   23.7920   45.1400 C   0  0  0  0  0  0  0  0  0  0  0  0
   57.1866   22.7394   44.8243 H   0  0  0  0  0  0  0  0  0  0  0  0
   55.8990   24.3930   45.3800 C   0  0  0  0  0  0  0  0  0  0  0  0
   54.9735   23.8145   45.2430 H   0  0  0  0  0  0  0  0  0  0  0  0
   55.8320   25.7280   45.7940 C   0  0  0  0  0  0  0  0  0  0  0  0
   54.5880   26.3230   45.9700 O   0  0  0  0  0  0  0  0  0  0  0  0
   57.9390   29.8740   45.6930 C   0  0  0  0  0  0  0  0  0  0  0  0
   59.0820   29.7660   46.6320 C   0  0  0  0  0  0  0  0  0  0  0  0
   59.8300   30.7990   47.0780 N   0  0  0  0  0  0  0  0  0  0  0  0
   59.6120   32.2100   46.9030 C   0  0  0  0  0  0  0  0  0  0  0  0
   60.6280   33.0240   46.3790 C   0  0  0  0  0  0  0  0  0  0  0  0
   61.5920   32.5795   46.0906 H   0  0  0  0  0  0  0  0  0  0  0  0
   60.4200   34.3980   46.2220 C   0  0  0  0  0  0  0  0  0  0  0  0
   61.2211   35.0318   45.8140 H   0  0  0  0  0  0  0  0  0  0  0  0
   59.1950   34.9670   46.5830 C   0  0  0  0  0  0  0  0  0  0  0  0
   59.0312   36.0473   46.4557 H   0  0  0  0  0  0  0  0  0  0  0  0
   58.1780   34.1620   47.1060 C   0  0  0  0  0  0  0  0  0  0  0  0
   57.2145   34.6097   47.3910 H   0  0  0  0  0  0  0  0  0  0  0  0
   58.3850   32.7880   47.2670 C   0  0  0  0  0  0  0  0  0  0  0  0
   57.5837   32.1579   47.6803 H   0  0  0  0  0  0  0  0  0  0  0  0
   60.7440   30.2000   47.8740 C   0  0  0  0  0  0  0  0  0  0  0  0
   61.9730   31.0620   48.8560 S   0  0  0  0  0  0  0  0  0  0  0  0
   61.3050   30.4540   50.4380 C   0  0  0  0  0  0  0  0  0  0  0  0
   61.0266   29.3947   50.3363 H   0  0  0  0  0  0  0  0  0  0  0  0
   62.0679   30.5570   51.2237 H   0  0  0  0  0  0  0  0  0  0  0  0
   60.0920   31.2580   50.8070 C   0  0  0  0  0  0  0  0  0  0  0  0
   60.2410   32.5820   51.2570 C   0  0  0  0  0  0  0  0  0  0  0  0
   61.2423   33.0347   51.3063 H   0  0  0  0  0  0  0  0  0  0  0  0
   59.1210   33.3250   51.6420 C   0  0  0  0  0  0  0  0  0  0  0  0
   59.2431   34.3617   51.9891 H   0  0  0  0  0  0  0  0  0  0  0  0
   57.8470   32.7540   51.5870 C   0  0  0  0  0  0  0  0  0  0  0  0
   56.9665   33.3436   51.8819 H   0  0  0  0  0  0  0  0  0  0  0  0
   57.6920   31.4330   51.1570 C   0  0  0  0  0  0  0  0  0  0  0  0
   56.6891   30.9825   51.1205 H   0  0  0  0  0  0  0  0  0  0  0  0
   58.8080   30.6820   50.7730 C   0  0  0  0  0  0  0  0  0  0  0  0
   58.6380   29.3950   50.3780 F   0  0  0  0  0  0  0  0  0  0  0  0
   60.5780   28.8640   47.9090 N   0  0  0  0  0  0  0  0  0  0  0  0
   59.5410   28.6020   47.1290 N   0  0  0  0  0  0  0  0  0  0  0  0
   59.1760   27.6430   46.9360 H   0  0  0  0  0  0  0  0  0  0  0  0
   57.8330   30.9910   44.8510 C   0  0  0  0  0  0  0  0  0  0  0  0
   58.6009   31.7778   44.8865 H   0  0  0  0  0  0  0  0  0  0  0  0
   56.7600   31.1090   43.9700 C   0  0  0  0  0  0  0  0  0  0  0  0
   56.6745   31.9870   43.3129 H   0  0  0  0  0  0  0  0  0  0  0  0
  1  2  1  0
  2  3  1  0
  3  4  1  0
  4  5  2  0
  5  6  1  0
  6  7  2  0
  7  8  1  0
  7  9  1  0
  9 10  1  0
  9 11  2  0
 11 12  1  0
 11 13  1  0
 13 14  1  0
 13 15  2  0
 15 16  1  0
  4 17  1  0
 17 18  1  0
 18 19  1  0
 19 20  1  0
 20 21  2  0
 21 22  1  0
 21 23  1  0
 23 24  1  0
 23 25  2  0
 25 26  1  0
 25 27  1  0
 27 28  1  0
 27 29  2  0
 29 30  1  0
 19 31  1  0
 31 32  1  0
 32 33  1  0
 33 34  1  0
 33 35  1  0
 33 36  1  0
 36 37  2  0
 37 38  1  0
 37 39  1  0
 39 40  1  0
 39 41  2  0
 41 42  1  0
 41 43  1  0
 43 44  1  0
 43 45  2  0
 45 46  1  0
 31 47  2  0
 47 48  1  0
 48 49  1  0
 17 50  2  0
 50 51  1  0
 50 52  1  0
 52 53  1  0
 52  2  2  0
 15  6  1  0
 48 18  2  0
 29 20  1  0
 45 36  1  0
M  CHG  3   3  -1  16  -1  48   1
M  END
>  <UniqueID>  (68) 
64

>  <SMILES>  (68) 
[O-]c1ccccc1/N=c1\[n-]cccc1-c1[nH+]nc(SCc2ccccc2F)n1-c1ccccc1

>  <Energy>  (68) 
109.89610543632504

>  <Genealogy>  (68) 
[O-]c1ccccc1N=c1[n-]cccc1-c1[nH+]nc(SCc2ccccc2F)n1-c1ccccc1 (protonated)
[O-]c1ccccc1/N=c1\[n-]cccc1-c1[nH+]nc(SCc2ccccc2F)n1-c1ccccc1 (cis-trans isomerization)
[O-]c1ccccc1/N=c1\[n-]cccc1-c1[nH+]nc(SCc2ccccc2F)n1-c1ccccc1 (3D coordinates assigned)
[O-]c1ccccc1/N=c1\[n-]cccc1-c1[nH+]nc(SCc2ccccc2F)n1-c1ccccc1 (optimized conformer: 109.89610543632504 kcal/mol)

>  <smiles>  (68) 
Oc1ccccc1N=c1[nH]cccc1-c1nnc(SCc2ccccc2F)n1-c1ccccc1

>  <score_type>  (68) 
oracle

>  <origin>  (68) 
adg

>  <m_score__min__energy>  (68) 
-13.84

>  <m_primary>  (68) 
energy

$$$$
68:0
     RDKit          3D

 60 64  0  0  0  0  0  0  0  0999 V2000
   57.3990   31.9330   52.7490 C   0  0  0  0  0  0  0  0  0  0  0  0
   58.6990   32.6580   52.6620 C   0  0  0  0  0  0  0  0  0  0  0  0
   59.5830   32.7780   53.6870 N   0  0  0  0  0  0  0  0  0  0  0  0
   60.6820   33.3660   53.2190 N   0  0  0  0  0  0  0  0  0  0  0  0
   61.9000   33.5710   53.9940 C   0  0  0  0  0  0  0  0  0  0  0  0
   60.5160   33.5850   51.9040 C   0  0  0  0  0  0  0  0  0  0  0  0
   61.4220   34.0440   51.0100 N   0  0  0  0  0  0  0  0  0  0  0  0
   61.0580   34.0910   49.6920 C   0  0  0  0  0  0  0  0  0  0  0  0
   59.7640   33.6420   49.2830 C   0  0  0  0  0  0  0  0  0  0  0  0
   59.3580   33.6340   47.8540 C   0  0  0  0  0  0  0  0  0  0  0  0
   58.1630   33.0000   47.4710 C   0  0  0  0  0  0  0  0  0  0  0  0
   57.7780   32.9570   46.1280 C   0  0  0  0  0  0  0  0  0  0  0  0
   58.5680   33.5600   45.1450 C   0  0  0  0  0  0  0  0  0  0  0  0
   58.1560   33.4610   43.7730 N   0  0  0  0  0  0  0  0  0  0  0  0
   57.8770   32.2520   43.0490 C   0  0  0  0  0  0  0  0  0  0  0  0
   57.9870   32.2620   41.7890 O   0  0  0  0  0  0  0  0  0  0  0  0
   57.5020   30.9920   43.7330 C   0  0  0  0  0  0  0  0  0  0  0  0
   56.1590   30.5880   43.8070 C   0  0  0  0  0  0  0  0  0  0  0  0
   55.8210   29.3820   44.4240 C   0  0  0  0  0  0  0  0  0  0  0  0
   56.8120   28.5780   44.9950 C   0  0  0  0  0  0  0  0  0  0  0  0
   56.4570   27.4120   45.5910 F   0  0  0  0  0  0  0  0  0  0  0  0
   58.1580   28.9860   44.9720 C   0  0  0  0  0  0  0  0  0  0  0  0
   59.1670   28.1440   45.5660 N   0  0  0  0  0  0  0  0  0  0  0  0
   59.2610   27.8080   47.2660 S   0  0  0  0  0  0  0  0  0  0  0  0
   58.1710   26.8370   47.6260 O   0  0  0  0  0  0  0  0  0  0  0  0
   60.5910   27.1880   47.5910 O   0  0  0  0  0  0  0  0  0  0  0  0
   59.0210   29.3130   48.2000 C   0  0  0  0  0  0  0  0  0  0  0  0
   60.3000   30.0960   48.2810 C   0  0  0  0  0  0  0  0  0  0  0  0
   60.9570   30.2660   49.5130 C   0  0  0  0  0  0  0  0  0  0  0  0
   62.1400   31.0130   49.5850 C   0  0  0  0  0  0  0  0  0  0  0  0
   62.6830   31.5800   48.4290 C   0  0  0  0  0  0  0  0  0  0  0  0
   62.0500   31.3940   47.1970 C   0  0  0  0  0  0  0  0  0  0  0  0
   60.8630   30.6550   47.1200 C   0  0  0  0  0  0  0  0  0  0  0  0
   58.4930   30.1940   44.3300 C   0  0  0  0  0  0  0  0  0  0  0  0
   59.7650   34.1910   45.5180 C   0  0  0  0  0  0  0  0  0  0  0  0
   60.1510   34.2400   46.8610 C   0  0  0  0  0  0  0  0  0  0  0  0
   58.8990   33.1530   50.2300 N   0  0  0  0  0  0  0  0  0  0  0  0
   59.2940   33.1550   51.5240 C   0  0  0  0  0  0  0  0  0  0  0  0
   57.1322   31.7842   53.8057 H   0  0  0  0  0  0  0  0  0  0  0  0
   56.6154   32.5244   52.2527 H   0  0  0  0  0  0  0  0  0  0  0  0
   57.4903   30.9556   52.2527 H   0  0  0  0  0  0  0  0  0  0  0  0
   61.6627   33.5311   55.0674 H   0  0  0  0  0  0  0  0  0  0  0  0
   62.6271   32.7826   53.7496 H   0  0  0  0  0  0  0  0  0  0  0  0
   62.3290   34.5540   53.7496 H   0  0  0  0  0  0  0  0  0  0  0  0
   61.7651   34.4765   48.9428 H   0  0  0  0  0  0  0  0  0  0  0  0
   57.5248   32.5332   48.2357 H   0  0  0  0  0  0  0  0  0  0  0  0
   56.8471   32.4452   45.8427 H   0  0  0  0  0  0  0  0  0  0  0  0
   55.3708   31.2238   43.3774 H   0  0  0  0  0  0  0  0  0  0  0  0
   54.7690   29.0626   44.4610 H   0  0  0  0  0  0  0  0  0  0  0  0
   59.8020   27.5950   44.9440 H   0  0  0  0  0  0  0  0  0  0  0  0
   58.2527   29.9261   47.7061 H   0  0  0  0  0  0  0  0  0  0  0  0
   58.7017   29.0501   49.2193 H   0  0  0  0  0  0  0  0  0  0  0  0
   60.5403   29.8106   50.4235 H   0  0  0  0  0  0  0  0  0  0  0  0
   62.6424   31.1535   50.5534 H   0  0  0  0  0  0  0  0  0  0  0  0
   63.6080   32.1723   48.4887 H   0  0  0  0  0  0  0  0  0  0  0  0
   62.4853   31.8292   46.2854 H   0  0  0  0  0  0  0  0  0  0  0  0
   60.3691   30.5112   46.1477 H   0  0  0  0  0  0  0  0  0  0  0  0
   59.5439   30.5171   44.2954 H   0  0  0  0  0  0  0  0  0  0  0  0
   60.4035   34.6499   44.7488 H   0  0  0  0  0  0  0  0  0  0  0  0
   61.0807   34.7556   47.1437 H   0  0  0  0  0  0  0  0  0  0  0  0
  1  2  1  0
  2  3  2  0
  3  4  1  0
  4  5  1  0
  4  6  1  0
  6  7  2  0
  7  8  1  0
  8  9  2  0
  9 10  1  0
 10 11  2  0
 11 12  1  0
 12 13  2  0
 13 14  1  0
 14 15  1  0
 15 16  2  0
 15 17  1  0
 17 18  2  0
 18 19  1  0
 19 20  2  0
 20 21  1  0
 20 22  1  0
 22 23  1  0
 23 24  1  0
 24 25  2  0
 24 26  2  0
 24 27  1  0
 27 28  1  0
 28 29  2  0
 29 30  1  0
 30 31  2  0
 31 32  1  0
 32 33  2  0
 22 34  2  0
 13 35  1  0
 35 36  2  0
  9 37  1  0
 37 38  2  0
 38  2  1  0
 38  6  1  0
 36 10  1  0
 34 17  1  0
 33 28  1  0
  1 39  1  0
  1 40  1  0
  1 41  1  0
  5 42  1  0
  5 43  1  0
  5 44  1  0
  8 45  1  0
 11 46  1  0
 12 47  1  0
 18 48  1  0
 19 49  1  0
 23 50  1  0
 27 51  1  0
 27 52  1  0
 29 53  1  0
 30 54  1  0
 31 55  1  0
 32 56  1  0
 33 57  1  0
 34 58  1  0
 35 59  1  0
 36 60  1  0
M  CHG  1  14  -1
M  END
>  <UniqueID>  (69) 
65

>  <SMILES>  (69) 
Cc1nn(C)c2ncc(-c3ccc([N-]C(=O)c4ccc(F)c(NS(=O)(=O)Cc5ccccc5)c4)cc3)nc12

>  <Energy>  (69) 
119.1608927699607

>  <Genealogy>  (69) 
Cc1nn(C)c2ncc(-c3ccc([N-]C(=O)c4ccc(F)c(NS(=O)(=O)Cc5ccccc5)c4)cc3)nc12 (protonated)
Cc1nn(C)c2ncc(-c3ccc([N-]C(=O)c4ccc(F)c(NS(=O)(=O)Cc5ccccc5)c4)cc3)nc12 (3D coordinates assigned)
Cc1nn(C)c2ncc(-c3ccc([N-]C(=O)c4ccc(F)c(NS(=O)(=O)Cc5ccccc5)c4)cc3)nc12 (optimized conformer: 119.1608927699607 kcal/mol)

>  <smiles>  (69) 
Cc1nn(C)c2ncc(-c3ccc(NC(=O)c4ccc(F)c(NS(=O)(=O)Cc5ccccc5)c4)cc3)nc12

>  <score_type>  (69) 
oracle

>  <origin>  (69) 
adg

>  <m_score__min__energy>  (69) 
-10.77

>  <m_primary>  (69) 
energy

$$$$
69:0
     RDKit          3D

 69 71  0  0  0  0  0  0  0  0999 V2000
   56.0520   29.2160   44.3760 C   0  0  0  0  0  0  0  0  0  0  0  0
   57.3480   28.9080   45.1040 C   0  0  0  0  0  0  0  0  0  0  0  0
   57.4850   27.6810   45.8030 C   0  0  0  0  0  0  0  0  0  0  0  0
   56.5160   26.5650   45.6630 C   0  0  0  0  0  0  0  0  0  0  0  0
   55.3280   26.7190   46.0630 O   0  0  0  0  0  0  0  0  0  0  0  0
   56.9050   25.3310   45.0420 N   0  0  0  0  0  0  0  0  0  0  0  0
   55.9650   24.2160   44.9220 C   0  0  0  0  0  0  0  0  0  0  0  0
   56.6570   22.9650   44.3670 C   0  0  0  0  0  0  0  0  0  0  0  0
   57.7260   22.5190   45.2860 N   0  0  0  0  0  0  0  0  0  0  0  0
   57.3200   21.3110   46.0260 C   0  0  0  0  0  0  0  0  0  0  0  0
   58.9630   22.2400   44.5390 C   0  0  0  0  0  0  0  0  0  0  0  0
   58.6020   27.4830   46.6170 C   0  0  0  0  0  0  0  0  0  0  0  0
   59.6000   28.4500   46.7030 C   0  0  0  0  0  0  0  0  0  0  0  0
   60.7680   28.2490   47.6410 C   0  0  0  0  0  0  0  0  0  0  0  0
   60.2670   27.7370   48.9540 C   0  0  0  0  0  0  0  0  0  0  0  0
   60.3700   26.5120   49.2320 O   0  0  0  0  0  0  0  0  0  0  0  0
   59.7930   28.6640   49.9370 N   0  0  0  0  0  0  0  0  0  0  0  0
   59.0790   29.8840   49.5800 C   0  0  0  0  0  0  0  0  0  0  0  0
   59.9080   31.0980   49.9910 C   0  0  0  0  0  0  0  0  0  0  0  0
   61.2200   30.9750   49.4460 O   0  0  0  0  0  0  0  0  0  0  0  0
   61.7900   31.8590   48.5190 C   0  0  0  0  0  0  0  0  0  0  0  0
   61.0980   32.9730   48.0050 C   0  0  0  0  0  0  0  0  0  0  0  0
   61.7270   33.8340   47.1000 C   0  0  0  0  0  0  0  0  0  0  0  0
   63.0460   33.5940   46.7040 C   0  0  0  0  0  0  0  0  0  0  0  0
   63.7340   32.4860   47.2030 C   0  0  0  0  0  0  0  0  0  0  0  0
   63.1040   31.6180   48.1000 C   0  0  0  0  0  0  0  0  0  0  0  0
   59.4820   29.6160   45.9320 C   0  0  0  0  0  0  0  0  0  0  0  0
   60.4010   30.4810   45.9890 O   0  0  0  0  0  0  0  0  0  0  0  0
   58.3860   29.8260   45.1240 N   0  0  0  0  0  0  0  0  0  0  0  0
   58.3880   31.0320   44.2610 C   0  0  0  0  0  0  0  0  0  0  0  0
   58.4190   32.2870   45.0980 C   0  0  0  0  0  0  0  0  0  0  0  0
   57.9350   32.2780   46.4180 C   0  0  0  0  0  0  0  0  0  0  0  0
   57.9620   33.4460   47.1860 C   0  0  0  0  0  0  0  0  0  0  0  0
   58.4700   34.6300   46.6450 C   0  0  0  0  0  0  0  0  0  0  0  0
   58.9490   34.6480   45.3320 C   0  0  0  0  0  0  0  0  0  0  0  0
   58.9260   33.4830   44.5610 C   0  0  0  0  0  0  0  0  0  0  0  0
   55.2551   29.4054   45.1102 H   0  0  0  0  0  0  0  0  0  0  0  0
   56.1886   30.1067   43.7451 H   0  0  0  0  0  0  0  0  0  0  0  0
   55.7732   28.3591   43.7451 H   0  0  0  0  0  0  0  0  0  0  0  0
   57.8830   25.2270   44.6830 H   0  0  0  0  0  0  0  0  0  0  0  0
   55.5516   23.9866   45.9152 H   0  0  0  0  0  0  0  0  0  0  0  0
   55.1642   24.5086   44.2269 H   0  0  0  0  0  0  0  0  0  0  0  0
   55.9158   22.1600   44.2548 H   0  0  0  0  0  0  0  0  0  0  0  0
   57.1024   23.2062   43.3906 H   0  0  0  0  0  0  0  0  0  0  0  0
   57.3849   21.5041   47.1070 H   0  0  0  0  0  0  0  0  0  0  0  0
   56.2847   21.0497   45.7617 H   0  0  0  0  0  0  0  0  0  0  0  0
   57.9874   20.4775   45.7617 H   0  0  0  0  0  0  0  0  0  0  0  0
   59.7847   22.0547   45.2465 H   0  0  0  0  0  0  0  0  0  0  0  0
   58.8168   21.3523   43.9061 H   0  0  0  0  0  0  0  0  0  0  0  0
   59.2121   23.1045   43.9061 H   0  0  0  0  0  0  0  0  0  0  0  0
   58.6945   26.5528   47.1967 H   0  0  0  0  0  0  0  0  0  0  0  0
   61.4675   27.5203   47.2055 H   0  0  0  0  0  0  0  0  0  0  0  0
   61.2865   29.2071   47.7934 H   0  0  0  0  0  0  0  0  0  0  0  0
   58.9110   29.9057   48.4931 H   0  0  0  0  0  0  0  0  0  0  0  0
   58.1107   29.9079   50.1014 H   0  0  0  0  0  0  0  0  0  0  0  0
   59.4345   32.0139   49.6076 H   0  0  0  0  0  0  0  0  0  0  0  0
   59.9667   31.1517   51.0881 H   0  0  0  0  0  0  0  0  0  0  0  0
   60.0607   33.1662   48.3160 H   0  0  0  0  0  0  0  0  0  0  0  0
   61.1827   34.7018   46.6990 H   0  0  0  0  0  0  0  0  0  0  0  0
   63.5419   34.2779   45.9994 H   0  0  0  0  0  0  0  0  0  0  0  0
   64.7714   32.2961   46.8904 H   0  0  0  0  0  0  0  0  0  0  0  0
   63.6451   30.7387   48.4796 H   0  0  0  0  0  0  0  0  0  0  0  0
   59.2752   31.0094   43.6111 H   0  0  0  0  0  0  0  0  0  0  0  0
   57.4704   31.0342   43.6544 H   0  0  0  0  0  0  0  0  0  0  0  0
   57.5336   31.3486   46.8481 H   0  0  0  0  0  0  0  0  0  0  0  0
   57.5825   33.4329   48.2184 H   0  0  0  0  0  0  0  0  0  0  0  0
   58.4929   35.5471   47.2519 H   0  0  0  0  0  0  0  0  0  0  0  0
   59.3449   35.5812   44.9049 H   0  0  0  0  0  0  0  0  0  0  0  0
   59.3064   33.5018   43.5290 H   0  0  0  0  0  0  0  0  0  0  0  0
  1  2  1  0
  2  3  2  0
  3  4  1  0
  4  5  2  0
  4  6  1  0
  6  7  1  0
  7  8  1  0
  8  9  1  0
  9 10  1  0
  9 11  1  0
  3 12  1  0
 12 13  2  0
 13 14  1  0
 14 15  1  0
 15 16  2  0
 15 17  1  0
 17 18  1  0
 18 19  1  0
 19 20  1  0
 20 21  1  0
 21 22  2  0
 22 23  1  0
 23 24  2  0
 24 25  1  0
 25 26  2  0
 13 27  1  0
 27 28  2  0
 27 29  1  0
 29 30  1  0
 30 31  1  0
 31 32  2  0
 32 33  1  0
 33 34  2  0
 34 35  1  0
 35 36  2  0
 29  2  1  0
 36 31  1  0
 26 21  1  0
  1 37  1  0
  1 38  1  0
  1 39  1  0
  6 40  1  0
  7 41  1  0
  7 42  1  0
  8 43  1  0
  8 44  1  0
 10 45  1  0
 10 46  1  0
 10 47  1  0
 11 48  1  0
 11 49  1  0
 11 50  1  0
 12 51  1  0
 14 52  1  0
 14 53  1  0
 18 54  1  0
 18 55  1  0
 19 56  1  0
 19 57  1  0
 22 58  1  0
 23 59  1  0
 24 60  1  0
 25 61  1  0
 26 62  1  0
 30 63  1  0
 30 64  1  0
 32 65  1  0
 33 66  1  0
 34 67  1  0
 35 68  1  0
 36 69  1  0
M  CHG  1  17  -1
M  END
>  <UniqueID>  (70) 
66

>  <SMILES>  (70) 
Cc1c(C(=O)NCCN(C)C)cc(CC(=O)[N-]CCOc2ccccc2)c(=O)n1Cc1ccccc1

>  <Energy>  (70) 
70.65336380275065

>  <Genealogy>  (70) 
Cc1c(C(=O)NCCN(C)C)cc(CC(=O)[N-]CCOc2ccccc2)c(=O)n1Cc1ccccc1 (protonated)
Cc1c(C(=O)NCCN(C)C)cc(CC(=O)[N-]CCOc2ccccc2)c(=O)n1Cc1ccccc1 (3D coordinates assigned)
Cc1c(C(=O)NCCN(C)C)cc(CC(=O)[N-]CCOc2ccccc2)c(=O)n1Cc1ccccc1 (optimized conformer: 70.65336380275065 kcal/mol)

>  <smiles>  (70) 
Cc1c(C(=O)NCCN(C)C)cc(CC(=O)NCCOc2ccccc2)c(=O)n1Cc1ccccc1

>  <score_type>  (70) 
oracle

>  <origin>  (70) 
adg

>  <m_score__min__energy>  (70) 
-10.44

>  <m_primary>  (70) 
energy

$$$$
70:0
     RDKit          3D

 36 36  0  0  0  0  0  0  0  0999 V2000
   55.9170   29.7730   43.2570 C   0  0  0  0  0  0  0  0  0  0  0  0
   56.1660   30.4470   44.4840 O   0  0  0  0  0  0  0  0  0  0  0  0
   57.4310   30.9170   44.8450 C   0  0  0  0  0  0  0  0  0  0  0  0
   57.5480   31.9220   45.6000 O   0  0  0  0  0  0  0  0  0  0  0  0
   58.6670   30.2250   44.3210 C   0  0  0  0  0  0  0  0  0  0  0  0
   59.2030   29.1470   45.2130 N   0  0  0  0  0  0  0  0  0  0  0  0
   59.1080   29.5950   46.6290 C   0  0  0  0  0  0  0  0  0  0  0  0
   60.6490   28.9700   44.9180 C   0  0  0  0  0  0  0  0  0  0  0  0
   58.4390   27.8540   45.0730 C   0  0  0  0  0  0  0  0  0  0  0  0
   56.9690   27.8050   45.5870 C   0  0  0  0  0  0  0  0  0  0  0  0
   56.5030   26.4970   46.2540 C   0  0  2  0  0  0  0  0  0  0  0  0
   57.1430   25.2220   45.6460 C   0  0  0  0  0  0  0  0  0  0  0  0
   56.0070   24.2170   45.4240 C   0  0  0  0  0  0  0  0  0  0  0  0
   54.7990   25.0380   45.6200 C   0  0  0  0  0  0  0  0  0  0  0  0
   53.6290   24.6210   45.4180 O   0  0  0  0  0  0  0  0  0  0  0  0
   55.0690   26.3480   46.0670 N   0  0  0  0  0  0  0  0  0  0  0  0
   55.5427   28.7597   43.4647 H   0  0  0  0  0  0  0  0  0  0  0  0
   55.1654   30.3302   42.6786 H   0  0  0  0  0  0  0  0  0  0  0  0
   56.8503   29.7077   42.6786 H   0  0  0  0  0  0  0  0  0  0  0  0
   58.4218   29.7748   43.3478 H   0  0  0  0  0  0  0  0  0  0  0  0
   59.4509   30.9939   44.2551 H   0  0  0  0  0  0  0  0  0  0  0  0
   59.2893   28.7401   47.2970 H   0  0  0  0  0  0  0  0  0  0  0  0
   59.8609   30.3743   46.8183 H   0  0  0  0  0  0  0  0  0  0  0  0
   58.1036   30.0017   46.8183 H   0  0  0  0  0  0  0  0  0  0  0  0
   61.2100   28.9013   45.8617 H   0  0  0  0  0  0  0  0  0  0  0  0
   60.7944   28.0473   44.3370 H   0  0  0  0  0  0  0  0  0  0  0  0
   61.0127   29.8303   44.3370 H   0  0  0  0  0  0  0  0  0  0  0  0
   58.4182   27.6024   44.0024 H   0  0  0  0  0  0  0  0  0  0  0  0
   58.9775   27.1489   45.7233 H   0  0  0  0  0  0  0  0  0  0  0  0
   56.8479   28.6138   46.3227 H   0  0  0  0  0  0  0  0  0  0  0  0
   56.3481   27.9014   44.6841 H   0  0  0  0  0  0  0  0  0  0  0  0
   56.8030   26.5806   47.3090 H   0  0  0  0  0  0  0  0  0  0  0  0
   57.6284   25.4620   44.6885 H   0  0  0  0  0  0  0  0  0  0  0  0
   57.9100   24.8078   46.3169 H   0  0  0  0  0  0  0  0  0  0  0  0
   56.0411   23.7994   44.4069 H   0  0  0  0  0  0  0  0  0  0  0  0
   56.0567   23.3490   46.0979 H   0  0  0  0  0  0  0  0  0  0  0  0
  1  2  1  0
  2  3  1  0
  3  4  2  0
  3  5  1  0
  5  6  1  0
  6  7  1  0
  6  8  1  0
  6  9  1  0
  9 10  1  0
 10 11  1  0
 11 12  1  0
 12 13  1  0
 13 14  1  0
 14 15  2  0
 14 16  1  0
 16 11  1  0
  1 17  1  0
  1 18  1  0
  1 19  1  0
  5 20  1  0
  5 21  1  0
  7 22  1  0
  7 23  1  0
  7 24  1  0
  8 25  1  0
  8 26  1  0
  8 27  1  0
  9 28  1  0
  9 29  1  0
 10 30  1  0
 10 31  1  0
 11 32  1  1
 12 33  1  0
 12 34  1  0
 13 35  1  0
 13 36  1  0
M  CHG  2   6   1  16  -1
M  END
>  <UniqueID>  (71) 
67

>  <SMILES>  (71) 
COC(=O)C[N+](C)(C)CC[C@@H]1CCC(=O)[N-]1

>  <Energy>  (71) 
51.859087599573414

>  <Genealogy>  (71) 
COC(=O)C[N+](C)(C)CCC1CCC(=O)[N-]1 (protonated)
COC(=O)C[N+](C)(C)CC[C@@H]1CCC(=O)[N-]1 (chirality)
COC(=O)C[N+](C)(C)CC[C@@H]1CCC(=O)[N-]1 (3D coordinates assigned)
COC(=O)C[N+](C)(C)CC[C@@H]1CCC(=O)[N-]1 (nonaromatic ring conformer: 51.859087599573414 kcal/mol)

>  <smiles>  (71) 
COC(=O)C[N+](C)(C)CCC1CCC(=O)N1

>  <score_type>  (71) 
oracle

>  <origin>  (71) 
adg

>  <m_score__min__energy>  (71) 
-6.4000000000000004

>  <m_primary>  (71) 
energy

$$$$
71:0
     RDKit          3D

 38 41  0  0  0  0  0  0  0  0999 V2000
   56.0260   33.3004   45.6006 H   0  0  0  0  0  0  0  0  0  0  0  0
   56.9460   32.7010   45.5340 C   0  0  0  0  0  0  0  0  0  0  0  0
   56.9630   31.7030   44.6960 N   0  0  0  0  0  0  0  0  0  0  0  0
   57.5770   30.4160   44.8840 C   0  0  0  0  0  0  0  0  0  0  0  0
   58.9660   30.3180   45.0630 C   0  0  0  0  0  0  0  0  0  0  0  0
   59.5821   31.2292   45.0521 H   0  0  0  0  0  0  0  0  0  0  0  0
   59.5710   29.0800   45.2540 C   0  0  0  0  0  0  0  0  0  0  0  0
   60.6636   29.0153   45.3637 H   0  0  0  0  0  0  0  0  0  0  0  0
   58.7980   27.9210   45.3070 C   0  0  0  0  0  0  0  0  0  0  0  0
   59.4120   26.7250   45.5100 N   0  0  0  0  0  0  0  0  0  0  0  0
   58.7170   25.5630   45.6000 C   0  0  0  0  0  0  0  0  0  0  0  0
   59.3940   24.3550   45.8070 C   0  0  0  0  0  0  0  0  0  0  0  0
   60.4910   24.3459   45.8878 H   0  0  0  0  0  0  0  0  0  0  0  0
   58.6750   23.1600   45.9110 C   0  0  0  0  0  0  0  0  0  0  0  0
   59.2080   22.2113   46.0719 H   0  0  0  0  0  0  0  0  0  0  0  0
   57.2810   23.1680   45.8110 C   0  0  0  0  0  0  0  0  0  0  0  0
   56.7195   22.2259   45.8953 H   0  0  0  0  0  0  0  0  0  0  0  0
   56.5980   24.3710   45.6040 C   0  0  0  0  0  0  0  0  0  0  0  0
   55.5008   24.3737   45.5250 H   0  0  0  0  0  0  0  0  0  0  0  0
   57.3120   25.5750   45.4970 C   0  0  0  0  0  0  0  0  0  0  0  0
   56.6520   26.7940   45.2900 C   0  0  0  0  0  0  0  0  0  0  0  0
   55.5546   26.8163   45.2183 H   0  0  0  0  0  0  0  0  0  0  0  0
   57.3870   27.9930   45.1730 C   0  0  0  0  0  0  0  0  0  0  0  0
   56.7720   29.2570   44.9500 C   0  0  0  0  0  0  0  0  0  0  0  0
   55.3530   29.3810   44.7530 N   0  0  0  0  0  0  0  0  0  0  0  0
   54.8900   30.3170   44.7400 H   0  0  0  0  0  0  0  0  0  0  0  0
   54.7460   28.5720   44.5020 H   0  0  0  0  0  0  0  0  0  0  0  0
   58.0830   33.0810   46.4020 C   0  0  0  0  0  0  0  0  0  0  0  0
   58.1740   32.6320   47.7310 C   0  0  0  0  0  0  0  0  0  0  0  0
   57.3783   31.9987   48.1503 H   0  0  0  0  0  0  0  0  0  0  0  0
   59.2700   32.9860   48.5220 C   0  0  0  0  0  0  0  0  0  0  0  0
   59.3270   32.6458   49.5665 H   0  0  0  0  0  0  0  0  0  0  0  0
   60.2950   33.7730   47.9860 C   0  0  0  0  0  0  0  0  0  0  0  0
   61.6720   34.2150   48.9800 Cl  0  0  0  0  0  0  0  0  0  0  0  0
   60.2260   34.1970   46.6560 C   0  0  0  0  0  0  0  0  0  0  0  0
   61.0359   34.8090   46.2324 H   0  0  0  0  0  0  0  0  0  0  0  0
   59.1300   33.8450   45.8630 C   0  0  0  0  0  0  0  0  0  0  0  0
   59.0878   34.1680   44.8123 H   0  0  0  0  0  0  0  0  0  0  0  0
  1  2  1  0
  2  3  2  0
  3  4  1  0
  4  5  2  0
  5  6  1  0
  5  7  1  0
  7  8  1  0
  7  9  2  0
  9 10  1  0
 10 11  2  0
 11 12  1  0
 12 13  1  0
 12 14  2  0
 14 15  1  0
 14 16  1  0
 16 17  1  0
 16 18  2  0
 18 19  1  0
 18 20  1  0
 20 21  2  0
 21 22  1  0
 21 23  1  0
 23 24  2  0
 24 25  1  0
 25 26  1  0
 25 27  1  0
  2 28  1  0
 28 29  2  0
 29 30  1  0
 29 31  1  0
 31 32  1  0
 31 33  2  0
 33 34  1  0
 33 35  1  0
 35 36  1  0
 35 37  2  0
 37 38  1  0
 24  4  1  0
 37 28  1  0
 23  9  1  0
 20 11  1  0
M  END
>  <UniqueID>  (72) 
68

>  <SMILES>  (72) 
Nc1c(/N=C\c2ccc(Cl)cc2)ccc2nc3ccccc3cc12

>  <Energy>  (72) 
63.81864040057736

>  <Genealogy>  (72) 
Nc1c(/N=C\c2ccc(Cl)cc2)ccc2nc3ccccc3cc12 (cis-trans isomerization)
Nc1c(/N=C\c2ccc(Cl)cc2)ccc2nc3ccccc3cc12 (3D coordinates assigned)
Nc1c(/N=C\c2ccc(Cl)cc2)ccc2nc3ccccc3cc12 (optimized conformer: 63.81864040057736 kcal/mol)

>  <smiles>  (72) 
Nc1c(N=Cc2ccc(Cl)cc2)ccc2nc3ccccc3cc12

>  <score_type>  (72) 
oracle

>  <origin>  (72) 
adg

>  <m_score__min__energy>  (72) 
-8.6799999999999997

>  <m_primary>  (72) 
energy

$$$$
72:0
     RDKit          3D

 63 66  0  0  0  0  0  0  0  0999 V2000
   60.4890   34.2060   49.6420 C   0  0  0  0  0  0  0  0  0  0  0  0
   61.6110   33.7860   48.7280 C   0  0  0  0  0  0  0  0  0  0  0  0
   62.7770   33.2420   49.2880 C   0  0  0  0  0  0  0  0  0  0  0  0
   63.8490   32.8690   48.4780 C   0  0  0  0  0  0  0  0  0  0  0  0
   63.7780   33.0430   47.0990 C   0  0  0  0  0  0  0  0  0  0  0  0
   62.6350   33.5940   46.5240 C   0  0  0  0  0  0  0  0  0  0  0  0
   61.5410   33.9740   47.3230 C   0  0  0  0  0  0  0  0  0  0  0  0
   60.3260   34.5840   46.6570 C   0  0  0  0  0  0  0  0  0  0  0  0
   59.4090   33.5320   46.1780 N   0  0  0  0  0  0  0  0  0  0  0  0
   59.1130   32.5460   47.2370 C   0  0  0  0  0  0  0  0  0  0  0  0
   58.4380   31.3270   46.6020 C   0  0  0  0  0  0  0  0  0  0  0  0
   57.5220   31.7390   45.5250 N   0  0  0  0  0  0  0  0  0  0  0  0
   57.2770   30.8740   44.3930 C   0  0  0  0  0  0  0  0  0  0  0  0
   56.9870   31.3760   43.2750 O   0  0  0  0  0  0  0  0  0  0  0  0
   57.4010   29.4050   44.4990 C   0  0  0  0  0  0  0  0  0  0  0  0
   57.7320   28.6430   43.3670 C   0  0  0  0  0  0  0  0  0  0  0  0
   57.9240   27.2630   43.4760 C   0  0  0  0  0  0  0  0  0  0  0  0
   57.7900   26.6270   44.7210 C   0  0  0  0  0  0  0  0  0  0  0  0
   58.0880   25.1570   44.8630 C   0  0  0  0  0  0  0  0  0  0  0  0
   57.0560   24.3310   44.2310 N   0  0  0  0  0  0  0  0  0  0  0  0
   55.7860   23.9040   45.3450 S   0  0  0  0  0  0  0  0  0  0  0  0
   54.7240   23.1370   44.6090 O   0  0  0  0  0  0  0  0  0  0  0  0
   55.1730   25.1630   45.8890 O   0  0  0  0  0  0  0  0  0  0  0  0
   56.4010   22.9530   46.6990 C   0  0  0  0  0  0  0  0  0  0  0  0
   56.3800   21.5760   46.8230 C   0  0  0  0  0  0  0  0  0  0  0  0
   55.7680   20.6040   45.8710 C   0  0  0  0  0  0  0  0  0  0  0  0
   56.9610   21.2240   47.9860 N   0  0  0  0  0  0  0  0  0  0  0  0
   57.3740   22.3240   48.6000 N   0  0  0  0  0  0  0  0  0  0  0  0
   57.0540   23.3890   47.8370 C   0  0  0  0  0  0  0  0  0  0  0  0
   57.3910   24.7980   48.2050 C   0  0  0  0  0  0  0  0  0  0  0  0
   57.3940   27.3770   45.8370 C   0  0  0  0  0  0  0  0  0  0  0  0
   57.1930   28.7540   45.7250 C   0  0  0  0  0  0  0  0  0  0  0  0
   57.0050   33.1140   45.5430 C   0  0  0  0  0  0  0  0  0  0  0  0
   58.1650   34.1290   45.6370 C   0  0  0  0  0  0  0  0  0  0  0  0
   60.8051   34.0877   50.6889 H   0  0  0  0  0  0  0  0  0  0  0  0
   60.2363   35.2596   49.4521 H   0  0  0  0  0  0  0  0  0  0  0  0
   59.6066   33.5773   49.4521 H   0  0  0  0  0  0  0  0  0  0  0  0
   62.8461   33.1084   50.3777 H   0  0  0  0  0  0  0  0  0  0  0  0
   64.7534   32.4360   48.9303 H   0  0  0  0  0  0  0  0  0  0  0  0
   64.6247   32.7454   46.4629 H   0  0  0  0  0  0  0  0  0  0  0  0
   62.5873   33.7335   45.4339 H   0  0  0  0  0  0  0  0  0  0  0  0
   59.7979   35.2200   47.3827 H   0  0  0  0  0  0  0  0  0  0  0  0
   60.6584   35.1818   45.7955 H   0  0  0  0  0  0  0  0  0  0  0  0
   60.0484   32.2373   47.7266 H   0  0  0  0  0  0  0  0  0  0  0  0
   58.4456   32.9935   47.9882 H   0  0  0  0  0  0  0  0  0  0  0  0
   59.2100   30.6637   46.1849 H   0  0  0  0  0  0  0  0  0  0  0  0
   57.8591   30.8013   47.3757 H   0  0  0  0  0  0  0  0  0  0  0  0
   57.8408   29.1349   42.3891 H   0  0  0  0  0  0  0  0  0  0  0  0
   58.1809   26.6731   42.5838 H   0  0  0  0  0  0  0  0  0  0  0  0
   59.0567   24.9422   44.3882 H   0  0  0  0  0  0  0  0  0  0  0  0
   58.1121   24.9142   45.9356 H   0  0  0  0  0  0  0  0  0  0  0  0
   55.2650   19.8051   46.4355 H   0  0  0  0  0  0  0  0  0  0  0  0
   55.0339   21.1237   45.2378 H   0  0  0  0  0  0  0  0  0  0  0  0
   56.5539   20.1666   45.2378 H   0  0  0  0  0  0  0  0  0  0  0  0
   57.4143   24.8953   49.3004 H   0  0  0  0  0  0  0  0  0  0  0  0
   58.3769   25.0589   47.7927 H   0  0  0  0  0  0  0  0  0  0  0  0
   56.6299   25.4767   47.7927 H   0  0  0  0  0  0  0  0  0  0  0  0
   57.2409   26.8783   46.8055 H   0  0  0  0  0  0  0  0  0  0  0  0
   56.8696   29.3324   46.6030 H   0  0  0  0  0  0  0  0  0  0  0  0
   56.4368   33.2988   44.6194 H   0  0  0  0  0  0  0  0  0  0  0  0
   56.3539   33.2369   46.4211 H   0  0  0  0  0  0  0  0  0  0  0  0
   58.3721   34.5201   44.6300 H   0  0  0  0  0  0  0  0  0  0  0  0
   57.8525   34.9256   46.3282 H   0  0  0  0  0  0  0  0  0  0  0  0
  1  2  1  0
  2  3  2  0
  3  4  1  0
  4  5  2  0
  5  6  1  0
  6  7  2  0
  7  8  1  0
  8  9  1  0
  9 10  1  0
 10 11  1  0
 11 12  1  0
 12 13  1  0
 13 14  2  0
 13 15  1  0
 15 16  2  0
 16 17  1  0
 17 18  2  0
 18 19  1  0
 19 20  1  0
 20 21  1  0
 21 22  2  0
 21 23  2  0
 21 24  1  0
 24 25  1  0
 25 26  1  0
 25 27  2  0
 27 28  1  0
 28 29  1  0
 29 30  1  0
 18 31  1  0
 31 32  2  0
 12 33  1  0
 33 34  1  0
  7  2  1  0
 34  9  1  0
 32 15  1  0
 29 24  2  0
  1 35  1  0
  1 36  1  0
  1 37  1  0
  3 38  1  0
  4 39  1  0
  5 40  1  0
  6 41  1  0
  8 42  1  0
  8 43  1  0
 10 44  1  0
 10 45  1  0
 11 46  1  0
 11 47  1  0
 16 48  1  0
 17 49  1  0
 19 50  1  0
 19 51  1  0
 26 52  1  0
 26 53  1  0
 26 54  1  0
 30 55  1  0
 30 56  1  0
 30 57  1  0
 31 58  1  0
 32 59  1  0
 33 60  1  0
 33 61  1  0
 34 62  1  0
 34 63  1  0
M  CHG  2  20  -1  28  -1
M  END
>  <UniqueID>  (73) 
69

>  <SMILES>  (73) 
Cc1ccccc1CN1CCN(C(=O)c2ccc(C[N-]S(=O)(=O)c3c(C)n[n-]c3C)cc2)CC1

>  <Energy>  (73) 
103.07411353553472

>  <Genealogy>  (73) 
Cc1ccccc1CN1CCN(C(=O)c2ccc(C[N-]S(=O)(=O)c3c(C)n[n-]c3C)cc2)CC1 (protonated)
Cc1ccccc1CN1CCN(C(=O)c2ccc(C[N-]S(=O)(=O)c3c(C)n[n-]c3C)cc2)CC1 (3D coordinates assigned)
Cc1ccccc1CN1CCN(C(=O)c2ccc(C[N-]S(=O)(=O)c3c(C)n[n-]c3C)cc2)CC1 (nonaromatic ring conformer: 103.07411353553472 kcal/mol)

>  <smiles>  (73) 
Cc1ccccc1CN1CCN(C(=O)c2ccc(CNS(=O)(=O)c3c(C)n[nH]c3C)cc2)CC1

>  <score_type>  (73) 
oracle

>  <origin>  (73) 
adg

>  <m_score__min__energy>  (73) 
-13.73

>  <m_primary>  (73) 
energy

$$$$
73:0
     RDKit          3D

 53 56  0  0  0  0  0  0  0  0999 V2000
   57.8380   24.8860   45.3120 C   0  0  0  0  0  0  0  0  0  0  0  0
   57.7920   26.0490   44.3140 C   0  0  0  0  0  0  0  0  0  0  0  0
   58.2240   27.3410   44.9080 N   0  0  2  0  0  0  0  0  0  0  0  0
   59.0960   27.0840   46.0840 C   0  0  0  0  0  0  0  0  0  0  0  0
   59.6930   28.3530   46.6550 C   0  0  0  0  0  0  0  0  0  0  0  0
   60.4260   29.2220   45.8320 C   0  0  0  0  0  0  0  0  0  0  0  0
   60.9660   30.4010   46.3540 C   0  0  0  0  0  0  0  0  0  0  0  0
   60.7800   30.7290   47.7050 C   0  0  0  0  0  0  0  0  0  0  0  0
   61.3680   31.9680   48.2630 C   0  0  0  0  0  0  0  0  0  0  0  0
   60.5620   32.7960   49.0650 C   0  0  0  0  0  0  0  0  0  0  0  0
   61.0890   33.9500   49.6470 C   0  0  0  0  0  0  0  0  0  0  0  0
   62.4250   34.2920   49.4360 C   0  0  0  0  0  0  0  0  0  0  0  0
   63.2340   33.4880   48.6330 C   0  0  0  0  0  0  0  0  0  0  0  0
   62.7180   32.3290   48.0310 C   0  0  0  0  0  0  0  0  0  0  0  0
   63.5620   31.5630   47.1600 N   0  0  0  0  0  0  0  0  0  0  0  0
   60.0700   29.8480   48.5350 C   0  0  0  0  0  0  0  0  0  0  0  0
   59.5300   28.6690   48.0140 C   0  0  0  0  0  0  0  0  0  0  0  0
   57.0870   28.2490   45.2280 C   0  0  0  0  0  0  0  0  0  0  0  0
   57.3760   29.7050   44.9710 C   0  0  0  0  0  0  0  0  0  0  0  0
   57.4360   30.1760   43.6960 N   0  0  0  0  0  0  0  0  0  0  0  0
   57.6870   31.4850   43.4350 C   0  0  0  0  0  0  0  0  0  0  0  0
   57.7320   31.8770   42.2370 O   0  0  0  0  0  0  0  0  0  0  0  0
   57.8920   32.3800   44.4970 C   0  0  0  0  0  0  0  0  0  0  0  0
   58.1530   33.7470   44.2960 C   0  0  0  0  0  0  0  0  0  0  0  0
   58.3490   34.5910   45.3940 C   0  0  0  0  0  0  0  0  0  0  0  0
   58.2860   34.0810   46.6940 C   0  0  0  0  0  0  0  0  0  0  0  0
   58.0280   32.7230   46.9040 C   0  0  0  0  0  0  0  0  0  0  0  0
   57.8310   31.8710   45.8120 C   0  0  0  0  0  0  0  0  0  0  0  0
   57.5770   30.5530   46.0140 N   0  0  0  0  0  0  0  0  0  0  0  0
   57.8223   25.2824   46.3380 H   0  0  0  0  0  0  0  0  0  0  0  0
   56.9649   24.2351   45.1570 H   0  0  0  0  0  0  0  0  0  0  0  0
   58.7598   24.3061   45.1570 H   0  0  0  0  0  0  0  0  0  0  0  0
   58.4554   25.8124   43.4691 H   0  0  0  0  0  0  0  0  0  0  0  0
   56.7462   26.1671   43.9942 H   0  0  0  0  0  0  0  0  0  0  0  0
   58.8090   27.8250   44.1850 H   0  0  0  0  0  0  0  0  0  0  0  0
   58.4975   26.5935   46.8658 H   0  0  0  0  0  0  0  0  0  0  0  0
   59.9273   26.4462   45.7491 H   0  0  0  0  0  0  0  0  0  0  0  0
   60.5763   28.9741   44.7709 H   0  0  0  0  0  0  0  0  0  0  0  0
   61.5401   31.0754   45.7015 H   0  0  0  0  0  0  0  0  0  0  0  0
   59.5078   32.5319   49.2349 H   0  0  0  0  0  0  0  0  0  0  0  0
   60.4502   34.5906   50.2728 H   0  0  0  0  0  0  0  0  0  0  0  0
   62.8409   35.1967   49.9034 H   0  0  0  0  0  0  0  0  0  0  0  0
   64.2861   33.7645   48.4698 H   0  0  0  0  0  0  0  0  0  0  0  0
   63.2300   30.6940   46.6900 H   0  0  0  0  0  0  0  0  0  0  0  0
   64.5200   31.9030   46.9180 H   0  0  0  0  0  0  0  0  0  0  0  0
   59.9379   30.0865   49.6007 H   0  0  0  0  0  0  0  0  0  0  0  0
   58.9742   27.9846   48.6718 H   0  0  0  0  0  0  0  0  0  0  0  0
   56.2244   27.9535   44.6128 H   0  0  0  0  0  0  0  0  0  0  0  0
   56.8921   28.1481   46.3059 H   0  0  0  0  0  0  0  0  0  0  0  0
   58.2031   34.1528   43.2748 H   0  0  0  0  0  0  0  0  0  0  0  0
   58.5535   35.6599   45.2340 H   0  0  0  0  0  0  0  0  0  0  0  0
   58.4398   34.7497   47.5538 H   0  0  0  0  0  0  0  0  0  0  0  0
   57.9799   32.3244   47.9281 H   0  0  0  0  0  0  0  0  0  0  0  0
  1  2  1  0
  2  3  1  0
  3  4  1  0
  4  5  1  0
  5  6  2  0
  6  7  1  0
  7  8  2  0
  8  9  1  0
  9 10  2  0
 10 11  1  0
 11 12  2  0
 12 13  1  0
 13 14  2  0
 14 15  1  0
  8 16  1  0
 16 17  2  0
  3 18  1  0
 18 19  1  0
 19 20  2  0
 20 21  1  0
 21 22  2  0
 21 23  1  0
 23 24  2  0
 24 25  1  0
 25 26  2  0
 26 27  1  0
 27 28  2  0
 28 29  1  0
 17  5  1  0
 29 19  1  0
 14  9  1  0
 28 23  1  0
  1 30  1  0
  1 31  1  0
  1 32  1  0
  2 33  1  0
  2 34  1  0
  3 35  1  6
  4 36  1  0
  4 37  1  0
  6 38  1  0
  7 39  1  0
 10 40  1  0
 11 41  1  0
 12 42  1  0
 13 43  1  0
 15 44  1  0
 15 45  1  0
 16 46  1  0
 17 47  1  0
 18 48  1  0
 18 49  1  0
 24 50  1  0
 25 51  1  0
 26 52  1  0
 27 53  1  0
M  CHG  2   3   1  29  -1
M  END
>  <UniqueID>  (74) 
70

>  <SMILES>  (74) 
CC[N@H+](Cc1ccc(-c2ccccc2N)cc1)Cc1nc(=O)c2ccccc2[n-]1

>  <Energy>  (74) 
71.78233427314882

>  <Genealogy>  (74) 
CC[NH+](Cc1ccc(-c2ccccc2N)cc1)Cc1nc(=O)c2ccccc2[n-]1 (protonated)
CC[N@H+](Cc1ccc(-c2ccccc2N)cc1)Cc1nc(=O)c2ccccc2[n-]1 (chirality)
CC[N@H+](Cc1ccc(-c2ccccc2N)cc1)Cc1nc(=O)c2ccccc2[n-]1 (3D coordinates assigned)
CC[N@H+](Cc1ccc(-c2ccccc2N)cc1)Cc1nc(=O)c2ccccc2[n-]1 (optimized conformer: 71.78233427314882 kcal/mol)

>  <smiles>  (74) 
CCN(Cc1ccc(-c2ccccc2N)cc1)Cc1nc(=O)c2ccccc2[nH]1

>  <score_type>  (74) 
oracle

>  <origin>  (74) 
adg

>  <m_score__min__energy>  (74) 
-8.9499999999999993

>  <m_primary>  (74) 
energy

$$$$
74:0
     RDKit          3D

 39 42  0  0  0  0  0  0  0  0999 V2000
   59.7908   29.5688   49.1915 H   0  0  0  0  0  0  0  0  0  0  0  0
   59.1930   30.2310   49.8350 C   0  0  0  0  0  0  0  0  0  0  0  0
   58.1420   29.7350   50.5380 N   0  0  0  0  0  0  0  0  0  0  0  0
   57.3960   30.5300   51.3550 C   0  0  0  0  0  0  0  0  0  0  0  0
   56.3890   30.0510   52.0240 N   0  0  0  0  0  0  0  0  0  0  0  0
   55.1940   30.8090   52.3970 C   0  0  0  0  0  0  0  0  0  0  0  0
   55.3551   31.8726   52.1671 H   0  0  0  0  0  0  0  0  0  0  0  0
   55.0119   30.6736   53.4733 H   0  0  0  0  0  0  0  0  0  0  0  0
   53.9750   30.3100   51.6280 C   0  0  0  0  0  0  0  0  0  0  0  0
   53.1980   29.9920   52.3388 H   0  0  0  0  0  0  0  0  0  0  0  0
   53.5837   31.1203   50.9953 H   0  0  0  0  0  0  0  0  0  0  0  0
   54.2642   29.4579   50.9953 H   0  0  0  0  0  0  0  0  0  0  0  0
   57.7260   31.8830   51.4720 C   0  0  0  0  0  0  0  0  0  0  0  0
   57.1380   32.5405   52.1293 H   0  0  0  0  0  0  0  0  0  0  0  0
   58.7780   32.3830   50.7690 N   0  0  0  0  0  0  0  0  0  0  0  0
   59.0240   33.3930   50.8840 H   0  0  0  0  0  0  0  0  0  0  0  0
   59.5100   31.5900   49.9350 C   0  0  0  0  0  0  0  0  0  0  0  0
   60.6680   32.1360   49.2070 C   0  0  0  0  0  0  0  0  0  0  0  0
   61.9240   31.9380   49.7060 N   0  0  0  0  0  0  0  0  0  0  0  0
   63.0350   32.4760   49.1130 C   0  0  0  0  0  0  0  0  0  0  0  0
   64.3790   32.2600   49.7230 C   0  0  0  0  0  0  0  0  0  0  0  0
   64.2906   32.2742   50.8194 H   0  0  0  0  0  0  0  0  0  0  0  0
   64.7762   31.2865   49.3997 H   0  0  0  0  0  0  0  0  0  0  0  0
   65.0613   33.0600   49.3997 H   0  0  0  0  0  0  0  0  0  0  0  0
   62.9110   33.2640   48.0040 N   0  0  0  0  0  0  0  0  0  0  0  0
   61.6760   33.4690   47.4890 C   0  0  0  0  0  0  0  0  0  0  0  0
   60.5500   32.9110   48.0480 C   0  0  0  0  0  0  0  0  0  0  0  0
   59.5040   33.2670   47.2110 C   0  0  0  0  0  0  0  0  0  0  0  0
   58.1480   32.9280   47.1910 C   0  0  0  0  0  0  0  0  0  0  0  0
   57.7143   32.2768   47.9642 H   0  0  0  0  0  0  0  0  0  0  0  0
   57.3560   33.4460   46.1510 C   0  0  0  0  0  0  0  0  0  0  0  0
   56.2816   33.2128   46.1167 H   0  0  0  0  0  0  0  0  0  0  0  0
   57.9260   34.2620   45.1510 C   0  0  0  0  0  0  0  0  0  0  0  0
   57.2910   34.6657   44.3486 H   0  0  0  0  0  0  0  0  0  0  0  0
   59.2980   34.5630   45.1720 C   0  0  0  0  0  0  0  0  0  0  0  0
   59.7527   35.1881   44.3894 H   0  0  0  0  0  0  0  0  0  0  0  0
   60.0660   34.0460   46.2140 C   0  0  0  0  0  0  0  0  0  0  0  0
   61.4000   34.1780   46.3760 N   0  0  0  0  0  0  0  0  0  0  0  0
   62.0740   34.6840   45.7590 H   0  0  0  0  0  0  0  0  0  0  0  0
  1  2  1  0
  2  3  1  0
  3  4  1  0
  4  5  2  0
  5  6  1  0
  6  7  1  0
  6  8  1  0
  6  9  1  0
  9 10  1  0
  9 11  1  0
  9 12  1  0
  4 13  1  0
 13 14  1  0
 13 15  2  0
 15 16  1  0
 15 17  1  0
 17 18  1  0
 18 19  2  0
 19 20  1  0
 20 21  1  0
 21 22  1  0
 21 23  1  0
 21 24  1  0
 20 25  2  0
 25 26  1  0
 26 27  2  0
 27 28  1  0
 28 29  2  0
 29 30  1  0
 29 31  1  0
 31 32  1  0
 31 33  2  0
 33 34  1  0
 33 35  1  0
 35 36  1  0
 35 37  2  0
 37 38  1  0
 38 39  1  0
 17  2  2  0
 27 18  1  0
 37 28  1  0
 38 26  1  0
M  CHG  2   3  -1  15   1
M  END
>  <UniqueID>  (75) 
71

>  <SMILES>  (75) 
CC/N=c1/c[nH+]c(-c2nc(C)nc3[nH]c4ccccc4c23)c[n-]1

>  <Energy>  (75) 
90.19604372742296

>  <Genealogy>  (75) 
CCN=c1c[nH+]c(-c2nc(C)nc3[nH]c4ccccc4c23)c[n-]1 (protonated)
CC/N=c1/c[nH+]c(-c2nc(C)nc3[nH]c4ccccc4c23)c[n-]1 (cis-trans isomerization)
CC/N=c1/c[nH+]c(-c2nc(C)nc3[nH]c4ccccc4c23)c[n-]1 (3D coordinates assigned)
CC/N=c1/c[nH+]c(-c2nc(C)nc3[nH]c4ccccc4c23)c[n-]1 (optimized conformer: 90.19604372742296 kcal/mol)

>  <smiles>  (75) 
CCN=c1cnc(-c2nc(C)nc3[nH]c4ccccc4c23)c[nH]1

>  <score_type>  (75) 
oracle

>  <origin>  (75) 
adg

>  <m_score__min__energy>  (75) 
-6.8200000000000003

>  <m_primary>  (75) 
energy

$$$$
75:0
     RDKit          3D

 34 35  0  0  0  0  0  0  0  0999 V2000
   57.4380   31.9700   42.3640 C   0  0  0  0  0  0  0  0  0  0  0  0
   58.0890   32.2250   43.7240 C   0  0  1  0  0  0  0  0  0  0  0  0
   57.4040   33.7320   44.5100 S   0  0  0  0  0  0  0  0  0  0  0  0
   58.5900   33.7860   45.8560 C   0  0  0  0  0  0  0  0  0  0  0  0
   59.9140   34.1740   45.6080 C   0  0  0  0  0  0  0  0  0  0  0  0
   60.8410   34.2060   46.6540 C   0  0  0  0  0  0  0  0  0  0  0  0
   60.4510   33.8430   47.9490 C   0  0  0  0  0  0  0  0  0  0  0  0
   61.6150   33.8830   49.2600 Cl  0  0  0  0  0  0  0  0  0  0  0  0
   59.1330   33.4450   48.1950 C   0  0  0  0  0  0  0  0  0  0  0  0
   58.2040   33.4120   47.1490 C   0  0  0  0  0  0  0  0  0  0  0  0
   57.8780   31.0460   44.6340 C   0  0  0  0  0  0  0  0  0  0  0  0
   56.7020   30.6590   44.8720 O   0  0  0  0  0  0  0  0  0  0  0  0
   58.9960   30.4060   45.2730 N   0  0  0  0  0  0  0  0  0  0  0  0
   58.8890   29.1820   46.0230 C   0  0  0  0  0  0  0  0  0  0  0  0
   57.9780   28.1830   45.6310 C   0  0  0  0  0  0  0  0  0  0  0  0
   57.8930   26.9830   46.3390 C   0  0  0  0  0  0  0  0  0  0  0  0
   58.7220   26.7590   47.4390 C   0  0  0  0  0  0  0  0  0  0  0  0
   59.6430   27.7330   47.8310 C   0  0  0  0  0  0  0  0  0  0  0  0
   59.7370   28.9410   47.1260 C   0  0  0  0  0  0  0  0  0  0  0  0
   60.6890   29.9320   47.5650 C   0  0  0  0  0  0  0  0  0  0  0  0
   61.4520   30.7270   47.9180 N   0  0  0  0  0  0  0  0  0  0  0  0
   56.4231   31.5725   42.5121 H   0  0  0  0  0  0  0  0  0  0  0  0
   57.3837   32.9133   41.8008 H   0  0  0  0  0  0  0  0  0  0  0  0
   58.0389   31.2408   41.8008 H   0  0  0  0  0  0  0  0  0  0  0  0
   59.1665   32.3720   43.5583 H   0  0  0  0  0  0  0  0  0  0  0  0
   60.2236   34.4534   44.5901 H   0  0  0  0  0  0  0  0  0  0  0  0
   61.8781   34.5167   46.4595 H   0  0  0  0  0  0  0  0  0  0  0  0
   58.8264   33.1577   49.2116 H   0  0  0  0  0  0  0  0  0  0  0  0
   57.1696   33.0920   47.3427 H   0  0  0  0  0  0  0  0  0  0  0  0
   59.9230   30.8870   45.2390 H   0  0  0  0  0  0  0  0  0  0  0  0
   57.3277   28.3494   44.7595 H   0  0  0  0  0  0  0  0  0  0  0  0
   57.1714   26.2127   46.0294 H   0  0  0  0  0  0  0  0  0  0  0  0
   58.6500   25.8143   47.9979 H   0  0  0  0  0  0  0  0  0  0  0  0
   60.2973   27.5515   48.6964 H   0  0  0  0  0  0  0  0  0  0  0  0
  1  2  1  0
  2  3  1  0
  3  4  1  0
  4  5  2  0
  5  6  1  0
  6  7  2  0
  7  8  1  0
  7  9  1  0
  9 10  2  0
  2 11  1  0
 11 12  2  0
 11 13  1  0
 13 14  1  0
 14 15  2  0
 15 16  1  0
 16 17  2  0
 17 18  1  0
 18 19  2  0
 19 20  1  0
 20 21  3  0
 10  4  1  0
 19 14  1  0
  1 22  1  0
  1 23  1  0
  1 24  1  0
  2 25  1  6
  5 26  1  0
  6 27  1  0
  9 28  1  0
 10 29  1  0
 13 30  1  0
 15 31  1  0
 16 32  1  0
 17 33  1  0
 18 34  1  0
M  END
>  <UniqueID>  (76) 
72

>  <SMILES>  (76) 
C[C@@H](Sc1ccc(Cl)cc1)C(=O)Nc1ccccc1C#N

>  <Energy>  (76) 
31.770528917467487

>  <Genealogy>  (76) 
C[C@@H](Sc1ccc(Cl)cc1)C(=O)Nc1ccccc1C#N (chirality)
C[C@@H](Sc1ccc(Cl)cc1)C(=O)Nc1ccccc1C#N (3D coordinates assigned)
C[C@@H](Sc1ccc(Cl)cc1)C(=O)Nc1ccccc1C#N (optimized conformer: 31.770528917467487 kcal/mol)

>  <smiles>  (76) 
CC(Sc1ccc(Cl)cc1)C(=O)Nc1ccccc1C#N

>  <score_type>  (76) 
oracle

>  <origin>  (76) 
adg

>  <m_score__min__energy>  (76) 
-7.9699999999999998

>  <m_primary>  (76) 
energy

$$$$
76:0
     RDKit          3D

 45 47  0  0  1  0  0  0  0  0999 V2000
   58.9030   30.7840   48.6760 C   0  0  0  0  0  0  0  0  0  0  0  0
   59.1650   29.8170   47.5750 C   0  0  0  0  0  0  0  0  0  0  0  0
   60.0700   28.7920   47.8600 C   0  0  0  0  0  0  0  0  0  0  0  0
   60.3370   27.8790   46.8620 C   0  0  0  0  0  0  0  0  0  0  0  0
   59.7360   27.9570   45.6070 C   0  0  0  0  0  0  0  0  0  0  0  0
   58.8490   28.9990   45.3920 C   0  0  0  0  0  0  0  0  0  0  0  0
   58.2520   29.1360   44.2460 N   0  0  0  0  0  0  0  0  0  0  0  0
   56.9140   29.6110   44.1760 C   0  0  0  0  0  0  0  0  0  0  0  0
   56.2410   29.6360   45.2330 O   0  0  0  0  0  0  0  0  0  0  0  0
   56.2830   30.0760   42.9100 C   0  0  0  0  0  0  0  0  0  0  0  0
   57.1830   31.5670   42.4110 S   0  0  0  0  0  0  0  0  0  0  0  0
   57.7810   32.4830   43.7930 C   0  0  0  0  0  0  0  0  0  0  0  0
   57.3580   32.2440   45.0350 N   0  0  0  0  0  0  0  0  0  0  0  0
   57.8470   32.9750   46.0740 C   0  0  0  0  0  0  0  0  0  0  0  0
   57.4220   32.7160   47.2280 O   0  0  0  0  0  0  0  0  0  0  0  0
   58.7800   33.9730   45.8960 C   0  0  0  0  0  0  0  0  0  0  0  0
   59.3390   34.7900   46.9980 C   0  0  0  0  0  0  0  0  0  0  0  0
   60.6110   34.2640   47.5430 C   0  0  0  0  0  0  0  0  0  0  0  0
   60.7690   34.1740   48.9290 C   0  0  0  0  0  0  0  0  0  0  0  0
   61.9480   33.6820   49.4780 C   0  0  0  0  0  0  0  0  0  0  0  0
   62.9800   33.2760   48.6560 C   0  0  0  0  0  0  0  0  0  0  0  0
   62.8490   33.3550   47.2850 C   0  0  0  0  0  0  0  0  0  0  0  0
   63.8870   32.9480   46.4290 O   0  0  0  0  0  0  0  0  0  0  0  0
   61.6700   33.8470   46.7670 C   0  0  0  0  0  0  0  0  0  0  0  0
   59.1910   34.1860   44.5750 C   0  0  0  0  0  0  0  0  0  0  0  0
   58.7030   33.4580   43.5560 N   0  0  0  0  0  0  0  0  0  0  0  0
   58.5710   29.9130   46.3640 N   0  0  0  0  0  0  0  0  0  0  0  0
   59.0391   30.2818   49.6452 H   0  0  0  0  0  0  0  0  0  0  0  0
   59.6051   31.6272   48.5982 H   0  0  0  0  0  0  0  0  0  0  0  0
   57.8713   31.1575   48.5982 H   0  0  0  0  0  0  0  0  0  0  0  0
   60.5525   28.7159   48.8456 H   0  0  0  0  0  0  0  0  0  0  0  0
   61.0469   27.0631   47.0627 H   0  0  0  0  0  0  0  0  0  0  0  0
   59.9569   27.2214   44.8196 H   0  0  0  0  0  0  0  0  0  0  0  0
   56.3699   29.3011   42.1341 H   0  0  0  0  0  0  0  0  0  0  0  0
   55.2119   30.2836   43.0499 H   0  0  0  0  0  0  0  0  0  0  0  0
   59.5176   35.8074   46.6199 H   0  0  0  0  0  0  0  0  0  0  0  0
   58.6054   34.7694   47.8174 H   0  0  0  0  0  0  0  0  0  0  0  0
   59.9524   34.4956   49.5921 H   0  0  0  0  0  0  0  0  0  0  0  0
   62.0586   33.6161   50.5704 H   0  0  0  0  0  0  0  0  0  0  0  0
   63.9105   32.8879   49.0959 H   0  0  0  0  0  0  0  0  0  0  0  0
   64.6600   32.4570   46.8800 H   0  0  0  0  0  0  0  0  0  0  0  0
   61.5693   33.9101   45.6734 H   0  0  0  0  0  0  0  0  0  0  0  0
   59.9333   34.9702   44.3652 H   0  0  0  0  0  0  0  0  0  0  0  0
   59.0310   33.6400   42.5640 H   0  0  0  0  0  0  0  0  0  0  0  0
   57.9160   30.6940   46.2230 H   0  0  0  0  0  0  0  0  0  0  0  0
  1  2  1  0
  2  3  2  0
  3  4  1  0
  4  5  2  0
  5  6  1  0
  6  7  2  0
  7  8  1  0
  8  9  2  0
  8 10  1  0
 10 11  1  0
 11 12  1  0
 12 13  2  0
 13 14  1  0
 14 15  2  0
 14 16  1  0
 16 17  1  0
 17 18  1  0
 18 19  2  0
 19 20  1  0
 20 21  2  0
 21 22  1  0
 22 23  1  0
 22 24  2  0
 16 25  2  0
 25 26  1  0
  6 27  1  0
 27  2  1  0
 26 12  1  0
 24 18  1  0
  1 28  1  0
  1 29  1  0
  1 30  1  0
  3 31  1  0
  4 32  1  0
  5 33  1  0
 10 34  1  0
 10 35  1  0
 17 36  1  0
 17 37  1  0
 19 38  1  0
 20 39  1  0
 21 40  1  0
 23 41  1  0
 24 42  1  0
 25 43  1  0
 26 44  1  0
 27 45  1  0
M  END
>  <smiles>  (77) 
Cc1cccc(=NC(=O)CSc2nc(=O)c(Cc3cccc(O)c3)c[nH]2)[nH]1

>  <score_type>  (77) 
oracle

>  <origin>  (77) 
adg

>  <m_score__min__energy>  (77) 
-9.25

>  <m_primary>  (77) 
energy

$$$$
77:0
     RDKit          3D

 59 62  0  0  0  0  0  0  0  0999 V2000
   57.8300   27.2500   46.1000 C   0  0  0  0  0  0  0  0  0  0  0  0
   56.9550   28.3630   45.9560 O   0  0  0  0  0  0  0  0  0  0  0  0
   57.0680   29.3420   44.9560 C   0  0  0  0  0  0  0  0  0  0  0  0
   56.2200   29.3600   43.8300 C   0  0  0  0  0  0  0  0  0  0  0  0
   56.3800   30.3350   42.8410 C   0  0  0  0  0  0  0  0  0  0  0  0
   57.3800   31.2990   42.9640 C   0  0  0  0  0  0  0  0  0  0  0  0
   58.2240   31.2940   44.0770 C   0  0  0  0  0  0  0  0  0  0  0  0
   58.0710   30.3230   45.0790 C   0  0  0  0  0  0  0  0  0  0  0  0
   58.9380   30.3290   46.2260 N   0  0  0  0  0  0  0  0  0  0  0  0
   60.3320   29.9090   46.0880 C   0  0  0  0  0  0  0  0  0  0  0  0
   60.7680   29.1950   47.3640 C   0  0  0  0  0  0  0  0  0  0  0  0
   60.5220   30.0270   48.5580 N   0  0  0  0  0  0  0  0  0  0  0  0
   61.6260   30.9470   48.9460 C   0  0  1  0  0  0  0  0  0  0  0  0
   62.4980   30.4850   50.1420 C   0  0  0  0  0  0  0  0  0  0  0  0
   63.8300   31.2660   50.2310 C   0  0  0  0  0  0  0  0  0  0  0  0
   63.7920   32.5740   49.4290 C   0  0  0  0  0  0  0  0  0  0  0  0
   63.4950   32.3350   47.9890 N   0  0  2  0  0  0  0  0  0  0  0  0
   63.1280   33.5880   47.2740 C   0  0  0  0  0  0  0  0  0  0  0  0
   61.6550   33.9520   47.3580 C   0  0  0  0  0  0  0  0  0  0  0  0
   61.0600   34.2200   48.6050 C   0  0  0  0  0  0  0  0  0  0  0  0
   59.7010   34.5340   48.6890 C   0  0  0  0  0  0  0  0  0  0  0  0
   58.9260   34.6020   47.5290 C   0  0  0  0  0  0  0  0  0  0  0  0
   59.5110   34.3720   46.2820 C   0  0  0  0  0  0  0  0  0  0  0  0
   58.5390   34.4710   44.8250 Cl  0  0  0  0  0  0  0  0  0  0  0  0
   60.8730   34.0640   46.1940 C   0  0  0  0  0  0  0  0  0  0  0  0
   62.5380   31.2170   47.7370 C   0  0  0  0  0  0  0  0  0  0  0  0
   59.1210   30.4850   48.6890 C   0  0  0  0  0  0  0  0  0  0  0  0
   58.5740   31.1260   47.3990 C   0  0  0  0  0  0  0  0  0  0  0  0
   57.9906   27.0457   47.1689 H   0  0  0  0  0  0  0  0  0  0  0  0
   57.3818   26.3669   45.6212 H   0  0  0  0  0  0  0  0  0  0  0  0
   58.7940   27.4771   45.6212 H   0  0  0  0  0  0  0  0  0  0  0  0
   55.4283   28.6030   43.7291 H   0  0  0  0  0  0  0  0  0  0  0  0
   55.7158   30.3417   41.9642 H   0  0  0  0  0  0  0  0  0  0  0  0
   57.5043   32.0643   42.1837 H   0  0  0  0  0  0  0  0  0  0  0  0
   59.0128   32.0551   44.1687 H   0  0  0  0  0  0  0  0  0  0  0  0
   60.4273   29.2245   45.2322 H   0  0  0  0  0  0  0  0  0  0  0  0
   60.9692   30.7899   45.9206 H   0  0  0  0  0  0  0  0  0  0  0  0
   60.2030   28.2561   47.4595 H   0  0  0  0  0  0  0  0  0  0  0  0
   61.8478   28.9960   47.2974 H   0  0  0  0  0  0  0  0  0  0  0  0
   61.1158   31.8605   49.2856 H   0  0  0  0  0  0  0  0  0  0  0  0
   61.9333   30.6408   51.0730 H   0  0  0  0  0  0  0  0  0  0  0  0
   62.7394   29.4222   49.9928 H   0  0  0  0  0  0  0  0  0  0  0  0
   64.0312   31.5035   51.2860 H   0  0  0  0  0  0  0  0  0  0  0  0
   64.6213   30.6321   49.8044 H   0  0  0  0  0  0  0  0  0  0  0  0
   63.0123   33.2262   49.8493 H   0  0  0  0  0  0  0  0  0  0  0  0
   64.7835   33.0452   49.4986 H   0  0  0  0  0  0  0  0  0  0  0  0
   64.4040   32.0360   47.5590 H   0  0  0  0  0  0  0  0  0  0  0  0
   63.7115   34.4141   47.7066 H   0  0  0  0  0  0  0  0  0  0  0  0
   63.3484   33.4175   46.2099 H   0  0  0  0  0  0  0  0  0  0  0  0
   61.6692   34.1820   49.5201 H   0  0  0  0  0  0  0  0  0  0  0  0
   59.2412   34.7278   49.6693 H   0  0  0  0  0  0  0  0  0  0  0  0
   57.8536   34.8370   47.5978 H   0  0  0  0  0  0  0  0  0  0  0  0
   61.3354   33.9084   45.2081 H   0  0  0  0  0  0  0  0  0  0  0  0
   61.9107   31.4763   46.8714 H   0  0  0  0  0  0  0  0  0  0  0  0
   63.1256   30.3065   47.5482 H   0  0  0  0  0  0  0  0  0  0  0  0
   58.4918   29.6197   48.9445 H   0  0  0  0  0  0  0  0  0  0  0  0
   59.0986   31.2551   49.4741 H   0  0  0  0  0  0  0  0  0  0  0  0
   57.4779   31.1900   47.4652 H   0  0  0  0  0  0  0  0  0  0  0  0
   59.0111   32.1297   47.2920 H   0  0  0  0  0  0  0  0  0  0  0  0
  1  2  1  0
  2  3  1  0
  3  4  2  0
  4  5  1  0
  5  6  2  0
  6  7  1  0
  7  8  2  0
  8  9  1  0
  9 10  1  0
 10 11  1  0
 11 12  1  0
 12 13  1  0
 13 14  1  0
 14 15  1  0
 15 16  1  0
 16 17  1  0
 17 18  1  0
 18 19  1  0
 19 20  2  0
 20 21  1  0
 21 22  2  0
 22 23  1  0
 23 24  1  0
 23 25  2  0
 17 26  1  0
 12 27  1  0
 27 28  1  0
  8  3  1  0
 28  9  1  0
 26 13  1  0
 25 19  1  0
  1 29  1  0
  1 30  1  0
  1 31  1  0
  4 32  1  0
  5 33  1  0
  6 34  1  0
  7 35  1  0
 10 36  1  0
 10 37  1  0
 11 38  1  0
 11 39  1  0
 13 40  1  1
 14 41  1  0
 14 42  1  0
 15 43  1  0
 15 44  1  0
 16 45  1  0
 16 46  1  0
 17 47  1  6
 18 48  1  0
 18 49  1  0
 20 50  1  0
 21 51  1  0
 22 52  1  0
 25 53  1  0
 26 54  1  0
 26 55  1  0
 27 56  1  0
 27 57  1  0
 28 58  1  0
 28 59  1  0
M  CHG  1  17   1
M  END
>  <UniqueID>  (78) 
73

>  <SMILES>  (78) 
COc1ccccc1N1CCN([C@H]2CCC[N@H+](Cc3cccc(Cl)c3)C2)CC1

>  <Energy>  (78) 
88.32833811739533

>  <Genealogy>  (78) 
COc1ccccc1N1CCN(C2CCC[NH+](Cc3cccc(Cl)c3)C2)CC1 (protonated)
COc1ccccc1N1CCN([C@H]2CCC[N@H+](Cc3cccc(Cl)c3)C2)CC1 (chirality)
COc1ccccc1N1CCN([C@H]2CCC[N@H+](Cc3cccc(Cl)c3)C2)CC1 (3D coordinates assigned)
COc1ccccc1N1CCN([C@H]2CCC[N@H+](Cc3cccc(Cl)c3)C2)CC1 (nonaromatic ring conformer: 88.32833811739533 kcal/mol)

>  <smiles>  (78) 
COc1ccccc1N1CCN(C2CCCN(Cc3cccc(Cl)c3)C2)CC1

>  <score_type>  (78) 
oracle

>  <origin>  (78) 
adg

>  <m_score__min__energy>  (78) 
-7.5

>  <m_primary>  (78) 
energy

$$$$
78:0
     RDKit          3D

 46 48  0  0  0  0  0  0  0  0999 V2000
   56.2450   20.0590   44.7490 C   0  0  0  0  0  0  0  0  0  0  0  0
   56.7230   20.9550   43.6110 C   0  0  0  0  0  0  0  0  0  0  0  0
   56.8850   22.3750   44.0840 C   0  0  0  0  0  0  0  0  0  0  0  0
   56.9520   22.6610   45.4560 C   0  0  0  0  0  0  0  0  0  0  0  0
   57.0640   23.9830   45.8970 C   0  0  0  0  0  0  0  0  0  0  0  0
   57.0920   25.0400   44.9740 C   0  0  0  0  0  0  0  0  0  0  0  0
   57.2130   26.4390   45.4470 C   0  0  0  0  0  0  0  0  0  0  0  0
   56.6980   26.7640   46.5490 O   0  0  0  0  0  0  0  0  0  0  0  0
   57.9440   27.4270   44.7120 N   0  0  0  0  0  0  0  0  0  0  0  0
   58.4760   28.6410   45.2590 C   0  0  0  0  0  0  0  0  0  0  0  0
   60.0360   28.8370   45.8720 S   0  0  0  0  0  0  0  0  0  0  0  0
   59.8530   30.4660   46.2310 C   0  0  0  0  0  0  0  0  0  0  0  0
   58.5850   30.8870   45.8640 C   0  0  0  0  0  0  0  0  0  0  0  0
   57.7890   29.8530   45.3210 C   0  0  0  0  0  0  0  0  0  0  0  0
   56.3940   30.0090   44.8560 C   0  0  0  0  0  0  0  0  0  0  0  0
   55.5120   28.8880   44.7770 N   0  0  0  0  0  0  0  0  0  0  0  0
   55.9820   31.1420   44.4900 O   0  0  0  0  0  0  0  0  0  0  0  0
   58.1790   32.3170   46.0540 C   0  0  0  0  0  0  0  0  0  0  0  0
   59.4030   33.2360   45.9660 C   0  0  0  0  0  0  0  0  0  0  0  0
   60.4940   32.7690   46.8490 N   0  0  0  0  0  0  0  0  0  0  0  0
   61.3590   33.7110   47.5240 C   0  0  0  0  0  0  0  0  0  0  0  0
   62.8400   33.7410   47.2910 C   0  0  0  0  0  0  0  0  0  0  0  0
   60.8660   34.5470   48.3300 O   0  0  0  0  0  0  0  0  0  0  0  0
   60.8890   31.3460   46.8580 C   0  0  0  0  0  0  0  0  0  0  0  0
   57.0330   24.7500   43.6000 C   0  0  0  0  0  0  0  0  0  0  0  0
   56.9200   23.4290   43.1600 C   0  0  0  0  0  0  0  0  0  0  0  0
   56.4943   20.5263   45.7131 H   0  0  0  0  0  0  0  0  0  0  0  0
   55.1555   19.9250   44.6773 H   0  0  0  0  0  0  0  0  0  0  0  0
   56.7404   19.0795   44.6773 H   0  0  0  0  0  0  0  0  0  0  0  0
   57.6908   20.5847   43.2420 H   0  0  0  0  0  0  0  0  0  0  0  0
   55.9740   20.9337   42.8056 H   0  0  0  0  0  0  0  0  0  0  0  0
   56.9162   21.8410   46.1883 H   0  0  0  0  0  0  0  0  0  0  0  0
   57.1306   24.1961   46.9741 H   0  0  0  0  0  0  0  0  0  0  0  0
   54.5170   29.0240   44.4960 H   0  0  0  0  0  0  0  0  0  0  0  0
   55.8650   27.9140   44.9070 H   0  0  0  0  0  0  0  0  0  0  0  0
   57.4588   32.5965   45.2709 H   0  0  0  0  0  0  0  0  0  0  0  0
   57.7195   32.4286   47.0472 H   0  0  0  0  0  0  0  0  0  0  0  0
   59.7650   33.2512   44.9274 H   0  0  0  0  0  0  0  0  0  0  0  0
   59.1031   34.2435   46.2900 H   0  0  0  0  0  0  0  0  0  0  0  0
   63.3632   33.7516   48.2585 H   0  0  0  0  0  0  0  0  0  0  0  0
   63.1398   32.8487   46.7218 H   0  0  0  0  0  0  0  0  0  0  0  0
   63.1034   34.6447   46.7218 H   0  0  0  0  0  0  0  0  0  0  0  0
   61.8309   31.2366   46.3004 H   0  0  0  0  0  0  0  0  0  0  0  0
   61.0053   31.0352   47.9067 H   0  0  0  0  0  0  0  0  0  0  0  0
   57.0761   25.5685   42.8664 H   0  0  0  0  0  0  0  0  0  0  0  0
   56.8581   23.2145   42.0829 H   0  0  0  0  0  0  0  0  0  0  0  0
  1  2  1  0
  2  3  1  0
  3  4  2  0
  4  5  1  0
  5  6  2  0
  6  7  1  0
  7  8  2  0
  7  9  1  0
  9 10  1  0
 10 11  1  0
 11 12  1  0
 12 13  2  0
 13 14  1  0
 14 15  1  0
 15 16  1  0
 15 17  2  0
 13 18  1  0
 18 19  1  0
 19 20  1  0
 20 21  1  0
 21 22  1  0
 21 23  2  0
 20 24  1  0
  6 25  1  0
 25 26  2  0
 26  3  1  0
 14 10  2  0
 24 12  1  0
  1 27  1  0
  1 28  1  0
  1 29  1  0
  2 30  1  0
  2 31  1  0
  4 32  1  0
  5 33  1  0
 16 34  1  0
 16 35  1  0
 18 36  1  0
 18 37  1  0
 19 38  1  0
 19 39  1  0
 22 40  1  0
 22 41  1  0
 22 42  1  0
 24 43  1  0
 24 44  1  0
 25 45  1  0
 26 46  1  0
M  CHG  1   9  -1
M  END
>  <UniqueID>  (79) 
74

>  <SMILES>  (79) 
CCc1ccc(C(=O)[N-]c2sc3c(c2C(N)=O)CCN(C(C)=O)C3)cc1

>  <Energy>  (79) 
80.96811568268423

>  <Genealogy>  (79) 
CCc1ccc(C(=O)[N-]c2sc3c(c2C(N)=O)CCN(C(C)=O)C3)cc1 (protonated)
CCc1ccc(C(=O)[N-]c2sc3c(c2C(N)=O)CCN(C(C)=O)C3)cc1 (3D coordinates assigned)
CCc1ccc(C(=O)[N-]c2sc3c(c2C(N)=O)CCN(C(C)=O)C3)cc1 (nonaromatic ring conformer: 80.96811568268423 kcal/mol)

>  <smiles>  (79) 
CCc1ccc(C(=O)Nc2sc3c(c2C(N)=O)CCN(C(C)=O)C3)cc1

>  <score_type>  (79) 
oracle

>  <origin>  (79) 
adg

>  <m_score__min__energy>  (79) 
-8.7899999999999991

>  <m_primary>  (79) 
energy

$$$$
79:0
     RDKit          3D

 47 49  0  0  0  0  0  0  0  0999 V2000
   55.9030   30.8490   44.7150 O   0  0  0  0  0  0  0  0  0  0  0  0
   57.1550   30.7450   44.8310 C   0  0  0  0  0  0  0  0  0  0  0  0
   57.9290   30.0430   43.7510 C   0  0  0  0  0  0  0  0  0  0  0  0
   57.5570   28.2550   43.7480 S   0  0  0  0  0  0  0  0  0  0  0  0
   58.3980   27.9200   45.3050 C   0  0  0  0  0  0  0  0  0  0  0  0
   59.6520   28.4200   45.4660 N   0  0  0  0  0  0  0  0  0  0  0  0
   60.3490   28.2760   46.6240 C   0  0  0  0  0  0  0  0  0  0  0  0
   59.7800   27.5970   47.6980 C   0  0  0  0  0  0  0  0  0  0  0  0
   58.5010   27.0580   47.5650 C   0  0  0  0  0  0  0  0  0  0  0  0
   57.7890   27.1990   46.3620 C   0  0  0  0  0  0  0  0  0  0  0  0
   56.4430   26.5870   46.2460 C   0  0  0  0  0  0  0  0  0  0  0  0
   55.5240   27.1920   45.6340 O   0  0  0  0  0  0  0  0  0  0  0  0
   56.1620   25.3570   46.8300 O   0  0  0  0  0  0  0  0  0  0  0  0
   57.7710   31.1800   46.0480 N   0  0  0  0  0  0  0  0  0  0  0  0
   58.6200   32.3230   46.2090 C   0  0  0  0  0  0  0  0  0  0  0  0
   59.9680   32.1850   46.5810 C   0  0  0  0  0  0  0  0  0  0  0  0
   60.7960   33.3080   46.6830 C   0  0  0  0  0  0  0  0  0  0  0  0
   62.4940   33.1240   47.1200 S   0  0  0  0  0  0  0  0  0  0  0  0
   63.3510   33.8160   46.0970 O   0  0  0  0  0  0  0  0  0  0  0  0
   62.8260   31.6590   47.1340 O   0  0  0  0  0  0  0  0  0  0  0  0
   62.7740   33.8200   48.7040 N   0  0  0  0  0  0  0  0  0  0  0  0
   63.8870   33.1500   49.4140 C   0  0  0  0  0  0  0  0  0  0  0  0
   63.4020   32.1240   50.4530 C   0  0  0  0  0  0  0  0  0  0  0  0
   62.1990   31.5270   50.0250 O   0  0  0  0  0  0  0  0  0  0  0  0
   61.1440   32.4730   50.0620 C   0  0  0  0  0  0  0  0  0  0  0  0
   61.5380   33.8630   49.5060 C   0  0  0  0  0  0  0  0  0  0  0  0
   60.2730   34.5790   46.4140 C   0  0  0  0  0  0  0  0  0  0  0  0
   58.9440   34.7220   46.0130 C   0  0  0  0  0  0  0  0  0  0  0  0
   58.1200   33.5940   45.8930 C   0  0  0  0  0  0  0  0  0  0  0  0
   56.8010   33.7340   45.4620 O   0  0  0  0  0  0  0  0  0  0  0  0
   57.6556   30.4703   42.7749 H   0  0  0  0  0  0  0  0  0  0  0  0
   59.0039   30.1802   43.9402 H   0  0  0  0  0  0  0  0  0  0  0  0
   61.3619   28.6957   46.7125 H   0  0  0  0  0  0  0  0  0  0  0  0
   60.3339   27.4869   48.6420 H   0  0  0  0  0  0  0  0  0  0  0  0
   58.0459   26.5182   48.4085 H   0  0  0  0  0  0  0  0  0  0  0  0
   60.3756   31.1857   46.7938 H   0  0  0  0  0  0  0  0  0  0  0  0
   64.5137   32.6308   48.6739 H   0  0  0  0  0  0  0  0  0  0  0  0
   64.4495   33.9261   49.9537 H   0  0  0  0  0  0  0  0  0  0  0  0
   64.1687   31.3454   50.5797 H   0  0  0  0  0  0  0  0  0  0  0  0
   63.2263   32.6383   51.4093 H   0  0  0  0  0  0  0  0  0  0  0  0
   60.3068   32.0838   49.4639 H   0  0  0  0  0  0  0  0  0  0  0  0
   60.8735   32.6133   51.1190 H   0  0  0  0  0  0  0  0  0  0  0  0
   60.7191   34.2347   48.8726 H   0  0  0  0  0  0  0  0  0  0  0  0
   61.7189   34.5273   50.3639 H   0  0  0  0  0  0  0  0  0  0  0  0
   60.9122   35.4680   46.5192 H   0  0  0  0  0  0  0  0  0  0  0  0
   58.5422   35.7216   45.7907 H   0  0  0  0  0  0  0  0  0  0  0  0
   56.2220   32.9320   45.2490 H   0  0  0  0  0  0  0  0  0  0  0  0
  1  2  2  0
  2  3  1  0
  3  4  1  0
  4  5  1  0
  5  6  2  0
  6  7  1  0
  7  8  2  0
  8  9  1  0
  9 10  2  0
 10 11  1  0
 11 12  2  0
 11 13  1  0
  2 14  1  0
 14 15  1  0
 15 16  2  0
 16 17  1  0
 17 18  1  0
 18 19  2  0
 18 20  2  0
 18 21  1  0
 21 22  1  0
 22 23  1  0
 23 24  1  0
 24 25  1  0
 25 26  1  0
 17 27  2  0
 27 28  1  0
 28 29  2  0
 29 30  1  0
 10  5  1  0
 29 15  1  0
 26 21  1  0
  3 31  1  0
  3 32  1  0
  7 33  1  0
  8 34  1  0
  9 35  1  0
 16 36  1  0
 22 37  1  0
 22 38  1  0
 23 39  1  0
 23 40  1  0
 25 41  1  0
 25 42  1  0
 26 43  1  0
 26 44  1  0
 27 45  1  0
 28 46  1  0
 30 47  1  0
M  CHG  2  13  -1  14  -1
M  END
>  <UniqueID>  (80) 
75

>  <SMILES>  (80) 
O=C(CSc1ncccc1C(=O)[O-])[N-]c1cc(S(=O)(=O)N2CCOCC2)ccc1O

>  <Energy>  (80) 
62.591700467065316

>  <Genealogy>  (80) 
O=C(CSc1ncccc1C(=O)[O-])[N-]c1cc(S(=O)(=O)N2CCOCC2)ccc1O (protonated)
O=C(CSc1ncccc1C(=O)[O-])[N-]c1cc(S(=O)(=O)N2CCOCC2)ccc1O (3D coordinates assigned)
O=C(CSc1ncccc1C(=O)[O-])[N-]c1cc(S(=O)(=O)N2CCOCC2)ccc1O (nonaromatic ring conformer: 62.591700467065316 kcal/mol)

>  <smiles>  (80) 
O=C(CSc1ncccc1C(=O)O)Nc1cc(S(=O)(=O)N2CCOCC2)ccc1O

>  <score_type>  (80) 
oracle

>  <origin>  (80) 
adg

>  <m_score__min__energy>  (80) 
-12.74

>  <m_primary>  (80) 
energy

$$$$
80:0
     RDKit          3D

 58 61  0  0  0  0  0  0  0  0999 V2000
   53.9460   24.7110   45.5970 C   0  0  0  0  0  0  0  0  0  0  0  0
   54.6330   25.9580   45.9250 N   0  0  0  0  0  0  0  0  0  0  0  0
   56.3570   25.7040   45.9620 S   0  0  0  0  0  0  0  0  0  0  0  0
   56.7150   24.4770   45.1670 O   0  0  0  0  0  0  0  0  0  0  0  0
   56.7810   25.5100   47.3920 O   0  0  0  0  0  0  0  0  0  0  0  0
   57.2190   27.0940   45.3040 C   0  0  0  0  0  0  0  0  0  0  0  0
   58.5240   26.9330   44.8280 C   0  0  0  0  0  0  0  0  0  0  0  0
   59.2180   28.0190   44.2870 C   0  0  0  0  0  0  0  0  0  0  0  0
   58.6080   29.2740   44.2240 C   0  0  0  0  0  0  0  0  0  0  0  0
   57.3120   29.4600   44.7190 C   0  0  0  0  0  0  0  0  0  0  0  0
   56.7010   30.7500   44.5860 N   0  0  0  0  0  0  0  0  0  0  0  0
   57.3650   31.9600   44.1960 C   0  0  0  0  0  0  0  0  0  0  0  0
   57.4040   32.2940   42.9810 O   0  0  0  0  0  0  0  0  0  0  0  0
   57.9910   32.8250   45.2220 C   0  0  0  0  0  0  0  0  0  0  0  0
   58.9560   33.7790   44.8550 C   0  0  0  0  0  0  0  0  0  0  0  0
   59.6200   34.5260   45.8300 C   0  0  0  0  0  0  0  0  0  0  0  0
   59.3340   34.3260   47.1940 C   0  0  0  0  0  0  0  0  0  0  0  0
   60.0510   34.9760   48.2100 O   0  0  0  0  0  0  0  0  0  0  0  0
   61.1650   34.4030   48.8960 C   0  0  0  0  0  0  0  0  0  0  0  0
   61.5230   33.0860   48.2680 C   0  0  0  0  0  0  0  0  0  0  0  0
   60.8310   31.9550   48.5760 N   0  0  0  0  0  0  0  0  0  0  0  0
   61.4030   30.8440   48.0600 C   0  0  0  0  0  0  0  0  0  0  0  0
   60.9060   29.5150   48.3120 N   0  0  0  0  0  0  0  0  0  0  0  0
   60.2880   28.7330   47.2320 C   0  0  0  0  0  0  0  0  0  0  0  0
   60.3990   27.2330   47.5290 C   0  0  0  0  0  0  0  0  0  0  0  0
   59.9300   26.9430   48.8300 O   0  0  0  0  0  0  0  0  0  0  0  0
   60.7850   27.5430   49.7830 C   0  0  0  0  0  0  0  0  0  0  0  0
   60.7110   29.0700   49.6980 C   0  0  0  0  0  0  0  0  0  0  0  0
   62.8100   31.2210   47.2060 S   0  0  0  0  0  0  0  0  0  0  0  0
   62.6740   32.8720   47.5050 C   0  0  0  0  0  0  0  0  0  0  0  0
   63.6770   33.9000   47.0940 C   0  0  0  0  0  0  0  0  0  0  0  0
   58.3240   33.4300   47.5560 C   0  0  0  0  0  0  0  0  0  0  0  0
   57.6660   32.6740   46.5820 C   0  0  0  0  0  0  0  0  0  0  0  0
   56.6150   28.3590   45.2490 C   0  0  0  0  0  0  0  0  0  0  0  0
   53.6612   24.1941   46.5253 H   0  0  0  0  0  0  0  0  0  0  0  0
   53.0431   24.9334   45.0094 H   0  0  0  0  0  0  0  0  0  0  0  0
   54.6164   24.0666   45.0094 H   0  0  0  0  0  0  0  0  0  0  0  0
   59.0071   25.9461   44.8796 H   0  0  0  0  0  0  0  0  0  0  0  0
   60.2432   27.8855   43.9113 H   0  0  0  0  0  0  0  0  0  0  0  0
   59.1503   30.1228   43.7819 H   0  0  0  0  0  0  0  0  0  0  0  0
   59.1897   33.9382   43.7920 H   0  0  0  0  0  0  0  0  0  0  0  0
   60.3695   35.2737   45.5313 H   0  0  0  0  0  0  0  0  0  0  0  0
   62.0253   35.0853   48.8303 H   0  0  0  0  0  0  0  0  0  0  0  0
   60.9001   34.2434   49.9516 H   0  0  0  0  0  0  0  0  0  0  0  0
   59.2264   29.0082   47.1467 H   0  0  0  0  0  0  0  0  0  0  0  0
   60.8112   28.9502   46.2891 H   0  0  0  0  0  0  0  0  0  0  0  0
   59.7978   26.6748   46.7962 H   0  0  0  0  0  0  0  0  0  0  0  0
   61.4564   26.9375   47.4614 H   0  0  0  0  0  0  0  0  0  0  0  0
   60.4818   27.2232   50.7909 H   0  0  0  0  0  0  0  0  0  0  0  0
   61.8185   27.2289   49.5752 H   0  0  0  0  0  0  0  0  0  0  0  0
   59.7247   29.4054   50.0511 H   0  0  0  0  0  0  0  0  0  0  0  0
   61.5040   29.5015   50.3265 H   0  0  0  0  0  0  0  0  0  0  0  0
   64.1224   34.3565   47.9902 H   0  0  0  0  0  0  0  0  0  0  0  0
   64.4664   33.4230   46.4946 H   0  0  0  0  0  0  0  0  0  0  0  0
   63.1807   34.6774   46.4946 H   0  0  0  0  0  0  0  0  0  0  0  0
   58.0453   33.3192   48.6143 H   0  0  0  0  0  0  0  0  0  0  0  0
   56.8884   31.9558   46.8812 H   0  0  0  0  0  0  0  0  0  0  0  0
   55.5890   28.4909   45.6230 H   0  0  0  0  0  0  0  0  0  0  0  0
  1  2  1  0
  2  3  1  0
  3  4  2  0
  3  5  2  0
  3  6  1  0
  6  7  2  0
  7  8  1  0
  8  9  2  0
  9 10  1  0
 10 11  1  0
 11 12  1  0
 12 13  2  0
 12 14  1  0
 14 15  2  0
 15 16  1  0
 16 17  2  0
 17 18  1  0
 18 19  1  0
 19 20  1  0
 20 21  1  0
 21 22  2  0
 22 23  1  0
 23 24  1  0
 24 25  1  0
 25 26  1  0
 26 27  1  0
 27 28  1  0
 22 29  1  0
 29 30  1  0
 30 31  1  0
 17 32  1  0
 32 33  2  0
 10 34  2  0
 34  6  1  0
 33 14  1  0
 30 20  2  0
 28 23  1  0
  1 35  1  0
  1 36  1  0
  1 37  1  0
  7 38  1  0
  8 39  1  0
  9 40  1  0
 15 41  1  0
 16 42  1  0
 19 43  1  0
 19 44  1  0
 24 45  1  0
 24 46  1  0
 25 47  1  0
 25 48  1  0
 27 49  1  0
 27 50  1  0
 28 51  1  0
 28 52  1  0
 31 53  1  0
 31 54  1  0
 31 55  1  0
 32 56  1  0
 33 57  1  0
 34 58  1  0
M  CHG  2   2  -1  11  -1
M  END
>  <UniqueID>  (81) 
76

>  <SMILES>  (81) 
C[N-]S(=O)(=O)c1cccc([N-]C(=O)c2ccc(OCc3nc(N4CCOCC4)sc3C)cc2)c1

>  <Energy>  (81) 
94.16485001978747

>  <Genealogy>  (81) 
C[N-]S(=O)(=O)c1cccc([N-]C(=O)c2ccc(OCc3nc(N4CCOCC4)sc3C)cc2)c1 (protonated)
C[N-]S(=O)(=O)c1cccc([N-]C(=O)c2ccc(OCc3nc(N4CCOCC4)sc3C)cc2)c1 (3D coordinates assigned)
C[N-]S(=O)(=O)c1cccc([N-]C(=O)c2ccc(OCc3nc(N4CCOCC4)sc3C)cc2)c1 (nonaromatic ring conformer: 94.16485001978747 kcal/mol)

>  <smiles>  (81) 
CNS(=O)(=O)c1cccc(NC(=O)c2ccc(OCc3nc(N4CCOCC4)sc3C)cc2)c1

>  <score_type>  (81) 
oracle

>  <origin>  (81) 
adg

>  <m_score__min__energy>  (81) 
-12.83

>  <m_primary>  (81) 
energy

$$$$
81:0
     RDKit          3D

 43 45  0  0  0  0  0  0  0  0999 V2000
   57.7190   31.7680   43.2650 C   0  0  0  0  0  0  0  0  0  0  0  0
   58.0980   31.6690   44.7310 C   0  0  0  0  0  0  0  0  0  0  0  0
   58.0970   30.4110   45.3990 C   0  0  0  0  0  0  0  0  0  0  0  0
   57.6920   29.1180   44.7190 C   0  0  0  0  0  0  0  0  0  0  0  0
   56.2820   28.7500   45.0620 C   0  0  0  0  0  0  0  0  0  0  0  0
   55.3490   29.5780   44.8790 O   0  0  0  0  0  0  0  0  0  0  0  0
   55.9950   27.4980   45.5910 O   0  0  0  0  0  0  0  0  0  0  0  0
   58.4530   30.3510   46.7540 C   0  0  0  0  0  0  0  0  0  0  0  0
   58.8140   31.4980   47.4480 C   0  0  0  0  0  0  0  0  0  0  0  0
   58.7990   32.7440   46.8220 C   0  0  0  0  0  0  0  0  0  0  0  0
   59.3180   34.1650   47.7990 S   0  0  0  0  0  0  0  0  0  0  0  0
   61.0550   33.8160   47.5400 C   0  0  0  0  0  0  0  0  0  0  0  0
   61.7620   33.1830   48.5110 N   0  0  0  0  0  0  0  0  0  0  0  0
   63.0800   32.8810   48.3530 C   0  0  0  0  0  0  0  0  0  0  0  0
   63.7970   32.1670   49.4390 C   0  0  0  0  0  0  0  0  0  0  0  0
   65.1460   32.4460   49.7360 C   0  0  0  0  0  0  0  0  0  0  0  0
   65.7990   31.7660   50.7690 C   0  0  0  0  0  0  0  0  0  0  0  0
   65.1160   30.8070   51.5200 C   0  0  0  0  0  0  0  0  0  0  0  0
   63.7760   30.5290   51.2430 C   0  0  0  0  0  0  0  0  0  0  0  0
   63.1170   31.2060   50.2130 C   0  0  0  0  0  0  0  0  0  0  0  0
   63.7150   33.2290   47.1500 C   0  0  0  0  0  0  0  0  0  0  0  0
   62.9740   33.8830   46.1660 C   0  0  0  0  0  0  0  0  0  0  0  0
   61.6620   34.1680   46.3760 N   0  0  0  0  0  0  0  0  0  0  0  0
   58.3930   32.8520   45.4690 C   0  0  0  0  0  0  0  0  0  0  0  0
   58.3140   34.2100   44.8060 C   0  0  0  0  0  0  0  0  0  0  0  0
   56.6580   32.0451   43.1785 H   0  0  0  0  0  0  0  0  0  0  0  0
   58.3391   32.5343   42.7769 H   0  0  0  0  0  0  0  0  0  0  0  0
   57.8851   30.7963   42.7769 H   0  0  0  0  0  0  0  0  0  0  0  0
   57.7762   29.2430   43.6294 H   0  0  0  0  0  0  0  0  0  0  0  0
   58.3583   28.3152   45.0676 H   0  0  0  0  0  0  0  0  0  0  0  0
   58.4461   29.3818   47.2742 H   0  0  0  0  0  0  0  0  0  0  0  0
   59.1152   31.4231   48.5033 H   0  0  0  0  0  0  0  0  0  0  0  0
   65.6889   33.2035   49.1516 H   0  0  0  0  0  0  0  0  0  0  0  0
   66.8535   31.9872   50.9906 H   0  0  0  0  0  0  0  0  0  0  0  0
   65.6334   30.2709   52.3293 H   0  0  0  0  0  0  0  0  0  0  0  0
   63.2378   29.7755   51.8367 H   0  0  0  0  0  0  0  0  0  0  0  0
   62.0593   30.9868   50.0051 H   0  0  0  0  0  0  0  0  0  0  0  0
   64.7763   32.9904   46.9868 H   0  0  0  0  0  0  0  0  0  0  0  0
   63.4527   34.1688   45.2177 H   0  0  0  0  0  0  0  0  0  0  0  0
   61.1200   34.6610   45.6320 H   0  0  0  0  0  0  0  0  0  0  0  0
   58.2685   34.9927   45.5776 H   0  0  0  0  0  0  0  0  0  0  0  0
   59.2047   34.3644   44.1792 H   0  0  0  0  0  0  0  0  0  0  0  0
   57.4114   34.2601   44.1792 H   0  0  0  0  0  0  0  0  0  0  0  0
  1  2  1  0
  2  3  2  0
  3  4  1  0
  4  5  1  0
  5  6  2  0
  5  7  1  0
  3  8  1  0
  8  9  2  0
  9 10  1  0
 10 11  1  0
 11 12  1  0
 12 13  2  0
 13 14  1  0
 14 15  1  0
 15 16  2  0
 16 17  1  0
 17 18  2  0
 18 19  1  0
 19 20  2  0
 14 21  2  0
 21 22  1  0
 22 23  2  0
 10 24  2  0
 24 25  1  0
 24  2  1  0
 23 12  1  0
 20 15  1  0
  1 26  1  0
  1 27  1  0
  1 28  1  0
  4 29  1  0
  4 30  1  0
  8 31  1  0
  9 32  1  0
 16 33  1  0
 17 34  1  0
 18 35  1  0
 19 36  1  0
 20 37  1  0
 21 38  1  0
 22 39  1  0
 23 40  1  0
 25 41  1  0
 25 42  1  0
 25 43  1  0
M  CHG  2   7  -1  23   1
M  END
>  <UniqueID>  (82) 
77

>  <SMILES>  (82) 
Cc1c(CC(=O)[O-])ccc(Sc2nc(-c3ccccc3)cc[nH+]2)c1C

>  <Energy>  (82) 
49.89301432281106

>  <Genealogy>  (82) 
Cc1c(CC(=O)[O-])ccc(Sc2nc(-c3ccccc3)cc[nH+]2)c1C (protonated)
Cc1c(CC(=O)[O-])ccc(Sc2nc(-c3ccccc3)cc[nH+]2)c1C (3D coordinates assigned)
Cc1c(CC(=O)[O-])ccc(Sc2nc(-c3ccccc3)cc[nH+]2)c1C (optimized conformer: 49.89301432281106 kcal/mol)

>  <smiles>  (82) 
Cc1c(CC(=O)O)ccc(Sc2nccc(-c3ccccc3)n2)c1C

>  <score_type>  (82) 
oracle

>  <origin>  (82) 
adg

>  <m_score__min__energy>  (82) 
-10.23

>  <m_primary>  (82) 
energy

$$$$
82:0
     RDKit          3D

 57 61  0  0  0  0  0  0  0  0999 V2000
   63.7560   32.7470   48.2560 C   0  0  0  0  0  0  0  0  0  0  0  0
   63.6540   33.3790   46.8780 C   0  0  0  0  0  0  0  0  0  0  0  0
   62.4270   34.0960   46.7690 O   0  0  0  0  0  0  0  0  0  0  0  0
   61.2080   33.6700   47.3380 C   0  0  0  0  0  0  0  0  0  0  0  0
   60.5110   34.4370   48.2880 C   0  0  0  0  0  0  0  0  0  0  0  0
   59.3160   33.9620   48.8410 C   0  0  0  0  0  0  0  0  0  0  0  0
   58.8010   32.7260   48.4470 C   0  0  0  0  0  0  0  0  0  0  0  0
   59.4770   31.9590   47.4920 C   0  0  0  0  0  0  0  0  0  0  0  0
   58.9480   30.6400   47.0940 C   0  0  0  0  0  0  0  0  0  0  0  0
   59.3950   29.4200   47.6920 C   0  0  0  0  0  0  0  0  0  0  0  0
   60.4360   29.4100   48.7660 C   0  0  0  0  0  0  0  0  0  0  0  0
   61.5370   29.9880   48.5780 O   0  0  0  0  0  0  0  0  0  0  0  0
   60.1970   28.7490   50.0140 N   0  0  0  0  0  0  0  0  0  0  0  0
   60.1740   29.4220   51.3050 C   0  0  0  0  0  0  0  0  0  0  0  0
   58.9370   30.2600   51.4390 C   0  0  0  0  0  0  0  0  0  0  0  0
   58.8950   31.6350   51.5520 C   0  0  0  0  0  0  0  0  0  0  0  0
   57.5560   31.9510   51.6840 C   0  0  0  0  0  0  0  0  0  0  0  0
   56.8700   30.7490   51.6400 C   0  0  0  0  0  0  0  0  0  0  0  0
   57.7200   29.7630   51.4970 O   0  0  0  0  0  0  0  0  0  0  0  0
   58.8330   28.1820   47.2390 C   0  0  0  0  0  0  0  0  0  0  0  0
   59.1730   27.1010   47.7960 O   0  0  0  0  0  0  0  0  0  0  0  0
   57.9010   28.1580   46.2250 N   0  0  0  0  0  0  0  0  0  0  0  0
   57.3490   26.9130   45.7480 C   0  0  0  0  0  0  0  0  0  0  0  0
   56.2310   26.3450   46.3790 C   0  0  0  0  0  0  0  0  0  0  0  0
   55.6850   25.1450   45.9080 C   0  0  0  0  0  0  0  0  0  0  0  0
   56.2560   24.5050   44.8040 C   0  0  0  0  0  0  0  0  0  0  0  0
   57.3640   25.0670   44.1630 C   0  0  0  0  0  0  0  0  0  0  0  0
   57.9140   26.2650   44.6340 C   0  0  0  0  0  0  0  0  0  0  0  0
   57.5040   29.3390   45.6710 C   0  0  0  0  0  0  0  0  0  0  0  0
   56.6440   29.4900   44.6470 N   0  0  0  0  0  0  0  0  0  0  0  0
   56.5620   30.7890   44.3890 N   0  0  0  0  0  0  0  0  0  0  0  0
   57.3760   31.4590   45.2380 C   0  0  0  0  0  0  0  0  0  0  0  0
   57.5380   32.9460   45.2140 C   0  0  0  0  0  0  0  0  0  0  0  0
   57.9940   30.5440   46.0770 C   0  0  0  0  0  0  0  0  0  0  0  0
   60.6830   32.4330   46.9420 C   0  0  0  0  0  0  0  0  0  0  0  0
   63.6308   33.5230   49.0255 H   0  0  0  0  0  0  0  0  0  0  0  0
   62.9689   31.9871   48.3701 H   0  0  0  0  0  0  0  0  0  0  0  0
   64.7422   32.2733   48.3701 H   0  0  0  0  0  0  0  0  0  0  0  0
   64.4963   34.0707   46.7295 H   0  0  0  0  0  0  0  0  0  0  0  0
   63.6848   32.5903   46.1118 H   0  0  0  0  0  0  0  0  0  0  0  0
   60.9067   35.4153   48.5983 H   0  0  0  0  0  0  0  0  0  0  0  0
   58.7807   34.5652   49.5890 H   0  0  0  0  0  0  0  0  0  0  0  0
   57.8637   32.3550   48.8873 H   0  0  0  0  0  0  0  0  0  0  0  0
   60.1893   28.6685   52.1063 H   0  0  0  0  0  0  0  0  0  0  0  0
   61.0559   30.0750   51.3814 H   0  0  0  0  0  0  0  0  0  0  0  0
   59.7464   32.3314   51.5396 H   0  0  0  0  0  0  0  0  0  0  0  0
   57.1225   32.9552   51.8005 H   0  0  0  0  0  0  0  0  0  0  0  0
   55.7780   30.6391   51.7139 H   0  0  0  0  0  0  0  0  0  0  0  0
   55.7812   26.8459   47.2489 H   0  0  0  0  0  0  0  0  0  0  0  0
   54.8078   24.7062   46.4060 H   0  0  0  0  0  0  0  0  0  0  0  0
   55.8327   23.5576   44.4391 H   0  0  0  0  0  0  0  0  0  0  0  0
   57.8041   24.5672   43.2875 H   0  0  0  0  0  0  0  0  0  0  0  0
   58.7902   26.7010   44.1319 H   0  0  0  0  0  0  0  0  0  0  0  0
   57.5795   33.3270   46.2451 H   0  0  0  0  0  0  0  0  0  0  0  0
   58.4697   33.2049   44.6896 H   0  0  0  0  0  0  0  0  0  0  0  0
   56.6839   33.3995   44.6896 H   0  0  0  0  0  0  0  0  0  0  0  0
   61.2174   31.8273   46.1953 H   0  0  0  0  0  0  0  0  0  0  0  0
  1  2  1  0
  2  3  1  0
  3  4  1  0
  4  5  2  0
  5  6  1  0
  6  7  2  0
  7  8  1  0
  8  9  1  0
  9 10  2  0
 10 11  1  0
 11 12  2  0
 11 13  1  0
 13 14  1  0
 14 15  1  0
 15 16  2  0
 16 17  1  0
 17 18  2  0
 18 19  1  0
 10 20  1  0
 20 21  2  0
 20 22  1  0
 22 23  1  0
 23 24  2  0
 24 25  1  0
 25 26  2  0
 26 27  1  0
 27 28  2  0
 22 29  1  0
 29 30  2  0
 30 31  1  0
 31 32  1  0
 32 33  1  0
 32 34  2  0
  8 35  2  0
 35  4  1  0
 34  9  1  0
 19 15  1  0
 28 23  1  0
 34 29  1  0
  1 36  1  0
  1 37  1  0
  1 38  1  0
  2 39  1  0
  2 40  1  0
  5 41  1  0
  6 42  1  0
  7 43  1  0
 14 44  1  0
 14 45  1  0
 16 46  1  0
 17 47  1  0
 18 48  1  0
 24 49  1  0
 25 50  1  0
 26 51  1  0
 27 52  1  0
 28 53  1  0
 33 54  1  0
 33 55  1  0
 33 56  1  0
 35 57  1  0
M  CHG  2  13  -1  31  -1
M  END
>  <UniqueID>  (83) 
78

>  <SMILES>  (83) 
CCOc1cccc(-c2c(C(=O)[N-]Cc3ccco3)c(=O)n(-c3ccccc3)c3n[n-]c(C)c23)c1

>  <Energy>  (83) 
140.59084370621403

>  <Genealogy>  (83) 
CCOc1cccc(-c2c(C(=O)[N-]Cc3ccco3)c(=O)n(-c3ccccc3)c3n[n-]c(C)c23)c1 (protonated)
CCOc1cccc(-c2c(C(=O)[N-]Cc3ccco3)c(=O)n(-c3ccccc3)c3n[n-]c(C)c23)c1 (3D coordinates assigned)
CCOc1cccc(-c2c(C(=O)[N-]Cc3ccco3)c(=O)n(-c3ccccc3)c3n[n-]c(C)c23)c1 (optimized conformer: 140.59084370621403 kcal/mol)

>  <smiles>  (83) 
CCOc1cccc(-c2c(C(=O)NCc3ccco3)c(=O)n(-c3ccccc3)c3n[nH]c(C)c23)c1

>  <score_type>  (83) 
oracle

>  <origin>  (83) 
adg

>  <m_score__min__energy>  (83) 
-10.81

>  <m_primary>  (83) 
energy

$$$$
83:0
     RDKit          3D

 54 57  0  0  0  0  0  0  0  0999 V2000
   60.4260   26.5060   46.8670 N   0  0  0  0  0  0  0  0  0  0  0  0
   59.9890   27.4220   46.2930 C   0  0  0  0  0  0  0  0  0  0  0  0
   59.4730   28.5610   45.5950 C   0  0  0  0  0  0  0  0  0  0  0  0
   59.6490   29.8520   46.0510 C   0  0  0  0  0  0  0  0  0  0  0  0
   60.3870   30.0960   47.2890 C   0  0  0  0  0  0  0  0  0  0  0  0
   61.4940   30.9490   47.1860 C   0  0  0  0  0  0  0  0  0  0  0  0
   62.2550   31.2360   48.3240 C   0  0  0  0  0  0  0  0  0  0  0  0
   61.9060   30.6750   49.5360 C   0  0  0  0  0  0  0  0  0  0  0  0
   62.6980   30.9700   50.7260 C   0  0  0  0  0  0  0  0  0  0  0  0
   62.9150   32.3250   51.1090 N   0  0  0  0  0  0  0  0  0  0  0  0
   63.1820   30.0260   51.4010 O   0  0  0  0  0  0  0  0  0  0  0  0
   60.8120   29.8370   49.6200 C   0  0  0  0  0  0  0  0  0  0  0  0
   60.0340   29.5340   48.4990 C   0  0  0  0  0  0  0  0  0  0  0  0
   59.1560   30.9040   45.3770 N   0  0  0  0  0  0  0  0  0  0  0  0
   58.4580   30.7520   44.2140 C   0  0  0  0  0  0  0  0  0  0  0  0
   57.8520   32.2120   43.4480 S   0  0  0  0  0  0  0  0  0  0  0  0
   57.3730   33.5500   44.4990 C   0  0  0  0  0  0  0  0  0  0  0  0
   58.3560   33.7790   45.5630 C   0  0  0  0  0  0  0  0  0  0  0  0
   59.5630   34.3980   45.4540 C   0  0  0  0  0  0  0  0  0  0  0  0
   60.4230   34.5830   46.5420 C   0  0  0  0  0  0  0  0  0  0  0  0
   60.0840   34.1390   47.7900 C   0  0  0  0  0  0  0  0  0  0  0  0
   60.9050   34.2620   49.0090 C   0  0  0  0  0  0  0  0  0  0  0  0
   60.6160   33.4210   50.0390 O   0  0  0  0  0  0  0  0  0  0  0  0
   59.6000   33.2130   50.8960 C   0  0  0  0  0  0  0  0  0  0  0  0
   58.8060   32.0690   50.6690 C   0  0  0  0  0  0  0  0  0  0  0  0
   57.7430   31.7570   51.4760 C   0  0  0  0  0  0  0  0  0  0  0  0
   57.4090   32.5420   52.5350 C   0  0  0  0  0  0  0  0  0  0  0  0
   58.1480   33.6600   52.7920 C   0  0  0  0  0  0  0  0  0  0  0  0
   59.2230   33.9710   51.9720 C   0  0  0  0  0  0  0  0  0  0  0  0
   58.8540   33.5030   47.9230 C   0  0  0  0  0  0  0  0  0  0  0  0
   58.0080   33.3240   46.8440 C   0  0  0  0  0  0  0  0  0  0  0  0
   58.2990   29.4990   43.7890 N   0  0  0  0  0  0  0  0  0  0  0  0
   58.7700   28.4100   44.4210 C   0  0  0  0  0  0  0  0  0  0  0  0
   58.5800   27.2500   43.9580 O   0  0  0  0  0  0  0  0  0  0  0  0
   61.7631   31.3906   46.2152 H   0  0  0  0  0  0  0  0  0  0  0  0
   63.1258   31.9043   48.2536 H   0  0  0  0  0  0  0  0  0  0  0  0
   63.8390   32.5560   51.5310 H   0  0  0  0  0  0  0  0  0  0  0  0
   62.1780   33.0710   50.9780 H   0  0  0  0  0  0  0  0  0  0  0  0
   60.5462   29.3972   50.5926 H   0  0  0  0  0  0  0  0  0  0  0  0
   59.1640   28.8657   48.5791 H   0  0  0  0  0  0  0  0  0  0  0  0
   57.2821   34.4642   43.8941 H   0  0  0  0  0  0  0  0  0  0  0  0
   56.4120   33.2922   44.9680 H   0  0  0  0  0  0  0  0  0  0  0  0
   59.8763   34.7692   44.4671 H   0  0  0  0  0  0  0  0  0  0  0  0
   61.3859   35.0931   46.3912 H   0  0  0  0  0  0  0  0  0  0  0  0
   61.9524   34.0867   48.7221 H   0  0  0  0  0  0  0  0  0  0  0  0
   60.6908   35.2693   49.3957 H   0  0  0  0  0  0  0  0  0  0  0  0
   59.0465   31.4099   49.8218 H   0  0  0  0  0  0  0  0  0  0  0  0
   57.1495   30.8556   51.2633 H   0  0  0  0  0  0  0  0  0  0  0  0
   56.5545   32.2793   53.1759 H   0  0  0  0  0  0  0  0  0  0  0  0
   57.8934   34.3094   53.6425 H   0  0  0  0  0  0  0  0  0  0  0  0
   59.8046   34.8767   52.1989 H   0  0  0  0  0  0  0  0  0  0  0  0
   58.5464   33.1329   48.9121 H   0  0  0  0  0  0  0  0  0  0  0  0
   57.0441   32.8154   46.9926 H   0  0  0  0  0  0  0  0  0  0  0  0
   57.7900   29.3460   42.9070 H   0  0  0  0  0  0  0  0  0  0  0  0
  1  2  3  0
  2  3  1  0
  3  4  2  0
  4  5  1  0
  5  6  2  0
  6  7  1  0
  7  8  2  0
  8  9  1  0
  9 10  1  0
  9 11  2  0
  8 12  1  0
 12 13  2  0
  4 14  1  0
 14 15  2  0
 15 16  1  0
 16 17  1  0
 17 18  1  0
 18 19  2  0
 19 20  1  0
 20 21  2  0
 21 22  1  0
 22 23  1  0
 23 24  1  0
 24 25  2  0
 25 26  1  0
 26 27  2  0
 27 28  1  0
 28 29  2  0
 21 30  1  0
 30 31  2  0
 15 32  1  0
 32 33  1  0
 33 34  2  0
 33  3  1  0
 13  5  1  0
 31 18  1  0
 29 24  1  0
  6 35  1  0
  7 36  1  0
 10 37  1  0
 10 38  1  0
 12 39  1  0
 13 40  1  0
 17 41  1  0
 17 42  1  0
 19 43  1  0
 20 44  1  0
 22 45  1  0
 22 46  1  0
 25 47  1  0
 26 48  1  0
 27 49  1  0
 28 50  1  0
 29 51  1  0
 30 52  1  0
 31 53  1  0
 32 54  1  0
M  END
>  <smiles>  (84) 
N#Cc1c(-c2ccc(C(N)=O)cc2)nc(SCc2ccc(COc3ccccc3)cc2)[nH]c1=O

>  <score_type>  (84) 
oracle

>  <origin>  (84) 
adg

>  <m_score__min__energy>  (84) 
-8.9700000000000006

>  <m_primary>  (84) 
energy

$$$$
84:0
     RDKit          3D

 65 69  0  0  0  0  0  0  0  0999 V2000
   62.1900   24.6280   52.4320 C   0  0  0  0  0  0  0  0  0  0  0  0
   61.0280   25.1870   51.8260 O   0  0  0  0  0  0  0  0  0  0  0  0
   60.8590   26.5510   51.5470 C   0  0  0  0  0  0  0  0  0  0  0  0
   60.8080   27.0540   50.2340 C   0  0  0  0  0  0  0  0  0  0  0  0
   60.6430   28.4250   50.0090 C   0  0  0  0  0  0  0  0  0  0  0  0
   60.5290   29.3160   51.0900 C   0  0  0  0  0  0  0  0  0  0  0  0
   60.3660   30.7720   50.8560 C   0  0  0  0  0  0  0  0  0  0  0  0
   59.2390   31.4350   51.3770 C   0  0  0  0  0  0  0  0  0  0  0  0
   59.0450   32.7970   51.1380 C   0  0  0  0  0  0  0  0  0  0  0  0
   59.9650   33.5130   50.3730 C   0  0  0  0  0  0  0  0  0  0  0  0
   61.0870   32.8700   49.8390 C   0  0  0  0  0  0  0  0  0  0  0  0
   62.0200   33.6240   49.0650 N   0  0  0  0  0  0  0  0  0  0  0  0
   62.4450   33.1440   47.4580 S   0  0  0  0  0  0  0  0  0  0  0  0
   62.6980   34.3740   46.6320 O   0  0  0  0  0  0  0  0  0  0  0  0
   63.6980   32.3150   47.4730 O   0  0  0  0  0  0  0  0  0  0  0  0
   61.1190   32.2120   46.7730 C   0  0  0  0  0  0  0  0  0  0  0  0
   61.1950   30.8140   46.7440 C   0  0  0  0  0  0  0  0  0  0  0  0
   60.1320   30.0620   46.2350 C   0  0  0  0  0  0  0  0  0  0  0  0
   58.9750   30.7000   45.7580 C   0  0  0  0  0  0  0  0  0  0  0  0
   57.8470   29.9120   45.2150 C   0  0  0  0  0  0  0  0  0  0  0  0
   56.7210   30.4660   45.0860 O   0  0  0  0  0  0  0  0  0  0  0  0
   58.0040   28.5290   44.8380 N   0  0  0  0  0  0  0  0  0  0  0  0
   57.7320   28.1530   43.4380 C   0  0  0  0  0  0  0  0  0  0  0  0
   58.1420   26.7080   43.1280 C   0  0  0  0  0  0  0  0  0  0  0  0
   57.6350   25.7830   44.1950 C   0  0  0  0  0  0  0  0  0  0  0  0
   57.1280   24.5140   43.8780 C   0  0  0  0  0  0  0  0  0  0  0  0
   56.7010   23.6560   44.8970 C   0  0  0  0  0  0  0  0  0  0  0  0
   56.7950   24.0540   46.2330 C   0  0  0  0  0  0  0  0  0  0  0  0
   57.3150   25.3110   46.5560 C   0  0  0  0  0  0  0  0  0  0  0  0
   57.7270   26.1850   45.5380 C   0  0  0  0  0  0  0  0  0  0  0  0
   58.3340   27.5230   45.8660 C   0  0  0  0  0  0  0  0  0  0  0  0
   58.9110   32.1030   45.7730 C   0  0  0  0  0  0  0  0  0  0  0  0
   59.9730   32.8530   46.2850 C   0  0  0  0  0  0  0  0  0  0  0  0
   61.3100   31.5070   50.1010 C   0  0  0  0  0  0  0  0  0  0  0  0
   62.4770   30.9040   49.6190 O   0  0  0  0  0  0  0  0  0  0  0  0
   63.7490   31.1600   50.2030 C   0  0  0  0  0  0  0  0  0  0  0  0
   60.5680   28.8090   52.4000 C   0  0  0  0  0  0  0  0  0  0  0  0
   60.7350   27.4390   52.6230 C   0  0  0  0  0  0  0  0  0  0  0  0
   62.0915   24.6754   53.5266 H   0  0  0  0  0  0  0  0  0  0  0  0
   62.2984   23.5792   52.1187 H   0  0  0  0  0  0  0  0  0  0  0  0
   63.0772   25.1979   52.1187 H   0  0  0  0  0  0  0  0  0  0  0  0
   60.8983   26.3661   49.3804 H   0  0  0  0  0  0  0  0  0  0  0  0
   60.6022   28.8083   48.9787 H   0  0  0  0  0  0  0  0  0  0  0  0
   58.5057   30.8761   51.9769 H   0  0  0  0  0  0  0  0  0  0  0  0
   58.1637   33.3067   51.5545 H   0  0  0  0  0  0  0  0  0  0  0  0
   59.8082   34.5861   50.1889 H   0  0  0  0  0  0  0  0  0  0  0  0
   62.0940   30.3059   47.1229 H   0  0  0  0  0  0  0  0  0  0  0  0
   60.2020   28.9646   46.2079 H   0  0  0  0  0  0  0  0  0  0  0  0
   56.6544   28.2629   43.2461 H   0  0  0  0  0  0  0  0  0  0  0  0
   58.3272   28.8153   42.7922 H   0  0  0  0  0  0  0  0  0  0  0  0
   57.7174   26.4104   42.1579 H   0  0  0  0  0  0  0  0  0  0  0  0
   59.2398   26.6470   43.0933 H   0  0  0  0  0  0  0  0  0  0  0  0
   57.0662   24.1934   42.8276 H   0  0  0  0  0  0  0  0  0  0  0  0
   56.2907   22.6667   44.6461 H   0  0  0  0  0  0  0  0  0  0  0  0
   56.4592   23.3770   47.0323 H   0  0  0  0  0  0  0  0  0  0  0  0
   57.4013   25.6154   47.6095 H   0  0  0  0  0  0  0  0  0  0  0  0
   57.9467   27.8635   46.8376 H   0  0  0  0  0  0  0  0  0  0  0  0
   59.4275   27.4086   45.9008 H   0  0  0  0  0  0  0  0  0  0  0  0
   58.0200   32.6142   45.3795 H   0  0  0  0  0  0  0  0  0  0  0  0
   59.9089   33.9510   46.3049 H   0  0  0  0  0  0  0  0  0  0  0  0
   63.6595   31.1420   51.2992 H   0  0  0  0  0  0  0  0  0  0  0  0
   64.4626   30.3875   49.8806 H   0  0  0  0  0  0  0  0  0  0  0  0
   64.1082   32.1485   49.8806 H   0  0  0  0  0  0  0  0  0  0  0  0
   60.4666   29.4939   53.2548 H   0  0  0  0  0  0  0  0  0  0  0  0
   60.7693   27.0549   53.6532 H   0  0  0  0  0  0  0  0  0  0  0  0
  1  2  1  0
  2  3  1  0
  3  4  2  0
  4  5  1  0
  5  6  2  0
  6  7  1  0
  7  8  2  0
  8  9  1  0
  9 10  2  0
 10 11  1  0
 11 12  1  0
 12 13  1  0
 13 14  2  0
 13 15  2  0
 13 16  1  0
 16 17  2  0
 17 18  1  0
 18 19  2  0
 19 20  1  0
 20 21  2  0
 20 22  1  0
 22 23  1  0
 23 24  1  0
 24 25  1  0
 25 26  2  0
 26 27  1  0
 27 28  2  0
 28 29  1  0
 29 30  2  0
 30 31  1  0
 19 32  1  0
 32 33  2  0
 11 34  2  0
 34 35  1  0
 35 36  1  0
  6 37  1  0
 37 38  2  0
 38  3  1  0
 34  7  1  0
 33 16  1  0
 31 22  1  0
 30 25  1  0
  1 39  1  0
  1 40  1  0
  1 41  1  0
  4 42  1  0
  5 43  1  0
  8 44  1  0
  9 45  1  0
 10 46  1  0
 17 47  1  0
 18 48  1  0
 23 49  1  0
 23 50  1  0
 24 51  1  0
 24 52  1  0
 26 53  1  0
 27 54  1  0
 28 55  1  0
 29 56  1  0
 31 57  1  0
 31 58  1  0
 32 59  1  0
 33 60  1  0
 36 61  1  0
 36 62  1  0
 36 63  1  0
 37 64  1  0
 38 65  1  0
M  CHG  1  12  -1
M  END
>  <UniqueID>  (85) 
79

>  <SMILES>  (85) 
COc1ccc(-c2cccc([N-]S(=O)(=O)c3ccc(C(=O)N4CCc5ccccc5C4)cc3)c2OC)cc1

>  <Energy>  (85) 
98.28657768487116

>  <Genealogy>  (85) 
COc1ccc(-c2cccc([N-]S(=O)(=O)c3ccc(C(=O)N4CCc5ccccc5C4)cc3)c2OC)cc1 (protonated)
COc1ccc(-c2cccc([N-]S(=O)(=O)c3ccc(C(=O)N4CCc5ccccc5C4)cc3)c2OC)cc1 (3D coordinates assigned)
COc1ccc(-c2cccc([N-]S(=O)(=O)c3ccc(C(=O)N4CCc5ccccc5C4)cc3)c2OC)cc1 (nonaromatic ring conformer: 98.28657768487116 kcal/mol)

>  <smiles>  (85) 
COc1ccc(-c2cccc(NS(=O)(=O)c3ccc(C(=O)N4CCc5ccccc5C4)cc3)c2OC)cc1

>  <score_type>  (85) 
oracle

>  <origin>  (85) 
adg

>  <m_score__min__energy>  (85) 
-12.1

>  <m_primary>  (85) 
energy

$$$$
85:0
     RDKit          3D

 66 69  0  0  0  0  0  0  0  0999 V2000
   61.0950   29.8210   49.4230 C   0  0  0  0  0  0  0  0  0  0  0  0
   61.6600   30.7750   50.3190 O   0  0  0  0  0  0  0  0  0  0  0  0
   62.8100   31.5360   50.0550 C   0  0  0  0  0  0  0  0  0  0  0  0
   64.0350   31.2990   50.7140 C   0  0  0  0  0  0  0  0  0  0  0  0
   65.1640   32.0620   50.4000 C   0  0  0  0  0  0  0  0  0  0  0  0
   65.0840   33.0710   49.4370 C   0  0  0  0  0  0  0  0  0  0  0  0
   63.8730   33.3210   48.7840 C   0  0  0  0  0  0  0  0  0  0  0  0
   62.7340   32.5610   49.0910 C   0  0  0  0  0  0  0  0  0  0  0  0
   61.5070   32.8040   48.3870 N   0  0  0  0  0  0  0  0  0  0  0  0
   61.5150   32.7960   46.9210 C   0  0  0  0  0  0  0  0  0  0  0  0
   60.3560   33.6370   46.3720 C   0  0  0  0  0  0  0  0  0  0  0  0
   59.0690   33.2020   46.9600 N   0  0  0  0  0  0  0  0  0  0  0  0
   57.8880   33.9100   46.3860 C   0  0  0  0  0  0  0  0  0  0  0  0
   57.9280   34.2120   44.8650 C   0  0  0  0  0  0  0  0  0  0  0  0
   57.7650   32.9750   43.9680 C   0  0  0  0  0  0  0  0  0  0  0  0
   57.3990   31.7280   44.7780 C   0  0  0  0  0  0  0  0  0  0  0  0
   58.5920   31.1120   45.3520 N   0  0  0  0  0  0  0  0  0  0  0  0
   58.5820   30.0000   46.2580 C   0  0  0  0  0  0  0  0  0  0  0  0
   58.7790   30.2150   47.4830 O   0  0  0  0  0  0  0  0  0  0  0  0
   58.3260   28.6180   45.8030 C   0  0  0  0  0  0  0  0  0  0  0  0
   57.9620   27.6190   46.7160 C   0  0  0  0  0  0  0  0  0  0  0  0
   57.7210   26.3150   46.2810 C   0  0  0  0  0  0  0  0  0  0  0  0
   57.8150   25.9880   44.9160 C   0  0  0  0  0  0  0  0  0  0  0  0
   57.5770   24.5940   44.4550 C   0  0  0  0  0  0  0  0  0  0  0  0
   58.3110   23.5230   44.9970 C   0  0  0  0  0  0  0  0  0  0  0  0
   58.1100   22.2190   44.5350 C   0  0  0  0  0  0  0  0  0  0  0  0
   57.1700   21.9660   43.5330 C   0  0  0  0  0  0  0  0  0  0  0  0
   56.9840   20.7020   43.0770 F   0  0  0  0  0  0  0  0  0  0  0  0
   56.4230   23.0170   42.9960 C   0  0  0  0  0  0  0  0  0  0  0  0
   56.6230   24.3240   43.4550 C   0  0  0  0  0  0  0  0  0  0  0  0
   58.1440   27.0030   43.9960 C   0  0  0  0  0  0  0  0  0  0  0  0
   58.3910   28.3070   44.4370 C   0  0  0  0  0  0  0  0  0  0  0  0
   59.0540   33.1530   48.4540 C   0  0  0  0  0  0  0  0  0  0  0  0
   60.4160   33.4610   49.1110 C   0  0  0  0  0  0  0  0  0  0  0  0
   60.6175   29.0148   49.9992 H   0  0  0  0  0  0  0  0  0  0  0  0
   60.3430   30.3137   48.7892 H   0  0  0  0  0  0  0  0  0  0  0  0
   61.8885   29.3984   48.7892 H   0  0  0  0  0  0  0  0  0  0  0  0
   64.1021   30.5106   51.4781 H   0  0  0  0  0  0  0  0  0  0  0  0
   66.1176   31.8673   50.9126 H   0  0  0  0  0  0  0  0  0  0  0  0
   65.9741   33.6691   49.1923 H   0  0  0  0  0  0  0  0  0  0  0  0
   63.8130   34.1165   48.0267 H   0  0  0  0  0  0  0  0  0  0  0  0
   62.4671   33.2140   46.5621 H   0  0  0  0  0  0  0  0  0  0  0  0
   61.3992   31.7597   46.5707 H   0  0  0  0  0  0  0  0  0  0  0  0
   60.5276   34.6946   46.6212 H   0  0  0  0  0  0  0  0  0  0  0  0
   60.3089   33.5046   45.2810 H   0  0  0  0  0  0  0  0  0  0  0  0
   58.9550   32.2050   46.6480 H   0  0  0  0  0  0  0  0  0  0  0  0
   57.0008   33.2890   46.5793 H   0  0  0  0  0  0  0  0  0  0  0  0
   57.8753   34.8948   46.8759 H   0  0  0  0  0  0  0  0  0  0  0  0
   57.1148   34.9153   44.6323 H   0  0  0  0  0  0  0  0  0  0  0  0
   58.9254   34.6245   44.6529 H   0  0  0  0  0  0  0  0  0  0  0  0
   56.9684   33.1696   43.2348 H   0  0  0  0  0  0  0  0  0  0  0  0
   58.7264   32.7871   43.4676 H   0  0  0  0  0  0  0  0  0  0  0  0
   56.7148   32.0140   45.5904 H   0  0  0  0  0  0  0  0  0  0  0  0
   56.9161   31.0020   44.1074 H   0  0  0  0  0  0  0  0  0  0  0  0
   57.8655   27.8646   47.7839 H   0  0  0  0  0  0  0  0  0  0  0  0
   57.4554   25.5366   47.0114 H   0  0  0  0  0  0  0  0  0  0  0  0
   59.0487   23.7132   45.7904 H   0  0  0  0  0  0  0  0  0  0  0  0
   58.6936   21.3899   44.9616 H   0  0  0  0  0  0  0  0  0  0  0  0
   55.6774   22.8175   42.2122 H   0  0  0  0  0  0  0  0  0  0  0  0
   56.0298   25.1475   43.0309 H   0  0  0  0  0  0  0  0  0  0  0  0
   58.2071   26.7682   42.9232 H   0  0  0  0  0  0  0  0  0  0  0  0
   58.6377   29.0932   43.7083 H   0  0  0  0  0  0  0  0  0  0  0  0
   58.3219   33.8899   48.8159 H   0  0  0  0  0  0  0  0  0  0  0  0
   58.7944   32.1213   48.7337 H   0  0  0  0  0  0  0  0  0  0  0  0
   60.5820   34.5484   49.1028 H   0  0  0  0  0  0  0  0  0  0  0  0
   60.4015   33.0819   50.1435 H   0  0  0  0  0  0  0  0  0  0  0  0
  1  2  1  0
  2  3  1  0
  3  4  2  0
  4  5  1  0
  5  6  2  0
  6  7  1  0
  7  8  2  0
  8  9  1  0
  9 10  1  0
 10 11  1  0
 11 12  1  0
 12 13  1  0
 13 14  1  0
 14 15  1  0
 15 16  1  0
 16 17  1  0
 17 18  1  0
 18 19  2  0
 18 20  1  0
 20 21  2  0
 21 22  1  0
 22 23  2  0
 23 24  1  0
 24 25  2  0
 25 26  1  0
 26 27  2  0
 27 28  1  0
 27 29  1  0
 29 30  2  0
 23 31  1  0
 31 32  2  0
 12 33  1  0
 33 34  1  0
  8  3  1  0
 34  9  1  0
 32 20  1  0
 30 24  1  0
  1 35  1  0
  1 36  1  0
  1 37  1  0
  4 38  1  0
  5 39  1  0
  6 40  1  0
  7 41  1  0
 10 42  1  0
 10 43  1  0
 11 44  1  0
 11 45  1  0
 12 46  1  0
 13 47  1  0
 13 48  1  0
 14 49  1  0
 14 50  1  0
 15 51  1  0
 15 52  1  0
 16 53  1  0
 16 54  1  0
 21 55  1  0
 22 56  1  0
 25 57  1  0
 26 58  1  0
 29 59  1  0
 30 60  1  0
 31 61  1  0
 32 62  1  0
 33 63  1  0
 33 64  1  0
 34 65  1  0
 34 66  1  0
M  CHG  2  12   1  17  -1
M  END
>  <UniqueID>  (86) 
80

>  <SMILES>  (86) 
COc1ccccc1N1CC[NH+](CCCC[N-]C(=O)c2ccc(-c3ccc(F)cc3)cc2)CC1

>  <Energy>  (86) 
92.93553331613019

>  <Genealogy>  (86) 
COc1ccccc1N1CC[NH+](CCCC[N-]C(=O)c2ccc(-c3ccc(F)cc3)cc2)CC1 (protonated)
COc1ccccc1N1CC[NH+](CCCC[N-]C(=O)c2ccc(-c3ccc(F)cc3)cc2)CC1 (3D coordinates assigned)
COc1ccccc1N1CC[NH+](CCCC[N-]C(=O)c2ccc(-c3ccc(F)cc3)cc2)CC1 (nonaromatic ring conformer: 92.93553331613019 kcal/mol)

>  <smiles>  (86) 
COc1ccccc1N1CCN(CCCCNC(=O)c2ccc(-c3ccc(F)cc3)cc2)CC1

>  <score_type>  (86) 
oracle

>  <origin>  (86) 
adg

>  <m_score__min__energy>  (86) 
-7.75

>  <m_primary>  (86) 
energy

$$$$
86:0
     RDKit          3D

 65 68  0  0  0  0  0  0  0  0999 V2000
   57.4020   25.0610   44.0310 C   0  0  0  0  0  0  0  0  0  0  0  0
   57.9190   24.9830   45.4650 C   0  0  0  0  0  0  0  0  0  0  0  0
   57.9230   26.3100   46.0910 N   0  0  0  0  0  0  0  0  0  0  0  0
   58.9900   26.6710   47.0390 C   0  0  0  0  0  0  0  0  0  0  0  0
   60.3250   26.8440   46.3210 C   0  0  0  0  0  0  0  0  0  0  0  0
   56.7970   27.1850   45.8890 C   0  0  0  0  0  0  0  0  0  0  0  0
   55.6310   26.7200   45.9950 O   0  0  0  0  0  0  0  0  0  0  0  0
   56.9810   28.6140   45.5500 C   0  0  0  0  0  0  0  0  0  0  0  0
   56.0090   29.3070   44.7830 C   0  0  0  0  0  0  0  0  0  0  0  0
   56.1630   30.6330   44.4950 N   0  0  0  0  0  0  0  0  0  0  0  0
   57.2550   31.2850   44.9570 C   0  0  0  0  0  0  0  0  0  0  0  0
   57.5920   32.6040   44.7990 C   0  0  0  0  0  0  0  0  0  0  0  0
   58.7830   32.7550   45.5110 C   0  0  0  0  0  0  0  0  0  0  0  0
   59.4740   34.0530   45.6370 C   0  0  0  0  0  0  0  0  0  0  0  0
   60.0140   34.5620   44.6170 O   0  0  0  0  0  0  0  0  0  0  0  0
   59.5220   34.7330   46.8950 N   0  0  0  0  0  0  0  0  0  0  0  0
   60.2170   34.3050   48.0750 C   0  0  0  0  0  0  0  0  0  0  0  0
   59.5540   34.1710   49.3090 C   0  0  0  0  0  0  0  0  0  0  0  0
   60.2460   33.7130   50.4450 C   0  0  0  0  0  0  0  0  0  0  0  0
   59.6290   33.5750   51.6980 O   0  0  0  0  0  0  0  0  0  0  0  0
   60.3350   33.4380   52.9300 C   0  0  0  0  0  0  0  0  0  0  0  0
   61.5960   33.3740   50.3310 C   0  0  0  0  0  0  0  0  0  0  0  0
   62.2540   33.4790   49.1030 C   0  0  0  0  0  0  0  0  0  0  0  0
   61.5680   33.9410   47.9660 C   0  0  0  0  0  0  0  0  0  0  0  0
   62.1930   34.0600   46.7140 O   0  0  0  0  0  0  0  0  0  0  0  0
   63.4870   33.5490   46.4070 C   0  0  0  0  0  0  0  0  0  0  0  0
   59.1660   31.5680   46.0780 N   0  0  0  0  0  0  0  0  0  0  0  0
   60.4200   31.2540   46.7790 C   0  0  0  0  0  0  0  0  0  0  0  0
   60.1340   30.7020   48.1510 C   0  0  0  0  0  0  0  0  0  0  0  0
   58.9460   31.0380   48.8210 C   0  0  0  0  0  0  0  0  0  0  0  0
   58.6940   30.5420   50.1030 C   0  0  0  0  0  0  0  0  0  0  0  0
   59.6220   29.7060   50.7270 C   0  0  0  0  0  0  0  0  0  0  0  0
   60.8090   29.3690   50.0690 C   0  0  0  0  0  0  0  0  0  0  0  0
   61.0690   29.8700   48.7890 C   0  0  0  0  0  0  0  0  0  0  0  0
   58.2100   30.6780   45.7190 C   0  0  0  0  0  0  0  0  0  0  0  0
   58.1020   29.3220   46.0370 C   0  0  0  0  0  0  0  0  0  0  0  0
   56.3144   25.2251   44.0418 H   0  0  0  0  0  0  0  0  0  0  0  0
   57.8935   25.8952   43.5089 H   0  0  0  0  0  0  0  0  0  0  0  0
   57.6255   24.1190   43.5089 H   0  0  0  0  0  0  0  0  0  0  0  0
   57.2695   24.3121   46.0464 H   0  0  0  0  0  0  0  0  0  0  0  0
   58.9495   24.5986   45.4476 H   0  0  0  0  0  0  0  0  0  0  0  0
   58.7244   27.6153   47.5367 H   0  0  0  0  0  0  0  0  0  0  0  0
   59.0916   25.8613   47.7767 H   0  0  0  0  0  0  0  0  0  0  0  0
   61.1299   26.9483   47.0635 H   0  0  0  0  0  0  0  0  0  0  0  0
   60.5193   25.9635   45.6909 H   0  0  0  0  0  0  0  0  0  0  0  0
   60.2884   27.7449   45.6909 H   0  0  0  0  0  0  0  0  0  0  0  0
   55.1216   28.7702   44.4163 H   0  0  0  0  0  0  0  0  0  0  0  0
   57.0446   33.3739   44.2354 H   0  0  0  0  0  0  0  0  0  0  0  0
   58.4868   34.4263   49.3859 H   0  0  0  0  0  0  0  0  0  0  0  0
   59.6372   33.5734   53.7695 H   0  0  0  0  0  0  0  0  0  0  0  0
   60.7850   32.4358   52.9852 H   0  0  0  0  0  0  0  0  0  0  0  0
   61.1272   34.1992   52.9852 H   0  0  0  0  0  0  0  0  0  0  0  0
   62.1461   33.0212   51.2158 H   0  0  0  0  0  0  0  0  0  0  0  0
   63.3148   33.1986   49.0253 H   0  0  0  0  0  0  0  0  0  0  0  0
   64.0279   33.3354   47.3407 H   0  0  0  0  0  0  0  0  0  0  0  0
   63.3862   32.6232   45.8216 H   0  0  0  0  0  0  0  0  0  0  0  0
   64.0460   34.2939   45.8216 H   0  0  0  0  0  0  0  0  0  0  0  0
   60.9820   30.5076   46.1985 H   0  0  0  0  0  0  0  0  0  0  0  0
   61.0099   32.1766   46.8828 H   0  0  0  0  0  0  0  0  0  0  0  0
   58.2102   31.6949   48.3341 H   0  0  0  0  0  0  0  0  0  0  0  0
   57.7621   30.8109   50.6218 H   0  0  0  0  0  0  0  0  0  0  0  0
   59.4198   29.3132   51.7344 H   0  0  0  0  0  0  0  0  0  0  0  0
   61.5397   28.7086   50.5589 H   0  0  0  0  0  0  0  0  0  0  0  0
   62.0093   29.6114   48.2801 H   0  0  0  0  0  0  0  0  0  0  0  0
   58.8669   28.8207   46.6482 H   0  0  0  0  0  0  0  0  0  0  0  0
  1  2  1  0
  2  3  1  0
  3  4  1  0
  4  5  1  0
  3  6  1  0
  6  7  2  0
  6  8  1  0
  8  9  2  0
  9 10  1  0
 10 11  2  0
 11 12  1  0
 12 13  2  0
 13 14  1  0
 14 15  2  0
 14 16  1  0
 16 17  1  0
 17 18  2  0
 18 19  1  0
 19 20  1  0
 20 21  1  0
 19 22  2  0
 22 23  1  0
 23 24  2  0
 24 25  1  0
 25 26  1  0
 13 27  1  0
 27 28  1  0
 28 29  1  0
 29 30  2  0
 30 31  1  0
 31 32  2  0
 32 33  1  0
 33 34  2  0
 27 35  1  0
 35 36  2  0
 36  8  1  0
 35 11  1  0
 24 17  1  0
 34 29  1  0
  1 37  1  0
  1 38  1  0
  1 39  1  0
  2 40  1  0
  2 41  1  0
  4 42  1  0
  4 43  1  0
  5 44  1  0
  5 45  1  0
  5 46  1  0
  9 47  1  0
 12 48  1  0
 18 49  1  0
 21 50  1  0
 21 51  1  0
 21 52  1  0
 22 53  1  0
 23 54  1  0
 26 55  1  0
 26 56  1  0
 26 57  1  0
 28 58  1  0
 28 59  1  0
 30 60  1  0
 31 61  1  0
 32 62  1  0
 33 63  1  0
 34 64  1  0
 36 65  1  0
M  CHG  1  16  -1
M  END
>  <UniqueID>  (87) 
81

>  <SMILES>  (87) 
CCN(CC)C(=O)c1cnc2cc(C(=O)[N-]c3cc(OC)ccc3OC)n(Cc3ccccc3)c2c1

>  <Energy>  (87) 
107.28700365471225

>  <Genealogy>  (87) 
CCN(CC)C(=O)c1cnc2cc(C(=O)[N-]c3cc(OC)ccc3OC)n(Cc3ccccc3)c2c1 (protonated)
CCN(CC)C(=O)c1cnc2cc(C(=O)[N-]c3cc(OC)ccc3OC)n(Cc3ccccc3)c2c1 (3D coordinates assigned)
CCN(CC)C(=O)c1cnc2cc(C(=O)[N-]c3cc(OC)ccc3OC)n(Cc3ccccc3)c2c1 (optimized conformer: 107.28700365471225 kcal/mol)

>  <smiles>  (87) 
CCN(CC)C(=O)c1cnc2cc(C(=O)Nc3cc(OC)ccc3OC)n(Cc3ccccc3)c2c1

>  <score_type>  (87) 
oracle

>  <origin>  (87) 
adg

>  <m_score__min__energy>  (87) 
-10.32

>  <m_primary>  (87) 
energy

$$$$
87:0
     RDKit          3D

 50 52  0  0  0  0  0  0  0  0999 V2000
   52.7670   24.0270   44.8590 C   0  0  0  0  0  0  0  0  0  0  0  0
   53.7880   23.1480   45.3240 O   0  0  0  0  0  0  0  0  0  0  0  0
   54.6230   23.4620   46.4000 C   0  0  0  0  0  0  0  0  0  0  0  0
   54.3420   23.0350   47.5540 O   0  0  0  0  0  0  0  0  0  0  0  0
   55.8160   24.3240   46.1760 C   0  0  0  0  0  0  0  0  0  0  0  0
   57.1000   23.7370   46.1630 C   0  0  0  0  0  0  0  0  0  0  0  0
   58.2350   24.5010   45.8760 C   0  0  0  0  0  0  0  0  0  0  0  0
   58.1080   25.8590   45.5940 C   0  0  0  0  0  0  0  0  0  0  0  0
   56.8470   26.4760   45.6390 C   0  0  0  0  0  0  0  0  0  0  0  0
   56.7420   27.8760   45.3510 N   0  0  0  0  0  0  0  0  0  0  0  0
   57.6440   28.8610   45.8930 C   0  0  0  0  0  0  0  0  0  0  0  0
   58.1450   28.7190   47.2020 C   0  0  0  0  0  0  0  0  0  0  0  0
   59.1510   29.5630   47.6920 C   0  0  0  0  0  0  0  0  0  0  0  0
   59.8580   29.2210   49.2780 S   0  0  0  0  0  0  0  0  0  0  0  0
   60.9730   30.1880   49.5700 O   0  0  0  0  0  0  0  0  0  0  0  0
   60.3880   27.8150   49.3140 O   0  0  0  0  0  0  0  0  0  0  0  0
   58.6860   29.3680   50.4710 O   0  0  0  0  0  0  0  0  0  0  0  0
   59.6440   30.5980   46.8690 C   0  0  0  0  0  0  0  0  0  0  0  0
   60.6790   31.4850   47.3210 N   0  0  0  0  0  0  0  0  0  0  0  0
   60.3330   32.7930   47.8960 C   0  0  0  0  0  0  0  0  0  0  0  0
   61.1980   33.8940   47.2680 C   0  0  0  0  0  0  0  0  0  0  0  0
   62.7080   33.5480   47.2360 C   0  0  0  0  0  0  0  0  0  0  0  0
   63.0270   32.1360   47.7440 C   0  0  0  0  0  0  0  0  0  0  0  0
   62.0840   31.1070   47.1150 C   0  0  0  0  0  0  0  0  0  0  0  0
   59.1330   30.7540   45.5710 C   0  0  0  0  0  0  0  0  0  0  0  0
   58.1370   29.9020   45.0790 C   0  0  0  0  0  0  0  0  0  0  0  0
   57.6260   30.1210   43.7560 N   0  0  0  0  0  0  0  0  0  0  0  0
   55.7000   25.7140   45.9320 C   0  0  0  0  0  0  0  0  0  0  0  0
   54.4550   26.3400   45.9570 O   0  0  0  0  0  0  0  0  0  0  0  0
   52.2479   24.4739   45.7197 H   0  0  0  0  0  0  0  0  0  0  0  0
   53.2185   24.8234   44.2492 H   0  0  0  0  0  0  0  0  0  0  0  0
   52.0466   23.4621   44.2492 H   0  0  0  0  0  0  0  0  0  0  0  0
   57.2087   22.6644   46.3816 H   0  0  0  0  0  0  0  0  0  0  0  0
   59.2288   24.0294   45.8729 H   0  0  0  0  0  0  0  0  0  0  0  0
   58.9985   26.4505   45.3351 H   0  0  0  0  0  0  0  0  0  0  0  0
   56.1370   28.1510   44.5460 H   0  0  0  0  0  0  0  0  0  0  0  0
   57.7387   27.9303   47.8523 H   0  0  0  0  0  0  0  0  0  0  0  0
   59.2723   33.0075   47.6987 H   0  0  0  0  0  0  0  0  0  0  0  0
   60.5159   32.7679   48.9804 H   0  0  0  0  0  0  0  0  0  0  0  0
   60.8563   34.0593   46.2356 H   0  0  0  0  0  0  0  0  0  0  0  0
   61.0841   34.7921   47.8929 H   0  0  0  0  0  0  0  0  0  0  0  0
   63.0618   33.6319   46.1978 H   0  0  0  0  0  0  0  0  0  0  0  0
   63.2145   34.2546   47.9099 H   0  0  0  0  0  0  0  0  0  0  0  0
   64.0645   31.8834   47.4799 H   0  0  0  0  0  0  0  0  0  0  0  0
   62.8944   32.1153   48.8358 H   0  0  0  0  0  0  0  0  0  0  0  0
   62.2857   31.0469   46.0353 H   0  0  0  0  0  0  0  0  0  0  0  0
   62.2586   30.1325   47.5945 H   0  0  0  0  0  0  0  0  0  0  0  0
   59.5215   31.5589   44.9298 H   0  0  0  0  0  0  0  0  0  0  0  0
   56.7680   30.6890   43.5790 H   0  0  0  0  0  0  0  0  0  0  0  0
   58.1380   29.7590   42.9230 H   0  0  0  0  0  0  0  0  0  0  0  0
  1  2  1  0
  2  3  1  0
  3  4  2  0
  3  5  1  0
  5  6  2  0
  6  7  1  0
  7  8  2  0
  8  9  1  0
  9 10  1  0
 10 11  1  0
 11 12  2  0
 12 13  1  0
 13 14  1  0
 14 15  2  0
 14 16  2  0
 14 17  1  0
 13 18  2  0
 18 19  1  0
 19 20  1  0
 20 21  1  0
 21 22  1  0
 22 23  1  0
 23 24  1  0
 18 25  1  0
 25 26  2  0
 26 27  1  0
  9 28  2  0
 28 29  1  0
 28  5  1  0
 26 11  1  0
 24 19  1  0
  1 30  1  0
  1 31  1  0
  1 32  1  0
  6 33  1  0
  7 34  1  0
  8 35  1  0
 10 36  1  0
 12 37  1  0
 20 38  1  0
 20 39  1  0
 21 40  1  0
 21 41  1  0
 22 42  1  0
 22 43  1  0
 23 44  1  0
 23 45  1  0
 24 46  1  0
 24 47  1  0
 25 48  1  0
 27 49  1  0
 27 50  1  0
M  CHG  2  17  -1  29  -1
M  END
>  <UniqueID>  (88) 
82

>  <SMILES>  (88) 
COC(=O)c1cccc(Nc2cc(S(=O)(=O)[O-])c(N3CCCCC3)cc2N)c1[O-]

>  <Energy>  (88) 
68.0067808920262

>  <Genealogy>  (88) 
COC(=O)c1cccc(Nc2cc(S(=O)(=O)[O-])c(N3CCCCC3)cc2N)c1[O-] (protonated)
COC(=O)c1cccc(Nc2cc(S(=O)(=O)[O-])c(N3CCCCC3)cc2N)c1[O-] (3D coordinates assigned)
COC(=O)c1cccc(Nc2cc(S(=O)(=O)[O-])c(N3CCCCC3)cc2N)c1[O-] (nonaromatic ring conformer: 68.0067808920262 kcal/mol)

>  <smiles>  (88) 
COC(=O)c1cccc(Nc2cc(S(=O)(=O)O)c(N3CCCCC3)cc2N)c1O

>  <score_type>  (88) 
oracle

>  <origin>  (88) 
adg

>  <m_score__min__energy>  (88) 
-13.67

>  <m_primary>  (88) 
energy

$$$$
88:0
     RDKit          3D

 34 36  0  0  0  0  0  0  0  0999 V2000
   60.6820   27.2820   46.1280 C   0  0  0  0  0  0  0  0  0  0  0  0
   59.3620   27.7850   45.7050 N   0  0  0  0  0  0  0  0  0  0  0  0
   59.2270   29.0030   45.0720 C   0  0  0  0  0  0  0  0  0  0  0  0
   60.2500   29.7130   44.8560 O   0  0  0  0  0  0  0  0  0  0  0  0
   57.9850   29.4610   44.6720 N   0  0  0  0  0  0  0  0  0  0  0  0
   57.8570   30.7750   44.0110 C   0  0  0  0  0  0  0  0  0  0  0  0
   57.0210   31.7240   44.8750 C   0  0  0  0  0  0  0  0  0  0  0  0
   57.8890   32.7910   45.4840 C   0  0  0  0  0  0  0  0  0  0  0  0
   58.4620   33.7860   44.6740 C   0  0  0  0  0  0  0  0  0  0  0  0
   59.2420   34.7970   45.2460 C   0  0  0  0  0  0  0  0  0  0  0  0
   59.4470   34.8260   46.6280 C   0  0  0  0  0  0  0  0  0  0  0  0
   58.8690   33.8470   47.4420 C   0  0  0  0  0  0  0  0  0  0  0  0
   58.0880   32.8350   46.8740 C   0  0  0  0  0  0  0  0  0  0  0  0
   56.8600   28.7190   44.9360 C   0  0  0  0  0  0  0  0  0  0  0  0
   55.7110   29.1310   44.6120 O   0  0  0  0  0  0  0  0  0  0  0  0
   56.9990   27.5010   45.5770 C   0  0  0  0  0  0  0  0  0  0  0  0
   55.8170   26.3940   46.0210 S   0  0  0  0  0  0  0  0  0  0  0  0
   56.8950   25.2920   46.7110 C   0  0  0  0  0  0  0  0  0  0  0  0
   58.1900   25.7920   46.5980 C   0  0  0  0  0  0  0  0  0  0  0  0
   58.2400   27.0430   45.9540 C   0  0  0  0  0  0  0  0  0  0  0  0
   60.7322   27.2629   47.2267 H   0  0  0  0  0  0  0  0  0  0  0  0
   60.8294   26.2647   45.7364 H   0  0  0  0  0  0  0  0  0  0  0  0
   61.4691   27.9432   45.7364 H   0  0  0  0  0  0  0  0  0  0  0  0
   58.8582   31.2059   43.8627 H   0  0  0  0  0  0  0  0  0  0  0  0
   57.3577   30.6406   43.0401 H   0  0  0  0  0  0  0  0  0  0  0  0
   56.2509   32.1985   44.2491 H   0  0  0  0  0  0  0  0  0  0  0  0
   56.5514   31.1452   45.6840 H   0  0  0  0  0  0  0  0  0  0  0  0
   58.2968   33.7700   43.5866 H   0  0  0  0  0  0  0  0  0  0  0  0
   59.6943   35.5698   44.6071 H   0  0  0  0  0  0  0  0  0  0  0  0
   60.0634   35.6194   47.0757 H   0  0  0  0  0  0  0  0  0  0  0  0
   59.0286   33.8727   48.5301 H   0  0  0  0  0  0  0  0  0  0  0  0
   57.6280   32.0710   47.5180 H   0  0  0  0  0  0  0  0  0  0  0  0
   56.6188   24.3336   47.1750 H   0  0  0  0  0  0  0  0  0  0  0  0
   59.0800   25.2650   46.9725 H   0  0  0  0  0  0  0  0  0  0  0  0
  1  2  1  0
  2  3  1  0
  3  4  2  0
  3  5  1  0
  5  6  1  0
  6  7  1  0
  7  8  1  0
  8  9  2  0
  9 10  1  0
 10 11  2  0
 11 12  1  0
 12 13  2  0
  5 14  1  0
 14 15  2  0
 14 16  1  0
 16 17  1  0
 17 18  1  0
 18 19  2  0
 19 20  1  0
 20  2  1  0
 13  8  1  0
 20 16  2  0
  1 21  1  0
  1 22  1  0
  1 23  1  0
  6 24  1  0
  6 25  1  0
  7 26  1  0
  7 27  1  0
  9 28  1  0
 10 29  1  0
 11 30  1  0
 12 31  1  0
 13 32  1  0
 18 33  1  0
 19 34  1  0
M  END
>  <UniqueID>  (89) 
83

>  <SMILES>  (89) 
Cn1c(=O)n(CCc2ccccc2)c(=O)c2sccc21

>  <Energy>  (89) 
73.11441784999808

>  <Genealogy>  (89) 
Cn1c(=O)n(CCc2ccccc2)c(=O)c2sccc21 (3D coordinates assigned)
Cn1c(=O)n(CCc2ccccc2)c(=O)c2sccc21 (optimized conformer: 73.11441784999808 kcal/mol)

>  <smiles>  (89) 
Cn1c(=O)n(CCc2ccccc2)c(=O)c2sccc21

>  <score_type>  (89) 
oracle

>  <origin>  (89) 
adg

>  <m_score__min__energy>  (89) 
-6.8600000000000003

>  <m_primary>  (89) 
energy

$$$$
89:0
     RDKit          3D

 50 53  0  0  1  0  0  0  0  0999 V2000
   58.1670   31.0830   50.7130 C   0  0  0  0  0  0  0  0  0  0  0  0
   59.2250   30.7770   49.7340 C   0  0  0  0  0  0  0  0  0  0  0  0
   60.5480   31.1340   49.9000 C   0  0  0  0  0  0  0  0  0  0  0  0
   61.4780   30.8080   48.9340 C   0  0  0  0  0  0  0  0  0  0  0  0
   62.7330   31.1170   49.0360 N   0  0  0  0  0  0  0  0  0  0  0  0
   63.3750   31.7350   47.9220 C   0  0  0  0  0  0  0  0  0  0  0  0
   63.3050   31.2410   46.7680 O   0  0  0  0  0  0  0  0  0  0  0  0
   64.1270   32.9950   48.2170 C   0  0  0  0  0  0  0  0  0  0  0  0
   63.1110   34.2280   49.0370 S   0  0  0  0  0  0  0  0  0  0  0  0
   61.3940   34.1260   48.6420 C   0  0  0  0  0  0  0  0  0  0  0  0
   60.4070   34.3860   49.5480 N   0  0  0  0  0  0  0  0  0  0  0  0
   59.2500   34.2240   48.9340 N   0  0  0  0  0  0  0  0  0  0  0  0
   59.4360   33.8650   47.6520 C   0  0  0  0  0  0  0  0  0  0  0  0
   58.3930   33.6140   46.7250 N   0  0  0  0  0  0  0  0  0  0  0  0
   58.1270   32.4180   46.3640 C   0  0  0  0  0  0  0  0  0  0  0  0
   57.8200   32.0270   44.9940 C   0  0  0  0  0  0  0  0  0  0  0  0
   57.0100   30.9280   44.7110 C   0  0  0  0  0  0  0  0  0  0  0  0
   56.7150   30.5510   43.4150 C   0  0  0  0  0  0  0  0  0  0  0  0
   57.2150   31.2580   42.3550 C   0  0  0  0  0  0  0  0  0  0  0  0
   58.0290   32.3650   42.6070 C   0  0  0  0  0  0  0  0  0  0  0  0
   58.3150   32.7270   43.9200 C   0  0  0  0  0  0  0  0  0  0  0  0
   59.1320   33.8380   44.1530 O   0  0  0  0  0  0  0  0  0  0  0  0
   60.7710   33.8110   47.4920 N   0  0  0  0  0  0  0  0  0  0  0  0
   61.4000   33.4790   46.3110 N   0  0  0  0  0  0  0  0  0  0  0  0
   61.0700   30.1350   47.8240 N   0  0  0  0  0  0  0  0  0  0  0  0
   59.7840   29.7980   47.6830 C   0  0  0  0  0  0  0  0  0  0  0  0
   59.4160   29.0780   46.4720 C   0  0  0  0  0  0  0  0  0  0  0  0
   59.9780   28.9900   45.2640 C   0  0  0  0  0  0  0  0  0  0  0  0
   59.4030   28.2330   44.3160 C   0  0  0  0  0  0  0  0  0  0  0  0
   58.2400   27.5760   44.6520 C   0  0  0  0  0  0  0  0  0  0  0  0
   57.9050   28.0310   46.4080 S   0  0  0  0  0  0  0  0  0  0  0  0
   58.8630   30.1050   48.6130 N   0  0  0  0  0  0  0  0  0  0  0  0
   58.5656   30.9677   51.7317 H   0  0  0  0  0  0  0  0  0  0  0  0
   57.8223   32.1176   50.5690 H   0  0  0  0  0  0  0  0  0  0  0  0
   57.3233   30.3921   50.5690 H   0  0  0  0  0  0  0  0  0  0  0  0
   60.8612   31.6787   50.8029 H   0  0  0  0  0  0  0  0  0  0  0  0
   64.9803   32.7522   48.8673 H   0  0  0  0  0  0  0  0  0  0  0  0
   64.4569   33.4192   47.2572 H   0  0  0  0  0  0  0  0  0  0  0  0
   58.1298   31.6340   47.1355 H   0  0  0  0  0  0  0  0  0  0  0  0
   56.5933   30.3436   45.5446 H   0  0  0  0  0  0  0  0  0  0  0  0
   56.0735   29.6761   43.2337 H   0  0  0  0  0  0  0  0  0  0  0  0
   56.9800   30.9597   41.3226 H   0  0  0  0  0  0  0  0  0  0  0  0
   58.4423   32.9482   41.7709 H   0  0  0  0  0  0  0  0  0  0  0  0
   59.0110   34.4140   44.9730 H   0  0  0  0  0  0  0  0  0  0  0  0
   60.8570   33.6110   45.4210 H   0  0  0  0  0  0  0  0  0  0  0  0
   62.3610   33.1110   46.2070 H   0  0  0  0  0  0  0  0  0  0  0  0
   61.7700   29.8780   47.0750 H   0  0  0  0  0  0  0  0  0  0  0  0
   60.9082   29.5354   45.0465 H   0  0  0  0  0  0  0  0  0  0  0  0
   59.8427   28.1412   43.3119 H   0  0  0  0  0  0  0  0  0  0  0  0
   57.6375   26.9181   44.0084 H   0  0  0  0  0  0  0  0  0  0  0  0
  1  2  1  0
  2  3  2  0
  3  4  1  0
  4  5  2  0
  5  6  1  0
  6  7  2  0
  6  8  1  0
  8  9  1  0
  9 10  1  0
 10 11  2  0
 11 12  1  0
 12 13  2  0
 13 14  1  0
 14 15  2  0
 15 16  1  0
 16 17  2  0
 17 18  1  0
 18 19  2  0
 19 20  1  0
 20 21  2  0
 21 22  1  0
 13 23  1  0
 23 24  1  0
  4 25  1  0
 25 26  1  0
 26 27  1  0
 27 28  2  0
 28 29  1  0
 29 30  2  0
 30 31  1  0
 26 32  2  0
 32  2  1  0
 23 10  1  0
 31 27  1  0
 21 16  1  0
  1 33  1  0
  1 34  1  0
  1 35  1  0
  3 36  1  0
  8 37  1  0
  8 38  1  0
 15 39  1  0
 17 40  1  0
 18 41  1  0
 19 42  1  0
 20 43  1  0
 22 44  1  0
 24 45  1  0
 24 46  1  0
 25 47  1  0
 28 48  1  0
 29 49  1  0
 30 50  1  0
M  END
>  <smiles>  (90) 
Cc1cc(=NC(=O)CSc2nnc(N=Cc3ccccc3O)n2N)[nH]c(-c2cccs2)n1

>  <score_type>  (90) 
oracle

>  <origin>  (90) 
adg

>  <m_score__min__energy>  (90) 
-10.42

>  <m_primary>  (90) 
energy

$$$$
90:0
     RDKit          3D

 52 55  0  0  0  0  0  0  0  0999 V2000
   57.0070   21.1000   43.0000 C   0  0  0  0  0  0  0  0  0  0  0  0
   56.0000   21.9190   43.5900 O   0  0  0  0  0  0  0  0  0  0  0  0
   56.2620   23.0820   44.3310 C   0  0  0  0  0  0  0  0  0  0  0  0
   55.2350   23.9060   44.8320 C   0  0  0  0  0  0  0  0  0  0  0  0
   55.5460   25.0620   45.5560 C   0  0  0  0  0  0  0  0  0  0  0  0
   56.8850   25.4060   45.7880 C   0  0  0  0  0  0  0  0  0  0  0  0
   57.2330   26.5580   46.4980 C   0  0  0  0  0  0  0  0  0  0  0  0
   58.5820   26.8670   46.7070 C   0  0  0  0  0  0  0  0  0  0  0  0
   58.9300   28.0600   47.4350 N   0  0  0  0  0  0  0  0  0  0  0  0
   59.7880   29.0860   46.9050 C   0  0  0  0  0  0  0  0  0  0  0  0
   59.8850   29.2210   45.6530 O   0  0  0  0  0  0  0  0  0  0  0  0
   60.5510   30.0000   47.7980 C   0  0  0  0  0  0  0  0  0  0  0  0
   60.7660   29.6970   49.1570 C   0  0  0  0  0  0  0  0  0  0  0  0
   61.5000   30.5640   49.9720 C   0  0  0  0  0  0  0  0  0  0  0  0
   62.0500   31.7310   49.4430 C   0  0  0  0  0  0  0  0  0  0  0  0
   61.8660   32.0390   48.0910 C   0  0  0  0  0  0  0  0  0  0  0  0
   62.6070   33.4790   47.3950 S   0  0  0  0  0  0  0  0  0  0  0  0
   63.2710   34.2590   48.4930 O   0  0  0  0  0  0  0  0  0  0  0  0
   63.6350   33.1090   46.3640 O   0  0  0  0  0  0  0  0  0  0  0  0
   61.3880   34.4660   46.6540 N   0  0  0  0  0  0  0  0  0  0  0  0
   60.0380   34.0620   46.3860 C   0  0  0  0  0  0  0  0  0  0  0  0
   59.5880   33.8530   45.0690 C   0  0  0  0  0  0  0  0  0  0  0  0
   58.2720   33.4580   44.8280 C   0  0  0  0  0  0  0  0  0  0  0  0
   57.3920   33.2700   45.8950 C   0  0  0  0  0  0  0  0  0  0  0  0
   57.8210   33.4780   47.2050 C   0  0  0  0  0  0  0  0  0  0  0  0
   59.1430   33.8790   47.4610 C   0  0  0  0  0  0  0  0  0  0  0  0
   59.5960   34.0890   48.8780 C   0  0  0  0  0  0  0  0  0  0  0  0
   61.1120   31.1810   47.2780 C   0  0  0  0  0  0  0  0  0  0  0  0
   59.5540   25.9580   46.2320 C   0  0  0  0  0  0  0  0  0  0  0  0
   60.7780   26.1420   46.4670 O   0  0  0  0  0  0  0  0  0  0  0  0
   59.1880   24.8770   45.5490 O   0  0  0  0  0  0  0  0  0  0  0  0
   57.9160   24.5760   45.3040 C   0  0  0  0  0  0  0  0  0  0  0  0
   57.5990   23.4260   44.5740 C   0  0  0  0  0  0  0  0  0  0  0  0
   57.5989   20.6186   43.7924 H   0  0  0  0  0  0  0  0  0  0  0  0
   56.5328   20.3280   42.3762 H   0  0  0  0  0  0  0  0  0  0  0  0
   57.6662   21.7216   42.3762 H   0  0  0  0  0  0  0  0  0  0  0  0
   54.1830   23.6390   44.6530 H   0  0  0  0  0  0  0  0  0  0  0  0
   54.7392   25.7015   45.9435 H   0  0  0  0  0  0  0  0  0  0  0  0
   56.4484   27.2207   46.8919 H   0  0  0  0  0  0  0  0  0  0  0  0
   58.3870   28.2690   48.3020 H   0  0  0  0  0  0  0  0  0  0  0  0
   60.3526   28.7699   49.5807 H   0  0  0  0  0  0  0  0  0  0  0  0
   61.6443   30.3243   51.0358 H   0  0  0  0  0  0  0  0  0  0  0  0
   62.6281   32.4088   50.0883 H   0  0  0  0  0  0  0  0  0  0  0  0
   60.2777   34.0019   44.2251 H   0  0  0  0  0  0  0  0  0  0  0  0
   57.9275   33.2945   43.7962 H   0  0  0  0  0  0  0  0  0  0  0  0
   56.3556   32.9564   45.7014 H   0  0  0  0  0  0  0  0  0  0  0  0
   57.1221   33.3277   48.0411 H   0  0  0  0  0  0  0  0  0  0  0  0
   58.8191   33.7289   49.5685 H   0  0  0  0  0  0  0  0  0  0  0  0
   60.5280   33.5311   49.0515 H   0  0  0  0  0  0  0  0  0  0  0  0
   59.7725   35.1608   49.0515 H   0  0  0  0  0  0  0  0  0  0  0  0
   60.9568   31.4346   46.2189 H   0  0  0  0  0  0  0  0  0  0  0  0
   58.4057   22.7860   44.1872 H   0  0  0  0  0  0  0  0  0  0  0  0
  1  2  1  0
  2  3  1  0
  3  4  2  0
  4  5  1  0
  5  6  2  0
  6  7  1  0
  7  8  2  0
  8  9  1  0
  9 10  1  0
 10 11  2  0
 10 12  1  0
 12 13  2  0
 13 14  1  0
 14 15  2  0
 15 16  1  0
 16 17  1  0
 17 18  2  0
 17 19  2  0
 17 20  1  0
 20 21  1  0
 21 22  2  0
 22 23  1  0
 23 24  2  0
 24 25  1  0
 25 26  2  0
 26 27  1  0
 16 28  2  0
  8 29  1  0
 29 30  2  0
 29 31  1  0
 31 32  1  0
 32 33  2  0
 33  3  1  0
 32  6  1  0
 28 12  1  0
 26 21  1  0
  1 34  1  0
  1 35  1  0
  1 36  1  0
  4 37  1  0
  5 38  1  0
  7 39  1  0
  9 40  1  0
 13 41  1  0
 14 42  1  0
 15 43  1  0
 22 44  1  0
 23 45  1  0
 24 46  1  0
 25 47  1  0
 27 48  1  0
 27 49  1  0
 27 50  1  0
 28 51  1  0
 33 52  1  0
M  CHG  1  20  -1
M  END
>  <UniqueID>  (91) 
84

>  <SMILES>  (91) 
COc1ccc2cc(NC(=O)c3cccc(S(=O)(=O)[N-]c4ccccc4C)c3)c(=O)oc2c1

>  <Energy>  (91) 
71.06024523936188

>  <Genealogy>  (91) 
COc1ccc2cc(NC(=O)c3cccc(S(=O)(=O)[N-]c4ccccc4C)c3)c(=O)oc2c1 (protonated)
COc1ccc2cc(NC(=O)c3cccc(S(=O)(=O)[N-]c4ccccc4C)c3)c(=O)oc2c1 (3D coordinates assigned)
COc1ccc2cc(NC(=O)c3cccc(S(=O)(=O)[N-]c4ccccc4C)c3)c(=O)oc2c1 (optimized conformer: 71.06024523936188 kcal/mol)

>  <smiles>  (91) 
COc1ccc2cc(NC(=O)c3cccc(S(=O)(=O)Nc4ccccc4C)c3)c(=O)oc2c1

>  <score_type>  (91) 
oracle

>  <origin>  (91) 
adg

>  <m_score__min__energy>  (91) 
-11.390000000000001

>  <m_primary>  (91) 
energy

$$$$
91:0
     RDKit          3D

 42 44  0  0  0  0  0  0  0  0999 V2000
   57.5210   21.4740   45.0220 C   0  0  0  0  0  0  0  0  0  0  0  0
   56.7210   22.7080   45.3350 C   0  0  0  0  0  0  0  0  0  0  0  0
   55.3230   22.6640   45.3040 C   0  0  0  0  0  0  0  0  0  0  0  0
   54.5750   23.8230   45.5350 C   0  0  0  0  0  0  0  0  0  0  0  0
   55.2100   25.0460   45.7810 C   0  0  0  0  0  0  0  0  0  0  0  0
   54.4040   26.1780   45.9480 O   0  0  0  0  0  0  0  0  0  0  0  0
   56.6270   25.1010   45.8360 C   0  0  0  0  0  0  0  0  0  0  0  0
   57.3900   26.3740   46.1410 C   0  0  0  0  0  0  0  0  0  0  0  0
   57.2650   27.3910   45.0020 C   0  0  0  0  0  0  0  0  0  0  0  0
   56.2380   28.3960   45.3190 N   0  0  0  0  0  0  0  0  0  0  0  0
   56.4350   29.8640   44.3970 S   0  0  0  0  0  0  0  0  0  0  0  0
   55.1260   30.5990   44.2390 O   0  0  0  0  0  0  0  0  0  0  0  0
   56.9430   29.5140   43.0260 O   0  0  0  0  0  0  0  0  0  0  0  0
   57.6290   30.8830   45.1940 C   0  0  0  0  0  0  0  0  0  0  0  0
   58.6190   30.2800   45.9800 C   0  0  0  0  0  0  0  0  0  0  0  0
   59.6100   31.0510   46.5910 C   0  0  0  0  0  0  0  0  0  0  0  0
   59.6170   32.4410   46.4250 C   0  0  0  0  0  0  0  0  0  0  0  0
   60.6180   33.2240   47.0240 C   0  0  0  0  0  0  0  0  0  0  0  0
   60.6180   34.6090   46.8510 C   0  0  0  0  0  0  0  0  0  0  0  0
   59.6110   35.2290   46.1010 C   0  0  0  0  0  0  0  0  0  0  0  0
   58.6080   34.4610   45.4980 C   0  0  0  0  0  0  0  0  0  0  0  0
   58.6040   33.0630   45.6480 C   0  0  0  0  0  0  0  0  0  0  0  0
   57.6110   32.2760   45.0420 C   0  0  0  0  0  0  0  0  0  0  0  0
   57.3660   23.9280   45.5900 C   0  0  0  0  0  0  0  0  0  0  0  0
   57.8335   20.9919   45.9600 H   0  0  0  0  0  0  0  0  0  0  0  0
   56.9037   20.7751   44.4385 H   0  0  0  0  0  0  0  0  0  0  0  0
   58.4110   21.7522   44.4385 H   0  0  0  0  0  0  0  0  0  0  0  0
   54.8097   21.7134   45.0970 H   0  0  0  0  0  0  0  0  0  0  0  0
   53.4762   23.7730   45.5232 H   0  0  0  0  0  0  0  0  0  0  0  0
   54.7810   27.1120   45.9790 H   0  0  0  0  0  0  0  0  0  0  0  0
   56.9882   26.8192   47.0632 H   0  0  0  0  0  0  0  0  0  0  0  0
   58.4533   26.1186   46.2600 H   0  0  0  0  0  0  0  0  0  0  0  0
   58.2323   27.8947   44.8586 H   0  0  0  0  0  0  0  0  0  0  0  0
   56.9732   26.8618   44.0829 H   0  0  0  0  0  0  0  0  0  0  0  0
   58.6159   29.1886   46.1173 H   0  0  0  0  0  0  0  0  0  0  0  0
   60.3851   30.5662   47.2027 H   0  0  0  0  0  0  0  0  0  0  0  0
   61.4019   32.7454   47.6294 H   0  0  0  0  0  0  0  0  0  0  0  0
   61.4136   35.2170   47.3064 H   0  0  0  0  0  0  0  0  0  0  0  0
   59.6082   36.3229   45.9854 H   0  0  0  0  0  0  0  0  0  0  0  0
   57.8217   34.9520   44.9058 H   0  0  0  0  0  0  0  0  0  0  0  0
   56.8183   32.7536   44.4474 H   0  0  0  0  0  0  0  0  0  0  0  0
   58.4652   23.9685   45.5978 H   0  0  0  0  0  0  0  0  0  0  0  0
  1  2  1  0
  2  3  2  0
  3  4  1  0
  4  5  2  0
  5  6  1  0
  5  7  1  0
  7  8  1  0
  8  9  1  0
  9 10  1  0
 10 11  1  0
 11 12  2  0
 11 13  2  0
 11 14  1  0
 14 15  2  0
 15 16  1  0
 16 17  2  0
 17 18  1  0
 18 19  2  0
 19 20  1  0
 20 21  2  0
 21 22  1  0
 22 23  2  0
  7 24  2  0
 24  2  1  0
 23 14  1  0
 22 17  1  0
  1 25  1  0
  1 26  1  0
  1 27  1  0
  3 28  1  0
  4 29  1  0
  6 30  1  0
  8 31  1  0
  8 32  1  0
  9 33  1  0
  9 34  1  0
 15 35  1  0
 16 36  1  0
 18 37  1  0
 19 38  1  0
 20 39  1  0
 21 40  1  0
 23 41  1  0
 24 42  1  0
M  CHG  1  10  -1
M  END
>  <UniqueID>  (92) 
85

>  <SMILES>  (92) 
Cc1ccc(O)c(CC[N-]S(=O)(=O)c2ccc3ccccc3c2)c1

>  <Energy>  (92) 
42.07236082939797

>  <Genealogy>  (92) 
Cc1ccc(O)c(CC[N-]S(=O)(=O)c2ccc3ccccc3c2)c1 (protonated)
Cc1ccc(O)c(CC[N-]S(=O)(=O)c2ccc3ccccc3c2)c1 (3D coordinates assigned)
Cc1ccc(O)c(CC[N-]S(=O)(=O)c2ccc3ccccc3c2)c1 (optimized conformer: 42.07236082939797 kcal/mol)

>  <smiles>  (92) 
Cc1ccc(O)c(CCNS(=O)(=O)c2ccc3ccccc3c2)c1

>  <score_type>  (92) 
oracle

>  <origin>  (92) 
adg

>  <m_score__min__energy>  (92) 
-12.19

>  <m_primary>  (92) 
energy

$$$$
92:0
     RDKit          3D

 46 49  0  0  0  0  0  0  0  0999 V2000
   58.1980   32.6330   48.4270 Cl  0  0  0  0  0  0  0  0  0  0  0  0
   58.3130   32.9840   46.7120 C   0  0  0  0  0  0  0  0  0  0  0  0
   59.0420   34.0930   46.2730 C   0  0  0  0  0  0  0  0  0  0  0  0
   59.1430   34.3660   44.9060 C   0  0  0  0  0  0  0  0  0  0  0  0
   58.5120   33.5340   43.9750 C   0  0  0  0  0  0  0  0  0  0  0  0
   57.7660   32.4270   44.4090 C   0  0  0  0  0  0  0  0  0  0  0  0
   57.1330   31.5020   43.4080 C   0  0  0  0  0  0  0  0  0  0  0  0
   56.8800   30.2050   44.0240 N   0  0  0  0  0  0  0  0  0  0  0  0
   57.7690   29.2040   44.1780 C   0  0  0  0  0  0  0  0  0  0  0  0
   57.1220   28.2270   44.9060 C   0  0  0  0  0  0  0  0  0  0  0  0
   57.7130   26.9550   45.4290 C   0  0  0  0  0  0  0  0  0  0  0  0
   58.0140   27.0810   46.9250 C   0  0  0  0  0  0  0  0  0  0  0  0
   58.9560   28.2280   47.1790 C   0  0  0  0  0  0  0  0  0  0  0  0
   58.9600   28.8800   48.4190 C   0  0  0  0  0  0  0  0  0  0  0  0
   59.8550   29.9240   48.6670 C   0  0  0  0  0  0  0  0  0  0  0  0
   60.7720   30.3300   47.6790 C   0  0  0  0  0  0  0  0  0  0  0  0
   61.6990   31.4060   47.9350 N   0  0  0  0  0  0  0  0  0  0  0  0
   61.9680   32.4490   47.1190 C   0  0  0  0  0  0  0  0  0  0  0  0
   62.9100   33.2730   47.7000 C   0  0  0  0  0  0  0  0  0  0  0  0
   63.2260   32.7090   48.9200 C   0  0  0  0  0  0  0  0  0  0  0  0
   62.4660   31.5640   49.0340 C   0  0  0  0  0  0  0  0  0  0  0  0
   60.7720   29.6610   46.4410 C   0  0  0  0  0  0  0  0  0  0  0  0
   59.8770   28.6180   46.1950 C   0  0  0  0  0  0  0  0  0  0  0  0
   55.8850   28.6790   45.1880 N   0  0  0  0  0  0  0  0  0  0  0  0
   55.7600   29.8810   44.6490 N   0  0  0  0  0  0  0  0  0  0  0  0
   57.6810   32.1490   45.7830 C   0  0  0  0  0  0  0  0  0  0  0  0
   59.5361   34.7507   47.0033 H   0  0  0  0  0  0  0  0  0  0  0  0
   59.7199   35.2369   44.5614 H   0  0  0  0  0  0  0  0  0  0  0  0
   58.6007   33.7480   42.8997 H   0  0  0  0  0  0  0  0  0  0  0  0
   56.1821   31.9337   43.0624 H   0  0  0  0  0  0  0  0  0  0  0  0
   57.8134   31.3714   42.5536 H   0  0  0  0  0  0  0  0  0  0  0  0
   58.8015   29.1724   43.7998 H   0  0  0  0  0  0  0  0  0  0  0  0
   57.0001   26.1324   45.2709 H   0  0  0  0  0  0  0  0  0  0  0  0
   58.6513   26.7508   44.8925 H   0  0  0  0  0  0  0  0  0  0  0  0
   57.0746   27.2567   47.4696 H   0  0  0  0  0  0  0  0  0  0  0  0
   58.4855   26.1499   47.2725 H   0  0  0  0  0  0  0  0  0  0  0  0
   58.2539   28.5680   49.2026 H   0  0  0  0  0  0  0  0  0  0  0  0
   59.8430   30.4328   49.6422 H   0  0  0  0  0  0  0  0  0  0  0  0
   61.5041   32.6166   46.1358 H   0  0  0  0  0  0  0  0  0  0  0  0
   63.3273   34.1977   47.2747 H   0  0  0  0  0  0  0  0  0  0  0  0
   63.9440   33.0973   49.6573 H   0  0  0  0  0  0  0  0  0  0  0  0
   62.4826   30.8795   49.8949 H   0  0  0  0  0  0  0  0  0  0  0  0
   61.4844   29.9629   45.6591 H   0  0  0  0  0  0  0  0  0  0  0  0
   59.8940   28.0995   45.2250 H   0  0  0  0  0  0  0  0  0  0  0  0
   55.1520   28.2000   45.7560 H   0  0  0  0  0  0  0  0  0  0  0  0
   57.1156   31.2717   46.1305 H   0  0  0  0  0  0  0  0  0  0  0  0
  1  2  1  0
  2  3  2  0
  3  4  1  0
  4  5  2  0
  5  6  1  0
  6  7  1  0
  7  8  1  0
  8  9  1  0
  9 10  2  0
 10 11  1  0
 11 12  1  0
 12 13  1  0
 13 14  2  0
 14 15  1  0
 15 16  2  0
 16 17  1  0
 17 18  1  0
 18 19  2  0
 19 20  1  0
 20 21  2  0
 16 22  1  0
 22 23  2  0
 10 24  1  0
 24 25  2  0
  6 26  2  0
 26  2  1  0
 25  8  1  0
 23 13  1  0
 21 17  1  0
  3 27  1  0
  4 28  1  0
  5 29  1  0
  7 30  1  0
  7 31  1  0
  9 32  1  0
 11 33  1  0
 11 34  1  0
 12 35  1  0
 12 36  1  0
 14 37  1  0
 15 38  1  0
 18 39  1  0
 19 40  1  0
 20 41  1  0
 21 42  1  0
 22 43  1  0
 23 44  1  0
 24 45  1  0
 26 46  1  0
M  CHG  1  24   1
M  END
>  <UniqueID>  (93) 
86

>  <SMILES>  (93) 
Clc1cccc(Cn2cc(CCc3ccc(-n4cccc4)cc3)[nH+]n2)c1

>  <Energy>  (93) 
108.94596963944548

>  <Genealogy>  (93) 
Clc1cccc(Cn2cc(CCc3ccc(-n4cccc4)cc3)[nH+]n2)c1 (protonated)
Clc1cccc(Cn2cc(CCc3ccc(-n4cccc4)cc3)[nH+]n2)c1 (3D coordinates assigned)
Clc1cccc(Cn2cc(CCc3ccc(-n4cccc4)cc3)[nH+]n2)c1 (optimized conformer: 108.94596963944548 kcal/mol)

>  <smiles>  (93) 
Clc1cccc(Cn2cc(CCc3ccc(-n4cccc4)cc3)nn2)c1

>  <score_type>  (93) 
oracle

>  <origin>  (93) 
adg

>  <m_score__min__energy>  (93) 
-7.4699999999999998

>  <m_primary>  (93) 
energy

$$$$
93:0
     RDKit          3D

 55 57  0  0  0  0  0  0  0  0999 V2000
   59.6940   33.8230   50.2500 C   0  0  0  0  0  0  0  0  0  0  0  0
   60.5040   34.3250   49.1910 O   0  0  0  0  0  0  0  0  0  0  0  0
   61.5880   33.6480   48.6140 C   0  0  0  0  0  0  0  0  0  0  0  0
   62.3450   32.7260   49.3700 C   0  0  0  0  0  0  0  0  0  0  0  0
   63.4250   32.0520   48.7980 C   0  0  0  0  0  0  0  0  0  0  0  0
   63.7670   32.2840   47.4690 C   0  0  0  0  0  0  0  0  0  0  0  0
   63.0300   33.1900   46.7080 C   0  0  0  0  0  0  0  0  0  0  0  0
   61.9410   33.8800   47.2570 C   0  0  0  0  0  0  0  0  0  0  0  0
   61.2720   34.7690   46.3950 O   0  0  0  0  0  0  0  0  0  0  0  0
   59.5900   34.8640   46.0860 S   0  0  0  0  0  0  0  0  0  0  0  0
   59.3300   35.7240   44.8820 O   0  0  0  0  0  0  0  0  0  0  0  0
   58.8930   35.4350   47.2910 O   0  0  0  0  0  0  0  0  0  0  0  0
   58.9770   33.2460   45.7730 C   0  0  0  0  0  0  0  0  0  0  0  0
   59.4140   32.1630   46.5450 C   0  0  0  0  0  0  0  0  0  0  0  0
   58.9220   30.8770   46.3010 C   0  0  0  0  0  0  0  0  0  0  0  0
   57.9820   30.6570   45.2780 C   0  0  0  0  0  0  0  0  0  0  0  0
   57.4450   29.3010   45.0110 C   0  0  0  0  0  0  0  0  0  0  0  0
   56.2010   29.1010   45.0950 O   0  0  0  0  0  0  0  0  0  0  0  0
   58.3120   28.2190   44.6370 N   0  0  0  0  0  0  0  0  0  0  0  0
   57.8030   26.8500   44.5150 C   0  0  0  0  0  0  0  0  0  0  0  0
   58.2660   25.9270   45.6660 C   0  0  2  0  0  0  0  0  0  0  0  0
   59.7540   26.1300   45.9850 C   0  0  0  0  0  0  0  0  0  0  0  0
   57.9580   24.4330   45.4130 C   0  0  0  0  0  0  0  0  0  0  0  0
   56.5180   24.2060   45.1920 N   0  0  0  0  0  0  0  0  0  0  0  0
   56.1180   23.5730   44.0480 C   0  0  0  0  0  0  0  0  0  0  0  0
   54.7680   23.3240   43.8100 C   0  0  0  0  0  0  0  0  0  0  0  0
   53.8390   23.7330   44.7600 C   0  0  0  0  0  0  0  0  0  0  0  0
   52.6110   23.5240   44.5790 O   0  0  0  0  0  0  0  0  0  0  0  0
   54.2580   24.3590   45.8860 N   0  0  0  0  0  0  0  0  0  0  0  0
   55.5780   24.5990   46.1120 C   0  0  0  0  0  0  0  0  0  0  0  0
   55.9170   25.1830   47.1760 O   0  0  0  0  0  0  0  0  0  0  0  0
   57.5330   31.7530   44.5200 C   0  0  0  0  0  0  0  0  0  0  0  0
   58.0290   33.0360   44.7640 C   0  0  0  0  0  0  0  0  0  0  0  0
   60.1408   34.0999   51.2163 H   0  0  0  0  0  0  0  0  0  0  0  0
   58.6848   34.2542   50.1757 H   0  0  0  0  0  0  0  0  0  0  0  0
   59.6310   32.7273   50.1757 H   0  0  0  0  0  0  0  0  0  0  0  0
   62.0806   32.5371   50.4209 H   0  0  0  0  0  0  0  0  0  0  0  0
   64.0065   31.3367   49.3982 H   0  0  0  0  0  0  0  0  0  0  0  0
   64.6187   31.7526   47.0193 H   0  0  0  0  0  0  0  0  0  0  0  0
   63.3081   33.3663   45.6584 H   0  0  0  0  0  0  0  0  0  0  0  0
   60.1484   32.3245   47.3479 H   0  0  0  0  0  0  0  0  0  0  0  0
   59.2721   30.0325   46.9127 H   0  0  0  0  0  0  0  0  0  0  0  0
   59.3060   28.4300   44.4000 H   0  0  0  0  0  0  0  0  0  0  0  0
   56.7035   26.8839   44.5139 H   0  0  0  0  0  0  0  0  0  0  0  0
   58.2026   26.4332   43.5787 H   0  0  0  0  0  0  0  0  0  0  0  0
   57.6753   26.2246   46.5449 H   0  0  0  0  0  0  0  0  0  0  0  0
   59.8959   26.1494   47.0756 H   0  0  0  0  0  0  0  0  0  0  0  0
   60.3375   25.3031   45.5540 H   0  0  0  0  0  0  0  0  0  0  0  0
   60.0947   27.0829   45.5540 H   0  0  0  0  0  0  0  0  0  0  0  0
   58.5127   24.0997   44.5234 H   0  0  0  0  0  0  0  0  0  0  0  0
   58.2638   23.8630   46.3027 H   0  0  0  0  0  0  0  0  0  0  0  0
   56.8689   23.2574   43.3087 H   0  0  0  0  0  0  0  0  0  0  0  0
   54.4442   22.8148   42.8903 H   0  0  0  0  0  0  0  0  0  0  0  0
   56.7850   31.5988   43.7283 H   0  0  0  0  0  0  0  0  0  0  0  0
   57.6735   33.8846   44.1611 H   0  0  0  0  0  0  0  0  0  0  0  0
  1  2  1  0
  2  3  1  0
  3  4  2  0
  4  5  1  0
  5  6  2  0
  6  7  1  0
  7  8  2  0
  8  9  1  0
  9 10  1  0
 10 11  2  0
 10 12  2  0
 10 13  1  0
 13 14  2  0
 14 15  1  0
 15 16  2  0
 16 17  1  0
 17 18  2  0
 17 19  1  0
 19 20  1  0
 20 21  1  0
 21 22  1  0
 21 23  1  0
 23 24  1  0
 24 25  1  0
 25 26  2  0
 26 27  1  0
 27 28  2  0
 27 29  1  0
 29 30  1  0
 30 31  2  0
 16 32  1  0
 32 33  2  0
  8  3  1  0
 33 13  1  0
 30 24  1  0
  1 34  1  0
  1 35  1  0
  1 36  1  0
  4 37  1  0
  5 38  1  0
  6 39  1  0
  7 40  1  0
 14 41  1  0
 15 42  1  0
 19 43  1  0
 20 44  1  0
 20 45  1  0
 21 46  1  1
 22 47  1  0
 22 48  1  0
 22 49  1  0
 23 50  1  0
 23 51  1  0
 25 52  1  0
 26 53  1  0
 32 54  1  0
 33 55  1  0
M  CHG  1  29  -1
M  END
>  <UniqueID>  (94) 
87

>  <SMILES>  (94) 
COc1ccccc1OS(=O)(=O)c1ccc(C(=O)NC[C@H](C)Cn2ccc(=O)[n-]c2=O)cc1

>  <Energy>  (94) 
60.63636003281369

>  <Genealogy>  (94) 
COc1ccccc1OS(=O)(=O)c1ccc(C(=O)NCC(C)Cn2ccc(=O)[n-]c2=O)cc1 (protonated)
COc1ccccc1OS(=O)(=O)c1ccc(C(=O)NC[C@H](C)Cn2ccc(=O)[n-]c2=O)cc1 (chirality)
COc1ccccc1OS(=O)(=O)c1ccc(C(=O)NC[C@H](C)Cn2ccc(=O)[n-]c2=O)cc1 (3D coordinates assigned)
COc1ccccc1OS(=O)(=O)c1ccc(C(=O)NC[C@H](C)Cn2ccc(=O)[n-]c2=O)cc1 (optimized conformer: 60.63636003281369 kcal/mol)

>  <smiles>  (94) 
COc1ccccc1OS(=O)(=O)c1ccc(C(=O)NCC(C)Cn2ccc(=O)[nH]c2=O)cc1

>  <score_type>  (94) 
oracle

>  <origin>  (94) 
adg

>  <m_score__min__energy>  (94) 
-10.710000000000001

>  <m_primary>  (94) 
energy

$$$$
94:0
     RDKit          3D

 50 52  0  0  0  0  0  0  0  0999 V2000
   60.6450   29.9330   48.2790 C   0  0  0  0  0  0  0  0  0  0  0  0
   60.1600   28.4950   48.1290 C   0  0  0  0  0  0  0  0  0  0  0  0
   60.5430   27.9660   46.8620 O   0  0  0  0  0  0  0  0  0  0  0  0
   60.1890   28.5530   45.6400 C   0  0  0  0  0  0  0  0  0  0  0  0
   61.0200   28.5780   44.6910 O   0  0  0  0  0  0  0  0  0  0  0  0
   58.8480   29.1730   45.4890 C   0  0  0  0  0  0  0  0  0  0  0  0
   58.7720   30.5060   45.3030 C   0  0  0  0  0  0  0  0  0  0  0  0
   57.5000   31.1790   45.1570 N   0  0  1  0  0  0  0  0  0  0  0  0
   57.6960   32.5810   44.7280 C   0  0  0  0  0  0  0  0  0  0  0  0
   58.4330   33.3900   45.7690 C   0  0  0  0  0  0  0  0  0  0  0  0
   59.1930   34.5120   45.3970 C   0  0  0  0  0  0  0  0  0  0  0  0
   59.8580   35.2670   46.3680 C   0  0  0  0  0  0  0  0  0  0  0  0
   59.7700   34.9080   47.7150 C   0  0  0  0  0  0  0  0  0  0  0  0
   59.0180   33.7940   48.0940 C   0  0  0  0  0  0  0  0  0  0  0  0
   58.3520   33.0370   47.1270 C   0  0  0  0  0  0  0  0  0  0  0  0
   56.5270   30.2830   44.0130 S   0  0  0  0  0  0  0  0  0  0  0  0
   55.0710   30.5700   44.2480 O   0  0  0  0  0  0  0  0  0  0  0  0
   56.8890   30.6540   42.6010 O   0  0  0  0  0  0  0  0  0  0  0  0
   56.8170   28.5840   44.2380 N   0  0  0  0  0  0  0  0  0  0  0  0
   57.5410   28.3760   45.4960 C   0  0  1  0  0  0  0  0  0  0  0  0
   57.7130   26.8940   45.7710 C   0  0  0  0  0  0  0  0  0  0  0  0
   57.6850   26.3800   47.0820 C   0  0  0  0  0  0  0  0  0  0  0  0
   57.8070   25.0060   47.3070 C   0  0  0  0  0  0  0  0  0  0  0  0
   57.9480   24.1180   46.2240 C   0  0  0  0  0  0  0  0  0  0  0  0
   58.0730   22.7310   46.3980 O   0  0  0  0  0  0  0  0  0  0  0  0
   58.2080   21.7970   45.3320 C   0  0  0  0  0  0  0  0  0  0  0  0
   57.9630   24.6280   44.9220 C   0  0  0  0  0  0  0  0  0  0  0  0
   57.8420   26.0010   44.6950 C   0  0  0  0  0  0  0  0  0  0  0  0
   60.7290   30.1821   49.3471 H   0  0  0  0  0  0  0  0  0  0  0  0
   61.6290   30.0400   47.7990 H   0  0  0  0  0  0  0  0  0  0  0  0
   59.9269   30.6141   47.7990 H   0  0  0  0  0  0  0  0  0  0  0  0
   60.6019   27.8794   48.9263 H   0  0  0  0  0  0  0  0  0  0  0  0
   59.0625   28.4815   48.2019 H   0  0  0  0  0  0  0  0  0  0  0  0
   59.6995   31.0960   45.2613 H   0  0  0  0  0  0  0  0  0  0  0  0
   57.0220   31.1650   46.0870 H   0  0  0  0  0  0  0  0  0  0  0  0
   58.2770   32.5893   43.7940 H   0  0  0  0  0  0  0  0  0  0  0  0
   56.7047   33.0349   44.5820 H   0  0  0  0  0  0  0  0  0  0  0  0
   59.2651   34.7976   44.3372 H   0  0  0  0  0  0  0  0  0  0  0  0
   60.4510   36.1445   46.0708 H   0  0  0  0  0  0  0  0  0  0  0  0
   60.2934   35.5032   48.4778 H   0  0  0  0  0  0  0  0  0  0  0  0
   58.9500   33.5122   49.1551 H   0  0  0  0  0  0  0  0  0  0  0  0
   57.7611   32.1601   47.4300 H   0  0  0  0  0  0  0  0  0  0  0  0
   56.9540   28.7658   46.3407 H   0  0  0  0  0  0  0  0  0  0  0  0
   57.5663   27.0647   47.9347 H   0  0  0  0  0  0  0  0  0  0  0  0
   57.7928   24.6166   48.3357 H   0  0  0  0  0  0  0  0  0  0  0  0
   58.3539   20.7879   45.7449 H   0  0  0  0  0  0  0  0  0  0  0  0
   57.2983   21.8122   44.7137 H   0  0  0  0  0  0  0  0  0  0  0  0
   59.0761   22.0692   44.7137 H   0  0  0  0  0  0  0  0  0  0  0  0
   58.0710   23.9419   44.0690 H   0  0  0  0  0  0  0  0  0  0  0  0
   57.8478   26.3859   43.6646 H   0  0  0  0  0  0  0  0  0  0  0  0
  1  2  1  0
  2  3  1  0
  3  4  1  0
  4  5  2  0
  4  6  1  0
  6  7  2  0
  7  8  1  0
  8  9  1  0
  9 10  1  0
 10 11  2  0
 11 12  1  0
 12 13  2  0
 13 14  1  0
 14 15  2  0
  8 16  1  0
 16 17  2  0
 16 18  2  0
 16 19  1  0
 19 20  1  0
 20 21  1  0
 21 22  2  0
 22 23  1  0
 23 24  2  0
 24 25  1  0
 25 26  1  0
 24 27  1  0
 27 28  2  0
 20  6  1  0
 28 21  1  0
 15 10  1  0
  1 29  1  0
  1 30  1  0
  1 31  1  0
  2 32  1  0
  2 33  1  0
  7 34  1  0
  8 35  1  1
  9 36  1  0
  9 37  1  0
 11 38  1  0
 12 39  1  0
 13 40  1  0
 14 41  1  0
 15 42  1  0
 20 43  1  1
 22 44  1  0
 23 45  1  0
 26 46  1  0
 26 47  1  0
 26 48  1  0
 27 49  1  0
 28 50  1  0
M  CHG  2   8   1  19  -1
M  END
>  <UniqueID>  (95) 
88

>  <SMILES>  (95) 
CCOC(=O)C1=C[N@@H+](Cc2ccccc2)S(=O)(=O)[N-][C@H]1c1ccc(OC)cc1

>  <Energy>  (95) 
54.34270509462013

>  <Genealogy>  (95) 
CCOC(=O)C1=C[NH+](Cc2ccccc2)S(=O)(=O)[N-]C1c1ccc(OC)cc1 (protonated)
CCOC(=O)C1=C[N@@H+](Cc2ccccc2)S(=O)(=O)[N-][C@H]1c1ccc(OC)cc1 (chirality)
CCOC(=O)C1=C[N@@H+](Cc2ccccc2)S(=O)(=O)[N-][C@H]1c1ccc(OC)cc1 (3D coordinates assigned)
CCOC(=O)C1=C[N@@H+](Cc2ccccc2)S(=O)(=O)[N-][C@H]1c1ccc(OC)cc1 (nonaromatic ring conformer: 54.34270509462013 kcal/mol)

>  <smiles>  (95) 
CCOC(=O)C1=CN(Cc2ccccc2)S(=O)(=O)NC1c1ccc(OC)cc1

>  <score_type>  (95) 
oracle

>  <origin>  (95) 
adg

>  <m_score__min__energy>  (95) 
-8.0700000000000003

>  <m_primary>  (95) 
energy

$$$$
95:0
     RDKit          3D

 59 61  0  0  1  0  0  0  0  0999 V2000
   62.5820   31.6120   47.5110 C   0  0  0  0  0  0  0  0  0  0  0  0
   62.7720   33.1330   47.4760 C   0  0  0  0  0  0  0  0  0  0  0  0
   61.4960   33.7700   46.9950 C   0  0  0  0  0  0  0  0  0  0  0  0
   60.6920   34.3760   48.1520 C   0  0  0  0  0  0  0  0  0  0  0  0
   59.2620   33.8930   48.1250 C   0  0  0  0  0  0  0  0  0  0  0  0
   59.1140   32.6380   48.8590 C   0  0  0  0  0  0  0  0  0  0  0  0
   59.1550   32.7180   50.2090 N   0  0  0  0  0  0  0  0  0  0  0  0
   59.1080   31.6590   51.0210 C   0  0  0  0  0  0  0  0  0  0  0  0
   59.0180   30.4520   50.4530 N   0  0  0  0  0  0  0  0  0  0  0  0
   58.9740   30.3180   49.0890 C   0  0  0  0  0  0  0  0  0  0  0  0
   58.9430   29.1120   48.6810 N   0  0  0  0  0  0  0  0  0  0  0  0
   60.0630   28.5510   48.0130 C   0  0  0  0  0  0  0  0  0  0  0  0
   59.3920   28.0380   46.7350 C   0  0  0  0  0  0  0  0  0  0  0  0
   59.9070   28.3480   45.4930 C   0  0  0  0  0  0  0  0  0  0  0  0
   59.2520   27.8510   44.3840 C   0  0  0  0  0  0  0  0  0  0  0  0
   58.1550   27.0970   44.5270 N   0  0  0  0  0  0  0  0  0  0  0  0
   57.6680   26.8050   45.7390 C   0  0  0  0  0  0  0  0  0  0  0  0
   58.2720   27.2670   46.8860 C   0  0  0  0  0  0  0  0  0  0  0  0
   59.0130   31.3640   48.2290 C   0  0  0  0  0  0  0  0  0  0  0  0
   58.9010   31.4050   46.8030 C   0  0  0  0  0  0  0  0  0  0  0  0
   59.8930   31.1510   46.0090 O   0  0  0  0  0  0  0  0  0  0  0  0
   57.7150   31.7510   46.0510 N   0  0  0  0  0  0  0  0  0  0  0  0
   57.6950   31.8480   44.6470 C   0  0  0  0  0  0  0  0  0  0  0  0
   56.9840   30.8040   44.0110 C   0  0  0  0  0  0  0  0  0  0  0  0
   56.3670   29.7020   44.8130 C   0  0  0  0  0  0  0  0  0  0  0  0
   56.8320   30.7270   42.6530 C   0  0  0  0  0  0  0  0  0  0  0  0
   57.3810   31.6900   41.8440 C   0  0  0  0  0  0  0  0  0  0  0  0
   58.0710   32.7030   42.4490 C   0  0  0  0  0  0  0  0  0  0  0  0
   58.2280   32.7850   43.8430 C   0  0  0  0  0  0  0  0  0  0  0  0
   58.9870   33.9160   44.3610 C   0  0  0  0  0  0  0  0  0  0  0  0
   62.5395   31.2718   48.5562 H   0  0  0  0  0  0  0  0  0  0  0  0
   61.6439   31.3478   47.0010 H   0  0  0  0  0  0  0  0  0  0  0  0
   63.4263   31.1252   47.0010 H   0  0  0  0  0  0  0  0  0  0  0  0
   63.0104   33.4992   48.4855 H   0  0  0  0  0  0  0  0  0  0  0  0
   63.5978   33.3911   46.7968 H   0  0  0  0  0  0  0  0  0  0  0  0
   61.7437   34.5663   46.2777 H   0  0  0  0  0  0  0  0  0  0  0  0
   60.8810   32.9901   46.5222 H   0  0  0  0  0  0  0  0  0  0  0  0
   61.1541   34.0803   49.1054 H   0  0  0  0  0  0  0  0  0  0  0  0
   60.6953   35.4710   48.0468 H   0  0  0  0  0  0  0  0  0  0  0  0
   58.6169   34.6560   48.5851 H   0  0  0  0  0  0  0  0  0  0  0  0
   58.9725   33.7203   47.0779 H   0  0  0  0  0  0  0  0  0  0  0  0
   59.2260   33.6620   50.6910 H   0  0  0  0  0  0  0  0  0  0  0  0
   59.1420   31.7751   52.1143 H   0  0  0  0  0  0  0  0  0  0  0  0
   60.8283   29.3102   47.7941 H   0  0  0  0  0  0  0  0  0  0  0  0
   60.6051   27.7852   48.5872 H   0  0  0  0  0  0  0  0  0  0  0  0
   60.8085   28.9698   45.3900 H   0  0  0  0  0  0  0  0  0  0  0  0
   59.6336   28.0758   43.3771 H   0  0  0  0  0  0  0  0  0  0  0  0
   56.7651   26.1820   45.8201 H   0  0  0  0  0  0  0  0  0  0  0  0
   57.8713   27.0266   47.8818 H   0  0  0  0  0  0  0  0  0  0  0  0
   56.8220   31.9610   46.5690 H   0  0  0  0  0  0  0  0  0  0  0  0
   56.4874   29.9170   45.8850 H   0  0  0  0  0  0  0  0  0  0  0  0
   55.2963   29.6281   44.5718 H   0  0  0  0  0  0  0  0  0  0  0  0
   56.8637   28.7506   44.5718 H   0  0  0  0  0  0  0  0  0  0  0  0
   56.2692   29.8924   42.2096 H   0  0  0  0  0  0  0  0  0  0  0  0
   57.2700   31.6483   40.7504 H   0  0  0  0  0  0  0  0  0  0  0  0
   58.5212   33.4849   41.8198 H   0  0  0  0  0  0  0  0  0  0  0  0
   58.9725   33.8945   45.4607 H   0  0  0  0  0  0  0  0  0  0  0  0
   60.0265   33.8532   44.0067 H   0  0  0  0  0  0  0  0  0  0  0  0
   58.5349   34.8541   44.0067 H   0  0  0  0  0  0  0  0  0  0  0  0
  1  2  1  0
  2  3  1  0
  3  4  1  0
  4  5  1  0
  5  6  1  0
  6  7  1  0
  7  8  1  0
  8  9  2  0
  9 10  1  0
 10 11  2  0
 11 12  1  0
 12 13  1  0
 13 14  2  0
 14 15  1  0
 15 16  2  0
 16 17  1  0
 17 18  2  0
 10 19  1  0
 19 20  1  0
 20 21  2  0
 20 22  1  0
 22 23  1  0
 23 24  2  0
 24 25  1  0
 24 26  1  0
 26 27  2  0
 27 28  1  0
 28 29  2  0
 29 30  1  0
 19  6  2  0
 29 23  1  0
 18 13  1  0
  1 31  1  0
  1 32  1  0
  1 33  1  0
  2 34  1  0
  2 35  1  0
  3 36  1  0
  3 37  1  0
  4 38  1  0
  4 39  1  0
  5 40  1  0
  5 41  1  0
  7 42  1  0
  8 43  1  0
 12 44  1  0
 12 45  1  0
 14 46  1  0
 15 47  1  0
 17 48  1  0
 18 49  1  0
 22 50  1  0
 25 51  1  0
 25 52  1  0
 25 53  1  0
 26 54  1  0
 27 55  1  0
 28 56  1  0
 30 57  1  0
 30 58  1  0
 30 59  1  0
M  END
>  <smiles>  (96) 
CCCCCc1[nH]cnc(=NCc2ccncc2)c1C(=O)Nc1c(C)cccc1C

>  <score_type>  (96) 
oracle

>  <origin>  (96) 
adg

>  <m_score__min__energy>  (96) 
-7.7699999999999996

>  <m_primary>  (96) 
energy

$$$$
96:0
     RDKit          3D

 36 37  0  0  0  0  0  0  0  0999 V2000
   57.4314   33.5762   46.2830 H   0  0  0  0  0  0  0  0  0  0  0  0
   58.4500   33.3020   45.9710 C   0  0  0  0  0  0  0  0  0  0  0  0
   58.5990   32.7650   44.7490 C   0  0  0  0  0  0  0  0  0  0  0  0
   59.4172   33.1514   44.1235 H   0  0  0  0  0  0  0  0  0  0  0  0
   57.7520   31.6960   44.1760 C   0  0  0  0  0  0  0  0  0  0  0  0
   57.4360   31.6660   42.8070 C   0  0  0  0  0  0  0  0  0  0  0  0
   57.8070   32.4593   42.1413 H   0  0  0  0  0  0  0  0  0  0  0  0
   56.6530   30.6330   42.2890 C   0  0  0  0  0  0  0  0  0  0  0  0
   56.3945   30.6241   41.2199 H   0  0  0  0  0  0  0  0  0  0  0  0
   56.1970   29.6110   43.1240 C   0  0  0  0  0  0  0  0  0  0  0  0
   55.5738   28.8047   42.7098 H   0  0  0  0  0  0  0  0  0  0  0  0
   56.5270   29.6050   44.4840 C   0  0  0  0  0  0  0  0  0  0  0  0
   56.0520   28.5460   45.2770 O   0  0  0  0  0  0  0  0  0  0  0  0
   56.7990   27.3830   45.6350 C   0  0  0  0  0  0  0  0  0  0  0  0
   57.2522   26.9522   44.7300 H   0  0  0  0  0  0  0  0  0  0  0  0
   57.5808   27.6718   46.3528 H   0  0  0  0  0  0  0  0  0  0  0  0
   55.9130   26.3620   46.2740 C   0  0  0  0  0  0  0  0  0  0  0  0
   56.3950   25.5190   47.0760 O   0  0  0  0  0  0  0  0  0  0  0  0
   54.5590   26.3210   45.9640 O   0  0  0  0  0  0  0  0  0  0  0  0
   57.3150   30.6520   45.0050 C   0  0  0  0  0  0  0  0  0  0  0  0
   57.5893   30.6501   46.0702 H   0  0  0  0  0  0  0  0  0  0  0  0
   59.5480   33.5540   46.9310 C   0  0  0  0  0  0  0  0  0  0  0  0
   59.2930   33.7930   48.2940 C   0  0  0  0  0  0  0  0  0  0  0  0
   58.2568   33.8091   48.6629 H   0  0  0  0  0  0  0  0  0  0  0  0
   60.3510   34.0100   49.1810 C   0  0  0  0  0  0  0  0  0  0  0  0
   60.1449   34.2103   50.2428 H   0  0  0  0  0  0  0  0  0  0  0  0
   61.6720   33.9730   48.7210 C   0  0  0  0  0  0  0  0  0  0  0  0
   63.0280   34.2560   49.8600 S   0  0  0  0  0  0  0  0  0  0  0  0
   64.1700   33.1640   48.9580 C   0  0  0  0  0  0  0  0  0  0  0  0
   64.7718   32.5886   49.6769 H   0  0  0  0  0  0  0  0  0  0  0  0
   63.5936   32.4725   48.3259 H   0  0  0  0  0  0  0  0  0  0  0  0
   64.8351   33.7707   48.3259 H   0  0  0  0  0  0  0  0  0  0  0  0
   61.9320   33.6990   47.3740 C   0  0  0  0  0  0  0  0  0  0  0  0
   62.9703   33.6550   47.0134 H   0  0  0  0  0  0  0  0  0  0  0  0
   60.8750   33.4810   46.4850 C   0  0  0  0  0  0  0  0  0  0  0  0
   61.0858   33.2510   45.4302 H   0  0  0  0  0  0  0  0  0  0  0  0
  1  2  1  0
  2  3  2  0
  3  4  1  0
  3  5  1  0
  5  6  2  0
  6  7  1  0
  6  8  1  0
  8  9  1  0
  8 10  2  0
 10 11  1  0
 10 12  1  0
 12 13  1  0
 13 14  1  0
 14 15  1  0
 14 16  1  0
 14 17  1  0
 17 18  2  0
 17 19  1  0
 12 20  2  0
 20 21  1  0
  2 22  1  0
 22 23  2  0
 23 24  1  0
 23 25  1  0
 25 26  1  0
 25 27  2  0
 27 28  1  0
 28 29  1  0
 29 30  1  0
 29 31  1  0
 29 32  1  0
 27 33  1  0
 33 34  1  0
 33 35  2  0
 35 36  1  0
 20  5  1  0
 35 22  1  0
M  CHG  1  19  -1
M  END
>  <UniqueID>  (97) 
89

>  <SMILES>  (97) 
CSc1ccc(/C=C\c2cccc(OCC(=O)[O-])c2)cc1

>  <Energy>  (97) 
40.83002047147352

>  <Genealogy>  (97) 
CSc1ccc(C=Cc2cccc(OCC(=O)[O-])c2)cc1 (protonated)
CSc1ccc(/C=C\c2cccc(OCC(=O)[O-])c2)cc1 (cis-trans isomerization)
CSc1ccc(/C=C\c2cccc(OCC(=O)[O-])c2)cc1 (3D coordinates assigned)
CSc1ccc(/C=C\c2cccc(OCC(=O)[O-])c2)cc1 (optimized conformer: 40.83002047147352 kcal/mol)

>  <smiles>  (97) 
CSc1ccc(C=Cc2cccc(OCC(=O)O)c2)cc1

>  <score_type>  (97) 
oracle

>  <origin>  (97) 
adg

>  <m_score__min__energy>  (97) 
-10.880000000000001

>  <m_primary>  (97) 
energy

$$$$
