0:0
     RDKit          3D

 33 35  0  0  0  0  0  0  0  0999 V2000
   57.6250   32.8280   51.3790 O   0  0  0  0  0  0  0  0  0  0  0  0
   58.1830   31.8140   50.8840 C   0  0  0  0  0  0  0  0  0  0  0  0
   57.9290   30.5330   51.4800 N   0  0  0  0  0  0  0  0  0  0  0  0
   56.8180   30.0890   51.9940 C   0  0  0  0  0  0  0  0  0  0  0  0
   56.7920   29.0030   52.7970 N   0  0  0  0  0  0  0  0  0  0  0  0
   55.5330   28.7160   53.2250 C   0  0  0  0  0  0  0  0  0  0  0  0
   54.5510   29.5890   52.7710 C   0  0  0  0  0  0  0  0  0  0  0  0
   53.0820   29.4660   53.0240 C   0  0  0  0  0  0  0  0  0  0  0  0
   52.3220   30.3290   52.0620 C   0  0  0  0  0  0  0  0  0  0  0  0
   52.1520   29.9360   50.7290 C   0  0  0  0  0  0  0  0  0  0  0  0
   51.4690   30.7930   49.8640 C   0  0  0  0  0  0  0  0  0  0  0  0
   51.2930   30.4700   48.6600 O   0  0  0  0  0  0  0  0  0  0  0  0
   50.9950   31.9810   50.3220 N   0  0  0  0  0  0  0  0  0  0  0  0
   51.1770   32.3530   51.6160 C   0  0  0  0  0  0  0  0  0  0  0  0
   50.7350   33.4590   52.0210 O   0  0  0  0  0  0  0  0  0  0  0  0
   51.8400   31.5330   52.4730 N   0  0  0  0  0  0  0  0  0  0  0  0
   55.2730   30.7410   51.7800 S   0  0  0  0  0  0  0  0  0  0  0  0
   59.1050   31.9610   49.7940 N   0  0  0  0  0  0  0  0  0  0  0  0
   58.9610   32.8240   48.6580 C   0  0  0  0  0  0  0  0  0  0  0  0
   59.7020   34.0140   48.6210 C   0  0  0  0  0  0  0  0  0  0  0  0
   59.6080   34.8740   47.5230 C   0  0  0  0  0  0  0  0  0  0  0  0
   58.7840   34.5430   46.4440 C   0  0  0  0  0  0  0  0  0  0  0  0
   58.0610   33.3470   46.4590 C   0  0  0  0  0  0  0  0  0  0  0  0
   58.1510   32.4860   47.5570 C   0  0  0  0  0  0  0  0  0  0  0  0
   55.3095   27.8603   53.8790 H   0  0  0  0  0  0  0  0  0  0  0  0
   52.7763   28.4175   52.8927 H   0  0  0  0  0  0  0  0  0  0  0  0
   52.8640   29.7922   54.0516 H   0  0  0  0  0  0  0  0  0  0  0  0
   52.5476   28.9739   50.3714 H   0  0  0  0  0  0  0  0  0  0  0  0
   60.3620   34.2726   49.4621 H   0  0  0  0  0  0  0  0  0  0  0  0
   60.1829   35.8117   47.5083 H   0  0  0  0  0  0  0  0  0  0  0  0
   58.7045   35.2234   45.5833 H   0  0  0  0  0  0  0  0  0  0  0  0
   57.4198   33.0825   45.6052 H   0  0  0  0  0  0  0  0  0  0  0  0
   57.5872   31.5415   47.5607 H   0  0  0  0  0  0  0  0  0  0  0  0
  1  2  2  0
  2  3  1  0
  3  4  2  3
  4  5  1  0
  5  6  1  0
  6  7  2  0
  7  8  1  0
  8  9  1  0
  9 10  2  0
 10 11  1  0
 11 12  2  0
 11 13  1  0
 13 14  1  0
 14 15  2  0
 14 16  1  0
  7 17  1  0
  2 18  1  0
 18 19  1  0
 19 20  2  0
 20 21  1  0
 21 22  2  0
 22 23  1  0
 23 24  2  0
 17  4  1  0
 24 19  1  0
 16  9  1  0
  6 25  1  0
  8 26  1  0
  8 27  1  0
 10 28  1  0
 20 29  1  0
 21 30  1  0
 22 31  1  0
 23 32  1  0
 24 33  1  0
M  CHG  4   5  -1  13  -1  16  -1  18  -1
M  END
>  <UniqueID>  (1) 
1

>  <SMILES>  (1) 
O=C(N=c1[n-]cc(Cc2cc(=O)[n-]c(=O)[n-]2)s1)[N-]c1ccccc1

>  <Energy>  (1) 
71.96953288041837

>  <Genealogy>  (1) 
O=C(N=c1[n-]cc(Cc2cc(=O)[n-]c(=O)[n-]2)s1)[N-]c1ccccc1 (protonated)
O=C(N=c1[n-]cc(Cc2cc(=O)[n-]c(=O)[n-]2)s1)[N-]c1ccccc1 (3D coordinates assigned)
O=C(N=c1[n-]cc(Cc2cc(=O)[n-]c(=O)[n-]2)s1)[N-]c1ccccc1 (optimized conformer: 71.96953288041837 kcal/mol)

>  <smiles>  (1) 
O=C(N=c1[nH]cc(Cc2cc(=O)[nH]c(=O)[nH]2)s1)Nc1ccccc1

>  <score_type>  (1) 
oracle

>  <origin>  (1) 
adg

>  <m_score__min__energy>  (1) 
-14.49

>  <m_primary>  (1) 
energy

$$$$
1:0
     RDKit          3D

 50 53  0  0  0  0  0  0  0  0999 V2000
   60.4090   27.5940   46.1540 O   0  0  0  0  0  0  0  0  0  0  0  0
   59.4990   28.2610   46.7030 C   0  0  0  0  0  0  0  0  0  0  0  0
   59.7510   28.8480   48.0360 C   0  0  0  0  0  0  0  0  0  0  0  0
   59.2970   28.2500   49.0500 O   0  0  0  0  0  0  0  0  0  0  0  0
   60.4520   30.1050   48.1980 N   0  0  0  0  0  0  0  0  0  0  0  0
   60.1060   30.9800   49.3250 C   0  0  0  0  0  0  0  0  0  0  0  0
   61.3300   31.7810   49.7880 C   0  0  0  0  0  0  0  0  0  0  0  0
   62.0410   32.4520   48.6770 N   0  0  0  0  0  0  0  0  0  0  0  0
   61.3150   33.6120   48.1710 C   0  0  0  0  0  0  0  0  0  0  0  0
   60.8690   34.4530   48.9360 O   0  0  0  0  0  0  0  0  0  0  0  0
   61.1420   33.8230   46.6890 C   0  0  0  0  0  0  0  0  0  0  0  0
   59.6770   33.8510   46.3460 C   0  0  0  0  0  0  0  0  0  0  0  0
   59.2310   34.5770   45.2270 C   0  0  0  0  0  0  0  0  0  0  0  0
   57.8810   34.5630   44.8720 C   0  0  0  0  0  0  0  0  0  0  0  0
   56.9670   33.8250   45.6290 C   0  0  0  0  0  0  0  0  0  0  0  0
   57.4010   33.0930   46.7380 C   0  0  0  0  0  0  0  0  0  0  0  0
   58.7560   33.0980   47.0920 C   0  0  0  0  0  0  0  0  0  0  0  0
   62.4130   31.5050   47.6050 C   0  0  0  0  0  0  0  0  0  0  0  0
   61.2300   30.6720   47.0890 C   0  0  0  0  0  0  0  0  0  0  0  0
   58.2450   28.5060   45.9540 C   0  0  0  0  0  0  0  0  0  0  0  0
   57.0740   27.7620   46.0830 C   0  0  0  0  0  0  0  0  0  0  0  0
   56.1200   28.2280   45.2510 N   0  0  0  0  0  0  0  0  0  0  0  0
   56.6630   29.2740   44.6060 C   0  0  0  0  0  0  0  0  0  0  0  0
   56.0430   30.0900   43.6600 C   0  0  0  0  0  0  0  0  0  0  0  0
   56.7830   31.1600   43.1270 C   0  0  0  0  0  0  0  0  0  0  0  0
   58.1030   31.4000   43.5630 C   0  0  0  0  0  0  0  0  0  0  0  0
   58.7040   30.5650   44.5260 C   0  0  0  0  0  0  0  0  0  0  0  0
   57.9590   29.4860   45.0130 C   0  0  0  0  0  0  0  0  0  0  0  0
   59.3160   31.6779   49.0105 H   0  0  0  0  0  0  0  0  0  0  0  0
   59.7554   30.3567   50.1609 H   0  0  0  0  0  0  0  0  0  0  0  0
   60.9964   32.5473   50.5032 H   0  0  0  0  0  0  0  0  0  0  0  0
   62.0336   31.0690   50.2441 H   0  0  0  0  0  0  0  0  0  0  0  0
   62.9440   32.7990   49.0800 H   0  0  0  0  0  0  0  0  0  0  0  0
   61.6031   34.7789   46.3999 H   0  0  0  0  0  0  0  0  0  0  0  0
   61.6267   32.9985   46.1456 H   0  0  0  0  0  0  0  0  0  0  0  0
   59.9487   35.1581   44.6293 H   0  0  0  0  0  0  0  0  0  0  0  0
   57.5366   35.1329   43.9964 H   0  0  0  0  0  0  0  0  0  0  0  0
   55.9026   33.8201   45.3513 H   0  0  0  0  0  0  0  0  0  0  0  0
   56.6789   32.5136   47.3321 H   0  0  0  0  0  0  0  0  0  0  0  0
   59.0996   32.5107   47.9564 H   0  0  0  0  0  0  0  0  0  0  0  0
   62.8298   32.0775   46.7632 H   0  0  0  0  0  0  0  0  0  0  0  0
   63.1434   30.8019   48.0319 H   0  0  0  0  0  0  0  0  0  0  0  0
   60.5748   31.3164   46.4845 H   0  0  0  0  0  0  0  0  0  0  0  0
   61.6268   29.8433   46.4842 H   0  0  0  0  0  0  0  0  0  0  0  0
   56.9452   26.9117   46.7689 H   0  0  0  0  0  0  0  0  0  0  0  0
   55.1480   27.8580   45.1460 H   0  0  0  0  0  0  0  0  0  0  0  0
   55.0072   29.9022   43.3408 H   0  0  0  0  0  0  0  0  0  0  0  0
   56.3305   31.8132   42.3663 H   0  0  0  0  0  0  0  0  0  0  0  0
   58.6685   32.2470   43.1473 H   0  0  0  0  0  0  0  0  0  0  0  0
   59.7267   30.7557   44.8834 H   0  0  0  0  0  0  0  0  0  0  0  0
  1  2  2  0
  2  3  1  0
  3  4  2  0
  3  5  1  0
  5  6  1  0
  6  7  1  0
  7  8  1  0
  8  9  1  0
  9 10  2  0
  9 11  1  0
 11 12  1  0
 12 13  2  0
 13 14  1  0
 14 15  2  0
 15 16  1  0
 16 17  2  0
  8 18  1  0
 18 19  1  0
  2 20  1  0
 20 21  2  0
 21 22  1  0
 22 23  1  0
 23 24  2  0
 24 25  1  0
 25 26  2  0
 26 27  1  0
 27 28  2  0
 19  5  1  0
 28 20  1  0
 17 12  1  0
 28 23  1  0
  6 29  1  0
  6 30  1  0
  7 31  1  0
  7 32  1  0
  8 33  1  0
 11 34  1  0
 11 35  1  0
 13 36  1  0
 14 37  1  0
 15 38  1  0
 16 39  1  0
 17 40  1  0
 18 41  1  0
 18 42  1  0
 19 43  1  0
 19 44  1  0
 21 45  1  0
 22 46  1  0
 24 47  1  0
 25 48  1  0
 26 49  1  0
 27 50  1  0
M  CHG  1   8   1
M  END
>  <UniqueID>  (2) 
2

>  <SMILES>  (2) 
O=C(C(=O)N1CC[NH+](C(=O)Cc2ccccc2)CC1)c1c[nH]c2ccccc12

>  <Energy>  (2) 
95.80822267148507

>  <Genealogy>  (2) 
O=C(C(=O)N1CC[NH+](C(=O)Cc2ccccc2)CC1)c1c[nH]c2ccccc12 (protonated)
O=C(C(=O)N1CC[NH+](C(=O)Cc2ccccc2)CC1)c1c[nH]c2ccccc12 (3D coordinates assigned)
O=C(C(=O)N1CC[NH+](C(=O)Cc2ccccc2)CC1)c1c[nH]c2ccccc12 (nonaromatic ring conformer: 95.80822267148507 kcal/mol)

>  <smiles>  (2) 
O=C(C(=O)N1CCN(C(=O)Cc2ccccc2)CC1)c1c[nH]c2ccccc12

>  <score_type>  (2) 
oracle

>  <origin>  (2) 
adg

>  <m_score__min__energy>  (2) 
-8.1799999999999997

>  <m_primary>  (2) 
energy

$$$$
2:0
     RDKit          3D

 47 50  0  0  0  0  0  0  0  0999 V2000
   54.4010   29.3430   45.1250 H   0  0  0  0  0  0  0  0  0  0  0  0
   55.3090   28.9700   44.7690 N   0  0  0  0  0  0  0  0  0  0  0  0
   56.5310   29.6640   45.0080 C   0  0  0  0  0  0  0  0  0  0  0  0
   56.7130   30.7860   44.4650 O   0  0  0  0  0  0  0  0  0  0  0  0
   57.5520   29.0850   45.9140 C   0  0  0  0  0  0  0  0  0  0  0  0
   57.4530   27.7350   46.3140 C   0  0  0  0  0  0  0  0  0  0  0  0
   56.6298   27.1170   45.9260 H   0  0  0  0  0  0  0  0  0  0  0  0
   58.3870   27.1630   47.2000 C   0  0  0  0  0  0  0  0  0  0  0  0
   58.2170   25.8720   47.5800 F   0  0  0  0  0  0  0  0  0  0  0  0
   59.4600   27.9270   47.7080 C   0  0  0  0  0  0  0  0  0  0  0  0
   60.4520   27.3350   48.6380 C   0  0  0  0  0  0  0  0  0  0  0  0
   61.1870   26.3920   48.2420 O   0  0  0  0  0  0  0  0  0  0  0  0
   60.6730   27.8710   49.9510 N   0  0  0  0  0  0  0  0  0  0  0  0
   60.3080   29.0380   50.4070 C   0  0  0  0  0  0  0  0  0  0  0  0
   58.9780   29.3180   50.4730 N   0  0  0  0  0  0  0  0  0  0  0  0
   58.5080   30.5100   50.9300 C   0  0  0  0  0  0  0  0  0  0  0  0
   57.4242   30.6932   50.9722 H   0  0  0  0  0  0  0  0  0  0  0  0
   59.3980   31.5000   51.3450 C   0  0  0  0  0  0  0  0  0  0  0  0
   59.0231   32.4626   51.7230 H   0  0  0  0  0  0  0  0  0  0  0  0
   60.7700   31.2550   51.2750 C   0  0  0  0  0  0  0  0  0  0  0  0
   61.4844   32.0284   51.5937 H   0  0  0  0  0  0  0  0  0  0  0  0
   61.2350   30.0270   50.8000 C   0  0  0  0  0  0  0  0  0  0  0  0
   62.3155   29.8320   50.7326 H   0  0  0  0  0  0  0  0  0  0  0  0
   59.5460   29.2650   47.2950 C   0  0  0  0  0  0  0  0  0  0  0  0
   60.5030   30.2260   47.5610 C   0  0  0  0  0  0  0  0  0  0  0  0
   61.3886   30.1243   48.2055 H   0  0  0  0  0  0  0  0  0  0  0  0
   60.1100   31.3460   46.8430 C   0  0  0  0  0  0  0  0  0  0  0  0
   60.8830   32.6020   46.7840 C   0  0  0  0  0  0  0  0  0  0  0  0
   62.1400   32.5190   46.8460 O   0  0  0  0  0  0  0  0  0  0  0  0
   60.2580   33.9140   46.7490 N   0  0  0  0  0  0  0  0  0  0  0  0
   61.0180   34.6030   46.9730 H   0  0  0  0  0  0  0  0  0  0  0  0
   59.2540   34.0750   47.8240 C   0  0  0  0  0  0  0  0  0  0  0  0
   59.6341   33.5872   48.7338 H   0  0  0  0  0  0  0  0  0  0  0  0
   59.0993   35.1544   47.9690 H   0  0  0  0  0  0  0  0  0  0  0  0
   57.8790   33.4550   47.4700 C   0  0  0  0  0  0  0  0  0  0  0  0
   57.7798   32.5027   48.0116 H   0  0  0  0  0  0  0  0  0  0  0  0
   57.1150   34.1910   47.7609 H   0  0  0  0  0  0  0  0  0  0  0  0
   57.6970   33.2020   46.0890 O   0  0  0  0  0  0  0  0  0  0  0  0
   58.2130   34.2640   45.3220 C   0  0  0  0  0  0  0  0  0  0  0  0
   57.9084   34.1351   44.2729 H   0  0  0  0  0  0  0  0  0  0  0  0
   57.8196   35.2130   45.7153 H   0  0  0  0  0  0  0  0  0  0  0  0
   59.7480   34.2870   45.4050 C   0  0  0  0  0  0  0  0  0  0  0  0
   60.1504   33.5773   44.6671 H   0  0  0  0  0  0  0  0  0  0  0  0
   60.0750   35.3173   45.2012 H   0  0  0  0  0  0  0  0  0  0  0  0
   58.9850   31.0950   46.1350 N   0  0  0  0  0  0  0  0  0  0  0  0
   58.5330   31.7340   45.4490 H   0  0  0  0  0  0  0  0  0  0  0  0
   58.6350   29.8260   46.4280 C   0  0  0  0  0  0  0  0  0  0  0  0
  1  2  1  0
  2  3  1  0
  3  4  2  0
  3  5  1  0
  5  6  2  0
  6  7  1  0
  6  8  1  0
  8  9  1  0
  8 10  2  0
 10 11  1  0
 11 12  2  0
 11 13  1  0
 13 14  2  0
 14 15  1  0
 15 16  1  0
 16 17  1  0
 16 18  2  0
 18 19  1  0
 18 20  1  0
 20 21  1  0
 20 22  2  0
 22 23  1  0
 10 24  1  0
 24 25  1  0
 25 26  1  0
 25 27  2  0
 27 28  1  0
 28 29  2  0
 28 30  1  0
 30 31  1  0
 30 32  1  0
 32 33  1  0
 32 34  1  0
 32 35  1  0
 35 36  1  0
 35 37  1  0
 35 38  1  0
 38 39  1  0
 39 40  1  0
 39 41  1  0
 39 42  1  0
 42 43  1  0
 42 44  1  0
 27 45  1  0
 45 46  1  0
 45 47  1  0
 47  5  1  0
 22 14  1  0
 47 24  2  0
 42 30  1  0
M  CHG  3   2  -1  15  -1  30   1
M  END
>  <UniqueID>  (3) 
3

>  <SMILES>  (3) 
[NH-]C(=O)c1cc(F)c(C(=O)/N=c2\cccc[n-]2)c2cc(C(=O)[NH+]3CCOCC3)[nH]c12

>  <Energy>  (3) 
119.16038004665648

>  <Genealogy>  (3) 
[NH-]C(=O)c1cc(F)c(C(=O)N=c2cccc[n-]2)c2cc(C(=O)[NH+]3CCOCC3)[nH]c12 (protonated)
[NH-]C(=O)c1cc(F)c(C(=O)/N=c2\cccc[n-]2)c2cc(C(=O)[NH+]3CCOCC3)[nH]c12 (cis-trans isomerization)
[NH-]C(=O)c1cc(F)c(C(=O)/N=c2\cccc[n-]2)c2cc(C(=O)[NH+]3CCOCC3)[nH]c12 (3D coordinates assigned)
[NH-]C(=O)c1cc(F)c(C(=O)/N=c2\cccc[n-]2)c2cc(C(=O)[NH+]3CCOCC3)[nH]c12 (nonaromatic ring conformer: 119.16038004665648 kcal/mol)

>  <smiles>  (3) 
NC(=O)c1cc(F)c(C(=O)N=c2cccc[nH]2)c2cc(C(=O)N3CCOCC3)[nH]c12

>  <score_type>  (3) 
oracle

>  <origin>  (3) 
adg

>  <m_score__min__energy>  (3) 
-10.710000000000001

>  <m_primary>  (3) 
energy

$$$$
3:0
     RDKit          3D

 57 59  0  0  0  0  0  0  0  0999 V2000
   63.6620   33.2330   46.7700 C   0  0  0  0  0  0  0  0  0  0  0  0
   63.1180   34.2800   47.5680 O   0  0  0  0  0  0  0  0  0  0  0  0
   62.0030   34.1400   48.4100 C   0  0  0  0  0  0  0  0  0  0  0  0
   62.1340   33.9990   49.8060 C   0  0  0  0  0  0  0  0  0  0  0  0
   61.0000   33.8650   50.6100 C   0  0  0  0  0  0  0  0  0  0  0  0
   59.7300   33.8670   50.0340 C   0  0  0  0  0  0  0  0  0  0  0  0
   59.5880   34.0040   48.6510 C   0  0  0  0  0  0  0  0  0  0  0  0
   60.7240   34.1450   47.8290 C   0  0  0  0  0  0  0  0  0  0  0  0
   60.6280   34.2900   46.4340 O   0  0  0  0  0  0  0  0  0  0  0  0
   59.4320   34.5920   45.7130 C   0  0  0  0  0  0  0  0  0  0  0  0
   58.7360   33.3290   45.2810 C   0  0  0  0  0  0  0  0  0  0  0  0
   58.4340   33.1190   43.9300 C   0  0  0  0  0  0  0  0  0  0  0  0
   57.7980   31.9450   43.5210 C   0  0  0  0  0  0  0  0  0  0  0  0
   57.4550   30.9460   44.4540 C   0  0  0  0  0  0  0  0  0  0  0  0
   56.7870   29.6950   43.9810 C   0  0  0  0  0  0  0  0  0  0  0  0
   55.7350   29.8020   43.2870 O   0  0  0  0  0  0  0  0  0  0  0  0
   57.3430   28.3750   44.2390 N   0  0  1  0  0  0  0  0  0  0  0  0
   58.8120   28.3640   44.0970 C   0  0  0  0  0  0  0  0  0  0  0  0
   56.9200   27.8540   45.5610 C   0  0  0  0  0  0  0  0  0  0  0  0
   58.0630   27.6800   46.5260 C   0  0  0  0  0  0  0  0  0  0  0  0
   58.8160   26.6740   46.4280 O   0  0  0  0  0  0  0  0  0  0  0  0
   58.2570   28.6470   47.5640 N   0  0  0  0  0  0  0  0  0  0  0  0
   59.4430   29.4210   47.8120 C   0  0  0  0  0  0  0  0  0  0  0  0
   60.3720   29.6890   46.7880 C   0  0  0  0  0  0  0  0  0  0  0  0
   61.5060   30.4630   47.0480 C   0  0  0  0  0  0  0  0  0  0  0  0
   61.7190   30.9870   48.3220 C   0  0  0  0  0  0  0  0  0  0  0  0
   60.7920   30.7530   49.3400 C   0  0  0  0  0  0  0  0  0  0  0  0
   59.6440   29.9800   49.0920 C   0  0  0  0  0  0  0  0  0  0  0  0
   58.6470   29.7430   50.1920 C   0  0  0  0  0  0  0  0  0  0  0  0
   57.7770   31.1590   45.8110 C   0  0  0  0  0  0  0  0  0  0  0  0
   58.4140   32.3360   46.2170 C   0  0  0  0  0  0  0  0  0  0  0  0
   64.0699   32.4479   47.4236 H   0  0  0  0  0  0  0  0  0  0  0  0
   62.8711   32.8072   46.1351 H   0  0  0  0  0  0  0  0  0  0  0  0
   64.4651   33.6354   46.1351 H   0  0  0  0  0  0  0  0  0  0  0  0
   63.1339   33.9945   50.2644 H   0  0  0  0  0  0  0  0  0  0  0  0
   61.1087   33.7577   51.6993 H   0  0  0  0  0  0  0  0  0  0  0  0
   58.8386   33.7605   50.6696 H   0  0  0  0  0  0  0  0  0  0  0  0
   58.5842   34.0018   48.2012 H   0  0  0  0  0  0  0  0  0  0  0  0
   58.7576   35.1724   46.3598 H   0  0  0  0  0  0  0  0  0  0  0  0
   59.6970   35.1731   44.8174 H   0  0  0  0  0  0  0  0  0  0  0  0
   58.6996   33.8841   43.1856 H   0  0  0  0  0  0  0  0  0  0  0  0
   57.5617   31.7981   42.4568 H   0  0  0  0  0  0  0  0  0  0  0  0
   56.9930   27.7170   43.5060 H   0  0  0  0  0  0  0  0  0  0  0  0
   59.2767   28.3605   45.0940 H   0  0  0  0  0  0  0  0  0  0  0  0
   59.1203   27.4635   43.5456 H   0  0  0  0  0  0  0  0  0  0  0  0
   59.1338   29.2598   43.5456 H   0  0  0  0  0  0  0  0  0  0  0  0
   56.1974   28.5583   45.9990 H   0  0  0  0  0  0  0  0  0  0  0  0
   56.4803   26.8596   45.3939 H   0  0  0  0  0  0  0  0  0  0  0  0
   60.2040   29.2868   45.7780 H   0  0  0  0  0  0  0  0  0  0  0  0
   62.2323   30.6592   46.2455 H   0  0  0  0  0  0  0  0  0  0  0  0
   62.6189   31.5859   48.5259 H   0  0  0  0  0  0  0  0  0  0  0  0
   60.9609   31.1758   50.3414 H   0  0  0  0  0  0  0  0  0  0  0  0
   59.1421   29.8607   51.1672 H   0  0  0  0  0  0  0  0  0  0  0  0
   57.8270   30.4712   50.1068 H   0  0  0  0  0  0  0  0  0  0  0  0
   58.2424   28.7237   50.1068 H   0  0  0  0  0  0  0  0  0  0  0  0
   57.5244   30.3914   46.5574 H   0  0  0  0  0  0  0  0  0  0  0  0
   58.6641   32.4837   47.2780 H   0  0  0  0  0  0  0  0  0  0  0  0
  1  2  1  0
  2  3  1  0
  3  4  2  0
  4  5  1  0
  5  6  2  0
  6  7  1  0
  7  8  2  0
  8  9  1  0
  9 10  1  0
 10 11  1  0
 11 12  2  0
 12 13  1  0
 13 14  2  0
 14 15  1  0
 15 16  2  0
 15 17  1  0
 17 18  1  0
 17 19  1  0
 19 20  1  0
 20 21  2  0
 20 22  1  0
 22 23  1  0
 23 24  2  0
 24 25  1  0
 25 26  2  0
 26 27  1  0
 27 28  2  0
 28 29  1  0
 14 30  1  0
 30 31  2  0
  8  3  1  0
 31 11  1  0
 28 23  1  0
  1 32  1  0
  1 33  1  0
  1 34  1  0
  4 35  1  0
  5 36  1  0
  6 37  1  0
  7 38  1  0
 10 39  1  0
 10 40  1  0
 12 41  1  0
 13 42  1  0
 17 43  1  6
 18 44  1  0
 18 45  1  0
 18 46  1  0
 19 47  1  0
 19 48  1  0
 24 49  1  0
 25 50  1  0
 26 51  1  0
 27 52  1  0
 29 53  1  0
 29 54  1  0
 29 55  1  0
 30 56  1  0
 31 57  1  0
M  CHG  2  17   1  22  -1
M  END
>  <UniqueID>  (4) 
4

>  <SMILES>  (4) 
COc1ccccc1OCc1ccc(C(=O)[N@@H+](C)CC(=O)[N-]c2ccccc2C)cc1

>  <Energy>  (4) 
67.43620074295038

>  <Genealogy>  (4) 
COc1ccccc1OCc1ccc(C(=O)[NH+](C)CC(=O)[N-]c2ccccc2C)cc1 (protonated)
COc1ccccc1OCc1ccc(C(=O)[N@@H+](C)CC(=O)[N-]c2ccccc2C)cc1 (chirality)
COc1ccccc1OCc1ccc(C(=O)[N@@H+](C)CC(=O)[N-]c2ccccc2C)cc1 (3D coordinates assigned)
COc1ccccc1OCc1ccc(C(=O)[N@@H+](C)CC(=O)[N-]c2ccccc2C)cc1 (optimized conformer: 67.43620074295038 kcal/mol)

>  <smiles>  (4) 
COc1ccccc1OCc1ccc(C(=O)N(C)CC(=O)Nc2ccccc2C)cc1

>  <score_type>  (4) 
oracle

>  <origin>  (4) 
adg

>  <m_score__min__energy>  (4) 
-8.5999999999999996

>  <m_primary>  (4) 
energy

$$$$
4:0
     RDKit          3D

 50 52  0  0  0  0  0  0  0  0999 V2000
   65.8890   32.7310   49.7990 C   0  0  0  0  0  0  0  0  0  0  0  0
   64.6400   32.7900   50.6840 C   0  0  0  0  0  0  0  0  0  0  0  0
   64.9060   33.1470   51.9950 F   0  0  0  0  0  0  0  0  0  0  0  0
   63.4780   33.5290   50.1000 C   0  0  0  0  0  0  0  0  0  0  0  0
   62.5800   32.3560   50.0080 N   0  0  0  0  0  0  0  0  0  0  0  0
   61.2320   32.0280   49.6540 C   0  0  0  0  0  0  0  0  0  0  0  0
   60.8110   30.8690   49.9140 O   0  0  0  0  0  0  0  0  0  0  0  0
   60.3570   32.9840   49.0110 N   0  0  0  0  0  0  0  0  0  0  0  0
   58.9070   32.7410   48.9450 C   0  0  0  0  0  0  0  0  0  0  0  0
   58.4250   32.8670   47.4970 C   0  0  0  0  0  0  0  0  0  0  0  0
   58.9670   34.0710   46.8490 N   0  0  0  0  0  0  0  0  0  0  0  0
   58.5390   34.4030   45.5140 C   0  0  0  0  0  0  0  0  0  0  0  0
   59.0450   35.3900   44.9120 O   0  0  0  0  0  0  0  0  0  0  0  0
   57.5270   33.6200   44.8700 N   0  0  0  0  0  0  0  0  0  0  0  0
   57.7980   32.6500   43.8150 C   0  0  0  0  0  0  0  0  0  0  0  0
   57.5320   31.2580   44.3180 C   0  0  0  0  0  0  0  0  0  0  0  0
   56.5710   30.4440   43.6940 C   0  0  0  0  0  0  0  0  0  0  0  0
   56.3620   29.1340   44.1370 C   0  0  0  0  0  0  0  0  0  0  0  0
   57.1090   28.6240   45.2090 C   0  0  0  0  0  0  0  0  0  0  0  0
   56.8320   26.9820   45.7820 S   0  0  0  0  0  0  0  0  0  0  0  0
   55.1370   26.7090   45.9970 N   0  0  0  0  0  0  0  0  0  0  0  0
   57.5250   26.7860   47.1040 O   0  0  0  0  0  0  0  0  0  0  0  0
   57.3770   26.0020   44.7820 O   0  0  0  0  0  0  0  0  0  0  0  0
   58.0810   29.4290   45.8210 C   0  0  0  0  0  0  0  0  0  0  0  0
   58.2980   30.7360   45.3740 C   0  0  0  0  0  0  0  0  0  0  0  0
   59.8320   34.9840   47.6120 C   0  0  0  0  0  0  0  0  0  0  0  0
   60.9030   34.1970   48.3810 C   0  0  0  0  0  0  0  0  0  0  0  0
   63.7220   31.6130   50.5760 C   0  0  0  0  0  0  0  0  0  0  0  0
   66.7864   32.6886   50.4337 H   0  0  0  0  0  0  0  0  0  0  0  0
   65.8463   31.8339   49.1639 H   0  0  0  0  0  0  0  0  0  0  0  0
   65.9311   33.6282   49.1639 H   0  0  0  0  0  0  0  0  0  0  0  0
   63.0901   34.3097   50.7709 H   0  0  0  0  0  0  0  0  0  0  0  0
   63.6578   34.0974   49.1756 H   0  0  0  0  0  0  0  0  0  0  0  0
   58.6892   31.7284   49.3155 H   0  0  0  0  0  0  0  0  0  0  0  0
   58.3858   33.4835   49.5671 H   0  0  0  0  0  0  0  0  0  0  0  0
   58.7517   31.9805   46.9336 H   0  0  0  0  0  0  0  0  0  0  0  0
   57.3278   32.9449   47.5051 H   0  0  0  0  0  0  0  0  0  0  0  0
   57.1465   32.8570   42.9532 H   0  0  0  0  0  0  0  0  0  0  0  0
   58.8524   32.7300   43.5120 H   0  0  0  0  0  0  0  0  0  0  0  0
   55.9809   30.8389   42.8538 H   0  0  0  0  0  0  0  0  0  0  0  0
   55.6095   28.5017   43.6432 H   0  0  0  0  0  0  0  0  0  0  0  0
   54.8820   27.0820   46.9400 H   0  0  0  0  0  0  0  0  0  0  0  0
   58.6753   29.0303   46.6564 H   0  0  0  0  0  0  0  0  0  0  0  0
   59.0706   31.3574   45.8504 H   0  0  0  0  0  0  0  0  0  0  0  0
   60.3242   35.6806   46.9174 H   0  0  0  0  0  0  0  0  0  0  0  0
   59.2136   35.5390   48.3328 H   0  0  0  0  0  0  0  0  0  0  0  0
   61.6990   33.9046   47.6803 H   0  0  0  0  0  0  0  0  0  0  0  0
   61.2909   34.8466   49.1794 H   0  0  0  0  0  0  0  0  0  0  0  0
   63.4920   31.1630   51.5530 H   0  0  0  0  0  0  0  0  0  0  0  0
   64.0864   30.7442   50.0082 H   0  0  0  0  0  0  0  0  0  0  0  0
  1  2  1  0
  2  3  1  0
  2  4  1  0
  4  5  1  0
  5  6  1  0
  6  7  2  0
  6  8  1  0
  8  9  1  0
  9 10  1  0
 10 11  1  0
 11 12  1  0
 12 13  2  0
 12 14  1  0
 14 15  1  0
 15 16  1  0
 16 17  2  0
 17 18  1  0
 18 19  2  0
 19 20  1  0
 20 21  1  0
 20 22  2  0
 20 23  2  0
 19 24  1  0
 24 25  2  0
 11 26  1  0
 26 27  1  0
  5 28  1  0
 28  2  1  0
 27  8  1  0
 25 16  1  0
  1 29  1  0
  1 30  1  0
  1 31  1  0
  4 32  1  0
  4 33  1  0
  9 34  1  0
  9 35  1  0
 10 36  1  0
 10 37  1  0
 15 38  1  0
 15 39  1  0
 17 40  1  0
 18 41  1  0
 21 42  1  0
 24 43  1  0
 25 44  1  0
 26 45  1  0
 26 46  1  0
 27 47  1  0
 27 48  1  0
 28 49  1  0
 28 50  1  0
M  CHG  2  14  -1  21  -1
M  END
>  <UniqueID>  (5) 
5

>  <SMILES>  (5) 
CC1(F)CN(C(=O)N2CCN(C(=O)[N-]Cc3ccc(S([NH-])(=O)=O)cc3)CC2)C1

>  <Energy>  (5) 
93.35257550140622

>  <Genealogy>  (5) 
CC1(F)CN(C(=O)N2CCN(C(=O)[N-]Cc3ccc(S([NH-])(=O)=O)cc3)CC2)C1 (protonated)
CC1(F)CN(C(=O)N2CCN(C(=O)[N-]Cc3ccc(S([NH-])(=O)=O)cc3)CC2)C1 (3D coordinates assigned)
CC1(F)CN(C(=O)N2CCN(C(=O)[N-]Cc3ccc(S([NH-])(=O)=O)cc3)CC2)C1 (nonaromatic ring conformer: 93.35257550140622 kcal/mol)

>  <smiles>  (5) 
CC1(F)CN(C(=O)N2CCN(C(=O)NCc3ccc(S(N)(=O)=O)cc3)CC2)C1

>  <score_type>  (5) 
oracle

>  <origin>  (5) 
adg

>  <m_score__min__energy>  (5) 
-12.390000000000001

>  <m_primary>  (5) 
energy

$$$$
5:0
     RDKit          3D

 49 51  0  0  0  0  0  0  0  0999 V2000
   56.6060   22.3320   42.7220 C   0  0  0  0  0  0  0  0  0  0  0  0
   56.3250   21.8370   43.9320 C   0  0  0  0  0  0  0  0  0  0  0  0
   56.5750   20.5560   44.2700 N   0  0  0  0  0  0  0  0  0  0  0  0
   56.1690   20.4000   45.5440 C   0  0  0  0  0  0  0  0  0  0  0  0
   56.3520   19.1430   46.3280 C   0  0  0  0  0  0  0  0  0  0  0  0
   55.6710   21.5880   46.0460 C   0  0  0  0  0  0  0  0  0  0  0  0
   55.7500   22.5130   45.0120 C   0  0  0  0  0  0  0  0  0  0  0  0
   55.4000   23.8120   45.0660 C   0  0  0  0  0  0  0  0  0  0  0  0
   56.3470   24.9120   45.3200 C   0  0  0  0  0  0  0  0  0  0  0  0
   57.6720   24.8160   45.0750 N   0  0  0  0  0  0  0  0  0  0  0  0
   58.1460   26.0450   45.3810 C   0  0  0  0  0  0  0  0  0  0  0  0
   59.3690   26.3430   45.3080 O   0  0  0  0  0  0  0  0  0  0  0  0
   57.1890   26.9130   45.7720 N   0  0  0  0  0  0  0  0  0  0  0  0
   57.3610   28.2950   46.2240 C   0  0  0  0  0  0  0  0  0  0  0  0
   57.1160   29.2790   45.0950 C   0  0  0  0  0  0  0  0  0  0  0  0
   55.9600   29.5820   44.8290 O   0  0  0  0  0  0  0  0  0  0  0  0
   58.1890   29.9060   44.3300 N   0  0  0  0  0  0  0  0  0  0  0  0
   57.8370   31.2790   43.9250 C   0  0  0  0  0  0  0  0  0  0  0  0
   57.9290   32.2660   45.0880 C   0  0  0  0  0  0  0  0  0  0  0  0
   59.2530   32.1960   45.7170 N   0  0  0  0  0  0  0  0  0  0  0  0
   59.8230   33.3620   46.3580 C   0  0  0  0  0  0  0  0  0  0  0  0
   59.0710   34.6580   46.4620 C   0  0  0  0  0  0  0  0  0  0  0  0
   60.9890   33.3100   46.8350 O   0  0  0  0  0  0  0  0  0  0  0  0
   59.8110   30.8750   46.0330 C   0  0  0  0  0  0  0  0  0  0  0  0
   59.5450   29.8390   44.9220 C   0  0  0  0  0  0  0  0  0  0  0  0
   56.0530   26.2000   45.7290 C   0  0  0  0  0  0  0  0  0  0  0  0
   54.7910   26.7140   46.0090 O   0  0  0  0  0  0  0  0  0  0  0  0
   56.3835   23.3847   42.4931 H   0  0  0  0  0  0  0  0  0  0  0  0
   57.0597   21.6865   41.9555 H   0  0  0  0  0  0  0  0  0  0  0  0
   57.0150   19.8240   43.6690 H   0  0  0  0  0  0  0  0  0  0  0  0
   56.3185   19.3733   47.4031 H   0  0  0  0  0  0  0  0  0  0  0  0
   55.5474   18.4353   46.0793 H   0  0  0  0  0  0  0  0  0  0  0  0
   57.3250   18.6941   46.0793 H   0  0  0  0  0  0  0  0  0  0  0  0
   55.2883   21.7657   47.0619 H   0  0  0  0  0  0  0  0  0  0  0  0
   54.3415   24.0680   44.9109 H   0  0  0  0  0  0  0  0  0  0  0  0
   56.6480   28.4975   47.0368 H   0  0  0  0  0  0  0  0  0  0  0  0
   58.3963   28.4194   46.5744 H   0  0  0  0  0  0  0  0  0  0  0  0
   58.2540   29.3520   43.4410 H   0  0  0  0  0  0  0  0  0  0  0  0
   58.5266   31.6018   43.1311 H   0  0  0  0  0  0  0  0  0  0  0  0
   56.7953   31.2700   43.5716 H   0  0  0  0  0  0  0  0  0  0  0  0
   57.7603   33.2858   44.7117 H   0  0  0  0  0  0  0  0  0  0  0  0
   57.1652   32.0070   45.8361 H   0  0  0  0  0  0  0  0  0  0  0  0
   58.9235   34.9123   47.5220 H   0  0  0  0  0  0  0  0  0  0  0  0
   59.6462   35.4562   45.9701 H   0  0  0  0  0  0  0  0  0  0  0  0
   58.0926   34.5547   45.9701 H   0  0  0  0  0  0  0  0  0  0  0  0
   60.8980   30.9748   46.1690 H   0  0  0  0  0  0  0  0  0  0  0  0
   59.3194   30.5156   46.9491 H   0  0  0  0  0  0  0  0  0  0  0  0
   60.2787   30.0010   44.1187 H   0  0  0  0  0  0  0  0  0  0  0  0
   59.6321   28.8481   45.3916 H   0  0  0  0  0  0  0  0  0  0  0  0
  1  2  2  0
  2  3  1  0
  3  4  1  0
  4  5  1  0
  4  6  2  0
  6  7  1  0
  7  8  2  3
  8  9  1  0
  9 10  1  0
 10 11  1  0
 11 12  2  0
 11 13  1  0
 13 14  1  0
 14 15  1  0
 15 16  2  0
 15 17  1  0
 17 18  1  0
 18 19  1  0
 19 20  1  0
 20 21  1  0
 21 22  1  0
 21 23  2  0
 20 24  1  0
 24 25  1  0
 13 26  1  0
 26 27  1  0
  7  2  1  0
 26  9  2  0
 25 17  1  0
  1 28  1  0
  1 29  1  0
  3 30  1  0
  5 31  1  0
  5 32  1  0
  5 33  1  0
  6 34  1  0
  8 35  1  0
 14 36  1  0
 14 37  1  0
 17 38  1  0
 18 39  1  0
 18 40  1  0
 19 41  1  0
 19 42  1  0
 22 43  1  0
 22 44  1  0
 22 45  1  0
 24 46  1  0
 24 47  1  0
 25 48  1  0
 25 49  1  0
M  CHG  3  10  -1  17   1  27  -1
M  END
>  <UniqueID>  (6) 
6

>  <SMILES>  (6) 
C=c1[nH]c(C)cc1=Cc1[n-]c(=O)n(CC(=O)[NH+]2CCN(C(C)=O)CC2)c1[O-]

>  <Energy>  (6) 
122.77112562344539

>  <Genealogy>  (6) 
C=c1[nH]c(C)cc1=Cc1[n-]c(=O)n(CC(=O)[NH+]2CCN(C(C)=O)CC2)c1[O-] (protonated)
C=c1[nH]c(C)cc1=Cc1[n-]c(=O)n(CC(=O)[NH+]2CCN(C(C)=O)CC2)c1[O-] (3D coordinates assigned)
C=c1[nH]c(C)cc1=Cc1[n-]c(=O)n(CC(=O)[NH+]2CCN(C(C)=O)CC2)c1[O-] (nonaromatic ring conformer: 122.77112562344539 kcal/mol)

>  <smiles>  (6) 
C=c1[nH]c(C)cc1=Cc1[nH]c(=O)n(CC(=O)N2CCN(C(C)=O)CC2)c1O

>  <score_type>  (6) 
oracle

>  <origin>  (6) 
adg

>  <m_score__min__energy>  (6) 
-11.77

>  <m_primary>  (6) 
energy

$$$$
6:0
     RDKit          3D

 48 50  0  0  0  0  0  0  0  0999 V2000
   57.8510   32.4670   41.3550 N   0  0  0  0  0  0  0  0  0  0  0  0
   57.7730   32.2260   42.4840 C   0  0  0  0  0  0  0  0  0  0  0  0
   57.6780   31.9200   43.8960 C   0  0  0  0  0  0  0  0  0  0  0  0
   56.9660   30.8600   44.3310 C   0  0  0  0  0  0  0  0  0  0  0  0
   57.5380   29.5380   44.6760 C   0  0  0  0  0  0  0  0  0  0  0  0
   58.9060   29.2630   44.5100 C   0  0  0  0  0  0  0  0  0  0  0  0
   59.4240   28.0220   44.8810 C   0  0  0  0  0  0  0  0  0  0  0  0
   58.5900   27.0470   45.4330 C   0  0  0  0  0  0  0  0  0  0  0  0
   57.2210   27.3080   45.6250 C   0  0  0  0  0  0  0  0  0  0  0  0
   56.3240   26.2910   46.2280 C   0  0  0  0  0  0  0  0  0  0  0  0
   56.8330   25.2370   47.0500 N   0  0  0  0  0  0  0  0  0  0  0  0
   55.0840   26.3420   46.0040 O   0  0  0  0  0  0  0  0  0  0  0  0
   56.7100   28.5670   45.2590 C   0  0  0  0  0  0  0  0  0  0  0  0
   58.3120   32.8510   44.8680 C   0  0  0  0  0  0  0  0  0  0  0  0
   58.6750   34.1550   44.4830 C   0  0  0  0  0  0  0  0  0  0  0  0
   59.2660   35.0260   45.4010 C   0  0  0  0  0  0  0  0  0  0  0  0
   59.4940   34.6130   46.7140 C   0  0  0  0  0  0  0  0  0  0  0  0
   59.1200   33.3260   47.1290 C   0  0  0  0  0  0  0  0  0  0  0  0
   59.3700   32.8810   48.5200 C   0  0  0  0  0  0  0  0  0  0  0  0
   59.2810   33.7160   49.4610 O   0  0  0  0  0  0  0  0  0  0  0  0
   59.6900   31.5100   48.8220 N   0  0  0  0  0  0  0  0  0  0  0  0
   60.7430   30.8090   48.0730 C   0  0  0  0  0  0  0  0  0  0  0  0
   60.3220   29.3650   47.7430 C   0  0  0  0  0  0  0  0  0  0  0  0
   59.4100   28.7260   48.8110 C   0  0  0  0  0  0  0  0  0  0  0  0
   59.5260   29.4270   50.1680 C   0  0  0  0  0  0  0  0  0  0  0  0
   59.1290   30.9030   50.0380 C   0  0  0  0  0  0  0  0  0  0  0  0
   58.5390   32.4470   46.1970 C   0  0  0  0  0  0  0  0  0  0  0  0
   55.8786   30.9870   44.4375 H   0  0  0  0  0  0  0  0  0  0  0  0
   59.5712   30.0295   44.0857 H   0  0  0  0  0  0  0  0  0  0  0  0
   60.4940   27.8104   44.7382 H   0  0  0  0  0  0  0  0  0  0  0  0
   59.0059   26.0697   45.7192 H   0  0  0  0  0  0  0  0  0  0  0  0
   57.8560   25.0540   47.1390 H   0  0  0  0  0  0  0  0  0  0  0  0
   56.1730   24.5720   47.5110 H   0  0  0  0  0  0  0  0  0  0  0  0
   55.6475   28.7928   45.4323 H   0  0  0  0  0  0  0  0  0  0  0  0
   58.4919   34.4907   43.4516 H   0  0  0  0  0  0  0  0  0  0  0  0
   59.5526   36.0408   45.0878 H   0  0  0  0  0  0  0  0  0  0  0  0
   59.9700   35.3008   47.4284 H   0  0  0  0  0  0  0  0  0  0  0  0
   60.9371   31.3497   47.1350 H   0  0  0  0  0  0  0  0  0  0  0  0
   61.6498   30.7748   48.6948 H   0  0  0  0  0  0  0  0  0  0  0  0
   59.7828   29.3709   46.7842 H   0  0  0  0  0  0  0  0  0  0  0  0
   61.2417   28.7629   47.7033 H   0  0  0  0  0  0  0  0  0  0  0  0
   58.3665   28.7883   48.4685 H   0  0  0  0  0  0  0  0  0  0  0  0
   59.7272   27.6811   48.9434 H   0  0  0  0  0  0  0  0  0  0  0  0
   58.8587   28.9336   50.8900 H   0  0  0  0  0  0  0  0  0  0  0  0
   60.5677   29.3650   50.5159 H   0  0  0  0  0  0  0  0  0  0  0  0
   58.0321   30.9754   49.9996 H   0  0  0  0  0  0  0  0  0  0  0  0
   59.5286   31.4444   50.9082 H   0  0  0  0  0  0  0  0  0  0  0  0
   58.2585   31.4308   46.5109 H   0  0  0  0  0  0  0  0  0  0  0  0
  1  2  3  0
  2  3  1  0
  3  4  2  3
  4  5  1  0
  5  6  2  0
  6  7  1  0
  7  8  2  0
  8  9  1  0
  9 10  1  0
 10 11  1  0
 10 12  2  0
  9 13  2  0
  3 14  1  0
 14 15  2  0
 15 16  1  0
 16 17  2  0
 17 18  1  0
 18 19  1  0
 19 20  2  0
 19 21  1  0
 21 22  1  0
 22 23  1  0
 23 24  1  0
 24 25  1  0
 25 26  1  0
 18 27  2  0
 13  5  1  0
 27 14  1  0
 26 21  1  0
  4 28  1  0
  6 29  1  0
  7 30  1  0
  8 31  1  0
 11 32  1  0
 11 33  1  0
 13 34  1  0
 15 35  1  0
 16 36  1  0
 17 37  1  0
 22 38  1  0
 22 39  1  0
 23 40  1  0
 23 41  1  0
 24 42  1  0
 24 43  1  0
 25 44  1  0
 25 45  1  0
 26 46  1  0
 26 47  1  0
 27 48  1  0
M  END
>  <UniqueID>  (7) 
7

>  <SMILES>  (7) 
N#CC(=Cc1cccc(C(N)=O)c1)c1cccc(C(=O)N2CCCCC2)c1

>  <Energy>  (7) 
66.02436337402904

>  <Genealogy>  (7) 
N#CC(=Cc1cccc(C(N)=O)c1)c1cccc(C(=O)N2CCCCC2)c1 (3D coordinates assigned)
N#CC(=Cc1cccc(C(N)=O)c1)c1cccc(C(=O)N2CCCCC2)c1 (nonaromatic ring conformer: 66.02436337402904 kcal/mol)

>  <smiles>  (7) 
N#CC(=Cc1cccc(C(N)=O)c1)c1cccc(C(=O)N2CCCCC2)c1

>  <score_type>  (7) 
oracle

>  <origin>  (7) 
adg

>  <m_score__min__energy>  (7) 
-10.07

>  <m_primary>  (7) 
energy

$$$$
7:0
     RDKit          3D

 49 51  0  0  0  0  0  0  0  0999 V2000
   58.0270   21.2260   43.5480 N   0  0  0  0  0  0  0  0  0  0  0  0
   56.6520   22.2170   43.8950 S   0  0  0  0  0  0  0  0  0  0  0  0
   55.7030   21.4370   44.7620 O   0  0  0  0  0  0  0  0  0  0  0  0
   55.9710   22.5860   42.6100 O   0  0  0  0  0  0  0  0  0  0  0  0
   57.1500   23.6850   44.7360 C   0  0  0  0  0  0  0  0  0  0  0  0
   57.4030   24.8590   44.0120 C   0  0  0  0  0  0  0  0  0  0  0  0
   57.7940   26.0300   44.6730 C   0  0  0  0  0  0  0  0  0  0  0  0
   58.1400   27.4840   43.7390 S   0  0  0  0  0  0  0  0  0  0  0  0
   59.6250   27.7210   43.7540 O   0  0  0  0  0  0  0  0  0  0  0  0
   57.6940   27.3020   42.3140 O   0  0  0  0  0  0  0  0  0  0  0  0
   57.3170   28.8500   44.4510 N   0  0  0  0  0  0  0  0  0  0  0  0
   57.1100   29.9070   43.4380 C   0  0  0  0  0  0  0  0  0  0  0  0
   56.9590   31.2780   44.1010 C   0  0  0  0  0  0  0  0  0  0  0  0
   58.2120   31.6660   44.7740 N   0  0  0  0  0  0  0  0  0  0  0  0
   57.9290   32.9690   45.9070 S   0  0  0  0  0  0  0  0  0  0  0  0
   56.6480   33.6790   45.5580 O   0  0  0  0  0  0  0  0  0  0  0  0
   57.7820   32.3690   47.2800 O   0  0  0  0  0  0  0  0  0  0  0  0
   59.2930   34.0830   45.8740 N   0  0  0  0  0  0  0  0  0  0  0  0
   59.2100   35.0540   46.9730 C   0  0  0  0  0  0  0  0  0  0  0  0
   60.0200   34.5140   48.1480 C   0  0  0  0  0  0  0  0  0  0  0  0
   60.7960   33.3340   47.5970 C   0  0  0  0  0  0  0  0  0  0  0  0
   60.5630   33.3860   46.0980 C   0  0  0  0  0  0  0  0  0  0  0  0
   58.9240   30.5310   45.4140 C   0  0  0  0  0  0  0  0  0  0  0  0
   58.0120   29.3180   45.6740 C   0  0  0  0  0  0  0  0  0  0  0  0
   57.9340   26.0260   46.0680 C   0  0  0  0  0  0  0  0  0  0  0  0
   57.6730   24.8610   46.7940 C   0  0  0  0  0  0  0  0  0  0  0  0
   57.2780   23.6940   46.1340 C   0  0  0  0  0  0  0  0  0  0  0  0
   57.0190   22.5760   46.8590 F   0  0  0  0  0  0  0  0  0  0  0  0
   57.6670   20.3250   43.1630 H   0  0  0  0  0  0  0  0  0  0  0  0
   58.4830   21.0030   44.4610 H   0  0  0  0  0  0  0  0  0  0  0  0
   57.2936   24.8601   42.9175 H   0  0  0  0  0  0  0  0  0  0  0  0
   57.9749   29.9289   42.7587 H   0  0  0  0  0  0  0  0  0  0  0  0
   56.1886   29.6833   42.8804 H   0  0  0  0  0  0  0  0  0  0  0  0
   56.7135   32.0265   43.3332 H   0  0  0  0  0  0  0  0  0  0  0  0
   56.1545   31.2250   44.8493 H   0  0  0  0  0  0  0  0  0  0  0  0
   59.6235   36.0202   46.6483 H   0  0  0  0  0  0  0  0  0  0  0  0
   58.1615   35.2027   47.2705 H   0  0  0  0  0  0  0  0  0  0  0  0
   60.7085   35.2839   48.5264 H   0  0  0  0  0  0  0  0  0  0  0  0
   59.3738   34.2208   48.9885 H   0  0  0  0  0  0  0  0  0  0  0  0
   61.8672   33.4328   47.8268 H   0  0  0  0  0  0  0  0  0  0  0  0
   60.4698   32.3796   48.0361 H   0  0  0  0  0  0  0  0  0  0  0  0
   61.3829   33.9326   45.6091 H   0  0  0  0  0  0  0  0  0  0  0  0
   60.5279   32.3709   45.6757 H   0  0  0  0  0  0  0  0  0  0  0  0
   59.7462   30.2163   44.7544 H   0  0  0  0  0  0  0  0  0  0  0  0
   59.2913   30.8814   46.3898 H   0  0  0  0  0  0  0  0  0  0  0  0
   58.6261   28.4941   46.0664 H   0  0  0  0  0  0  0  0  0  0  0  0
   57.2414   29.6309   46.3940 H   0  0  0  0  0  0  0  0  0  0  0  0
   58.2495   26.9406   46.5913 H   0  0  0  0  0  0  0  0  0  0  0  0
   57.7788   24.8623   47.8889 H   0  0  0  0  0  0  0  0  0  0  0  0
  1  2  1  0
  2  3  2  0
  2  4  2  0
  2  5  1  0
  5  6  2  0
  6  7  1  0
  7  8  1  0
  8  9  2  0
  8 10  2  0
  8 11  1  0
 11 12  1  0
 12 13  1  0
 13 14  1  0
 14 15  1  0
 15 16  2  0
 15 17  2  0
 15 18  1  0
 18 19  1  0
 19 20  1  0
 20 21  1  0
 21 22  1  0
 14 23  1  0
 23 24  1  0
  7 25  2  0
 25 26  1  0
 26 27  2  0
 27 28  1  0
 27  5  1  0
 24 11  1  0
 22 18  1  0
  1 29  1  0
  1 30  1  0
  6 31  1  0
 12 32  1  0
 12 33  1  0
 13 34  1  0
 13 35  1  0
 19 36  1  0
 19 37  1  0
 20 38  1  0
 20 39  1  0
 21 40  1  0
 21 41  1  0
 22 42  1  0
 22 43  1  0
 23 44  1  0
 23 45  1  0
 24 46  1  0
 24 47  1  0
 25 48  1  0
 26 49  1  0
M  END
>  <UniqueID>  (8) 
8

>  <SMILES>  (8) 
NS(=O)(=O)c1cc(S(=O)(=O)N2CCN(S(=O)(=O)N3CCCC3)CC2)ccc1F

>  <Energy>  (8) 
59.65460130819274

>  <Genealogy>  (8) 
NS(=O)(=O)c1cc(S(=O)(=O)N2CCN(S(=O)(=O)N3CCCC3)CC2)ccc1F (3D coordinates assigned)
NS(=O)(=O)c1cc(S(=O)(=O)N2CCN(S(=O)(=O)N3CCCC3)CC2)ccc1F (nonaromatic ring conformer: 59.65460130819274 kcal/mol)

>  <smiles>  (8) 
NS(=O)(=O)c1cc(S(=O)(=O)N2CCN(S(=O)(=O)N3CCCC3)CC2)ccc1F

>  <score_type>  (8) 
oracle

>  <origin>  (8) 
adg

>  <m_score__min__energy>  (8) 
-10.26

>  <m_primary>  (8) 
energy

$$$$
8:0
     RDKit          3D

 53 56  0  0  0  0  0  0  0  0999 V2000
   54.1950   28.2590   52.8660 C   0  0  0  0  0  0  0  0  0  0  0  0
   54.9400   29.3340   52.5610 C   0  0  0  0  0  0  0  0  0  0  0  0
   54.5210   30.4890   51.8780 C   0  0  0  0  0  0  0  0  0  0  0  0
   53.3850   30.7640   51.2070 C   0  0  0  0  0  0  0  0  0  0  0  0
   52.1840   31.4020   51.7690 C   0  0  0  0  0  0  0  0  0  0  0  0
   51.8370   31.3060   53.0650 N   0  0  0  0  0  0  0  0  0  0  0  0
   50.7590   32.1130   53.1600 C   0  0  0  0  0  0  0  0  0  0  0  0
   50.1280   32.2760   54.2370 O   0  0  0  0  0  0  0  0  0  0  0  0
   50.4150   32.7390   52.0160 N   0  0  0  0  0  0  0  0  0  0  0  0
   51.3360   32.2960   51.1450 C   0  0  0  0  0  0  0  0  0  0  0  0
   51.4070   32.7270   49.8230 O   0  0  0  0  0  0  0  0  0  0  0  0
   55.5580   31.4010   51.9920 C   0  0  0  0  0  0  0  0  0  0  0  0
   56.5740   30.7710   52.6810 C   0  0  0  0  0  0  0  0  0  0  0  0
   57.9040   31.4040   52.9860 C   0  0  0  0  0  0  0  0  0  0  0  0
   58.3280   32.3100   51.8600 C   0  0  0  0  0  0  0  0  0  0  0  0
   58.3110   33.5560   52.0580 O   0  0  0  0  0  0  0  0  0  0  0  0
   58.7780   31.7970   50.5860 N   0  0  0  0  0  0  0  0  0  0  0  0
   58.9160   32.7190   49.4450 C   0  0  0  0  0  0  0  0  0  0  0  0
   58.5800   32.0110   48.1250 C   0  0  0  0  0  0  0  0  0  0  0  0
   59.2000   30.6810   48.0450 N   0  0  0  0  0  0  0  0  0  0  0  0
   58.9350   29.8420   46.9060 C   0  0  0  0  0  0  0  0  0  0  0  0
   59.3390   28.4960   46.9050 C   0  0  0  0  0  0  0  0  0  0  0  0
   59.0940   27.6880   45.7900 C   0  0  0  0  0  0  0  0  0  0  0  0
   58.4570   28.2180   44.6620 C   0  0  0  0  0  0  0  0  0  0  0  0
   58.1570   27.2030   43.2610 Cl  0  0  0  0  0  0  0  0  0  0  0  0
   58.0560   29.5570   44.6530 C   0  0  0  0  0  0  0  0  0  0  0  0
   58.2950   30.3670   45.7700 C   0  0  0  0  0  0  0  0  0  0  0  0
   60.0210   30.1890   49.1570 C   0  0  0  0  0  0  0  0  0  0  0  0
   59.2820   30.4160   50.4770 C   0  0  0  0  0  0  0  0  0  0  0  0
   56.2150   29.5040   52.9990 N   0  0  0  0  0  0  0  0  0  0  0  0
   57.0130   28.5440   53.7720 C   0  0  0  0  0  0  0  0  0  0  0  0
   54.6448   27.4138   53.4075 H   0  0  0  0  0  0  0  0  0  0  0  0
   53.1350   28.2237   52.5743 H   0  0  0  0  0  0  0  0  0  0  0  0
   53.3527   30.4864   50.1431 H   0  0  0  0  0  0  0  0  0  0  0  0
   51.7670   32.1300   49.0880 H   0  0  0  0  0  0  0  0  0  0  0  0
   55.5691   32.4312   51.6066 H   0  0  0  0  0  0  0  0  0  0  0  0
   57.8212   31.9919   53.9120 H   0  0  0  0  0  0  0  0  0  0  0  0
   58.6562   30.6105   53.1064 H   0  0  0  0  0  0  0  0  0  0  0  0
   58.2303   33.5680   49.5830 H   0  0  0  0  0  0  0  0  0  0  0  0
   59.9576   33.0697   49.4005 H   0  0  0  0  0  0  0  0  0  0  0  0
   57.4883   31.9000   48.0485 H   0  0  0  0  0  0  0  0  0  0  0  0
   58.9744   32.6219   47.2997 H   0  0  0  0  0  0  0  0  0  0  0  0
   59.8497   28.0764   47.7843 H   0  0  0  0  0  0  0  0  0  0  0  0
   59.4030   26.6323   45.7996 H   0  0  0  0  0  0  0  0  0  0  0  0
   57.5527   29.9745   43.7685 H   0  0  0  0  0  0  0  0  0  0  0  0
   57.9799   31.4208   45.7584 H   0  0  0  0  0  0  0  0  0  0  0  0
   60.2118   29.1139   49.0240 H   0  0  0  0  0  0  0  0  0  0  0  0
   60.9774   30.7322   49.1745 H   0  0  0  0  0  0  0  0  0  0  0  0
   58.4320   29.7202   50.5345 H   0  0  0  0  0  0  0  0  0  0  0  0
   59.9889   30.2416   51.3016 H   0  0  0  0  0  0  0  0  0  0  0  0
   56.8633   28.7241   54.8468 H   0  0  0  0  0  0  0  0  0  0  0  0
   56.6961   27.5202   53.5242 H   0  0  0  0  0  0  0  0  0  0  0  0
   58.0775   28.6685   53.5242 H   0  0  0  0  0  0  0  0  0  0  0  0
  1  2  2  0
  2  3  1  0
  3  4  2  3
  4  5  1  0
  5  6  1  0
  6  7  1  0
  7  8  2  0
  7  9  1  0
  9 10  1  0
 10 11  1  0
  3 12  1  0
 12 13  2  0
 13 14  1  0
 14 15  1  0
 15 16  2  0
 15 17  1  0
 17 18  1  0
 18 19  1  0
 19 20  1  0
 20 21  1  0
 21 22  2  0
 22 23  1  0
 23 24  2  0
 24 25  1  0
 24 26  1  0
 26 27  2  0
 20 28  1  0
 28 29  1  0
 13 30  1  0
 30 31  1  0
 30  2  1  0
 10  5  2  0
 29 17  1  0
 27 21  1  0
  1 32  1  0
  1 33  1  0
  4 34  1  0
 11 35  1  0
 12 36  1  0
 14 37  1  0
 14 38  1  0
 18 39  1  0
 18 40  1  0
 19 41  1  0
 19 42  1  0
 22 43  1  0
 23 44  1  0
 26 45  1  0
 27 46  1  0
 28 47  1  0
 28 48  1  0
 29 49  1  0
 29 50  1  0
 31 51  1  0
 31 52  1  0
 31 53  1  0
M  CHG  2   6  -1   9  -1
M  END
>  <UniqueID>  (9) 
9

>  <SMILES>  (9) 
C=c1c(=Cc2[n-]c(=O)[n-]c2O)cc(CC(=O)N2CCN(c3ccc(Cl)cc3)CC2)n1C

>  <Energy>  (9) 
129.58595660788177

>  <Genealogy>  (9) 
C=c1c(=Cc2[n-]c(=O)[n-]c2O)cc(CC(=O)N2CCN(c3ccc(Cl)cc3)CC2)n1C (protonated)
C=c1c(=Cc2[n-]c(=O)[n-]c2O)cc(CC(=O)N2CCN(c3ccc(Cl)cc3)CC2)n1C (3D coordinates assigned)
C=c1c(=Cc2[n-]c(=O)[n-]c2O)cc(CC(=O)N2CCN(c3ccc(Cl)cc3)CC2)n1C (nonaromatic ring conformer: 129.58595660788177 kcal/mol)

>  <smiles>  (9) 
C=c1c(=Cc2[nH]c(=O)[nH]c2O)cc(CC(=O)N2CCN(c3ccc(Cl)cc3)CC2)n1C

>  <score_type>  (9) 
oracle

>  <origin>  (9) 
adg

>  <m_score__min__energy>  (9) 
-14.19

>  <m_primary>  (9) 
energy

$$$$
9:0
     RDKit          3D

 51 54  0  0  0  0  0  0  0  0999 V2000
   54.7100   30.7150   51.2760 C   0  0  0  0  0  0  0  0  0  0  0  0
   54.6100   30.4250   52.5840 C   0  0  0  0  0  0  0  0  0  0  0  0
   53.4750   30.5690   53.4010 C   0  0  0  0  0  0  0  0  0  0  0  0
   52.1940   30.8490   53.0940 C   0  0  0  0  0  0  0  0  0  0  0  0
   51.6560   31.0460   51.7390 C   0  0  0  0  0  0  0  0  0  0  0  0
   51.8940   30.2050   50.7160 N   0  0  0  0  0  0  0  0  0  0  0  0
   51.3350   30.8370   49.6600 C   0  0  0  0  0  0  0  0  0  0  0  0
   51.3430   30.3500   48.4980 O   0  0  0  0  0  0  0  0  0  0  0  0
   50.7860   32.0410   49.9400 N   0  0  0  0  0  0  0  0  0  0  0  0
   51.0100   32.1640   51.2590 C   0  0  0  0  0  0  0  0  0  0  0  0
   50.6600   33.2850   51.9990 O   0  0  0  0  0  0  0  0  0  0  0  0
   53.9080   30.3710   54.7020 C   0  0  0  0  0  0  0  0  0  0  0  0
   55.2470   30.0500   54.6360 C   0  0  0  0  0  0  0  0  0  0  0  0
   56.1050   29.7170   55.8190 C   0  0  0  0  0  0  0  0  0  0  0  0
   55.6760   30.0900   53.3540 N   0  0  0  0  0  0  0  0  0  0  0  0
   57.0270   29.8530   52.9230 C   0  0  0  0  0  0  0  0  0  0  0  0
   57.4250   28.6710   52.7450 O   0  0  0  0  0  0  0  0  0  0  0  0
   57.9090   30.9550   52.6550 N   0  0  0  0  0  0  0  0  0  0  0  0
   57.3890   32.1440   51.9610 C   0  0  0  0  0  0  0  0  0  0  0  0
   58.4470   33.2460   51.8840 C   0  0  0  0  0  0  0  0  0  0  0  0
   59.7180   32.6740   51.4220 N   0  0  0  0  0  0  0  0  0  0  0  0
   60.3370   33.1690   50.2220 C   0  0  0  0  0  0  0  0  0  0  0  0
   59.6180   33.4960   49.2380 O   0  0  0  0  0  0  0  0  0  0  0  0
   61.8060   33.3000   50.1180 C   0  0  0  0  0  0  0  0  0  0  0  0
   62.5830   33.5020   51.2730 C   0  0  0  0  0  0  0  0  0  0  0  0
   63.9750   33.5920   51.1790 C   0  0  0  0  0  0  0  0  0  0  0  0
   64.6020   33.4680   49.9350 C   0  0  0  0  0  0  0  0  0  0  0  0
   63.8390   33.2550   48.7830 C   0  0  0  0  0  0  0  0  0  0  0  0
   64.4510   33.1200   47.5790 F   0  0  0  0  0  0  0  0  0  0  0  0
   62.4450   33.1730   48.8710 C   0  0  0  0  0  0  0  0  0  0  0  0
   60.2500   31.4590   52.0620 C   0  0  0  0  0  0  0  0  0  0  0  0
   59.2990   30.9170   53.1350 C   0  0  0  0  0  0  0  0  0  0  0  0
   55.6620   30.5556   50.7485 H   0  0  0  0  0  0  0  0  0  0  0  0
   53.8399   31.1119   50.7325 H   0  0  0  0  0  0  0  0  0  0  0  0
   51.4865   30.9384   53.9315 H   0  0  0  0  0  0  0  0  0  0  0  0
   53.2991   30.4541   55.6143 H   0  0  0  0  0  0  0  0  0  0  0  0
   55.5518   29.9317   56.7452 H   0  0  0  0  0  0  0  0  0  0  0  0
   56.3715   28.6502   55.7900 H   0  0  0  0  0  0  0  0  0  0  0  0
   57.0214   30.3247   55.7900 H   0  0  0  0  0  0  0  0  0  0  0  0
   57.0898   31.8618   50.9408 H   0  0  0  0  0  0  0  0  0  0  0  0
   56.5266   32.5278   52.5258 H   0  0  0  0  0  0  0  0  0  0  0  0
   58.1166   34.0226   51.1785 H   0  0  0  0  0  0  0  0  0  0  0  0
   58.5861   33.6905   52.8805 H   0  0  0  0  0  0  0  0  0  0  0  0
   62.0934   33.5895   52.2542 H   0  0  0  0  0  0  0  0  0  0  0  0
   64.5774   33.7604   52.0839 H   0  0  0  0  0  0  0  0  0  0  0  0
   65.6974   33.5382   49.8628 H   0  0  0  0  0  0  0  0  0  0  0  0
   61.8469   33.0088   47.9625 H   0  0  0  0  0  0  0  0  0  0  0  0
   60.3961   30.6864   51.2928 H   0  0  0  0  0  0  0  0  0  0  0  0
   61.2019   31.7180   52.5485 H   0  0  0  0  0  0  0  0  0  0  0  0
   59.5728   29.8780   53.3706 H   0  0  0  0  0  0  0  0  0  0  0  0
   59.3828   31.5434   54.0353 H   0  0  0  0  0  0  0  0  0  0  0  0
  1  2  2  0
  2  3  1  0
  3  4  2  3
  4  5  1  0
  5  6  1  0
  6  7  1  0
  7  8  2  0
  7  9  1  0
  9 10  1  0
 10 11  1  0
  3 12  1  0
 12 13  2  0
 13 14  1  0
 13 15  1  0
 15 16  1  0
 16 17  2  0
 16 18  1  0
 18 19  1  0
 19 20  1  0
 20 21  1  0
 21 22  1  0
 22 23  2  0
 22 24  1  0
 24 25  2  0
 25 26  1  0
 26 27  2  0
 27 28  1  0
 28 29  1  0
 28 30  2  0
 21 31  1  0
 31 32  1  0
 15  2  1  0
 32 18  1  0
 10  5  2  0
 30 24  1  0
  1 33  1  0
  1 34  1  0
  4 35  1  0
 12 36  1  0
 14 37  1  0
 14 38  1  0
 14 39  1  0
 19 40  1  0
 19 41  1  0
 20 42  1  0
 20 43  1  0
 25 44  1  0
 26 45  1  0
 27 46  1  0
 30 47  1  0
 31 48  1  0
 31 49  1  0
 32 50  1  0
 32 51  1  0
M  CHG  3   6  -1   9  -1  11  -1
M  END
>  <UniqueID>  (10) 
10

>  <SMILES>  (10) 
C=c1c(=Cc2[n-]c(=O)[n-]c2[O-])cc(C)n1C(=O)N1CCN(C(=O)c2cccc(F)c2)CC1

>  <Energy>  (10) 
136.60470321905325

>  <Genealogy>  (10) 
C=c1c(=Cc2[n-]c(=O)[n-]c2[O-])cc(C)n1C(=O)N1CCN(C(=O)c2cccc(F)c2)CC1 (protonated)
C=c1c(=Cc2[n-]c(=O)[n-]c2[O-])cc(C)n1C(=O)N1CCN(C(=O)c2cccc(F)c2)CC1 (3D coordinates assigned)
C=c1c(=Cc2[n-]c(=O)[n-]c2[O-])cc(C)n1C(=O)N1CCN(C(=O)c2cccc(F)c2)CC1 (nonaromatic ring conformer: 136.60470321905325 kcal/mol)

>  <smiles>  (10) 
C=c1c(=Cc2[nH]c(=O)[nH]c2O)cc(C)n1C(=O)N1CCN(C(=O)c2cccc(F)c2)CC1

>  <score_type>  (10) 
oracle

>  <origin>  (10) 
adg

>  <m_score__min__energy>  (10) 
-16.989999999999998

>  <m_primary>  (10) 
energy

$$$$
10:0
     RDKit          3D

 69 72  0  0  1  0  0  0  0  0999 V2000
   58.7280   30.0650   55.6010 C   0  0  0  0  0  0  0  0  0  0  0  0
   58.5270   29.5450   54.1830 C   0  0  0  0  0  0  0  0  0  0  0  0
   59.3200   28.2590   54.0880 C   0  0  0  0  0  0  0  0  0  0  0  0
   59.0090   30.4670   53.2000 N   0  0  0  0  0  0  0  0  0  0  0  0
   58.5260   30.4570   51.8640 C   0  0  0  0  0  0  0  0  0  0  0  0
   57.6400   29.6160   51.5030 O   0  0  0  0  0  0  0  0  0  0  0  0
   58.9870   31.3750   50.8320 C   0  0  0  0  0  0  0  0  0  0  0  0
   58.1390   31.7010   49.7950 C   0  0  0  0  0  0  0  0  0  0  0  0
   58.5120   32.5670   48.7780 C   0  0  0  0  0  0  0  0  0  0  0  0
   59.7660   33.1220   48.8020 C   0  0  0  0  0  0  0  0  0  0  0  0
   60.6370   32.8140   49.8270 C   0  0  0  0  0  0  0  0  0  0  0  0
   60.2400   31.9480   50.8250 C   0  0  0  0  0  0  0  0  0  0  0  0
   61.8080   33.5020   49.6020 C   0  0  0  0  0  0  0  0  0  0  0  0
   63.2110   33.4300   50.6350 Cl  0  0  0  0  0  0  0  0  0  0  0  0
   61.6450   34.2250   48.4390 C   0  0  0  0  0  0  0  0  0  0  0  0
   60.4030   33.9820   47.9720 N   0  0  0  0  0  0  0  0  0  0  0  0
   59.8880   34.5880   46.7480 C   0  0  0  0  0  0  0  0  0  0  0  0
   58.9840   33.6210   46.0750 C   0  0  0  0  0  0  0  0  0  0  0  0
   59.5030   32.3480   45.8520 C   0  0  0  0  0  0  0  0  0  0  0  0
   58.7330   31.3890   45.2330 C   0  0  0  0  0  0  0  0  0  0  0  0
   57.4500   31.6830   44.8340 C   0  0  0  0  0  0  0  0  0  0  0  0
   56.6790   30.6500   44.1910 C   0  0  0  0  0  0  0  0  0  0  0  0
   56.8800   30.2310   42.8490 N   0  0  0  0  0  0  0  0  0  0  0  0
   55.7700   30.0750   44.8420 O   0  0  0  0  0  0  0  0  0  0  0  0
   56.9470   32.9420   45.0600 C   0  0  0  0  0  0  0  0  0  0  0  0
   57.7020   33.9260   45.6800 C   0  0  0  0  0  0  0  0  0  0  0  0
   57.0740   29.2090   53.9620 C   0  0  0  0  0  0  0  0  0  0  0  0
   56.7520   28.0200   53.7080 O   0  0  0  0  0  0  0  0  0  0  0  0
   56.1350   30.2730   54.0570 N   0  0  0  0  0  0  0  0  0  0  0  0
   55.2980   30.5360   53.1130 C   0  0  0  0  0  0  0  0  0  0  0  0
   53.9570   30.2230   53.1770 C   0  0  0  0  0  0  0  0  0  0  0  0
   53.4060   30.6640   51.9810 C   0  0  0  0  0  0  0  0  0  0  0  0
   51.9940   30.5390   51.6080 C   0  0  0  0  0  0  0  0  0  0  0  0
   51.2560   31.8200   51.9630 C   0  0  0  0  0  0  0  0  0  0  0  0
   51.7720   30.3170   50.1280 C   0  0  0  0  0  0  0  0  0  0  0  0
   51.4210   29.3770   52.3800 C   0  0  0  0  0  0  0  0  0  0  0  0
   54.4060   31.2090   51.2680 N   0  0  0  0  0  0  0  0  0  0  0  0
   55.5530   31.1300   51.9560 N   0  0  0  0  0  0  0  0  0  0  0  0
   58.4284   29.2899   56.3217 H   0  0  0  0  0  0  0  0  0  0  0  0
   59.7881   30.3165   55.7525 H   0  0  0  0  0  0  0  0  0  0  0  0
   58.1126   30.9641   55.7525 H   0  0  0  0  0  0  0  0  0  0  0  0
   59.5462   27.8921   55.1000 H   0  0  0  0  0  0  0  0  0  0  0  0
   58.7305   27.5038   53.5475 H   0  0  0  0  0  0  0  0  0  0  0  0
   60.2595   28.4466   53.5475 H   0  0  0  0  0  0  0  0  0  0  0  0
   59.7360   31.1770   53.4400 H   0  0  0  0  0  0  0  0  0  0  0  0
   57.1319   31.2590   49.7735 H   0  0  0  0  0  0  0  0  0  0  0  0
   57.8120   32.8054   47.9636 H   0  0  0  0  0  0  0  0  0  0  0  0
   60.9426   31.7086   51.6368 H   0  0  0  0  0  0  0  0  0  0  0  0
   62.3945   34.8828   47.9747 H   0  0  0  0  0  0  0  0  0  0  0  0
   59.3307   35.5035   46.9956 H   0  0  0  0  0  0  0  0  0  0  0  0
   60.7231   34.8443   46.0795 H   0  0  0  0  0  0  0  0  0  0  0  0
   60.5283   32.1087   46.1705 H   0  0  0  0  0  0  0  0  0  0  0  0
   59.1453   30.3845   45.0570 H   0  0  0  0  0  0  0  0  0  0  0  0
   56.0660   30.0560   42.2090 H   0  0  0  0  0  0  0  0  0  0  0  0
   57.8590   30.1010   42.5220 H   0  0  0  0  0  0  0  0  0  0  0  0
   55.9203   33.1747   44.7412 H   0  0  0  0  0  0  0  0  0  0  0  0
   57.2848   34.9291   45.8523 H   0  0  0  0  0  0  0  0  0  0  0  0
   53.4312   29.7259   54.0055 H   0  0  0  0  0  0  0  0  0  0  0  0
   51.1989   31.9191   53.0570 H   0  0  0  0  0  0  0  0  0  0  0  0
   51.7958   32.6822   51.5444 H   0  0  0  0  0  0  0  0  0  0  0  0
   50.2393   31.7855   51.5444 H   0  0  0  0  0  0  0  0  0  0  0  0
   51.0008   29.5458   49.9845 H   0  0  0  0  0  0  0  0  0  0  0  0
   51.4418   31.2570   49.6617 H   0  0  0  0  0  0  0  0  0  0  0  0
   52.7120   29.9868   49.6617 H   0  0  0  0  0  0  0  0  0  0  0  0
   51.5165   29.5706   53.4586 H   0  0  0  0  0  0  0  0  0  0  0  0
   50.3588   29.2536   52.1222 H   0  0  0  0  0  0  0  0  0  0  0  0
   51.9698   28.4592   52.1222 H   0  0  0  0  0  0  0  0  0  0  0  0
   54.2590   31.6220   50.3160 H   0  0  0  0  0  0  0  0  0  0  0  0
   56.4860   31.4750   51.6400 H   0  0  0  0  0  0  0  0  0  0  0  0
  1  2  1  0
  2  3  1  0
  2  4  1  0
  4  5  1  0
  5  6  2  0
  5  7  1  0
  7  8  2  0
  8  9  1  0
  9 10  2  0
 10 11  1  0
 11 12  2  0
 11 13  1  0
 13 14  1  0
 13 15  2  0
 15 16  1  0
 16 17  1  0
 17 18  1  0
 18 19  2  0
 19 20  1  0
 20 21  2  0
 21 22  1  0
 22 23  1  0
 22 24  2  0
 21 25  1  0
 25 26  2  0
  2 27  1  0
 27 28  2  0
 27 29  1  0
 29 30  2  0
 30 31  1  0
 31 32  2  0
 32 33  1  0
 33 34  1  0
 33 35  1  0
 33 36  1  0
 32 37  1  0
 37 38  1  0
 12  7  1  0
 26 18  1  0
 38 30  1  0
 16 10  1  0
  1 39  1  0
  1 40  1  0
  1 41  1  0
  3 42  1  0
  3 43  1  0
  3 44  1  0
  4 45  1  0
  8 46  1  0
  9 47  1  0
 12 48  1  0
 15 49  1  0
 17 50  1  0
 17 51  1  0
 19 52  1  0
 20 53  1  0
 23 54  1  0
 23 55  1  0
 25 56  1  0
 26 57  1  0
 31 58  1  0
 34 59  1  0
 34 60  1  0
 34 61  1  0
 35 62  1  0
 35 63  1  0
 35 64  1  0
 36 65  1  0
 36 66  1  0
 36 67  1  0
 37 68  1  0
 38 69  1  0
M  END
>  <smiles>  (11) 
CC(C)(NC(=O)c1ccc2c(c1)c(Cl)cn2Cc1ccc(C(N)=O)cc1)C(=O)N=c1cc(C(C)(C)C)[nH][nH]1

>  <score_type>  (11) 
oracle

>  <origin>  (11) 
adg

>  <m_score__min__energy>  (11) 
-10.84

>  <m_primary>  (11) 
energy

$$$$
11:0
     RDKit          3D

 40 42  0  0  0  0  0  0  0  0999 V2000
   57.3180   24.2550   47.8710 C   0  0  0  0  0  0  0  0  0  0  0  0
   57.8950   25.3540   47.3800 C   0  0  0  0  0  0  0  0  0  0  0  0
   58.7030   26.0870   48.1150 O   0  0  0  0  0  0  0  0  0  0  0  0
   59.2030   27.0510   47.3810 C   0  0  0  0  0  0  0  0  0  0  0  0
   58.7120   26.9630   46.0930 C   0  0  0  0  0  0  0  0  0  0  0  0
   59.0000   27.9640   45.0040 C   0  0  0  0  0  0  0  0  0  0  0  0
   59.2120   29.3410   45.5900 C   0  0  0  0  0  0  0  0  0  0  0  0
   60.5070   29.7180   45.9850 C   0  0  0  0  0  0  0  0  0  0  0  0
   60.7400   30.9690   46.5580 C   0  0  0  0  0  0  0  0  0  0  0  0
   59.6860   31.8640   46.7320 C   0  0  0  0  0  0  0  0  0  0  0  0
   58.3920   31.5110   46.3440 C   0  0  0  0  0  0  0  0  0  0  0  0
   57.3750   32.4520   46.4670 O   0  0  0  0  0  0  0  0  0  0  0  0
   58.1350   30.2330   45.8040 C   0  0  0  0  0  0  0  0  0  0  0  0
   56.8100   29.8550   45.3960 N   0  0  0  0  0  0  0  0  0  0  0  0
   56.2200   30.1350   44.1210 C   0  0  0  0  0  0  0  0  0  0  0  0
   57.0200   30.8380   43.0780 C   0  0  0  0  0  0  0  0  0  0  0  0
   55.0650   29.7150   43.8430 O   0  0  0  0  0  0  0  0  0  0  0  0
   57.8290   25.8820   46.0810 C   0  0  0  0  0  0  0  0  0  0  0  0
   57.1050   25.4830   45.0140 C   0  0  0  0  0  0  0  0  0  0  0  0
   55.7960   24.8030   45.0730 C   0  0  0  0  0  0  0  0  0  0  0  0
   54.6710   25.4360   45.6270 C   0  0  0  0  0  0  0  0  0  0  0  0
   54.7730   26.7030   46.1900 O   0  0  0  0  0  0  0  0  0  0  0  0
   53.4650   24.8120   45.6090 N   0  0  0  0  0  0  0  0  0  0  0  0
   53.3190   23.5870   45.0440 C   0  0  0  0  0  0  0  0  0  0  0  0
   52.1940   23.0260   45.0430 O   0  0  0  0  0  0  0  0  0  0  0  0
   54.3860   22.9680   44.4750 N   0  0  0  0  0  0  0  0  0  0  0  0
   55.6130   23.5500   44.4690 C   0  0  0  0  0  0  0  0  0  0  0  0
   56.5780   22.9530   43.9220 O   0  0  0  0  0  0  0  0  0  0  0  0
   56.6457   23.6572   47.2381 H   0  0  0  0  0  0  0  0  0  0  0  0
   57.5148   23.9472   48.9085 H   0  0  0  0  0  0  0  0  0  0  0  0
   59.9084   27.8160   47.7376 H   0  0  0  0  0  0  0  0  0  0  0  0
   59.9072   27.6580   44.4623 H   0  0  0  0  0  0  0  0  0  0  0  0
   58.1409   27.9989   44.3180 H   0  0  0  0  0  0  0  0  0  0  0  0
   61.3451   29.0202   45.8411 H   0  0  0  0  0  0  0  0  0  0  0  0
   61.7563   31.2488   46.8725 H   0  0  0  0  0  0  0  0  0  0  0  0
   59.8742   32.8523   47.1767 H   0  0  0  0  0  0  0  0  0  0  0  0
   57.7619   31.4899   43.5624 H   0  0  0  0  0  0  0  0  0  0  0  0
   57.5371   30.0968   42.4510 H   0  0  0  0  0  0  0  0  0  0  0  0
   56.3514   31.4461   42.4510 H   0  0  0  0  0  0  0  0  0  0  0  0
   57.5255   25.6811   44.0170 H   0  0  0  0  0  0  0  0  0  0  0  0
  1  2  2  0
  2  3  1  0
  3  4  1  0
  4  5  2  0
  5  6  1  0
  6  7  1  0
  7  8  2  0
  8  9  1  0
  9 10  2  0
 10 11  1  0
 11 12  1  0
 11 13  2  0
 13 14  1  0
 14 15  1  0
 15 16  1  0
 15 17  2  0
  5 18  1  0
 18 19  2  3
 19 20  1  0
 20 21  2  0
 21 22  1  0
 21 23  1  0
 23 24  1  0
 24 25  2  0
 24 26  1  0
 26 27  1  0
 27 28  2  0
 18  2  1  0
 27 20  1  0
 13  7  1  0
  1 29  1  0
  1 30  1  0
  4 31  1  0
  6 32  1  0
  6 33  1  0
  8 34  1  0
  9 35  1  0
 10 36  1  0
 16 37  1  0
 16 38  1  0
 16 39  1  0
 19 40  1  0
M  CHG  5  12  -1  14  -1  22  -1  23  -1  26  -1
M  END
>  <UniqueID>  (12) 
11

>  <SMILES>  (12) 
C=c1occ(Cc2cccc([O-])c2[N-]C(C)=O)c1=Cc1c([O-])[n-]c(=O)[n-]c1=O

>  <Energy>  (12) 
86.86494846882222

>  <Genealogy>  (12) 
C=c1occ(Cc2cccc([O-])c2[N-]C(C)=O)c1=Cc1c([O-])[n-]c(=O)[n-]c1=O (protonated)
C=c1occ(Cc2cccc([O-])c2[N-]C(C)=O)c1=Cc1c([O-])[n-]c(=O)[n-]c1=O (3D coordinates assigned)
C=c1occ(Cc2cccc([O-])c2[N-]C(C)=O)c1=Cc1c([O-])[n-]c(=O)[n-]c1=O (optimized conformer: 86.86494846882222 kcal/mol)

>  <smiles>  (12) 
C=c1occ(Cc2cccc(O)c2NC(C)=O)c1=Cc1c(O)[nH]c(=O)[nH]c1=O

>  <score_type>  (12) 
oracle

>  <origin>  (12) 
adg

>  <m_score__min__energy>  (12) 
-17.789999999999999

>  <m_primary>  (12) 
energy

$$$$
12:0
     RDKit          3D

 52 55  0  0  0  0  0  0  0  0999 V2000
   54.4350   26.1870   45.9890 N   0  0  0  0  0  0  0  0  0  0  0  0
   55.7610   25.0770   45.9950 S   0  0  0  0  0  0  0  0  0  0  0  0
   55.7010   24.2120   44.7680 O   0  0  0  0  0  0  0  0  0  0  0  0
   55.6580   24.2070   47.2110 O   0  0  0  0  0  0  0  0  0  0  0  0
   57.2830   25.9690   46.0050 C   0  0  0  0  0  0  0  0  0  0  0  0
   58.5090   25.2940   46.0440 C   0  0  0  0  0  0  0  0  0  0  0  0
   59.7090   26.0120   46.0220 C   0  0  0  0  0  0  0  0  0  0  0  0
   59.6930   27.4090   45.9550 C   0  0  0  0  0  0  0  0  0  0  0  0
   58.4700   28.1030   45.9210 C   0  0  0  0  0  0  0  0  0  0  0  0
   58.4390   29.5810   45.8390 C   0  0  0  0  0  0  0  0  0  0  0  0
   57.5620   30.3440   45.0730 C   0  0  0  0  0  0  0  0  0  0  0  0
   57.6940   31.7230   45.2770 C   0  0  0  0  0  0  0  0  0  0  0  0
   58.6920   32.0520   46.1840 C   0  0  0  0  0  0  0  0  0  0  0  0
   58.9460   33.3880   46.7360 C   0  0  0  0  0  0  0  0  0  0  0  0
   57.9970   34.2170   46.7790 O   0  0  0  0  0  0  0  0  0  0  0  0
   60.2360   33.7370   47.2730 N   0  0  0  0  0  0  0  0  0  0  0  0
   60.3360   34.5870   48.4680 C   0  0  0  0  0  0  0  0  0  0  0  0
   61.3740   33.9930   49.4340 C   0  0  0  0  0  0  0  0  0  0  0  0
   62.6100   33.5770   48.7310 N   0  0  0  0  0  0  0  0  0  0  0  0
   63.5790   32.7210   49.3760 C   0  0  0  0  0  0  0  0  0  0  0  0
   64.1410   31.8130   48.7010 O   0  0  0  0  0  0  0  0  0  0  0  0
   63.9840   32.8730   50.8330 C   0  0  1  0  0  0  0  0  0  0  0  0
   65.3370   32.2790   51.1530 C   0  0  0  0  0  0  0  0  0  0  0  0
   66.0870   33.4200   51.8190 C   0  0  0  0  0  0  0  0  0  0  0  0
   65.4560   34.6280   51.4850 O   0  0  0  0  0  0  0  0  0  0  0  0
   64.0990   34.3230   51.2890 C   0  0  0  0  0  0  0  0  0  0  0  0
   62.7180   33.8520   47.2870 C   0  0  0  0  0  0  0  0  0  0  0  0
   61.4640   33.3160   46.5750 C   0  0  0  0  0  0  0  0  0  0  0  0
   59.3770   30.6310   46.7610 S   0  0  0  0  0  0  0  0  0  0  0  0
   57.2660   27.3700   45.9550 C   0  0  0  0  0  0  0  0  0  0  0  0
   54.7790   27.0800   46.4010 H   0  0  0  0  0  0  0  0  0  0  0  0
   58.5285   24.1952   46.0921 H   0  0  0  0  0  0  0  0  0  0  0  0
   60.6690   25.4761   46.0575 H   0  0  0  0  0  0  0  0  0  0  0  0
   60.6405   27.9671   45.9288 H   0  0  0  0  0  0  0  0  0  0  0  0
   56.8346   29.9054   44.3741 H   0  0  0  0  0  0  0  0  0  0  0  0
   57.0686   32.4717   44.7687 H   0  0  0  0  0  0  0  0  0  0  0  0
   60.6475   35.5998   48.1726 H   0  0  0  0  0  0  0  0  0  0  0  0
   59.3567   34.6354   48.9666 H   0  0  0  0  0  0  0  0  0  0  0  0
   61.6321   34.7509   50.1883 H   0  0  0  0  0  0  0  0  0  0  0  0
   60.9321   33.1011   49.9022 H   0  0  0  0  0  0  0  0  0  0  0  0
   63.1706   32.3433   51.3505 H   0  0  0  0  0  0  0  0  0  0  0  0
   65.2372   31.4237   51.8374 H   0  0  0  0  0  0  0  0  0  0  0  0
   65.8537   31.8942   50.2614 H   0  0  0  0  0  0  0  0  0  0  0  0
   66.0735   33.2847   52.9106 H   0  0  0  0  0  0  0  0  0  0  0  0
   67.1313   33.4344   51.4738 H   0  0  0  0  0  0  0  0  0  0  0  0
   63.5493   34.4590   52.2320 H   0  0  0  0  0  0  0  0  0  0  0  0
   63.6716   34.9904   50.5262 H   0  0  0  0  0  0  0  0  0  0  0  0
   62.7982   34.9369   47.1240 H   0  0  0  0  0  0  0  0  0  0  0  0
   63.6130   33.3567   46.8823 H   0  0  0  0  0  0  0  0  0  0  0  0
   61.4425   33.7029   45.5455 H   0  0  0  0  0  0  0  0  0  0  0  0
   61.5059   32.2168   46.5745 H   0  0  0  0  0  0  0  0  0  0  0  0
   56.3037   27.9027   45.9422 H   0  0  0  0  0  0  0  0  0  0  0  0
  1  2  1  0
  2  3  2  0
  2  4  2  0
  2  5  1  0
  5  6  2  0
  6  7  1  0
  7  8  2  0
  8  9  1  0
  9 10  1  0
 10 11  2  0
 11 12  1  0
 12 13  2  0
 13 14  1  0
 14 15  2  0
 14 16  1  0
 16 17  1  0
 17 18  1  0
 18 19  1  0
 19 20  1  0
 20 21  2  0
 20 22  1  0
 22 23  1  0
 23 24  1  0
 24 25  1  0
 25 26  1  0
 19 27  1  0
 27 28  1  0
 13 29  1  0
  9 30  2  0
 30  5  1  0
 29 10  1  0
 28 16  1  0
 26 22  1  0
  1 31  1  0
  6 32  1  0
  7 33  1  0
  8 34  1  0
 11 35  1  0
 12 36  1  0
 17 37  1  0
 17 38  1  0
 18 39  1  0
 18 40  1  0
 22 41  1  1
 23 42  1  0
 23 43  1  0
 24 44  1  0
 24 45  1  0
 26 46  1  0
 26 47  1  0
 27 48  1  0
 27 49  1  0
 28 50  1  0
 28 51  1  0
 30 52  1  0
M  CHG  1   1  -1
M  END
>  <UniqueID>  (13) 
12

>  <SMILES>  (13) 
[NH-]S(=O)(=O)c1cccc(-c2ccc(C(=O)N3CCN(C(=O)[C@H]4CCOC4)CC3)s2)c1

>  <Energy>  (13) 
93.4746075896397

>  <Genealogy>  (13) 
[NH-]S(=O)(=O)c1cccc(-c2ccc(C(=O)N3CCN(C(=O)C4CCOC4)CC3)s2)c1 (protonated)
[NH-]S(=O)(=O)c1cccc(-c2ccc(C(=O)N3CCN(C(=O)[C@H]4CCOC4)CC3)s2)c1 (chirality)
[NH-]S(=O)(=O)c1cccc(-c2ccc(C(=O)N3CCN(C(=O)[C@H]4CCOC4)CC3)s2)c1 (3D coordinates assigned)
[NH-]S(=O)(=O)c1cccc(-c2ccc(C(=O)N3CCN(C(=O)[C@H]4CCOC4)CC3)s2)c1 (nonaromatic ring conformer: 93.4746075896397 kcal/mol)

>  <smiles>  (13) 
NS(=O)(=O)c1cccc(-c2ccc(C(=O)N3CCN(C(=O)C4CCOC4)CC3)s2)c1

>  <score_type>  (13) 
oracle

>  <origin>  (13) 
adg

>  <m_score__min__energy>  (13) 
-12.220000000000001

>  <m_primary>  (13) 
energy

$$$$
13:0
     RDKit          3D

 61 64  0  0  0  0  0  0  0  0999 V2000
   55.8570   27.2130   45.6230 N   0  0  0  0  0  0  0  0  0  0  0  0
   57.5160   26.8660   45.2920 S   0  0  0  0  0  0  0  0  0  0  0  0
   57.6820   25.3970   45.0160 O   0  0  0  0  0  0  0  0  0  0  0  0
   57.9510   27.6400   44.0790 O   0  0  0  0  0  0  0  0  0  0  0  0
   58.4940   27.3150   46.6850 C   0  0  0  0  0  0  0  0  0  0  0  0
   58.1310   28.4020   47.4940 C   0  0  0  0  0  0  0  0  0  0  0  0
   58.9120   28.7460   48.6020 C   0  0  0  0  0  0  0  0  0  0  0  0
   60.0570   27.9990   48.9210 C   0  0  0  0  0  0  0  0  0  0  0  0
   60.9150   28.3870   50.0930 C   0  0  0  0  0  0  0  0  0  0  0  0
   61.5610   29.7520   49.8590 C   0  0  0  0  0  0  0  0  0  0  0  0
   60.5640   30.8040   50.0080 N   0  0  0  0  0  0  0  0  0  0  0  0
   59.5250   31.1290   51.0120 C   0  0  0  0  0  0  0  0  0  0  0  0
   59.1300   30.6060   52.0870 O   0  0  0  0  0  0  0  0  0  0  0  0
   59.1450   32.3390   50.2220 C   0  0  0  0  0  0  0  0  0  0  0  0
   60.1690   31.9780   49.2510 C   0  0  0  0  0  0  0  0  0  0  0  0
   61.3360   32.9950   49.1820 C   0  0  0  0  0  0  0  0  0  0  0  0
   60.9250   34.2350   48.3740 C   0  0  0  0  0  0  0  0  0  0  0  0
   60.1990   33.8720   47.1470 N   0  0  0  0  0  0  0  0  0  0  0  0
   59.5420   34.9160   46.3960 C   0  0  0  0  0  0  0  0  0  0  0  0
   59.9400   36.1070   46.5210 O   0  0  0  0  0  0  0  0  0  0  0  0
   58.3980   34.6060   45.4580 C   0  0  0  0  0  0  0  0  0  0  0  0
   58.8310   33.9150   44.1510 C   0  0  0  0  0  0  0  0  0  0  0  0
   58.0650   32.6390   43.8950 C   0  0  0  0  0  0  0  0  0  0  0  0
   57.7130   32.2660   42.5870 C   0  0  0  0  0  0  0  0  0  0  0  0
   57.0080   31.0810   42.3570 C   0  0  0  0  0  0  0  0  0  0  0  0
   56.6420   30.2590   43.4310 C   0  0  0  0  0  0  0  0  0  0  0  0
   55.9410   29.0770   43.2130 O   0  0  0  0  0  0  0  0  0  0  0  0
   56.9830   30.6310   44.7340 C   0  0  0  0  0  0  0  0  0  0  0  0
   57.6890   31.8140   44.9680 C   0  0  0  0  0  0  0  0  0  0  0  0
   60.1740   32.4640   46.7200 C   0  0  0  0  0  0  0  0  0  0  0  0
   59.6160   31.5820   47.8430 C   0  0  0  0  0  0  0  0  0  0  0  0
   60.4240   26.9190   48.1020 C   0  0  0  0  0  0  0  0  0  0  0  0
   59.6430   26.5770   46.9940 C   0  0  0  0  0  0  0  0  0  0  0  0
   55.5500   27.9330   44.9320 H   0  0  0  0  0  0  0  0  0  0  0  0
   57.2294   28.9856   47.2562 H   0  0  0  0  0  0  0  0  0  0  0  0
   58.6278   29.6059   49.2264 H   0  0  0  0  0  0  0  0  0  0  0  0
   60.2914   28.4327   50.9980 H   0  0  0  0  0  0  0  0  0  0  0  0
   61.7089   27.6355   50.2151 H   0  0  0  0  0  0  0  0  0  0  0  0
   62.3657   29.9054   50.5931 H   0  0  0  0  0  0  0  0  0  0  0  0
   61.9753   29.7870   48.8406 H   0  0  0  0  0  0  0  0  0  0  0  0
   58.1180   32.3214   49.8282 H   0  0  0  0  0  0  0  0  0  0  0  0
   59.1229   33.3374   50.6831 H   0  0  0  0  0  0  0  0  0  0  0  0
   61.6085   33.3024   50.2024 H   0  0  0  0  0  0  0  0  0  0  0  0
   62.1941   32.5172   48.6867 H   0  0  0  0  0  0  0  0  0  0  0  0
   60.2761   34.8673   48.9977 H   0  0  0  0  0  0  0  0  0  0  0  0
   61.8398   34.7723   48.0835 H   0  0  0  0  0  0  0  0  0  0  0  0
   57.6908   33.9454   45.9810 H   0  0  0  0  0  0  0  0  0  0  0  0
   57.9473   35.5689   45.1755 H   0  0  0  0  0  0  0  0  0  0  0  0
   58.6584   34.6053   43.3122 H   0  0  0  0  0  0  0  0  0  0  0  0
   59.8956   33.6547   44.2453 H   0  0  0  0  0  0  0  0  0  0  0  0
   57.9935   32.9094   41.7400 H   0  0  0  0  0  0  0  0  0  0  0  0
   56.7398   30.7930   41.3298 H   0  0  0  0  0  0  0  0  0  0  0  0
   56.1590   28.2300   43.7240 H   0  0  0  0  0  0  0  0  0  0  0  0
   56.6943   29.9895   45.5797 H   0  0  0  0  0  0  0  0  0  0  0  0
   57.9515   32.1005   45.9971 H   0  0  0  0  0  0  0  0  0  0  0  0
   59.5363   32.3654   45.8292 H   0  0  0  0  0  0  0  0  0  0  0  0
   61.1989   32.1412   46.4846 H   0  0  0  0  0  0  0  0  0  0  0  0
   58.5203   31.6785   47.8551 H   0  0  0  0  0  0  0  0  0  0  0  0
   59.9304   30.5474   47.6409 H   0  0  0  0  0  0  0  0  0  0  0  0
   61.3300   26.3395   48.3332 H   0  0  0  0  0  0  0  0  0  0  0  0
   59.9325   25.7243   46.3622 H   0  0  0  0  0  0  0  0  0  0  0  0
  1  2  1  0
  2  3  2  0
  2  4  2  0
  2  5  1  0
  5  6  2  0
  6  7  1  0
  7  8  2  0
  8  9  1  0
  9 10  1  0
 10 11  1  0
 11 12  1  0
 12 13  2  0
 12 14  1  0
 14 15  1  0
 15 16  1  0
 16 17  1  0
 17 18  1  0
 18 19  1  0
 19 20  2  0
 19 21  1  0
 21 22  1  0
 22 23  1  0
 23 24  2  0
 24 25  1  0
 25 26  2  0
 26 27  1  0
 26 28  1  0
 28 29  2  0
 18 30  1  0
 30 31  1  0
  8 32  1  0
 32 33  2  0
 33  5  1  0
 15 11  1  0
 29 23  1  0
 31 15  1  0
  1 34  1  0
  6 35  1  0
  7 36  1  0
  9 37  1  0
  9 38  1  0
 10 39  1  0
 10 40  1  0
 14 41  1  0
 14 42  1  0
 16 43  1  0
 16 44  1  0
 17 45  1  0
 17 46  1  0
 21 47  1  0
 21 48  1  0
 22 49  1  0
 22 50  1  0
 24 51  1  0
 25 52  1  0
 27 53  1  0
 28 54  1  0
 29 55  1  0
 30 56  1  0
 30 57  1  0
 31 58  1  0
 31 59  1  0
 32 60  1  0
 33 61  1  0
M  CHG  1   1  -1
M  END
>  <UniqueID>  (14) 
13

>  <SMILES>  (14) 
[NH-]S(=O)(=O)c1ccc(CCN2C(=O)CC23CCN(C(=O)CCc2ccc(O)cc2)CC3)cc1

>  <Energy>  (14) 
94.45080015923052

>  <Genealogy>  (14) 
[NH-]S(=O)(=O)c1ccc(CCN2C(=O)CC23CCN(C(=O)CCc2ccc(O)cc2)CC3)cc1 (protonated)
[NH-]S(=O)(=O)c1ccc(CCN2C(=O)CC23CCN(C(=O)CCc2ccc(O)cc2)CC3)cc1 (3D coordinates assigned)
[NH-]S(=O)(=O)c1ccc(CCN2C(=O)CC23CCN(C(=O)CCc2ccc(O)cc2)CC3)cc1 (nonaromatic ring conformer: 94.45080015923052 kcal/mol)

>  <smiles>  (14) 
NS(=O)(=O)c1ccc(CCN2C(=O)CC23CCN(C(=O)CCc2ccc(O)cc2)CC3)cc1

>  <score_type>  (14) 
oracle

>  <origin>  (14) 
adg

>  <m_score__min__energy>  (14) 
-13.06

>  <m_primary>  (14) 
energy

$$$$
14:0
     RDKit          3D

 46 49  0  0  0  0  0  0  0  0999 V2000
   56.4284   22.7803   46.6466 H   0  0  0  0  0  0  0  0  0  0  0  0
   56.4950   23.6970   47.2510 C   0  0  0  0  0  0  0  0  0  0  0  0
   56.0579   23.7234   48.2601 H   0  0  0  0  0  0  0  0  0  0  0  0
   57.1060   24.7770   46.7600 C   0  0  0  0  0  0  0  0  0  0  0  0
   57.2130   25.9280   47.4660 N   0  0  0  0  0  0  0  0  0  0  0  0
   57.8550   26.7760   46.6350 C   0  0  0  0  0  0  0  0  0  0  0  0
   58.1380   28.0560   46.9120 C   0  0  0  0  0  0  0  0  0  0  0  0
   58.7814   28.2696   47.7783 H   0  0  0  0  0  0  0  0  0  0  0  0
   57.6350   29.1960   46.1200 C   0  0  0  0  0  0  0  0  0  0  0  0
   56.4620   29.2990   45.3730 C   0  0  0  0  0  0  0  0  0  0  0  0
   55.5200   28.2900   45.2220 O   0  0  0  0  0  0  0  0  0  0  0  0
   56.3030   30.5300   44.8340 N   0  0  0  0  0  0  0  0  0  0  0  0
   57.3820   31.2160   45.2570 C   0  0  0  0  0  0  0  0  0  0  0  0
   57.6810   32.5460   44.9740 C   0  0  0  0  0  0  0  0  0  0  0  0
   57.0137   33.1520   44.3436 H   0  0  0  0  0  0  0  0  0  0  0  0
   58.8590   33.0960   45.5150 C   0  0  0  0  0  0  0  0  0  0  0  0
   59.2760   34.9240   45.1210 Br  0  0  0  0  0  0  0  0  0  0  0  0
   59.7080   32.3010   46.3310 C   0  0  0  0  0  0  0  0  0  0  0  0
   61.3200   33.0080   47.0870 Br  0  0  0  0  0  0  0  0  0  0  0  0
   59.3750   30.9590   46.5990 C   0  0  0  0  0  0  0  0  0  0  0  0
   60.0227   30.3307   47.2281 H   0  0  0  0  0  0  0  0  0  0  0  0
   58.2020   30.4490   46.0450 C   0  0  0  0  0  0  0  0  0  0  0  0
   58.1110   26.1260   45.4470 C   0  0  0  0  0  0  0  0  0  0  0  0
   58.6690   26.6230   44.4310 O   0  0  0  0  0  0  0  0  0  0  0  0
   57.6590   24.8620   45.5230 N   0  0  0  0  0  0  0  0  0  0  0  0
   57.6730   23.8610   44.4500 C   0  0  0  0  0  0  0  0  0  0  0  0
   57.6390   24.3716   43.4763 H   0  0  0  0  0  0  0  0  0  0  0  0
   58.5931   23.2633   44.5286 H   0  0  0  0  0  0  0  0  0  0  0  0
   56.4630   22.9340   44.5770 C   0  0  0  0  0  0  0  0  0  0  0  0
   56.6483   22.0159   44.0002 H   0  0  0  0  0  0  0  0  0  0  0  0
   56.3114   22.6908   45.6390 H   0  0  0  0  0  0  0  0  0  0  0  0
   55.2630   23.5870   44.0670 N   0  0  0  0  0  0  0  0  0  0  0  0
   54.1450   23.9340   44.8880 C   0  0  0  0  0  0  0  0  0  0  0  0
   54.1940   24.9530   45.6300 O   0  0  0  0  0  0  0  0  0  0  0  0
   52.9930   23.0840   44.8890 N   0  0  0  0  0  0  0  0  0  0  0  0
   52.1400   22.8090   46.0100 C   0  0  0  0  0  0  0  0  0  0  0  0
   52.6350   22.2600   47.2080 C   0  0  0  0  0  0  0  0  0  0  0  0
   53.7031   22.0129   47.2981 H   0  0  0  0  0  0  0  0  0  0  0  0
   51.7720   22.0280   48.2840 C   0  0  0  0  0  0  0  0  0  0  0  0
   52.1612   21.5912   49.2155 H   0  0  0  0  0  0  0  0  0  0  0  0
   50.4160   22.3500   48.1780 C   0  0  0  0  0  0  0  0  0  0  0  0
   49.7373   22.1587   49.0223 H   0  0  0  0  0  0  0  0  0  0  0  0
   49.9230   22.9150   46.9990 C   0  0  0  0  0  0  0  0  0  0  0  0
   48.8570   23.1737   46.9175 H   0  0  0  0  0  0  0  0  0  0  0  0
   50.7840   23.1520   45.9220 C   0  0  0  0  0  0  0  0  0  0  0  0
   50.3944   23.6101   45.0009 H   0  0  0  0  0  0  0  0  0  0  0  0
  1  2  1  0
  2  3  1  0
  2  4  2  0
  4  5  1  0
  5  6  1  0
  6  7  2  0
  7  8  1  0
  7  9  1  0
  9 10  2  0
 10 11  1  0
 10 12  1  0
 12 13  1  0
 13 14  2  0
 14 15  1  0
 14 16  1  0
 16 17  1  0
 16 18  2  0
 18 19  1  0
 18 20  1  0
 20 21  1  0
 20 22  2  0
  6 23  1  0
 23 24  2  0
 23 25  1  0
 25 26  1  0
 26 27  1  0
 26 28  1  0
 26 29  1  0
 29 30  1  0
 29 31  1  0
 29 32  1  0
 32 33  1  0
 33 34  2  0
 33 35  1  0
 35 36  1  0
 36 37  2  0
 37 38  1  0
 37 39  1  0
 39 40  1  0
 39 41  2  0
 41 42  1  0
 41 43  1  0
 43 44  1  0
 43 45  2  0
 45 46  1  0
 25  4  1  0
 45 36  1  0
 22  9  1  0
 22 13  1  0
M  CHG  5   5  -1  11  -1  12  -1  32  -1  35  -1
M  END
>  <UniqueID>  (15) 
14

>  <SMILES>  (15) 
C=c1[n-]/c(=C\c2c([O-])[n-]c3cc(Br)c(Br)cc23)c(=O)n1CC[N-]C(=O)[N-]c1ccccc1

>  <Energy>  (15) 
120.70891421391038

>  <Genealogy>  (15) 
C=c1[n-]c(=Cc2c([O-])[n-]c3cc(Br)c(Br)cc23)c(=O)n1CC[N-]C(=O)[N-]c1ccccc1 (protonated)
C=c1[n-]/c(=C\c2c([O-])[n-]c3cc(Br)c(Br)cc23)c(=O)n1CC[N-]C(=O)[N-]c1ccccc1 (cis-trans isomerization)
C=c1[n-]/c(=C\c2c([O-])[n-]c3cc(Br)c(Br)cc23)c(=O)n1CC[N-]C(=O)[N-]c1ccccc1 (3D coordinates assigned)
C=c1[n-]/c(=C\c2c([O-])[n-]c3cc(Br)c(Br)cc23)c(=O)n1CC[N-]C(=O)[N-]c1ccccc1 (optimized conformer: 120.70891421391038 kcal/mol)

>  <smiles>  (15) 
C=c1[nH]c(=Cc2c(O)[nH]c3cc(Br)c(Br)cc23)c(=O)n1CCNC(=O)Nc1ccccc1

>  <score_type>  (15) 
oracle

>  <origin>  (15) 
adg

>  <m_score__min__energy>  (15) 
-18.18

>  <m_primary>  (15) 
energy

$$$$
15:0
     RDKit          3D

 47 51  0  0  0  0  0  0  0  0999 V2000
   58.3254   26.9501   43.5645 H   0  0  0  0  0  0  0  0  0  0  0  0
   57.8190   27.2020   44.5080 C   0  0  0  0  0  0  0  0  0  0  0  0
   57.3310   26.0780   45.3310 C   0  0  0  0  0  0  0  0  0  0  0  0
   57.9550   24.8980   45.4950 N   0  0  0  0  0  0  0  0  0  0  0  0
   57.0910   24.1790   46.2430 C   0  0  0  0  0  0  0  0  0  0  0  0
   57.4040   22.6530   46.7300 S   0  0  0  0  0  0  0  0  0  0  0  0
   55.9440   24.8230   46.5470 N   0  0  0  0  0  0  0  0  0  0  0  0
   56.1080   26.0170   45.9550 C   0  0  0  0  0  0  0  0  0  0  0  0
   55.1570   27.0290   45.9820 O   0  0  0  0  0  0  0  0  0  0  0  0
   57.6990   28.5060   44.8100 C   0  0  0  0  0  0  0  0  0  0  0  0
   56.7300   29.3650   44.2920 C   0  0  0  0  0  0  0  0  0  0  0  0
   55.9621   29.0792   43.5581 H   0  0  0  0  0  0  0  0  0  0  0  0
   56.8720   30.6020   44.8240 N   0  0  0  0  0  0  0  0  0  0  0  0
   57.8950   30.5450   45.6610 N   0  0  0  0  0  0  0  0  0  0  0  0
   58.3720   31.5420   46.4460 C   0  0  0  0  0  0  0  0  0  0  0  0
   57.7980   32.7210   46.3780 N   0  0  0  0  0  0  0  0  0  0  0  0
   58.2060   34.1380   46.3050 C   0  0  0  0  0  0  0  0  0  0  0  0
   57.1892   34.4746   46.0545 H   0  0  0  0  0  0  0  0  0  0  0  0
   59.5900   34.4510   45.7700 C   0  0  0  0  0  0  0  0  0  0  0  0
   60.2441   33.6374   45.4233 H   0  0  0  0  0  0  0  0  0  0  0  0
   59.9934   35.1073   44.9848 H   0  0  0  0  0  0  0  0  0  0  0  0
   59.2800   34.6050   47.2670 C   0  0  0  0  0  0  0  0  0  0  0  0
   59.7119   33.9019   47.9945 H   0  0  0  0  0  0  0  0  0  0  0  0
   59.3687   35.4180   48.0026 H   0  0  0  0  0  0  0  0  0  0  0  0
   59.4230   31.2430   47.2780 N   0  0  0  0  0  0  0  0  0  0  0  0
   59.8560   31.9500   47.8890 H   0  0  0  0  0  0  0  0  0  0  0  0
   59.9360   29.9660   47.3210 C   0  0  0  0  0  0  0  0  0  0  0  0
   60.9930   29.6180   48.1780 O   0  0  0  0  0  0  0  0  0  0  0  0
   61.4740   30.4070   49.2680 C   0  0  1  0  0  0  0  0  0  0  0  0
   62.2088   29.8187   49.8372 H   0  0  0  0  0  0  0  0  0  0  0  0
   62.1650   31.6590   48.7710 C   0  0  0  0  0  0  0  0  0  0  0  0
   61.9910   32.8760   49.4540 C   0  0  0  0  0  0  0  0  0  0  0  0
   61.3532   32.9154   50.3494 H   0  0  0  0  0  0  0  0  0  0  0  0
   62.6260   34.0370   48.9990 C   0  0  0  0  0  0  0  0  0  0  0  0
   62.4948   34.9838   49.5434 H   0  0  0  0  0  0  0  0  0  0  0  0
   63.4260   33.9960   47.8550 C   0  0  0  0  0  0  0  0  0  0  0  0
   63.9272   34.9092   47.5016 H   0  0  0  0  0  0  0  0  0  0  0  0
   63.5900   32.7950   47.1590 C   0  0  0  0  0  0  0  0  0  0  0  0
   64.2168   32.7647   46.2556 H   0  0  0  0  0  0  0  0  0  0  0  0
   62.9580   31.6320   47.6100 C   0  0  0  0  0  0  0  0  0  0  0  0
   63.0818   30.6911   47.0537 H   0  0  0  0  0  0  0  0  0  0  0  0
   60.2960   30.7840   50.1630 C   0  0  0  0  0  0  0  0  0  0  0  0
   60.5921   30.6892   51.2181 H   0  0  0  0  0  0  0  0  0  0  0  0
   59.9973   31.8226   49.9579 H   0  0  0  0  0  0  0  0  0  0  0  0
   59.4498   30.1118   49.9579 H   0  0  0  0  0  0  0  0  0  0  0  0
   59.4170   28.9950   46.5200 N   0  0  0  0  0  0  0  0  0  0  0  0
   58.4080   29.3140   45.6830 C   0  0  0  0  0  0  0  0  0  0  0  0
  1  2  1  0
  2  3  1  0
  3  4  1  0
  4  5  1  0
  5  6  2  0
  5  7  1  0
  7  8  1  0
  8  9  1  0
  2 10  2  0
 10 11  1  0
 11 12  1  0
 11 13  2  0
 13 14  1  0
 14 15  1  0
 15 16  2  3
 16 17  1  0
 17 18  1  0
 17 19  1  0
 19 20  1  0
 19 21  1  0
 19 22  1  0
 22 23  1  0
 22 24  1  0
 15 25  1  0
 25 26  1  0
 25 27  2  0
 27 28  1  0
 28 29  1  0
 29 30  1  1
 29 31  1  0
 31 32  2  0
 32 33  1  0
 32 34  1  0
 34 35  1  0
 34 36  2  0
 36 37  1  0
 36 38  1  0
 38 39  1  0
 38 40  2  0
 40 41  1  0
 29 42  1  0
 42 43  1  0
 42 44  1  0
 42 45  1  0
 27 46  1  0
 46 47  2  0
  8  3  2  0
 47 10  1  0
 47 14  1  0
 22 17  1  0
 40 31  1  0
M  CHG  4   4  -1   7  -1   9  -1  25   1
M  END
>  <UniqueID>  (16) 
15

>  <SMILES>  (16) 
C[C@@H](Oc1nc2/c(=C\c3[n-]c(=S)[n-]c3[O-])cnn2c(=NC2CC2)[nH+]1)c1ccccc1

>  <Energy>  (16) 
402.91130360122673

>  <Genealogy>  (16) 
CC(Oc1nc2c(=Cc3[n-]c(=S)[n-]c3[O-])cnn2c(=NC2CC2)[nH+]1)c1ccccc1 (protonated)
C[C@@H](Oc1nc2c(=Cc3[n-]c(=S)[n-]c3[O-])cnn2c(=NC2CC2)[nH+]1)c1ccccc1 (chirality)
C[C@@H](Oc1nc2/c(=C\c3[n-]c(=S)[n-]c3[O-])cnn2c(=NC2CC2)[nH+]1)c1ccccc1 (cis-trans isomerization)
C[C@@H](Oc1nc2/c(=C\c3[n-]c(=S)[n-]c3[O-])cnn2c(=NC2CC2)[nH+]1)c1ccccc1 (3D coordinates assigned)
C[C@@H](Oc1nc2/c(=C\c3[n-]c(=S)[n-]c3[O-])cnn2c(=NC2CC2)[nH+]1)c1ccccc1 (nonaromatic ring conformer: 402.91130360122673 kcal/mol)

>  <smiles>  (16) 
CC(Oc1nc(=NC2CC2)n2ncc(=Cc3[nH]c(=S)[nH]c3O)c2n1)c1ccccc1

>  <score_type>  (16) 
oracle

>  <origin>  (16) 
adg

>  <m_score__min__energy>  (16) 
-15.51

>  <m_primary>  (16) 
energy

$$$$
16:0
     RDKit          3D

 68 72  0  0  0  0  0  0  0  0999 V2000
   57.6430   33.8270   45.7090 C   0  0  0  0  0  0  0  0  0  0  0  0
   57.9080   33.3810   47.1230 C   0  0  0  0  0  0  0  0  0  0  0  0
   59.2340   32.8130   47.2140 N   0  0  0  0  0  0  0  0  0  0  0  0
   60.2700   33.6330   47.5110 C   0  0  0  0  0  0  0  0  0  0  0  0
   59.9600   34.8630   47.7070 O   0  0  0  0  0  0  0  0  0  0  0  0
   61.5410   33.2240   47.6080 N   0  0  0  0  0  0  0  0  0  0  0  0
   62.5640   34.1910   47.9170 C   0  0  0  0  0  0  0  0  0  0  0  0
   63.4840   33.8260   48.9840 C   0  0  0  0  0  0  0  0  0  0  0  0
   63.3590   34.2460   50.2020 O   0  0  0  0  0  0  0  0  0  0  0  0
   64.6280   32.9600   48.8190 N   0  0  0  0  0  0  0  0  0  0  0  0
   65.4300   32.7150   49.9920 C   0  0  0  0  0  0  0  0  0  0  0  0
   66.0860   33.8180   50.5700 C   0  0  0  0  0  0  0  0  0  0  0  0
   66.8700   33.5520   51.7040 C   0  0  0  0  0  0  0  0  0  0  0  0
   66.9590   32.2850   52.1800 C   0  0  0  0  0  0  0  0  0  0  0  0
   66.3060   31.1940   51.6050 C   0  0  0  0  0  0  0  0  0  0  0  0
   66.5500   29.6240   52.3230 S   0  0  0  0  0  0  0  0  0  0  0  0
   67.5380   29.7830   53.4990 O   0  0  0  0  0  0  0  0  0  0  0  0
   65.2630   29.1810   53.0160 O   0  0  0  0  0  0  0  0  0  0  0  0
   67.0370   28.4090   51.3000 N   0  0  0  0  0  0  0  0  0  0  0  0
   66.1830   27.2650   51.2900 C   0  0  0  0  0  0  0  0  0  0  0  0
   66.8900   26.1430   50.4810 C   0  0  0  0  0  0  0  0  0  0  0  0
   67.5430   26.7130   49.4170 O   0  0  0  0  0  0  0  0  0  0  0  0
   68.6080   27.5170   49.7420 C   0  0  0  0  0  0  0  0  0  0  0  0
   68.3950   28.1020   51.1200 C   0  0  0  0  0  0  0  0  0  0  0  0
   65.5420   31.4410   50.5020 C   0  0  0  0  0  0  0  0  0  0  0  0
   61.7890   31.9200   47.3930 C   0  0  0  0  0  0  0  0  0  0  0  0
   62.9700   31.5240   47.4760 O   0  0  0  0  0  0  0  0  0  0  0  0
   60.7950   31.0280   47.0900 C   0  0  0  0  0  0  0  0  0  0  0  0
   60.7140   29.7080   46.8250 N   0  0  0  0  0  0  0  0  0  0  0  0
   59.4300   29.3960   46.5880 C   0  0  0  0  0  0  0  0  0  0  0  0
   58.8510   28.0860   46.2600 C   0  0  0  0  0  0  0  0  0  0  0  0
   57.5130   27.9990   45.9040 C   0  0  0  0  0  0  0  0  0  0  0  0
   57.0160   26.7410   45.6040 C   0  0  0  0  0  0  0  0  0  0  0  0
   57.7800   25.5970   45.6400 C   0  0  0  0  0  0  0  0  0  0  0  0
   57.3280   24.3310   45.3450 O   0  0  0  0  0  0  0  0  0  0  0  0
   57.0310   23.9600   44.0220 C   0  0  0  0  0  0  0  0  0  0  0  0
   59.1220   25.7100   45.9990 C   0  0  0  0  0  0  0  0  0  0  0  0
   59.6530   26.9650   46.3100 C   0  0  0  0  0  0  0  0  0  0  0  0
   58.6520   30.5170   46.6960 N   0  0  0  0  0  0  0  0  0  0  0  0
   59.5050   31.5060   47.0040 C   0  0  0  0  0  0  0  0  0  0  0  0
   57.0812   34.7726   45.7220 H   0  0  0  0  0  0  0  0  0  0  0  0
   58.5993   33.9758   45.1862 H   0  0  0  0  0  0  0  0  0  0  0  0
   57.0550   33.0583   45.1862 H   0  0  0  0  0  0  0  0  0  0  0  0
   57.8332   34.2454   47.7992 H   0  0  0  0  0  0  0  0  0  0  0  0
   57.1658   32.6218   47.4108 H   0  0  0  0  0  0  0  0  0  0  0  0
   63.1556   34.3585   47.0049 H   0  0  0  0  0  0  0  0  0  0  0  0
   62.0305   35.0831   48.2769 H   0  0  0  0  0  0  0  0  0  0  0  0
   64.8770   32.5240   47.9130 H   0  0  0  0  0  0  0  0  0  0  0  0
   65.9898   34.8326   50.1561 H   0  0  0  0  0  0  0  0  0  0  0  0
   67.4105   34.3687   52.2049 H   0  0  0  0  0  0  0  0  0  0  0  0
   67.5811   32.1074   53.0696 H   0  0  0  0  0  0  0  0  0  0  0  0
   66.0030   26.9249   52.3205 H   0  0  0  0  0  0  0  0  0  0  0  0
   65.2156   27.5152   50.8300 H   0  0  0  0  0  0  0  0  0  0  0  0
   67.6147   25.6229   51.1247 H   0  0  0  0  0  0  0  0  0  0  0  0
   66.1474   25.4164   50.1196 H   0  0  0  0  0  0  0  0  0  0  0  0
   69.5327   26.9213   49.7353 H   0  0  0  0  0  0  0  0  0  0  0  0
   68.6912   28.3309   49.0067 H   0  0  0  0  0  0  0  0  0  0  0  0
   68.7082   27.3709   51.8798 H   0  0  0  0  0  0  0  0  0  0  0  0
   68.9922   29.0201   51.2218 H   0  0  0  0  0  0  0  0  0  0  0  0
   65.0088   30.6119   50.0140 H   0  0  0  0  0  0  0  0  0  0  0  0
   56.8727   28.8924   45.8616 H   0  0  0  0  0  0  0  0  0  0  0  0
   55.9563   26.6521   45.3226 H   0  0  0  0  0  0  0  0  0  0  0  0
   56.3436   23.1013   44.0275 H   0  0  0  0  0  0  0  0  0  0  0  0
   56.5574   24.8055   43.5016 H   0  0  0  0  0  0  0  0  0  0  0  0
   57.9597   23.6829   43.5016 H   0  0  0  0  0  0  0  0  0  0  0  0
   59.7606   24.8152   46.0374 H   0  0  0  0  0  0  0  0  0  0  0  0
   60.7113   27.0587   46.5949 H   0  0  0  0  0  0  0  0  0  0  0  0
   57.6290   30.6190   46.5740 H   0  0  0  0  0  0  0  0  0  0  0  0
  1  2  1  0
  2  3  1  0
  3  4  1  0
  4  5  2  0
  4  6  1  0
  6  7  1  0
  7  8  1  0
  8  9  2  0
  8 10  1  0
 10 11  1  0
 11 12  2  0
 12 13  1  0
 13 14  2  0
 14 15  1  0
 15 16  1  0
 16 17  2  0
 16 18  2  0
 16 19  1  0
 19 20  1  0
 20 21  1  0
 21 22  1  0
 22 23  1  0
 23 24  1  0
 15 25  2  0
  6 26  1  0
 26 27  2  0
 26 28  1  0
 28 29  1  0
 29 30  2  0
 30 31  1  0
 31 32  2  0
 32 33  1  0
 33 34  2  0
 34 35  1  0
 35 36  1  0
 34 37  1  0
 37 38  2  0
 30 39  1  0
 39 40  1  0
 40  3  1  0
 25 11  1  0
 40 28  2  0
 24 19  1  0
 38 31  1  0
  1 41  1  0
  1 42  1  0
  1 43  1  0
  2 44  1  0
  2 45  1  0
  7 46  1  0
  7 47  1  0
 10 48  1  0
 12 49  1  0
 13 50  1  0
 14 51  1  0
 20 52  1  0
 20 53  1  0
 21 54  1  0
 21 55  1  0
 23 56  1  0
 23 57  1  0
 24 58  1  0
 24 59  1  0
 25 60  1  0
 32 61  1  0
 33 62  1  0
 36 63  1  0
 36 64  1  0
 36 65  1  0
 37 66  1  0
 38 67  1  0
 39 68  1  0
M  END
>  <smiles>  (17) 
CCn1c(=O)n(CC(=O)Nc2cccc(S(=O)(=O)N3CCOCC3)c2)c(=O)c2nc(-c3ccc(OC)cc3)[nH]c21

>  <score_type>  (17) 
oracle

>  <origin>  (17) 
adg

>  <m_score__min__energy>  (17) 
-9.5399999999999991

>  <m_primary>  (17) 
energy

$$$$
17:0
     RDKit          3D

 40 42  0  0  0  0  0  0  0  0999 V2000
   59.7840   29.1160   46.7170 C   0  0  0  0  0  0  0  0  0  0  0  0
   58.4380   28.4930   47.0760 C   0  0  0  0  0  0  0  0  0  0  0  0
   58.2850   27.1380   46.4270 C   0  0  0  0  0  0  0  0  0  0  0  0
   59.3130   26.1890   46.5660 C   0  0  0  0  0  0  0  0  0  0  0  0
   59.1870   24.9200   45.9960 C   0  0  0  0  0  0  0  0  0  0  0  0
   58.0350   24.5850   45.2840 C   0  0  0  0  0  0  0  0  0  0  0  0
   56.9990   25.5110   45.1520 C   0  0  0  0  0  0  0  0  0  0  0  0
   57.1010   26.7860   45.7400 C   0  0  0  0  0  0  0  0  0  0  0  0
   56.0470   27.7530   45.6090 N   0  0  0  0  0  0  0  0  0  0  0  0
   56.0920   28.9670   44.8510 C   0  0  0  0  0  0  0  0  0  0  0  0
   55.1440   29.7970   44.9000 O   0  0  0  0  0  0  0  0  0  0  0  0
   57.3270   29.3030   44.0860 C   0  0  0  0  0  0  0  0  0  0  0  0
   57.0510   30.8320   43.1370 S   0  0  0  0  0  0  0  0  0  0  0  0
   57.7000   31.8850   44.4300 C   0  0  0  0  0  0  0  0  0  0  0  0
   57.6920   31.4550   45.7260 N   0  0  0  0  0  0  0  0  0  0  0  0
   58.1830   32.2370   46.7270 C   0  0  0  0  0  0  0  0  0  0  0  0
   58.1690   31.8270   47.9170 O   0  0  0  0  0  0  0  0  0  0  0  0
   58.6960   33.4920   46.4070 C   0  0  0  0  0  0  0  0  0  0  0  0
   58.6920   33.9030   45.1050 C   0  0  0  0  0  0  0  0  0  0  0  0
   58.2000   33.1140   44.1170 N   0  0  0  0  0  0  0  0  0  0  0  0
   59.2680   35.2520   44.9310 C   0  0  0  0  0  0  0  0  0  0  0  0
   59.6590   35.6690   46.3630 C   0  0  0  0  0  0  0  0  0  0  0  0
   59.2780   34.5120   47.3110 C   0  0  0  0  0  0  0  0  0  0  0  0
   60.3288   29.3682   47.6387 H   0  0  0  0  0  0  0  0  0  0  0  0
   60.3740   28.3994   46.1267 H   0  0  0  0  0  0  0  0  0  0  0  0
   59.6195   30.0295   46.1267 H   0  0  0  0  0  0  0  0  0  0  0  0
   58.3729   28.3793   48.1682 H   0  0  0  0  0  0  0  0  0  0  0  0
   57.6358   29.1515   46.7115 H   0  0  0  0  0  0  0  0  0  0  0  0
   60.2228   26.4476   47.1275 H   0  0  0  0  0  0  0  0  0  0  0  0
   59.9968   24.1841   46.1086 H   0  0  0  0  0  0  0  0  0  0  0  0
   57.9430   23.5892   44.8258 H   0  0  0  0  0  0  0  0  0  0  0  0
   56.0960   25.2425   44.5842 H   0  0  0  0  0  0  0  0  0  0  0  0
   58.1633   29.4506   44.7851 H   0  0  0  0  0  0  0  0  0  0  0  0
   57.5682   28.4804   43.3967 H   0  0  0  0  0  0  0  0  0  0  0  0
   60.1516   35.2200   44.2766 H   0  0  0  0  0  0  0  0  0  0  0  0
   58.5686   35.9567   44.4574 H   0  0  0  0  0  0  0  0  0  0  0  0
   60.7418   35.8554   46.4161 H   0  0  0  0  0  0  0  0  0  0  0  0
   59.1341   36.5915   46.6518 H   0  0  0  0  0  0  0  0  0  0  0  0
   60.1668   34.1182   47.8257 H   0  0  0  0  0  0  0  0  0  0  0  0
   58.5830   34.8234   48.1047 H   0  0  0  0  0  0  0  0  0  0  0  0
  1  2  1  0
  2  3  1  0
  3  4  2  0
  4  5  1  0
  5  6  2  0
  6  7  1  0
  7  8  2  0
  8  9  1  0
  9 10  1  0
 10 11  2  0
 10 12  1  0
 12 13  1  0
 13 14  1  0
 14 15  2  0
 15 16  1  0
 16 17  2  0
 16 18  1  0
 18 19  2  0
 19 20  1  0
 19 21  1  0
 21 22  1  0
 22 23  1  0
  8  3  1  0
 20 14  1  0
 23 18  1  0
  1 24  1  0
  1 25  1  0
  1 26  1  0
  2 27  1  0
  2 28  1  0
  4 29  1  0
  5 30  1  0
  6 31  1  0
  7 32  1  0
 12 33  1  0
 12 34  1  0
 21 35  1  0
 21 36  1  0
 22 37  1  0
 22 38  1  0
 23 39  1  0
 23 40  1  0
M  CHG  2   9  -1  20  -1
M  END
>  <UniqueID>  (18) 
16

>  <SMILES>  (18) 
CCc1ccccc1[N-]C(=O)CSc1nc(=O)c2c([n-]1)CCC2

>  <Energy>  (18) 
46.60937800735572

>  <Genealogy>  (18) 
CCc1ccccc1[N-]C(=O)CSc1nc(=O)c2c([n-]1)CCC2 (protonated)
CCc1ccccc1[N-]C(=O)CSc1nc(=O)c2c([n-]1)CCC2 (3D coordinates assigned)
CCc1ccccc1[N-]C(=O)CSc1nc(=O)c2c([n-]1)CCC2 (nonaromatic ring conformer: 46.60937800735572 kcal/mol)

>  <smiles>  (18) 
CCc1ccccc1NC(=O)CSc1nc(=O)c2c([nH]1)CCC2

>  <score_type>  (18) 
oracle

>  <origin>  (18) 
adg

>  <m_score__min__energy>  (18) 
-11.460000000000001

>  <m_primary>  (18) 
energy

$$$$
18:0
     RDKit          3D

 59 62  0  0  0  0  0  0  0  0999 V2000
   63.6607   34.4992   50.4744 H   0  0  0  0  0  0  0  0  0  0  0  0
   63.0520   33.6470   50.1380 C   0  0  0  0  0  0  0  0  0  0  0  0
   63.2074   33.2218   49.1355 H   0  0  0  0  0  0  0  0  0  0  0  0
   62.1250   33.1290   50.9460 C   0  0  0  0  0  0  0  0  0  0  0  0
   61.9811   33.5649   51.9457 H   0  0  0  0  0  0  0  0  0  0  0  0
   61.2710   31.9630   50.5240 C   0  0  0  0  0  0  0  0  0  0  0  0
   61.7911   31.4035   49.7325 H   0  0  0  0  0  0  0  0  0  0  0  0
   61.0977   31.3195   51.3992 H   0  0  0  0  0  0  0  0  0  0  0  0
   59.9710   32.4220   50.0140 N   0  0  0  0  0  0  0  0  0  0  0  0
   59.5850   31.9140   48.7250 C   0  0  0  0  0  0  0  0  0  0  0  0
   59.2170   30.7140   48.6110 O   0  0  0  0  0  0  0  0  0  0  0  0
   59.7520   32.8060   47.5000 C   0  0  1  0  0  0  0  0  0  0  0  0
   61.2670   32.8050   47.1770 C   0  0  0  0  0  0  0  0  0  0  0  0
   61.9890   33.9800   46.8530 C   0  0  0  0  0  0  0  0  0  0  0  0
   61.4569   34.9400   46.7804 H   0  0  0  0  0  0  0  0  0  0  0  0
   63.3680   33.9380   46.6240 C   0  0  0  0  0  0  0  0  0  0  0  0
   63.9040   34.8569   46.3443 H   0  0  0  0  0  0  0  0  0  0  0  0
   64.0670   32.7390   46.7480 C   0  0  0  0  0  0  0  0  0  0  0  0
   65.1485   32.7076   46.5495 H   0  0  0  0  0  0  0  0  0  0  0  0
   63.3920   31.5810   47.1240 C   0  0  0  0  0  0  0  0  0  0  0  0
   63.9451   30.6375   47.2420 H   0  0  0  0  0  0  0  0  0  0  0  0
   62.0130   31.6140   47.3520 C   0  0  0  0  0  0  0  0  0  0  0  0
   61.4974   30.6970   47.6736 H   0  0  0  0  0  0  0  0  0  0  0  0
   58.9180   32.2670   46.2840 C   0  0  0  0  0  0  0  0  0  0  0  0
   59.5009   31.4738   45.7930 H   0  0  0  0  0  0  0  0  0  0  0  0
   57.9628   31.9091   46.6957 H   0  0  0  0  0  0  0  0  0  0  0  0
   58.5640   33.3350   45.2200 C   0  0  0  0  0  0  0  0  0  0  0  0
   58.7362   32.9033   44.2230 H   0  0  0  0  0  0  0  0  0  0  0  0
   57.5116   33.6129   45.3789 H   0  0  0  0  0  0  0  0  0  0  0  0
   59.3920   34.6190   45.3420 C   0  0  0  0  0  0  0  0  0  0  0  0
   60.4502   34.3789   45.1618 H   0  0  0  0  0  0  0  0  0  0  0  0
   59.0182   35.3390   44.5992 H   0  0  0  0  0  0  0  0  0  0  0  0
   59.2560   35.2560   46.7370 C   0  0  0  0  0  0  0  0  0  0  0  0
   60.1434   35.8771   46.9289 H   0  0  0  0  0  0  0  0  0  0  0  0
   58.3334   35.8550   46.7417 H   0  0  0  0  0  0  0  0  0  0  0  0
   59.1360   34.1990   47.8650 C   0  0  2  0  0  0  0  0  0  0  0  0
   58.0557   34.0217   47.9721 H   0  0  0  0  0  0  0  0  0  0  0  0
   59.6190   34.6960   49.1570 N   0  0  0  0  0  0  0  0  0  0  0  0
   59.6320   35.7260   49.3360 H   0  0  0  0  0  0  0  0  0  0  0  0
   59.5910   33.7870   50.2650 C   0  0  0  0  0  0  0  0  0  0  0  0
   59.0420   34.1770   51.3900 N   0  0  0  0  0  0  0  0  0  0  0  0
   58.8350   35.1990   51.4800 H   0  0  0  0  0  0  0  0  0  0  0  0
   58.4530   33.3450   52.4610 C   0  0  0  0  0  0  0  0  0  0  0  0
   57.8943   34.0573   53.0859 H   0  0  0  0  0  0  0  0  0  0  0  0
   57.4180   32.3160   51.9400 C   0  0  0  0  0  0  0  0  0  0  0  0
   56.4571   32.8292   51.7869 H   0  0  0  0  0  0  0  0  0  0  0  0
   57.8079   31.8971   51.0006 H   0  0  0  0  0  0  0  0  0  0  0  0
   57.2020   31.1440   52.9210 C   0  0  0  0  0  0  0  0  0  0  0  0
   56.1779   30.7620   52.7973 H   0  0  0  0  0  0  0  0  0  0  0  0
   57.9476   30.3684   52.6917 H   0  0  0  0  0  0  0  0  0  0  0  0
   57.3980   31.5710   54.3830 C   0  0  0  0  0  0  0  0  0  0  0  0
   56.6636   32.3535   54.6244 H   0  0  0  0  0  0  0  0  0  0  0  0
   57.2596   30.6813   55.0148 H   0  0  0  0  0  0  0  0  0  0  0  0
   58.8180   32.1230   54.6480 C   0  0  0  0  0  0  0  0  0  0  0  0
   58.7473   32.9200   55.4028 H   0  0  0  0  0  0  0  0  0  0  0  0
   59.4359   31.2801   54.9911 H   0  0  0  0  0  0  0  0  0  0  0  0
   59.4940   32.7010   53.3880 C   0  0  0  0  0  0  0  0  0  0  0  0
   60.2291   33.4618   53.6893 H   0  0  0  0  0  0  0  0  0  0  0  0
   59.9918   31.8829   52.8467 H   0  0  0  0  0  0  0  0  0  0  0  0
  1  2  1  0
  2  3  1  0
  2  4  2  0
  4  5  1  0
  4  6  1  0
  6  7  1  0
  6  8  1  0
  6  9  1  0
  9 10  1  0
 10 11  2  0
 10 12  1  0
 12 13  1  6
 13 14  2  0
 14 15  1  0
 14 16  1  0
 16 17  1  0
 16 18  2  0
 18 19  1  0
 18 20  1  0
 20 21  1  0
 20 22  2  0
 22 23  1  0
 12 24  1  0
 24 25  1  0
 24 26  1  0
 24 27  1  0
 27 28  1  0
 27 29  1  0
 27 30  1  0
 30 31  1  0
 30 32  1  0
 30 33  1  0
 33 34  1  0
 33 35  1  0
 33 36  1  0
 36 37  1  1
 36 38  1  0
 38 39  1  0
 38 40  1  0
 40 41  2  0
 41 42  1  0
 41 43  1  0
 43 44  1  0
 43 45  1  0
 45 46  1  0
 45 47  1  0
 45 48  1  0
 48 49  1  0
 48 50  1  0
 48 51  1  0
 51 52  1  0
 51 53  1  0
 51 54  1  0
 54 55  1  0
 54 56  1  0
 54 57  1  0
 57 58  1  0
 57 59  1  0
 40  9  1  0
 57 43  1  0
 36 12  1  0
 22 13  1  0
M  CHG  1  41   1
M  END
>  <UniqueID>  (19) 
17

>  <SMILES>  (19) 
C=CCN1C(=O)[C@@]2(c3ccccc3)CCCC[C@@H]2N/C1=[NH+]/C1CCCCC1

>  <Energy>  (19) 
99.27286843215987

>  <Genealogy>  (19) 
C=CCN1C(=O)C2(c3ccccc3)CCCCC2NC1=[NH+]C1CCCCC1 (protonated)
C=CCN1C(=O)[C@@]2(c3ccccc3)CCCC[C@@H]2NC1=[NH+]C1CCCCC1 (chirality)
C=CCN1C(=O)[C@@]2(c3ccccc3)CCCC[C@@H]2N/C1=[NH+]/C1CCCCC1 (cis-trans isomerization)
C=CCN1C(=O)[C@@]2(c3ccccc3)CCCC[C@@H]2N/C1=[NH+]/C1CCCCC1 (3D coordinates assigned)
C=CCN1C(=O)[C@@]2(c3ccccc3)CCCC[C@@H]2N/C1=[NH+]/C1CCCCC1 (nonaromatic ring conformer: 99.27286843215987 kcal/mol)

>  <smiles>  (19) 
C=CCN1C(=O)C2(c3ccccc3)CCCCC2NC1=NC1CCCCC1

>  <score_type>  (19) 
oracle

>  <origin>  (19) 
adg

>  <m_score__min__energy>  (19) 
-6.9800000000000004

>  <m_primary>  (19) 
energy

$$$$
19:0
     RDKit          3D

 38 40  0  0  0  0  0  0  0  0999 V2000
   59.5250   29.8390   46.4040 C   0  0  0  0  0  0  0  0  0  0  0  0
   58.3870   29.5140   45.7710 C   0  0  0  0  0  0  0  0  0  0  0  0
   57.5670   28.4210   46.0490 C   0  0  0  0  0  0  0  0  0  0  0  0
   57.7940   27.4340   46.9350 C   0  0  0  0  0  0  0  0  0  0  0  0
   57.2130   26.0830   46.8290 C   0  0  0  0  0  0  0  0  0  0  0  0
   57.8620   24.9750   47.2480 N   0  0  0  0  0  0  0  0  0  0  0  0
   56.9760   23.9780   47.0360 C   0  0  0  0  0  0  0  0  0  0  0  0
   57.2230   22.7760   47.3180 O   0  0  0  0  0  0  0  0  0  0  0  0
   55.8040   24.3960   46.5130 N   0  0  0  0  0  0  0  0  0  0  0  0
   54.6090   23.6000   46.2480 C   0  0  0  0  0  0  0  0  0  0  0  0
   55.9410   25.7300   46.4080 C   0  0  0  0  0  0  0  0  0  0  0  0
   54.9340   26.6020   46.0030 O   0  0  0  0  0  0  0  0  0  0  0  0
   56.4830   28.4670   45.2470 N   0  0  0  0  0  0  0  0  0  0  0  0
   56.6590   29.5720   44.4990 C   0  0  0  0  0  0  0  0  0  0  0  0
   55.5270   30.0750   43.4230 S   0  0  0  0  0  0  0  0  0  0  0  0
   57.8110   30.2310   44.7730 N   0  0  0  0  0  0  0  0  0  0  0  0
   58.3080   31.4510   44.1080 C   0  0  0  0  0  0  0  0  0  0  0  0
   57.6880   32.7410   44.6930 C   0  0  1  0  0  0  0  0  0  0  0  0
   57.7140   32.8010   46.2160 C   0  0  0  0  0  0  0  0  0  0  0  0
   58.8310   33.7530   46.5080 C   0  0  0  0  0  0  0  0  0  0  0  0
   58.8860   34.6010   45.2560 C   0  0  0  0  0  0  0  0  0  0  0  0
   58.3450   33.8780   44.1750 O   0  0  0  0  0  0  0  0  0  0  0  0
   60.0909   30.7302   46.0951 H   0  0  0  0  0  0  0  0  0  0  0  0
   59.8917   29.2141   47.2317 H   0  0  0  0  0  0  0  0  0  0  0  0
   58.4526   27.6479   47.7897 H   0  0  0  0  0  0  0  0  0  0  0  0
   54.1523   23.2958   47.2013 H   0  0  0  0  0  0  0  0  0  0  0  0
   53.8893   24.1998   45.6715 H   0  0  0  0  0  0  0  0  0  0  0  0
   54.8851   22.7048   45.6715 H   0  0  0  0  0  0  0  0  0  0  0  0
   55.1460   27.4940   45.5750 H   0  0  0  0  0  0  0  0  0  0  0  0
   59.4002   31.4985   44.2294 H   0  0  0  0  0  0  0  0  0  0  0  0
   58.0200   31.3937   43.0479 H   0  0  0  0  0  0  0  0  0  0  0  0
   56.6308   32.7284   44.3893 H   0  0  0  0  0  0  0  0  0  0  0  0
   56.7602   33.1807   46.6111 H   0  0  0  0  0  0  0  0  0  0  0  0
   57.8582   31.8149   46.6816 H   0  0  0  0  0  0  0  0  0  0  0  0
   58.6070   34.3670   47.3927 H   0  0  0  0  0  0  0  0  0  0  0  0
   59.7827   33.2505   46.7353 H   0  0  0  0  0  0  0  0  0  0  0  0
   58.3029   35.5209   45.4103 H   0  0  0  0  0  0  0  0  0  0  0  0
   59.9316   34.8622   45.0357 H   0  0  0  0  0  0  0  0  0  0  0  0
  1  2  2  0
  2  3  1  0
  3  4  2  3
  4  5  1  0
  5  6  1  0
  6  7  1  0
  7  8  2  0
  7  9  1  0
  9 10  1  0
  9 11  1  0
 11 12  1  0
  3 13  1  0
 13 14  1  0
 14 15  2  0
 14 16  1  0
 16 17  1  0
 17 18  1  0
 18 19  1  0
 19 20  1  0
 20 21  1  0
 21 22  1  0
 16  2  1  0
 22 18  1  0
 11  5  2  0
  1 23  1  0
  1 24  1  0
  4 25  1  0
 10 26  1  0
 10 27  1  0
 10 28  1  0
 12 29  1  0
 17 30  1  0
 17 31  1  0
 18 32  1  6
 19 33  1  0
 19 34  1  0
 20 35  1  0
 20 36  1  0
 21 37  1  0
 21 38  1  0
M  CHG  2   6  -1  13  -1
M  END
>  <UniqueID>  (20) 
18

>  <SMILES>  (20) 
C=c1c(=Cc2[n-]c(=O)n(C)c2O)[n-]c(=S)n1C[C@H]1CCCO1

>  <Energy>  (20) 
107.76514024236045

>  <Genealogy>  (20) 
C=c1c(=Cc2[n-]c(=O)n(C)c2O)[n-]c(=S)n1CC1CCCO1 (protonated)
C=c1c(=Cc2[n-]c(=O)n(C)c2O)[n-]c(=S)n1C[C@H]1CCCO1 (chirality)
C=c1c(=Cc2[n-]c(=O)n(C)c2O)[n-]c(=S)n1C[C@H]1CCCO1 (3D coordinates assigned)
C=c1c(=Cc2[n-]c(=O)n(C)c2O)[n-]c(=S)n1C[C@H]1CCCO1 (nonaromatic ring conformer: 107.76514024236045 kcal/mol)

>  <smiles>  (20) 
C=c1c(=Cc2[nH]c(=O)n(C)c2O)[nH]c(=S)n1CC1CCCO1

>  <score_type>  (20) 
oracle

>  <origin>  (20) 
adg

>  <m_score__min__energy>  (20) 
-11.77

>  <m_primary>  (20) 
energy

$$$$
20:0
     RDKit          3D

 60 62  0  0  0  0  0  0  0  0999 V2000
   55.5740   23.4260   47.3580 C   0  0  0  0  0  0  0  0  0  0  0  0
   54.5900   23.1450   45.8520 S   0  0  0  0  0  0  0  0  0  0  0  0
   55.4500   21.6100   45.3380 C   0  0  0  0  0  0  0  0  0  0  0  0
   56.4690   21.8670   44.2240 C   0  0  0  0  0  0  0  0  0  0  0  0
   57.4930   22.8930   44.6210 C   0  0  0  0  0  0  0  0  0  0  0  0
   58.6410   22.5130   44.9780 O   0  0  0  0  0  0  0  0  0  0  0  0
   57.1750   24.2940   44.5460 N   0  0  0  0  0  0  0  0  0  0  0  0
   58.0630   25.3430   44.9640 C   0  0  0  0  0  0  0  0  0  0  0  0
   59.1400   25.0670   45.5620 O   0  0  0  0  0  0  0  0  0  0  0  0
   57.7280   26.7060   44.6700 N   0  0  0  0  0  0  0  0  0  0  0  0
   58.4350   27.8440   45.1920 C   0  0  0  0  0  0  0  0  0  0  0  0
   58.1390   28.3010   46.4840 C   0  0  0  0  0  0  0  0  0  0  0  0
   58.8220   29.3930   47.0230 C   0  0  0  0  0  0  0  0  0  0  0  0
   59.8200   30.0420   46.2780 C   0  0  0  0  0  0  0  0  0  0  0  0
   60.5830   31.1950   46.8720 C   0  0  0  0  0  0  0  0  0  0  0  0
   59.6990   32.0250   47.8140 C   0  0  0  0  0  0  0  0  0  0  0  0
   59.8020   33.4770   47.5300 N   0  0  0  0  0  0  0  0  0  0  0  0
   58.4980   34.1810   47.5570 C   0  0  0  0  0  0  0  0  0  0  0  0
   57.5630   33.7170   46.4250 C   0  0  0  0  0  0  0  0  0  0  0  0
   58.3390   33.2620   45.2670 N   0  0  0  0  0  0  0  0  0  0  0  0
   57.7770   32.3140   44.3370 C   0  0  0  0  0  0  0  0  0  0  0  0
   57.0240   31.2210   44.7990 C   0  0  0  0  0  0  0  0  0  0  0  0
   56.4630   30.3130   43.8970 C   0  0  0  0  0  0  0  0  0  0  0  0
   56.6420   30.4900   42.5250 C   0  0  0  0  0  0  0  0  0  0  0  0
   57.3830   31.5750   42.0520 C   0  0  0  0  0  0  0  0  0  0  0  0
   57.9470   32.4840   42.9510 C   0  0  0  0  0  0  0  0  0  0  0  0
   59.6490   33.8760   45.0270 C   0  0  0  0  0  0  0  0  0  0  0  0
   60.5500   33.7640   46.2790 C   0  0  0  0  0  0  0  0  0  0  0  0
   60.1430   29.5650   44.9990 C   0  0  0  0  0  0  0  0  0  0  0  0
   59.4590   28.4710   44.4600 C   0  0  0  0  0  0  0  0  0  0  0  0
   54.9473   23.2470   48.2442 H   0  0  0  0  0  0  0  0  0  0  0  0
   56.4312   22.7367   47.3698 H   0  0  0  0  0  0  0  0  0  0  0  0
   55.9379   24.4640   47.3698 H   0  0  0  0  0  0  0  0  0  0  0  0
   55.9744   21.1886   46.2083 H   0  0  0  0  0  0  0  0  0  0  0  0
   54.6939   20.9109   44.9513 H   0  0  0  0  0  0  0  0  0  0  0  0
   56.9842   20.9237   43.9898 H   0  0  0  0  0  0  0  0  0  0  0  0
   55.9248   22.2521   43.3490 H   0  0  0  0  0  0  0  0  0  0  0  0
   56.2510   24.5740   44.1510 H   0  0  0  0  0  0  0  0  0  0  0  0
   56.9880   26.8770   43.9520 H   0  0  0  0  0  0  0  0  0  0  0  0
   57.3629   27.7955   47.0774 H   0  0  0  0  0  0  0  0  0  0  0  0
   58.5773   29.7465   48.0355 H   0  0  0  0  0  0  0  0  0  0  0  0
   61.4405   30.8029   47.4386 H   0  0  0  0  0  0  0  0  0  0  0  0
   60.9218   31.8454   46.0521 H   0  0  0  0  0  0  0  0  0  0  0  0
   58.6522   31.7111   47.6884 H   0  0  0  0  0  0  0  0  0  0  0  0
   60.0427   31.8533   48.8447 H   0  0  0  0  0  0  0  0  0  0  0  0
   58.0094   33.9848   48.5228 H   0  0  0  0  0  0  0  0  0  0  0  0
   58.6910   35.2548   47.4168 H   0  0  0  0  0  0  0  0  0  0  0  0
   56.9381   32.8883   46.7894 H   0  0  0  0  0  0  0  0  0  0  0  0
   56.9317   34.5638   46.1177 H   0  0  0  0  0  0  0  0  0  0  0  0
   56.8750   31.0791   45.8796 H   0  0  0  0  0  0  0  0  0  0  0  0
   55.8797   29.4579   44.2693 H   0  0  0  0  0  0  0  0  0  0  0  0
   56.1995   29.7750   41.8158 H   0  0  0  0  0  0  0  0  0  0  0  0
   57.5230   31.7143   40.9699 H   0  0  0  0  0  0  0  0  0  0  0  0
   58.5277   33.3381   42.5724 H   0  0  0  0  0  0  0  0  0  0  0  0
   60.1376   33.3640   44.1849 H   0  0  0  0  0  0  0  0  0  0  0  0
   59.5003   34.9411   44.7958 H   0  0  0  0  0  0  0  0  0  0  0  0
   61.2745   32.9529   46.1139 H   0  0  0  0  0  0  0  0  0  0  0  0
   61.0368   34.7413   46.4129 H   0  0  0  0  0  0  0  0  0  0  0  0
   60.9383   30.0540   44.4172 H   0  0  0  0  0  0  0  0  0  0  0  0
   59.7231   28.0992   43.4590 H   0  0  0  0  0  0  0  0  0  0  0  0
  1  2  1  0
  2  3  1  0
  3  4  1  0
  4  5  1  0
  5  6  2  0
  5  7  1  0
  7  8  1  0
  8  9  2  0
  8 10  1  0
 10 11  1  0
 11 12  2  0
 12 13  1  0
 13 14  2  0
 14 15  1  0
 15 16  1  0
 16 17  1  0
 17 18  1  0
 18 19  1  0
 19 20  1  0
 20 21  1  0
 21 22  2  0
 22 23  1  0
 23 24  2  0
 24 25  1  0
 25 26  2  0
 20 27  1  0
 27 28  1  0
 14 29  1  0
 29 30  2  0
 30 11  1  0
 28 17  1  0
 26 21  1  0
  1 31  1  0
  1 32  1  0
  1 33  1  0
  3 34  1  0
  3 35  1  0
  4 36  1  0
  4 37  1  0
  7 38  1  0
 10 39  1  0
 12 40  1  0
 13 41  1  0
 15 42  1  0
 15 43  1  0
 16 44  1  0
 16 45  1  0
 18 46  1  0
 18 47  1  0
 19 48  1  0
 19 49  1  0
 22 50  1  0
 23 51  1  0
 24 52  1  0
 25 53  1  0
 26 54  1  0
 27 55  1  0
 27 56  1  0
 28 57  1  0
 28 58  1  0
 29 59  1  0
 30 60  1  0
M  END
>  <UniqueID>  (21) 
19

>  <SMILES>  (21) 
CSCCC(=O)NC(=O)Nc1ccc(CCN2CCN(c3ccccc3)CC2)cc1

>  <Energy>  (21) 
69.81429409059947

>  <Genealogy>  (21) 
CSCCC(=O)NC(=O)Nc1ccc(CCN2CCN(c3ccccc3)CC2)cc1 (3D coordinates assigned)
CSCCC(=O)NC(=O)Nc1ccc(CCN2CCN(c3ccccc3)CC2)cc1 (nonaromatic ring conformer: 69.81429409059947 kcal/mol)

>  <smiles>  (21) 
CSCCC(=O)NC(=O)Nc1ccc(CCN2CCN(c3ccccc3)CC2)cc1

>  <score_type>  (21) 
oracle

>  <origin>  (21) 
adg

>  <m_score__min__energy>  (21) 
-8.9900000000000002

>  <m_primary>  (21) 
energy

$$$$
21:0
     RDKit          3D

 52 55  0  0  0  0  0  0  0  0999 V2000
   55.1344   29.4327   43.2623 H   0  0  0  0  0  0  0  0  0  0  0  0
   55.9130   29.6970   43.9930 C   0  0  0  0  0  0  0  0  0  0  0  0
   56.4050   28.7500   44.8350 N   0  0  0  0  0  0  0  0  0  0  0  0
   57.3770   29.0500   45.7380 C   0  0  0  0  0  0  0  0  0  0  0  0
   57.8040   28.1220   46.5430 N   0  0  0  0  0  0  0  0  0  0  0  0
   58.7670   28.2810   47.5980 C   0  0  0  0  0  0  0  0  0  0  0  0
   59.8290   27.3780   47.7770 C   0  0  0  0  0  0  0  0  0  0  0  0
   59.9511   26.5320   47.0846 H   0  0  0  0  0  0  0  0  0  0  0  0
   60.7290   27.5500   48.8290 C   0  0  0  0  0  0  0  0  0  0  0  0
   61.5735   26.8546   48.9441 H   0  0  0  0  0  0  0  0  0  0  0  0
   60.5650   28.6040   49.7420 C   0  0  0  0  0  0  0  0  0  0  0  0
   61.5640   28.7880   50.8510 C   0  0  0  0  0  0  0  0  0  0  0  0
   61.0554   28.6943   51.8219 H   0  0  0  0  0  0  0  0  0  0  0  0
   62.3463   28.0188   50.7711 H   0  0  0  0  0  0  0  0  0  0  0  0
   62.0209   29.7854   50.7711 H   0  0  0  0  0  0  0  0  0  0  0  0
   59.4930   29.5040   49.5860 C   0  0  0  0  0  0  0  0  0  0  0  0
   59.3540   30.5580   50.5070 O   0  0  0  0  0  0  0  0  0  0  0  0
   58.7910   30.4500   51.8140 C   0  0  0  0  0  0  0  0  0  0  0  0
   59.1292   29.5107   52.2760 H   0  0  0  0  0  0  0  0  0  0  0  0
   59.1214   31.3116   52.4127 H   0  0  0  0  0  0  0  0  0  0  0  0
   57.2920   30.4550   51.7500 C   0  0  0  0  0  0  0  0  0  0  0  0
   56.6430   29.4470   52.1370 O   0  0  0  0  0  0  0  0  0  0  0  0
   56.5940   31.5860   51.2260 N   0  0  0  0  0  0  0  0  0  0  0  0
   57.1180   32.4240   50.8890 H   0  0  0  0  0  0  0  0  0  0  0  0
   55.5490   31.5890   51.1800 H   0  0  0  0  0  0  0  0  0  0  0  0
   58.5930   29.3240   48.5160 C   0  0  0  0  0  0  0  0  0  0  0  0
   57.7426   30.0121   48.4007 H   0  0  0  0  0  0  0  0  0  0  0  0
   57.8530   30.3230   45.8120 N   0  0  0  0  0  0  0  0  0  0  0  0
   57.3860   31.3010   44.9940 C   0  0  0  0  0  0  0  0  0  0  0  0
   57.9060   32.6240   45.1090 N   0  0  0  0  0  0  0  0  0  0  0  0
   57.6190   33.8320   45.9040 C   0  0  0  0  0  0  0  0  0  0  0  0
   56.6041   34.2209   45.7344 H   0  0  0  0  0  0  0  0  0  0  0  0
   57.6397   33.7282   46.9989 H   0  0  0  0  0  0  0  0  0  0  0  0
   58.6750   34.6850   45.2810 C   0  0  0  0  0  0  0  0  0  0  0  0
   58.4973   35.6744   44.8343 H   0  0  0  0  0  0  0  0  0  0  0  0
   59.7170   35.0000   46.2030 O   0  0  0  0  0  0  0  0  0  0  0  0
   60.4940   34.0450   46.8770 C   0  0  0  0  0  0  0  0  0  0  0  0
   61.8180   33.8500   46.4620 C   0  0  0  0  0  0  0  0  0  0  0  0
   62.2225   34.4443   45.6294 H   0  0  0  0  0  0  0  0  0  0  0  0
   62.6290   32.9050   47.0990 C   0  0  0  0  0  0  0  0  0  0  0  0
   63.6672   32.7582   46.7664 H   0  0  0  0  0  0  0  0  0  0  0  0
   62.1210   32.1470   48.1580 C   0  0  0  0  0  0  0  0  0  0  0  0
   62.9080   31.2290   48.7730 F   0  0  0  0  0  0  0  0  0  0  0  0
   60.8030   32.3370   48.5830 C   0  0  0  0  0  0  0  0  0  0  0  0
   60.4044   31.7415   49.4176 H   0  0  0  0  0  0  0  0  0  0  0  0
   59.9900   33.2820   47.9500 C   0  0  0  0  0  0  0  0  0  0  0  0
   58.9545   33.4306   48.2900 H   0  0  0  0  0  0  0  0  0  0  0  0
   58.9560   33.4500   44.4840 C   0  0  0  0  0  0  0  0  0  0  0  0
   58.7975   33.5947   43.4052 H   0  0  0  0  0  0  0  0  0  0  0  0
   59.9840   33.0592   44.5081 H   0  0  0  0  0  0  0  0  0  0  0  0
   56.3960   31.0040   44.0560 C   0  0  0  0  0  0  0  0  0  0  0  0
   56.0062   31.7817   43.3828 H   0  0  0  0  0  0  0  0  0  0  0  0
  1  2  1  0
  2  3  1  0
  3  4  1  0
  4  5  2  0
  5  6  1  0
  6  7  2  0
  7  8  1  0
  7  9  1  0
  9 10  1  0
  9 11  2  0
 11 12  1  0
 12 13  1  0
 12 14  1  0
 12 15  1  0
 11 16  1  0
 16 17  1  0
 17 18  1  0
 18 19  1  0
 18 20  1  0
 18 21  1  0
 21 22  2  0
 21 23  1  0
 23 24  1  0
 23 25  1  0
 16 26  2  0
 26 27  1  0
  4 28  1  0
 28 29  2  0
 29 30  1  0
 30 31  1  0
 31 32  1  0
 31 33  1  0
 31 34  1  0
 34 35  1  0
 34 36  1  0
 36 37  1  0
 37 38  2  0
 38 39  1  0
 38 40  1  0
 40 41  1  0
 40 42  2  0
 42 43  1  0
 42 44  1  0
 44 45  1  0
 44 46  2  0
 46 47  1  0
 34 48  1  0
 48 49  1  0
 48 50  1  0
 29 51  1  0
 51 52  1  0
 51  2  2  0
 26  6  1  0
 48 30  1  0
 46 37  1  0
M  CHG  1   3  -1
M  END
>  <UniqueID>  (22) 
20

>  <SMILES>  (22) 
Cc1ccc(/N=c2\nc(N3CC(Oc4ccc(F)cc4)C3)cc[n-]2)cc1OCC(N)=O

>  <Energy>  (22) 
103.75740812980301

>  <Genealogy>  (22) 
Cc1ccc(N=c2nc(N3CC(Oc4ccc(F)cc4)C3)cc[n-]2)cc1OCC(N)=O (protonated)
Cc1ccc(/N=c2\nc(N3CC(Oc4ccc(F)cc4)C3)cc[n-]2)cc1OCC(N)=O (cis-trans isomerization)
Cc1ccc(/N=c2\nc(N3CC(Oc4ccc(F)cc4)C3)cc[n-]2)cc1OCC(N)=O (3D coordinates assigned)
Cc1ccc(/N=c2\nc(N3CC(Oc4ccc(F)cc4)C3)cc[n-]2)cc1OCC(N)=O (nonaromatic ring conformer: 103.75740812980301 kcal/mol)

>  <smiles>  (22) 
Cc1ccc(N=c2nc(N3CC(Oc4ccc(F)cc4)C3)cc[nH]2)cc1OCC(N)=O

>  <score_type>  (22) 
oracle

>  <origin>  (22) 
adg

>  <m_score__min__energy>  (22) 
-10.380000000000001

>  <m_primary>  (22) 
energy

$$$$
22:0
     RDKit          3D

 55 58  0  0  0  0  0  0  0  0999 V2000
   54.4120   25.0850   45.9810 O   0  0  0  0  0  0  0  0  0  0  0  0
   55.5160   25.6900   45.9870 C   0  0  0  0  0  0  0  0  0  0  0  0
   56.7130   24.9590   46.2630 N   0  0  0  0  0  0  0  0  0  0  0  0
   57.4640   25.0840   47.5090 C   0  0  0  0  0  0  0  0  0  0  0  0
   58.6370   26.0000   47.3310 C   0  0  0  0  0  0  0  0  0  0  0  0
   58.7480   27.2900   47.8350 C   0  0  0  0  0  0  0  0  0  0  0  0
   59.9370   27.9280   47.4590 C   0  0  0  0  0  0  0  0  0  0  0  0
   60.7610   27.1450   46.6610 C   0  0  0  0  0  0  0  0  0  0  0  0
   60.0060   25.6600   46.4170 S   0  0  0  0  0  0  0  0  0  0  0  0
   55.5790   27.1020   45.7550 N   0  0  0  0  0  0  0  0  0  0  0  0
   56.6600   27.8560   45.1920 C   0  0  0  0  0  0  0  0  0  0  0  0
   57.7890   27.2440   44.6140 C   0  0  0  0  0  0  0  0  0  0  0  0
   58.8570   28.0250   44.1620 C   0  0  0  0  0  0  0  0  0  0  0  0
   58.8250   29.4130   44.3100 C   0  0  0  0  0  0  0  0  0  0  0  0
   57.7190   30.0310   44.9100 C   0  0  0  0  0  0  0  0  0  0  0  0
   57.7090   31.4850   45.1570 C   0  0  0  0  0  0  0  0  0  0  0  0
   56.6490   32.1270   44.9210 O   0  0  0  0  0  0  0  0  0  0  0  0
   58.8570   32.1620   45.7170 N   0  0  0  0  0  0  0  0  0  0  0  0
   59.9330   31.3990   46.3770 C   0  0  0  0  0  0  0  0  0  0  0  0
   60.5730   32.2240   47.4960 C   0  0  0  0  0  0  0  0  0  0  0  0
   59.5210   33.0260   48.1500 N   0  0  0  0  0  0  0  0  0  0  0  0
   59.9760   33.5750   49.4400 C   0  0  0  0  0  0  0  0  0  0  0  0
   59.1030   33.0620   50.5550 C   0  0  0  0  0  0  0  0  0  0  0  0
   58.3610   31.8780   50.4000 C   0  0  0  0  0  0  0  0  0  0  0  0
   57.5260   31.4310   51.4290 C   0  0  0  0  0  0  0  0  0  0  0  0
   57.4220   32.1620   52.6150 C   0  0  0  0  0  0  0  0  0  0  0  0
   58.1560   33.3400   52.7780 C   0  0  0  0  0  0  0  0  0  0  0  0
   58.9930   33.7900   51.7520 C   0  0  0  0  0  0  0  0  0  0  0  0
   59.0470   34.1030   47.2490 C   0  0  0  0  0  0  0  0  0  0  0  0
   58.9130   33.6290   45.7850 C   0  0  0  0  0  0  0  0  0  0  0  0
   56.6330   29.2500   45.3280 C   0  0  0  0  0  0  0  0  0  0  0  0
   56.8037   25.4903   48.2894 H   0  0  0  0  0  0  0  0  0  0  0  0
   57.8329   24.0896   47.8008 H   0  0  0  0  0  0  0  0  0  0  0  0
   57.9801   27.7623   48.4653 H   0  0  0  0  0  0  0  0  0  0  0  0
   60.1938   28.9524   47.7667 H   0  0  0  0  0  0  0  0  0  0  0  0
   61.7396   27.4439   46.2574 H   0  0  0  0  0  0  0  0  0  0  0  0
   57.8307   26.1490   44.5179 H   0  0  0  0  0  0  0  0  0  0  0  0
   59.7255   27.5442   43.6881 H   0  0  0  0  0  0  0  0  0  0  0  0
   59.6691   30.0226   43.9552 H   0  0  0  0  0  0  0  0  0  0  0  0
   59.5122   30.4766   46.8038 H   0  0  0  0  0  0  0  0  0  0  0  0
   60.7040   31.1570   45.6307 H   0  0  0  0  0  0  0  0  0  0  0  0
   61.0383   31.5520   48.2322 H   0  0  0  0  0  0  0  0  0  0  0  0
   61.3463   32.8863   47.0796 H   0  0  0  0  0  0  0  0  0  0  0  0
   61.0163   33.2665   49.6205 H   0  0  0  0  0  0  0  0  0  0  0  0
   59.9126   34.6727   49.4077 H   0  0  0  0  0  0  0  0  0  0  0  0
   58.4374   31.3013   49.4664 H   0  0  0  0  0  0  0  0  0  0  0  0
   56.9501   30.5022   51.3043 H   0  0  0  0  0  0  0  0  0  0  0  0
   56.7617   31.8100   53.4213 H   0  0  0  0  0  0  0  0  0  0  0  0
   58.0754   33.9133   53.7133 H   0  0  0  0  0  0  0  0  0  0  0  0
   59.5682   34.7185   51.8826 H   0  0  0  0  0  0  0  0  0  0  0  0
   58.0637   34.4497   47.5995 H   0  0  0  0  0  0  0  0  0  0  0  0
   59.7915   34.9124   47.2728 H   0  0  0  0  0  0  0  0  0  0  0  0
   57.9911   34.0459   45.3534 H   0  0  0  0  0  0  0  0  0  0  0  0
   59.7902   33.9760   45.2192 H   0  0  0  0  0  0  0  0  0  0  0  0
   55.7499   29.7368   45.7676 H   0  0  0  0  0  0  0  0  0  0  0  0
  1  2  2  0
  2  3  1  0
  3  4  1  0
  4  5  1  0
  5  6  2  0
  6  7  1  0
  7  8  2  0
  8  9  1  0
  2 10  1  0
 10 11  1  0
 11 12  2  0
 12 13  1  0
 13 14  2  0
 14 15  1  0
 15 16  1  0
 16 17  2  0
 16 18  1  0
 18 19  1  0
 19 20  1  0
 20 21  1  0
 21 22  1  0
 22 23  1  0
 23 24  2  0
 24 25  1  0
 25 26  2  0
 26 27  1  0
 27 28  2  0
 21 29  1  0
 29 30  1  0
 15 31  2  0
  9  5  1  0
 31 11  1  0
 30 18  1  0
 28 23  1  0
  4 32  1  0
  4 33  1  0
  6 34  1  0
  7 35  1  0
  8 36  1  0
 12 37  1  0
 13 38  1  0
 14 39  1  0
 19 40  1  0
 19 41  1  0
 20 42  1  0
 20 43  1  0
 22 44  1  0
 22 45  1  0
 24 46  1  0
 25 47  1  0
 26 48  1  0
 27 49  1  0
 28 50  1  0
 29 51  1  0
 29 52  1  0
 30 53  1  0
 30 54  1  0
 31 55  1  0
M  CHG  2   3  -1  10  -1
M  END
>  <UniqueID>  (23) 
21

>  <SMILES>  (23) 
O=C([N-]Cc1cccs1)[N-]c1cccc(C(=O)N2CCN(Cc3ccccc3)CC2)c1

>  <Energy>  (23) 
94.94484910917387

>  <Genealogy>  (23) 
O=C([N-]Cc1cccs1)[N-]c1cccc(C(=O)N2CCN(Cc3ccccc3)CC2)c1 (protonated)
O=C([N-]Cc1cccs1)[N-]c1cccc(C(=O)N2CCN(Cc3ccccc3)CC2)c1 (3D coordinates assigned)
O=C([N-]Cc1cccs1)[N-]c1cccc(C(=O)N2CCN(Cc3ccccc3)CC2)c1 (nonaromatic ring conformer: 94.94484910917387 kcal/mol)

>  <smiles>  (23) 
O=C(NCc1cccs1)Nc1cccc(C(=O)N2CCN(Cc3ccccc3)CC2)c1

>  <score_type>  (23) 
oracle

>  <origin>  (23) 
adg

>  <m_score__min__energy>  (23) 
-13.01

>  <m_primary>  (23) 
energy

$$$$
23:0
     RDKit          3D

 55 58  0  0  0  0  0  0  0  0999 V2000
   57.0200   28.3070   45.0900 C   0  0  0  0  0  0  0  0  0  0  0  0
   58.2550   28.3650   45.6010 C   0  0  0  0  0  0  0  0  0  0  0  0
   58.7990   29.6240   46.2240 C   0  0  0  0  0  0  0  0  0  0  0  0
   60.1620   29.4060   46.7550 N   0  0  0  0  0  0  0  0  0  0  0  0
   60.1670   28.6960   48.0590 C   0  0  0  0  0  0  0  0  0  0  0  0
   59.5880   29.5620   49.1970 C   0  0  0  0  0  0  0  0  0  0  0  0
   59.9130   30.9800   48.9860 N   0  0  0  0  0  0  0  0  0  0  0  0
   58.8750   31.9580   49.2070 C   0  0  0  0  0  0  0  0  0  0  0  0
   58.4970   32.6950   48.2570 O   0  0  0  0  0  0  0  0  0  0  0  0
   58.1970   32.0560   50.5190 C   0  0  0  0  0  0  0  0  0  0  0  0
   58.5210   33.0890   51.4150 C   0  0  0  0  0  0  0  0  0  0  0  0
   57.8790   33.1770   52.6520 C   0  0  0  0  0  0  0  0  0  0  0  0
   56.9190   32.2300   53.0140 C   0  0  0  0  0  0  0  0  0  0  0  0
   56.5970   31.1800   52.1410 C   0  0  0  0  0  0  0  0  0  0  0  0
   55.5870   30.1730   52.5390 C   0  0  0  0  0  0  0  0  0  0  0  0
   55.8760   28.9530   53.1160 C   0  0  0  0  0  0  0  0  0  0  0  0
   54.7610   28.3150   53.3830 O   0  0  0  0  0  0  0  0  0  0  0  0
   53.7380   29.0460   53.0030 C   0  0  0  0  0  0  0  0  0  0  0  0
   52.4890   28.5760   53.0670 C   0  0  0  0  0  0  0  0  0  0  0  0
   54.1960   30.2660   52.4800 C   0  0  0  0  0  0  0  0  0  0  0  0
   53.5110   31.3070   51.9610 C   0  0  0  0  0  0  0  0  0  0  0  0
   52.4340   31.2110   50.9660 C   0  0  0  0  0  0  0  0  0  0  0  0
   52.4410   30.3390   49.9410 N   0  0  0  0  0  0  0  0  0  0  0  0
   51.3520   30.6910   49.2240 C   0  0  0  0  0  0  0  0  0  0  0  0
   51.0060   30.0850   48.1750 O   0  0  0  0  0  0  0  0  0  0  0  0
   50.6720   31.7510   49.7100 N   0  0  0  0  0  0  0  0  0  0  0  0
   51.3780   32.0790   50.8040 C   0  0  0  0  0  0  0  0  0  0  0  0
   51.0790   33.1610   51.6240 O   0  0  0  0  0  0  0  0  0  0  0  0
   57.2180   31.1160   50.8820 C   0  0  0  0  0  0  0  0  0  0  0  0
   61.1250   31.2610   48.1980 C   0  0  2  0  0  0  0  0  0  0  0  0
   61.5230   32.7460   48.1720 C   0  0  0  0  0  0  0  0  0  0  0  0
   60.9630   30.6640   46.7800 C   0  0  0  0  0  0  0  0  0  0  0  0
   56.6535   27.3716   44.6421 H   0  0  0  0  0  0  0  0  0  0  0  0
   56.3711   29.1948   45.1177 H   0  0  0  0  0  0  0  0  0  0  0  0
   58.8910   27.4682   45.5652 H   0  0  0  0  0  0  0  0  0  0  0  0
   58.8321   30.4170   45.4624 H   0  0  0  0  0  0  0  0  0  0  0  0
   58.1412   29.9161   47.0559 H   0  0  0  0  0  0  0  0  0  0  0  0
   59.5622   27.7819   47.9668 H   0  0  0  0  0  0  0  0  0  0  0  0
   61.2116   28.4615   48.3115 H   0  0  0  0  0  0  0  0  0  0  0  0
   58.4949   29.4417   49.2222 H   0  0  0  0  0  0  0  0  0  0  0  0
   60.0293   29.2355   50.1502 H   0  0  0  0  0  0  0  0  0  0  0  0
   59.2842   33.8321   51.1405 H   0  0  0  0  0  0  0  0  0  0  0  0
   58.1304   33.9949   53.3433 H   0  0  0  0  0  0  0  0  0  0  0  0
   56.4131   32.3075   53.9877 H   0  0  0  0  0  0  0  0  0  0  0  0
   56.8878   28.5731   53.3210 H   0  0  0  0  0  0  0  0  0  0  0  0
   51.6471   29.2057   52.7434 H   0  0  0  0  0  0  0  0  0  0  0  0
   52.3025   27.5593   53.4433 H   0  0  0  0  0  0  0  0  0  0  0  0
   53.7823   32.3132   52.3131 H   0  0  0  0  0  0  0  0  0  0  0  0
   56.9350   30.3228   50.1744 H   0  0  0  0  0  0  0  0  0  0  0  0
   61.9704   30.7693   48.7016 H   0  0  0  0  0  0  0  0  0  0  0  0
   61.6224   33.1171   49.2027 H   0  0  0  0  0  0  0  0  0  0  0  0
   62.4832   32.8591   47.6473 H   0  0  0  0  0  0  0  0  0  0  0  0
   60.7481   33.3242   47.6473 H   0  0  0  0  0  0  0  0  0  0  0  0
   60.4628   31.4086   46.1432 H   0  0  0  0  0  0  0  0  0  0  0  0
   61.9705   30.4148   46.4155 H   0  0  0  0  0  0  0  0  0  0  0  0
  1  2  2  0
  2  3  1  0
  3  4  1  0
  4  5  1  0
  5  6  1  0
  6  7  1  0
  7  8  1  0
  8  9  2  0
  8 10  1  0
 10 11  2  0
 11 12  1  0
 12 13  2  0
 13 14  1  0
 14 15  1  0
 15 16  2  0
 16 17  1  0
 17 18  1  0
 18 19  2  0
 18 20  1  0
 20 21  2  3
 21 22  1  0
 22 23  1  0
 23 24  1  0
 24 25  2  0
 24 26  1  0
 26 27  1  0
 27 28  1  0
 14 29  2  0
  7 30  1  0
 30 31  1  0
 30 32  1  0
 32  4  1  0
 29 10  1  0
 20 15  1  0
 27 22  2  0
  1 33  1  0
  1 34  1  0
  2 35  1  0
  3 36  1  0
  3 37  1  0
  5 38  1  0
  5 39  1  0
  6 40  1  0
  6 41  1  0
 11 42  1  0
 12 43  1  0
 13 44  1  0
 16 45  1  0
 19 46  1  0
 19 47  1  0
 21 48  1  0
 29 49  1  0
 30 50  1  1
 31 51  1  0
 31 52  1  0
 31 53  1  0
 32 54  1  0
 32 55  1  0
M  CHG  3  23  -1  26  -1  28  -1
M  END
>  <UniqueID>  (24) 
22

>  <SMILES>  (24) 
C=CCN1CCN(C(=O)c2cccc(-c3coc(=C)c3=Cc3[n-]c(=O)[n-]c3[O-])c2)[C@H](C)C1

>  <Energy>  (24) 
147.9085775421007

>  <Genealogy>  (24) 
C=CCN1CCN(C(=O)c2cccc(-c3coc(=C)c3=Cc3[n-]c(=O)[n-]c3[O-])c2)C(C)C1 (protonated)
C=CCN1CCN(C(=O)c2cccc(-c3coc(=C)c3=Cc3[n-]c(=O)[n-]c3[O-])c2)[C@H](C)C1 (chirality)
C=CCN1CCN(C(=O)c2cccc(-c3coc(=C)c3=Cc3[n-]c(=O)[n-]c3[O-])c2)[C@H](C)C1 (3D coordinates assigned)
C=CCN1CCN(C(=O)c2cccc(-c3coc(=C)c3=Cc3[n-]c(=O)[n-]c3[O-])c2)[C@H](C)C1 (nonaromatic ring conformer: 147.9085775421007 kcal/mol)

>  <smiles>  (24) 
C=CCN1CCN(C(=O)c2cccc(-c3coc(=C)c3=Cc3[nH]c(=O)[nH]c3O)c2)C(C)C1

>  <score_type>  (24) 
oracle

>  <origin>  (24) 
adg

>  <m_score__min__energy>  (24) 
-17.73

>  <m_primary>  (24) 
energy

$$$$
24:0
     RDKit          3D

 40 42  0  0  0  0  0  0  0  0999 V2000
   58.7710   33.9950   44.4670 C   0  0  0  0  0  0  0  0  0  0  0  0
   57.2610   33.7900   45.3860 S   0  0  0  0  0  0  0  0  0  0  0  0
   56.6560   32.4620   45.0260 O   0  0  0  0  0  0  0  0  0  0  0  0
   56.2830   34.8770   45.0390 O   0  0  0  0  0  0  0  0  0  0  0  0
   57.5890   33.8060   47.0890 N   0  0  0  0  0  0  0  0  0  0  0  0
   58.6160   33.0570   47.7530 C   0  0  0  0  0  0  0  0  0  0  0  0
   58.9160   33.2380   49.1150 C   0  0  0  0  0  0  0  0  0  0  0  0
   59.9380   32.4980   49.7130 C   0  0  0  0  0  0  0  0  0  0  0  0
   60.6600   31.5660   48.9670 C   0  0  0  0  0  0  0  0  0  0  0  0
   60.3560   31.3500   47.6120 C   0  0  0  0  0  0  0  0  0  0  0  0
   61.1170   30.3630   46.8100 C   0  0  0  0  0  0  0  0  0  0  0  0
   62.3720   30.4710   46.7340 O   0  0  0  0  0  0  0  0  0  0  0  0
   60.4610   29.2860   46.1130 N   0  0  0  0  0  0  0  0  0  0  0  0
   59.9760   29.4720   44.7450 C   0  0  0  0  0  0  0  0  0  0  0  0
   58.4500   29.4430   44.7470 C   0  0  0  0  0  0  0  0  0  0  0  0
   57.9200   28.2540   45.5120 C   0  0  0  0  0  0  0  0  0  0  0  0
   56.6050   27.8210   45.2760 C   0  0  0  0  0  0  0  0  0  0  0  0
   56.0690   26.7530   46.0000 C   0  0  0  0  0  0  0  0  0  0  0  0
   54.7710   26.3270   45.7520 O   0  0  0  0  0  0  0  0  0  0  0  0
   56.8390   26.1140   46.9750 C   0  0  0  0  0  0  0  0  0  0  0  0
   58.1420   26.5440   47.2310 C   0  0  0  0  0  0  0  0  0  0  0  0
   58.6900   27.6220   46.5180 C   0  0  0  0  0  0  0  0  0  0  0  0
   60.1180   28.0320   46.7970 C   0  0  0  0  0  0  0  0  0  0  0  0
   59.3390   32.1150   47.0120 C   0  0  0  0  0  0  0  0  0  0  0  0
   59.6128   34.1093   45.1657 H   0  0  0  0  0  0  0  0  0  0  0  0
   58.9376   33.1112   43.8336 H   0  0  0  0  0  0  0  0  0  0  0  0
   58.6959   34.8912   43.8336 H   0  0  0  0  0  0  0  0  0  0  0  0
   58.3440   33.9645   49.7108 H   0  0  0  0  0  0  0  0  0  0  0  0
   60.1748   32.6505   50.7763 H   0  0  0  0  0  0  0  0  0  0  0  0
   61.4723   30.9966   49.4424 H   0  0  0  0  0  0  0  0  0  0  0  0
   60.3254   30.4410   44.3590 H   0  0  0  0  0  0  0  0  0  0  0  0
   60.3608   28.6660   44.1029 H   0  0  0  0  0  0  0  0  0  0  0  0
   58.0756   30.3652   45.2155 H   0  0  0  0  0  0  0  0  0  0  0  0
   58.1050   29.3649   43.7054 H   0  0  0  0  0  0  0  0  0  0  0  0
   55.9922   28.3267   44.5152 H   0  0  0  0  0  0  0  0  0  0  0  0
   56.4177   25.2707   47.5418 H   0  0  0  0  0  0  0  0  0  0  0  0
   58.7442   26.0342   47.9974 H   0  0  0  0  0  0  0  0  0  0  0  0
   60.2452   28.1696   47.8809 H   0  0  0  0  0  0  0  0  0  0  0  0
   60.7840   27.2408   46.4222 H   0  0  0  0  0  0  0  0  0  0  0  0
   59.1089   31.9708   45.9460 H   0  0  0  0  0  0  0  0  0  0  0  0
  1  2  1  0
  2  3  2  0
  2  4  2  0
  2  5  1  0
  5  6  1  0
  6  7  2  0
  7  8  1  0
  8  9  2  0
  9 10  1  0
 10 11  1  0
 11 12  2  0
 11 13  1  0
 13 14  1  0
 14 15  1  0
 15 16  1  0
 16 17  2  0
 17 18  1  0
 18 19  1  0
 18 20  2  0
 20 21  1  0
 21 22  2  0
 22 23  1  0
 10 24  2  0
 24  6  1  0
 23 13  1  0
 22 16  1  0
  1 25  1  0
  1 26  1  0
  1 27  1  0
  7 28  1  0
  8 29  1  0
  9 30  1  0
 14 31  1  0
 14 32  1  0
 15 33  1  0
 15 34  1  0
 17 35  1  0
 20 36  1  0
 21 37  1  0
 23 38  1  0
 23 39  1  0
 24 40  1  0
M  CHG  2   5  -1  19  -1
M  END
>  <UniqueID>  (25) 
23

>  <SMILES>  (25) 
CS(=O)(=O)[N-]c1cccc(C(=O)N2CCc3cc([O-])ccc3C2)c1

>  <Energy>  (25) 
47.904946175899774

>  <Genealogy>  (25) 
CS(=O)(=O)[N-]c1cccc(C(=O)N2CCc3cc([O-])ccc3C2)c1 (protonated)
CS(=O)(=O)[N-]c1cccc(C(=O)N2CCc3cc([O-])ccc3C2)c1 (3D coordinates assigned)
CS(=O)(=O)[N-]c1cccc(C(=O)N2CCc3cc([O-])ccc3C2)c1 (nonaromatic ring conformer: 47.904946175899774 kcal/mol)

>  <smiles>  (25) 
CS(=O)(=O)Nc1cccc(C(=O)N2CCc3cc(O)ccc3C2)c1

>  <score_type>  (25) 
oracle

>  <origin>  (25) 
adg

>  <m_score__min__energy>  (25) 
-11.859999999999999

>  <m_primary>  (25) 
energy

$$$$
25:0
     RDKit          3D

 48 50  0  0  0  0  0  0  0  0999 V2000
   58.0320   27.2860   43.7230 C   0  0  0  0  0  0  0  0  0  0  0  0
   58.8160   27.9010   44.6100 C   0  0  0  0  0  0  0  0  0  0  0  0
   59.8790   28.5800   44.2370 O   0  0  0  0  0  0  0  0  0  0  0  0
   60.5250   28.9950   45.3010 C   0  0  0  0  0  0  0  0  0  0  0  0
   59.8730   28.5640   46.4400 C   0  0  0  0  0  0  0  0  0  0  0  0
   60.2540   28.9610   47.8440 C   0  0  0  0  0  0  0  0  0  0  0  0
   61.1940   30.1740   47.8630 C   0  0  0  0  0  0  0  0  0  0  0  0
   60.4380   31.4680   47.8990 C   0  0  0  0  0  0  0  0  0  0  0  0
   60.5050   32.2020   48.9220 O   0  0  0  0  0  0  0  0  0  0  0  0
   59.7070   31.8710   46.7760 O   0  0  0  0  0  0  0  0  0  0  0  0
   58.2830   31.7820   46.6920 C   0  0  0  0  0  0  0  0  0  0  0  0
   57.7020   33.1800   46.9740 C   0  0  0  0  0  0  0  0  0  0  0  0
   58.5210   34.3360   46.3820 C   0  0  0  0  0  0  0  0  0  0  0  0
   58.3300   34.5820   44.8750 C   0  0  0  0  0  0  0  0  0  0  0  0
   58.5040   33.3300   43.9950 C   0  0  0  0  0  0  0  0  0  0  0  0
   57.4910   32.1800   44.2370 C   0  0  0  0  0  0  0  0  0  0  0  0
   57.8710   31.1630   45.3300 C   0  0  0  0  0  0  0  0  0  0  0  0
   58.7310   27.8910   46.0110 C   0  0  0  0  0  0  0  0  0  0  0  0
   57.7840   27.3790   46.8230 C   0  0  0  0  0  0  0  0  0  0  0  0
   57.2730   26.0010   46.7780 C   0  0  0  0  0  0  0  0  0  0  0  0
   57.9350   24.9470   47.2850 N   0  0  0  0  0  0  0  0  0  0  0  0
   57.0380   23.9410   47.1970 C   0  0  0  0  0  0  0  0  0  0  0  0
   57.3030   22.7630   47.5560 O   0  0  0  0  0  0  0  0  0  0  0  0
   55.8340   24.2950   46.7000 N   0  0  0  0  0  0  0  0  0  0  0  0
   55.9910   25.6080   46.4580 C   0  0  0  0  0  0  0  0  0  0  0  0
   54.9770   26.4390   45.9910 O   0  0  0  0  0  0  0  0  0  0  0  0
   57.1494   26.7254   44.0646 H   0  0  0  0  0  0  0  0  0  0  0  0
   58.2681   27.3395   42.6500 H   0  0  0  0  0  0  0  0  0  0  0  0
   61.4466   29.5954   45.2880 H   0  0  0  0  0  0  0  0  0  0  0  0
   59.3401   29.2110   48.4028 H   0  0  0  0  0  0  0  0  0  0  0  0
   60.7829   28.1139   48.3051 H   0  0  0  0  0  0  0  0  0  0  0  0
   61.8357   30.1124   48.7543 H   0  0  0  0  0  0  0  0  0  0  0  0
   61.7927   30.1551   46.9404 H   0  0  0  0  0  0  0  0  0  0  0  0
   57.8625   31.1027   47.4482 H   0  0  0  0  0  0  0  0  0  0  0  0
   56.6880   33.2236   46.5498 H   0  0  0  0  0  0  0  0  0  0  0  0
   57.7147   33.3119   48.0660 H   0  0  0  0  0  0  0  0  0  0  0  0
   58.2399   35.2570   46.9137 H   0  0  0  0  0  0  0  0  0  0  0  0
   59.5764   34.0536   46.5096 H   0  0  0  0  0  0  0  0  0  0  0  0
   57.3145   34.9741   44.7172 H   0  0  0  0  0  0  0  0  0  0  0  0
   59.1167   35.2886   44.5718 H   0  0  0  0  0  0  0  0  0  0  0  0
   58.4132   33.6424   42.9442 H   0  0  0  0  0  0  0  0  0  0  0  0
   59.4887   32.9172   44.2595 H   0  0  0  0  0  0  0  0  0  0  0  0
   56.5290   32.6329   44.5187 H   0  0  0  0  0  0  0  0  0  0  0  0
   57.4620   31.6083   43.2977 H   0  0  0  0  0  0  0  0  0  0  0  0
   57.0042   30.5080   45.5019 H   0  0  0  0  0  0  0  0  0  0  0  0
   58.7571   30.6290   44.9562 H   0  0  0  0  0  0  0  0  0  0  0  0
   57.3575   28.0493   47.5838 H   0  0  0  0  0  0  0  0  0  0  0  0
   54.0390   26.3700   46.3670 H   0  0  0  0  0  0  0  0  0  0  0  0
  1  2  2  0
  2  3  1  0
  3  4  1  0
  4  5  2  0
  5  6  1  0
  6  7  1  0
  7  8  1  0
  8  9  2  0
  8 10  1  0
 10 11  1  0
 11 12  1  0
 12 13  1  0
 13 14  1  0
 14 15  1  0
 15 16  1  0
 16 17  1  0
  5 18  1  0
 18 19  2  3
 19 20  1  0
 20 21  1  0
 21 22  1  0
 22 23  2  0
 22 24  1  0
 24 25  1  0
 25 26  1  0
 18  2  1  0
 25 20  2  0
 17 11  1  0
  1 27  1  0
  1 28  1  0
  4 29  1  0
  6 30  1  0
  6 31  1  0
  7 32  1  0
  7 33  1  0
 11 34  1  0
 12 35  1  0
 12 36  1  0
 13 37  1  0
 13 38  1  0
 14 39  1  0
 14 40  1  0
 15 41  1  0
 15 42  1  0
 16 43  1  0
 16 44  1  0
 17 45  1  0
 17 46  1  0
 19 47  1  0
 26 48  1  0
M  CHG  2  21  -1  24  -1
M  END
>  <UniqueID>  (26) 
24

>  <SMILES>  (26) 
C=c1occ(CCC(=O)OC2CCCCCC2)c1=Cc1[n-]c(=O)[n-]c1O

>  <Energy>  (26) 
116.19921215260389

>  <Genealogy>  (26) 
C=c1occ(CCC(=O)OC2CCCCCC2)c1=Cc1[n-]c(=O)[n-]c1O (protonated)
C=c1occ(CCC(=O)OC2CCCCCC2)c1=Cc1[n-]c(=O)[n-]c1O (3D coordinates assigned)
C=c1occ(CCC(=O)OC2CCCCCC2)c1=Cc1[n-]c(=O)[n-]c1O (nonaromatic ring conformer: 116.19921215260389 kcal/mol)

>  <smiles>  (26) 
C=c1occ(CCC(=O)OC2CCCCCC2)c1=Cc1[nH]c(=O)[nH]c1O

>  <score_type>  (26) 
oracle

>  <origin>  (26) 
adg

>  <m_score__min__energy>  (26) 
-11.9

>  <m_primary>  (26) 
energy

$$$$
26:0
     RDKit          3D

 49 51  0  0  0  0  0  0  0  0999 V2000
   55.8760   30.0660   43.4100 C   0  0  0  0  0  0  0  0  0  0  0  0
   55.7580   29.3390   44.5210 C   0  0  0  0  0  0  0  0  0  0  0  0
   56.8680   28.5470   45.1010 C   0  0  0  0  0  0  0  0  0  0  0  0
   58.1690   29.0690   45.0100 C   0  0  0  0  0  0  0  0  0  0  0  0
   59.2550   28.3790   45.5590 C   0  0  0  0  0  0  0  0  0  0  0  0
   60.9050   29.0750   45.4490 S   0  0  0  0  0  0  0  0  0  0  0  0
   60.5360   30.3570   46.6470 C   0  0  0  0  0  0  0  0  0  0  0  0
   59.6860   31.4140   46.3020 C   0  0  0  0  0  0  0  0  0  0  0  0
   59.3710   32.3970   47.2440 C   0  0  0  0  0  0  0  0  0  0  0  0
   59.9030   32.3310   48.5430 C   0  0  0  0  0  0  0  0  0  0  0  0
   59.5680   33.3790   49.5330 C   0  0  0  0  0  0  0  0  0  0  0  0
   59.7190   34.5920   49.2140 O   0  0  0  0  0  0  0  0  0  0  0  0
   59.0600   33.0500   50.8410 N   0  0  0  0  0  0  0  0  0  0  0  0
   58.0740   31.9650   50.9850 C   0  0  0  0  0  0  0  0  0  0  0  0
   57.2180   32.1450   52.2430 C   0  0  0  0  0  0  0  0  0  0  0  0
   58.0770   32.3790   53.4130 N   0  0  0  0  0  0  0  0  0  0  0  0
   57.7460   31.7860   54.6890 C   0  0  0  0  0  0  0  0  0  0  0  0
   58.6250   31.9730   55.8910 C   0  0  0  0  0  0  0  0  0  0  0  0
   56.6880   31.1150   54.8200 O   0  0  0  0  0  0  0  0  0  0  0  0
   59.2370   33.2800   53.2930 C   0  0  0  0  0  0  0  0  0  0  0  0
   59.2640   34.0010   51.9410 C   0  0  0  0  0  0  0  0  0  0  0  0
   60.7820   31.2860   48.8720 C   0  0  0  0  0  0  0  0  0  0  0  0
   61.0900   30.3000   47.9290 C   0  0  0  0  0  0  0  0  0  0  0  0
   59.0510   27.1550   46.2010 C   0  0  0  0  0  0  0  0  0  0  0  0
   57.7610   26.6320   46.3140 C   0  0  0  0  0  0  0  0  0  0  0  0
   56.6620   27.3260   45.7840 C   0  0  0  0  0  0  0  0  0  0  0  0
   55.3760   26.8190   45.9660 O   0  0  0  0  0  0  0  0  0  0  0  0
   55.0135   30.6329   43.0295 H   0  0  0  0  0  0  0  0  0  0  0  0
   56.8358   30.0991   42.8737 H   0  0  0  0  0  0  0  0  0  0  0  0
   54.7852   29.3263   45.0344 H   0  0  0  0  0  0  0  0  0  0  0  0
   58.3355   30.0303   44.5018 H   0  0  0  0  0  0  0  0  0  0  0  0
   59.2651   31.4711   45.2873 H   0  0  0  0  0  0  0  0  0  0  0  0
   58.7034   33.2264   46.9674 H   0  0  0  0  0  0  0  0  0  0  0  0
   57.4164   31.9607   50.1032 H   0  0  0  0  0  0  0  0  0  0  0  0
   58.6192   31.0136   51.0727 H   0  0  0  0  0  0  0  0  0  0  0  0
   56.5479   33.0065   52.1062 H   0  0  0  0  0  0  0  0  0  0  0  0
   56.6272   31.2320   52.4086 H   0  0  0  0  0  0  0  0  0  0  0  0
   58.0273   31.8458   56.8057 H   0  0  0  0  0  0  0  0  0  0  0  0
   59.4329   31.2266   55.8742 H   0  0  0  0  0  0  0  0  0  0  0  0
   59.0591   32.9836   55.8742 H   0  0  0  0  0  0  0  0  0  0  0  0
   59.1884   34.0309   54.0954 H   0  0  0  0  0  0  0  0  0  0  0  0
   60.1502   32.6720   53.3731 H   0  0  0  0  0  0  0  0  0  0  0  0
   58.4643   34.7560   51.9185 H   0  0  0  0  0  0  0  0  0  0  0  0
   60.2459   34.4809   51.8159 H   0  0  0  0  0  0  0  0  0  0  0  0
   61.2301   31.2429   49.8757 H   0  0  0  0  0  0  0  0  0  0  0  0
   61.7698   29.4778   48.1969 H   0  0  0  0  0  0  0  0  0  0  0  0
   59.9066   26.6032   46.6175 H   0  0  0  0  0  0  0  0  0  0  0  0
   57.6050   25.6690   46.8222 H   0  0  0  0  0  0  0  0  0  0  0  0
   55.1070   26.3410   46.8160 H   0  0  0  0  0  0  0  0  0  0  0  0
  1  2  2  0
  2  3  1  0
  3  4  2  0
  4  5  1  0
  5  6  1  0
  6  7  1  0
  7  8  2  0
  8  9  1  0
  9 10  2  0
 10 11  1  0
 11 12  2  0
 11 13  1  0
 13 14  1  0
 14 15  1  0
 15 16  1  0
 16 17  1  0
 17 18  1  0
 17 19  2  0
 16 20  1  0
 20 21  1  0
 10 22  1  0
 22 23  2  0
  5 24  2  0
 24 25  1  0
 25 26  2  0
 26 27  1  0
 26  3  1  0
 23  7  1  0
 21 13  1  0
  1 28  1  0
  1 29  1  0
  2 30  1  0
  4 31  1  0
  8 32  1  0
  9 33  1  0
 14 34  1  0
 14 35  1  0
 15 36  1  0
 15 37  1  0
 18 38  1  0
 18 39  1  0
 18 40  1  0
 20 41  1  0
 20 42  1  0
 21 43  1  0
 21 44  1  0
 22 45  1  0
 23 46  1  0
 24 47  1  0
 25 48  1  0
 27 49  1  0
M  END
>  <UniqueID>  (27) 
25

>  <SMILES>  (27) 
C=Cc1cc(Sc2ccc(C(=O)N3CCN(C(C)=O)CC3)cc2)ccc1O

>  <Energy>  (27) 
52.83761664726681

>  <Genealogy>  (27) 
C=Cc1cc(Sc2ccc(C(=O)N3CCN(C(C)=O)CC3)cc2)ccc1O (3D coordinates assigned)
C=Cc1cc(Sc2ccc(C(=O)N3CCN(C(C)=O)CC3)cc2)ccc1O (nonaromatic ring conformer: 52.83761664726681 kcal/mol)

>  <smiles>  (27) 
C=Cc1cc(Sc2ccc(C(=O)N3CCN(C(C)=O)CC3)cc2)ccc1O

>  <score_type>  (27) 
oracle

>  <origin>  (27) 
adg

>  <m_score__min__energy>  (27) 
-8.7100000000000009

>  <m_primary>  (27) 
energy

$$$$
27:0
     RDKit          3D

 68 72  0  0  0  0  0  0  0  0999 V2000
   63.3780   32.4040   49.9930 C   0  0  0  0  0  0  0  0  0  0  0  0
   63.4270   33.1040   48.6690 C   0  0  0  0  0  0  0  0  0  0  0  0
   64.5350   33.1970   48.0750 O   0  0  0  0  0  0  0  0  0  0  0  0
   62.2320   33.6410   48.0630 N   0  0  0  0  0  0  0  0  0  0  0  0
   62.2070   33.9580   46.6290 C   0  0  0  0  0  0  0  0  0  0  0  0
   60.8530   33.5600   46.0240 C   0  0  0  0  0  0  0  0  0  0  0  0
   59.7180   34.0150   46.8490 N   0  0  0  0  0  0  0  0  0  0  0  0
   58.3510   33.7550   46.4440 C   0  0  0  0  0  0  0  0  0  0  0  0
   57.3940   34.2280   47.1150 O   0  0  0  0  0  0  0  0  0  0  0  0
   58.0170   32.8950   45.2890 C   0  0  0  0  0  0  0  0  0  0  0  0
   58.4190   33.2880   44.0040 C   0  0  0  0  0  0  0  0  0  0  0  0
   58.1840   32.4580   42.9050 C   0  0  0  0  0  0  0  0  0  0  0  0
   57.5570   31.2220   43.0820 C   0  0  0  0  0  0  0  0  0  0  0  0
   57.1560   30.8100   44.3640 C   0  0  0  0  0  0  0  0  0  0  0  0
   56.4660   29.5160   44.5590 C   0  0  0  0  0  0  0  0  0  0  0  0
   55.2780   29.5120   44.9760 O   0  0  0  0  0  0  0  0  0  0  0  0
   57.0890   28.2650   44.2430 N   0  0  0  0  0  0  0  0  0  0  0  0
   57.5350   27.2680   45.1750 C   0  0  0  0  0  0  0  0  0  0  0  0
   56.6260   26.2900   45.5960 C   0  0  0  0  0  0  0  0  0  0  0  0
   56.9760   25.3830   46.6010 C   0  0  0  0  0  0  0  0  0  0  0  0
   58.2500   25.4230   47.1700 C   0  0  0  0  0  0  0  0  0  0  0  0
   59.1870   26.3630   46.7270 C   0  0  0  0  0  0  0  0  0  0  0  0
   60.4730   26.3570   47.2820 O   0  0  0  0  0  0  0  0  0  0  0  0
   60.7480   26.7910   48.6130 C   0  0  0  0  0  0  0  0  0  0  0  0
   60.2690   28.2030   48.7800 C   0  0  0  0  0  0  0  0  0  0  0  0
   60.3620   29.1170   47.7290 C   0  0  0  0  0  0  0  0  0  0  0  0
   59.8160   30.3900   47.8880 C   0  0  0  0  0  0  0  0  0  0  0  0
   59.9050   31.2150   46.9340 O   0  0  0  0  0  0  0  0  0  0  0  0
   59.1850   30.7310   49.0600 N   0  0  0  0  0  0  0  0  0  0  0  0
   58.6440   31.9800   49.2260 C   0  0  0  0  0  0  0  0  0  0  0  0
   57.9900   32.3220   50.4130 C   0  0  0  0  0  0  0  0  0  0  0  0
   57.8640   31.3760   51.4340 C   0  0  0  0  0  0  0  0  0  0  0  0
   57.1760   31.7420   52.7150 C   0  0  0  0  0  0  0  0  0  0  0  0
   58.4330   30.1110   51.2660 C   0  0  0  0  0  0  0  0  0  0  0  0
   59.0940   29.8000   50.0740 C   0  0  0  0  0  0  0  0  0  0  0  0
   59.6300   28.5610   49.9200 N   0  0  0  0  0  0  0  0  0  0  0  0
   58.8180   27.3040   45.7520 C   0  0  0  0  0  0  0  0  0  0  0  0
   57.4010   31.6460   45.4670 C   0  0  0  0  0  0  0  0  0  0  0  0
   59.9900   34.7150   48.1140 C   0  0  0  0  0  0  0  0  0  0  0  0
   61.0700   33.9680   48.9030 C   0  0  0  0  0  0  0  0  0  0  0  0
   63.4300   33.1468   50.8026 H   0  0  0  0  0  0  0  0  0  0  0  0
   62.4381   31.8384   50.0741 H   0  0  0  0  0  0  0  0  0  0  0  0
   64.2300   31.7129   50.0741 H   0  0  0  0  0  0  0  0  0  0  0  0
   62.3630   35.0383   46.4925 H   0  0  0  0  0  0  0  0  0  0  0  0
   63.0064   33.3973   46.1224 H   0  0  0  0  0  0  0  0  0  0  0  0
   60.7663   34.0093   45.0237 H   0  0  0  0  0  0  0  0  0  0  0  0
   60.8153   32.4618   45.9745 H   0  0  0  0  0  0  0  0  0  0  0  0
   58.9223   34.2555   43.8606 H   0  0  0  0  0  0  0  0  0  0  0  0
   58.4930   32.7780   41.8990 H   0  0  0  0  0  0  0  0  0  0  0  0
   57.3768   30.5695   42.2150 H   0  0  0  0  0  0  0  0  0  0  0  0
   55.6297   26.2347   45.1330 H   0  0  0  0  0  0  0  0  0  0  0  0
   56.2453   24.6358   46.9442 H   0  0  0  0  0  0  0  0  0  0  0  0
   58.5177   24.7146   47.9678 H   0  0  0  0  0  0  0  0  0  0  0  0
   60.2259   26.1383   49.3281 H   0  0  0  0  0  0  0  0  0  0  0  0
   61.8307   26.7432   48.8012 H   0  0  0  0  0  0  0  0  0  0  0  0
   60.8591   28.8368   46.7886 H   0  0  0  0  0  0  0  0  0  0  0  0
   58.7255   32.7205   48.4166 H   0  0  0  0  0  0  0  0  0  0  0  0
   57.5757   33.3327   50.5432 H   0  0  0  0  0  0  0  0  0  0  0  0
   57.7900   31.4154   53.5673 H   0  0  0  0  0  0  0  0  0  0  0  0
   57.0385   32.8325   52.7588 H   0  0  0  0  0  0  0  0  0  0  0  0
   56.1948   31.2466   52.7588 H   0  0  0  0  0  0  0  0  0  0  0  0
   58.3611   29.3624   52.0688 H   0  0  0  0  0  0  0  0  0  0  0  0
   59.5370   28.0747   45.4371 H   0  0  0  0  0  0  0  0  0  0  0  0
   57.1083   31.3197   46.4759 H   0  0  0  0  0  0  0  0  0  0  0  0
   60.3370   35.7363   47.8981 H   0  0  0  0  0  0  0  0  0  0  0  0
   59.0673   34.7537   48.7115 H   0  0  0  0  0  0  0  0  0  0  0  0
   61.4019   34.6009   49.7392 H   0  0  0  0  0  0  0  0  0  0  0  0
   60.6362   33.0255   49.2685 H   0  0  0  0  0  0  0  0  0  0  0  0
  1  2  1  0
  2  3  2  0
  2  4  1  0
  4  5  1  0
  5  6  1  0
  6  7  1  0
  7  8  1  0
  8  9  2  0
  8 10  1  0
 10 11  2  0
 11 12  1  0
 12 13  2  0
 13 14  1  0
 14 15  1  0
 15 16  2  0
 15 17  1  0
 17 18  1  0
 18 19  2  0
 19 20  1  0
 20 21  2  0
 21 22  1  0
 22 23  1  0
 23 24  1  0
 24 25  1  0
 25 26  2  0
 26 27  1  0
 27 28  2  0
 27 29  1  0
 29 30  1  0
 30 31  2  0
 31 32  1  0
 32 33  1  0
 32 34  2  0
 34 35  1  0
 35 36  2  0
 22 37  2  0
 14 38  2  0
  7 39  1  0
 39 40  1  0
 40  4  1  0
 38 10  1  0
 37 18  1  0
 36 25  1  0
 35 29  1  0
  1 41  1  0
  1 42  1  0
  1 43  1  0
  5 44  1  0
  5 45  1  0
  6 46  1  0
  6 47  1  0
 11 48  1  0
 12 49  1  0
 13 50  1  0
 19 51  1  0
 20 52  1  0
 21 53  1  0
 24 54  1  0
 24 55  1  0
 26 56  1  0
 30 57  1  0
 31 58  1  0
 33 59  1  0
 33 60  1  0
 33 61  1  0
 34 62  1  0
 37 63  1  0
 38 64  1  0
 39 65  1  0
 39 66  1  0
 40 67  1  0
 40 68  1  0
M  CHG  1  17  -1
M  END
>  <UniqueID>  (28) 
26

>  <SMILES>  (28) 
CC(=O)N1CCN(C(=O)c2cccc(C(=O)[N-]c3cccc(OCc4cc(=O)n5ccc(C)cc5n4)c3)c2)CC1

>  <Energy>  (28) 
92.93933279110666

>  <Genealogy>  (28) 
CC(=O)N1CCN(C(=O)c2cccc(C(=O)[N-]c3cccc(OCc4cc(=O)n5ccc(C)cc5n4)c3)c2)CC1 (protonated)
CC(=O)N1CCN(C(=O)c2cccc(C(=O)[N-]c3cccc(OCc4cc(=O)n5ccc(C)cc5n4)c3)c2)CC1 (3D coordinates assigned)
CC(=O)N1CCN(C(=O)c2cccc(C(=O)[N-]c3cccc(OCc4cc(=O)n5ccc(C)cc5n4)c3)c2)CC1 (nonaromatic ring conformer: 92.93933279110666 kcal/mol)

>  <smiles>  (28) 
CC(=O)N1CCN(C(=O)c2cccc(C(=O)Nc3cccc(OCc4cc(=O)n5ccc(C)cc5n4)c3)c2)CC1

>  <score_type>  (28) 
oracle

>  <origin>  (28) 
adg

>  <m_score__min__energy>  (28) 
-11.5

>  <m_primary>  (28) 
energy

$$$$
28:0
     RDKit          3D

 62 66  0  0  0  0  0  0  0  0999 V2000
   57.8000   31.9580   43.2250 C   0  0  0  0  0  0  0  0  0  0  0  0
   57.0530   31.9900   44.5610 C   0  0  0  0  0  0  0  0  0  0  0  0
   57.7570   32.9250   45.5460 C   0  0  0  0  0  0  0  0  0  0  0  0
   56.9960   30.6440   45.1300 N   0  0  0  0  0  0  0  0  0  0  0  0
   56.3990   29.5270   44.4630 C   0  0  0  0  0  0  0  0  0  0  0  0
   55.1500   29.3580   44.4970 O   0  0  0  0  0  0  0  0  0  0  0  0
   57.2730   28.5360   43.7600 C   0  0  0  0  0  0  0  0  0  0  0  0
   57.8440   27.5430   44.7310 C   0  0  0  0  0  0  0  0  0  0  0  0
   58.4510   27.9780   45.8770 N   0  0  0  0  0  0  0  0  0  0  0  0
   58.9730   27.1230   46.8150 C   0  0  0  0  0  0  0  0  0  0  0  0
   59.6020   27.6850   48.0280 C   0  0  0  0  0  0  0  0  0  0  0  0
   59.8410   26.9110   48.9950 O   0  0  0  0  0  0  0  0  0  0  0  0
   59.9450   29.0810   48.1390 N   0  0  0  0  0  0  0  0  0  0  0  0
   59.1190   30.1190   47.5000 C   0  0  0  0  0  0  0  0  0  0  0  0
   58.9320   31.3520   48.4150 C   0  0  0  0  0  0  0  0  0  0  0  0
   59.9820   31.4870   49.4460 N   0  0  0  0  0  0  0  0  0  0  0  0
   59.9720   32.8500   50.0410 C   0  0  0  0  0  0  0  0  0  0  0  0
   61.3690   33.4020   50.3200 C   0  0  0  0  0  0  0  0  0  0  0  0
   61.1040   34.5500   49.3520 C   0  0  0  0  0  0  0  0  0  0  0  0
   59.6980   34.0190   49.0880 C   0  0  0  0  0  0  0  0  0  0  0  0
   61.2840   30.9710   48.9820 C   0  0  0  0  0  0  0  0  0  0  0  0
   61.1710   29.4540   48.8580 C   0  0  0  0  0  0  0  0  0  0  0  0
   58.8530   25.7270   46.6350 C   0  0  0  0  0  0  0  0  0  0  0  0
   58.2390   25.2870   45.4690 C   0  0  0  0  0  0  0  0  0  0  0  0
   57.7450   26.1620   44.5290 C   0  0  0  0  0  0  0  0  0  0  0  0
   57.1700   25.5070   43.4930 N   0  0  0  0  0  0  0  0  0  0  0  0
   57.3090   24.1980   43.7970 C   0  0  0  0  0  0  0  0  0  0  0  0
   56.8730   23.1080   43.0470 C   0  0  0  0  0  0  0  0  0  0  0  0
   57.1170   21.8180   43.5540 C   0  0  0  0  0  0  0  0  0  0  0  0
   57.7840   21.6460   44.7880 C   0  0  0  0  0  0  0  0  0  0  0  0
   58.2130   22.7600   45.5300 C   0  0  0  0  0  0  0  0  0  0  0  0
   57.9590   24.0240   45.0020 C   0  0  0  0  0  0  0  0  0  0  0  0
   58.8831   31.9116   43.4115 H   0  0  0  0  0  0  0  0  0  0  0  0
   57.4884   31.0724   42.6518 H   0  0  0  0  0  0  0  0  0  0  0  0
   57.5653   32.8670   42.6518 H   0  0  0  0  0  0  0  0  0  0  0  0
   56.0330   32.3603   44.3811 H   0  0  0  0  0  0  0  0  0  0  0  0
   57.5241   32.6156   46.5756 H   0  0  0  0  0  0  0  0  0  0  0  0
   58.8441   32.8756   45.3854 H   0  0  0  0  0  0  0  0  0  0  0  0
   57.4091   33.9561   45.3854 H   0  0  0  0  0  0  0  0  0  0  0  0
   56.6769   28.0009   43.0061 H   0  0  0  0  0  0  0  0  0  0  0  0
   58.1026   29.0763   43.2805 H   0  0  0  0  0  0  0  0  0  0  0  0
   59.6080   30.4387   46.5680 H   0  0  0  0  0  0  0  0  0  0  0  0
   58.1263   29.6894   47.3000 H   0  0  0  0  0  0  0  0  0  0  0  0
   58.9421   32.2555   47.7877 H   0  0  0  0  0  0  0  0  0  0  0  0
   57.9759   31.2205   48.9429 H   0  0  0  0  0  0  0  0  0  0  0  0
   59.2553   32.6497   50.8511 H   0  0  0  0  0  0  0  0  0  0  0  0
   61.5275   33.7193   51.3613 H   0  0  0  0  0  0  0  0  0  0  0  0
   62.2561   32.7630   50.1986 H   0  0  0  0  0  0  0  0  0  0  0  0
   61.1257   35.5447   49.8212 H   0  0  0  0  0  0  0  0  0  0  0  0
   61.7912   34.7356   48.5134 H   0  0  0  0  0  0  0  0  0  0  0  0
   58.8928   34.6913   49.4193 H   0  0  0  0  0  0  0  0  0  0  0  0
   59.3526   33.8346   48.0600 H   0  0  0  0  0  0  0  0  0  0  0  0
   61.5320   31.4084   48.0036 H   0  0  0  0  0  0  0  0  0  0  0  0
   62.0780   31.2388   49.6947 H   0  0  0  0  0  0  0  0  0  0  0  0
   62.0430   29.0708   48.3077 H   0  0  0  0  0  0  0  0  0  0  0  0
   61.1350   29.0186   49.8675 H   0  0  0  0  0  0  0  0  0  0  0  0
   59.2300   25.0179   47.3867 H   0  0  0  0  0  0  0  0  0  0  0  0
   56.7100   25.9160   42.6500 H   0  0  0  0  0  0  0  0  0  0  0  0
   56.3539   23.2512   42.0878 H   0  0  0  0  0  0  0  0  0  0  0  0
   56.7859   20.9366   42.9852 H   0  0  0  0  0  0  0  0  0  0  0  0
   57.9690   20.6316   45.1711 H   0  0  0  0  0  0  0  0  0  0  0  0
   58.7307   22.6382   46.4929 H   0  0  0  0  0  0  0  0  0  0  0  0
  1  2  1  0
  2  3  1  0
  2  4  1  0
  4  5  1  0
  5  6  2  0
  5  7  1  0
  7  8  1  0
  8  9  2  0
  9 10  1  0
 10 11  1  0
 11 12  2  0
 11 13  1  0
 13 14  1  0
 14 15  1  0
 15 16  1  0
 16 17  1  0
 17 18  1  0
 18 19  1  0
 19 20  1  0
 16 21  1  0
 21 22  1  0
 10 23  2  0
 23 24  1  0
 24 25  2  0
 25 26  1  0
 26 27  1  0
 27 28  2  0
 28 29  1  0
 29 30  2  0
 30 31  1  0
 31 32  2  0
 25  8  1  0
 32 27  1  0
 22 13  1  0
 32 24  1  0
 20 17  1  0
  1 33  1  0
  1 34  1  0
  1 35  1  0
  2 36  1  0
  3 37  1  0
  3 38  1  0
  3 39  1  0
  7 40  1  0
  7 41  1  0
 14 42  1  0
 14 43  1  0
 15 44  1  0
 15 45  1  0
 17 46  1  0
 18 47  1  0
 18 48  1  0
 19 49  1  0
 19 50  1  0
 20 51  1  0
 20 52  1  0
 21 53  1  0
 21 54  1  0
 22 55  1  0
 22 56  1  0
 23 57  1  0
 26 58  1  0
 28 59  1  0
 29 60  1  0
 30 61  1  0
 31 62  1  0
M  CHG  1   4  -1
M  END
>  <UniqueID>  (29) 
27

>  <SMILES>  (29) 
CC(C)[N-]C(=O)Cc1nc(C(=O)N2CCN(C3CCC3)CC2)cc2c1[nH]c1ccccc12

>  <Energy>  (29) 
174.34849037999254

>  <Genealogy>  (29) 
CC(C)[N-]C(=O)Cc1nc(C(=O)N2CCN(C3CCC3)CC2)cc2c1[nH]c1ccccc12 (protonated)
CC(C)[N-]C(=O)Cc1nc(C(=O)N2CCN(C3CCC3)CC2)cc2c1[nH]c1ccccc12 (3D coordinates assigned)
CC(C)[N-]C(=O)Cc1nc(C(=O)N2CCN(C3CCC3)CC2)cc2c1[nH]c1ccccc12 (nonaromatic ring conformer: 174.34849037999254 kcal/mol)

>  <smiles>  (29) 
CC(C)NC(=O)Cc1nc(C(=O)N2CCN(C3CCC3)CC2)cc2c1[nH]c1ccccc12

>  <score_type>  (29) 
oracle

>  <origin>  (29) 
adg

>  <m_score__min__energy>  (29) 
-11.119999999999999

>  <m_primary>  (29) 
energy

$$$$
29:0
     RDKit          3D

 55 58  0  0  0  0  0  0  0  0999 V2000
   55.5760   29.9030   43.4460 O   0  0  0  0  0  0  0  0  0  0  0  0
   56.6100   29.9130   44.1650 C   0  0  0  0  0  0  0  0  0  0  0  0
   57.6980   28.9050   43.9080 C   0  0  0  0  0  0  0  0  0  0  0  0
   57.7880   27.8830   45.0680 C   0  0  0  0  0  0  0  0  0  0  0  0
   59.1650   27.5780   45.5180 N   0  0  2  0  0  0  0  0  0  0  0  0
   59.2070   27.0890   46.8800 C   0  0  0  0  0  0  0  0  0  0  0  0
   58.6750   25.9950   47.2100 O   0  0  0  0  0  0  0  0  0  0  0  0
   59.9050   27.9460   47.8470 C   0  0  0  0  0  0  0  0  0  0  0  0
   60.0030   27.7630   49.2300 C   0  0  0  0  0  0  0  0  0  0  0  0
   60.7060   28.7140   49.9880 C   0  0  0  0  0  0  0  0  0  0  0  0
   61.3000   29.8260   49.3590 C   0  0  0  0  0  0  0  0  0  0  0  0
   61.1930   29.9920   47.9690 C   0  0  0  0  0  0  0  0  0  0  0  0
   60.4880   29.0340   47.2420 C   0  0  0  0  0  0  0  0  0  0  0  0
   60.2070   28.9830   45.5370 S   0  0  0  0  0  0  0  0  0  0  0  0
   59.5370   30.2280   45.0230 O   0  0  0  0  0  0  0  0  0  0  0  0
   61.4800   28.7120   44.7850 O   0  0  0  0  0  0  0  0  0  0  0  0
   56.6940   30.8500   45.2460 N   0  0  0  0  0  0  0  0  0  0  0  0
   57.5860   31.9710   45.2910 C   0  0  0  0  0  0  0  0  0  0  0  0
   57.8160   32.7630   44.1530 C   0  0  0  0  0  0  0  0  0  0  0  0
   58.6990   33.8430   44.2180 C   0  0  0  0  0  0  0  0  0  0  0  0
   59.3610   34.1360   45.4140 C   0  0  0  0  0  0  0  0  0  0  0  0
   59.1440   33.3470   46.5510 C   0  0  0  0  0  0  0  0  0  0  0  0
   60.0040   33.6870   48.0510 S   0  0  0  0  0  0  0  0  0  0  0  0
   60.0060   32.4420   48.8920 O   0  0  0  0  0  0  0  0  0  0  0  0
   59.2580   34.7490   48.8120 O   0  0  0  0  0  0  0  0  0  0  0  0
   61.6630   34.1950   47.8000 N   0  0  0  0  0  0  0  0  0  0  0  0
   62.4470   34.3360   49.0440 C   0  0  0  0  0  0  0  0  0  0  0  0
   63.1590   33.0420   49.4740 C   0  0  0  0  0  0  0  0  0  0  0  0
   63.9540   32.4420   48.3200 C   0  0  0  0  0  0  0  0  0  0  0  0
   63.0360   32.2010   47.1260 C   0  0  0  0  0  0  0  0  0  0  0  0
   62.3580   33.5060   46.6950 C   0  0  0  0  0  0  0  0  0  0  0  0
   58.2240   32.2890   46.4930 C   0  0  0  0  0  0  0  0  0  0  0  0
   57.4796   28.3697   42.9722 H   0  0  0  0  0  0  0  0  0  0  0  0
   58.6585   29.4357   43.8312 H   0  0  0  0  0  0  0  0  0  0  0  0
   57.2291   28.2871   45.9249 H   0  0  0  0  0  0  0  0  0  0  0  0
   57.3703   26.9403   44.6848 H   0  0  0  0  0  0  0  0  0  0  0  0
   59.5860   26.8580   44.8880 H   0  0  0  0  0  0  0  0  0  0  0  0
   59.5387   26.8915   49.7147 H   0  0  0  0  0  0  0  0  0  0  0  0
   60.7931   28.5900   51.0775 H   0  0  0  0  0  0  0  0  0  0  0  0
   61.8494   30.5665   49.9589 H   0  0  0  0  0  0  0  0  0  0  0  0
   61.6535   30.8555   47.4667 H   0  0  0  0  0  0  0  0  0  0  0  0
   57.2997   32.5318   43.2096 H   0  0  0  0  0  0  0  0  0  0  0  0
   58.8739   34.4639   43.3270 H   0  0  0  0  0  0  0  0  0  0  0  0
   60.0543   34.9886   45.4624 H   0  0  0  0  0  0  0  0  0  0  0  0
   63.2070   35.1161   48.8894 H   0  0  0  0  0  0  0  0  0  0  0  0
   61.7380   34.5949   49.8442 H   0  0  0  0  0  0  0  0  0  0  0  0
   63.8453   33.2684   50.3033 H   0  0  0  0  0  0  0  0  0  0  0  0
   62.3977   32.3132   49.7892 H   0  0  0  0  0  0  0  0  0  0  0  0
   64.7555   33.1370   48.0292 H   0  0  0  0  0  0  0  0  0  0  0  0
   64.3899   31.4842   48.6404 H   0  0  0  0  0  0  0  0  0  0  0  0
   63.6293   31.8077   46.2874 H   0  0  0  0  0  0  0  0  0  0  0  0
   62.2601   31.4770   47.4156 H   0  0  0  0  0  0  0  0  0  0  0  0
   63.1261   34.1815   46.2904 H   0  0  0  0  0  0  0  0  0  0  0  0
   61.5979   33.2458   45.9437 H   0  0  0  0  0  0  0  0  0  0  0  0
   58.0036   31.7062   47.3995 H   0  0  0  0  0  0  0  0  0  0  0  0
  1  2  2  0
  2  3  1  0
  3  4  1  0
  4  5  1  0
  5  6  1  0
  6  7  2  0
  6  8  1  0
  8  9  2  0
  9 10  1  0
 10 11  2  0
 11 12  1  0
 12 13  2  0
 13 14  1  0
 14 15  2  0
 14 16  2  0
  2 17  1  0
 17 18  1  0
 18 19  2  0
 19 20  1  0
 20 21  2  0
 21 22  1  0
 22 23  1  0
 23 24  2  0
 23 25  2  0
 23 26  1  0
 26 27  1  0
 27 28  1  0
 28 29  1  0
 29 30  1  0
 30 31  1  0
 22 32  2  0
 14  5  1  0
 32 18  1  0
 13  8  1  0
 31 26  1  0
  3 33  1  0
  3 34  1  0
  4 35  1  0
  4 36  1  0
  5 37  1  6
  9 38  1  0
 10 39  1  0
 11 40  1  0
 12 41  1  0
 19 42  1  0
 20 43  1  0
 21 44  1  0
 27 45  1  0
 27 46  1  0
 28 47  1  0
 28 48  1  0
 29 49  1  0
 29 50  1  0
 30 51  1  0
 30 52  1  0
 31 53  1  0
 31 54  1  0
 32 55  1  0
M  CHG  2   5   1  17  -1
M  END
>  <UniqueID>  (30) 
28

>  <SMILES>  (30) 
O=C(CC[N@@H+]1C(=O)c2ccccc2S1(=O)=O)[N-]c1cccc(S(=O)(=O)N2CCCCC2)c1

>  <Energy>  (30) 
78.92982022461513

>  <Genealogy>  (30) 
O=C(CC[NH+]1C(=O)c2ccccc2S1(=O)=O)[N-]c1cccc(S(=O)(=O)N2CCCCC2)c1 (protonated)
O=C(CC[N@@H+]1C(=O)c2ccccc2S1(=O)=O)[N-]c1cccc(S(=O)(=O)N2CCCCC2)c1 (chirality)
O=C(CC[N@@H+]1C(=O)c2ccccc2S1(=O)=O)[N-]c1cccc(S(=O)(=O)N2CCCCC2)c1 (3D coordinates assigned)
O=C(CC[N@@H+]1C(=O)c2ccccc2S1(=O)=O)[N-]c1cccc(S(=O)(=O)N2CCCCC2)c1 (nonaromatic ring conformer: 78.92982022461513 kcal/mol)

>  <smiles>  (30) 
O=C(CCN1C(=O)c2ccccc2S1(=O)=O)Nc1cccc(S(=O)(=O)N2CCCCC2)c1

>  <score_type>  (30) 
oracle

>  <origin>  (30) 
adg

>  <m_score__min__energy>  (30) 
-10.07

>  <m_primary>  (30) 
energy

$$$$
30:0
     RDKit          3D

 26 27  0  0  0  0  0  0  0  0999 V2000
   59.2160   34.9480   47.1210 C   0  0  0  0  0  0  0  0  0  0  0  0
   58.7300   33.8150   46.2650 C   0  0  0  0  0  0  0  0  0  0  0  0
   58.5340   34.0010   44.8890 C   0  0  0  0  0  0  0  0  0  0  0  0
   58.1190   32.9360   44.0850 C   0  0  0  0  0  0  0  0  0  0  0  0
   57.9000   31.6670   44.6460 C   0  0  0  0  0  0  0  0  0  0  0  0
   57.4840   30.5090   43.7790 C   0  0  0  0  0  0  0  0  0  0  0  0
   57.5250   29.2620   44.5450 N   0  0  0  0  0  0  0  0  0  0  0  0
   56.4760   28.5950   45.0650 C   0  0  0  0  0  0  0  0  0  0  0  0
   55.1460   28.9670   44.9080 O   0  0  0  0  0  0  0  0  0  0  0  0
   56.9230   27.5020   45.7710 C   0  0  0  0  0  0  0  0  0  0  0  0
   58.2680   27.4840   45.6990 N   0  0  0  0  0  0  0  0  0  0  0  0
   58.6060   28.5600   44.9580 C   0  0  0  0  0  0  0  0  0  0  0  0
   60.1600   28.9500   44.6090 S   0  0  0  0  0  0  0  0  0  0  0  0
   58.1170   31.4780   46.0190 C   0  0  0  0  0  0  0  0  0  0  0  0
   58.5330   32.5420   46.8230 C   0  0  0  0  0  0  0  0  0  0  0  0
   59.1016   34.6812   48.1820 H   0  0  0  0  0  0  0  0  0  0  0  0
   60.2767   35.1425   46.9042 H   0  0  0  0  0  0  0  0  0  0  0  0
   58.6259   35.8507   46.9042 H   0  0  0  0  0  0  0  0  0  0  0  0
   58.7078   34.9901   44.4402 H   0  0  0  0  0  0  0  0  0  0  0  0
   57.9630   33.0922   43.0074 H   0  0  0  0  0  0  0  0  0  0  0  0
   56.4600   30.6778   43.4145 H   0  0  0  0  0  0  0  0  0  0  0  0
   58.1777   30.4304   42.9289 H   0  0  0  0  0  0  0  0  0  0  0  0
   56.2934   26.7719   46.3006 H   0  0  0  0  0  0  0  0  0  0  0  0
   58.9090   26.7830   46.1340 H   0  0  0  0  0  0  0  0  0  0  0  0
   57.9585   30.4853   46.4655 H   0  0  0  0  0  0  0  0  0  0  0  0
   58.7068   32.3817   47.8973 H   0  0  0  0  0  0  0  0  0  0  0  0
  1  2  1  0
  2  3  2  0
  3  4  1  0
  4  5  2  0
  5  6  1  0
  6  7  1  0
  7  8  1  0
  8  9  1  0
  8 10  2  0
 10 11  1  0
 11 12  1  0
 12 13  2  0
  5 14  1  0
 14 15  2  0
 15  2  1  0
 12  7  1  0
  1 16  1  0
  1 17  1  0
  1 18  1  0
  3 19  1  0
  4 20  1  0
  6 21  1  0
  6 22  1  0
 10 23  1  0
 11 24  1  0
 14 25  1  0
 15 26  1  0
M  CHG  1   9  -1
M  END
>  <UniqueID>  (31) 
29

>  <SMILES>  (31) 
Cc1ccc(Cn2c([O-])c[nH]c2=S)cc1

>  <Energy>  (31) 
57.2872615006142

>  <Genealogy>  (31) 
Cc1ccc(Cn2c([O-])c[nH]c2=S)cc1 (protonated)
Cc1ccc(Cn2c([O-])c[nH]c2=S)cc1 (3D coordinates assigned)
Cc1ccc(Cn2c([O-])c[nH]c2=S)cc1 (optimized conformer: 57.2872615006142 kcal/mol)

>  <smiles>  (31) 
Cc1ccc(Cn2c(O)c[nH]c2=S)cc1

>  <score_type>  (31) 
oracle

>  <origin>  (31) 
adg

>  <m_score__min__energy>  (31) 
-9.4199999999999999

>  <m_primary>  (31) 
energy

$$$$
31:0
     RDKit          3D

 43 46  0  0  0  0  0  0  0  0999 V2000
   59.3280   25.8750   46.4300 O   0  0  0  0  0  0  0  0  0  0  0  0
   58.9900   26.9690   46.9570 C   0  0  0  0  0  0  0  0  0  0  0  0
   59.5800   27.3400   48.2130 N   0  0  0  0  0  0  0  0  0  0  0  0
   59.6110   28.5420   48.7100 C   0  0  0  0  0  0  0  0  0  0  0  0
   58.5170   29.2310   49.1050 N   0  0  0  0  0  0  0  0  0  0  0  0
   58.8440   30.4670   49.5630 C   0  0  0  0  0  0  0  0  0  0  0  0
   60.2050   30.7520   49.5450 C   0  0  0  0  0  0  0  0  0  0  0  0
   60.8220   32.0760   49.8620 C   0  0  0  0  0  0  0  0  0  0  0  0
   61.5490   32.6010   48.6550 C   0  0  0  0  0  0  0  0  0  0  0  0
   60.8580   33.3220   47.6670 C   0  0  0  0  0  0  0  0  0  0  0  0
   61.5450   33.8570   46.5730 C   0  0  0  0  0  0  0  0  0  0  0  0
   62.9280   33.6860   46.4650 C   0  0  0  0  0  0  0  0  0  0  0  0
   63.6260   32.9830   47.4500 C   0  0  0  0  0  0  0  0  0  0  0  0
   62.9420   32.4440   48.5440 C   0  0  0  0  0  0  0  0  0  0  0  0
   61.0280   29.4210   48.9190 S   0  0  0  0  0  0  0  0  0  0  0  0
   58.0400   27.8560   46.2360 C   0  0  0  0  0  0  0  0  0  0  0  0
   56.7690   27.3940   45.8690 C   0  0  0  0  0  0  0  0  0  0  0  0
   56.3750   26.0920   46.1530 O   0  0  0  0  0  0  0  0  0  0  0  0
   55.9020   28.2270   45.2460 N   0  0  0  0  0  0  0  0  0  0  0  0
   56.2280   29.5130   44.9640 C   0  0  0  0  0  0  0  0  0  0  0  0
   55.3820   30.2470   44.3850 O   0  0  0  0  0  0  0  0  0  0  0  0
   57.4660   29.9980   45.2930 N   0  0  0  0  0  0  0  0  0  0  0  0
   57.8000   31.3730   45.0150 C   0  0  0  0  0  0  0  0  0  0  0  0
   58.0970   31.7750   43.7030 C   0  0  0  0  0  0  0  0  0  0  0  0
   58.4020   33.1130   43.4280 C   0  0  0  0  0  0  0  0  0  0  0  0
   58.4120   34.0540   44.4620 C   0  0  0  0  0  0  0  0  0  0  0  0
   58.1180   33.6600   45.7710 C   0  0  0  0  0  0  0  0  0  0  0  0
   57.8110   32.3250   46.0480 C   0  0  0  0  0  0  0  0  0  0  0  0
   58.3800   29.1820   45.9070 C   0  0  0  0  0  0  0  0  0  0  0  0
   59.5340   29.6200   46.1820 O   0  0  0  0  0  0  0  0  0  0  0  0
   58.0918   31.1858   49.9200 H   0  0  0  0  0  0  0  0  0  0  0  0
   60.0336   32.7865   50.1511 H   0  0  0  0  0  0  0  0  0  0  0  0
   61.5345   31.9555   50.6913 H   0  0  0  0  0  0  0  0  0  0  0  0
   59.7710   33.4664   47.7545 H   0  0  0  0  0  0  0  0  0  0  0  0
   60.9971   34.4124   45.7975 H   0  0  0  0  0  0  0  0  0  0  0  0
   63.4676   34.1056   45.6032 H   0  0  0  0  0  0  0  0  0  0  0  0
   64.7150   32.8533   47.3649 H   0  0  0  0  0  0  0  0  0  0  0  0
   63.4954   31.8954   49.3204 H   0  0  0  0  0  0  0  0  0  0  0  0
   58.0900   31.0358   42.8884 H   0  0  0  0  0  0  0  0  0  0  0  0
   58.6338   33.4241   42.3987 H   0  0  0  0  0  0  0  0  0  0  0  0
   58.6514   35.1056   44.2455 H   0  0  0  0  0  0  0  0  0  0  0  0
   58.1284   34.4015   46.5835 H   0  0  0  0  0  0  0  0  0  0  0  0
   57.5772   32.0187   47.0783 H   0  0  0  0  0  0  0  0  0  0  0  0
  1  2  2  0
  2  3  1  0
  3  4  2  3
  4  5  1  0
  5  6  1  0
  6  7  2  0
  7  8  1  0
  8  9  1  0
  9 10  2  0
 10 11  1  0
 11 12  2  0
 12 13  1  0
 13 14  2  0
  7 15  1  0
  2 16  1  0
 16 17  2  0
 17 18  1  0
 17 19  1  0
 19 20  1  0
 20 21  2  0
 20 22  1  0
 22 23  1  0
 23 24  2  0
 24 25  1  0
 25 26  2  0
 26 27  1  0
 27 28  2  0
 22 29  1  0
 29 30  2  0
 15  4  1  0
 29 16  1  0
 14  9  1  0
 28 23  1  0
  6 31  1  0
  8 32  1  0
  8 33  1  0
 10 34  1  0
 11 35  1  0
 12 36  1  0
 13 37  1  0
 14 38  1  0
 24 39  1  0
 25 40  1  0
 26 41  1  0
 27 42  1  0
 28 43  1  0
M  CHG  3   5  -1  18  -1  19  -1
M  END
>  <UniqueID>  (32) 
30

>  <SMILES>  (32) 
O=C(N=c1[n-]cc(Cc2ccccc2)s1)c1c([O-])[n-]c(=O)n(-c2ccccc2)c1=O

>  <Energy>  (32) 
96.23721531741342

>  <Genealogy>  (32) 
O=C(N=c1[n-]cc(Cc2ccccc2)s1)c1c([O-])[n-]c(=O)n(-c2ccccc2)c1=O (protonated)
O=C(N=c1[n-]cc(Cc2ccccc2)s1)c1c([O-])[n-]c(=O)n(-c2ccccc2)c1=O (3D coordinates assigned)
O=C(N=c1[n-]cc(Cc2ccccc2)s1)c1c([O-])[n-]c(=O)n(-c2ccccc2)c1=O (optimized conformer: 96.23721531741342 kcal/mol)

>  <smiles>  (32) 
O=C(N=c1[nH]cc(Cc2ccccc2)s1)c1c(O)[nH]c(=O)n(-c2ccccc2)c1=O

>  <score_type>  (32) 
oracle

>  <origin>  (32) 
adg

>  <m_score__min__energy>  (32) 
-14.949999999999999

>  <m_primary>  (32) 
energy

$$$$
32:0
     RDKit          3D

 51 54  0  0  0  0  0  0  0  0999 V2000
   57.8600   29.7980   43.9100 C   0  0  0  0  0  0  0  0  0  0  0  0
   58.4060   29.3200   45.0330 C   0  0  0  0  0  0  0  0  0  0  0  0
   59.0780   30.1160   45.8910 N   0  0  0  0  0  0  0  0  0  0  0  0
   59.3380   29.3850   46.9890 C   0  0  0  0  0  0  0  0  0  0  0  0
   59.9960   29.9330   48.2200 C   0  0  0  0  0  0  0  0  0  0  0  0
   60.7990   31.1710   47.9100 C   0  0  0  0  0  0  0  0  0  0  0  0
   60.4720   31.8840   46.9210 O   0  0  0  0  0  0  0  0  0  0  0  0
   61.9050   31.5800   48.7420 N   0  0  0  0  0  0  0  0  0  0  0  0
   62.0360   31.0970   50.1250 C   0  0  0  0  0  0  0  0  0  0  0  0
   62.6210   32.1910   51.0270 C   0  0  0  0  0  0  0  0  0  0  0  0
   63.8090   32.8150   50.4280 N   0  0  0  0  0  0  0  0  0  0  0  0
   64.5310   33.8060   51.1860 C   0  0  0  0  0  0  0  0  0  0  0  0
   63.8950   34.5880   51.9430 O   0  0  0  0  0  0  0  0  0  0  0  0
   66.0000   33.9390   51.1030 C   0  0  0  0  0  0  0  0  0  0  0  0
   66.7980   32.9260   50.5470 C   0  0  0  0  0  0  0  0  0  0  0  0
   68.1840   33.0880   50.5080 C   0  0  0  0  0  0  0  0  0  0  0  0
   68.7640   34.2450   51.0300 C   0  0  0  0  0  0  0  0  0  0  0  0
   67.9440   35.2240   51.5950 C   0  0  0  0  0  0  0  0  0  0  0  0
   66.5960   35.0490   51.6220 N   0  0  0  0  0  0  0  0  0  0  0  0
   64.1920   32.4990   49.0460 C   0  0  0  0  0  0  0  0  0  0  0  0
   62.9470   32.4360   48.1560 C   0  0  0  0  0  0  0  0  0  0  0  0
   58.8340   28.1070   46.8520 C   0  0  0  0  0  0  0  0  0  0  0  0
   58.2730   28.0370   45.5860 C   0  0  0  0  0  0  0  0  0  0  0  0
   57.7380   26.9080   45.0840 C   0  0  0  0  0  0  0  0  0  0  0  0
   57.2390   25.7730   45.8770 C   0  0  0  0  0  0  0  0  0  0  0  0
   58.0270   24.8630   46.4810 N   0  0  0  0  0  0  0  0  0  0  0  0
   57.1540   24.1180   47.1930 C   0  0  0  0  0  0  0  0  0  0  0  0
   57.5140   23.1380   47.8950 O   0  0  0  0  0  0  0  0  0  0  0  0
   55.8670   24.5120   47.1020 N   0  0  0  0  0  0  0  0  0  0  0  0
   55.9370   25.5690   46.2770 C   0  0  0  0  0  0  0  0  0  0  0  0
   54.8300   26.3260   45.9020 O   0  0  0  0  0  0  0  0  0  0  0  0
   57.3184   29.1229   43.2311 H   0  0  0  0  0  0  0  0  0  0  0  0
   57.9524   30.8664   43.6650 H   0  0  0  0  0  0  0  0  0  0  0  0
   59.2990   31.1300   45.7620 H   0  0  0  0  0  0  0  0  0  0  0  0
   59.2205   30.1850   48.9583 H   0  0  0  0  0  0  0  0  0  0  0  0
   60.6791   29.1678   48.6171 H   0  0  0  0  0  0  0  0  0  0  0  0
   61.0437   30.8095   50.5028 H   0  0  0  0  0  0  0  0  0  0  0  0
   62.7133   30.2303   50.1348 H   0  0  0  0  0  0  0  0  0  0  0  0
   61.8563   32.9648   51.1899 H   0  0  0  0  0  0  0  0  0  0  0  0
   62.9217   31.7259   51.9774 H   0  0  0  0  0  0  0  0  0  0  0  0
   66.3348   32.0126   50.1456 H   0  0  0  0  0  0  0  0  0  0  0  0
   68.8179   32.3049   50.0665 H   0  0  0  0  0  0  0  0  0  0  0  0
   69.8546   34.3842   50.9968 H   0  0  0  0  0  0  0  0  0  0  0  0
   68.3887   36.1368   52.0182 H   0  0  0  0  0  0  0  0  0  0  0  0
   64.8697   33.2791   48.6689 H   0  0  0  0  0  0  0  0  0  0  0  0
   64.6979   31.5224   49.0270 H   0  0  0  0  0  0  0  0  0  0  0  0
   62.5455   33.4525   48.0315 H   0  0  0  0  0  0  0  0  0  0  0  0
   63.2390   32.0072   47.1860 H   0  0  0  0  0  0  0  0  0  0  0  0
   58.8704   27.3019   47.6007 H   0  0  0  0  0  0  0  0  0  0  0  0
   57.6680   26.8271   43.9892 H   0  0  0  0  0  0  0  0  0  0  0  0
   53.9860   26.3400   46.4620 H   0  0  0  0  0  0  0  0  0  0  0  0
  1  2  2  0
  2  3  1  0
  3  4  1  0
  4  5  1  0
  5  6  1  0
  6  7  2  0
  6  8  1  0
  8  9  1  0
  9 10  1  0
 10 11  1  0
 11 12  1  0
 12 13  2  0
 12 14  1  0
 14 15  2  0
 15 16  1  0
 16 17  2  0
 17 18  1  0
 18 19  2  0
 11 20  1  0
 20 21  1  0
  4 22  2  0
 22 23  1  0
 23 24  2  3
 24 25  1  0
 25 26  1  0
 26 27  1  0
 27 28  2  0
 27 29  1  0
 29 30  1  0
 30 31  1  0
 23  2  1  0
 30 25  2  0
 21  8  1  0
 19 14  1  0
  1 32  1  0
  1 33  1  0
  3 34  1  0
  5 35  1  0
  5 36  1  0
  9 37  1  0
  9 38  1  0
 10 39  1  0
 10 40  1  0
 15 41  1  0
 16 42  1  0
 17 43  1  0
 18 44  1  0
 20 45  1  0
 20 46  1  0
 21 47  1  0
 21 48  1  0
 22 49  1  0
 24 50  1  0
 31 51  1  0
M  CHG  2  26  -1  29  -1
M  END
>  <UniqueID>  (33) 
31

>  <SMILES>  (33) 
C=c1[nH]c(CC(=O)N2CCN(C(=O)c3ccccn3)CC2)cc1=Cc1[n-]c(=O)[n-]c1O

>  <Energy>  (33) 
125.00340183194196

>  <Genealogy>  (33) 
C=c1[nH]c(CC(=O)N2CCN(C(=O)c3ccccn3)CC2)cc1=Cc1[n-]c(=O)[n-]c1O (protonated)
C=c1[nH]c(CC(=O)N2CCN(C(=O)c3ccccn3)CC2)cc1=Cc1[n-]c(=O)[n-]c1O (3D coordinates assigned)
C=c1[nH]c(CC(=O)N2CCN(C(=O)c3ccccn3)CC2)cc1=Cc1[n-]c(=O)[n-]c1O (nonaromatic ring conformer: 125.00340183194196 kcal/mol)

>  <smiles>  (33) 
C=c1[nH]c(CC(=O)N2CCN(C(=O)c3ccccn3)CC2)cc1=Cc1[nH]c(=O)[nH]c1O

>  <score_type>  (33) 
oracle

>  <origin>  (33) 
adg

>  <m_score__min__energy>  (33) 
-13.449999999999999

>  <m_primary>  (33) 
energy

$$$$
33:0
     RDKit          3D

 30 31  0  0  0  0  0  0  0  0999 V2000
   55.1480   29.3350   44.8890 N   0  0  0  0  0  0  0  0  0  0  0  0
   56.6050   30.0600   44.3120 S   0  0  0  0  0  0  0  0  0  0  0  0
   56.7040   31.4690   44.8290 O   0  0  0  0  0  0  0  0  0  0  0  0
   56.5890   30.0970   42.8100 O   0  0  0  0  0  0  0  0  0  0  0  0
   57.9860   29.1210   44.8710 C   0  0  0  0  0  0  0  0  0  0  0  0
   59.2820   29.4600   44.4600 C   0  0  0  0  0  0  0  0  0  0  0  0
   60.3770   28.7170   44.9090 C   0  0  0  0  0  0  0  0  0  0  0  0
   60.1850   27.6350   45.7730 C   0  0  0  0  0  0  0  0  0  0  0  0
   58.8920   27.2940   46.2010 C   0  0  0  0  0  0  0  0  0  0  0  0
   58.6730   26.1210   47.1170 C   0  0  0  0  0  0  0  0  0  0  0  0
   57.8220   25.1250   46.4680 N   0  0  0  0  0  0  0  0  0  0  0  0
   56.4140   25.3310   46.2710 C   0  0  0  0  0  0  0  0  0  0  0  0
   55.8910   26.4350   46.5860 O   0  0  0  0  0  0  0  0  0  0  0  0
   55.5620   24.2700   45.7030 C   0  0  0  0  0  0  0  0  0  0  0  0
   55.9220   23.3950   44.6920 C   0  0  0  0  0  0  0  0  0  0  0  0
   54.9080   22.5530   44.4030 N   0  0  0  0  0  0  0  0  0  0  0  0
   53.9120   22.9060   45.2360 C   0  0  0  0  0  0  0  0  0  0  0  0
   52.6770   22.2730   45.2540 O   0  0  0  0  0  0  0  0  0  0  0  0
   54.2640   23.9560   46.0550 C   0  0  0  0  0  0  0  0  0  0  0  0
   57.7950   28.0420   45.7450 C   0  0  0  0  0  0  0  0  0  0  0  0
   55.4240   28.5930   45.5710 H   0  0  0  0  0  0  0  0  0  0  0  0
   59.4377   30.3126   43.7826 H   0  0  0  0  0  0  0  0  0  0  0  0
   61.3926   28.9842   44.5817 H   0  0  0  0  0  0  0  0  0  0  0  0
   61.0494   27.0490   46.1186 H   0  0  0  0  0  0  0  0  0  0  0  0
   59.6437   25.6652   47.3620 H   0  0  0  0  0  0  0  0  0  0  0  0
   58.1794   26.4706   48.0358 H   0  0  0  0  0  0  0  0  0  0  0  0
   58.2720   24.2450   46.1360 H   0  0  0  0  0  0  0  0  0  0  0  0
   56.9019   23.3873   44.1922 H   0  0  0  0  0  0  0  0  0  0  0  0
   53.6444   24.4403   46.8241 H   0  0  0  0  0  0  0  0  0  0  0  0
   56.7792   27.7797   46.0757 H   0  0  0  0  0  0  0  0  0  0  0  0
  1  2  1  0
  2  3  2  0
  2  4  2  0
  2  5  1  0
  5  6  2  0
  6  7  1  0
  7  8  2  0
  8  9  1  0
  9 10  1  0
 10 11  1  0
 11 12  1  0
 12 13  2  0
 12 14  1  0
 14 15  2  0
 15 16  1  0
 16 17  1  0
 17 18  1  0
 17 19  2  0
  9 20  2  0
 20  5  1  0
 19 14  1  0
  1 21  1  0
  6 22  1  0
  7 23  1  0
  8 24  1  0
 10 25  1  0
 10 26  1  0
 11 27  1  0
 15 28  1  0
 19 29  1  0
 20 30  1  0
M  CHG  3   1  -1  16  -1  18  -1
M  END
>  <UniqueID>  (34) 
32

>  <SMILES>  (34) 
[NH-]S(=O)(=O)c1cccc(CNC(=O)c2c[n-]c([O-])c2)c1

>  <Energy>  (34) 
52.97337439183274

>  <Genealogy>  (34) 
[NH-]S(=O)(=O)c1cccc(CNC(=O)c2c[n-]c([O-])c2)c1 (protonated)
[NH-]S(=O)(=O)c1cccc(CNC(=O)c2c[n-]c([O-])c2)c1 (3D coordinates assigned)
[NH-]S(=O)(=O)c1cccc(CNC(=O)c2c[n-]c([O-])c2)c1 (optimized conformer: 52.97337439183274 kcal/mol)

>  <smiles>  (34) 
NS(=O)(=O)c1cccc(CNC(=O)c2c[nH]c(O)c2)c1

>  <score_type>  (34) 
oracle

>  <origin>  (34) 
adg

>  <m_score__min__energy>  (34) 
-13.539999999999999

>  <m_primary>  (34) 
energy

$$$$
34:0
     RDKit          3D

 45 46  0  0  0  0  0  0  0  0999 V2000
   58.6810   31.3890   47.6370 C   0  0  0  0  0  0  0  0  0  0  0  0
   58.8600   32.6430   46.8210 C   0  0  0  0  0  0  0  0  0  0  0  0
   59.2790   33.8200   47.4650 C   0  0  0  0  0  0  0  0  0  0  0  0
   59.4510   35.0030   46.7430 C   0  0  0  0  0  0  0  0  0  0  0  0
   59.2010   35.0270   45.3710 C   0  0  0  0  0  0  0  0  0  0  0  0
   59.3690   36.1770   44.6730 F   0  0  0  0  0  0  0  0  0  0  0  0
   58.7770   33.8680   44.7170 C   0  0  0  0  0  0  0  0  0  0  0  0
   58.5980   32.6700   45.4270 C   0  0  0  0  0  0  0  0  0  0  0  0
   58.0520   31.2290   44.5540 S   0  0  0  0  0  0  0  0  0  0  0  0
   58.2240   31.4470   43.0760 O   0  0  0  0  0  0  0  0  0  0  0  0
   56.6070   30.9680   44.8730 O   0  0  0  0  0  0  0  0  0  0  0  0
   58.9900   29.8500   45.0260 N   0  0  0  0  0  0  0  0  0  0  0  0
   58.4610   28.5230   45.0640 C   0  0  0  0  0  0  0  0  0  0  0  0
   57.1220   28.2070   45.1050 C   0  0  0  0  0  0  0  0  0  0  0  0
   56.9820   26.8700   45.1550 N   0  0  0  0  0  0  0  0  0  0  0  0
   58.2240   26.3410   45.1380 C   0  0  0  0  0  0  0  0  0  0  0  0
   58.5050   24.8690   45.2470 C   0  0  2  0  0  0  0  0  0  0  0  0
   57.7770   24.1160   44.1310 C   0  0  0  0  0  0  0  0  0  0  0  0
   58.0680   24.3890   46.5560 N   0  0  0  0  0  0  0  0  0  0  0  0
   56.8760   24.8290   47.2130 C   0  0  0  0  0  0  0  0  0  0  0  0
   56.6900   26.0520   47.4530 O   0  0  0  0  0  0  0  0  0  0  0  0
   55.8620   23.8190   47.6580 C   0  0  0  0  0  0  0  0  0  0  0  0
   54.8040   23.5720   46.5750 C   0  0  0  0  0  0  0  0  0  0  0  0
   54.7540   24.6970   45.5860 C   0  0  0  0  0  0  0  0  0  0  0  0
   54.2570   25.9730   45.9810 N   0  0  0  0  0  0  0  0  0  0  0  0
   55.1170   24.5060   44.3940 O   0  0  0  0  0  0  0  0  0  0  0  0
   59.1780   27.3430   45.0910 C   0  0  0  0  0  0  0  0  0  0  0  0
   58.7168   31.6399   48.7074 H   0  0  0  0  0  0  0  0  0  0  0  0
   57.7086   30.9328   47.3996 H   0  0  0  0  0  0  0  0  0  0  0  0
   59.4869   30.6789   47.3996 H   0  0  0  0  0  0  0  0  0  0  0  0
   59.4732   33.8092   48.5477 H   0  0  0  0  0  0  0  0  0  0  0  0
   59.7840   35.9168   47.2569 H   0  0  0  0  0  0  0  0  0  0  0  0
   58.5814   33.8940   43.6349 H   0  0  0  0  0  0  0  0  0  0  0  0
   56.2961   28.9336   45.0980 H   0  0  0  0  0  0  0  0  0  0  0  0
   56.0810   26.3450   45.2100 H   0  0  0  0  0  0  0  0  0  0  0  0
   59.5852   24.6902   45.1412 H   0  0  0  0  0  0  0  0  0  0  0  0
   57.0770   23.3919   44.5734 H   0  0  0  0  0  0  0  0  0  0  0  0
   57.2197   24.8317   43.5088 H   0  0  0  0  0  0  0  0  0  0  0  0
   58.5111   23.5832   43.5088 H   0  0  0  0  0  0  0  0  0  0  0  0
   56.3746   22.8714   47.8801 H   0  0  0  0  0  0  0  0  0  0  0  0
   55.3558   24.2087   48.5535 H   0  0  0  0  0  0  0  0  0  0  0  0
   55.0478   22.6402   46.0437 H   0  0  0  0  0  0  0  0  0  0  0  0
   53.8213   23.4998   47.0640 H   0  0  0  0  0  0  0  0  0  0  0  0
   54.8930   26.6920   46.3910 H   0  0  0  0  0  0  0  0  0  0  0  0
   60.2716   27.2248   45.0780 H   0  0  0  0  0  0  0  0  0  0  0  0
  1  2  1  0
  2  3  2  0
  3  4  1  0
  4  5  2  0
  5  6  1  0
  5  7  1  0
  7  8  2  0
  8  9  1  0
  9 10  2  0
  9 11  2  0
  9 12  1  0
 12 13  1  0
 13 14  2  0
 14 15  1  0
 15 16  1  0
 16 17  1  0
 17 18  1  0
 17 19  1  0
 19 20  1  0
 20 21  2  0
 20 22  1  0
 22 23  1  0
 23 24  1  0
 24 25  1  0
 24 26  2  0
 16 27  2  0
  8  2  1  0
 27 13  1  0
  1 28  1  0
  1 29  1  0
  1 30  1  0
  3 31  1  0
  4 32  1  0
  7 33  1  0
 14 34  1  0
 15 35  1  0
 17 36  1  6
 18 37  1  0
 18 38  1  0
 18 39  1  0
 22 40  1  0
 22 41  1  0
 23 42  1  0
 23 43  1  0
 25 44  1  0
 27 45  1  0
M  CHG  3  12  -1  19  -1  25  -1
M  END
>  <UniqueID>  (35) 
33

>  <SMILES>  (35) 
Cc1ccc(F)cc1S(=O)(=O)[N-]c1c[nH]c([C@H](C)[N-]C(=O)CCC([NH-])=O)c1

>  <Energy>  (35) 
64.90196382920949

>  <Genealogy>  (35) 
Cc1ccc(F)cc1S(=O)(=O)[N-]c1c[nH]c(C(C)[N-]C(=O)CCC([NH-])=O)c1 (protonated)
Cc1ccc(F)cc1S(=O)(=O)[N-]c1c[nH]c([C@H](C)[N-]C(=O)CCC([NH-])=O)c1 (chirality)
Cc1ccc(F)cc1S(=O)(=O)[N-]c1c[nH]c([C@H](C)[N-]C(=O)CCC([NH-])=O)c1 (3D coordinates assigned)
Cc1ccc(F)cc1S(=O)(=O)[N-]c1c[nH]c([C@H](C)[N-]C(=O)CCC([NH-])=O)c1 (optimized conformer: 64.90196382920949 kcal/mol)

>  <smiles>  (35) 
Cc1ccc(F)cc1S(=O)(=O)Nc1c[nH]c(C(C)NC(=O)CCC(N)=O)c1

>  <score_type>  (35) 
oracle

>  <origin>  (35) 
adg

>  <m_score__min__energy>  (35) 
-13.65

>  <m_primary>  (35) 
energy

$$$$
35:0
     RDKit          3D

 52 56  0  0  0  0  0  0  0  0999 V2000
   54.7730   30.4770   45.6210 H   0  0  0  0  0  0  0  0  0  0  0  0
   55.1200   29.8110   44.9390 O   0  0  0  0  0  0  0  0  0  0  0  0
   56.2620   29.0610   45.2020 C   0  0  0  0  0  0  0  0  0  0  0  0
   56.2260   27.7590   45.5700 N   0  0  0  0  0  0  0  0  0  0  0  0
   57.5230   27.4180   45.6920 C   0  0  0  0  0  0  0  0  0  0  0  0
   58.0200   26.1550   46.0150 C   0  0  0  0  0  0  0  0  0  0  0  0
   57.3409   25.3210   46.2456 H   0  0  0  0  0  0  0  0  0  0  0  0
   59.4160   25.9800   46.0370 C   0  0  0  0  0  0  0  0  0  0  0  0
   59.9380   24.7690   46.3500 F   0  0  0  0  0  0  0  0  0  0  0  0
   60.2760   27.0570   45.7230 C   0  0  0  0  0  0  0  0  0  0  0  0
   61.3657   26.9078   45.7369 H   0  0  0  0  0  0  0  0  0  0  0  0
   59.7480   28.3180   45.3930 C   0  0  0  0  0  0  0  0  0  0  0  0
   60.4074   29.1584   45.1307 H   0  0  0  0  0  0  0  0  0  0  0  0
   58.3610   28.4690   45.4090 C   0  0  0  0  0  0  0  0  0  0  0  0
   57.5580   29.5500   45.1140 C   0  0  0  0  0  0  0  0  0  0  0  0
   57.9590   30.8860   44.6370 C   0  0  0  0  0  0  0  0  0  0  0  0
   57.8554   31.1003   43.5631 H   0  0  0  0  0  0  0  0  0  0  0  0
   58.4420   31.8580   45.4260 C   0  0  0  0  0  0  0  0  0  0  0  0
   58.6670   33.1130   44.9790 N   0  0  0  0  0  0  0  0  0  0  0  0
   59.1460   33.7790   46.0540 C   0  0  0  0  0  0  0  0  0  0  0  0
   59.4890   35.0670   46.0110 C   0  0  0  0  0  0  0  0  0  0  0  0
   59.8741   35.5641   46.9136 H   0  0  0  0  0  0  0  0  0  0  0  0
   59.3869   35.6323   45.0729 H   0  0  0  0  0  0  0  0  0  0  0  0
   59.2220   33.0020   47.1600 N   0  0  0  0  0  0  0  0  0  0  0  0
   59.6810   33.3600   48.4700 C   0  0  0  0  0  0  0  0  0  0  0  0
   58.8390   33.4500   49.4030 O   0  0  0  0  0  0  0  0  0  0  0  0
   61.0760   33.6240   48.7220 N   0  0  0  0  0  0  0  0  0  0  0  0
   61.4840   34.0770   50.0600 C   0  0  0  0  0  0  0  0  0  0  0  0
   60.8919   34.9636   50.3311 H   0  0  0  0  0  0  0  0  0  0  0  0
   61.3098   33.2522   50.7667 H   0  0  0  0  0  0  0  0  0  0  0  0
   62.9750   34.4410   50.1120 C   0  0  0  0  0  0  0  0  0  0  0  0
   63.1326   35.4004   49.5976 H   0  0  0  0  0  0  0  0  0  0  0  0
   63.2875   34.5220   51.1636 H   0  0  0  0  0  0  0  0  0  0  0  0
   63.7780   33.3980   49.4520 N   0  0  0  0  0  0  0  0  0  0  0  0
   65.0470   32.9560   49.9860 C   0  0  0  0  0  0  0  0  0  0  0  0
   65.6910   32.0400   49.3960 O   0  0  0  0  0  0  0  0  0  0  0  0
   65.6640   33.6020   51.2000 C   0  0  0  0  0  0  0  0  0  0  0  0
   64.7484   34.1148   51.5297 H   0  0  0  0  0  0  0  0  0  0  0  0
   67.1300   33.9960   51.0530 C   0  0  0  0  0  0  0  0  0  0  0  0
   67.6399   33.8670   50.0869 H   0  0  0  0  0  0  0  0  0  0  0  0
   67.7116   34.9112   51.2379 H   0  0  0  0  0  0  0  0  0  0  0  0
   66.7510   32.7820   51.8780 C   0  0  0  0  0  0  0  0  0  0  0  0
   66.9873   31.7726   51.5103 H   0  0  0  0  0  0  0  0  0  0  0  0
   66.9455   32.4531   52.9095 H   0  0  0  0  0  0  0  0  0  0  0  0
   63.3440   32.8670   48.1500 C   0  0  0  0  0  0  0  0  0  0  0  0
   64.1483   33.0246   47.4164 H   0  0  0  0  0  0  0  0  0  0  0  0
   63.1242   31.7966   48.2761 H   0  0  0  0  0  0  0  0  0  0  0  0
   62.0710   33.5550   47.6440 C   0  0  0  0  0  0  0  0  0  0  0  0
   62.3160   34.5735   47.3084 H   0  0  0  0  0  0  0  0  0  0  0  0
   61.6561   32.9762   46.8057 H   0  0  0  0  0  0  0  0  0  0  0  0
   58.7730   31.8000   46.7690 C   0  0  0  0  0  0  0  0  0  0  0  0
   58.6280   30.8170   47.5460 O   0  0  0  0  0  0  0  0  0  0  0  0
  1  2  1  0
  2  3  1  0
  3  4  1  0
  4  5  1  0
  5  6  2  0
  6  7  1  0
  6  8  1  0
  8  9  1  0
  8 10  2  0
 10 11  1  0
 10 12  1  0
 12 13  1  0
 12 14  2  0
 14 15  1  0
 15 16  1  0
 16 17  1  0
 16 18  2  0
 18 19  1  0
 19 20  1  0
 20 21  2  0
 21 22  1  0
 21 23  1  0
 20 24  1  0
 24 25  1  0
 25 26  2  0
 25 27  1  0
 27 28  1  0
 28 29  1  0
 28 30  1  0
 28 31  1  0
 31 32  1  0
 31 33  1  0
 31 34  1  0
 34 35  1  0
 35 36  2  0
 35 37  1  0
 37 38  1  0
 37 39  1  0
 39 40  1  0
 39 41  1  0
 39 42  1  0
 42 43  1  0
 42 44  1  0
 34 45  1  0
 45 46  1  0
 45 47  1  0
 45 48  1  0
 48 49  1  0
 48 50  1  0
 24 51  1  0
 51 52  2  0
 15  3  2  0
 51 18  1  0
 14  5  1  0
 48 27  1  0
 42 37  1  0
M  CHG  2   4  -1  19  -1
M  END
>  <UniqueID>  (36) 
34

>  <SMILES>  (36) 
C=c1[n-]/c(=C/c2c(O)[n-]c3cc(F)ccc23)c(=O)n1C(=O)N1CCN(C(=O)C2CC2)CC1

>  <Energy>  (36) 
399.73972035691605

>  <Genealogy>  (36) 
C=c1[n-]c(=Cc2c(O)[n-]c3cc(F)ccc23)c(=O)n1C(=O)N1CCN(C(=O)C2CC2)CC1 (protonated)
C=c1[n-]/c(=C/c2c(O)[n-]c3cc(F)ccc23)c(=O)n1C(=O)N1CCN(C(=O)C2CC2)CC1 (cis-trans isomerization)
C=c1[n-]/c(=C/c2c(O)[n-]c3cc(F)ccc23)c(=O)n1C(=O)N1CCN(C(=O)C2CC2)CC1 (3D coordinates assigned)
C=c1[n-]/c(=C/c2c(O)[n-]c3cc(F)ccc23)c(=O)n1C(=O)N1CCN(C(=O)C2CC2)CC1 (nonaromatic ring conformer: 399.73972035691605 kcal/mol)

>  <smiles>  (36) 
C=c1[nH]c(=Cc2c(O)[nH]c3cc(F)ccc23)c(=O)n1C(=O)N1CCN(C(=O)C2CC2)CC1

>  <score_type>  (36) 
oracle

>  <origin>  (36) 
adg

>  <m_score__min__energy>  (36) 
-12.34

>  <m_primary>  (36) 
energy

$$$$
36:0
     RDKit          3D

 34 36  0  0  0  0  0  0  0  0999 V2000
   59.4408   32.1056   48.6992 H   0  0  0  0  0  0  0  0  0  0  0  0
   58.9910   32.4520   47.7570 C   0  0  0  0  0  0  0  0  0  0  0  0
   58.1820   31.6660   46.9980 N   0  0  0  0  0  0  0  0  0  0  0  0
   57.7660   32.3130   45.8860 C   0  0  0  0  0  0  0  0  0  0  0  0
   56.9880   31.7930   44.9820 N   0  0  0  0  0  0  0  0  0  0  0  0
   57.3070   30.6890   44.1180 C   0  0  0  0  0  0  0  0  0  0  0  0
   57.5260   30.8810   42.8900 O   0  0  0  0  0  0  0  0  0  0  0  0
   57.3780   29.3160   44.6720 C   0  0  0  0  0  0  0  0  0  0  0  0
   58.6130   28.6510   44.7860 C   0  0  0  0  0  0  0  0  0  0  0  0
   59.5359   29.1534   44.4607 H   0  0  0  0  0  0  0  0  0  0  0  0
   58.6750   27.3560   45.3100 C   0  0  0  0  0  0  0  0  0  0  0  0
   59.6454   26.8454   45.3967 H   0  0  0  0  0  0  0  0  0  0  0  0
   57.5100   26.7100   45.7230 C   0  0  0  0  0  0  0  0  0  0  0  0
   57.5626   25.6910   46.1339 H   0  0  0  0  0  0  0  0  0  0  0  0
   56.2750   27.3570   45.6150 C   0  0  0  0  0  0  0  0  0  0  0  0
   55.1150   26.7130   46.0270 O   0  0  0  0  0  0  0  0  0  0  0  0
   56.2080   28.6540   45.0930 C   0  0  0  0  0  0  0  0  0  0  0  0
   55.2347   29.1600   45.0109 H   0  0  0  0  0  0  0  0  0  0  0  0
   58.3800   33.8740   45.7880 S   0  0  0  0  0  0  0  0  0  0  0  0
   59.2050   33.7290   47.2480 C   0  0  0  0  0  0  0  0  0  0  0  0
   60.1070   34.7670   47.8360 C   0  0  0  0  0  0  0  0  0  0  0  0
   60.1638   35.6282   47.1540 H   0  0  0  0  0  0  0  0  0  0  0  0
   59.7034   35.0857   48.8084 H   0  0  0  0  0  0  0  0  0  0  0  0
   61.4850   34.2000   48.0370 C   0  0  0  0  0  0  0  0  0  0  0  0
   62.2090   33.6950   46.9440 C   0  0  0  0  0  0  0  0  0  0  0  0
   61.7549   33.6876   45.9422 H   0  0  0  0  0  0  0  0  0  0  0  0
   63.5040   33.2020   47.1250 C   0  0  0  0  0  0  0  0  0  0  0  0
   64.0636   32.8000   46.2675 H   0  0  0  0  0  0  0  0  0  0  0  0
   64.0890   33.2190   48.3940 C   0  0  0  0  0  0  0  0  0  0  0  0
   65.1076   32.8283   48.5347 H   0  0  0  0  0  0  0  0  0  0  0  0
   63.3810   33.7320   49.4850 C   0  0  0  0  0  0  0  0  0  0  0  0
   63.9660   33.7560   50.7450 O   0  0  0  0  0  0  0  0  0  0  0  0
   62.0840   34.2260   49.3080 C   0  0  0  0  0  0  0  0  0  0  0  0
   61.5315   34.6360   50.1663 H   0  0  0  0  0  0  0  0  0  0  0  0
  1  2  1  0
  2  3  1  0
  3  4  1  0
  4  5  2  0
  5  6  1  0
  6  7  2  0
  6  8  1  0
  8  9  2  0
  9 10  1  0
  9 11  1  0
 11 12  1  0
 11 13  2  0
 13 14  1  0
 13 15  1  0
 15 16  1  0
 15 17  2  0
 17 18  1  0
  4 19  1  0
 19 20  1  0
 20 21  1  0
 21 22  1  0
 21 23  1  0
 21 24  1  0
 24 25  2  0
 25 26  1  0
 25 27  1  0
 27 28  1  0
 27 29  2  0
 29 30  1  0
 29 31  1  0
 31 32  1  0
 31 33  2  0
 33 34  1  0
 20  2  2  0
 33 24  1  0
 17  8  1  0
M  CHG  3   3  -1  16  -1  32  -1
M  END
>  <UniqueID>  (37) 
35

>  <SMILES>  (37) 
O=C(/N=c1\[n-]cc(Cc2cccc([O-])c2)s1)c1cccc([O-])c1

>  <Energy>  (37) 
68.0085663381389

>  <Genealogy>  (37) 
O=C(N=c1[n-]cc(Cc2cccc([O-])c2)s1)c1cccc([O-])c1 (protonated)
O=C(/N=c1\[n-]cc(Cc2cccc([O-])c2)s1)c1cccc([O-])c1 (cis-trans isomerization)
O=C(/N=c1\[n-]cc(Cc2cccc([O-])c2)s1)c1cccc([O-])c1 (3D coordinates assigned)
O=C(/N=c1\[n-]cc(Cc2cccc([O-])c2)s1)c1cccc([O-])c1 (optimized conformer: 68.0085663381389 kcal/mol)

>  <smiles>  (37) 
O=C(N=c1[nH]cc(Cc2cccc(O)c2)s1)c1cccc(O)c1

>  <score_type>  (37) 
oracle

>  <origin>  (37) 
adg

>  <m_score__min__energy>  (37) 
-15.73

>  <m_primary>  (37) 
energy

$$$$
37:0
     RDKit          3D

 64 67  0  0  0  0  0  0  0  0999 V2000
   58.9340   33.5760   53.0490 C   0  0  0  0  0  0  0  0  0  0  0  0
   58.2390   32.8050   52.0060 N   0  0  0  0  0  0  0  0  0  0  0  0
   58.9640   32.9170   50.7180 C   0  0  0  0  0  0  0  0  0  0  0  0
   58.5890   31.7760   49.7610 C   0  0  0  0  0  0  0  0  0  0  0  0
   58.8950   30.4350   50.3270 N   0  0  0  0  0  0  0  0  0  0  0  0
   60.0780   29.8100   49.6970 C   0  0  0  0  0  0  0  0  0  0  0  0
   59.6310   28.8770   48.6160 C   0  0  0  0  0  0  0  0  0  0  0  0
   60.0730   27.5730   48.4500 C   0  0  0  0  0  0  0  0  0  0  0  0
   59.3670   26.8700   47.4690 C   0  0  0  0  0  0  0  0  0  0  0  0
   58.3390   27.6050   46.8810 C   0  0  0  0  0  0  0  0  0  0  0  0
   57.4050   27.0610   45.8700 C   0  0  0  0  0  0  0  0  0  0  0  0
   56.3820   26.4500   46.2750 O   0  0  0  0  0  0  0  0  0  0  0  0
   57.5550   27.2500   44.4520 N   0  0  0  0  0  0  0  0  0  0  0  0
   57.4240   28.4730   43.6650 C   0  0  0  0  0  0  0  0  0  0  0  0
   57.3810   29.7270   44.5000 C   0  0  0  0  0  0  0  0  0  0  0  0
   56.2530   30.1600   44.8550 O   0  0  0  0  0  0  0  0  0  0  0  0
   58.5740   30.4390   44.8760 N   0  0  0  0  0  0  0  0  0  0  0  0
   58.5260   31.8210   45.2560 C   0  0  0  0  0  0  0  0  0  0  0  0
   57.7860   32.7470   44.5090 C   0  0  0  0  0  0  0  0  0  0  0  0
   57.7940   34.0990   44.8600 C   0  0  0  0  0  0  0  0  0  0  0  0
   58.5470   34.5360   45.9520 C   0  0  0  0  0  0  0  0  0  0  0  0
   59.2800   33.6180   46.7250 C   0  0  0  0  0  0  0  0  0  0  0  0
   60.1420   34.0770   47.8410 C   0  0  0  0  0  0  0  0  0  0  0  0
   59.7120   34.9710   48.6200 O   0  0  0  0  0  0  0  0  0  0  0  0
   61.4490   33.5170   48.0690 N   0  0  0  0  0  0  0  0  0  0  0  0
   61.9370   33.2780   49.4300 C   0  0  0  0  0  0  0  0  0  0  0  0
   63.3470   33.8610   49.5720 C   0  0  0  0  0  0  0  0  0  0  0  0
   64.1990   33.3750   48.5500 O   0  0  0  0  0  0  0  0  0  0  0  0
   63.7430   33.8240   47.2860 C   0  0  0  0  0  0  0  0  0  0  0  0
   62.3670   33.2310   46.9630 C   0  0  0  0  0  0  0  0  0  0  0  0
   59.2510   32.2560   46.3750 C   0  0  0  0  0  0  0  0  0  0  0  0
   58.3530   29.1490   47.5580 S   0  0  0  0  0  0  0  0  0  0  0  0
   59.0060   30.4260   51.8030 C   0  0  0  0  0  0  0  0  0  0  0  0
   58.0060   31.4020   52.4370 C   0  0  0  0  0  0  0  0  0  0  0  0
   58.6150   33.2221   54.0405 H   0  0  0  0  0  0  0  0  0  0  0  0
   60.0204   33.4398   52.9431 H   0  0  0  0  0  0  0  0  0  0  0  0
   58.6862   34.6425   52.9431 H   0  0  0  0  0  0  0  0  0  0  0  0
   58.7090   33.8776   50.2465 H   0  0  0  0  0  0  0  0  0  0  0  0
   60.0431   32.8559   50.9225 H   0  0  0  0  0  0  0  0  0  0  0  0
   57.5109   31.8323   49.5500 H   0  0  0  0  0  0  0  0  0  0  0  0
   59.1868   31.8971   48.8456 H   0  0  0  0  0  0  0  0  0  0  0  0
   60.7196   30.5920   49.2647 H   0  0  0  0  0  0  0  0  0  0  0  0
   60.6446   29.2493   50.4550 H   0  0  0  0  0  0  0  0  0  0  0  0
   60.8972   27.1352   49.0323 H   0  0  0  0  0  0  0  0  0  0  0  0
   59.6012   25.8328   47.1873 H   0  0  0  0  0  0  0  0  0  0  0  0
   58.2830   28.5400   42.9812 H   0  0  0  0  0  0  0  0  0  0  0  0
   56.4657   28.4100   43.1287 H   0  0  0  0  0  0  0  0  0  0  0  0
   59.5070   30.0410   44.6330 H   0  0  0  0  0  0  0  0  0  0  0  0
   57.1971   32.4084   43.6438 H   0  0  0  0  0  0  0  0  0  0  0  0
   57.2058   34.8212   44.2749 H   0  0  0  0  0  0  0  0  0  0  0  0
   58.5669   35.6053   46.2091 H   0  0  0  0  0  0  0  0  0  0  0  0
   61.2642   33.7635   50.1522 H   0  0  0  0  0  0  0  0  0  0  0  0
   61.9639   32.1962   49.6272 H   0  0  0  0  0  0  0  0  0  0  0  0
   63.2921   34.9575   49.5042 H   0  0  0  0  0  0  0  0  0  0  0  0
   63.7571   33.5569   50.5463 H   0  0  0  0  0  0  0  0  0  0  0  0
   63.6692   34.9215   47.2980 H   0  0  0  0  0  0  0  0  0  0  0  0
   64.4578   33.4973   46.5163 H   0  0  0  0  0  0  0  0  0  0  0  0
   61.9799   33.6818   46.0373 H   0  0  0  0  0  0  0  0  0  0  0  0
   62.4554   32.1430   46.8272 H   0  0  0  0  0  0  0  0  0  0  0  0
   59.8022   31.5250   46.9848 H   0  0  0  0  0  0  0  0  0  0  0  0
   58.8009   29.4105   52.1727 H   0  0  0  0  0  0  0  0  0  0  0  0
   60.0236   30.7392   52.0792 H   0  0  0  0  0  0  0  0  0  0  0  0
   56.9880   31.1060   52.1438 H   0  0  0  0  0  0  0  0  0  0  0  0
   58.1377   31.3582   53.5282 H   0  0  0  0  0  0  0  0  0  0  0  0
  1  2  1  0
  2  3  1  0
  3  4  1  0
  4  5  1  0
  5  6  1  0
  6  7  1  0
  7  8  2  0
  8  9  1  0
  9 10  2  0
 10 11  1  0
 11 12  2  0
 11 13  1  0
 13 14  1  0
 14 15  1  0
 15 16  2  0
 15 17  1  0
 17 18  1  0
 18 19  2  0
 19 20  1  0
 20 21  2  0
 21 22  1  0
 22 23  1  0
 23 24  2  0
 23 25  1  0
 25 26  1  0
 26 27  1  0
 27 28  1  0
 28 29  1  0
 29 30  1  0
 22 31  2  0
 10 32  1  0
  5 33  1  0
 33 34  1  0
 34  2  1  0
 32  7  1  0
 31 18  1  0
 30 25  1  0
  1 35  1  0
  1 36  1  0
  1 37  1  0
  3 38  1  0
  3 39  1  0
  4 40  1  0
  4 41  1  0
  6 42  1  0
  6 43  1  0
  8 44  1  0
  9 45  1  0
 14 46  1  0
 14 47  1  0
 17 48  1  0
 19 49  1  0
 20 50  1  0
 21 51  1  0
 26 52  1  0
 26 53  1  0
 27 54  1  0
 27 55  1  0
 29 56  1  0
 29 57  1  0
 30 58  1  0
 30 59  1  0
 31 60  1  0
 33 61  1  0
 33 62  1  0
 34 63  1  0
 34 64  1  0
M  CHG  1  13  -1
M  END
>  <UniqueID>  (38) 
36

>  <SMILES>  (38) 
CN1CCN(Cc2ccc(C(=O)[N-]CC(=O)Nc3cccc(C(=O)N4CCOCC4)c3)s2)CC1

>  <Energy>  (38) 
110.13329281440501

>  <Genealogy>  (38) 
CN1CCN(Cc2ccc(C(=O)[N-]CC(=O)Nc3cccc(C(=O)N4CCOCC4)c3)s2)CC1 (protonated)
CN1CCN(Cc2ccc(C(=O)[N-]CC(=O)Nc3cccc(C(=O)N4CCOCC4)c3)s2)CC1 (3D coordinates assigned)
CN1CCN(Cc2ccc(C(=O)[N-]CC(=O)Nc3cccc(C(=O)N4CCOCC4)c3)s2)CC1 (nonaromatic ring conformer: 110.13329281440501 kcal/mol)

>  <smiles>  (38) 
CN1CCN(Cc2ccc(C(=O)NCC(=O)Nc3cccc(C(=O)N4CCOCC4)c3)s2)CC1

>  <score_type>  (38) 
oracle

>  <origin>  (38) 
adg

>  <m_score__min__energy>  (38) 
-12.02

>  <m_primary>  (38) 
energy

$$$$
38:0
     RDKit          3D

 68 72  0  0  0  0  0  0  0  0999 V2000
   59.3190   34.9770   44.8800 C   0  0  0  0  0  0  0  0  0  0  0  0
   58.7600   33.8990   45.6450 N   0  0  0  0  0  0  0  0  0  0  0  0
   57.3350   34.0380   45.6360 C   0  0  0  0  0  0  0  0  0  0  0  0
   56.6230   32.7400   45.3150 C   0  0  0  0  0  0  0  0  0  0  0  0
   57.0920   32.1370   44.1080 N   0  0  0  0  0  0  0  0  0  0  0  0
   56.5660   30.5020   44.0500 S   0  0  0  0  0  0  0  0  0  0  0  0
   56.4070   30.0310   42.6140 O   0  0  0  0  0  0  0  0  0  0  0  0
   55.2870   30.3100   44.8140 O   0  0  0  0  0  0  0  0  0  0  0  0
   57.8010   29.4900   44.7570 C   0  0  0  0  0  0  0  0  0  0  0  0
   58.3400   28.3980   44.1100 C   0  0  0  0  0  0  0  0  0  0  0  0
   59.3130   27.5910   44.6620 C   0  0  0  0  0  0  0  0  0  0  0  0
   59.7660   27.9060   45.9420 C   0  0  0  0  0  0  0  0  0  0  0  0
   59.2590   28.9880   46.6320 C   0  0  0  0  0  0  0  0  0  0  0  0
   59.7940   29.2340   47.9630 C   0  0  0  0  0  0  0  0  0  0  0  0
   59.4990   30.3160   48.5290 O   0  0  0  0  0  0  0  0  0  0  0  0
   60.6320   28.3190   48.6560 N   0  0  0  0  0  0  0  0  0  0  0  0
   61.0710   28.7200   49.9570 C   0  0  0  0  0  0  0  0  0  0  0  0
   60.7710   28.0070   51.0990 C   0  0  0  0  0  0  0  0  0  0  0  0
   61.2480   28.4840   52.3190 C   0  0  0  0  0  0  0  0  0  0  0  0
   62.0080   29.6590   52.3700 C   0  0  0  0  0  0  0  0  0  0  0  0
   62.3070   30.3680   51.2370 C   0  0  0  0  0  0  0  0  0  0  0  0
   63.1050   31.6080   51.1900 C   0  0  0  0  0  0  0  0  0  0  0  0
   62.9860   32.2990   49.8900 C   0  0  0  0  0  0  0  0  0  0  0  0
   64.0900   32.2590   49.0890 N   0  0  0  0  0  0  0  0  0  0  0  0
   64.1390   32.8350   47.9060 N   0  0  0  0  0  0  0  0  0  0  0  0
   63.0610   33.4810   47.4780 C   0  0  0  0  0  0  0  0  0  0  0  0
   63.1220   34.0350   46.3280 O   0  0  0  0  0  0  0  0  0  0  0  0
   61.8790   33.5810   48.2180 C   0  0  0  0  0  0  0  0  0  0  0  0
   61.8730   32.9660   49.4460 C   0  0  0  0  0  0  0  0  0  0  0  0
   60.6610   33.0100   50.2970 C   0  0  0  0  0  0  0  0  0  0  0  0
   59.4580   33.2960   49.4090 C   0  0  0  0  0  0  0  0  0  0  0  0
   59.7080   34.5940   48.6280 C   0  0  0  0  0  0  0  0  0  0  0  0
   60.7740   34.3200   47.6140 C   0  0  0  0  0  0  0  0  0  0  0  0
   61.8240   29.8800   50.0190 C   0  0  0  0  0  0  0  0  0  0  0  0
   58.2880   29.7660   46.0420 C   0  0  0  0  0  0  0  0  0  0  0  0
   58.5050   32.1920   43.9270 C   0  0  0  0  0  0  0  0  0  0  0  0
   59.1720   32.5970   45.2220 C   0  0  0  0  0  0  0  0  0  0  0  0
   59.7163   35.7431   45.5620 H   0  0  0  0  0  0  0  0  0  0  0  0
   60.1319   34.5936   44.2458 H   0  0  0  0  0  0  0  0  0  0  0  0
   58.5373   35.4205   44.2458 H   0  0  0  0  0  0  0  0  0  0  0  0
   57.0087   34.3822   46.6285 H   0  0  0  0  0  0  0  0  0  0  0  0
   57.0768   34.7620   44.8491 H   0  0  0  0  0  0  0  0  0  0  0  0
   56.7832   32.0363   46.1451 H   0  0  0  0  0  0  0  0  0  0  0  0
   55.5565   32.9717   45.1776 H   0  0  0  0  0  0  0  0  0  0  0  0
   57.9748   28.1578   43.1006 H   0  0  0  0  0  0  0  0  0  0  0  0
   59.7173   26.7289   44.1113 H   0  0  0  0  0  0  0  0  0  0  0  0
   60.5410   27.2813   46.4101 H   0  0  0  0  0  0  0  0  0  0  0  0
   60.8950   27.4160   48.2140 H   0  0  0  0  0  0  0  0  0  0  0  0
   60.1712   27.0863   51.0484 H   0  0  0  0  0  0  0  0  0  0  0  0
   61.0263   27.9348   53.2459 H   0  0  0  0  0  0  0  0  0  0  0  0
   62.3733   30.0209   53.3424 H   0  0  0  0  0  0  0  0  0  0  0  0
   62.7557   32.2844   51.9840 H   0  0  0  0  0  0  0  0  0  0  0  0
   64.1612   31.3355   51.3322 H   0  0  0  0  0  0  0  0  0  0  0  0
   65.0200   32.7800   47.3160 H   0  0  0  0  0  0  0  0  0  0  0  0
   60.5273   32.0424   50.8028 H   0  0  0  0  0  0  0  0  0  0  0  0
   60.7633   33.7972   51.0585 H   0  0  0  0  0  0  0  0  0  0  0  0
   59.3142   32.4638   48.7042 H   0  0  0  0  0  0  0  0  0  0  0  0
   58.5564   33.4045   50.0297 H   0  0  0  0  0  0  0  0  0  0  0  0
   58.7836   34.9106   48.1228 H   0  0  0  0  0  0  0  0  0  0  0  0
   60.0236   35.3976   49.3096 H   0  0  0  0  0  0  0  0  0  0  0  0
   60.3476   33.7255   46.7926 H   0  0  0  0  0  0  0  0  0  0  0  0
   61.1550   35.2785   47.2316 H   0  0  0  0  0  0  0  0  0  0  0  0
   62.0467   30.4285   49.0919 H   0  0  0  0  0  0  0  0  0  0  0  0
   57.8837   30.6273   46.5940 H   0  0  0  0  0  0  0  0  0  0  0  0
   58.8728   31.2015   43.6210 H   0  0  0  0  0  0  0  0  0  0  0  0
   58.7429   32.9323   43.1490 H   0  0  0  0  0  0  0  0  0  0  0  0
   58.9072   31.8684   46.0024 H   0  0  0  0  0  0  0  0  0  0  0  0
   60.2591   32.6189   45.0553 H   0  0  0  0  0  0  0  0  0  0  0  0
  1  2  1  0
  2  3  1  0
  3  4  1  0
  4  5  1  0
  5  6  1  0
  6  7  2  0
  6  8  2  0
  6  9  1  0
  9 10  2  0
 10 11  1  0
 11 12  2  0
 12 13  1  0
 13 14  1  0
 14 15  2  0
 14 16  1  0
 16 17  1  0
 17 18  2  0
 18 19  1  0
 19 20  2  0
 20 21  1  0
 21 22  1  0
 22 23  1  0
 23 24  2  0
 24 25  1  0
 25 26  1  0
 26 27  2  0
 26 28  1  0
 28 29  2  0
 29 30  1  0
 30 31  1  0
 31 32  1  0
 32 33  1  0
 21 34  2  0
 13 35  2  0
  5 36  1  0
 36 37  1  0
 37  2  1  0
 35  9  1  0
 34 17  1  0
 29 23  1  0
 33 28  1  0
  1 38  1  0
  1 39  1  0
  1 40  1  0
  3 41  1  0
  3 42  1  0
  4 43  1  0
  4 44  1  0
 10 45  1  0
 11 46  1  0
 12 47  1  0
 16 48  1  0
 18 49  1  0
 19 50  1  0
 20 51  1  0
 22 52  1  0
 22 53  1  0
 25 54  1  0
 30 55  1  0
 30 56  1  0
 31 57  1  0
 31 58  1  0
 32 59  1  0
 32 60  1  0
 33 61  1  0
 33 62  1  0
 34 63  1  0
 35 64  1  0
 36 65  1  0
 36 66  1  0
 37 67  1  0
 37 68  1  0
M  END
>  <smiles>  (39) 
CN1CCN(S(=O)(=O)c2cccc(C(=O)Nc3cccc(Cc4n[nH]c(=O)c5c4CCCC5)c3)c2)CC1

>  <score_type>  (39) 
oracle

>  <origin>  (39) 
adg

>  <m_score__min__energy>  (39) 
-12.359999999999999

>  <m_primary>  (39) 
energy

$$$$
39:0
     RDKit          3D

 77 81  0  0  0  0  0  0  0  0999 V2000
   57.4830   27.7130   46.3940 C   0  0  0  0  0  0  0  0  0  0  0  0
   58.5780   28.6020   46.9130 C   0  0  0  0  0  0  0  0  0  0  0  0
   59.1820   28.3200   48.1480 C   0  0  0  0  0  0  0  0  0  0  0  0
   60.2420   29.1090   48.6260 C   0  0  0  0  0  0  0  0  0  0  0  0
   60.9840   28.7180   49.8440 C   0  0  0  0  0  0  0  0  0  0  0  0
   60.4890   27.8850   50.6490 O   0  0  0  0  0  0  0  0  0  0  0  0
   62.2270   29.3530   50.1580 N   0  0  0  0  0  0  0  0  0  0  0  0
   62.3110   30.4650   51.0990 C   0  0  0  0  0  0  0  0  0  0  0  0
   62.0070   31.7700   50.3860 C   0  0  0  0  0  0  0  0  0  0  0  0
   62.6990   32.0640   49.1960 C   0  0  0  0  0  0  0  0  0  0  0  0
   62.4490   33.2450   48.4810 C   0  0  0  0  0  0  0  0  0  0  0  0
   63.1250   33.4760   47.1530 C   0  0  0  0  0  0  0  0  0  0  0  0
   64.0370   34.5160   47.2280 F   0  0  0  0  0  0  0  0  0  0  0  0
   62.1670   33.7830   46.2060 F   0  0  0  0  0  0  0  0  0  0  0  0
   63.7990   32.3350   46.7580 F   0  0  0  0  0  0  0  0  0  0  0  0
   61.4990   34.1510   48.9730 C   0  0  0  0  0  0  0  0  0  0  0  0
   60.8300   33.8910   50.1690 C   0  0  0  0  0  0  0  0  0  0  0  0
   61.0670   32.7070   50.8810 C   0  0  0  0  0  0  0  0  0  0  0  0
   60.3100   32.4790   52.1260 C   0  0  0  0  0  0  0  0  0  0  0  0
   60.5230   33.2430   53.1090 O   0  0  0  0  0  0  0  0  0  0  0  0
   59.3790   31.3800   52.2490 N   0  0  0  0  0  0  0  0  0  0  0  0
   58.6770   31.1380   53.5110 C   0  0  0  0  0  0  0  0  0  0  0  0
   57.2580   31.7290   53.4350 C   0  0  0  0  0  0  0  0  0  0  0  0
   56.4940   31.4140   52.1070 C   0  0  0  0  0  0  0  0  0  0  0  0
   55.6250   30.2060   52.1360 N   0  0  0  0  0  0  0  0  0  0  0  0
   54.2330   30.4650   51.7500 C   0  0  0  0  0  0  0  0  0  0  0  0
   53.3730   29.3930   52.4190 C   0  0  0  0  0  0  0  0  0  0  0  0
   54.3370   28.5540   53.2420 C   0  0  0  0  0  0  0  0  0  0  0  0
   55.5660   29.4270   53.3750 C   0  0  0  0  0  0  0  0  0  0  0  0
   57.3930   31.4140   50.8420 C   0  0  0  0  0  0  0  0  0  0  0  0
   58.7600   30.7690   51.0700 C   0  0  0  0  0  0  0  0  0  0  0  0
   60.6630   30.2140   47.8690 C   0  0  0  0  0  0  0  0  0  0  0  0
   60.0860   30.4820   46.6300 C   0  0  0  0  0  0  0  0  0  0  0  0
   59.0670   29.6590   46.1220 C   0  0  0  0  0  0  0  0  0  0  0  0
   58.5420   29.8410   44.8330 O   0  0  0  0  0  0  0  0  0  0  0  0
   57.6570   31.2180   44.3190 S   0  0  0  0  0  0  0  0  0  0  0  0
   56.1940   30.9830   44.5710 O   0  0  0  0  0  0  0  0  0  0  0  0
   57.8560   31.4290   42.8450 O   0  0  0  0  0  0  0  0  0  0  0  0
   58.1510   32.6500   45.2200 C   0  0  0  0  0  0  0  0  0  0  0  0
   57.9430   32.7420   46.6040 C   0  0  0  0  0  0  0  0  0  0  0  0
   58.3910   33.8690   47.3070 C   0  0  0  0  0  0  0  0  0  0  0  0
   59.0550   34.9010   46.6370 C   0  0  0  0  0  0  0  0  0  0  0  0
   59.2650   34.8100   45.2570 C   0  0  0  0  0  0  0  0  0  0  0  0
   58.8100   33.6910   44.5500 C   0  0  0  0  0  0  0  0  0  0  0  0
   56.9378   27.2704   47.2407 H   0  0  0  0  0  0  0  0  0  0  0  0
   56.7888   28.3063   45.7807 H   0  0  0  0  0  0  0  0  0  0  0  0
   57.9210   26.9117   45.7807 H   0  0  0  0  0  0  0  0  0  0  0  0
   58.8216   27.4718   48.7486 H   0  0  0  0  0  0  0  0  0  0  0  0
   61.5819   30.3134   51.9086 H   0  0  0  0  0  0  0  0  0  0  0  0
   63.3275   30.5093   51.5171 H   0  0  0  0  0  0  0  0  0  0  0  0
   63.4502   31.3542   48.8194 H   0  0  0  0  0  0  0  0  0  0  0  0
   61.2800   35.0720   48.4128 H   0  0  0  0  0  0  0  0  0  0  0  0
   60.1078   34.6238   50.5581 H   0  0  0  0  0  0  0  0  0  0  0  0
   58.6131   30.0549   53.6923 H   0  0  0  0  0  0  0  0  0  0  0  0
   59.2285   31.6175   54.3332 H   0  0  0  0  0  0  0  0  0  0  0  0
   56.6718   31.3238   54.2729 H   0  0  0  0  0  0  0  0  0  0  0  0
   57.3719   32.8222   53.4784 H   0  0  0  0  0  0  0  0  0  0  0  0
   55.8122   32.2739   52.0318 H   0  0  0  0  0  0  0  0  0  0  0  0
   53.9259   31.4637   52.0939 H   0  0  0  0  0  0  0  0  0  0  0  0
   54.1179   30.4325   50.6565 H   0  0  0  0  0  0  0  0  0  0  0  0
   52.6164   29.8573   53.0686 H   0  0  0  0  0  0  0  0  0  0  0  0
   52.8311   28.7846   51.6799 H   0  0  0  0  0  0  0  0  0  0  0  0
   53.9109   28.3265   54.2303 H   0  0  0  0  0  0  0  0  0  0  0  0
   54.5575   27.5834   52.7737 H   0  0  0  0  0  0  0  0  0  0  0  0
   55.4723   30.0938   54.2448 H   0  0  0  0  0  0  0  0  0  0  0  0
   56.4775   28.8302   53.5271 H   0  0  0  0  0  0  0  0  0  0  0  0
   56.8744   30.8602   50.0455 H   0  0  0  0  0  0  0  0  0  0  0  0
   57.5706   32.4648   50.5693 H   0  0  0  0  0  0  0  0  0  0  0  0
   58.6362   29.6886   51.2354 H   0  0  0  0  0  0  0  0  0  0  0  0
   59.3991   30.9256   50.1885 H   0  0  0  0  0  0  0  0  0  0  0  0
   61.4540   30.8726   48.2571 H   0  0  0  0  0  0  0  0  0  0  0  0
   60.4314   31.3462   46.0437 H   0  0  0  0  0  0  0  0  0  0  0  0
   57.4282   31.9296   47.1379 H   0  0  0  0  0  0  0  0  0  0  0  0
   58.2193   33.9418   48.3911 H   0  0  0  0  0  0  0  0  0  0  0  0
   59.4109   35.7810   47.1928 H   0  0  0  0  0  0  0  0  0  0  0  0
   59.7885   35.6191   44.7267 H   0  0  0  0  0  0  0  0  0  0  0  0
   58.9701   33.6278   43.4635 H   0  0  0  0  0  0  0  0  0  0  0  0
  1  2  1  0
  2  3  2  0
  3  4  1  0
  4  5  1  0
  5  6  2  0
  5  7  1  0
  7  8  1  0
  8  9  1  0
  9 10  2  0
 10 11  1  0
 11 12  1  0
 12 13  1  0
 12 14  1  0
 12 15  1  0
 11 16  2  0
 16 17  1  0
 17 18  2  0
 18 19  1  0
 19 20  2  0
 19 21  1  0
 21 22  1  0
 22 23  1  0
 23 24  1  0
 24 25  1  0
 25 26  1  0
 26 27  1  0
 27 28  1  0
 28 29  1  0
 24 30  1  0
 30 31  1  0
  4 32  2  0
 32 33  1  0
 33 34  2  0
 34 35  1  0
 35 36  1  0
 36 37  2  0
 36 38  2  0
 36 39  1  0
 39 40  2  0
 40 41  1  0
 41 42  2  0
 42 43  1  0
 43 44  2  0
 34  2  1  0
 44 39  1  0
 18  9  1  0
 31 21  1  0
 29 25  1  0
  1 45  1  0
  1 46  1  0
  1 47  1  0
  3 48  1  0
  8 49  1  0
  8 50  1  0
 10 51  1  0
 16 52  1  0
 17 53  1  0
 22 54  1  0
 22 55  1  0
 23 56  1  0
 23 57  1  0
 24 58  1  0
 26 59  1  0
 26 60  1  0
 27 61  1  0
 27 62  1  0
 28 63  1  0
 28 64  1  0
 29 65  1  0
 29 66  1  0
 30 67  1  0
 30 68  1  0
 31 69  1  0
 31 70  1  0
 32 71  1  0
 33 72  1  0
 40 73  1  0
 41 74  1  0
 42 75  1  0
 43 76  1  0
 44 77  1  0
M  CHG  1   7  -1
M  END
>  <UniqueID>  (40) 
37

>  <SMILES>  (40) 
Cc1cc(C(=O)[N-]Cc2cc(C(F)(F)F)ccc2C(=O)N2CCC(N3CCCC3)CC2)ccc1OS(=O)(=O)c1ccccc1

>  <Energy>  (40) 
105.78538070531967

>  <Genealogy>  (40) 
Cc1cc(C(=O)[N-]Cc2cc(C(F)(F)F)ccc2C(=O)N2CCC(N3CCCC3)CC2)ccc1OS(=O)(=O)c1ccccc1 (protonated)
Cc1cc(C(=O)[N-]Cc2cc(C(F)(F)F)ccc2C(=O)N2CCC(N3CCCC3)CC2)ccc1OS(=O)(=O)c1ccccc1 (3D coordinates assigned)
Cc1cc(C(=O)[N-]Cc2cc(C(F)(F)F)ccc2C(=O)N2CCC(N3CCCC3)CC2)ccc1OS(=O)(=O)c1ccccc1 (nonaromatic ring conformer: 105.78538070531967 kcal/mol)

>  <smiles>  (40) 
Cc1cc(C(=O)NCc2cc(C(F)(F)F)ccc2C(=O)N2CCC(N3CCCC3)CC2)ccc1OS(=O)(=O)c1ccccc1

>  <score_type>  (40) 
oracle

>  <origin>  (40) 
adg

>  <m_score__min__energy>  (40) 
-12.35

>  <m_primary>  (40) 
energy

$$$$
40:0
     RDKit          3D

 50 53  0  0  0  0  0  0  0  0999 V2000
   60.1830   28.6430   44.9240 C   0  0  0  0  0  0  0  0  0  0  0  0
   58.9090   29.0240   45.0510 C   0  0  0  0  0  0  0  0  0  0  0  0
   58.4390   29.8340   46.2260 C   0  0  0  0  0  0  0  0  0  0  0  0
   58.6940   31.2650   46.0040 N   0  0  0  0  0  0  0  0  0  0  0  0
   57.7230   32.0590   45.2950 C   0  0  0  0  0  0  0  0  0  0  0  0
   56.6480   31.5440   44.8860 O   0  0  0  0  0  0  0  0  0  0  0  0
   57.9700   33.4390   45.0370 N   0  0  0  0  0  0  0  0  0  0  0  0
   59.1490   34.0900   45.5040 C   0  0  0  0  0  0  0  0  0  0  0  0
   59.3110   35.3130   45.2470 O   0  0  0  0  0  0  0  0  0  0  0  0
   60.1530   33.3340   46.2880 C   0  0  0  0  0  0  0  0  0  0  0  0
   61.2170   33.9860   46.8100 C   0  0  0  0  0  0  0  0  0  0  0  0
   61.9390   33.5800   48.0310 C   0  0  0  0  0  0  0  0  0  0  0  0
   63.2530   33.1590   48.0790 C   0  0  0  0  0  0  0  0  0  0  0  0
   63.4700   32.8540   49.4150 C   0  0  0  0  0  0  0  0  0  0  0  0
   64.7300   32.3720   50.0280 C   0  0  0  0  0  0  0  0  0  0  0  0
   64.7590   31.2130   50.8270 C   0  0  0  0  0  0  0  0  0  0  0  0
   65.9590   30.7740   51.3940 C   0  0  0  0  0  0  0  0  0  0  0  0
   67.1410   31.4830   51.1720 C   0  0  0  0  0  0  0  0  0  0  0  0
   67.1260   32.6330   50.3810 C   0  0  0  0  0  0  0  0  0  0  0  0
   65.9290   33.0790   49.8130 C   0  0  0  0  0  0  0  0  0  0  0  0
   62.3350   33.0720   50.1130 N   0  0  0  0  0  0  0  0  0  0  0  0
   61.4100   33.5080   49.2710 N   0  0  0  0  0  0  0  0  0  0  0  0
   60.0710   33.8430   49.6760 C   0  0  0  0  0  0  0  0  0  0  0  0
   59.5800   34.9620   49.3680 O   0  0  0  0  0  0  0  0  0  0  0  0
   59.2360   32.8740   50.4210 C   0  0  0  0  0  0  0  0  0  0  0  0
   59.1460   31.5470   49.9650 C   0  0  0  0  0  0  0  0  0  0  0  0
   58.3680   30.6130   50.6540 C   0  0  0  0  0  0  0  0  0  0  0  0
   57.6650   30.9950   51.7970 C   0  0  0  0  0  0  0  0  0  0  0  0
   57.7300   32.3150   52.2500 C   0  0  0  0  0  0  0  0  0  0  0  0
   58.5030   33.2630   51.5620 C   0  0  0  0  0  0  0  0  0  0  0  0
   58.5210   34.5880   51.9970 O   0  0  0  0  0  0  0  0  0  0  0  0
   59.9400   31.8630   46.4220 C   0  0  0  0  0  0  0  0  0  0  0  0
   60.8640   31.1230   46.8550 O   0  0  0  0  0  0  0  0  0  0  0  0
   60.4955   28.0503   44.0516 H   0  0  0  0  0  0  0  0  0  0  0  0
   60.9196   28.9219   45.6918 H   0  0  0  0  0  0  0  0  0  0  0  0
   58.1846   28.7371   44.2746 H   0  0  0  0  0  0  0  0  0  0  0  0
   57.3592   29.6766   46.3647 H   0  0  0  0  0  0  0  0  0  0  0  0
   58.9892   29.5108   47.1220 H   0  0  0  0  0  0  0  0  0  0  0  0
   61.5703   34.8859   46.2852 H   0  0  0  0  0  0  0  0  0  0  0  0
   63.9670   33.0826   47.2457 H   0  0  0  0  0  0  0  0  0  0  0  0
   63.8315   30.6494   51.0062 H   0  0  0  0  0  0  0  0  0  0  0  0
   65.9720   29.8674   52.0168 H   0  0  0  0  0  0  0  0  0  0  0  0
   68.0836   31.1356   51.6202 H   0  0  0  0  0  0  0  0  0  0  0  0
   68.0582   33.1896   50.2042 H   0  0  0  0  0  0  0  0  0  0  0  0
   65.9235   33.9883   49.1940 H   0  0  0  0  0  0  0  0  0  0  0  0
   59.6917   31.2421   49.0599 H   0  0  0  0  0  0  0  0  0  0  0  0
   58.3097   29.5750   50.2947 H   0  0  0  0  0  0  0  0  0  0  0  0
   57.0590   30.2562   52.3420 H   0  0  0  0  0  0  0  0  0  0  0  0
   57.1726   32.6127   53.1503 H   0  0  0  0  0  0  0  0  0  0  0  0
   58.7280   35.3530   51.3650 H   0  0  0  0  0  0  0  0  0  0  0  0
  1  2  2  0
  2  3  1  0
  3  4  1  0
  4  5  1  0
  5  6  2  0
  5  7  1  0
  7  8  1  0
  8  9  2  0
  8 10  1  0
 10 11  2  3
 11 12  1  0
 12 13  2  0
 13 14  1  0
 14 15  1  0
 15 16  2  0
 16 17  1  0
 17 18  2  0
 18 19  1  0
 19 20  2  0
 14 21  2  0
 21 22  1  0
 22 23  1  0
 23 24  2  0
 23 25  1  0
 25 26  2  0
 26 27  1  0
 27 28  2  0
 28 29  1  0
 29 30  2  0
 30 31  1  0
 10 32  1  0
 32 33  2  0
 32  4  1  0
 22 12  1  0
 30 25  1  0
 20 15  1  0
  1 34  1  0
  1 35  1  0
  2 36  1  0
  3 37  1  0
  3 38  1  0
 11 39  1  0
 13 40  1  0
 16 41  1  0
 17 42  1  0
 18 43  1  0
 19 44  1  0
 20 45  1  0
 26 46  1  0
 27 47  1  0
 28 48  1  0
 29 49  1  0
 31 50  1  0
M  CHG  1   7  -1
M  END
>  <UniqueID>  (41) 
38

>  <SMILES>  (41) 
C=CCN1C(=O)[N-]C(=O)C(=Cc2cc(-c3ccccc3)nn2C(=O)c2ccccc2O)C1=O

>  <Energy>  (41) 
98.30887845698236

>  <Genealogy>  (41) 
C=CCN1C(=O)[N-]C(=O)C(=Cc2cc(-c3ccccc3)nn2C(=O)c2ccccc2O)C1=O (protonated)
C=CCN1C(=O)[N-]C(=O)C(=Cc2cc(-c3ccccc3)nn2C(=O)c2ccccc2O)C1=O (3D coordinates assigned)
C=CCN1C(=O)[N-]C(=O)C(=Cc2cc(-c3ccccc3)nn2C(=O)c2ccccc2O)C1=O (nonaromatic ring conformer: 98.30887845698236 kcal/mol)

>  <smiles>  (41) 
C=CCN1C(=O)NC(=O)C(=Cc2cc(-c3ccccc3)nn2C(=O)c2ccccc2O)C1=O

>  <score_type>  (41) 
oracle

>  <origin>  (41) 
adg

>  <m_score__min__energy>  (41) 
-10.869999999999999

>  <m_primary>  (41) 
energy

$$$$
41:0
     RDKit          3D

 34 36  0  0  0  0  0  0  0  0999 V2000
   60.6510   29.9530   45.9400 C   0  0  0  0  0  0  0  0  0  0  0  0
   59.4880   29.3950   45.6020 C   0  0  0  0  0  0  0  0  0  0  0  0
   59.3630   28.0700   45.3540 N   0  0  0  0  0  0  0  0  0  0  0  0
   58.0680   27.9020   45.0060 C   0  0  0  0  0  0  0  0  0  0  0  0
   57.5670   26.6930   44.6990 C   0  0  0  0  0  0  0  0  0  0  0  0
   57.0320   25.7030   45.6560 C   0  0  0  0  0  0  0  0  0  0  0  0
   57.7230   24.6790   46.1890 N   0  0  0  0  0  0  0  0  0  0  0  0
   56.8540   24.1390   47.0700 C   0  0  0  0  0  0  0  0  0  0  0  0
   57.1360   23.1320   47.7700 O   0  0  0  0  0  0  0  0  0  0  0  0
   55.6620   24.7670   47.1490 N   0  0  0  0  0  0  0  0  0  0  0  0
   55.7980   25.7610   46.2560 C   0  0  0  0  0  0  0  0  0  0  0  0
   54.8110   26.7050   45.9960 O   0  0  0  0  0  0  0  0  0  0  0  0
   57.4360   29.1360   45.0660 C   0  0  0  0  0  0  0  0  0  0  0  0
   56.2150   29.3750   44.8640 O   0  0  0  0  0  0  0  0  0  0  0  0
   58.3230   30.0700   45.4480 N   0  0  0  0  0  0  0  0  0  0  0  0
   58.0760   31.4780   45.5960 C   0  0  0  0  0  0  0  0  0  0  0  0
   58.1520   32.0450   46.8770 C   0  0  0  0  0  0  0  0  0  0  0  0
   57.8360   33.3890   47.0780 C   0  0  0  0  0  0  0  0  0  0  0  0
   57.4370   34.1810   46.0010 C   0  0  0  0  0  0  0  0  0  0  0  0
   57.3690   33.6350   44.7180 C   0  0  0  0  0  0  0  0  0  0  0  0
   57.7060   32.2890   44.4920 C   0  0  0  0  0  0  0  0  0  0  0  0
   57.6800   31.7780   43.1020 C   0  0  0  0  0  0  0  0  0  0  0  0
   56.6610   30.7800   42.6420 C   0  0  0  0  0  0  0  0  0  0  0  0
   58.5550   32.1700   42.2820 O   0  0  0  0  0  0  0  0  0  0  0  0
   60.7067   31.0346   46.1327 H   0  0  0  0  0  0  0  0  0  0  0  0
   61.5547   29.3317   46.0261 H   0  0  0  0  0  0  0  0  0  0  0  0
   57.5542   26.4146   43.6349 H   0  0  0  0  0  0  0  0  0  0  0  0
   58.4634   31.4246   47.7303 H   0  0  0  0  0  0  0  0  0  0  0  0
   57.9015   33.8244   48.0861 H   0  0  0  0  0  0  0  0  0  0  0  0
   57.1756   35.2371   46.1630 H   0  0  0  0  0  0  0  0  0  0  0  0
   57.0483   34.2646   43.8749 H   0  0  0  0  0  0  0  0  0  0  0  0
   56.1843   30.3131   43.5165 H   0  0  0  0  0  0  0  0  0  0  0  0
   55.8970   31.2889   42.0359 H   0  0  0  0  0  0  0  0  0  0  0  0
   57.1538   30.0055   42.0359 H   0  0  0  0  0  0  0  0  0  0  0  0
  1  2  2  0
  2  3  1  0
  3  4  1  0
  4  5  2  3
  5  6  1  0
  6  7  1  0
  7  8  1  0
  8  9  2  0
  8 10  1  0
 10 11  1  0
 11 12  1  0
  4 13  1  0
 13 14  2  0
 13 15  1  0
 15 16  1  0
 16 17  2  0
 17 18  1  0
 18 19  2  0
 19 20  1  0
 20 21  2  0
 21 22  1  0
 22 23  1  0
 22 24  2  0
 15  2  1  0
 21 16  1  0
 11  6  2  0
  1 25  1  0
  1 26  1  0
  5 27  1  0
 17 28  1  0
 18 29  1  0
 19 30  1  0
 20 31  1  0
 23 32  1  0
 23 33  1  0
 23 34  1  0
M  CHG  4   3  -1   7  -1  10  -1  12  -1
M  END
>  <UniqueID>  (42) 
39

>  <SMILES>  (42) 
C=c1[n-]c(=Cc2[n-]c(=O)[n-]c2[O-])c(=O)n1-c1ccccc1C(C)=O

>  <Energy>  (42) 
114.49677662369562

>  <Genealogy>  (42) 
C=c1[n-]c(=Cc2[n-]c(=O)[n-]c2[O-])c(=O)n1-c1ccccc1C(C)=O (protonated)
C=c1[n-]c(=Cc2[n-]c(=O)[n-]c2[O-])c(=O)n1-c1ccccc1C(C)=O (3D coordinates assigned)
C=c1[n-]c(=Cc2[n-]c(=O)[n-]c2[O-])c(=O)n1-c1ccccc1C(C)=O (optimized conformer: 114.49677662369562 kcal/mol)

>  <smiles>  (42) 
C=c1[nH]c(=Cc2[nH]c(=O)[nH]c2O)c(=O)n1-c1ccccc1C(C)=O

>  <score_type>  (42) 
oracle

>  <origin>  (42) 
adg

>  <m_score__min__energy>  (42) 
-16.710000000000001

>  <m_primary>  (42) 
energy

$$$$
42:0
     RDKit          3D

 55 56  0  0  0  0  0  0  0  0999 V2000
   60.5030   29.9830   46.4960 O   0  0  0  0  0  0  0  0  0  0  0  0
   59.5250   29.8630   47.2840 C   0  0  0  0  0  0  0  0  0  0  0  0
   58.4570   28.8390   46.9760 C   0  0  0  0  0  0  0  0  0  0  0  0
   58.9980   27.4070   47.1030 C   0  0  0  0  0  0  0  0  0  0  0  0
   57.8990   26.4050   46.8700 C   0  0  0  0  0  0  0  0  0  0  0  0
   56.6400   26.8290   46.4080 C   0  0  0  0  0  0  0  0  0  0  0  0
   55.6300   25.8940   46.1540 C   0  0  0  0  0  0  0  0  0  0  0  0
   54.3850   26.3190   45.7020 O   0  0  0  0  0  0  0  0  0  0  0  0
   55.8740   24.5300   46.3520 C   0  0  0  0  0  0  0  0  0  0  0  0
   57.1300   24.1010   46.7950 C   0  0  0  0  0  0  0  0  0  0  0  0
   57.3740   22.7450   46.9750 O   0  0  0  0  0  0  0  0  0  0  0  0
   58.1400   25.0340   47.0510 C   0  0  0  0  0  0  0  0  0  0  0  0
   59.4260   30.7630   48.3990 N   0  0  0  0  0  0  0  0  0  0  0  0
   59.3410   32.2200   48.3210 C   0  0  0  0  0  0  0  0  0  0  0  0
   59.2210   32.8470   49.7250 C   0  0  0  0  0  0  0  0  0  0  0  0
   58.0730   32.2570   50.5640 C   0  0  0  0  0  0  0  0  0  0  0  0
   58.3390   30.8030   50.9910 C   0  0  0  0  0  0  0  0  0  0  0  0
   57.1300   30.1670   51.6990 C   0  0  0  0  0  0  0  0  0  0  0  0
   56.2140   31.2130   52.3480 C   0  0  0  0  0  0  0  0  0  0  0  0
   55.6670   30.7020   53.5990 N   0  0  0  0  0  0  0  0  0  0  0  0
   54.3190   30.2430   53.7460 C   0  0  0  0  0  0  0  0  0  0  0  0
   53.6350   30.5780   54.7550 O   0  0  0  0  0  0  0  0  0  0  0  0
   53.7210   29.3580   52.6960 C   0  0  0  0  0  0  0  0  0  0  0  0
   52.7830   30.1400   51.8170 C   0  0  0  0  0  0  0  0  0  0  0  0
   52.5810   29.7650   50.4780 C   0  0  0  0  0  0  0  0  0  0  0  0
   51.7340   30.5140   49.6540 C   0  0  0  0  0  0  0  0  0  0  0  0
   51.0840   31.6460   50.1590 C   0  0  0  0  0  0  0  0  0  0  0  0
   50.2390   32.3840   49.3370 O   0  0  0  0  0  0  0  0  0  0  0  0
   51.2880   32.0330   51.4890 C   0  0  0  0  0  0  0  0  0  0  0  0
   50.6400   33.1560   51.9980 O   0  0  0  0  0  0  0  0  0  0  0  0
   52.1390   31.2860   52.3150 C   0  0  0  0  0  0  0  0  0  0  0  0
   57.6224   28.9698   47.6805 H   0  0  0  0  0  0  0  0  0  0  0  0
   58.1214   28.9909   45.9395 H   0  0  0  0  0  0  0  0  0  0  0  0
   59.7923   27.2528   46.3578 H   0  0  0  0  0  0  0  0  0  0  0  0
   59.3977   27.2667   48.1182 H   0  0  0  0  0  0  0  0  0  0  0  0
   56.4484   27.8999   46.2456 H   0  0  0  0  0  0  0  0  0  0  0  0
   55.0783   23.7953   46.1593 H   0  0  0  0  0  0  0  0  0  0  0  0
   59.1271   24.6921   47.3955 H   0  0  0  0  0  0  0  0  0  0  0  0
   60.2470   32.6067   47.8315 H   0  0  0  0  0  0  0  0  0  0  0  0
   58.4442   32.4864   47.7424 H   0  0  0  0  0  0  0  0  0  0  0  0
   60.1663   32.6811   50.2625 H   0  0  0  0  0  0  0  0  0  0  0  0
   59.0034   33.9161   49.5848 H   0  0  0  0  0  0  0  0  0  0  0  0
   57.9448   32.8716   51.4672 H   0  0  0  0  0  0  0  0  0  0  0  0
   57.1677   32.2604   49.9391 H   0  0  0  0  0  0  0  0  0  0  0  0
   58.5756   30.2098   50.0954 H   0  0  0  0  0  0  0  0  0  0  0  0
   59.1773   30.8115   51.7031 H   0  0  0  0  0  0  0  0  0  0  0  0
   56.5474   29.5975   50.9599 H   0  0  0  0  0  0  0  0  0  0  0  0
   57.5142   29.5162   52.4983 H   0  0  0  0  0  0  0  0  0  0  0  0
   56.7931   32.1258   52.5515 H   0  0  0  0  0  0  0  0  0  0  0  0
   55.3849   31.4373   51.6608 H   0  0  0  0  0  0  0  0  0  0  0  0
   54.5266   28.9342   52.0784 H   0  0  0  0  0  0  0  0  0  0  0  0
   53.1569   28.5529   53.1895 H   0  0  0  0  0  0  0  0  0  0  0  0
   53.0916   28.8777   50.0754 H   0  0  0  0  0  0  0  0  0  0  0  0
   51.5787   30.2127   48.6075 H   0  0  0  0  0  0  0  0  0  0  0  0
   52.3036   31.5977   53.3570 H   0  0  0  0  0  0  0  0  0  0  0  0
  1  2  2  0
  2  3  1  0
  3  4  1  0
  4  5  1  0
  5  6  2  0
  6  7  1  0
  7  8  1  0
  7  9  2  0
  9 10  1  0
 10 11  1  0
 10 12  2  0
  2 13  1  0
 13 14  1  0
 14 15  1  0
 15 16  1  0
 16 17  1  0
 17 18  1  0
 18 19  1  0
 19 20  1  0
 20 21  1  0
 21 22  2  0
 21 23  1  0
 23 24  1  0
 24 25  2  0
 25 26  1  0
 26 27  2  0
 27 28  1  0
 27 29  1  0
 29 30  1  0
 29 31  2  0
 12  5  1  0
 31 24  1  0
  3 32  1  0
  3 33  1  0
  4 34  1  0
  4 35  1  0
  6 36  1  0
  9 37  1  0
 12 38  1  0
 14 39  1  0
 14 40  1  0
 15 41  1  0
 15 42  1  0
 16 43  1  0
 16 44  1  0
 17 45  1  0
 17 46  1  0
 18 47  1  0
 18 48  1  0
 19 49  1  0
 19 50  1  0
 23 51  1  0
 23 52  1  0
 25 53  1  0
 26 54  1  0
 31 55  1  0
M  CHG  6   8  -1  11  -1  13  -1  20  -1  28  -1  30  -1
M  END
>  <UniqueID>  (43) 
40

>  <SMILES>  (43) 
O=C(CCc1cc([O-])cc([O-])c1)[N-]CCCCCC[N-]C(=O)Cc1ccc([O-])c([O-])c1

>  <Energy>  (43) 
41.058707195729745

>  <Genealogy>  (43) 
O=C(CCc1cc([O-])cc([O-])c1)[N-]CCCCCC[N-]C(=O)Cc1ccc([O-])c([O-])c1 (protonated)
O=C(CCc1cc([O-])cc([O-])c1)[N-]CCCCCC[N-]C(=O)Cc1ccc([O-])c([O-])c1 (3D coordinates assigned)
O=C(CCc1cc([O-])cc([O-])c1)[N-]CCCCCC[N-]C(=O)Cc1ccc([O-])c([O-])c1 (optimized conformer: 41.058707195729745 kcal/mol)

>  <smiles>  (43) 
O=C(CCc1cc(O)cc(O)c1)NCCCCCCNC(=O)Cc1ccc(O)c(O)c1

>  <score_type>  (43) 
oracle

>  <origin>  (43) 
adg

>  <m_score__min__energy>  (43) 
-23.780000000000001

>  <m_primary>  (43) 
energy

$$$$
43:0
     RDKit          3D

 55 57  0  0  0  0  0  0  0  0999 V2000
   59.3850   28.6050   48.5470 C   0  0  0  0  0  0  0  0  0  0  0  0
   60.4010   29.5450   49.0420 N   0  0  0  0  0  0  0  0  0  0  0  0
   59.8160   30.5280   49.9880 C   0  0  0  0  0  0  0  0  0  0  0  0
   59.6220   31.9100   49.3490 C   0  0  0  0  0  0  0  0  0  0  0  0
   60.9120   32.4640   48.8880 N   0  0  0  0  0  0  0  0  0  0  0  0
   60.6380   33.7720   47.7590 S   0  0  0  0  0  0  0  0  0  0  0  0
   60.0420   34.9420   48.4920 O   0  0  0  0  0  0  0  0  0  0  0  0
   61.9490   34.2130   47.1690 O   0  0  0  0  0  0  0  0  0  0  0  0
   59.5510   33.2840   46.4570 C   0  0  0  0  0  0  0  0  0  0  0  0
   59.1070   34.2240   45.5150 C   0  0  0  0  0  0  0  0  0  0  0  0
   58.2210   33.8430   44.5050 C   0  0  0  0  0  0  0  0  0  0  0  0
   57.7610   32.5260   44.4350 C   0  0  0  0  0  0  0  0  0  0  0  0
   58.1850   31.5780   45.3820 C   0  0  0  0  0  0  0  0  0  0  0  0
   57.7150   30.2220   45.3450 N   0  0  0  0  0  0  0  0  0  0  0  0
   56.4100   29.8470   44.8880 C   0  0  0  0  0  0  0  0  0  0  0  0
   55.6190   30.7090   44.4170 O   0  0  0  0  0  0  0  0  0  0  0  0
   55.9850   28.4870   45.0310 N   0  0  0  0  0  0  0  0  0  0  0  0
   56.7960   27.4360   45.6430 C   0  0  2  0  0  0  0  0  0  0  0  0
   57.7830   26.8210   44.6270 C   0  0  0  0  0  0  0  0  0  0  0  0
   57.7770   25.3100   44.6280 C   0  0  0  0  0  0  0  0  0  0  0  0
   56.9650   24.6040   43.7250 C   0  0  0  0  0  0  0  0  0  0  0  0
   56.9800   23.2050   43.7120 C   0  0  0  0  0  0  0  0  0  0  0  0
   57.8030   22.5030   44.5980 C   0  0  0  0  0  0  0  0  0  0  0  0
   58.6130   23.1980   45.4990 C   0  0  0  0  0  0  0  0  0  0  0  0
   58.5990   24.5970   45.5180 C   0  0  0  0  0  0  0  0  0  0  0  0
   55.9010   26.3840   46.2340 C   0  0  0  0  0  0  0  0  0  0  0  0
   54.6870   26.3130   45.9040 O   0  0  0  0  0  0  0  0  0  0  0  0
   56.4250   25.4500   47.1170 O   0  0  0  0  0  0  0  0  0  0  0  0
   59.1040   31.9580   46.3700 C   0  0  0  0  0  0  0  0  0  0  0  0
   61.8420   31.4480   48.3400 C   0  0  0  0  0  0  0  0  0  0  0  0
   61.1220   30.1630   47.9060 C   0  0  0  0  0  0  0  0  0  0  0  0
   58.8752   28.1334   49.4001 H   0  0  0  0  0  0  0  0  0  0  0  0
   58.6498   29.1484   47.9353 H   0  0  0  0  0  0  0  0  0  0  0  0
   59.8697   27.8298   47.9353 H   0  0  0  0  0  0  0  0  0  0  0  0
   58.8381   30.1545   50.3259 H   0  0  0  0  0  0  0  0  0  0  0  0
   60.5159   30.6422   50.8289 H   0  0  0  0  0  0  0  0  0  0  0  0
   58.9423   31.8169   48.4892 H   0  0  0  0  0  0  0  0  0  0  0  0
   59.1974   32.5891   50.1030 H   0  0  0  0  0  0  0  0  0  0  0  0
   59.4580   35.2649   45.5721 H   0  0  0  0  0  0  0  0  0  0  0  0
   57.8846   34.5819   43.7628 H   0  0  0  0  0  0  0  0  0  0  0  0
   57.0649   32.2299   43.6364 H   0  0  0  0  0  0  0  0  0  0  0  0
   58.2670   29.4970   45.8590 H   0  0  0  0  0  0  0  0  0  0  0  0
   57.3983   27.8830   46.4477 H   0  0  0  0  0  0  0  0  0  0  0  0
   57.5108   27.1706   43.6202 H   0  0  0  0  0  0  0  0  0  0  0  0
   58.7936   27.1432   44.9183 H   0  0  0  0  0  0  0  0  0  0  0  0
   56.3158   25.1523   43.0265 H   0  0  0  0  0  0  0  0  0  0  0  0
   56.3428   22.6560   43.0031 H   0  0  0  0  0  0  0  0  0  0  0  0
   57.8125   21.4031   44.5854 H   0  0  0  0  0  0  0  0  0  0  0  0
   59.2622   22.6452   46.1940 H   0  0  0  0  0  0  0  0  0  0  0  0
   59.2340   25.1413   46.2325 H   0  0  0  0  0  0  0  0  0  0  0  0
   59.4779   31.2090   47.0836 H   0  0  0  0  0  0  0  0  0  0  0  0
   62.3567   31.8757   47.4670 H   0  0  0  0  0  0  0  0  0  0  0  0
   62.5510   31.1802   49.1373 H   0  0  0  0  0  0  0  0  0  0  0  0
   60.4003   30.4064   47.1124 H   0  0  0  0  0  0  0  0  0  0  0  0
   61.8739   29.4485   47.5398 H   0  0  0  0  0  0  0  0  0  0  0  0
  1  2  1  0
  2  3  1  0
  3  4  1  0
  4  5  1  0
  5  6  1  0
  6  7  2  0
  6  8  2  0
  6  9  1  0
  9 10  2  0
 10 11  1  0
 11 12  2  0
 12 13  1  0
 13 14  1  0
 14 15  1  0
 15 16  2  0
 15 17  1  0
 17 18  1  0
 18 19  1  0
 19 20  1  0
 20 21  2  0
 21 22  1  0
 22 23  2  0
 23 24  1  0
 24 25  2  0
 18 26  1  0
 26 27  2  0
 26 28  1  0
 13 29  2  0
  5 30  1  0
 30 31  1  0
 31  2  1  0
 29  9  1  0
 25 20  1  0
  1 32  1  0
  1 33  1  0
  1 34  1  0
  3 35  1  0
  3 36  1  0
  4 37  1  0
  4 38  1  0
 10 39  1  0
 11 40  1  0
 12 41  1  0
 14 42  1  0
 18 43  1  1
 19 44  1  0
 19 45  1  0
 21 46  1  0
 22 47  1  0
 23 48  1  0
 24 49  1  0
 25 50  1  0
 29 51  1  0
 30 52  1  0
 30 53  1  0
 31 54  1  0
 31 55  1  0
M  CHG  2  17  -1  28  -1
M  END
>  <UniqueID>  (44) 
41

>  <SMILES>  (44) 
CN1CCN(S(=O)(=O)c2cccc(NC(=O)[N-][C@H](Cc3ccccc3)C(=O)[O-])c2)CC1

>  <Energy>  (44) 
63.8598800401302

>  <Genealogy>  (44) 
CN1CCN(S(=O)(=O)c2cccc(NC(=O)[N-]C(Cc3ccccc3)C(=O)[O-])c2)CC1 (protonated)
CN1CCN(S(=O)(=O)c2cccc(NC(=O)[N-][C@H](Cc3ccccc3)C(=O)[O-])c2)CC1 (chirality)
CN1CCN(S(=O)(=O)c2cccc(NC(=O)[N-][C@H](Cc3ccccc3)C(=O)[O-])c2)CC1 (3D coordinates assigned)
CN1CCN(S(=O)(=O)c2cccc(NC(=O)[N-][C@H](Cc3ccccc3)C(=O)[O-])c2)CC1 (nonaromatic ring conformer: 63.8598800401302 kcal/mol)

>  <smiles>  (44) 
CN1CCN(S(=O)(=O)c2cccc(NC(=O)NC(Cc3ccccc3)C(=O)O)c2)CC1

>  <score_type>  (44) 
oracle

>  <origin>  (44) 
adg

>  <m_score__min__energy>  (44) 
-14.710000000000001

>  <m_primary>  (44) 
energy

$$$$
44:0
     RDKit          3D

 21 22  0  0  0  0  0  0  0  0999 V2000
   55.3709   29.2080   42.6209 H   0  0  0  0  0  0  0  0  0  0  0  0
   56.2720   29.7980   42.8440 C   0  0  0  0  0  0  0  0  0  0  0  0
   56.5551   30.6376   42.1921 H   0  0  0  0  0  0  0  0  0  0  0  0
   57.0200   29.4960   43.9030 C   0  0  0  0  0  0  0  0  0  0  0  0
   58.1690   30.1600   44.2850 C   0  0  0  0  0  0  0  0  0  0  0  0
   58.6363   31.0175   43.7787 H   0  0  0  0  0  0  0  0  0  0  0  0
   58.6130   29.5300   45.4310 C   0  0  0  0  0  0  0  0  0  0  0  0
   59.9400   30.1320   46.4130 Cl  0  0  0  0  0  0  0  0  0  0  0  0
   57.7130   28.4950   45.6980 C   0  0  0  0  0  0  0  0  0  0  0  0
   57.7170   27.6220   46.7200 C   0  0  0  0  0  0  0  0  0  0  0  0
   58.1494   27.9587   47.6738 H   0  0  0  0  0  0  0  0  0  0  0  0
   57.1880   26.2520   46.6610 C   0  0  0  0  0  0  0  0  0  0  0  0
   55.8940   25.8690   46.3780 C   0  0  0  0  0  0  0  0  0  0  0  0
   54.8620   26.7150   45.9940 O   0  0  0  0  0  0  0  0  0  0  0  0
   55.7450   24.5420   46.5570 N   0  0  0  0  0  0  0  0  0  0  0  0
   56.9710   24.1580   46.9760 C   0  0  0  0  0  0  0  0  0  0  0  0
   57.2500   22.9650   47.2670 O   0  0  0  0  0  0  0  0  0  0  0  0
   57.8610   25.1650   47.0680 N   0  0  0  0  0  0  0  0  0  0  0  0
   58.8520   25.1120   47.3940 H   0  0  0  0  0  0  0  0  0  0  0  0
   56.7410   28.4950   44.7610 N   0  0  0  0  0  0  0  0  0  0  0  0
   55.9260   27.8420   44.7060 H   0  0  0  0  0  0  0  0  0  0  0  0
  1  2  1  0
  2  3  1  0
  2  4  2  0
  4  5  1  0
  5  6  1  0
  5  7  2  0
  7  8  1  0
  7  9  1  0
  9 10  2  0
 10 11  1  0
 10 12  1  0
 12 13  2  0
 13 14  1  0
 13 15  1  0
 15 16  1  0
 16 17  2  0
 16 18  1  0
 18 19  1  0
  9 20  1  0
 20 21  1  0
 20  4  1  0
 18 12  1  0
M  CHG  2  14  -1  15  -1
M  END
>  <UniqueID>  (45) 
42

>  <SMILES>  (45) 
C=c1cc(Cl)/c(=C\c2[nH]c(=O)[n-]c2[O-])[nH]1

>  <Energy>  (45) 
88.00394234733274

>  <Genealogy>  (45) 
C=c1cc(Cl)c(=Cc2[nH]c(=O)[n-]c2[O-])[nH]1 (protonated)
C=c1cc(Cl)/c(=C\c2[nH]c(=O)[n-]c2[O-])[nH]1 (cis-trans isomerization)
C=c1cc(Cl)/c(=C\c2[nH]c(=O)[n-]c2[O-])[nH]1 (3D coordinates assigned)
C=c1cc(Cl)/c(=C\c2[nH]c(=O)[n-]c2[O-])[nH]1 (optimized conformer: 88.00394234733274 kcal/mol)

>  <smiles>  (45) 
C=c1cc(Cl)c(=Cc2[nH]c(=O)[nH]c2O)[nH]1

>  <score_type>  (45) 
oracle

>  <origin>  (45) 
adg

>  <m_score__min__energy>  (45) 
-13.109999999999999

>  <m_primary>  (45) 
energy

$$$$
45:0
     RDKit          3D

 56 58  0  0  0  0  0  0  0  0999 V2000
   60.3430   33.6220   45.9910 C   0  0  0  0  0  0  0  0  0  0  0  0
   59.0390   32.8200   45.9240 C   0  0  0  0  0  0  0  0  0  0  0  0
   59.1900   31.3390   46.3650 C   0  0  2  0  0  0  0  0  0  0  0  0
   58.3150   30.4240   45.4550 C   0  0  0  0  0  0  0  0  0  0  0  0
   58.3530   28.9840   45.7870 N   0  0  0  0  0  0  0  0  0  0  0  0
   57.1740   28.1900   45.5190 C   0  0  0  0  0  0  0  0  0  0  0  0
   56.1000   28.7580   45.1770 O   0  0  0  0  0  0  0  0  0  0  0  0
   57.1980   26.7140   45.5950 C   0  0  0  0  0  0  0  0  0  0  0  0
   58.4070   26.0360   45.3750 C   0  0  0  0  0  0  0  0  0  0  0  0
   58.4590   24.6430   45.4520 C   0  0  0  0  0  0  0  0  0  0  0  0
   57.3050   23.9120   45.7410 C   0  0  0  0  0  0  0  0  0  0  0  0
   56.0830   24.5710   45.9540 C   0  0  0  0  0  0  0  0  0  0  0  0
   54.8390   23.7720   46.2220 C   0  0  0  0  0  0  0  0  0  0  0  0
   56.0260   25.9760   45.8560 C   0  0  0  0  0  0  0  0  0  0  0  0
   54.8060   26.6330   46.0030 O   0  0  0  0  0  0  0  0  0  0  0  0
   59.3690   28.4380   46.6960 C   0  0  0  0  0  0  0  0  0  0  0  0
   58.9600   28.6830   48.1430 C   0  0  0  0  0  0  0  0  0  0  0  0
   59.2850   30.0800   48.5840 C   0  0  0  0  0  0  0  0  0  0  0  0
   60.0250   30.2570   49.5880 O   0  0  0  0  0  0  0  0  0  0  0  0
   58.8590   31.2120   47.8090 N   0  0  0  0  0  0  0  0  0  0  0  0
   58.2790   32.3420   48.5580 C   0  0  0  0  0  0  0  0  0  0  0  0
   59.2660   32.8780   49.5600 C   0  0  0  0  0  0  0  0  0  0  0  0
   60.5560   33.2580   49.1550 C   0  0  0  0  0  0  0  0  0  0  0  0
   61.4840   33.7090   50.0940 C   0  0  0  0  0  0  0  0  0  0  0  0
   61.1380   33.7810   51.4460 C   0  0  0  0  0  0  0  0  0  0  0  0
   59.8480   33.4020   51.8690 C   0  0  0  0  0  0  0  0  0  0  0  0
   59.4490   33.4550   53.2110 O   0  0  0  0  0  0  0  0  0  0  0  0
   58.4790   32.5900   53.7960 C   0  0  0  0  0  0  0  0  0  0  0  0
   58.9220   32.9530   50.9200 C   0  0  0  0  0  0  0  0  0  0  0  0
   60.6164   33.7901   47.0431 H   0  0  0  0  0  0  0  0  0  0  0  0
   61.1449   33.0608   45.4890 H   0  0  0  0  0  0  0  0  0  0  0  0
   60.2038   34.5908   45.4890 H   0  0  0  0  0  0  0  0  0  0  0  0
   58.3005   33.3036   46.5803 H   0  0  0  0  0  0  0  0  0  0  0  0
   58.7234   32.8096   44.8703 H   0  0  0  0  0  0  0  0  0  0  0  0
   60.2313   31.0062   46.2427 H   0  0  0  0  0  0  0  0  0  0  0  0
   57.2718   30.7638   45.5336 H   0  0  0  0  0  0  0  0  0  0  0  0
   58.7317   30.5143   44.4410 H   0  0  0  0  0  0  0  0  0  0  0  0
   59.3186   26.6053   45.1406 H   0  0  0  0  0  0  0  0  0  0  0  0
   59.4120   24.1198   45.2845 H   0  0  0  0  0  0  0  0  0  0  0  0
   57.3531   22.8148   45.8022 H   0  0  0  0  0  0  0  0  0  0  0  0
   54.6911   23.6770   47.3079 H   0  0  0  0  0  0  0  0  0  0  0  0
   53.9722   24.2827   45.7772 H   0  0  0  0  0  0  0  0  0  0  0  0
   54.9430   22.7713   45.7772 H   0  0  0  0  0  0  0  0  0  0  0  0
   59.4681   27.3561   46.5238 H   0  0  0  0  0  0  0  0  0  0  0  0
   60.3306   28.9363   46.5035 H   0  0  0  0  0  0  0  0  0  0  0  0
   57.8760   28.5222   48.2389 H   0  0  0  0  0  0  0  0  0  0  0  0
   59.5208   27.9836   48.7804 H   0  0  0  0  0  0  0  0  0  0  0  0
   58.0093   33.1422   47.8530 H   0  0  0  0  0  0  0  0  0  0  0  0
   57.3858   31.9896   49.0947 H   0  0  0  0  0  0  0  0  0  0  0  0
   60.8359   33.1998   48.0928 H   0  0  0  0  0  0  0  0  0  0  0  0
   62.4912   34.0089   49.7691 H   0  0  0  0  0  0  0  0  0  0  0  0
   61.8747   34.1346   52.1824 H   0  0  0  0  0  0  0  0  0  0  0  0
   58.5472   32.6508   54.8922 H   0  0  0  0  0  0  0  0  0  0  0  0
   57.4728   32.8961   53.4737 H   0  0  0  0  0  0  0  0  0  0  0  0
   58.6684   31.5555   53.4737 H   0  0  0  0  0  0  0  0  0  0  0  0
   57.9134   32.6555   51.2429 H   0  0  0  0  0  0  0  0  0  0  0  0
  1  2  1  0
  2  3  1  0
  3  4  1  0
  4  5  1  0
  5  6  1  0
  6  7  2  0
  6  8  1  0
  8  9  2  0
  9 10  1  0
 10 11  2  0
 11 12  1  0
 12 13  1  0
 12 14  2  0
 14 15  1  0
  5 16  1  0
 16 17  1  0
 17 18  1  0
 18 19  2  0
 18 20  1  0
 20 21  1  0
 21 22  1  0
 22 23  2  0
 23 24  1  0
 24 25  2  0
 25 26  1  0
 26 27  1  0
 27 28  1  0
 26 29  2  0
 20  3  1  0
 29 22  1  0
 14  8  1  0
  1 30  1  0
  1 31  1  0
  1 32  1  0
  2 33  1  0
  2 34  1  0
  3 35  1  1
  4 36  1  0
  4 37  1  0
  9 38  1  0
 10 39  1  0
 11 40  1  0
 13 41  1  0
 13 42  1  0
 13 43  1  0
 16 44  1  0
 16 45  1  0
 17 46  1  0
 17 47  1  0
 21 48  1  0
 21 49  1  0
 23 50  1  0
 24 51  1  0
 25 52  1  0
 28 53  1  0
 28 54  1  0
 28 55  1  0
 29 56  1  0
M  CHG  1  15  -1
M  END
>  <UniqueID>  (46) 
43

>  <SMILES>  (46) 
CC[C@@H]1CN(C(=O)c2cccc(C)c2[O-])CCC(=O)N1Cc1cccc(OC)c1

>  <Energy>  (46) 
70.32688737455727

>  <Genealogy>  (46) 
CCC1CN(C(=O)c2cccc(C)c2[O-])CCC(=O)N1Cc1cccc(OC)c1 (protonated)
CC[C@@H]1CN(C(=O)c2cccc(C)c2[O-])CCC(=O)N1Cc1cccc(OC)c1 (chirality)
CC[C@@H]1CN(C(=O)c2cccc(C)c2[O-])CCC(=O)N1Cc1cccc(OC)c1 (3D coordinates assigned)
CC[C@@H]1CN(C(=O)c2cccc(C)c2[O-])CCC(=O)N1Cc1cccc(OC)c1 (nonaromatic ring conformer: 70.32688737455727 kcal/mol)

>  <smiles>  (46) 
CCC1CN(C(=O)c2cccc(C)c2O)CCC(=O)N1Cc1cccc(OC)c1

>  <score_type>  (46) 
oracle

>  <origin>  (46) 
adg

>  <m_score__min__energy>  (46) 
-9.5999999999999996

>  <m_primary>  (46) 
energy

$$$$
46:0
     RDKit          3D

 55 58  0  0  0  0  0  0  0  0999 V2000
   59.0724   29.2585   48.7976 H   0  0  0  0  0  0  0  0  0  0  0  0
   58.8650   29.8240   49.7180 C   0  0  0  0  0  0  0  0  0  0  0  0
   58.6730   29.3170   50.9090 O   0  0  0  0  0  0  0  0  0  0  0  0
   58.4610   30.3260   51.7250 C   0  0  0  0  0  0  0  0  0  0  0  0
   58.2140   30.2030   52.9940 N   0  0  0  0  0  0  0  0  0  0  0  0
   56.9290   29.9510   53.5800 C   0  0  0  0  0  0  0  0  0  0  0  0
   56.4580   30.7960   54.3870 O   0  0  0  0  0  0  0  0  0  0  0  0
   56.2050   28.7400   53.3080 N   0  0  0  0  0  0  0  0  0  0  0  0
   56.6870   27.9410   52.8420 H   0  0  0  0  0  0  0  0  0  0  0  0
   54.8390   28.5240   53.7830 C   0  0  0  0  0  0  0  0  0  0  0  0
   54.5251   27.4999   53.5326 H   0  0  0  0  0  0  0  0  0  0  0  0
   54.8111   28.6699   54.8729 H   0  0  0  0  0  0  0  0  0  0  0  0
   53.9010   29.5040   53.1330 C   0  0  0  0  0  0  0  0  0  0  0  0
   54.1540   29.9870   51.8400 C   0  0  0  0  0  0  0  0  0  0  0  0
   55.0389   29.6364   51.2886 H   0  0  0  0  0  0  0  0  0  0  0  0
   53.2880   30.9110   51.2490 C   0  0  0  0  0  0  0  0  0  0  0  0
   53.4942   31.2810   50.2338 H   0  0  0  0  0  0  0  0  0  0  0  0
   52.1550   31.3710   51.9430 C   0  0  0  0  0  0  0  0  0  0  0  0
   51.2360   32.3510   51.3220 C   0  0  0  0  0  0  0  0  0  0  0  0
   50.6410   33.2090   52.0260 O   0  0  0  0  0  0  0  0  0  0  0  0
   51.0170   32.3370   49.9490 O   0  0  0  0  0  0  0  0  0  0  0  0
   51.9080   30.8890   53.2390 C   0  0  0  0  0  0  0  0  0  0  0  0
   51.0259   31.2417   53.7935 H   0  0  0  0  0  0  0  0  0  0  0  0
   52.7750   29.9640   53.8300 C   0  0  0  0  0  0  0  0  0  0  0  0
   52.5723   29.5958   54.8465 H   0  0  0  0  0  0  0  0  0  0  0  0
   58.4980   31.5230   51.1090 N   0  0  0  0  0  0  0  0  0  0  0  0
   58.7600   31.2010   49.8250 C   0  0  0  0  0  0  0  0  0  0  0  0
   58.8990   32.2010   48.7370 C   0  0  0  0  0  0  0  0  0  0  0  0
   59.3000   33.5140   49.0410 C   0  0  0  0  0  0  0  0  0  0  0  0
   59.5130   33.7917   50.0838 H   0  0  0  0  0  0  0  0  0  0  0  0
   59.4300   34.4680   48.0300 C   0  0  0  0  0  0  0  0  0  0  0  0
   59.7462   35.4916   48.2794 H   0  0  0  0  0  0  0  0  0  0  0  0
   59.1600   34.1270   46.7040 C   0  0  0  0  0  0  0  0  0  0  0  0
   59.2581   34.8848   45.9127 H   0  0  0  0  0  0  0  0  0  0  0  0
   58.7640   32.8220   46.3760 C   0  0  0  0  0  0  0  0  0  0  0  0
   58.4400   32.4580   44.9510 C   0  0  0  0  0  0  0  0  0  0  0  0
   57.4772   32.9109   44.6719 H   0  0  0  0  0  0  0  0  0  0  0  0
   59.2406   32.8346   44.2973 H   0  0  0  0  0  0  0  0  0  0  0  0
   58.3500   30.9990   44.7990 N   0  0  0  0  0  0  0  0  0  0  0  0
   57.0780   30.3730   44.5180 C   0  0  0  0  0  0  0  0  0  0  0  0
   56.0190   31.0580   44.5120 O   0  0  0  0  0  0  0  0  0  0  0  0
   57.0040   28.9250   44.1300 C   0  0  0  0  0  0  0  0  0  0  0  0
   57.0567   28.8466   43.0341 H   0  0  0  0  0  0  0  0  0  0  0  0
   56.0558   28.5167   44.5097 H   0  0  0  0  0  0  0  0  0  0  0  0
   58.1490   28.1160   44.7400 C   0  0  0  0  0  0  0  0  0  0  0  0
   58.1716   27.1175   44.2791 H   0  0  0  0  0  0  0  0  0  0  0  0
   57.9846   28.0313   45.8243 H   0  0  0  0  0  0  0  0  0  0  0  0
   59.4880   28.8110   44.4980 C   0  0  0  0  0  0  0  0  0  0  0  0
   59.6360   28.9486   43.4167 H   0  0  0  0  0  0  0  0  0  0  0  0
   60.2957   28.1887   44.9109 H   0  0  0  0  0  0  0  0  0  0  0  0
   59.5060   30.1770   45.1890 C   0  0  0  0  0  0  0  0  0  0  0  0
   60.4296   30.7055   44.9102 H   0  0  0  0  0  0  0  0  0  0  0  0
   59.4589   30.0124   46.2756 H   0  0  0  0  0  0  0  0  0  0  0  0
   58.6320   31.8640   47.3970 C   0  0  0  0  0  0  0  0  0  0  0  0
   58.3168   30.8406   47.1456 H   0  0  0  0  0  0  0  0  0  0  0  0
  1  2  1  0
  2  3  1  0
  3  4  1  0
  4  5  2  0
  5  6  1  0
  6  7  2  0
  6  8  1  0
  8  9  1  0
  8 10  1  0
 10 11  1  0
 10 12  1  0
 10 13  1  0
 13 14  2  0
 14 15  1  0
 14 16  1  0
 16 17  1  0
 16 18  2  0
 18 19  1  0
 19 20  2  0
 19 21  1  0
 18 22  1  0
 22 23  1  0
 22 24  2  0
 24 25  1  0
  4 26  1  0
 26 27  1  0
 27 28  1  0
 28 29  2  0
 29 30  1  0
 29 31  1  0
 31 32  1  0
 31 33  2  0
 33 34  1  0
 33 35  1  0
 35 36  1  0
 36 37  1  0
 36 38  1  0
 36 39  1  0
 39 40  1  0
 40 41  2  0
 40 42  1  0
 42 43  1  0
 42 44  1  0
 42 45  1  0
 45 46  1  0
 45 47  1  0
 45 48  1  0
 48 49  1  0
 48 50  1  0
 48 51  1  0
 51 52  1  0
 51 53  1  0
 35 54  2  0
 54 55  1  0
 27  2  2  0
 54 28  1  0
 24 13  1  0
 51 39  1  0
M  CHG  2  21  -1  26  -1
M  END
>  <UniqueID>  (47) 
44

>  <SMILES>  (47) 
O=C(/N=c1/[n-]c(-c2cccc(CN3CCCCC3=O)c2)co1)NCc1ccc(C(=O)[O-])cc1

>  <Energy>  (47) 
86.9452934939323

>  <Genealogy>  (47) 
O=C(N=c1[n-]c(-c2cccc(CN3CCCCC3=O)c2)co1)NCc1ccc(C(=O)[O-])cc1 (protonated)
O=C(/N=c1/[n-]c(-c2cccc(CN3CCCCC3=O)c2)co1)NCc1ccc(C(=O)[O-])cc1 (cis-trans isomerization)
O=C(/N=c1/[n-]c(-c2cccc(CN3CCCCC3=O)c2)co1)NCc1ccc(C(=O)[O-])cc1 (3D coordinates assigned)
O=C(/N=c1/[n-]c(-c2cccc(CN3CCCCC3=O)c2)co1)NCc1ccc(C(=O)[O-])cc1 (nonaromatic ring conformer: 86.9452934939323 kcal/mol)

>  <smiles>  (47) 
O=C(N=c1[nH]c(-c2cccc(CN3CCCCC3=O)c2)co1)NCc1ccc(C(=O)O)cc1

>  <score_type>  (47) 
oracle

>  <origin>  (47) 
adg

>  <m_score__min__energy>  (47) 
-15.31

>  <m_primary>  (47) 
energy

$$$$
47:0
     RDKit          3D

 48 50  0  0  1  0  0  0  0  0999 V2000
   56.4370   24.0890   44.1210 C   0  0  0  0  0  0  0  0  0  0  0  0
   56.4480   24.3980   45.6040 C   0  0  0  0  0  0  0  0  0  0  0  0
   56.1670   25.8300   45.8150 C   0  0  0  0  0  0  0  0  0  0  0  0
   55.0160   26.3070   45.9990 O   0  0  0  0  0  0  0  0  0  0  0  0
   57.2610   26.7520   45.8150 N   0  0  0  0  0  0  0  0  0  0  0  0
   57.1260   27.9820   45.5620 C   0  0  0  0  0  0  0  0  0  0  0  0
   56.0750   28.7110   45.1110 N   0  0  0  0  0  0  0  0  0  0  0  0
   56.3020   29.9550   44.9670 N   0  0  0  0  0  0  0  0  0  0  0  0
   57.3010   30.5980   45.1660 C   0  0  0  0  0  0  0  0  0  0  0  0
   57.8410   32.2630   45.0460 S   0  0  0  0  0  0  0  0  0  0  0  0
   56.5620   33.0600   45.0630 O   0  0  0  0  0  0  0  0  0  0  0  0
   58.5330   32.4950   43.7250 O   0  0  0  0  0  0  0  0  0  0  0  0
   58.8090   32.7310   46.3280 N   0  0  0  0  0  0  0  0  0  0  0  0
   58.2960   32.5840   47.6340 C   0  0  0  0  0  0  0  0  0  0  0  0
   58.9590   31.5310   48.4600 C   0  0  0  0  0  0  0  0  0  0  0  0
   59.9760   30.7370   47.9170 C   0  0  0  0  0  0  0  0  0  0  0  0
   60.6120   29.7620   48.6570 C   0  0  0  0  0  0  0  0  0  0  0  0
   60.2730   29.5280   49.9590 C   0  0  0  0  0  0  0  0  0  0  0  0
   59.2740   30.2960   50.5200 C   0  0  0  0  0  0  0  0  0  0  0  0
   58.6380   31.2770   49.7710 C   0  0  0  0  0  0  0  0  0  0  0  0
   59.8360   33.6480   46.0700 C   0  0  0  0  0  0  0  0  0  0  0  0
   60.8960   33.6280   47.0890 C   0  0  0  0  0  0  0  0  0  0  0  0
   60.8620   34.2240   48.3160 C   0  0  0  0  0  0  0  0  0  0  0  0
   61.9320   34.1570   49.2170 C   0  0  0  0  0  0  0  0  0  0  0  0
   63.0790   33.4790   48.8950 C   0  0  0  0  0  0  0  0  0  0  0  0
   64.4110   33.3960   50.0140 Cl  0  0  0  0  0  0  0  0  0  0  0  0
   63.1330   32.8730   47.6620 C   0  0  0  0  0  0  0  0  0  0  0  0
   62.0730   32.9400   46.7740 C   0  0  0  0  0  0  0  0  0  0  0  0
   58.4510   29.2470   45.7550 S   0  0  0  0  0  0  0  0  0  0  0  0
   56.3982   22.9996   43.9737 H   0  0  0  0  0  0  0  0  0  0  0  0
   55.5548   24.5535   43.6562 H   0  0  0  0  0  0  0  0  0  0  0  0
   57.3500   24.4896   43.6562 H   0  0  0  0  0  0  0  0  0  0  0  0
   55.6781   23.7960   46.1087 H   0  0  0  0  0  0  0  0  0  0  0  0
   57.4373   24.1557   46.0194 H   0  0  0  0  0  0  0  0  0  0  0  0
   55.1550   28.2040   44.9140 H   0  0  0  0  0  0  0  0  0  0  0  0
   58.4083   33.5465   48.1546 H   0  0  0  0  0  0  0  0  0  0  0  0
   57.2487   32.2683   47.5181 H   0  0  0  0  0  0  0  0  0  0  0  0
   60.2765   30.8950   46.8707 H   0  0  0  0  0  0  0  0  0  0  0  0
   61.4068   29.1620   48.1898 H   0  0  0  0  0  0  0  0  0  0  0  0
   60.7826   28.7484   50.5443 H   0  0  0  0  0  0  0  0  0  0  0  0
   58.9795   30.1303   51.5668 H   0  0  0  0  0  0  0  0  0  0  0  0
   57.8459   31.8742   50.2463 H   0  0  0  0  0  0  0  0  0  0  0  0
   60.2835   33.4072   45.0944 H   0  0  0  0  0  0  0  0  0  0  0  0
   59.3890   34.6530   46.0810 H   0  0  0  0  0  0  0  0  0  0  0  0
   59.9586   34.7789   48.6090 H   0  0  0  0  0  0  0  0  0  0  0  0
   61.8511   34.6544   50.1948 H   0  0  0  0  0  0  0  0  0  0  0  0
   64.0403   32.3217   47.3742 H   0  0  0  0  0  0  0  0  0  0  0  0
   62.1581   32.4405   45.7976 H   0  0  0  0  0  0  0  0  0  0  0  0
  1  2  1  0
  2  3  1  0
  3  4  2  0
  3  5  1  0
  5  6  2  0
  6  7  1  0
  7  8  1  0
  8  9  2  0
  9 10  1  0
 10 11  2  0
 10 12  2  0
 10 13  1  0
 13 14  1  0
 14 15  1  0
 15 16  2  0
 16 17  1  0
 17 18  2  0
 18 19  1  0
 19 20  2  0
 13 21  1  0
 21 22  1  0
 22 23  2  0
 23 24  1  0
 24 25  2  0
 25 26  1  0
 25 27  1  0
 27 28  2  0
  9 29  1  0
 29  6  1  0
 20 15  1  0
 28 22  1  0
  1 30  1  0
  1 31  1  0
  1 32  1  0
  2 33  1  0
  2 34  1  0
  7 35  1  0
 14 36  1  0
 14 37  1  0
 16 38  1  0
 17 39  1  0
 18 40  1  0
 19 41  1  0
 20 42  1  0
 21 43  1  0
 21 44  1  0
 23 45  1  0
 24 46  1  0
 27 47  1  0
 28 48  1  0
M  END
>  <smiles>  (48) 
CCC(=O)N=c1[nH]nc(S(=O)(=O)N(Cc2ccccc2)Cc2ccc(Cl)cc2)s1

>  <score_type>  (48) 
oracle

>  <origin>  (48) 
adg

>  <m_score__min__energy>  (48) 
-9.8800000000000008

>  <m_primary>  (48) 
energy

$$$$
48:0
     RDKit          3D

 48 50  0  0  0  0  0  0  0  0999 V2000
   57.8900   33.3680   43.7530 C   0  0  0  0  0  0  0  0  0  0  0  0
   58.4410   33.5860   45.1310 C   0  0  0  0  0  0  0  0  0  0  0  0
   59.7980   33.8880   45.3100 C   0  0  0  0  0  0  0  0  0  0  0  0
   60.3180   34.0610   46.5970 C   0  0  0  0  0  0  0  0  0  0  0  0
   59.4860   33.9430   47.7160 C   0  0  0  0  0  0  0  0  0  0  0  0
   60.0500   34.1290   49.0190 N   0  0  0  0  0  0  0  0  0  0  0  0
   60.8380   33.1880   49.7630 C   0  0  0  0  0  0  0  0  0  0  0  0
   62.0340   33.4840   50.0250 O   0  0  0  0  0  0  0  0  0  0  0  0
   60.2910   31.8800   50.2830 C   0  0  0  0  0  0  0  0  0  0  0  0
   59.2480   31.3220   49.4180 N   0  0  0  0  0  0  0  0  0  0  0  0
   59.4870   30.7600   48.1100 C   0  0  0  0  0  0  0  0  0  0  0  0
   58.4060   30.4280   47.2710 C   0  0  0  0  0  0  0  0  0  0  0  0
   58.6260   29.9260   45.9840 C   0  0  0  0  0  0  0  0  0  0  0  0
   57.2770   29.6390   44.8880 S   0  0  0  0  0  0  0  0  0  0  0  0
   56.4640   30.8970   44.7770 O   0  0  0  0  0  0  0  0  0  0  0  0
   57.7630   29.2540   43.5170 O   0  0  0  0  0  0  0  0  0  0  0  0
   56.2850   28.3680   45.5240 N   0  0  0  0  0  0  0  0  0  0  0  0
   56.7270   27.0280   45.7860 C   0  0  0  0  0  0  0  0  0  0  0  0
   58.0930   26.6900   45.8350 C   0  0  0  0  0  0  0  0  0  0  0  0
   58.4850   25.3770   46.1110 C   0  0  0  0  0  0  0  0  0  0  0  0
   57.5220   24.3900   46.3340 C   0  0  0  0  0  0  0  0  0  0  0  0
   56.1650   24.7130   46.2750 C   0  0  0  0  0  0  0  0  0  0  0  0
   55.7660   26.0270   46.0010 C   0  0  0  0  0  0  0  0  0  0  0  0
   54.4110   26.3350   45.9500 O   0  0  0  0  0  0  0  0  0  0  0  0
   59.9310   29.7120   45.5360 C   0  0  0  0  0  0  0  0  0  0  0  0
   61.0120   30.0130   46.3630 C   0  0  0  0  0  0  0  0  0  0  0  0
   60.8080   30.5530   47.6370 C   0  0  0  0  0  0  0  0  0  0  0  0
   61.9370   30.8960   48.3850 O   0  0  0  0  0  0  0  0  0  0  0  0
   58.1380   33.5940   47.5410 C   0  0  0  0  0  0  0  0  0  0  0  0
   57.6170   33.4180   46.2560 C   0  0  0  0  0  0  0  0  0  0  0  0
   56.8694   32.9642   43.8258 H   0  0  0  0  0  0  0  0  0  0  0  0
   57.8678   34.3251   43.2113 H   0  0  0  0  0  0  0  0  0  0  0  0
   58.5287   32.6548   43.2113 H   0  0  0  0  0  0  0  0  0  0  0  0
   60.4567   33.9894   44.4349 H   0  0  0  0  0  0  0  0  0  0  0  0
   61.3855   34.2908   46.7300 H   0  0  0  0  0  0  0  0  0  0  0  0
   61.1160   31.1557   50.3523 H   0  0  0  0  0  0  0  0  0  0  0  0
   59.8390   32.0753   51.2667 H   0  0  0  0  0  0  0  0  0  0  0  0
   58.2710   31.3820   49.7800 H   0  0  0  0  0  0  0  0  0  0  0  0
   57.3760   30.5651   47.6320 H   0  0  0  0  0  0  0  0  0  0  0  0
   58.8550   27.4627   45.6553 H   0  0  0  0  0  0  0  0  0  0  0  0
   59.5539   25.1205   46.1527 H   0  0  0  0  0  0  0  0  0  0  0  0
   57.8328   23.3584   46.5561 H   0  0  0  0  0  0  0  0  0  0  0  0
   55.4075   23.9335   46.4441 H   0  0  0  0  0  0  0  0  0  0  0  0
   60.1063   29.3053   44.5291 H   0  0  0  0  0  0  0  0  0  0  0  0
   62.0365   29.8238   46.0099 H   0  0  0  0  0  0  0  0  0  0  0  0
   62.1880   31.8440   48.6260 H   0  0  0  0  0  0  0  0  0  0  0  0
   57.4889   33.4584   48.4186 H   0  0  0  0  0  0  0  0  0  0  0  0
   56.5589   33.1472   46.1254 H   0  0  0  0  0  0  0  0  0  0  0  0
  1  2  1  0
  2  3  2  0
  3  4  1  0
  4  5  2  0
  5  6  1  0
  6  7  1  0
  7  8  2  0
  7  9  1  0
  9 10  1  0
 10 11  1  0
 11 12  2  0
 12 13  1  0
 13 14  1  0
 14 15  2  0
 14 16  2  0
 14 17  1  0
 17 18  1  0
 18 19  2  0
 19 20  1  0
 20 21  2  0
 21 22  1  0
 22 23  2  0
 23 24  1  0
 13 25  2  0
 25 26  1  0
 26 27  2  0
 27 28  1  0
  5 29  1  0
 29 30  2  0
 30  2  1  0
 27 11  1  0
 23 18  1  0
  1 31  1  0
  1 32  1  0
  1 33  1  0
  3 34  1  0
  4 35  1  0
  9 36  1  0
  9 37  1  0
 10 38  1  0
 12 39  1  0
 19 40  1  0
 20 41  1  0
 21 42  1  0
 22 43  1  0
 25 44  1  0
 26 45  1  0
 28 46  1  0
 29 47  1  0
 30 48  1  0
M  CHG  3   6  -1  17  -1  24  -1
M  END
>  <UniqueID>  (49) 
45

>  <SMILES>  (49) 
Cc1ccc([N-]C(=O)CNc2cc(S(=O)(=O)[N-]c3ccccc3[O-])ccc2O)cc1

>  <Energy>  (49) 
56.6166719991861

>  <Genealogy>  (49) 
Cc1ccc([N-]C(=O)CNc2cc(S(=O)(=O)[N-]c3ccccc3[O-])ccc2O)cc1 (protonated)
Cc1ccc([N-]C(=O)CNc2cc(S(=O)(=O)[N-]c3ccccc3[O-])ccc2O)cc1 (3D coordinates assigned)
Cc1ccc([N-]C(=O)CNc2cc(S(=O)(=O)[N-]c3ccccc3[O-])ccc2O)cc1 (optimized conformer: 56.6166719991861 kcal/mol)

>  <smiles>  (49) 
Cc1ccc(NC(=O)CNc2cc(S(=O)(=O)Nc3ccccc3O)ccc2O)cc1

>  <score_type>  (49) 
oracle

>  <origin>  (49) 
adg

>  <m_score__min__energy>  (49) 
-14.859999999999999

>  <m_primary>  (49) 
energy

$$$$
49:0
     RDKit          3D

 59 61  0  0  0  0  0  0  0  0999 V2000
   57.8350   21.4510   44.0580 C   0  0  0  0  0  0  0  0  0  0  0  0
   56.4220   21.8940   43.8590 C   0  0  0  0  0  0  0  0  0  0  0  0
   55.9590   21.9890   42.6900 O   0  0  0  0  0  0  0  0  0  0  0  0
   55.6140   22.2420   44.9930 N   0  0  0  0  0  0  0  0  0  0  0  0
   54.3740   23.0100   44.8760 C   0  0  0  0  0  0  0  0  0  0  0  0
   54.3000   24.0810   45.9740 C   0  0  0  0  0  0  0  0  0  0  0  0
   55.1160   23.6900   47.1210 N   0  0  0  0  0  0  0  0  0  0  0  0
   56.5480   23.7260   47.1100 C   0  0  0  0  0  0  0  0  0  0  0  0
   57.1990   22.7830   47.6390 O   0  0  0  0  0  0  0  0  0  0  0  0
   57.2590   24.8920   46.5330 C   0  0  0  0  0  0  0  0  0  0  0  0
   58.6390   24.8230   46.2660 C   0  0  0  0  0  0  0  0  0  0  0  0
   59.3340   25.9570   45.8340 C   0  0  0  0  0  0  0  0  0  0  0  0
   58.6710   27.1790   45.6790 C   0  0  0  0  0  0  0  0  0  0  0  0
   59.4120   28.3040   45.2940 O   0  0  0  0  0  0  0  0  0  0  0  0
   59.0530   29.6420   45.5260 C   0  0  0  0  0  0  0  0  0  0  0  0
   58.5020   30.3720   44.4670 C   0  0  0  0  0  0  0  0  0  0  0  0
   58.1770   31.7230   44.6290 C   0  0  0  0  0  0  0  0  0  0  0  0
   58.4150   32.3670   45.8510 C   0  0  0  0  0  0  0  0  0  0  0  0
   58.1070   33.8050   45.9940 C   0  0  0  0  0  0  0  0  0  0  0  0
   56.9760   34.2160   45.6090 O   0  0  0  0  0  0  0  0  0  0  0  0
   59.0670   34.7510   46.5220 N   0  0  0  0  0  0  0  0  0  0  0  0
   59.6430   35.7450   45.6080 C   0  0  0  0  0  0  0  0  0  0  0  0
   59.5650   34.6620   47.9080 C   0  0  0  0  0  0  0  0  0  0  0  0
   60.9960   34.1850   47.9380 C   0  0  0  0  0  0  0  0  0  0  0  0
   61.7230   34.2090   49.1410 C   0  0  0  0  0  0  0  0  0  0  0  0
   63.0550   33.7820   49.1680 C   0  0  0  0  0  0  0  0  0  0  0  0
   63.6690   33.3240   47.9990 C   0  0  0  0  0  0  0  0  0  0  0  0
   62.9500   33.2910   46.7990 C   0  0  0  0  0  0  0  0  0  0  0  0
   61.6180   33.7170   46.7650 C   0  0  0  0  0  0  0  0  0  0  0  0
   58.9410   31.6320   46.9240 C   0  0  0  0  0  0  0  0  0  0  0  0
   59.2780   30.2860   46.7580 C   0  0  0  0  0  0  0  0  0  0  0  0
   57.2810   27.2390   45.8810 C   0  0  0  0  0  0  0  0  0  0  0  0
   56.5820   26.1070   46.3120 C   0  0  0  0  0  0  0  0  0  0  0  0
   58.0500   21.3836   45.1347 H   0  0  0  0  0  0  0  0  0  0  0  0
   57.9790   20.4646   43.5929 H   0  0  0  0  0  0  0  0  0  0  0  0
   58.5163   22.1786   43.5929 H   0  0  0  0  0  0  0  0  0  0  0  0
   56.0010   22.0860   45.9520 H   0  0  0  0  0  0  0  0  0  0  0  0
   54.3422   23.4985   43.8909 H   0  0  0  0  0  0  0  0  0  0  0  0
   53.5197   22.3261   44.9875 H   0  0  0  0  0  0  0  0  0  0  0  0
   54.6705   25.0365   45.5742 H   0  0  0  0  0  0  0  0  0  0  0  0
   53.2546   24.1879   46.2990 H   0  0  0  0  0  0  0  0  0  0  0  0
   59.1743   23.8711   46.3979 H   0  0  0  0  0  0  0  0  0  0  0  0
   60.4096   25.8876   45.6145 H   0  0  0  0  0  0  0  0  0  0  0  0
   58.3230   29.8798   43.4997 H   0  0  0  0  0  0  0  0  0  0  0  0
   57.7323   32.2828   43.7930 H   0  0  0  0  0  0  0  0  0  0  0  0
   60.1106   36.5519   46.1913 H   0  0  0  0  0  0  0  0  0  0  0  0
   60.4021   35.2636   44.9739 H   0  0  0  0  0  0  0  0  0  0  0  0
   58.8479   36.1642   44.9739 H   0  0  0  0  0  0  0  0  0  0  0  0
   59.5071   35.6559   48.3757 H   0  0  0  0  0  0  0  0  0  0  0  0
   58.9432   33.9407   48.4585 H   0  0  0  0  0  0  0  0  0  0  0  0
   61.2428   34.5648   50.0645 H   0  0  0  0  0  0  0  0  0  0  0  0
   63.6203   33.8068   50.1113 H   0  0  0  0  0  0  0  0  0  0  0  0
   64.7167   32.9897   48.0222 H   0  0  0  0  0  0  0  0  0  0  0  0
   63.4336   32.9290   45.8797 H   0  0  0  0  0  0  0  0  0  0  0  0
   61.0556   33.6862   45.8201 H   0  0  0  0  0  0  0  0  0  0  0  0
   59.0888   32.1172   47.9001 H   0  0  0  0  0  0  0  0  0  0  0  0
   59.7216   29.7262   47.5946 H   0  0  0  0  0  0  0  0  0  0  0  0
   56.7411   28.1800   45.6993 H   0  0  0  0  0  0  0  0  0  0  0  0
   55.4964   26.1660   46.4795 H   0  0  0  0  0  0  0  0  0  0  0  0
  1  2  1  0
  2  3  2  0
  2  4  1  0
  4  5  1  0
  5  6  1  0
  6  7  1  0
  7  8  1  0
  8  9  2  0
  8 10  1  0
 10 11  2  0
 11 12  1  0
 12 13  2  0
 13 14  1  0
 14 15  1  0
 15 16  2  0
 16 17  1  0
 17 18  2  0
 18 19  1  0
 19 20  2  0
 19 21  1  0
 21 22  1  0
 21 23  1  0
 23 24  1  0
 24 25  2  0
 25 26  1  0
 26 27  2  0
 27 28  1  0
 28 29  2  0
 18 30  1  0
 30 31  2  0
 13 32  1  0
 32 33  2  0
 33 10  1  0
 31 15  1  0
 29 24  1  0
  1 34  1  0
  1 35  1  0
  1 36  1  0
  4 37  1  0
  5 38  1  0
  5 39  1  0
  6 40  1  0
  6 41  1  0
 11 42  1  0
 12 43  1  0
 16 44  1  0
 17 45  1  0
 22 46  1  0
 22 47  1  0
 22 48  1  0
 23 49  1  0
 23 50  1  0
 25 51  1  0
 26 52  1  0
 27 53  1  0
 28 54  1  0
 29 55  1  0
 30 56  1  0
 31 57  1  0
 32 58  1  0
 33 59  1  0
M  CHG  1   7  -1
M  END
>  <UniqueID>  (50) 
46

>  <SMILES>  (50) 
CC(=O)NCC[N-]C(=O)c1ccc(Oc2ccc(C(=O)N(C)Cc3ccccc3)cc2)cc1

>  <Energy>  (50) 
63.65267456005581

>  <Genealogy>  (50) 
CC(=O)NCC[N-]C(=O)c1ccc(Oc2ccc(C(=O)N(C)Cc3ccccc3)cc2)cc1 (protonated)
CC(=O)NCC[N-]C(=O)c1ccc(Oc2ccc(C(=O)N(C)Cc3ccccc3)cc2)cc1 (3D coordinates assigned)
CC(=O)NCC[N-]C(=O)c1ccc(Oc2ccc(C(=O)N(C)Cc3ccccc3)cc2)cc1 (optimized conformer: 63.65267456005581 kcal/mol)

>  <smiles>  (50) 
CC(=O)NCCNC(=O)c1ccc(Oc2ccc(C(=O)N(C)Cc3ccccc3)cc2)cc1

>  <score_type>  (50) 
oracle

>  <origin>  (50) 
adg

>  <m_score__min__energy>  (50) 
-10.57

>  <m_primary>  (50) 
energy

$$$$
50:0
     RDKit          3D

 73 77  0  0  0  0  0  0  0  0999 V2000
   53.1110   28.4830   54.1310 C   0  0  0  0  0  0  0  0  0  0  0  0
   54.0990   28.9920   53.3800 C   0  0  0  0  0  0  0  0  0  0  0  0
   53.9800   29.9660   52.3740 C   0  0  0  0  0  0  0  0  0  0  0  0
   52.8970   30.4690   51.7510 C   0  0  0  0  0  0  0  0  0  0  0  0
   51.9830   31.4860   52.2990 C   0  0  0  0  0  0  0  0  0  0  0  0
   51.5390   31.5060   53.5720 N   0  0  0  0  0  0  0  0  0  0  0  0
   50.6090   32.4840   53.5650 C   0  0  0  0  0  0  0  0  0  0  0  0
   49.9690   32.8180   54.5970 O   0  0  0  0  0  0  0  0  0  0  0  0
   50.4090   33.0670   52.3640 N   0  0  0  0  0  0  0  0  0  0  0  0
   51.2750   32.4170   51.5690 C   0  0  0  0  0  0  0  0  0  0  0  0
   51.4030   32.6710   50.2050 O   0  0  0  0  0  0  0  0  0  0  0  0
   55.2710   30.3450   52.0450 C   0  0  0  0  0  0  0  0  0  0  0  0
   56.1210   29.5440   52.7810 C   0  0  0  0  0  0  0  0  0  0  0  0
   57.5860   29.5530   52.6310 C   0  0  0  0  0  0  0  0  0  0  0  0
   58.2090   28.4630   52.7470 O   0  0  0  0  0  0  0  0  0  0  0  0
   58.3150   30.7770   52.3970 N   0  0  0  0  0  0  0  0  0  0  0  0
   59.6810   30.6940   51.8600 C   0  0  0  0  0  0  0  0  0  0  0  0
   60.2800   32.0870   51.6610 C   0  0  0  0  0  0  0  0  0  0  0  0
   59.2570   32.9520   51.0540 N   0  0  0  0  0  0  0  0  0  0  0  0
   59.8020   34.1580   50.3900 C   0  0  0  0  0  0  0  0  0  0  0  0
   60.9770   33.8720   49.4230 C   0  0  0  0  0  0  0  0  0  0  0  0
   60.5720   33.8390   48.0010 N   0  0  0  0  0  0  0  0  0  0  0  0
   59.4580   34.7240   47.6090 C   0  0  0  0  0  0  0  0  0  0  0  0
   58.1320   33.9670   47.4210 C   0  0  0  0  0  0  0  0  0  0  0  0
   58.2730   32.7620   46.5780 N   0  0  0  0  0  0  0  0  0  0  0  0
   58.5160   33.0590   45.1480 C   0  0  0  0  0  0  0  0  0  0  0  0
   57.8040   32.0660   44.2670 C   0  0  0  0  0  0  0  0  0  0  0  0
   57.7910   32.2300   42.8720 C   0  0  0  0  0  0  0  0  0  0  0  0
   57.1240   31.3060   42.0620 C   0  0  0  0  0  0  0  0  0  0  0  0
   56.4680   30.2130   42.6370 C   0  0  0  0  0  0  0  0  0  0  0  0
   56.4740   30.0450   44.0230 C   0  0  0  0  0  0  0  0  0  0  0  0
   57.1340   30.9700   44.8370 C   0  0  0  0  0  0  0  0  0  0  0  0
   59.2850   31.8530   47.1430 C   0  0  0  0  0  0  0  0  0  0  0  0
   60.6530   32.5330   47.3150 C   0  0  0  0  0  0  0  0  0  0  0  0
   58.1140   33.2240   51.9530 C   0  0  0  0  0  0  0  0  0  0  0  0
   57.8220   32.0610   52.9250 C   0  0  0  0  0  0  0  0  0  0  0  0
   55.4150   28.7230   53.5960 N   0  0  0  0  0  0  0  0  0  0  0  0
   55.9640   27.8070   54.6030 C   0  0  0  0  0  0  0  0  0  0  0  0
   53.3351   27.7200   54.8910 H   0  0  0  0  0  0  0  0  0  0  0  0
   52.0767   28.8286   53.9869 H   0  0  0  0  0  0  0  0  0  0  0  0
   52.6754   30.0865   50.7437 H   0  0  0  0  0  0  0  0  0  0  0  0
   52.1400   32.2450   49.6550 H   0  0  0  0  0  0  0  0  0  0  0  0
   55.5627   31.1323   51.3344 H   0  0  0  0  0  0  0  0  0  0  0  0
   60.3101   30.1297   52.5641 H   0  0  0  0  0  0  0  0  0  0  0  0
   59.6426   30.1876   50.8843 H   0  0  0  0  0  0  0  0  0  0  0  0
   60.5873   32.5011   52.6326 H   0  0  0  0  0  0  0  0  0  0  0  0
   61.1615   32.0283   51.0056 H   0  0  0  0  0  0  0  0  0  0  0  0
   58.9916   34.6330   49.8176 H   0  0  0  0  0  0  0  0  0  0  0  0
   60.1973   34.8064   51.1858 H   0  0  0  0  0  0  0  0  0  0  0  0
   61.7343   34.6594   49.5518 H   0  0  0  0  0  0  0  0  0  0  0  0
   61.3680   32.8746   49.6728 H   0  0  0  0  0  0  0  0  0  0  0  0
   59.3207   35.4839   48.3924 H   0  0  0  0  0  0  0  0  0  0  0  0
   59.7202   35.1773   46.6416 H   0  0  0  0  0  0  0  0  0  0  0  0
   57.7586   33.6620   48.4097 H   0  0  0  0  0  0  0  0  0  0  0  0
   57.4330   34.6466   46.9115 H   0  0  0  0  0  0  0  0  0  0  0  0
   58.1477   34.0706   44.9221 H   0  0  0  0  0  0  0  0  0  0  0  0
   59.5965   32.9925   44.9527 H   0  0  0  0  0  0  0  0  0  0  0  0
   58.3069   33.0876   42.4157 H   0  0  0  0  0  0  0  0  0  0  0  0
   57.1152   31.4391   40.9701 H   0  0  0  0  0  0  0  0  0  0  0  0
   55.9472   29.4855   41.9972 H   0  0  0  0  0  0  0  0  0  0  0  0
   55.9591   29.1843   44.4746 H   0  0  0  0  0  0  0  0  0  0  0  0
   57.1289   30.8394   45.9292 H   0  0  0  0  0  0  0  0  0  0  0  0
   58.9373   31.5051   48.1269 H   0  0  0  0  0  0  0  0  0  0  0  0
   59.4127   31.0156   46.4413 H   0  0  0  0  0  0  0  0  0  0  0  0
   61.3021   31.8684   47.9041 H   0  0  0  0  0  0  0  0  0  0  0  0
   61.0552   32.7173   46.3079 H   0  0  0  0  0  0  0  0  0  0  0  0
   58.3380   34.1255   52.5421 H   0  0  0  0  0  0  0  0  0  0  0  0
   57.2230   33.3573   51.3218 H   0  0  0  0  0  0  0  0  0  0  0  0
   58.3170   32.2657   53.8858 H   0  0  0  0  0  0  0  0  0  0  0  0
   56.7322   31.9849   53.0533 H   0  0  0  0  0  0  0  0  0  0  0  0
   55.7354   28.1885   55.6091 H   0  0  0  0  0  0  0  0  0  0  0  0
   55.5137   26.8113   54.4773 H   0  0  0  0  0  0  0  0  0  0  0  0
   57.0544   27.7348   54.4773 H   0  0  0  0  0  0  0  0  0  0  0  0
  1  2  2  0
  2  3  1  0
  3  4  2  3
  4  5  1  0
  5  6  1  0
  6  7  1  0
  7  8  2  0
  7  9  1  0
  9 10  1  0
 10 11  1  0
  3 12  1  0
 12 13  2  0
 13 14  1  0
 14 15  2  0
 14 16  1  0
 16 17  1  0
 17 18  1  0
 18 19  1  0
 19 20  1  0
 20 21  1  0
 21 22  1  0
 22 23  1  0
 23 24  1  0
 24 25  1  0
 25 26  1  0
 26 27  1  0
 27 28  2  0
 28 29  1  0
 29 30  2  0
 30 31  1  0
 31 32  2  0
 25 33  1  0
 33 34  1  0
 19 35  1  0
 35 36  1  0
 13 37  1  0
 37 38  1  0
 37  2  1  0
 10  5  2  0
 36 16  1  0
 34 22  1  0
 32 27  1  0
  1 39  1  0
  1 40  1  0
  4 41  1  0
 11 42  1  0
 12 43  1  0
 17 44  1  0
 17 45  1  0
 18 46  1  0
 18 47  1  0
 20 48  1  0
 20 49  1  0
 21 50  1  0
 21 51  1  0
 23 52  1  0
 23 53  1  0
 24 54  1  0
 24 55  1  0
 26 56  1  0
 26 57  1  0
 28 58  1  0
 29 59  1  0
 30 60  1  0
 31 61  1  0
 32 62  1  0
 33 63  1  0
 33 64  1  0
 34 65  1  0
 34 66  1  0
 35 67  1  0
 35 68  1  0
 36 69  1  0
 36 70  1  0
 38 71  1  0
 38 72  1  0
 38 73  1  0
M  CHG  2   6  -1   9  -1
M  END
>  <UniqueID>  (51) 
47

>  <SMILES>  (51) 
C=c1c(=Cc2[n-]c(=O)[n-]c2O)cc(C(=O)N2CCN(CCN3CCN(Cc4ccccc4)CC3)CC2)n1C

>  <Energy>  (51) 
173.08189597611025

>  <Genealogy>  (51) 
C=c1c(=Cc2[n-]c(=O)[n-]c2O)cc(C(=O)N2CCN(CCN3CCN(Cc4ccccc4)CC3)CC2)n1C (protonated)
C=c1c(=Cc2[n-]c(=O)[n-]c2O)cc(C(=O)N2CCN(CCN3CCN(Cc4ccccc4)CC3)CC2)n1C (3D coordinates assigned)
C=c1c(=Cc2[n-]c(=O)[n-]c2O)cc(C(=O)N2CCN(CCN3CCN(Cc4ccccc4)CC3)CC2)n1C (nonaromatic ring conformer: 173.08189597611025 kcal/mol)

>  <smiles>  (51) 
C=c1c(=Cc2[nH]c(=O)[nH]c2O)cc(C(=O)N2CCN(CCN3CCN(Cc4ccccc4)CC3)CC2)n1C

>  <score_type>  (51) 
oracle

>  <origin>  (51) 
adg

>  <m_score__min__energy>  (51) 
-15.91

>  <m_primary>  (51) 
energy

$$$$
51:0
     RDKit          3D

 33 34  0  0  0  0  0  0  0  0999 V2000
   53.5098   28.2076   52.4864 H   0  0  0  0  0  0  0  0  0  0  0  0
   53.6740   29.2950   52.5120 C   0  0  0  0  0  0  0  0  0  0  0  0
   54.6510   29.7520   53.3120 C   0  0  0  0  0  0  0  0  0  0  0  0
   54.4579   29.7522   54.3949 H   0  0  0  0  0  0  0  0  0  0  0  0
   55.9650   30.2550   52.8570 C   0  0  0  0  0  0  0  0  0  0  0  0
   56.1170   30.9010   51.6180 C   0  0  0  0  0  0  0  0  0  0  0  0
   55.2467   31.0256   50.9569 H   0  0  0  0  0  0  0  0  0  0  0  0
   57.3650   31.3860   51.2200 C   0  0  0  0  0  0  0  0  0  0  0  0
   57.4747   31.8721   50.2394 H   0  0  0  0  0  0  0  0  0  0  0  0
   58.4830   31.2570   52.0650 C   0  0  0  0  0  0  0  0  0  0  0  0
   59.7880   31.7400   51.6920 N   0  0  0  0  0  0  0  0  0  0  0  0
   60.6170   31.1270   51.8550 H   0  0  0  0  0  0  0  0  0  0  0  0
   60.1060   33.3130   51.0290 S   0  0  0  0  0  0  0  0  0  0  0  0
   59.1340   34.2950   51.6200 O   0  0  0  0  0  0  0  0  0  0  0  0
   61.5010   33.7480   51.3780 O   0  0  0  0  0  0  0  0  0  0  0  0
   59.8840   33.2910   49.2620 C   0  0  0  0  0  0  0  0  0  0  0  0
   58.8144   33.1850   49.0281 H   0  0  0  0  0  0  0  0  0  0  0  0
   60.2617   34.2310   48.8333 H   0  0  0  0  0  0  0  0  0  0  0  0
   60.4388   32.4434   48.8333 H   0  0  0  0  0  0  0  0  0  0  0  0
   58.3190   30.6370   53.3140 C   0  0  0  0  0  0  0  0  0  0  0  0
   59.1826   30.5326   53.9873 H   0  0  0  0  0  0  0  0  0  0  0  0
   57.0700   30.1510   53.7110 C   0  0  0  0  0  0  0  0  0  0  0  0
   56.9543   29.6840   54.7002 H   0  0  0  0  0  0  0  0  0  0  0  0
   52.8000   30.1340   51.6620 C   0  0  0  0  0  0  0  0  0  0  0  0
   52.4930   29.7120   50.3610 C   0  0  0  0  0  0  0  0  0  0  0  0
   52.8859   28.7542   49.9890 H   0  0  0  0  0  0  0  0  0  0  0  0
   51.7120   30.4810   49.5570 N   0  0  0  0  0  0  0  0  0  0  0  0
   51.2210   31.6800   49.9690 C   0  0  0  0  0  0  0  0  0  0  0  0
   50.4970   32.3580   49.1920 O   0  0  0  0  0  0  0  0  0  0  0  0
   51.5240   32.1570   51.2480 C   0  0  0  0  0  0  0  0  0  0  0  0
   51.0410   33.3870   51.6810 O   0  0  0  0  0  0  0  0  0  0  0  0
   52.3260   31.3840   52.0930 C   0  0  0  0  0  0  0  0  0  0  0  0
   52.5858   31.7548   53.0955 H   0  0  0  0  0  0  0  0  0  0  0  0
  1  2  1  0
  2  3  2  0
  3  4  1  0
  3  5  1  0
  5  6  2  0
  6  7  1  0
  6  8  1  0
  8  9  1  0
  8 10  2  0
 10 11  1  0
 11 12  1  0
 11 13  1  0
 13 14  2  0
 13 15  2  0
 13 16  1  0
 16 17  1  0
 16 18  1  0
 16 19  1  0
 10 20  1  0
 20 21  1  0
 20 22  2  0
 22 23  1  0
  2 24  1  0
 24 25  2  0
 25 26  1  0
 25 27  1  0
 27 28  1  0
 28 29  2  0
 28 30  1  0
 30 31  1  0
 30 32  2  0
 32 33  1  0
 22  5  1  0
 32 24  1  0
M  CHG  2  27  -1  31  -1
M  END
>  <UniqueID>  (52) 
48

>  <SMILES>  (52) 
CS(=O)(=O)Nc1ccc(/C=C\c2c[n-]c(=O)c([O-])c2)cc1

>  <Energy>  (52) 
43.033592600550776

>  <Genealogy>  (52) 
CS(=O)(=O)Nc1ccc(C=Cc2c[n-]c(=O)c([O-])c2)cc1 (protonated)
CS(=O)(=O)Nc1ccc(/C=C\c2c[n-]c(=O)c([O-])c2)cc1 (cis-trans isomerization)
CS(=O)(=O)Nc1ccc(/C=C\c2c[n-]c(=O)c([O-])c2)cc1 (3D coordinates assigned)
CS(=O)(=O)Nc1ccc(/C=C\c2c[n-]c(=O)c([O-])c2)cc1 (optimized conformer: 43.033592600550776 kcal/mol)

>  <smiles>  (52) 
CS(=O)(=O)Nc1ccc(C=Cc2c[nH]c(=O)c(O)c2)cc1

>  <score_type>  (52) 
oracle

>  <origin>  (52) 
adg

>  <m_score__min__energy>  (52) 
-12.880000000000001

>  <m_primary>  (52) 
energy

$$$$
52:0
     RDKit          3D

 56 59  0  0  0  0  0  0  0  0999 V2000
   61.9970   32.0980   49.5250 C   0  0  0  0  0  0  0  0  0  0  0  0
   61.8370   33.5680   49.5220 N   0  0  0  0  0  0  0  0  0  0  0  0
   60.4200   33.9780   49.7430 C   0  0  0  0  0  0  0  0  0  0  0  0
   59.7070   34.4750   48.4670 C   0  0  0  0  0  0  0  0  0  0  0  0
   60.2250   33.7700   47.2870 N   0  0  0  0  0  0  0  0  0  0  0  0
   59.3460   33.0520   46.3930 C   0  0  0  0  0  0  0  0  0  0  0  0
   59.4710   31.6600   46.2360 C   0  0  0  0  0  0  0  0  0  0  0  0
   58.6100   30.9610   45.3810 C   0  0  0  0  0  0  0  0  0  0  0  0
   57.6070   31.6410   44.6720 C   0  0  0  0  0  0  0  0  0  0  0  0
   56.6320   30.8760   43.8190 C   0  0  0  0  0  0  0  0  0  0  0  0
   56.6620   29.4320   44.2140 C   0  0  0  0  0  0  0  0  0  0  0  0
   55.7250   28.9600   44.9240 O   0  0  0  0  0  0  0  0  0  0  0  0
   57.7810   28.6090   43.8400 N   0  0  0  0  0  0  0  0  0  0  0  0
   58.2180   27.4780   44.6110 C   0  0  0  0  0  0  0  0  0  0  0  0
   59.4590   27.5230   45.2630 C   0  0  0  0  0  0  0  0  0  0  0  0
   59.8810   26.4530   46.0590 C   0  0  0  0  0  0  0  0  0  0  0  0
   59.0610   25.3360   46.2230 C   0  0  0  0  0  0  0  0  0  0  0  0
   57.8050   25.2840   45.5960 C   0  0  0  0  0  0  0  0  0  0  0  0
   56.8760   24.1280   45.8470 C   0  0  0  0  0  0  0  0  0  0  0  0
   56.9160   23.2050   44.7140 N   0  0  0  0  0  0  0  0  0  0  0  0
   57.8340   22.2480   44.4860 C   0  0  0  0  0  0  0  0  0  0  0  0
   57.4340   21.5340   43.3750 C   0  0  0  0  0  0  0  0  0  0  0  0
   56.2660   22.0300   42.9110 N   0  0  0  0  0  0  0  0  0  0  0  0
   55.9760   23.0460   43.7570 C   0  0  0  0  0  0  0  0  0  0  0  0
   57.3840   26.3610   44.7990 C   0  0  0  0  0  0  0  0  0  0  0  0
   57.4660   33.0270   44.8420 C   0  0  0  0  0  0  0  0  0  0  0  0
   58.3290   33.7270   45.6910 C   0  0  0  0  0  0  0  0  0  0  0  0
   61.6740   33.8040   47.0350 C   0  0  0  0  0  0  0  0  0  0  0  0
   62.4400   34.1810   48.3180 C   0  0  0  0  0  0  0  0  0  0  0  0
   62.0364   31.7356   50.5628 H   0  0  0  0  0  0  0  0  0  0  0  0
   61.1439   31.6353   49.0072 H   0  0  0  0  0  0  0  0  0  0  0  0
   62.9297   31.8296   49.0072 H   0  0  0  0  0  0  0  0  0  0  0  0
   59.8659   33.1122   50.1346 H   0  0  0  0  0  0  0  0  0  0  0  0
   60.4378   34.8218   50.4484 H   0  0  0  0  0  0  0  0  0  0  0  0
   58.6271   34.2862   48.5577 H   0  0  0  0  0  0  0  0  0  0  0  0
   59.8922   35.5530   48.3501 H   0  0  0  0  0  0  0  0  0  0  0  0
   60.2510   31.1162   46.7890 H   0  0  0  0  0  0  0  0  0  0  0  0
   58.7202   29.8728   45.2642 H   0  0  0  0  0  0  0  0  0  0  0  0
   55.6187   31.2774   43.9678 H   0  0  0  0  0  0  0  0  0  0  0  0
   56.9096   30.9758   42.7593 H   0  0  0  0  0  0  0  0  0  0  0  0
   58.3150   28.8510   42.9670 H   0  0  0  0  0  0  0  0  0  0  0  0
   60.1049   28.4059   45.1476 H   0  0  0  0  0  0  0  0  0  0  0  0
   60.8612   26.4922   46.5566 H   0  0  0  0  0  0  0  0  0  0  0  0
   59.3990   24.4940   46.8449 H   0  0  0  0  0  0  0  0  0  0  0  0
   57.1890   23.5996   46.7596 H   0  0  0  0  0  0  0  0  0  0  0  0
   55.8506   24.5066   45.9708 H   0  0  0  0  0  0  0  0  0  0  0  0
   58.7421   22.0670   45.0798 H   0  0  0  0  0  0  0  0  0  0  0  0
   57.9829   20.6890   42.9339 H   0  0  0  0  0  0  0  0  0  0  0  0
   55.0755   23.6723   43.6744 H   0  0  0  0  0  0  0  0  0  0  0  0
   56.3950   26.3308   44.3184 H   0  0  0  0  0  0  0  0  0  0  0  0
   56.6720   33.5658   44.3042 H   0  0  0  0  0  0  0  0  0  0  0  0
   58.2124   34.8141   45.8114 H   0  0  0  0  0  0  0  0  0  0  0  0
   62.0050   32.8116   46.6950 H   0  0  0  0  0  0  0  0  0  0  0  0
   61.8817   34.5600   46.2634 H   0  0  0  0  0  0  0  0  0  0  0  0
   63.4800   33.8347   48.2258 H   0  0  0  0  0  0  0  0  0  0  0  0
   62.3942   35.2740   48.4332 H   0  0  0  0  0  0  0  0  0  0  0  0
  1  2  1  0
  2  3  1  0
  3  4  1  0
  4  5  1  0
  5  6  1  0
  6  7  2  0
  7  8  1  0
  8  9  2  0
  9 10  1  0
 10 11  1  0
 11 12  2  0
 11 13  1  0
 13 14  1  0
 14 15  2  0
 15 16  1  0
 16 17  2  0
 17 18  1  0
 18 19  1  0
 19 20  1  0
 20 21  1  0
 21 22  2  0
 22 23  1  0
 23 24  2  0
 18 25  2  0
  9 26  1  0
 26 27  2  0
  5 28  1  0
 28 29  1  0
 29  2  1  0
 27  6  1  0
 25 14  1  0
 24 20  1  0
  1 30  1  0
  1 31  1  0
  1 32  1  0
  3 33  1  0
  3 34  1  0
  4 35  1  0
  4 36  1  0
  7 37  1  0
  8 38  1  0
 10 39  1  0
 10 40  1  0
 13 41  1  0
 15 42  1  0
 16 43  1  0
 17 44  1  0
 19 45  1  0
 19 46  1  0
 21 47  1  0
 22 48  1  0
 24 49  1  0
 25 50  1  0
 26 51  1  0
 27 52  1  0
 28 53  1  0
 28 54  1  0
 29 55  1  0
 29 56  1  0
M  END
>  <UniqueID>  (53) 
49

>  <SMILES>  (53) 
CN1CCN(c2ccc(CC(=O)Nc3cccc(Cn4ccnc4)c3)cc2)CC1

>  <Energy>  (53) 
98.08656947041713

>  <Genealogy>  (53) 
CN1CCN(c2ccc(CC(=O)Nc3cccc(Cn4ccnc4)c3)cc2)CC1 (3D coordinates assigned)
CN1CCN(c2ccc(CC(=O)Nc3cccc(Cn4ccnc4)c3)cc2)CC1 (nonaromatic ring conformer: 98.08656947041713 kcal/mol)

>  <smiles>  (53) 
CN1CCN(c2ccc(CC(=O)Nc3cccc(Cn4ccnc4)c3)cc2)CC1

>  <score_type>  (53) 
oracle

>  <origin>  (53) 
adg

>  <m_score__min__energy>  (53) 
-9.5899999999999999

>  <m_primary>  (53) 
energy

$$$$
53:0
     RDKit          3D

 53 56  0  0  0  0  0  0  0  0999 V2000
   55.7180   29.8010   45.1760 O   0  0  0  0  0  0  0  0  0  0  0  0
   56.8580   29.2690   45.2450 C   0  0  0  0  0  0  0  0  0  0  0  0
   57.0850   27.9110   44.6310 C   0  0  0  0  0  0  0  0  0  0  0  0
   57.1650   26.8640   45.6530 N   0  0  0  0  0  0  0  0  0  0  0  0
   56.1270   26.2530   46.2590 C   0  0  0  0  0  0  0  0  0  0  0  0
   54.7930   26.5250   45.9850 O   0  0  0  0  0  0  0  0  0  0  0  0
   56.5670   25.3270   47.1840 C   0  0  0  0  0  0  0  0  0  0  0  0
   57.9490   25.3790   47.1500 C   0  0  0  0  0  0  0  0  0  0  0  0
   58.2760   26.3350   46.2090 C   0  0  0  0  0  0  0  0  0  0  0  0
   59.5780   26.7040   45.8900 O   0  0  0  0  0  0  0  0  0  0  0  0
   57.9470   30.0410   45.7630 N   0  0  0  0  0  0  0  0  0  0  0  0
   58.2840   31.3810   45.3820 C   0  0  0  0  0  0  0  0  0  0  0  0
   57.8920   31.8500   44.1240 C   0  0  0  0  0  0  0  0  0  0  0  0
   58.1530   33.1720   43.7530 C   0  0  0  0  0  0  0  0  0  0  0  0
   58.7880   34.0400   44.6460 C   0  0  0  0  0  0  0  0  0  0  0  0
   59.1720   33.5910   45.9200 C   0  0  0  0  0  0  0  0  0  0  0  0
   59.7910   34.5260   46.8860 C   0  0  0  0  0  0  0  0  0  0  0  0
   59.2740   35.6630   47.0660 O   0  0  0  0  0  0  0  0  0  0  0  0
   60.9650   34.1610   47.6310 N   0  0  0  0  0  0  0  0  0  0  0  0
   62.1360   33.6290   46.9190 C   0  0  0  0  0  0  0  0  0  0  0  0
   63.3920   33.6370   47.7960 C   0  0  0  0  0  0  0  0  0  0  0  0
   63.1000   33.1030   49.1370 N   0  0  0  0  0  0  0  0  0  0  0  0
   64.0980   32.3390   49.8510 C   0  0  0  0  0  0  0  0  0  0  0  0
   65.4560   32.7150   49.8170 C   0  0  0  0  0  0  0  0  0  0  0  0
   66.4190   31.9670   50.4990 C   0  0  0  0  0  0  0  0  0  0  0  0
   66.0420   30.8380   51.2290 C   0  0  0  0  0  0  0  0  0  0  0  0
   64.7000   30.4580   51.2810 C   0  0  0  0  0  0  0  0  0  0  0  0
   63.7320   31.2040   50.6030 C   0  0  0  0  0  0  0  0  0  0  0  0
   61.8430   33.4690   49.8130 C   0  0  0  0  0  0  0  0  0  0  0  0
   61.0760   34.5460   49.0400 C   0  0  0  0  0  0  0  0  0  0  0  0
   58.8990   32.2620   46.2870 C   0  0  0  0  0  0  0  0  0  0  0  0
   56.2513   27.6829   43.9506 H   0  0  0  0  0  0  0  0  0  0  0  0
   58.0407   27.9346   44.0868 H   0  0  0  0  0  0  0  0  0  0  0  0
   55.9448   24.6793   47.8191 H   0  0  0  0  0  0  0  0  0  0  0  0
   58.6473   24.7790   47.7520 H   0  0  0  0  0  0  0  0  0  0  0  0
   59.8230   27.6600   45.6760 H   0  0  0  0  0  0  0  0  0  0  0  0
   57.3764   31.1760   43.4241 H   0  0  0  0  0  0  0  0  0  0  0  0
   57.8580   33.5304   42.7557 H   0  0  0  0  0  0  0  0  0  0  0  0
   58.9879   35.0802   44.3492 H   0  0  0  0  0  0  0  0  0  0  0  0
   61.9246   32.5945   46.6106 H   0  0  0  0  0  0  0  0  0  0  0  0
   62.3256   34.2727   46.0474 H   0  0  0  0  0  0  0  0  0  0  0  0
   64.1663   33.0160   47.3218 H   0  0  0  0  0  0  0  0  0  0  0  0
   63.7418   34.6748   47.8995 H   0  0  0  0  0  0  0  0  0  0  0  0
   65.7605   33.6058   49.2481 H   0  0  0  0  0  0  0  0  0  0  0  0
   67.4763   32.2681   50.4608 H   0  0  0  0  0  0  0  0  0  0  0  0
   66.8021   30.2485   51.7627 H   0  0  0  0  0  0  0  0  0  0  0  0
   64.4035   29.5691   51.8571 H   0  0  0  0  0  0  0  0  0  0  0  0
   62.6753   30.9030   50.6566 H   0  0  0  0  0  0  0  0  0  0  0  0
   61.2104   32.5731   49.8985 H   0  0  0  0  0  0  0  0  0  0  0  0
   62.0926   33.8720   50.8056 H   0  0  0  0  0  0  0  0  0  0  0  0
   60.0691   34.6561   49.4689 H   0  0  0  0  0  0  0  0  0  0  0  0
   61.6168   35.5010   49.1141 H   0  0  0  0  0  0  0  0  0  0  0  0
   59.1696   31.9082   47.2928 H   0  0  0  0  0  0  0  0  0  0  0  0
  1  2  2  0
  2  3  1  0
  3  4  1  0
  4  5  1  0
  5  6  1  0
  5  7  2  0
  7  8  1  0
  8  9  2  0
  9 10  1  0
  2 11  1  0
 11 12  1  0
 12 13  2  0
 13 14  1  0
 14 15  2  0
 15 16  1  0
 16 17  1  0
 17 18  2  0
 17 19  1  0
 19 20  1  0
 20 21  1  0
 21 22  1  0
 22 23  1  0
 23 24  2  0
 24 25  1  0
 25 26  2  0
 26 27  1  0
 27 28  2  0
 22 29  1  0
 29 30  1  0
 16 31  2  0
  9  4  1  0
 31 12  1  0
 30 19  1  0
 28 23  1  0
  3 32  1  0
  3 33  1  0
  7 34  1  0
  8 35  1  0
 10 36  1  0
 13 37  1  0
 14 38  1  0
 15 39  1  0
 20 40  1  0
 20 41  1  0
 21 42  1  0
 21 43  1  0
 24 44  1  0
 25 45  1  0
 26 46  1  0
 27 47  1  0
 28 48  1  0
 29 49  1  0
 29 50  1  0
 30 51  1  0
 30 52  1  0
 31 53  1  0
M  CHG  2   6  -1  11  -1
M  END
>  <UniqueID>  (54) 
50

>  <SMILES>  (54) 
O=C(Cn1c([O-])ccc1O)[N-]c1cccc(C(=O)N2CCN(c3ccccc3)CC2)c1

>  <Energy>  (54) 
94.49025137890398

>  <Genealogy>  (54) 
O=C(Cn1c([O-])ccc1O)[N-]c1cccc(C(=O)N2CCN(c3ccccc3)CC2)c1 (protonated)
O=C(Cn1c([O-])ccc1O)[N-]c1cccc(C(=O)N2CCN(c3ccccc3)CC2)c1 (3D coordinates assigned)
O=C(Cn1c([O-])ccc1O)[N-]c1cccc(C(=O)N2CCN(c3ccccc3)CC2)c1 (nonaromatic ring conformer: 94.49025137890398 kcal/mol)

>  <smiles>  (54) 
O=C(Cn1c(O)ccc1O)Nc1cccc(C(=O)N2CCN(c3ccccc3)CC2)c1

>  <score_type>  (54) 
oracle

>  <origin>  (54) 
adg

>  <m_score__min__energy>  (54) 
-14.52

>  <m_primary>  (54) 
energy

$$$$
54:0
     RDKit          3D

 61 64  0  0  0  0  0  0  0  0999 V2000
   65.0680   33.1390   50.1590 C   0  0  0  0  0  0  0  0  0  0  0  0
   63.8370   33.0330   49.3570 N   0  0  0  0  0  0  0  0  0  0  0  0
   64.1420   33.1920   47.9260 C   0  0  0  0  0  0  0  0  0  0  0  0
   62.8390   33.2870   47.1190 C   0  0  0  0  0  0  0  0  0  0  0  0
   61.8260   32.2870   47.5250 N   0  0  0  0  0  0  0  0  0  0  0  0
   60.3090   33.0000   48.0290 S   0  0  0  0  0  0  0  0  0  0  0  0
   60.5780   34.3210   48.6950 O   0  0  0  0  0  0  0  0  0  0  0  0
   59.6520   32.1010   49.0400 O   0  0  0  0  0  0  0  0  0  0  0  0
   59.2010   33.2490   46.6780 C   0  0  0  0  0  0  0  0  0  0  0  0
   59.2430   34.4410   45.9420 C   0  0  0  0  0  0  0  0  0  0  0  0
   58.3650   34.6380   44.8750 C   0  0  0  0  0  0  0  0  0  0  0  0
   57.4370   33.6470   44.5390 C   0  0  0  0  0  0  0  0  0  0  0  0
   57.3820   32.4510   45.2650 C   0  0  0  0  0  0  0  0  0  0  0  0
   56.4390   31.4460   44.8620 N   0  0  0  0  0  0  0  0  0  0  0  0
   56.7210   30.2580   44.1090 C   0  0  0  0  0  0  0  0  0  0  0  0
   56.2550   30.1210   42.9450 O   0  0  0  0  0  0  0  0  0  0  0  0
   57.6050   29.2120   44.6770 C   0  0  0  0  0  0  0  0  0  0  0  0
   58.9870   29.4410   44.8120 C   0  0  0  0  0  0  0  0  0  0  0  0
   59.8190   28.4540   45.3470 C   0  0  0  0  0  0  0  0  0  0  0  0
   59.2860   27.2320   45.7560 C   0  0  0  0  0  0  0  0  0  0  0  0
   57.9110   26.9890   45.6410 C   0  0  0  0  0  0  0  0  0  0  0  0
   57.2390   25.4350   46.1510 S   0  0  0  0  0  0  0  0  0  0  0  0
   55.7610   25.5910   46.3720 O   0  0  0  0  0  0  0  0  0  0  0  0
   57.8630   25.0390   47.4610 O   0  0  0  0  0  0  0  0  0  0  0  0
   57.5100   24.1600   44.9880 N   0  0  0  0  0  0  0  0  0  0  0  0
   56.9530   22.8830   45.4290 C   0  0  0  0  0  0  0  0  0  0  0  0
   56.6700   22.0770   44.1690 C   0  0  0  0  0  0  0  0  0  0  0  0
   56.6390   23.0960   43.0390 C   0  0  0  0  0  0  0  0  0  0  0  0
   56.8710   24.4440   43.7050 C   0  0  0  0  0  0  0  0  0  0  0  0
   57.0770   27.9760   45.0960 C   0  0  0  0  0  0  0  0  0  0  0  0
   58.2870   32.2450   46.3220 C   0  0  0  0  0  0  0  0  0  0  0  0
   62.3020   31.2290   48.4370 C   0  0  0  0  0  0  0  0  0  0  0  0
   63.1460   31.7480   49.6260 C   0  0  0  0  0  0  0  0  0  0  0  0
   64.8118   33.1169   51.2285 H   0  0  0  0  0  0  0  0  0  0  0  0
   65.7328   32.2948   49.9237 H   0  0  0  0  0  0  0  0  0  0  0  0
   65.5787   34.0844   49.9237 H   0  0  0  0  0  0  0  0  0  0  0  0
   63.2160   33.8210   49.6530 H   0  0  0  0  0  0  0  0  0  0  0  0
   64.7296   34.1101   47.7786 H   0  0  0  0  0  0  0  0  0  0  0  0
   64.7182   32.3210   47.5805 H   0  0  0  0  0  0  0  0  0  0  0  0
   62.4138   34.2918   47.2591 H   0  0  0  0  0  0  0  0  0  0  0  0
   63.0913   33.0873   46.0671 H   0  0  0  0  0  0  0  0  0  0  0  0
   59.9698   35.2233   46.2059 H   0  0  0  0  0  0  0  0  0  0  0  0
   58.4030   35.5736   44.2978 H   0  0  0  0  0  0  0  0  0  0  0  0
   56.7457   33.8083   43.6987 H   0  0  0  0  0  0  0  0  0  0  0  0
   59.4150   30.4032   44.4943 H   0  0  0  0  0  0  0  0  0  0  0  0
   60.8984   28.6417   45.4459 H   0  0  0  0  0  0  0  0  0  0  0  0
   59.9471   26.4565   46.1702 H   0  0  0  0  0  0  0  0  0  0  0  0
   57.6765   22.3522   46.0652 H   0  0  0  0  0  0  0  0  0  0  0  0
   56.0375   23.0313   46.0205 H   0  0  0  0  0  0  0  0  0  0  0  0
   57.4654   21.3366   43.9984 H   0  0  0  0  0  0  0  0  0  0  0  0
   55.7255   21.5180   44.2432 H   0  0  0  0  0  0  0  0  0  0  0  0
   57.4343   22.8854   42.3088 H   0  0  0  0  0  0  0  0  0  0  0  0
   55.6863   23.0693   42.4898 H   0  0  0  0  0  0  0  0  0  0  0  0
   57.5276   25.0692   43.0821 H   0  0  0  0  0  0  0  0  0  0  0  0
   55.9270   24.9923   43.8399 H   0  0  0  0  0  0  0  0  0  0  0  0
   55.9989   27.7824   44.9948 H   0  0  0  0  0  0  0  0  0  0  0  0
   58.2784   31.2925   46.8722 H   0  0  0  0  0  0  0  0  0  0  0  0
   61.4252   30.7015   48.8407 H   0  0  0  0  0  0  0  0  0  0  0  0
   62.9587   30.5741   47.8456 H   0  0  0  0  0  0  0  0  0  0  0  0
   62.4789   31.8876   50.4894 H   0  0  0  0  0  0  0  0  0  0  0  0
   63.9284   30.9979   49.8137 H   0  0  0  0  0  0  0  0  0  0  0  0
  1  2  1  0
  2  3  1  0
  3  4  1  0
  4  5  1  0
  5  6  1  0
  6  7  2  0
  6  8  2  0
  6  9  1  0
  9 10  2  0
 10 11  1  0
 11 12  2  0
 12 13  1  0
 13 14  1  0
 14 15  1  0
 15 16  2  0
 15 17  1  0
 17 18  2  0
 18 19  1  0
 19 20  2  0
 20 21  1  0
 21 22  1  0
 22 23  2  0
 22 24  2  0
 22 25  1  0
 25 26  1  0
 26 27  1  0
 27 28  1  0
 28 29  1  0
 21 30  2  0
 13 31  2  0
  5 32  1  0
 32 33  1  0
 33  2  1  0
 31  9  1  0
 30 17  1  0
 29 25  1  0
  1 34  1  0
  1 35  1  0
  1 36  1  0
  2 37  1  0
  3 38  1  0
  3 39  1  0
  4 40  1  0
  4 41  1  0
 10 42  1  0
 11 43  1  0
 12 44  1  0
 18 45  1  0
 19 46  1  0
 20 47  1  0
 26 48  1  0
 26 49  1  0
 27 50  1  0
 27 51  1  0
 28 52  1  0
 28 53  1  0
 29 54  1  0
 29 55  1  0
 30 56  1  0
 31 57  1  0
 32 58  1  0
 32 59  1  0
 33 60  1  0
 33 61  1  0
M  CHG  2   2   1  14  -1
M  END
>  <UniqueID>  (55) 
51

>  <SMILES>  (55) 
C[NH+]1CCN(S(=O)(=O)c2cccc([N-]C(=O)c3cccc(S(=O)(=O)N4CCCC4)c3)c2)CC1

>  <Energy>  (55) 
79.00343535836875

>  <Genealogy>  (55) 
C[NH+]1CCN(S(=O)(=O)c2cccc([N-]C(=O)c3cccc(S(=O)(=O)N4CCCC4)c3)c2)CC1 (protonated)
C[NH+]1CCN(S(=O)(=O)c2cccc([N-]C(=O)c3cccc(S(=O)(=O)N4CCCC4)c3)c2)CC1 (3D coordinates assigned)
C[NH+]1CCN(S(=O)(=O)c2cccc([N-]C(=O)c3cccc(S(=O)(=O)N4CCCC4)c3)c2)CC1 (nonaromatic ring conformer: 79.00343535836875 kcal/mol)

>  <smiles>  (55) 
CN1CCN(S(=O)(=O)c2cccc(NC(=O)c3cccc(S(=O)(=O)N4CCCC4)c3)c2)CC1

>  <score_type>  (55) 
oracle

>  <origin>  (55) 
adg

>  <m_score__min__energy>  (55) 
-10.99

>  <m_primary>  (55) 
energy

$$$$
55:0
     RDKit          3D

 59 62  0  0  0  0  0  0  0  0999 V2000
   53.4530   22.9300   46.3620 C   0  0  0  0  0  0  0  0  0  0  0  0
   53.7410   23.8050   45.1470 C   0  0  0  0  0  0  0  0  0  0  0  0
   55.1750   24.0740   45.0420 N   0  0  0  0  0  0  0  0  0  0  0  0
   56.0940   23.2790   44.2970 C   0  0  0  0  0  0  0  0  0  0  0  0
   55.7630   22.1770   43.7820 O   0  0  0  0  0  0  0  0  0  0  0  0
   57.7500   23.9470   44.1210 S   0  0  0  0  0  0  0  0  0  0  0  0
   57.2300   25.3400   45.1330 C   0  0  0  0  0  0  0  0  0  0  0  0
   58.0950   26.3110   45.4640 C   0  0  0  0  0  0  0  0  0  0  0  0
   57.8480   27.7570   45.2950 C   0  0  0  0  0  0  0  0  0  0  0  0
   57.4350   28.2420   44.0490 C   0  0  0  0  0  0  0  0  0  0  0  0
   57.2290   29.6110   43.8570 C   0  0  0  0  0  0  0  0  0  0  0  0
   57.4610   30.5210   44.9070 C   0  0  0  0  0  0  0  0  0  0  0  0
   57.2100   31.8950   44.7640 O   0  0  0  0  0  0  0  0  0  0  0  0
   57.7710   32.7180   43.7470 C   0  0  0  0  0  0  0  0  0  0  0  0
   57.9410   30.0390   46.1420 C   0  0  0  0  0  0  0  0  0  0  0  0
   58.2140   30.8980   47.2150 O   0  0  0  0  0  0  0  0  0  0  0  0
   58.9200   32.1070   47.1190 C   0  0  0  0  0  0  0  0  0  0  0  0
   58.2660   33.3390   46.9350 C   0  0  0  0  0  0  0  0  0  0  0  0
   59.0080   34.5190   46.8300 C   0  0  0  0  0  0  0  0  0  0  0  0
   60.4020   34.4790   46.8960 C   0  0  0  0  0  0  0  0  0  0  0  0
   61.0640   33.2560   47.0680 C   0  0  0  0  0  0  0  0  0  0  0  0
   62.8250   33.2140   47.1180 S   0  0  0  0  0  0  0  0  0  0  0  0
   63.2660   31.7810   47.0050 O   0  0  0  0  0  0  0  0  0  0  0  0
   63.3790   33.9720   45.9440 O   0  0  0  0  0  0  0  0  0  0  0  0
   63.3920   33.8860   48.6320 N   0  0  0  0  0  0  0  0  0  0  0  0
   64.4370   33.0640   49.2720 C   0  0  0  0  0  0  0  0  0  0  0  0
   63.8620   31.8570   50.0300 C   0  0  0  0  0  0  0  0  0  0  0  0
   62.8340   32.2730   50.9900 N   0  0  0  0  0  0  0  0  0  0  0  0
   61.7540   32.9960   50.3110 C   0  0  0  0  0  0  0  0  0  0  0  0
   62.2910   34.2220   49.5530 C   0  0  0  0  0  0  0  0  0  0  0  0
   60.3190   32.0720   47.1680 C   0  0  0  0  0  0  0  0  0  0  0  0
   58.1190   28.6630   46.3310 C   0  0  0  0  0  0  0  0  0  0  0  0
   55.8030   25.2710   45.4760 C   0  0  0  0  0  0  0  0  0  0  0  0
   55.1600   26.2020   46.0310 O   0  0  0  0  0  0  0  0  0  0  0  0
   53.6421   23.5046   47.2807 H   0  0  0  0  0  0  0  0  0  0  0  0
   52.4014   22.6079   46.3409 H   0  0  0  0  0  0  0  0  0  0  0  0
   54.1077   22.0463   46.3409 H   0  0  0  0  0  0  0  0  0  0  0  0
   53.4018   23.2865   44.2381 H   0  0  0  0  0  0  0  0  0  0  0  0
   53.2057   24.7594   45.2591 H   0  0  0  0  0  0  0  0  0  0  0  0
   59.0609   26.0069   45.8936 H   0  0  0  0  0  0  0  0  0  0  0  0
   57.2716   27.5421   43.2163 H   0  0  0  0  0  0  0  0  0  0  0  0
   56.8836   29.9801   42.8800 H   0  0  0  0  0  0  0  0  0  0  0  0
   58.3328   33.5422   44.2107 H   0  0  0  0  0  0  0  0  0  0  0  0
   58.4490   32.1180   43.1222 H   0  0  0  0  0  0  0  0  0  0  0  0
   56.9647   33.1298   43.1222 H   0  0  0  0  0  0  0  0  0  0  0  0
   57.1683   33.3738   46.8736 H   0  0  0  0  0  0  0  0  0  0  0  0
   58.4924   35.4813   46.6951 H   0  0  0  0  0  0  0  0  0  0  0  0
   60.9821   35.4099   46.8128 H   0  0  0  0  0  0  0  0  0  0  0  0
   65.1217   32.6967   48.4933 H   0  0  0  0  0  0  0  0  0  0  0  0
   64.9566   33.6991   50.0046 H   0  0  0  0  0  0  0  0  0  0  0  0
   63.4156   31.1587   49.3067 H   0  0  0  0  0  0  0  0  0  0  0  0
   64.6795   31.3724   50.5839 H   0  0  0  0  0  0  0  0  0  0  0  0
   63.2720   32.9080   51.7000 H   0  0  0  0  0  0  0  0  0  0  0  0
   61.2643   32.3189   49.5957 H   0  0  0  0  0  0  0  0  0  0  0  0
   61.0386   33.3440   51.0707 H   0  0  0  0  0  0  0  0  0  0  0  0
   61.4685   34.6638   48.9714 H   0  0  0  0  0  0  0  0  0  0  0  0
   62.6865   34.9264   50.2996 H   0  0  0  0  0  0  0  0  0  0  0  0
   60.8374   31.1090   47.2858 H   0  0  0  0  0  0  0  0  0  0  0  0
   58.4751   28.2886   47.3021 H   0  0  0  0  0  0  0  0  0  0  0  0
  1  2  1  0
  2  3  1  0
  3  4  1  0
  4  5  2  0
  4  6  1  0
  6  7  1  0
  7  8  2  3
  8  9  1  0
  9 10  2  0
 10 11  1  0
 11 12  2  0
 12 13  1  0
 13 14  1  0
 12 15  1  0
 15 16  1  0
 16 17  1  0
 17 18  2  0
 18 19  1  0
 19 20  2  0
 20 21  1  0
 21 22  1  0
 22 23  2  0
 22 24  2  0
 22 25  1  0
 25 26  1  0
 26 27  1  0
 27 28  1  0
 28 29  1  0
 29 30  1  0
 21 31  2  0
 15 32  2  0
  7 33  1  0
 33 34  2  0
 33  3  1  0
 32  9  1  0
 31 17  1  0
 30 25  1  0
  1 35  1  0
  1 36  1  0
  1 37  1  0
  2 38  1  0
  2 39  1  0
  8 40  1  0
 10 41  1  0
 11 42  1  0
 14 43  1  0
 14 44  1  0
 14 45  1  0
 18 46  1  0
 19 47  1  0
 20 48  1  0
 26 49  1  0
 26 50  1  0
 27 51  1  0
 27 52  1  0
 28 53  1  0
 29 54  1  0
 29 55  1  0
 30 56  1  0
 30 57  1  0
 31 58  1  0
 32 59  1  0
M  END
>  <UniqueID>  (56) 
52

>  <SMILES>  (56) 
CCN1C(=O)SC(=Cc2ccc(OC)c(Oc3cccc(S(=O)(=O)N4CCNCC4)c3)c2)C1=O

>  <Energy>  (56) 
94.18802340402416

>  <Genealogy>  (56) 
CCN1C(=O)SC(=Cc2ccc(OC)c(Oc3cccc(S(=O)(=O)N4CCNCC4)c3)c2)C1=O (3D coordinates assigned)
CCN1C(=O)SC(=Cc2ccc(OC)c(Oc3cccc(S(=O)(=O)N4CCNCC4)c3)c2)C1=O (nonaromatic ring conformer: 94.18802340402416 kcal/mol)

>  <smiles>  (56) 
CCN1C(=O)SC(=Cc2ccc(OC)c(Oc3cccc(S(=O)(=O)N4CCNCC4)c3)c2)C1=O

>  <score_type>  (56) 
oracle

>  <origin>  (56) 
adg

>  <m_score__min__energy>  (56) 
-10.76

>  <m_primary>  (56) 
energy

$$$$
56:0
     RDKit          3D

 39 41  0  0  0  0  0  0  0  0999 V2000
   56.0460   29.3170   45.2040 N   0  0  0  0  0  0  0  0  0  0  0  0
   57.5000   28.5320   45.7100 S   0  0  0  0  0  0  0  0  0  0  0  0
   58.2060   27.9590   44.5140 O   0  0  0  0  0  0  0  0  0  0  0  0
   57.1480   27.4210   46.6600 O   0  0  0  0  0  0  0  0  0  0  0  0
   58.5480   29.7010   46.5050 C   0  0  0  0  0  0  0  0  0  0  0  0
   59.3580   30.5460   45.7330 C   0  0  0  0  0  0  0  0  0  0  0  0
   60.1810   31.4890   46.3540 C   0  0  0  0  0  0  0  0  0  0  0  0
   60.2130   31.5840   47.7480 C   0  0  0  0  0  0  0  0  0  0  0  0
   59.4390   30.7110   48.5330 C   0  0  0  0  0  0  0  0  0  0  0  0
   59.4220   30.8130   49.9660 N   0  0  0  0  0  0  0  0  0  0  0  0
   58.3870   30.7390   50.7560 C   0  0  0  0  0  0  0  0  0  0  0  0
   57.6580   31.8730   51.1640 C   0  0  0  0  0  0  0  0  0  0  0  0
   56.5720   31.7200   52.0280 C   0  0  0  0  0  0  0  0  0  0  0  0
   56.2050   30.4430   52.4790 C   0  0  0  0  0  0  0  0  0  0  0  0
   55.1190   30.2270   53.3930 N   0  0  0  0  0  0  0  0  0  0  0  0
   53.8300   29.6740   53.0940 C   0  0  0  0  0  0  0  0  0  0  0  0
   53.4370   28.6290   53.6790 O   0  0  0  0  0  0  0  0  0  0  0  0
   52.9360   30.3610   52.1340 C   0  0  0  0  0  0  0  0  0  0  0  0
   52.6120   29.7580   50.9020 C   0  0  0  0  0  0  0  0  0  0  0  0
   51.7720   30.4080   49.9920 C   0  0  0  0  0  0  0  0  0  0  0  0
   51.4660   29.8020   48.7790 O   0  0  0  0  0  0  0  0  0  0  0  0
   51.2420   31.6640   50.3030 C   0  0  0  0  0  0  0  0  0  0  0  0
   50.4030   32.3080   49.3990 O   0  0  0  0  0  0  0  0  0  0  0  0
   51.5520   32.2710   51.5260 C   0  0  0  0  0  0  0  0  0  0  0  0
   51.0190   33.5130   51.8440 O   0  0  0  0  0  0  0  0  0  0  0  0
   52.3990   31.6250   52.4340 C   0  0  0  0  0  0  0  0  0  0  0  0
   56.9780   29.3470   52.0800 C   0  0  0  0  0  0  0  0  0  0  0  0
   58.0320   29.5190   51.2400 N   0  0  0  0  0  0  0  0  0  0  0  0
   58.5870   29.7930   47.9050 C   0  0  0  0  0  0  0  0  0  0  0  0
   55.2500   28.7720   45.6070 H   0  0  0  0  0  0  0  0  0  0  0  0
   59.3455   30.4663   44.6360 H   0  0  0  0  0  0  0  0  0  0  0  0
   60.8054   32.1584   45.7441 H   0  0  0  0  0  0  0  0  0  0  0  0
   60.8449   32.3432   48.2321 H   0  0  0  0  0  0  0  0  0  0  0  0
   57.9425   32.8728   50.8042 H   0  0  0  0  0  0  0  0  0  0  0  0
   56.0029   32.6024   52.3558 H   0  0  0  0  0  0  0  0  0  0  0  0
   53.0231   28.7682   50.6542 H   0  0  0  0  0  0  0  0  0  0  0  0
   52.6463   32.1102   53.3897 H   0  0  0  0  0  0  0  0  0  0  0  0
   56.7310   28.3404   52.4485 H   0  0  0  0  0  0  0  0  0  0  0  0
   57.9442   29.1398   48.5134 H   0  0  0  0  0  0  0  0  0  0  0  0
  1  2  1  0
  2  3  2  0
  2  4  2  0
  2  5  1  0
  5  6  2  0
  6  7  1  0
  7  8  2  0
  8  9  1  0
  9 10  1  0
 10 11  2  3
 11 12  1  0
 12 13  2  0
 13 14  1  0
 14 15  1  0
 15 16  1  0
 16 17  2  0
 16 18  1  0
 18 19  2  0
 19 20  1  0
 20 21  1  0
 20 22  2  0
 22 23  1  0
 22 24  1  0
 24 25  1  0
 24 26  2  0
 14 27  2  0
 27 28  1  0
  9 29  2  0
 29  5  1  0
 28 11  1  0
 26 18  1  0
  1 30  1  0
  6 31  1  0
  7 32  1  0
  8 33  1  0
 12 34  1  0
 13 35  1  0
 19 36  1  0
 26 37  1  0
 27 38  1  0
 29 39  1  0
M  CHG  6   1  -1  15  -1  21  -1  23  -1  25  -1  28  -1
M  END
>  <UniqueID>  (57) 
53

>  <SMILES>  (57) 
[NH-]S(=O)(=O)c1cccc(N=c2ccc([N-]C(=O)c3cc([O-])c([O-])c([O-])c3)c[n-]2)c1

>  <Energy>  (57) 
57.405966911615366

>  <Genealogy>  (57) 
[NH-]S(=O)(=O)c1cccc(N=c2ccc([N-]C(=O)c3cc([O-])c([O-])c([O-])c3)c[n-]2)c1 (protonated)
[NH-]S(=O)(=O)c1cccc(N=c2ccc([N-]C(=O)c3cc([O-])c([O-])c([O-])c3)c[n-]2)c1 (3D coordinates assigned)
[NH-]S(=O)(=O)c1cccc(N=c2ccc([N-]C(=O)c3cc([O-])c([O-])c([O-])c3)c[n-]2)c1 (optimized conformer: 57.405966911615366 kcal/mol)

>  <smiles>  (57) 
NS(=O)(=O)c1cccc(N=c2ccc(NC(=O)c3cc(O)c(O)c(O)c3)c[nH]2)c1

>  <score_type>  (57) 
oracle

>  <origin>  (57) 
adg

>  <m_score__min__energy>  (57) 
-22.899999999999999

>  <m_primary>  (57) 
energy

$$$$
57:0
     RDKit          3D

 47 49  0  0  0  0  0  0  0  0999 V2000
   55.1630   29.3550   44.8690 O   0  0  0  0  0  0  0  0  0  0  0  0
   56.4090   29.5410   44.8480 C   0  0  0  0  0  0  0  0  0  0  0  0
   57.3330   28.3490   44.8440 C   0  0  0  0  0  0  0  0  0  0  0  0
   57.3960   27.6770   46.2170 C   0  0  0  0  0  0  0  0  0  0  0  0
   57.0820   26.2580   46.0910 N   0  0  0  0  0  0  0  0  0  0  0  0
   55.8160   25.7000   45.7150 C   0  0  0  0  0  0  0  0  0  0  0  0
   54.7720   26.3430   46.0020 O   0  0  0  0  0  0  0  0  0  0  0  0
   55.6750   24.3860   45.0510 C   0  0  0  0  0  0  0  0  0  0  0  0
   55.1230   23.2210   45.5600 C   0  0  0  0  0  0  0  0  0  0  0  0
   55.2340   22.2120   44.6720 N   0  0  0  0  0  0  0  0  0  0  0  0
   55.8640   22.7430   43.6090 C   0  0  0  0  0  0  0  0  0  0  0  0
   56.1710   22.0120   42.4660 O   0  0  0  0  0  0  0  0  0  0  0  0
   56.1650   24.0740   43.8000 C   0  0  0  0  0  0  0  0  0  0  0  0
   56.9050   30.8830   44.7760 N   0  0  0  0  0  0  0  0  0  0  0  0
   57.7320   31.5380   45.7470 C   0  0  0  0  0  0  0  0  0  0  0  0
   57.6180   32.9230   45.9130 C   0  0  0  0  0  0  0  0  0  0  0  0
   58.3890   33.5870   46.8720 C   0  0  0  0  0  0  0  0  0  0  0  0
   59.2740   32.8660   47.6860 C   0  0  0  0  0  0  0  0  0  0  0  0
   60.2280   33.6930   48.9140 S   0  0  0  0  0  0  0  0  0  0  0  0
   60.3580   32.8190   50.1310 O   0  0  0  0  0  0  0  0  0  0  0  0
   59.5270   34.9630   49.3090 O   0  0  0  0  0  0  0  0  0  0  0  0
   61.8010   34.0750   48.2610 N   0  0  0  0  0  0  0  0  0  0  0  0
   61.8590   33.8090   46.8240 C   0  0  0  0  0  0  0  0  0  0  0  0
   63.3140   33.5150   46.4970 C   0  0  0  0  0  0  0  0  0  0  0  0
   63.9530   33.1270   47.8220 C   0  0  0  0  0  0  0  0  0  0  0  0
   62.8410   33.2370   48.8540 C   0  0  0  0  0  0  0  0  0  0  0  0
   59.3630   31.4760   47.5490 C   0  0  0  0  0  0  0  0  0  0  0  0
   58.5930   30.8120   46.5890 C   0  0  0  0  0  0  0  0  0  0  0  0
   56.9695   27.6187   44.1061 H   0  0  0  0  0  0  0  0  0  0  0  0
   58.3436   28.6995   44.5872 H   0  0  0  0  0  0  0  0  0  0  0  0
   58.4081   27.7909   46.6326 H   0  0  0  0  0  0  0  0  0  0  0  0
   56.6632   28.1517   46.8861 H   0  0  0  0  0  0  0  0  0  0  0  0
   54.6578   23.1316   46.5528 H   0  0  0  0  0  0  0  0  0  0  0  0
   56.5200   22.4720   41.6330 H   0  0  0  0  0  0  0  0  0  0  0  0
   56.6861   24.7459   43.1021 H   0  0  0  0  0  0  0  0  0  0  0  0
   56.9174   33.4928   45.2850 H   0  0  0  0  0  0  0  0  0  0  0  0
   58.3010   34.6773   46.9881 H   0  0  0  0  0  0  0  0  0  0  0  0
   61.2305   32.9420   46.5725 H   0  0  0  0  0  0  0  0  0  0  0  0
   61.4873   34.6676   46.2456 H   0  0  0  0  0  0  0  0  0  0  0  0
   63.3873   32.6868   45.7768 H   0  0  0  0  0  0  0  0  0  0  0  0
   63.8142   34.3808   46.0385 H   0  0  0  0  0  0  0  0  0  0  0  0
   64.3362   32.0969   47.7775 H   0  0  0  0  0  0  0  0  0  0  0  0
   64.8067   33.7749   48.0698 H   0  0  0  0  0  0  0  0  0  0  0  0
   62.4385   32.2399   49.0857 H   0  0  0  0  0  0  0  0  0  0  0  0
   63.2134   33.6726   49.7929 H   0  0  0  0  0  0  0  0  0  0  0  0
   60.0412   30.9037   48.1990 H   0  0  0  0  0  0  0  0  0  0  0  0
   58.6610   29.7184   46.4922 H   0  0  0  0  0  0  0  0  0  0  0  0
  1  2  2  0
  2  3  1  0
  3  4  1  0
  4  5  1  0
  5  6  1  0
  6  7  2  0
  6  8  1  0
  8  9  2  0
  9 10  1  0
 10 11  1  0
 11 12  1  0
 11 13  2  0
  2 14  1  0
 14 15  1  0
 15 16  2  0
 16 17  1  0
 17 18  2  0
 18 19  1  0
 19 20  2  0
 19 21  2  0
 19 22  1  0
 22 23  1  0
 23 24  1  0
 24 25  1  0
 25 26  1  0
 18 27  1  0
 27 28  2  0
 13  8  1  0
 28 15  1  0
 26 22  1  0
  3 29  1  0
  3 30  1  0
  4 31  1  0
  4 32  1  0
  9 33  1  0
 12 34  1  0
 13 35  1  0
 16 36  1  0
 17 37  1  0
 23 38  1  0
 23 39  1  0
 24 40  1  0
 24 41  1  0
 25 42  1  0
 25 43  1  0
 26 44  1  0
 26 45  1  0
 27 46  1  0
 28 47  1  0
M  CHG  3   5  -1  10  -1  14  -1
M  END
>  <UniqueID>  (58) 
54

>  <SMILES>  (58) 
O=C(CC[N-]C(=O)c1c[n-]c(O)c1)[N-]c1ccc(S(=O)(=O)N2CCCC2)cc1

>  <Energy>  (58) 
77.81052245728235

>  <Genealogy>  (58) 
O=C(CC[N-]C(=O)c1c[n-]c(O)c1)[N-]c1ccc(S(=O)(=O)N2CCCC2)cc1 (protonated)
O=C(CC[N-]C(=O)c1c[n-]c(O)c1)[N-]c1ccc(S(=O)(=O)N2CCCC2)cc1 (3D coordinates assigned)
O=C(CC[N-]C(=O)c1c[n-]c(O)c1)[N-]c1ccc(S(=O)(=O)N2CCCC2)cc1 (nonaromatic ring conformer: 77.81052245728235 kcal/mol)

>  <smiles>  (58) 
O=C(CCNC(=O)c1c[nH]c(O)c1)Nc1ccc(S(=O)(=O)N2CCCC2)cc1

>  <score_type>  (58) 
oracle

>  <origin>  (58) 
adg

>  <m_score__min__energy>  (58) 
-14.56

>  <m_primary>  (58) 
energy

$$$$
58:0
     RDKit          3D

 41 43  0  0  0  0  0  0  0  0999 V2000
   57.2359   24.9272   46.6881 H   0  0  0  0  0  0  0  0  0  0  0  0
   56.4620   25.6230   46.3320 C   0  0  0  0  0  0  0  0  0  0  0  0
   55.4154   25.2920   46.2610 H   0  0  0  0  0  0  0  0  0  0  0  0
   56.7910   26.8620   45.9880 C   0  0  0  0  0  0  0  0  0  0  0  0
   55.8970   27.7730   45.5420 N   0  0  0  0  0  0  0  0  0  0  0  0
   56.4920   28.9620   45.2570 C   0  0  0  0  0  0  0  0  0  0  0  0
   55.8250   29.9260   44.7950 O   0  0  0  0  0  0  0  0  0  0  0  0
   57.8750   29.0110   45.4870 C   0  0  0  0  0  0  0  0  0  0  0  0
   58.7290   30.0280   45.2930 C   0  0  0  0  0  0  0  0  0  0  0  0
   59.7826   29.7830   45.0932 H   0  0  0  0  0  0  0  0  0  0  0  0
   58.3480   31.4530   45.3300 C   0  0  0  0  0  0  0  0  0  0  0  0
   58.0360   32.1000   44.1250 C   0  0  0  0  0  0  0  0  0  0  0  0
   58.0547   31.5366   43.1804 H   0  0  0  0  0  0  0  0  0  0  0  0
   57.7020   33.4550   44.1190 C   0  0  0  0  0  0  0  0  0  0  0  0
   57.4464   33.9539   43.1725 H   0  0  0  0  0  0  0  0  0  0  0  0
   57.6920   34.1770   45.3120 C   0  0  0  0  0  0  0  0  0  0  0  0
   57.4195   35.2427   45.3057 H   0  0  0  0  0  0  0  0  0  0  0  0
   58.0270   33.5510   46.5150 C   0  0  0  0  0  0  0  0  0  0  0  0
   58.0168   34.1267   47.4523 H   0  0  0  0  0  0  0  0  0  0  0  0
   58.3780   32.1860   46.5350 C   0  0  0  0  0  0  0  0  0  0  0  0
   58.7610   31.5290   47.7180 O   0  0  0  0  0  0  0  0  0  0  0  0
   59.2440   32.1640   48.9010 C   0  0  0  0  0  0  0  0  0  0  0  0
   58.5841   33.0066   49.1552 H   0  0  0  0  0  0  0  0  0  0  0  0
   59.2538   31.4306   49.7208 H   0  0  0  0  0  0  0  0  0  0  0  0
   60.6440   32.6770   48.6880 C   0  0  0  0  0  0  0  0  0  0  0  0
   61.1210   33.4450   49.5140 O   0  0  0  0  0  0  0  0  0  0  0  0
   61.4160   32.2870   47.5190 N   0  0  0  0  0  0  0  0  0  0  0  0
   60.8380   31.6700   46.8990 H   0  0  0  0  0  0  0  0  0  0  0  0
   62.6440   31.5750   47.9050 C   0  0  0  0  0  0  0  0  0  0  0  0
   62.5160   31.1187   48.8977 H   0  0  0  0  0  0  0  0  0  0  0  0
   62.8687   30.7759   47.1833 H   0  0  0  0  0  0  0  0  0  0  0  0
   63.7780   32.5930   47.9440 C   0  0  0  0  0  0  0  0  0  0  0  0
   64.0399   32.8346   48.9847 H   0  0  0  0  0  0  0  0  0  0  0  0
   64.6872   32.2040   47.4624 H   0  0  0  0  0  0  0  0  0  0  0  0
   63.2530   33.8270   47.2310 C   0  0  0  0  0  0  0  0  0  0  0  0
   63.2127   34.6816   47.9225 H   0  0  0  0  0  0  0  0  0  0  0  0
   63.9035   34.1200   46.3938 H   0  0  0  0  0  0  0  0  0  0  0  0
   61.8540   33.4630   46.7550 C   0  0  0  0  0  0  0  0  0  0  0  0
   61.1668   34.3032   46.9333 H   0  0  0  0  0  0  0  0  0  0  0  0
   61.8579   33.2435   45.6771 H   0  0  0  0  0  0  0  0  0  0  0  0
   58.3500   27.4930   46.0440 S   0  0  0  0  0  0  0  0  0  0  0  0
  1  2  1  0
  2  3  1  0
  2  4  2  0
  4  5  1  0
  5  6  1  0
  6  7  2  0
  6  8  1  0
  8  9  2  0
  9 10  1  0
  9 11  1  0
 11 12  2  0
 12 13  1  0
 12 14  1  0
 14 15  1  0
 14 16  2  0
 16 17  1  0
 16 18  1  0
 18 19  1  0
 18 20  2  0
 20 21  1  0
 21 22  1  0
 22 23  1  0
 22 24  1  0
 22 25  1  0
 25 26  2  0
 25 27  1  0
 27 28  1  0
 27 29  1  0
 29 30  1  0
 29 31  1  0
 29 32  1  0
 32 33  1  0
 32 34  1  0
 32 35  1  0
 35 36  1  0
 35 37  1  0
 35 38  1  0
 38 39  1  0
 38 40  1  0
  8 41  1  0
 41  4  1  0
 20 11  1  0
 38 27  1  0
M  CHG  2   5  -1  27   1
M  END
>  <UniqueID>  (59) 
55

>  <SMILES>  (59) 
C=c1[n-]c(=O)/c(=C\c2ccccc2OCC(=O)[NH+]2CCCC2)s1

>  <Energy>  (59) 
82.49102236146625

>  <Genealogy>  (59) 
C=c1[n-]c(=O)c(=Cc2ccccc2OCC(=O)[NH+]2CCCC2)s1 (protonated)
C=c1[n-]c(=O)/c(=C\c2ccccc2OCC(=O)[NH+]2CCCC2)s1 (cis-trans isomerization)
C=c1[n-]c(=O)/c(=C\c2ccccc2OCC(=O)[NH+]2CCCC2)s1 (3D coordinates assigned)
C=c1[n-]c(=O)/c(=C\c2ccccc2OCC(=O)[NH+]2CCCC2)s1 (nonaromatic ring conformer: 82.49102236146625 kcal/mol)

>  <smiles>  (59) 
C=c1[nH]c(=O)c(=Cc2ccccc2OCC(=O)N2CCCC2)s1

>  <score_type>  (59) 
oracle

>  <origin>  (59) 
adg

>  <m_score__min__energy>  (59) 
-8.3399999999999999

>  <m_primary>  (59) 
energy

$$$$
59:0
     RDKit          3D

 76 80  0  0  0  0  0  0  0  0999 V2000
   60.9665   29.2330   47.7232 H   0  0  0  0  0  0  0  0  0  0  0  0
   60.0550   28.7770   48.1370 C   0  0  0  0  0  0  0  0  0  0  0  0
   59.5230   29.3540   49.3770 C   0  0  0  0  0  0  0  0  0  0  0  0
   58.2280   29.6980   49.5450 N   0  0  0  0  0  0  0  0  0  0  0  0
   58.1650   30.0730   50.8420 C   0  0  0  0  0  0  0  0  0  0  0  0
   57.0990   30.4710   51.3840 O   0  0  0  0  0  0  0  0  0  0  0  0
   59.3440   29.9780   51.4960 N   0  0  0  0  0  0  0  0  0  0  0  0
   59.6050   30.2820   52.9030 C   0  0  0  0  0  0  0  0  0  0  0  0
   58.7399   30.8132   53.3265 H   0  0  0  0  0  0  0  0  0  0  0  0
   59.7719   29.3415   53.4485 H   0  0  0  0  0  0  0  0  0  0  0  0
   60.8300   31.1470   53.0290 C   0  0  0  0  0  0  0  0  0  0  0  0
   61.9300   30.6160   52.9480 O   0  0  0  0  0  0  0  0  0  0  0  0
   60.7120   32.5860   53.2140 N   0  0  0  0  0  0  0  0  0  0  0  0
   60.8360   32.7840   54.2370 H   0  0  0  0  0  0  0  0  0  0  0  0
   59.3560   33.0490   52.8520 C   0  0  0  0  0  0  0  0  0  0  0  0
   58.6193   32.4182   53.3710 H   0  0  0  0  0  0  0  0  0  0  0  0
   59.2756   34.1039   53.1533 H   0  0  0  0  0  0  0  0  0  0  0  0
   59.0830   32.9780   51.3330 C   0  0  0  0  0  0  0  0  0  0  0  0
   58.5072   32.0654   51.1197 H   0  0  0  0  0  0  0  0  0  0  0  0
   58.5241   33.8821   51.0496 H   0  0  0  0  0  0  0  0  0  0  0  0
   60.3310   32.9500   50.5370 N   0  0  0  0  0  0  0  0  0  0  0  0
   60.0740   33.2780   49.1200 C   0  0  0  0  0  0  0  0  0  0  0  0
   59.2994   32.6029   48.7273 H   0  0  0  0  0  0  0  0  0  0  0  0
   59.7372   34.3230   49.0532 H   0  0  0  0  0  0  0  0  0  0  0  0
   61.3300   33.1190   48.3030 C   0  0  0  0  0  0  0  0  0  0  0  0
   62.2320   32.0740   48.5700 C   0  0  0  0  0  0  0  0  0  0  0  0
   62.0275   31.3677   49.3881 H   0  0  0  0  0  0  0  0  0  0  0  0
   63.3890   31.9310   47.7970 C   0  0  0  0  0  0  0  0  0  0  0  0
   64.0910   31.1104   48.0062 H   0  0  0  0  0  0  0  0  0  0  0  0
   63.6550   32.8290   46.7590 C   0  0  0  0  0  0  0  0  0  0  0  0
   64.5644   32.7125   46.1512 H   0  0  0  0  0  0  0  0  0  0  0  0
   62.7670   33.8740   46.4930 C   0  0  0  0  0  0  0  0  0  0  0  0
   62.9815   34.5846   45.6812 H   0  0  0  0  0  0  0  0  0  0  0  0
   61.6060   34.0170   47.2580 C   0  0  0  0  0  0  0  0  0  0  0  0
   60.9050   34.8364   47.0410 H   0  0  0  0  0  0  0  0  0  0  0  0
   61.3350   33.8570   51.1140 C   0  0  0  0  0  0  0  0  0  0  0  0
   62.2094   33.9031   50.4482 H   0  0  0  0  0  0  0  0  0  0  0  0
   60.8952   34.8593   51.2230 H   0  0  0  0  0  0  0  0  0  0  0  0
   61.7760   33.3440   52.5020 C   0  0  0  0  0  0  0  0  0  0  0  0
   62.6462   32.6842   52.3702 H   0  0  0  0  0  0  0  0  0  0  0  0
   62.0139   34.2258   53.1150 H   0  0  0  0  0  0  0  0  0  0  0  0
   60.1950   29.4860   50.5750 C   0  0  0  0  0  0  0  0  0  0  0  0
   61.5680   29.1600   50.8080 N   0  0  0  0  0  0  0  0  0  0  0  0
   61.8690   28.1600   50.8610 H   0  0  0  0  0  0  0  0  0  0  0  0
   62.2840   29.9040   50.9490 H   0  0  0  0  0  0  0  0  0  0  0  0
   59.5260   27.7370   47.4590 C   0  0  0  0  0  0  0  0  0  0  0  0
   59.2160   26.5410   48.0660 C   0  0  0  0  0  0  0  0  0  0  0  0
   59.3954   26.3000   49.1242 H   0  0  0  0  0  0  0  0  0  0  0  0
   58.6610   25.7150   47.1660 N   0  0  0  0  0  0  0  0  0  0  0  0
   58.6420   26.4080   46.0070 C   0  0  0  0  0  0  0  0  0  0  0  0
   58.0750   25.8500   44.9130 C   0  0  0  0  0  0  0  0  0  0  0  0
   58.6630   25.8971   43.9846 H   0  0  0  0  0  0  0  0  0  0  0  0
   56.7360   25.1730   44.8160 C   0  0  0  0  0  0  0  0  0  0  0  0
   56.2340   25.4934   43.8911 H   0  0  0  0  0  0  0  0  0  0  0  0
   56.8869   24.0834   44.8062 H   0  0  0  0  0  0  0  0  0  0  0  0
   55.8810   25.5350   45.9930 C   0  0  0  0  0  0  0  0  0  0  0  0
   55.7700   24.7440   46.9670 O   0  0  0  0  0  0  0  0  0  0  0  0
   55.1480   26.7140   45.9810 O   0  0  0  0  0  0  0  0  0  0  0  0
   59.1920   27.6570   46.1370 N   0  0  0  0  0  0  0  0  0  0  0  0
   59.5700   28.6080   45.0760 C   0  0  0  0  0  0  0  0  0  0  0  0
   59.2548   28.1940   44.1069 H   0  0  0  0  0  0  0  0  0  0  0  0
   60.6601   28.7442   45.1323 H   0  0  0  0  0  0  0  0  0  0  0  0
   58.9370   29.9720   45.2450 C   0  0  0  0  0  0  0  0  0  0  0  0
   57.7260   30.2400   44.5890 C   0  0  0  0  0  0  0  0  0  0  0  0
   57.2571   29.4597   43.9715 H   0  0  0  0  0  0  0  0  0  0  0  0
   57.1100   31.4870   44.7120 C   0  0  0  0  0  0  0  0  0  0  0  0
   56.1613   31.6832   44.1910 H   0  0  0  0  0  0  0  0  0  0  0  0
   57.6960   32.4900   45.4970 C   0  0  0  0  0  0  0  0  0  0  0  0
   57.0130   33.8170   45.6590 C   0  0  0  0  0  0  0  0  0  0  0  0
   56.8974   34.0416   46.7296 H   0  0  0  0  0  0  0  0  0  0  0  0
   57.6191   34.6019   45.1831 H   0  0  0  0  0  0  0  0  0  0  0  0
   56.0220   33.7798   45.1831 H   0  0  0  0  0  0  0  0  0  0  0  0
   58.8860   32.2180   46.1850 C   0  0  0  0  0  0  0  0  0  0  0  0
   59.3363   32.9903   46.8259 H   0  0  0  0  0  0  0  0  0  0  0  0
   59.5040   30.9700   46.0610 C   0  0  0  0  0  0  0  0  0  0  0  0
   60.4387   30.7664   46.6041 H   0  0  0  0  0  0  0  0  0  0  0  0
  1  2  1  0
  2  3  1  0
  3  4  1  0
  4  5  1  0
  5  6  2  0
  5  7  1  0
  7  8  1  0
  8  9  1  0
  8 10  1  0
  8 11  1  0
 11 12  2  0
 11 13  1  0
 13 14  1  0
 13 15  1  0
 15 16  1  0
 15 17  1  0
 15 18  1  0
 18 19  1  0
 18 20  1  0
 18 21  1  0
 21 22  1  0
 22 23  1  0
 22 24  1  0
 22 25  1  0
 25 26  2  0
 26 27  1  0
 26 28  1  0
 28 29  1  0
 28 30  2  0
 30 31  1  0
 30 32  1  0
 32 33  1  0
 32 34  2  0
 34 35  1  0
 21 36  1  0
 36 37  1  0
 36 38  1  0
 36 39  1  0
 39 40  1  0
 39 41  1  0
  7 42  1  0
 42 43  1  0
 43 44  1  0
 43 45  1  0
  2 46  2  3
 46 47  1  0
 47 48  1  0
 47 49  2  0
 49 50  1  0
 50 51  2  0
 51 52  1  0
 51 53  1  0
 53 54  1  0
 53 55  1  0
 53 56  1  0
 56 57  2  0
 56 58  1  0
 50 59  1  0
 59 60  1  0
 60 61  1  0
 60 62  1  0
 60 63  1  0
 63 64  2  0
 64 65  1  0
 64 66  1  0
 66 67  1  0
 66 68  2  0
 68 69  1  0
 69 70  1  0
 69 71  1  0
 69 72  1  0
 68 73  1  0
 73 74  1  0
 73 75  2  0
 75 76  1  0
 42  3  2  0
 59 46  1  0
 75 63  1  0
 39 13  1  0
 34 25  1  0
M  CHG  3   4  -1  13   1  58  -1
M  END
>  <UniqueID>  (60) 
56

>  <SMILES>  (60) 
Cc1ccc(Cn2c(=Cc3[n-]c(=O)n(CC(=O)[NH+]4CCN(Cc5ccccc5)CC4)c3N)cn/c2=C/CC(=O)[O-])cc1

>  <Energy>  (60) 
169.51682686930886

>  <Genealogy>  (60) 
Cc1ccc(Cn2c(=Cc3[n-]c(=O)n(CC(=O)[NH+]4CCN(Cc5ccccc5)CC4)c3N)cnc2=CCC(=O)[O-])cc1 (protonated)
Cc1ccc(Cn2c(=Cc3[n-]c(=O)n(CC(=O)[NH+]4CCN(Cc5ccccc5)CC4)c3N)cn/c2=C/CC(=O)[O-])cc1 (cis-trans isomerization)
Cc1ccc(Cn2c(=Cc3[n-]c(=O)n(CC(=O)[NH+]4CCN(Cc5ccccc5)CC4)c3N)cn/c2=C/CC(=O)[O-])cc1 (3D coordinates assigned)
Cc1ccc(Cn2c(=Cc3[n-]c(=O)n(CC(=O)[NH+]4CCN(Cc5ccccc5)CC4)c3N)cn/c2=C/CC(=O)[O-])cc1 (nonaromatic ring conformer: 169.51682686930886 kcal/mol)

>  <smiles>  (60) 
Cc1ccc(Cn2c(=Cc3[nH]c(=O)n(CC(=O)N4CCN(Cc5ccccc5)CC4)c3N)cnc2=CCC(=O)O)cc1

>  <score_type>  (60) 
oracle

>  <origin>  (60) 
adg

>  <m_score__min__energy>  (60) 
-12.960000000000001

>  <m_primary>  (60) 
energy

$$$$
60:0
     RDKit          3D

 37 40  0  0  0  0  0  0  0  0999 V2000
   55.1500   27.8470   45.0240 H   0  0  0  0  0  0  0  0  0  0  0  0
   55.4420   28.8090   44.9030 O   0  0  0  0  0  0  0  0  0  0  0  0
   56.6410   29.2760   45.4350 C   0  0  0  0  0  0  0  0  0  0  0  0
   57.1240   30.5110   45.1680 N   0  0  0  0  0  0  0  0  0  0  0  0
   58.2800   30.5710   45.8540 C   0  0  0  0  0  0  0  0  0  0  0  0
   59.1770   31.6380   45.8670 C   0  0  0  0  0  0  0  0  0  0  0  0
   58.9586   32.5642   45.3152 H   0  0  0  0  0  0  0  0  0  0  0  0
   60.3750   31.5010   46.6070 C   0  0  0  0  0  0  0  0  0  0  0  0
   61.3530   32.5550   46.6440 N   0  0  0  0  0  0  0  0  0  0  0  0
   61.3260   33.2800   45.8920 H   0  0  0  0  0  0  0  0  0  0  0  0
   62.4390   32.6180   47.5800 C   0  0  0  0  0  0  0  0  0  0  0  0
   62.7820   31.6300   48.3320 N   0  0  0  0  0  0  0  0  0  0  0  0
   63.9510   32.0030   49.1200 C   0  0  0  0  0  0  0  0  0  0  0  0
   63.7159   31.9785   50.1943 H   0  0  0  0  0  0  0  0  0  0  0  0
   64.7908   31.3100   48.9634 H   0  0  0  0  0  0  0  0  0  0  0  0
   64.2960   33.4340   48.6760 C   0  0  0  0  0  0  0  0  0  0  0  0
   64.2453   34.1307   49.5257 H   0  0  0  0  0  0  0  0  0  0  0  0
   65.3167   33.5201   48.2749 H   0  0  0  0  0  0  0  0  0  0  0  0
   63.2800   33.7460   47.6920 N   0  0  0  0  0  0  0  0  0  0  0  0
   63.1910   34.6380   47.1560 H   0  0  0  0  0  0  0  0  0  0  0  0
   60.6500   30.2790   47.2670 C   0  0  0  0  0  0  0  0  0  0  0  0
   61.5972   30.1588   47.8132 H   0  0  0  0  0  0  0  0  0  0  0  0
   59.7300   29.2180   47.2340 C   0  0  0  0  0  0  0  0  0  0  0  0
   59.9436   28.2665   47.7429 H   0  0  0  0  0  0  0  0  0  0  0  0
   58.5370   29.4080   46.5360 C   0  0  0  0  0  0  0  0  0  0  0  0
   57.4730   28.5610   46.2910 C   0  0  0  0  0  0  0  0  0  0  0  0
   57.2750   27.1720   46.7470 C   0  0  0  0  0  0  0  0  0  0  0  0
   57.8529   26.8194   47.6140 H   0  0  0  0  0  0  0  0  0  0  0  0
   56.4280   26.3200   46.1590 C   0  0  0  0  0  0  0  0  0  0  0  0
   55.0900   26.3840   46.3500 N   0  0  0  0  0  0  0  0  0  0  0  0
   54.6280   25.3580   45.6190 C   0  0  0  0  0  0  0  0  0  0  0  0
   53.4070   25.0630   45.5200 O   0  0  0  0  0  0  0  0  0  0  0  0
   55.6710   24.6980   45.0160 C   0  0  0  0  0  0  0  0  0  0  0  0
   55.5940   23.6340   44.2190 C   0  0  0  0  0  0  0  0  0  0  0  0
   54.6141   23.1938   43.9824 H   0  0  0  0  0  0  0  0  0  0  0  0
   56.5103   23.1953   43.7972 H   0  0  0  0  0  0  0  0  0  0  0  0
   56.8230   25.3000   45.3580 N   0  0  0  0  0  0  0  0  0  0  0  0
  1  2  1  0
  2  3  1  0
  3  4  1  0
  4  5  1  0
  5  6  2  0
  6  7  1  0
  6  8  1  0
  8  9  1  0
  9 10  1  0
  9 11  1  0
 11 12  2  0
 12 13  1  0
 13 14  1  0
 13 15  1  0
 13 16  1  0
 16 17  1  0
 16 18  1  0
 16 19  1  0
 19 20  1  0
  8 21  2  0
 21 22  1  0
 21 23  1  0
 23 24  1  0
 23 25  2  0
 25 26  1  0
 26 27  1  0
 27 28  1  0
 27 29  2  0
 29 30  1  0
 30 31  1  0
 31 32  2  0
 31 33  1  0
 33 34  2  0
 34 35  1  0
 34 36  1  0
 33 37  1  0
 26  3  2  0
 37 29  1  0
 25  5  1  0
 19 11  1  0
M  CHG  3   4  -1  30  -1  37  -1
M  END
>  <UniqueID>  (61) 
57

>  <SMILES>  (61) 
C=c1[n-]/c(=C\c2c(O)[n-]c3cc(NC4=NCCN4)ccc23)[n-]c1=O

>  <Energy>  (61) 
121.91466034775765

>  <Genealogy>  (61) 
C=c1[n-]c(=Cc2c(O)[n-]c3cc(NC4=NCCN4)ccc23)[n-]c1=O (protonated)
C=c1[n-]/c(=C\c2c(O)[n-]c3cc(NC4=NCCN4)ccc23)[n-]c1=O (cis-trans isomerization)
C=c1[n-]/c(=C\c2c(O)[n-]c3cc(NC4=NCCN4)ccc23)[n-]c1=O (3D coordinates assigned)
C=c1[n-]/c(=C\c2c(O)[n-]c3cc(NC4=NCCN4)ccc23)[n-]c1=O (nonaromatic ring conformer: 121.91466034775765 kcal/mol)

>  <smiles>  (61) 
C=c1[nH]c(=Cc2c(O)[nH]c3cc(NC4=NCCN4)ccc23)[nH]c1=O

>  <score_type>  (61) 
oracle

>  <origin>  (61) 
adg

>  <m_score__min__energy>  (61) 
-13.09

>  <m_primary>  (61) 
energy

$$$$
61:0
     RDKit          3D

 49 52  0  0  0  0  0  0  0  0999 V2000
   56.8473   23.3123   47.6752 H   0  0  0  0  0  0  0  0  0  0  0  0
   57.3970   24.1480   48.1330 C   0  0  0  0  0  0  0  0  0  0  0  0
   57.7160   24.0865   49.1839 H   0  0  0  0  0  0  0  0  0  0  0  0
   57.6770   25.2370   47.4130 C   0  0  0  0  0  0  0  0  0  0  0  0
   58.3320   26.2540   47.9280 O   0  0  0  0  0  0  0  0  0  0  0  0
   58.5230   27.1570   46.9960 C   0  0  0  0  0  0  0  0  0  0  0  0
   59.2320   28.4260   47.2320 C   0  0  0  0  0  0  0  0  0  0  0  0
   59.8150   28.5980   48.3400 O   0  0  0  0  0  0  0  0  0  0  0  0
   59.2500   29.4750   46.2440 N   0  0  0  0  0  0  0  0  0  0  0  0
   60.4290   30.3420   46.1150 C   0  0  0  0  0  0  0  0  0  0  0  0
   61.2245   29.9799   46.7828 H   0  0  0  0  0  0  0  0  0  0  0  0
   60.7847   30.3225   45.0743 H   0  0  0  0  0  0  0  0  0  0  0  0
   60.0550   31.7800   46.4990 C   0  0  0  0  0  0  0  0  0  0  0  0
   60.0049   31.8545   47.5953 H   0  0  0  0  0  0  0  0  0  0  0  0
   60.8233   32.4541   46.0924 H   0  0  0  0  0  0  0  0  0  0  0  0
   58.7510   32.1750   45.9330 N   0  0  0  0  0  0  0  0  0  0  0  0
   58.1030   33.3960   46.3690 C   0  0  0  0  0  0  0  0  0  0  0  0
   56.8900   33.5960   46.0830 O   0  0  0  0  0  0  0  0  0  0  0  0
   58.8390   34.4020   47.2350 C   0  0  0  0  0  0  0  0  0  0  0  0
   58.0482   35.1613   47.3249 H   0  0  0  0  0  0  0  0  0  0  0  0
   59.4790   33.8440   48.5100 C   0  0  0  0  0  0  0  0  0  0  0  0
   59.2159   34.3966   49.4240 H   0  0  0  0  0  0  0  0  0  0  0  0
   59.2445   32.8251   48.8519 H   0  0  0  0  0  0  0  0  0  0  0  0
   60.8600   34.1750   47.9580 C   0  0  0  0  0  0  0  0  0  0  0  0
   61.4128   34.9188   48.5506 H   0  0  0  0  0  0  0  0  0  0  0  0
   61.6324   33.3945   47.8925 H   0  0  0  0  0  0  0  0  0  0  0  0
   60.2260   34.7380   46.6890 C   0  0  0  0  0  0  0  0  0  0  0  0
   60.4011   35.8135   46.5382 H   0  0  0  0  0  0  0  0  0  0  0  0
   60.5392   34.3723   45.7000 H   0  0  0  0  0  0  0  0  0  0  0  0
   58.0930   31.2710   44.9730 C   0  0  0  0  0  0  0  0  0  0  0  0
   57.0820   31.6444   44.7527 H   0  0  0  0  0  0  0  0  0  0  0  0
   58.6826   31.2328   44.0451 H   0  0  0  0  0  0  0  0  0  0  0  0
   57.9970   29.8620   45.5730 C   0  0  0  0  0  0  0  0  0  0  0  0
   57.1774   29.8408   46.3063 H   0  0  0  0  0  0  0  0  0  0  0  0
   57.8091   29.1505   44.7554 H   0  0  0  0  0  0  0  0  0  0  0  0
   57.9880   26.7250   45.7990 C   0  0  0  0  0  0  0  0  0  0  0  0
   58.0158   27.2516   44.8336 H   0  0  0  0  0  0  0  0  0  0  0  0
   57.4090   25.4940   46.0600 C   0  0  0  0  0  0  0  0  0  0  0  0
   56.7550   24.7750   45.1300 C   0  0  0  0  0  0  0  0  0  0  0  0
   57.3415   24.3989   44.2788 H   0  0  0  0  0  0  0  0  0  0  0  0
   55.3160   24.4490   45.1570 C   0  0  0  0  0  0  0  0  0  0  0  0
   54.3700   25.3850   45.6100 C   0  0  0  0  0  0  0  0  0  0  0  0
   54.7720   26.6280   46.0890 O   0  0  0  0  0  0  0  0  0  0  0  0
   53.0460   25.0800   45.5750 N   0  0  0  0  0  0  0  0  0  0  0  0
   52.6140   23.8840   45.0950 C   0  0  0  0  0  0  0  0  0  0  0  0
   51.3830   23.6220   45.0740 O   0  0  0  0  0  0  0  0  0  0  0  0
   53.5090   22.9730   44.6280 N   0  0  0  0  0  0  0  0  0  0  0  0
   54.8430   23.2310   44.6420 C   0  0  0  0  0  0  0  0  0  0  0  0
   55.6450   22.3670   44.1940 O   0  0  0  0  0  0  0  0  0  0  0  0
  1  2  1  0
  2  3  1  0
  2  4  2  0
  4  5  1  0
  5  6  1  0
  6  7  1  0
  7  8  2  0
  7  9  1  0
  9 10  1  0
 10 11  1  0
 10 12  1  0
 10 13  1  0
 13 14  1  0
 13 15  1  0
 13 16  1  0
 16 17  1  0
 17 18  2  0
 17 19  1  0
 19 20  1  0
 19 21  1  0
 21 22  1  0
 21 23  1  0
 21 24  1  0
 24 25  1  0
 24 26  1  0
 24 27  1  0
 27 28  1  0
 27 29  1  0
 16 30  1  0
 30 31  1  0
 30 32  1  0
 30 33  1  0
 33 34  1  0
 33 35  1  0
  6 36  2  0
 36 37  1  0
 36 38  1  0
 38 39  2  0
 39 40  1  0
 39 41  1  0
 41 42  2  0
 42 43  1  0
 42 44  1  0
 44 45  1  0
 45 46  2  0
 45 47  1  0
 47 48  1  0
 48 49  2  0
 38  4  1  0
 48 41  1  0
 33  9  1  0
 27 19  1  0
M  CHG  3  43  -1  44  -1  47  -1
M  END
>  <UniqueID>  (62) 
58

>  <SMILES>  (62) 
C=c1oc(C(=O)N2CCN(C(=O)C3CCC3)CC2)c/c1=C/c1c([O-])[n-]c(=O)[n-]c1=O

>  <Energy>  (62) 
158.8378332072237

>  <Genealogy>  (62) 
C=c1oc(C(=O)N2CCN(C(=O)C3CCC3)CC2)cc1=Cc1c([O-])[n-]c(=O)[n-]c1=O (protonated)
C=c1oc(C(=O)N2CCN(C(=O)C3CCC3)CC2)c/c1=C/c1c([O-])[n-]c(=O)[n-]c1=O (cis-trans isomerization)
C=c1oc(C(=O)N2CCN(C(=O)C3CCC3)CC2)c/c1=C/c1c([O-])[n-]c(=O)[n-]c1=O (3D coordinates assigned)
C=c1oc(C(=O)N2CCN(C(=O)C3CCC3)CC2)c/c1=C/c1c([O-])[n-]c(=O)[n-]c1=O (nonaromatic ring conformer: 158.8378332072237 kcal/mol)

>  <smiles>  (62) 
C=c1oc(C(=O)N2CCN(C(=O)C3CCC3)CC2)cc1=Cc1c(O)[nH]c(=O)[nH]c1=O

>  <score_type>  (62) 
oracle

>  <origin>  (62) 
adg

>  <m_score__min__energy>  (62) 
-15.65

>  <m_primary>  (62) 
energy

$$$$
62:0
     RDKit          3D

 42 43  0  0  0  0  0  0  0  0999 V2000
   57.3650   30.8150   42.8950 O   0  0  0  0  0  0  0  0  0  0  0  0
   56.5980   30.7280   43.8920 C   0  0  0  0  0  0  0  0  0  0  0  0
   55.5210   29.6900   43.9090 C   0  0  0  0  0  0  0  0  0  0  0  0
   55.6280   28.8710   45.1110 N   0  0  0  0  0  0  0  0  0  0  0  0
   56.8340   28.2130   45.5140 C   0  0  0  0  0  0  0  0  0  0  0  0
   57.8930   28.8730   45.7010 O   0  0  0  0  0  0  0  0  0  0  0  0
   56.8300   26.7330   45.7330 C   0  0  0  0  0  0  0  0  0  0  0  0
   55.4610   26.2320   45.8710 N   0  0  0  0  0  0  0  0  0  0  0  0
   55.4560   24.5620   46.3600 S   0  0  0  0  0  0  0  0  0  0  0  0
   55.8990   24.4660   47.7920 O   0  0  0  0  0  0  0  0  0  0  0  0
   54.0630   24.0080   46.2500 O   0  0  0  0  0  0  0  0  0  0  0  0
   56.5660   23.6330   45.3560 C   0  0  0  0  0  0  0  0  0  0  0  0
   56.1160   23.0930   44.1440 C   0  0  0  0  0  0  0  0  0  0  0  0
   56.9770   22.3310   43.3490 C   0  0  0  0  0  0  0  0  0  0  0  0
   58.2950   22.1070   43.7610 C   0  0  0  0  0  0  0  0  0  0  0  0
   58.7520   22.6410   44.9740 C   0  0  0  0  0  0  0  0  0  0  0  0
   60.0620   22.4230   45.3980 O   0  0  0  0  0  0  0  0  0  0  0  0
   57.8850   23.3990   45.7710 C   0  0  0  0  0  0  0  0  0  0  0  0
   56.7520   31.6100   45.0070 N   0  0  0  0  0  0  0  0  0  0  0  0
   57.0580   33.0300   44.8800 C   0  0  0  0  0  0  0  0  0  0  0  0
   58.0610   33.4470   45.9210 C   0  0  0  0  0  0  0  0  0  0  0  0
   58.1410   32.7510   47.1380 C   0  0  0  0  0  0  0  0  0  0  0  0
   59.0720   33.1320   48.1090 C   0  0  0  0  0  0  0  0  0  0  0  0
   59.9400   34.2020   47.8650 C   0  0  0  0  0  0  0  0  0  0  0  0
   60.8520   34.5600   48.8030 F   0  0  0  0  0  0  0  0  0  0  0  0
   59.8740   34.8920   46.6520 C   0  0  0  0  0  0  0  0  0  0  0  0
   58.9390   34.5180   45.6810 C   0  0  0  0  0  0  0  0  0  0  0  0
   54.5390   30.1854   43.8934 H   0  0  0  0  0  0  0  0  0  0  0  0
   55.6310   29.0449   43.0248 H   0  0  0  0  0  0  0  0  0  0  0  0
   57.3097   26.2400   44.8746 H   0  0  0  0  0  0  0  0  0  0  0  0
   57.3816   26.5118   46.6586 H   0  0  0  0  0  0  0  0  0  0  0  0
   55.0808   23.2694   43.8167 H   0  0  0  0  0  0  0  0  0  0  0  0
   56.6182   21.9075   42.3993 H   0  0  0  0  0  0  0  0  0  0  0  0
   58.9734   21.5113   43.1326 H   0  0  0  0  0  0  0  0  0  0  0  0
   60.7960   22.1840   44.7440 H   0  0  0  0  0  0  0  0  0  0  0  0
   58.2401   23.8125   46.7265 H   0  0  0  0  0  0  0  0  0  0  0  0
   57.4727   33.2231   43.8796 H   0  0  0  0  0  0  0  0  0  0  0  0
   56.1333   33.6080   45.0246 H   0  0  0  0  0  0  0  0  0  0  0  0
   57.4680   31.9020   47.3283 H   0  0  0  0  0  0  0  0  0  0  0  0
   59.1221   32.5904   49.0651 H   0  0  0  0  0  0  0  0  0  0  0  0
   60.5588   35.7312   46.4600 H   0  0  0  0  0  0  0  0  0  0  0  0
   58.8908   35.0636   44.7271 H   0  0  0  0  0  0  0  0  0  0  0  0
  1  2  2  0
  2  3  1  0
  3  4  1  0
  4  5  1  0
  5  6  2  0
  5  7  1  0
  7  8  1  0
  8  9  1  0
  9 10  2  0
  9 11  2  0
  9 12  1  0
 12 13  2  0
 13 14  1  0
 14 15  2  0
 15 16  1  0
 16 17  1  0
 16 18  2  0
  2 19  1  0
 19 20  1  0
 20 21  1  0
 21 22  2  0
 22 23  1  0
 23 24  2  0
 24 25  1  0
 24 26  1  0
 26 27  2  0
 18 12  1  0
 27 21  1  0
  3 28  1  0
  3 29  1  0
  7 30  1  0
  7 31  1  0
 13 32  1  0
 14 33  1  0
 15 34  1  0
 17 35  1  0
 18 36  1  0
 20 37  1  0
 20 38  1  0
 22 39  1  0
 23 40  1  0
 26 41  1  0
 27 42  1  0
M  CHG  3   4  -1   8  -1  19  -1
M  END
>  <UniqueID>  (63) 
59

>  <SMILES>  (63) 
O=C(C[N-]C(=O)C[N-]S(=O)(=O)c1cccc(O)c1)[N-]Cc1ccc(F)cc1

>  <Energy>  (63) 
30.998779286954743

>  <Genealogy>  (63) 
O=C(C[N-]C(=O)C[N-]S(=O)(=O)c1cccc(O)c1)[N-]Cc1ccc(F)cc1 (protonated)
O=C(C[N-]C(=O)C[N-]S(=O)(=O)c1cccc(O)c1)[N-]Cc1ccc(F)cc1 (3D coordinates assigned)
O=C(C[N-]C(=O)C[N-]S(=O)(=O)c1cccc(O)c1)[N-]Cc1ccc(F)cc1 (optimized conformer: 30.998779286954743 kcal/mol)

>  <smiles>  (63) 
O=C(CNC(=O)CNS(=O)(=O)c1cccc(O)c1)NCc1ccc(F)cc1

>  <score_type>  (63) 
oracle

>  <origin>  (63) 
adg

>  <m_score__min__energy>  (63) 
-14.06

>  <m_primary>  (63) 
energy

$$$$
63:0
     RDKit          3D

 58 61  0  0  0  0  0  0  0  0999 V2000
   58.2650   33.7120   45.7860 C   0  0  0  0  0  0  0  0  0  0  0  0
   57.8230   32.8320   44.6540 C   0  0  0  0  0  0  0  0  0  0  0  0
   58.2650   33.0910   43.3470 C   0  0  0  0  0  0  0  0  0  0  0  0
   57.8640   32.2670   42.2920 C   0  0  0  0  0  0  0  0  0  0  0  0
   57.0270   31.1730   42.5340 C   0  0  0  0  0  0  0  0  0  0  0  0
   56.5970   30.8860   43.8420 C   0  0  0  0  0  0  0  0  0  0  0  0
   55.7330   29.7140   44.1030 C   0  0  0  0  0  0  0  0  0  0  0  0
   54.6770   29.5610   43.4330 O   0  0  0  0  0  0  0  0  0  0  0  0
   56.0430   28.7670   45.1340 N   0  0  0  0  0  0  0  0  0  0  0  0
   57.3650   28.4150   45.5710 C   0  0  0  0  0  0  0  0  0  0  0  0
   57.8690   28.8610   46.8060 C   0  0  0  0  0  0  0  0  0  0  0  0
   59.1750   28.5380   47.2060 C   0  0  0  0  0  0  0  0  0  0  0  0
   59.7070   29.0260   48.4960 C   0  0  0  0  0  0  0  0  0  0  0  0
   60.3750   28.2430   49.2240 O   0  0  0  0  0  0  0  0  0  0  0  0
   59.4730   30.3780   48.9370 N   0  0  0  0  0  0  0  0  0  0  0  0
   59.7610   30.7120   50.3480 C   0  0  0  0  0  0  0  0  0  0  0  0
   59.4990   32.1920   50.7050 C   0  0  0  0  0  0  0  0  0  0  0  0
   60.3390   33.2150   49.9040 C   0  0  0  0  0  0  0  0  0  0  0  0
   61.2290   32.5660   48.9060 N   0  0  0  0  0  0  0  0  0  0  0  0
   62.4930   33.2880   48.5900 C   0  0  0  0  0  0  0  0  0  0  0  0
   62.4970   33.9560   47.2160 C   0  0  0  0  0  0  0  0  0  0  0  0
   63.6900   33.0950   46.8090 C   0  0  0  0  0  0  0  0  0  0  0  0
   63.6970   32.4310   48.1830 C   0  0  0  0  0  0  0  0  0  0  0  0
   60.5060   32.2350   47.6590 C   0  0  0  0  0  0  0  0  0  0  0  0
   59.2320   31.4210   47.9290 C   0  0  0  0  0  0  0  0  0  0  0  0
   59.9910   27.7940   46.3440 C   0  0  0  0  0  0  0  0  0  0  0  0
   59.5020   27.3600   45.1120 C   0  0  0  0  0  0  0  0  0  0  0  0
   58.1920   27.6700   44.7210 C   0  0  0  0  0  0  0  0  0  0  0  0
   57.7070   27.2390   43.4900 O   0  0  0  0  0  0  0  0  0  0  0  0
   57.0110   31.7130   44.9010 C   0  0  0  0  0  0  0  0  0  0  0  0
   58.0218   33.2278   46.7433 H   0  0  0  0  0  0  0  0  0  0  0  0
   59.3512   33.8735   45.7223 H   0  0  0  0  0  0  0  0  0  0  0  0
   57.7460   34.6798   45.7223 H   0  0  0  0  0  0  0  0  0  0  0  0
   58.9295   33.9458   43.1526 H   0  0  0  0  0  0  0  0  0  0  0  0
   58.2075   32.4793   41.2688 H   0  0  0  0  0  0  0  0  0  0  0  0
   56.7038   30.5348   41.6984 H   0  0  0  0  0  0  0  0  0  0  0  0
   57.2328   29.4695   47.4655 H   0  0  0  0  0  0  0  0  0  0  0  0
   59.1264   30.0830   50.9896 H   0  0  0  0  0  0  0  0  0  0  0  0
   60.8339   30.5293   50.5076 H   0  0  0  0  0  0  0  0  0  0  0  0
   58.4356   32.4046   50.5209 H   0  0  0  0  0  0  0  0  0  0  0  0
   59.7914   32.3111   51.7587 H   0  0  0  0  0  0  0  0  0  0  0  0
   59.6553   33.8962   49.3762 H   0  0  0  0  0  0  0  0  0  0  0  0
   60.9773   33.7550   50.6188 H   0  0  0  0  0  0  0  0  0  0  0  0
   62.5518   33.8779   49.5166 H   0  0  0  0  0  0  0  0  0  0  0  0
   61.5877   33.7739   46.6243 H   0  0  0  0  0  0  0  0  0  0  0  0
   62.5418   35.0515   47.1270 H   0  0  0  0  0  0  0  0  0  0  0  0
   63.4801   32.4037   45.9795 H   0  0  0  0  0  0  0  0  0  0  0  0
   64.6040   33.5668   46.4190 H   0  0  0  0  0  0  0  0  0  0  0  0
   63.4945   31.3500   48.1623 H   0  0  0  0  0  0  0  0  0  0  0  0
   64.6104   32.4203   48.7959 H   0  0  0  0  0  0  0  0  0  0  0  0
   60.2284   33.1703   47.1509 H   0  0  0  0  0  0  0  0  0  0  0  0
   61.1725   31.6236   47.0329 H   0  0  0  0  0  0  0  0  0  0  0  0
   58.4443   32.0970   48.2930 H   0  0  0  0  0  0  0  0  0  0  0  0
   58.9227   30.9356   46.9916 H   0  0  0  0  0  0  0  0  0  0  0  0
   61.0221   27.5510   46.6401 H   0  0  0  0  0  0  0  0  0  0  0  0
   60.1477   26.7714   44.4437 H   0  0  0  0  0  0  0  0  0  0  0  0
   56.7770   27.4850   43.1730 H   0  0  0  0  0  0  0  0  0  0  0  0
   56.6969   31.4821   45.9296 H   0  0  0  0  0  0  0  0  0  0  0  0
  1  2  1  0
  2  3  2  0
  3  4  1  0
  4  5  2  0
  5  6  1  0
  6  7  1  0
  7  8  2  0
  7  9  1  0
  9 10  1  0
 10 11  2  0
 11 12  1  0
 12 13  1  0
 13 14  2  0
 13 15  1  0
 15 16  1  0
 16 17  1  0
 17 18  1  0
 18 19  1  0
 19 20  1  0
 20 21  1  0
 21 22  1  0
 22 23  1  0
 19 24  1  0
 24 25  1  0
 12 26  2  0
 26 27  1  0
 27 28  2  0
 28 29  1  0
  6 30  2  0
 30  2  1  0
 28 10  1  0
 25 15  1  0
 23 20  1  0
  1 31  1  0
  1 32  1  0
  1 33  1  0
  3 34  1  0
  4 35  1  0
  5 36  1  0
 11 37  1  0
 16 38  1  0
 16 39  1  0
 17 40  1  0
 17 41  1  0
 18 42  1  0
 18 43  1  0
 20 44  1  0
 21 45  1  0
 21 46  1  0
 22 47  1  0
 22 48  1  0
 23 49  1  0
 23 50  1  0
 24 51  1  0
 24 52  1  0
 25 53  1  0
 25 54  1  0
 26 55  1  0
 27 56  1  0
 29 57  1  0
 30 58  1  0
M  CHG  1   9  -1
M  END
>  <UniqueID>  (64) 
60

>  <SMILES>  (64) 
Cc1cccc(C(=O)[N-]c2cc(C(=O)N3CCCN(C4CCC4)CC3)ccc2O)c1

>  <Energy>  (64) 
142.78240718871606

>  <Genealogy>  (64) 
Cc1cccc(C(=O)[N-]c2cc(C(=O)N3CCCN(C4CCC4)CC3)ccc2O)c1 (protonated)
Cc1cccc(C(=O)[N-]c2cc(C(=O)N3CCCN(C4CCC4)CC3)ccc2O)c1 (3D coordinates assigned)
Cc1cccc(C(=O)[N-]c2cc(C(=O)N3CCCN(C4CCC4)CC3)ccc2O)c1 (nonaromatic ring conformer: 142.78240718871606 kcal/mol)

>  <smiles>  (64) 
Cc1cccc(C(=O)Nc2cc(C(=O)N3CCCN(C4CCC4)CC3)ccc2O)c1

>  <score_type>  (64) 
oracle

>  <origin>  (64) 
adg

>  <m_score__min__energy>  (64) 
-9.8499999999999996

>  <m_primary>  (64) 
energy

$$$$
64:0
     RDKit          3D

 41 44  0  0  0  0  0  0  0  0999 V2000
   64.4330   33.3650   47.8360 N   0  0  0  0  0  0  0  0  0  0  0  0
   64.1140   32.9540   49.4850 S   0  0  0  0  0  0  0  0  0  0  0  0
   64.5150   31.5260   49.7290 O   0  0  0  0  0  0  0  0  0  0  0  0
   64.9060   33.8510   50.3950 O   0  0  0  0  0  0  0  0  0  0  0  0
   62.4020   33.1490   49.8170 C   0  0  0  0  0  0  0  0  0  0  0  0
   61.9710   33.5650   51.0790 C   0  0  0  0  0  0  0  0  0  0  0  0
   60.6050   33.7240   51.3140 C   0  0  0  0  0  0  0  0  0  0  0  0
   59.6870   33.4640   50.2960 C   0  0  0  0  0  0  0  0  0  0  0  0
   60.1480   33.0350   49.0370 C   0  0  0  0  0  0  0  0  0  0  0  0
   59.2160   32.7500   47.9160 C   0  0  0  0  0  0  0  0  0  0  0  0
   58.6220   31.4900   47.7400 C   0  0  0  0  0  0  0  0  0  0  0  0
   57.7800   31.2720   46.6980 N   0  0  0  0  0  0  0  0  0  0  0  0
   57.4910   32.2580   45.8050 C   0  0  0  0  0  0  0  0  0  0  0  0
   56.6760   32.0470   44.8140 N   0  0  0  0  0  0  0  0  0  0  0  0
   56.8530   31.0170   43.7920 C   0  0  0  0  0  0  0  0  0  0  0  0
   57.3990   29.7500   44.4020 C   0  0  0  0  0  0  0  0  0  0  0  0
   58.7970   29.5400   44.4590 C   0  0  0  0  0  0  0  0  0  0  0  0
   59.3230   28.3790   45.0450 C   0  0  0  0  0  0  0  0  0  0  0  0
   58.4350   27.4450   45.5680 C   0  0  0  0  0  0  0  0  0  0  0  0
   58.7850   25.9880   46.3200 S   0  0  0  0  0  0  0  0  0  0  0  0
   57.1720   25.5680   46.6030 C   0  0  0  0  0  0  0  0  0  0  0  0
   56.3450   26.5730   46.1050 C   0  0  0  0  0  0  0  0  0  0  0  0
   57.0630   27.6280   45.5250 C   0  0  0  0  0  0  0  0  0  0  0  0
   56.5220   28.7800   44.9430 C   0  0  0  0  0  0  0  0  0  0  0  0
   55.1440   28.9660   44.9020 O   0  0  0  0  0  0  0  0  0  0  0  0
   58.0650   33.4800   45.9470 N   0  0  0  0  0  0  0  0  0  0  0  0
   58.9160   33.7440   46.9710 C   0  0  0  0  0  0  0  0  0  0  0  0
   61.4900   32.9000   48.8390 N   0  0  0  0  0  0  0  0  0  0  0  0
   64.8030   32.5040   47.3720 H   0  0  0  0  0  0  0  0  0  0  0  0
   63.5120   33.5760   47.3910 H   0  0  0  0  0  0  0  0  0  0  0  0
   62.7001   33.7649   51.8781 H   0  0  0  0  0  0  0  0  0  0  0  0
   60.2517   34.0544   52.3020 H   0  0  0  0  0  0  0  0  0  0  0  0
   58.6096   33.5935   50.4761 H   0  0  0  0  0  0  0  0  0  0  0  0
   58.8396   30.6773   48.4486 H   0  0  0  0  0  0  0  0  0  0  0  0
   55.8813   30.8026   43.3231 H   0  0  0  0  0  0  0  0  0  0  0  0
   57.5667   31.3838   43.0396 H   0  0  0  0  0  0  0  0  0  0  0  0
   59.4784   30.2948   44.0395 H   0  0  0  0  0  0  0  0  0  0  0  0
   60.4093   28.2117   45.0897 H   0  0  0  0  0  0  0  0  0  0  0  0
   56.8300   24.6485   47.1006 H   0  0  0  0  0  0  0  0  0  0  0  0
   55.2469   26.5418   46.1610 H   0  0  0  0  0  0  0  0  0  0  0  0
   59.3724   34.7408   47.0608 H   0  0  0  0  0  0  0  0  0  0  0  0
  1  2  1  0
  2  3  2  0
  2  4  2  0
  2  5  1  0
  5  6  2  0
  6  7  1  0
  7  8  2  0
  8  9  1  0
  9 10  1  0
 10 11  1  0
 11 12  2  0
 12 13  1  0
 13 14  2  3
 14 15  1  0
 15 16  1  0
 16 17  2  0
 17 18  1  0
 18 19  2  0
 19 20  1  0
 20 21  1  0
 21 22  2  0
 22 23  1  0
 23 24  2  0
 24 25  1  0
 13 26  1  0
 26 27  1  0
  9 28  2  0
 28  5  1  0
 27 10  2  0
 24 16  1  0
 23 19  1  0
  1 29  1  0
  1 30  1  0
  6 31  1  0
  7 32  1  0
  8 33  1  0
 11 34  1  0
 15 35  1  0
 15 36  1  0
 17 37  1  0
 18 38  1  0
 21 39  1  0
 22 40  1  0
 27 41  1  0
M  CHG  2  25  -1  26  -1
M  END
>  <UniqueID>  (65) 
61

>  <SMILES>  (65) 
NS(=O)(=O)c1cccc(-c2cnc(=NCc3ccc4sccc4c3[O-])[n-]c2)n1

>  <Energy>  (65) 
80.0586775685698

>  <Genealogy>  (65) 
NS(=O)(=O)c1cccc(-c2cnc(=NCc3ccc4sccc4c3[O-])[n-]c2)n1 (protonated)
NS(=O)(=O)c1cccc(-c2cnc(=NCc3ccc4sccc4c3[O-])[n-]c2)n1 (3D coordinates assigned)
NS(=O)(=O)c1cccc(-c2cnc(=NCc3ccc4sccc4c3[O-])[n-]c2)n1 (optimized conformer: 80.0586775685698 kcal/mol)

>  <smiles>  (65) 
NS(=O)(=O)c1cccc(-c2cnc(=NCc3ccc4sccc4c3O)[nH]c2)n1

>  <score_type>  (65) 
oracle

>  <origin>  (65) 
adg

>  <m_score__min__energy>  (65) 
-13.039999999999999

>  <m_primary>  (65) 
energy

$$$$
65:0
     RDKit          3D

 76 79  0  0  0  0  0  0  0  0999 V2000
   60.2330   27.0030   47.9120 C   0  0  0  0  0  0  0  0  0  0  0  0
   59.4940   28.0230   47.1490 N   0  0  0  0  0  0  0  0  0  0  0  0
   58.4000   27.3980   46.3790 C   0  0  0  0  0  0  0  0  0  0  0  0
   57.4860   28.4810   45.7830 C   0  0  0  0  0  0  0  0  0  0  0  0
   58.2520   29.6880   45.4450 N   0  0  0  0  0  0  0  0  0  0  0  0
   57.5370   30.8900   45.1060 C   0  0  0  0  0  0  0  0  0  0  0  0
   56.4360   30.8010   44.4960 O   0  0  0  0  0  0  0  0  0  0  0  0
   58.0500   32.2310   45.4790 C   0  0  0  0  0  0  0  0  0  0  0  0
   57.9820   33.3100   44.5800 C   0  0  0  0  0  0  0  0  0  0  0  0
   58.4580   34.5700   44.9500 C   0  0  0  0  0  0  0  0  0  0  0  0
   59.0230   34.7660   46.2120 C   0  0  0  0  0  0  0  0  0  0  0  0
   59.1250   33.6970   47.1130 C   0  0  0  0  0  0  0  0  0  0  0  0
   59.6970   33.9120   48.4860 C   0  0  0  0  0  0  0  0  0  0  0  0
   59.2000   32.5970   49.5820 S   0  0  0  0  0  0  0  0  0  0  0  0
   57.7250   32.3460   49.4420 O   0  0  0  0  0  0  0  0  0  0  0  0
   59.4920   32.9880   51.0040 O   0  0  0  0  0  0  0  0  0  0  0  0
   60.0770   31.1500   49.2100 N   0  0  0  0  0  0  0  0  0  0  0  0
   59.8820   29.9240   49.9170 C   0  0  0  0  0  0  0  0  0  0  0  0
   58.9180   29.1660   49.6230 O   0  0  0  0  0  0  0  0  0  0  0  0
   60.7960   29.5870   51.0650 C   0  0  1  0  0  0  0  0  0  0  0  0
   62.2620   29.6980   50.6440 C   0  0  0  0  0  0  0  0  0  0  0  0
   62.9820   30.3110   51.8370 C   0  0  0  0  0  0  0  0  0  0  0  0
   61.9140   31.0650   52.6170 C   0  0  0  0  0  0  0  0  0  0  0  0
   60.6400   30.5040   52.1890 N   0  0  0  0  0  0  0  0  0  0  0  0
   59.3980   30.7040   52.8900 C   0  0  0  0  0  0  0  0  0  0  0  0
   59.1490   31.8260   53.4080 O   0  0  0  0  0  0  0  0  0  0  0  0
   58.3790   29.6000   53.0430 C   0  0  0  0  0  0  0  0  0  0  0  0
   57.0100   29.8420   52.3290 C   0  0  2  0  0  0  0  0  0  0  0  0
   57.0650   30.8590   51.2710 N   0  0  0  0  0  0  0  0  0  0  0  0
   55.9060   30.2030   53.3480 C   0  0  0  0  0  0  0  0  0  0  0  0
   54.5360   30.1750   52.7140 C   0  0  0  0  0  0  0  0  0  0  0  0
   54.1360   31.2090   51.8510 C   0  0  0  0  0  0  0  0  0  0  0  0
   52.8810   31.1720   51.2380 C   0  0  0  0  0  0  0  0  0  0  0  0
   52.0130   30.1040   51.4820 C   0  0  0  0  0  0  0  0  0  0  0  0
   52.4040   29.0660   52.3310 C   0  0  0  0  0  0  0  0  0  0  0  0
   53.6600   29.0950   52.9450 C   0  0  0  0  0  0  0  0  0  0  0  0
   54.0250   28.0710   53.7570 F   0  0  0  0  0  0  0  0  0  0  0  0
   58.6410   32.4320   46.7400 C   0  0  0  0  0  0  0  0  0  0  0  0
   59.6810   29.5490   45.1410 C   0  0  0  0  0  0  0  0  0  0  0  0
   60.4150   28.7780   46.2620 C   0  0  0  0  0  0  0  0  0  0  0  0
   60.1017   27.1842   48.9890 H   0  0  0  0  0  0  0  0  0  0  0  0
   59.8473   26.0045   47.6585 H   0  0  0  0  0  0  0  0  0  0  0  0
   61.3019   27.0584   47.6585 H   0  0  0  0  0  0  0  0  0  0  0  0
   59.0780   28.6890   47.8460 H   0  0  0  0  0  0  0  0  0  0  0  0
   58.8272   26.7943   45.5647 H   0  0  0  0  0  0  0  0  0  0  0  0
   57.8085   26.7576   47.0498 H   0  0  0  0  0  0  0  0  0  0  0  0
   57.0110   28.0893   44.8714 H   0  0  0  0  0  0  0  0  0  0  0  0
   56.7240   28.7471   46.5304 H   0  0  0  0  0  0  0  0  0  0  0  0
   57.5512   33.1609   43.5789 H   0  0  0  0  0  0  0  0  0  0  0  0
   58.3876   35.4111   44.2446 H   0  0  0  0  0  0  0  0  0  0  0  0
   59.3892   35.7625   46.4999 H   0  0  0  0  0  0  0  0  0  0  0  0
   60.7949   33.9340   48.4214 H   0  0  0  0  0  0  0  0  0  0  0  0
   59.3213   34.8668   48.8825 H   0  0  0  0  0  0  0  0  0  0  0  0
   60.5251   28.5628   51.3611 H   0  0  0  0  0  0  0  0  0  0  0  0
   62.6730   28.7034   50.4163 H   0  0  0  0  0  0  0  0  0  0  0  0
   62.3812   30.3090   49.7371 H   0  0  0  0  0  0  0  0  0  0  0  0
   63.4294   29.5237   52.4614 H   0  0  0  0  0  0  0  0  0  0  0  0
   63.8001   30.9750   51.5212 H   0  0  0  0  0  0  0  0  0  0  0  0
   62.0536   30.9177   53.6981 H   0  0  0  0  0  0  0  0  0  0  0  0
   61.9635   32.1476   52.4285 H   0  0  0  0  0  0  0  0  0  0  0  0
   58.8158   28.6770   52.6339 H   0  0  0  0  0  0  0  0  0  0  0  0
   58.1526   29.5459   54.1181 H   0  0  0  0  0  0  0  0  0  0  0  0
   56.7640   28.8882   51.8394 H   0  0  0  0  0  0  0  0  0  0  0  0
   57.3100   30.4010   50.3630 H   0  0  0  0  0  0  0  0  0  0  0  0
   57.7970   31.5690   51.4970 H   0  0  0  0  0  0  0  0  0  0  0  0
   55.9320   29.4779   54.1748 H   0  0  0  0  0  0  0  0  0  0  0  0
   56.0954   31.2226   53.7147 H   0  0  0  0  0  0  0  0  0  0  0  0
   54.8148   32.0525   51.6568 H   0  0  0  0  0  0  0  0  0  0  0  0
   52.5756   31.9846   50.5624 H   0  0  0  0  0  0  0  0  0  0  0  0
   51.0219   30.0809   51.0054 H   0  0  0  0  0  0  0  0  0  0  0  0
   51.7219   28.2233   52.5171 H   0  0  0  0  0  0  0  0  0  0  0  0
   58.7250   31.5891   47.4417 H   0  0  0  0  0  0  0  0  0  0  0  0
   59.7954   29.0015   44.1938 H   0  0  0  0  0  0  0  0  0  0  0  0
   60.1211   30.5540   45.0616 H   0  0  0  0  0  0  0  0  0  0  0  0
   61.1149   28.0675   45.7979 H   0  0  0  0  0  0  0  0  0  0  0  0
   60.9348   29.5208   46.8849 H   0  0  0  0  0  0  0  0  0  0  0  0
  1  2  1  0
  2  3  1  0
  3  4  1  0
  4  5  1  0
  5  6  1  0
  6  7  2  0
  6  8  1  0
  8  9  2  0
  9 10  1  0
 10 11  2  0
 11 12  1  0
 12 13  1  0
 13 14  1  0
 14 15  2  0
 14 16  2  0
 14 17  1  0
 17 18  1  0
 18 19  2  0
 18 20  1  0
 20 21  1  0
 21 22  1  0
 22 23  1  0
 23 24  1  0
 24 25  1  0
 25 26  2  0
 25 27  1  0
 27 28  1  0
 28 29  1  0
 28 30  1  0
 30 31  1  0
 31 32  2  0
 32 33  1  0
 33 34  2  0
 34 35  1  0
 35 36  2  0
 36 37  1  0
 12 38  2  0
  5 39  1  0
 39 40  1  0
 40  2  1  0
 38  8  1  0
 24 20  1  0
 36 31  1  0
  1 41  1  0
  1 42  1  0
  1 43  1  0
  2 44  1  0
  3 45  1  0
  3 46  1  0
  4 47  1  0
  4 48  1  0
  9 49  1  0
 10 50  1  0
 11 51  1  0
 13 52  1  0
 13 53  1  0
 20 54  1  1
 21 55  1  0
 21 56  1  0
 22 57  1  0
 22 58  1  0
 23 59  1  0
 23 60  1  0
 27 61  1  0
 27 62  1  0
 28 63  1  6
 29 64  1  0
 29 65  1  0
 30 66  1  0
 30 67  1  0
 32 68  1  0
 33 69  1  0
 34 70  1  0
 35 71  1  0
 38 72  1  0
 39 73  1  0
 39 74  1  0
 40 75  1  0
 40 76  1  0
M  CHG  2   2   1  17  -1
M  END
>  <UniqueID>  (66) 
62

>  <SMILES>  (66) 
C[NH+]1CCN(C(=O)c2cccc(CS(=O)(=O)[N-]C(=O)[C@H]3CCCN3C(=O)C[C@H](N)Cc3ccccc3F)c2)CC1

>  <Energy>  (66) 
85.20641706771562

>  <Genealogy>  (66) 
C[NH+]1CCN(C(=O)c2cccc(CS(=O)(=O)[N-]C(=O)C3CCCN3C(=O)CC(N)Cc3ccccc3F)c2)CC1 (protonated)
C[NH+]1CCN(C(=O)c2cccc(CS(=O)(=O)[N-]C(=O)[C@H]3CCCN3C(=O)C[C@H](N)Cc3ccccc3F)c2)CC1 (chirality)
C[NH+]1CCN(C(=O)c2cccc(CS(=O)(=O)[N-]C(=O)[C@H]3CCCN3C(=O)C[C@H](N)Cc3ccccc3F)c2)CC1 (3D coordinates assigned)
C[NH+]1CCN(C(=O)c2cccc(CS(=O)(=O)[N-]C(=O)[C@H]3CCCN3C(=O)C[C@H](N)Cc3ccccc3F)c2)CC1 (nonaromatic ring conformer: 85.20641706771562 kcal/mol)

>  <smiles>  (66) 
CN1CCN(C(=O)c2cccc(CS(=O)(=O)NC(=O)C3CCCN3C(=O)CC(N)Cc3ccccc3F)c2)CC1

>  <score_type>  (66) 
oracle

>  <origin>  (66) 
adg

>  <m_score__min__energy>  (66) 
-11.140000000000001

>  <m_primary>  (66) 
energy

$$$$
66:0
     RDKit          3D

 63 66  0  0  0  0  0  0  0  0999 V2000
   57.6630   32.8940   52.0230 C   0  0  0  0  0  0  0  0  0  0  0  0
   57.7670   32.2650   50.7490 O   0  0  0  0  0  0  0  0  0  0  0  0
   58.5760   31.1510   50.4790 C   0  0  0  0  0  0  0  0  0  0  0  0
   58.9560   30.7940   49.1710 C   0  0  0  0  0  0  0  0  0  0  0  0
   59.7630   29.6730   48.9530 C   0  0  0  0  0  0  0  0  0  0  0  0
   60.2050   28.8960   50.0340 C   0  0  0  0  0  0  0  0  0  0  0  0
   61.0450   27.6700   49.7870 C   0  0  0  0  0  0  0  0  0  0  0  0
   60.2950   26.6760   49.0220 N   0  0  0  0  0  0  0  0  0  0  0  0
   60.1390   26.6700   47.5960 C   0  0  0  0  0  0  0  0  0  0  0  0
   61.1690   26.6470   46.8720 O   0  0  0  0  0  0  0  0  0  0  0  0
   58.8130   26.7280   46.9570 C   0  0  0  0  0  0  0  0  0  0  0  0
   57.9090   25.6630   47.0910 C   0  0  0  0  0  0  0  0  0  0  0  0
   56.6420   25.7410   46.5090 C   0  0  0  0  0  0  0  0  0  0  0  0
   56.2710   26.8750   45.7820 C   0  0  0  0  0  0  0  0  0  0  0  0
   57.1740   27.9350   45.6250 C   0  0  0  0  0  0  0  0  0  0  0  0
   56.7120   29.3430   44.6710 S   0  0  0  0  0  0  0  0  0  0  0  0
   55.2120   29.4660   44.6310 O   0  0  0  0  0  0  0  0  0  0  0  0
   57.2130   29.1620   43.2650 O   0  0  0  0  0  0  0  0  0  0  0  0
   57.4130   30.7830   45.3670 N   0  0  0  0  0  0  0  0  0  0  0  0
   57.0430   31.9680   44.5630 C   0  0  0  0  0  0  0  0  0  0  0  0
   57.8660   33.2150   44.9490 C   0  0  0  0  0  0  0  0  0  0  0  0
   58.5700   32.9880   46.2220 N   0  0  0  0  0  0  0  0  0  0  0  0
   59.1630   34.2160   46.7980 C   0  0  0  0  0  0  0  0  0  0  0  0
   60.4910   33.9950   47.4890 C   0  0  0  0  0  0  0  0  0  0  0  0
   61.6780   33.9090   46.7400 C   0  0  0  0  0  0  0  0  0  0  0  0
   62.9030   33.7060   47.3820 C   0  0  0  0  0  0  0  0  0  0  0  0
   62.9550   33.5770   48.7730 C   0  0  0  0  0  0  0  0  0  0  0  0
   61.7800   33.6490   49.5240 C   0  0  0  0  0  0  0  0  0  0  0  0
   60.5520   33.8540   48.8870 C   0  0  0  0  0  0  0  0  0  0  0  0
   59.5300   31.8740   46.1100 C   0  0  0  0  0  0  0  0  0  0  0  0
   58.8770   30.6340   45.4580 C   0  0  0  0  0  0  0  0  0  0  0  0
   58.4480   27.8520   46.2030 C   0  0  0  0  0  0  0  0  0  0  0  0
   59.8290   29.2570   51.3370 C   0  0  0  0  0  0  0  0  0  0  0  0
   59.0180   30.3740   51.5540 C   0  0  0  0  0  0  0  0  0  0  0  0
   57.7875   32.1409   52.8150 H   0  0  0  0  0  0  0  0  0  0  0  0
   58.4467   33.6599   52.1188 H   0  0  0  0  0  0  0  0  0  0  0  0
   56.6745   33.3669   52.1188 H   0  0  0  0  0  0  0  0  0  0  0  0
   58.6168   31.3992   48.3174 H   0  0  0  0  0  0  0  0  0  0  0  0
   60.0529   29.3989   47.9279 H   0  0  0  0  0  0  0  0  0  0  0  0
   61.9448   27.9564   49.2227 H   0  0  0  0  0  0  0  0  0  0  0  0
   61.3258   27.2323   50.7563 H   0  0  0  0  0  0  0  0  0  0  0  0
   58.1991   24.7647   47.6558 H   0  0  0  0  0  0  0  0  0  0  0  0
   55.9339   24.9070   46.6233 H   0  0  0  0  0  0  0  0  0  0  0  0
   55.2689   26.9358   45.3324 H   0  0  0  0  0  0  0  0  0  0  0  0
   57.0190   30.8820   46.3340 H   0  0  0  0  0  0  0  0  0  0  0  0
   57.2174   31.7435   43.5004 H   0  0  0  0  0  0  0  0  0  0  0  0
   55.9832   32.1898   44.7568 H   0  0  0  0  0  0  0  0  0  0  0  0
   58.6026   33.4226   44.1589 H   0  0  0  0  0  0  0  0  0  0  0  0
   57.1855   34.0716   45.0640 H   0  0  0  0  0  0  0  0  0  0  0  0
   59.3131   34.9414   45.9848 H   0  0  0  0  0  0  0  0  0  0  0  0
   58.4623   34.5771   47.5652 H   0  0  0  0  0  0  0  0  0  0  0  0
   61.6424   34.0018   45.6445 H   0  0  0  0  0  0  0  0  0  0  0  0
   63.8288   33.6476   46.7909 H   0  0  0  0  0  0  0  0  0  0  0  0
   63.9207   33.4189   49.2755 H   0  0  0  0  0  0  0  0  0  0  0  0
   61.8203   33.5443   50.6183 H   0  0  0  0  0  0  0  0  0  0  0  0
   59.6287   33.9053   49.4827 H   0  0  0  0  0  0  0  0  0  0  0  0
   60.3823   32.1960   45.4937 H   0  0  0  0  0  0  0  0  0  0  0  0
   59.8633   31.5996   47.1217 H   0  0  0  0  0  0  0  0  0  0  0  0
   59.2872   30.5040   44.4457 H   0  0  0  0  0  0  0  0  0  0  0  0
   59.0977   29.7568   46.0839 H   0  0  0  0  0  0  0  0  0  0  0  0
   59.1659   28.6738   46.0642 H   0  0  0  0  0  0  0  0  0  0  0  0
   60.1746   28.6574   52.1920 H   0  0  0  0  0  0  0  0  0  0  0  0
   58.7249   30.6443   52.5792 H   0  0  0  0  0  0  0  0  0  0  0  0
  1  2  1  0
  2  3  1  0
  3  4  2  0
  4  5  1  0
  5  6  2  0
  6  7  1  0
  7  8  1  0
  8  9  1  0
  9 10  2  0
  9 11  1  0
 11 12  2  0
 12 13  1  0
 13 14  2  0
 14 15  1  0
 15 16  1  0
 16 17  2  0
 16 18  2  0
 16 19  1  0
 19 20  1  0
 20 21  1  0
 21 22  1  0
 22 23  1  0
 23 24  1  0
 24 25  2  0
 25 26  1  0
 26 27  2  0
 27 28  1  0
 28 29  2  0
 22 30  1  0
 30 31  1  0
 15 32  2  0
  6 33  1  0
 33 34  2  0
 34  3  1  0
 32 11  1  0
 31 19  1  0
 29 24  1  0
  1 35  1  0
  1 36  1  0
  1 37  1  0
  4 38  1  0
  5 39  1  0
  7 40  1  0
  7 41  1  0
 12 42  1  0
 13 43  1  0
 14 44  1  0
 19 45  1  0
 20 46  1  0
 20 47  1  0
 21 48  1  0
 21 49  1  0
 23 50  1  0
 23 51  1  0
 25 52  1  0
 26 53  1  0
 27 54  1  0
 28 55  1  0
 29 56  1  0
 30 57  1  0
 30 58  1  0
 31 59  1  0
 31 60  1  0
 32 61  1  0
 33 62  1  0
 34 63  1  0
M  CHG  2   8  -1  19   1
M  END
>  <UniqueID>  (67) 
63

>  <SMILES>  (67) 
COc1ccc(C[N-]C(=O)c2cccc(S(=O)(=O)[NH+]3CCN(Cc4ccccc4)CC3)c2)cc1

>  <Energy>  (67) 
76.06794510935732

>  <Genealogy>  (67) 
COc1ccc(C[N-]C(=O)c2cccc(S(=O)(=O)[NH+]3CCN(Cc4ccccc4)CC3)c2)cc1 (protonated)
COc1ccc(C[N-]C(=O)c2cccc(S(=O)(=O)[NH+]3CCN(Cc4ccccc4)CC3)c2)cc1 (3D coordinates assigned)
COc1ccc(C[N-]C(=O)c2cccc(S(=O)(=O)[NH+]3CCN(Cc4ccccc4)CC3)c2)cc1 (nonaromatic ring conformer: 76.06794510935732 kcal/mol)

>  <smiles>  (67) 
COc1ccc(CNC(=O)c2cccc(S(=O)(=O)N3CCN(Cc4ccccc4)CC3)c2)cc1

>  <score_type>  (67) 
oracle

>  <origin>  (67) 
adg

>  <m_score__min__energy>  (67) 
-9.8300000000000001

>  <m_primary>  (67) 
energy

$$$$
67:0
     RDKit          3D

 32 33  0  0  0  0  0  0  0  0999 V2000
   60.1570   29.8840   46.2320 C   0  0  0  0  0  0  0  0  0  0  0  0
   59.0410   29.1600   46.1350 C   0  0  0  0  0  0  0  0  0  0  0  0
   58.9600   27.9020   46.6140 N   0  0  0  0  0  0  0  0  0  0  0  0
   57.7290   27.4480   46.3020 C   0  0  0  0  0  0  0  0  0  0  0  0
   57.3270   26.2150   46.6560 C   0  0  0  0  0  0  0  0  0  0  0  0
   56.5760   25.2720   45.8050 C   0  0  0  0  0  0  0  0  0  0  0  0
   57.0710   24.1390   45.2740 N   0  0  0  0  0  0  0  0  0  0  0  0
   55.9930   23.5660   44.6960 C   0  0  0  0  0  0  0  0  0  0  0  0
   56.0580   22.4750   44.0730 O   0  0  0  0  0  0  0  0  0  0  0  0
   54.8390   24.2500   44.8480 N   0  0  0  0  0  0  0  0  0  0  0  0
   55.2240   25.3190   45.5620 C   0  0  0  0  0  0  0  0  0  0  0  0
   54.3560   26.3160   45.9880 O   0  0  0  0  0  0  0  0  0  0  0  0
   57.0120   28.4400   45.6420 C   0  0  0  0  0  0  0  0  0  0  0  0
   55.6730   28.3800   45.2590 O   0  0  0  0  0  0  0  0  0  0  0  0
   57.8490   29.5380   45.5200 C   0  0  0  0  0  0  0  0  0  0  0  0
   57.5140   30.8330   44.8940 C   0  0  0  0  0  0  0  0  0  0  0  0
   56.3690   31.0100   44.4010 O   0  0  0  0  0  0  0  0  0  0  0  0
   58.4860   31.8880   44.8640 N   0  0  0  0  0  0  0  0  0  0  0  0
   58.2340   33.3060   45.1300 C   0  0  0  0  0  0  0  0  0  0  0  0
   59.5460   34.0880   45.2470 C   0  0  0  0  0  0  0  0  0  0  0  0
   57.3530   33.4870   46.3680 C   0  0  0  0  0  0  0  0  0  0  0  0
   60.1855   30.9073   45.8294 H   0  0  0  0  0  0  0  0  0  0  0  0
   61.0489   29.4578   46.7146 H   0  0  0  0  0  0  0  0  0  0  0  0
   57.5809   25.8786   47.6721 H   0  0  0  0  0  0  0  0  0  0  0  0
   55.1440   27.5180   45.2780 H   0  0  0  0  0  0  0  0  0  0  0  0
   57.6825   33.7194   44.2728 H   0  0  0  0  0  0  0  0  0  0  0  0
   59.7920   34.2346   46.3091 H   0  0  0  0  0  0  0  0  0  0  0  0
   60.3539   33.5240   44.7580 H   0  0  0  0  0  0  0  0  0  0  0  0
   59.4342   35.0670   44.7580 H   0  0  0  0  0  0  0  0  0  0  0  0
   57.9638   33.3615   47.2742 H   0  0  0  0  0  0  0  0  0  0  0  0
   56.9117   34.4946   46.3599 H   0  0  0  0  0  0  0  0  0  0  0  0
   56.5502   32.7350   46.3599 H   0  0  0  0  0  0  0  0  0  0  0  0
  1  2  2  0
  2  3  1  0
  3  4  1  0
  4  5  2  3
  5  6  1  0
  6  7  1  0
  7  8  1  0
  8  9  2  0
  8 10  1  0
 10 11  1  0
 11 12  1  0
  4 13  1  0
 13 14  1  0
 13 15  2  0
 15 16  1  0
 16 17  2  0
 16 18  1  0
 18 19  1  0
 19 20  1  0
 19 21  1  0
 15  2  1  0
 11  6  2  0
  1 22  1  0
  1 23  1  0
  5 24  1  0
 14 25  1  0
 19 26  1  0
 20 27  1  0
 20 28  1  0
 20 29  1  0
 21 30  1  0
 21 31  1  0
 21 32  1  0
M  CHG  5   3  -1   7  -1  10  -1  12  -1  18  -1
M  END
>  <UniqueID>  (68) 
64

>  <SMILES>  (68) 
C=c1[n-]c(=Cc2[n-]c(=O)[n-]c2[O-])c(O)c1C(=O)[N-]C(C)C

>  <Energy>  (68) 
92.94079209231512

>  <Genealogy>  (68) 
C=c1[n-]c(=Cc2[n-]c(=O)[n-]c2[O-])c(O)c1C(=O)[N-]C(C)C (protonated)
C=c1[n-]c(=Cc2[n-]c(=O)[n-]c2[O-])c(O)c1C(=O)[N-]C(C)C (3D coordinates assigned)
C=c1[n-]c(=Cc2[n-]c(=O)[n-]c2[O-])c(O)c1C(=O)[N-]C(C)C (optimized conformer: 92.94079209231512 kcal/mol)

>  <smiles>  (68) 
C=c1[nH]c(=Cc2[nH]c(=O)[nH]c2O)c(O)c1C(=O)NC(C)C

>  <score_type>  (68) 
oracle

>  <origin>  (68) 
adg

>  <m_score__min__energy>  (68) 
-16.969999999999999

>  <m_primary>  (68) 
energy

$$$$
68:0
     RDKit          3D

 64 68  0  0  0  0  0  0  0  0999 V2000
   57.2602   26.6697   47.3682 H   0  0  0  0  0  0  0  0  0  0  0  0
   58.1520   27.2250   47.0420 C   0  0  0  0  0  0  0  0  0  0  0  0
   59.2890   26.9540   47.6070 N   0  0  0  0  0  0  0  0  0  0  0  0
   59.7790   27.6780   48.6690 O   0  0  0  0  0  0  0  0  0  0  0  0
   60.7620   28.6820   48.4730 C   0  0  0  0  0  0  0  0  0  0  0  0
   61.5901   28.5234   49.1795 H   0  0  0  0  0  0  0  0  0  0  0  0
   61.1355   28.6238   47.4400 H   0  0  0  0  0  0  0  0  0  0  0  0
   60.1630   30.0440   48.7050 C   0  0  0  0  0  0  0  0  0  0  0  0
   60.3560   30.9420   47.8390 O   0  0  0  0  0  0  0  0  0  0  0  0
   59.4280   30.3530   49.9110 N   0  0  0  0  0  0  0  0  0  0  0  0
   59.1020   29.2950   50.8810 C   0  0  0  0  0  0  0  0  0  0  0  0
   58.5208   28.5104   50.3744 H   0  0  0  0  0  0  0  0  0  0  0  0
   60.0422   28.8854   51.2788 H   0  0  0  0  0  0  0  0  0  0  0  0
   58.2810   29.8490   52.0500 C   0  0  0  0  0  0  0  0  0  0  0  0
   57.8261   29.0137   52.6025 H   0  0  0  0  0  0  0  0  0  0  0  0
   58.9443   30.4221   52.7145 H   0  0  0  0  0  0  0  0  0  0  0  0
   57.2210   30.7350   51.5510 N   0  0  0  0  0  0  0  0  0  0  0  0
   56.6270   30.1960   50.8760 H   0  0  0  0  0  0  0  0  0  0  0  0
   57.7530   31.9320   50.8680 C   0  0  0  0  0  0  0  0  0  0  0  0
   57.0710   32.1900   50.0444 H   0  0  0  0  0  0  0  0  0  0  0  0
   57.8237   32.7229   51.6292 H   0  0  0  0  0  0  0  0  0  0  0  0
   59.1720   31.7540   50.2830 C   0  0  0  0  0  0  0  0  0  0  0  0
   59.2720   32.3858   49.3881 H   0  0  0  0  0  0  0  0  0  0  0  0
   59.9024   32.0470   51.0515 H   0  0  0  0  0  0  0  0  0  0  0  0
   57.9970   28.2460   45.9790 C   0  0  0  0  0  0  0  0  0  0  0  0
   57.7430   27.8880   44.6480 C   0  0  0  0  0  0  0  0  0  0  0  0
   57.6370   26.8269   44.3782 H   0  0  0  0  0  0  0  0  0  0  0  0
   57.6240   28.8670   43.6650 C   0  0  0  0  0  0  0  0  0  0  0  0
   57.4546   28.5736   42.6185 H   0  0  0  0  0  0  0  0  0  0  0  0
   57.7190   30.2250   44.0020 C   0  0  0  0  0  0  0  0  0  0  0  0
   57.6350   31.1930   43.0040 C   0  0  0  0  0  0  0  0  0  0  0  0
   57.4712   30.8938   41.9582 H   0  0  0  0  0  0  0  0  0  0  0  0
   57.7580   32.5320   43.3310 C   0  0  0  0  0  0  0  0  0  0  0  0
   57.7397   33.2939   42.5378 H   0  0  0  0  0  0  0  0  0  0  0  0
   57.9060   32.9210   44.6710 C   0  0  0  0  0  0  0  0  0  0  0  0
   58.0930   34.3680   44.9590 C   0  0  0  0  0  0  0  0  0  0  0  0
   57.2051   35.0154   44.9102 H   0  0  0  0  0  0  0  0  0  0  0  0
   59.2640   34.9430   45.2740 C   0  0  0  0  0  0  0  0  0  0  0  0
   59.6464   35.7197   44.5954 H   0  0  0  0  0  0  0  0  0  0  0  0
   60.0820   34.6130   46.4650 C   0  0  0  0  0  0  0  0  0  0  0  0
   59.6250   34.8970   47.7630 C   0  0  0  0  0  0  0  0  0  0  0  0
   58.6446   35.3735   47.9108 H   0  0  0  0  0  0  0  0  0  0  0  0
   60.4180   34.5730   48.8630 C   0  0  0  0  0  0  0  0  0  0  0  0
   60.0708   34.8065   49.8803 H   0  0  0  0  0  0  0  0  0  0  0  0
   61.6550   33.9510   48.6710 C   0  0  0  0  0  0  0  0  0  0  0  0
   62.4780   33.6230   49.7590 C   0  0  0  0  0  0  0  0  0  0  0  0
   62.1534   33.8567   50.7837 H   0  0  0  0  0  0  0  0  0  0  0  0
   63.7090   33.0000   49.5420 C   0  0  0  0  0  0  0  0  0  0  0  0
   64.3559   32.7511   50.3961 H   0  0  0  0  0  0  0  0  0  0  0  0
   64.1210   32.6920   48.2430 C   0  0  0  0  0  0  0  0  0  0  0  0
   65.0885   32.1951   48.0784 H   0  0  0  0  0  0  0  0  0  0  0  0
   63.3080   33.0130   47.1510 C   0  0  0  0  0  0  0  0  0  0  0  0
   63.6381   32.7692   46.1304 H   0  0  0  0  0  0  0  0  0  0  0  0
   62.0710   33.6460   47.3550 C   0  0  0  0  0  0  0  0  0  0  0  0
   61.2740   33.9700   46.2950 N   0  0  0  0  0  0  0  0  0  0  0  0
   61.5930   33.7450   45.3240 H   0  0  0  0  0  0  0  0  0  0  0  0
   57.9490   31.9690   45.6730 N   0  0  0  0  0  0  0  0  0  0  0  0
   58.0380   32.3880   47.0880 C   0  0  0  0  0  0  0  0  0  0  0  0
   57.8538   31.5210   47.7394 H   0  0  0  0  0  0  0  0  0  0  0  0
   59.0417   32.7908   47.2887 H   0  0  0  0  0  0  0  0  0  0  0  0
   57.2846   33.1640   47.2887 H   0  0  0  0  0  0  0  0  0  0  0  0
   57.9070   30.6220   45.3510 C   0  0  0  0  0  0  0  0  0  0  0  0
   58.0590   29.6040   46.3270 C   0  0  0  0  0  0  0  0  0  0  0  0
   58.2288   29.8845   47.3770 H   0  0  0  0  0  0  0  0  0  0  0  0
  1  2  1  0
  2  3  2  0
  3  4  1  0
  4  5  1  0
  5  6  1  0
  5  7  1  0
  5  8  1  0
  8  9  2  0
  8 10  1  0
 10 11  1  0
 11 12  1  0
 11 13  1  0
 11 14  1  0
 14 15  1  0
 14 16  1  0
 14 17  1  0
 17 18  1  0
 17 19  1  0
 19 20  1  0
 19 21  1  0
 19 22  1  0
 22 23  1  0
 22 24  1  0
  2 25  1  0
 25 26  2  0
 26 27  1  0
 26 28  1  0
 28 29  1  0
 28 30  2  0
 30 31  1  0
 31 32  1  0
 31 33  2  0
 33 34  1  0
 33 35  1  0
 35 36  1  0
 36 37  1  0
 36 38  2  0
 38 39  1  0
 38 40  1  0
 40 41  2  0
 41 42  1  0
 41 43  1  0
 43 44  1  0
 43 45  2  0
 45 46  1  0
 46 47  1  0
 46 48  2  0
 48 49  1  0
 48 50  1  0
 50 51  1  0
 50 52  2  0
 52 53  1  0
 52 54  1  0
 54 55  2  0
 55 56  1  0
 35 57  2  0
 57 58  1  0
 58 59  1  0
 58 60  1  0
 58 61  1  0
 57 62  1  0
 62 63  2  0
 63 64  1  0
 22 10  1  0
 63 25  1  0
 62 30  1  0
 55 40  1  0
 54 45  1  0
M  CHG  2  55   1  57   1
M  END
>  <UniqueID>  (69) 
65

>  <SMILES>  (69) 
C[n+]1c(/C=C\c2ccc3ccccc3[nH+]2)ccc2ccc(/C=N\OCC(=O)N3CCNCC3)cc21

>  <Energy>  (69) 
99.54129640298198

>  <Genealogy>  (69) 
C[n+]1c(C=Cc2ccc3ccccc3[nH+]2)ccc2ccc(C=NOCC(=O)N3CCNCC3)cc21 (protonated)
C[n+]1c(/C=C\c2ccc3ccccc3[nH+]2)ccc2ccc(/C=N\OCC(=O)N3CCNCC3)cc21 (cis-trans isomerization)
C[n+]1c(/C=C\c2ccc3ccccc3[nH+]2)ccc2ccc(/C=N\OCC(=O)N3CCNCC3)cc21 (3D coordinates assigned)
C[n+]1c(/C=C\c2ccc3ccccc3[nH+]2)ccc2ccc(/C=N\OCC(=O)N3CCNCC3)cc21 (nonaromatic ring conformer: 99.54129640298198 kcal/mol)

>  <smiles>  (69) 
C[n+]1c(C=Cc2ccc3ccccc3n2)ccc2ccc(C=NOCC(=O)N3CCNCC3)cc21

>  <score_type>  (69) 
oracle

>  <origin>  (69) 
adg

>  <m_score__min__energy>  (69) 
-8.5899999999999999

>  <m_primary>  (69) 
energy

$$$$
69:0
     RDKit          3D

 60 63  0  0  0  0  0  0  0  0999 V2000
   60.7250   31.1640   46.6800 C   0  0  0  0  0  0  0  0  0  0  0  0
   59.3400   30.8790   47.2800 C   0  0  1  0  0  0  0  0  0  0  0  0
   58.5190   32.1730   47.4750 C   0  0  0  0  0  0  0  0  0  0  0  0
   57.9010   32.7310   46.1700 C   0  0  1  0  0  0  0  0  0  0  0  0
   58.7210   33.8920   45.5920 C   0  0  0  0  0  0  0  0  0  0  0  0
   57.6770   31.6300   45.1170 C   0  0  0  0  0  0  0  0  0  0  0  0
   57.3710   30.3580   45.7870 N   0  0  0  0  0  0  0  0  0  0  0  0
   56.7460   29.2040   44.6360 S   0  0  0  0  0  0  0  0  0  0  0  0
   57.4010   29.4370   43.3030 O   0  0  0  0  0  0  0  0  0  0  0  0
   55.2650   29.4010   44.4690 O   0  0  0  0  0  0  0  0  0  0  0  0
   57.0630   27.5460   45.1520 C   0  0  0  0  0  0  0  0  0  0  0  0
   56.4370   27.0250   46.2920 C   0  0  0  0  0  0  0  0  0  0  0  0
   56.7210   25.7250   46.7190 C   0  0  0  0  0  0  0  0  0  0  0  0
   57.6170   24.9230   46.0030 C   0  0  0  0  0  0  0  0  0  0  0  0
   57.9120   23.6060   46.4910 N   0  0  0  0  0  0  0  0  0  0  0  0
   57.0290   22.7900   47.2740 C   0  0  0  0  0  0  0  0  0  0  0  0
   57.3490   22.4670   48.4510 O   0  0  0  0  0  0  0  0  0  0  0  0
   55.7510   22.2520   46.6590 C   0  0  2  0  0  0  0  0  0  0  0  0
   54.5770   23.1580   47.0880 C   0  0  0  0  0  0  0  0  0  0  0  0
   55.4640   20.8280   47.1940 C   0  0  0  0  0  0  0  0  0  0  0  0
   56.4410   19.8480   46.6240 C   0  0  0  0  0  0  0  0  0  0  0  0
   56.8110   18.8520   47.3030 O   0  0  0  0  0  0  0  0  0  0  0  0
   56.8890   20.0000   45.2770 N   0  0  0  0  0  0  0  0  0  0  0  0
   56.6020   21.0650   44.5800 C   0  0  0  0  0  0  0  0  0  0  0  0
   56.9930   21.1360   43.1600 C   0  0  0  0  0  0  0  0  0  0  0  0
   56.6770   22.2130   42.4380 C   0  0  0  0  0  0  0  0  0  0  0  0
   55.9540   23.3440   43.0430 C   0  0  0  0  0  0  0  0  0  0  0  0
   55.6040   23.3280   44.3330 C   0  0  0  0  0  0  0  0  0  0  0  0
   55.9000   22.1880   45.1780 N   0  0  0  0  0  0  0  0  0  0  0  0
   58.2560   25.4510   44.8680 C   0  0  0  0  0  0  0  0  0  0  0  0
   57.9730   26.7520   44.4430 C   0  0  0  0  0  0  0  0  0  0  0  0
   58.5690   29.8110   46.4540 C   0  0  0  0  0  0  0  0  0  0  0  0
   61.4524   31.3137   47.4915 H   0  0  0  0  0  0  0  0  0  0  0  0
   61.0382   30.3115   46.0594 H   0  0  0  0  0  0  0  0  0  0  0  0
   60.6762   32.0709   46.0594 H   0  0  0  0  0  0  0  0  0  0  0  0
   59.4984   30.4552   48.2827 H   0  0  0  0  0  0  0  0  0  0  0  0
   59.1812   32.9417   47.9001 H   0  0  0  0  0  0  0  0  0  0  0  0
   57.6806   31.9199   48.1406 H   0  0  0  0  0  0  0  0  0  0  0  0
   56.9131   33.1306   46.4426 H   0  0  0  0  0  0  0  0  0  0  0  0
   59.1423   34.4885   46.4146 H   0  0  0  0  0  0  0  0  0  0  0  0
   59.5379   33.4917   44.9735 H   0  0  0  0  0  0  0  0  0  0  0  0
   58.0706   34.5280   44.9735 H   0  0  0  0  0  0  0  0  0  0  0  0
   58.5871   31.5139   44.5102 H   0  0  0  0  0  0  0  0  0  0  0  0
   56.8342   31.9121   44.4689 H   0  0  0  0  0  0  0  0  0  0  0  0
   55.7193   27.6415   46.8530 H   0  0  0  0  0  0  0  0  0  0  0  0
   56.2370   25.3294   47.6241 H   0  0  0  0  0  0  0  0  0  0  0  0
   54.5263   23.1971   48.1861 H   0  0  0  0  0  0  0  0  0  0  0  0
   54.7328   24.1723   46.6918 H   0  0  0  0  0  0  0  0  0  0  0  0
   53.6354   22.7502   46.6918 H   0  0  0  0  0  0  0  0  0  0  0  0
   55.5500   20.8290   48.2906 H   0  0  0  0  0  0  0  0  0  0  0  0
   54.4476   20.5330   46.8940 H   0  0  0  0  0  0  0  0  0  0  0  0
   57.4320   19.2180   44.8440 H   0  0  0  0  0  0  0  0  0  0  0  0
   57.5435   20.3037   42.6972 H   0  0  0  0  0  0  0  0  0  0  0  0
   56.9606   22.2564   41.3761 H   0  0  0  0  0  0  0  0  0  0  0  0
   55.6978   24.2161   42.4235 H   0  0  0  0  0  0  0  0  0  0  0  0
   55.0816   24.1961   44.7613 H   0  0  0  0  0  0  0  0  0  0  0  0
   58.9812   24.8383   44.3124 H   0  0  0  0  0  0  0  0  0  0  0  0
   58.4677   27.1545   43.5468 H   0  0  0  0  0  0  0  0  0  0  0  0
   59.2444   29.4058   45.6861 H   0  0  0  0  0  0  0  0  0  0  0  0
   58.2316   29.0319   47.1534 H   0  0  0  0  0  0  0  0  0  0  0  0
  1  2  1  0
  2  3  1  0
  3  4  1  0
  4  5  1  0
  4  6  1  0
  6  7  1  0
  7  8  1  0
  8  9  2  0
  8 10  2  0
  8 11  1  0
 11 12  2  0
 12 13  1  0
 13 14  2  0
 14 15  1  0
 15 16  1  0
 16 17  2  0
 16 18  1  0
 18 19  1  6
 18 20  1  0
 20 21  1  0
 21 22  2  0
 21 23  1  0
 23 24  2  0
 24 25  1  0
 25 26  2  0
 26 27  1  0
 27 28  2  0
 28 29  1  0
 14 30  1  0
 30 31  2  0
  7 32  1  0
 32  2  1  0
 31 11  1  0
 29 18  1  0
 29 24  1  0
  1 33  1  0
  1 34  1  0
  1 35  1  0
  2 36  1  1
  3 37  1  0
  3 38  1  0
  4 39  1  1
  5 40  1  0
  5 41  1  0
  5 42  1  0
  6 43  1  0
  6 44  1  0
 12 45  1  0
 13 46  1  0
 19 47  1  0
 19 48  1  0
 19 49  1  0
 20 50  1  0
 20 51  1  0
 23 52  1  0
 25 53  1  0
 26 54  1  0
 27 55  1  0
 28 56  1  0
 30 57  1  0
 31 58  1  0
 32 59  1  0
 32 60  1  0
M  CHG  2  15  -1  23   1
M  END
>  <UniqueID>  (70) 
66

>  <SMILES>  (70) 
C[C@@H]1C[C@H](C)CN(S(=O)(=O)c2ccc([N-]C(=O)C3(C)CC(=O)[NH+]=C4C=CC=CN43)cc2)C1

>  <Energy>  (70) 
69.56103764786424

>  <Genealogy>  (70) 
CC1CC(C)CN(S(=O)(=O)c2ccc([N-]C(=O)C3(C)CC(=O)[NH+]=C4C=CC=CN43)cc2)C1 (protonated)
C[C@@H]1C[C@H](C)CN(S(=O)(=O)c2ccc([N-]C(=O)C3(C)CC(=O)[NH+]=C4C=CC=CN43)cc2)C1 (chirality)
C[C@@H]1C[C@H](C)CN(S(=O)(=O)c2ccc([N-]C(=O)C3(C)CC(=O)[NH+]=C4C=CC=CN43)cc2)C1 (3D coordinates assigned)
C[C@@H]1C[C@H](C)CN(S(=O)(=O)c2ccc([N-]C(=O)C3(C)CC(=O)[NH+]=C4C=CC=CN43)cc2)C1 (nonaromatic ring conformer: 69.56103764786424 kcal/mol)

>  <smiles>  (70) 
CC1CC(C)CN(S(=O)(=O)c2ccc(NC(=O)C3(C)CC(=O)N=C4C=CC=CN43)cc2)C1

>  <score_type>  (70) 
oracle

>  <origin>  (70) 
adg

>  <m_score__min__energy>  (70) 
-10.84

>  <m_primary>  (70) 
energy

$$$$
70:0
     RDKit          3D

 40 42  0  0  0  0  0  0  0  0999 V2000
   52.5465   29.0758   54.1983 H   0  0  0  0  0  0  0  0  0  0  0  0
   53.5860   28.7260   54.1140 C   0  0  0  0  0  0  0  0  0  0  0  0
   53.9140   27.8367   54.6721 H   0  0  0  0  0  0  0  0  0  0  0  0
   54.4510   29.3820   53.3330 C   0  0  0  0  0  0  0  0  0  0  0  0
   54.2010   30.5200   52.5640 C   0  0  0  0  0  0  0  0  0  0  0  0
   53.0490   31.2120   52.4820 C   0  0  0  0  0  0  0  0  0  0  0  0
   52.7252   31.7824   53.3651 H   0  0  0  0  0  0  0  0  0  0  0  0
   52.1950   31.2520   51.2810 C   0  0  0  0  0  0  0  0  0  0  0  0
   52.2680   30.3410   50.2950 N   0  0  0  0  0  0  0  0  0  0  0  0
   51.3890   30.8010   49.3780 C   0  0  0  0  0  0  0  0  0  0  0  0
   51.1640   30.2000   48.2950 O   0  0  0  0  0  0  0  0  0  0  0  0
   50.7800   31.9590   49.7070 N   0  0  0  0  0  0  0  0  0  0  0  0
   51.3090   32.2400   50.9080 C   0  0  0  0  0  0  0  0  0  0  0  0
   51.0230   33.3960   51.6220 O   0  0  0  0  0  0  0  0  0  0  0  0
   55.4050   30.8360   51.9470 C   0  0  0  0  0  0  0  0  0  0  0  0
   55.5961   31.6847   51.2738 H   0  0  0  0  0  0  0  0  0  0  0  0
   56.3170   29.8740   52.3450 C   0  0  0  0  0  0  0  0  0  0  0  0
   57.7440   29.8510   51.9630 C   0  0  0  0  0  0  0  0  0  0  0  0
   58.4810   28.9360   52.4230 O   0  0  0  0  0  0  0  0  0  0  0  0
   58.3330   30.8600   51.0540 C   0  0  0  0  0  0  0  0  0  0  0  0
   58.5870   32.1580   51.5190 C   0  0  0  0  0  0  0  0  0  0  0  0
   58.3601   32.4169   52.5637 H   0  0  0  0  0  0  0  0  0  0  0  0
   59.1260   33.1260   50.6670 C   0  0  0  0  0  0  0  0  0  0  0  0
   59.3273   34.1367   51.0516 H   0  0  0  0  0  0  0  0  0  0  0  0
   59.4150   32.8230   49.3200 C   0  0  0  0  0  0  0  0  0  0  0  0
   59.9770   33.8270   48.4350 N   0  0  0  0  0  0  0  0  0  0  0  0
   59.1120   34.5850   47.5220 C   0  0  0  0  0  0  0  0  0  0  0  0
   58.4111   35.1992   48.1063 H   0  0  0  0  0  0  0  0  0  0  0  0
   59.7304   35.2373   46.8879 H   0  0  0  0  0  0  0  0  0  0  0  0
   58.5466   33.8863   46.8879 H   0  0  0  0  0  0  0  0  0  0  0  0
   61.4190   34.1020   48.4350 C   0  0  0  0  0  0  0  0  0  0  0  0
   61.7792   34.1707   49.4721 H   0  0  0  0  0  0  0  0  0  0  0  0
   61.9474   33.2884   47.9165 H   0  0  0  0  0  0  0  0  0  0  0  0
   61.6109   35.0529   47.9165 H   0  0  0  0  0  0  0  0  0  0  0  0
   59.1380   31.5210   48.8570 C   0  0  0  0  0  0  0  0  0  0  0  0
   59.3492   31.2618   47.8091 H   0  0  0  0  0  0  0  0  0  0  0  0
   58.5990   30.5550   49.7100 C   0  0  0  0  0  0  0  0  0  0  0  0
   58.3814   29.5476   49.3255 H   0  0  0  0  0  0  0  0  0  0  0  0
   55.7360   29.0000   53.1910 N   0  0  0  0  0  0  0  0  0  0  0  0
   56.2000   28.2000   53.6770 H   0  0  0  0  0  0  0  0  0  0  0  0
  1  2  1  0
  2  3  1  0
  2  4  2  0
  4  5  1  0
  5  6  2  0
  6  7  1  0
  6  8  1  0
  8  9  1  0
  9 10  1  0
 10 11  2  0
 10 12  1  0
 12 13  1  0
 13 14  1  0
  5 15  1  0
 15 16  1  0
 15 17  2  0
 17 18  1  0
 18 19  2  0
 18 20  1  0
 20 21  2  0
 21 22  1  0
 21 23  1  0
 23 24  1  0
 23 25  2  0
 25 26  1  0
 26 27  1  0
 27 28  1  0
 27 29  1  0
 27 30  1  0
 26 31  1  0
 31 32  1  0
 31 33  1  0
 31 34  1  0
 25 35  1  0
 35 36  1  0
 35 37  2  0
 37 38  1  0
 17 39  1  0
 39 40  1  0
 39  4  1  0
 13  8  2  0
 37 20  1  0
M  CHG  3   9  -1  12  -1  14  -1
M  END
>  <UniqueID>  (71) 
67

>  <SMILES>  (71) 
C=c1[nH]c(C(=O)c2ccc(N(C)C)cc2)c/c1=C\c1[n-]c(=O)[n-]c1[O-]

>  <Energy>  (71) 
111.08997171392872

>  <Genealogy>  (71) 
C=c1[nH]c(C(=O)c2ccc(N(C)C)cc2)cc1=Cc1[n-]c(=O)[n-]c1[O-] (protonated)
C=c1[nH]c(C(=O)c2ccc(N(C)C)cc2)c/c1=C\c1[n-]c(=O)[n-]c1[O-] (cis-trans isomerization)
C=c1[nH]c(C(=O)c2ccc(N(C)C)cc2)c/c1=C\c1[n-]c(=O)[n-]c1[O-] (3D coordinates assigned)
C=c1[nH]c(C(=O)c2ccc(N(C)C)cc2)c/c1=C\c1[n-]c(=O)[n-]c1[O-] (optimized conformer: 111.08997171392872 kcal/mol)

>  <smiles>  (71) 
C=c1[nH]c(C(=O)c2ccc(N(C)C)cc2)cc1=Cc1[nH]c(=O)[nH]c1O

>  <score_type>  (71) 
oracle

>  <origin>  (71) 
adg

>  <m_score__min__energy>  (71) 
-16.59

>  <m_primary>  (71) 
energy

$$$$
71:0
     RDKit          3D

 45 47  0  0  0  0  0  0  0  0999 V2000
   59.5980   29.8950   53.3490 C   0  0  0  0  0  0  0  0  0  0  0  0
   58.3040   30.0690   53.0720 C   0  0  0  0  0  0  0  0  0  0  0  0
   57.1760   28.8240   53.1180 S   0  0  0  0  0  0  0  0  0  0  0  0
   55.8900   29.7910   52.6300 C   0  0  0  0  0  0  0  0  0  0  0  0
   54.6390   29.3290   52.4730 C   0  0  0  0  0  0  0  0  0  0  0  0
   53.4370   30.1760   52.3510 C   0  0  0  0  0  0  0  0  0  0  0  0
   52.8770   30.7990   53.4750 C   0  0  0  0  0  0  0  0  0  0  0  0
   51.7720   31.6370   53.3350 C   0  0  0  0  0  0  0  0  0  0  0  0
   51.2240   31.8840   52.0720 C   0  0  0  0  0  0  0  0  0  0  0  0
   50.1150   32.7170   51.9800 O   0  0  0  0  0  0  0  0  0  0  0  0
   51.7940   31.2930   50.9220 C   0  0  0  0  0  0  0  0  0  0  0  0
   51.2610   31.5410   49.6030 N   0  0  0  0  0  0  0  0  0  0  0  0
   51.0000   32.7050   49.2360 O   0  0  0  0  0  0  0  0  0  0  0  0
   51.0130   30.5090   48.7290 O   0  0  0  0  0  0  0  0  0  0  0  0
   52.9100   30.4460   51.0800 C   0  0  0  0  0  0  0  0  0  0  0  0
   56.3810   31.0950   52.4650 C   0  0  0  0  0  0  0  0  0  0  0  0
   55.6490   32.0730   52.1520 O   0  0  0  0  0  0  0  0  0  0  0  0
   57.7210   31.2470   52.7080 N   0  0  0  0  0  0  0  0  0  0  0  0
   58.4320   32.5230   52.5370 C   0  0  0  0  0  0  0  0  0  0  0  0
   58.7920   32.7230   51.0960 C   0  0  0  0  0  0  0  0  0  0  0  0
   59.9020   33.2410   50.7990 O   0  0  0  0  0  0  0  0  0  0  0  0
   57.8580   32.3570   50.0690 N   0  0  0  0  0  0  0  0  0  0  0  0
   58.2140   32.1710   48.6890 C   0  0  0  0  0  0  0  0  0  0  0  0
   58.9640   31.0450   48.3190 C   0  0  0  0  0  0  0  0  0  0  0  0
   59.3520   30.8590   46.9890 C   0  0  0  0  0  0  0  0  0  0  0  0
   59.0030   31.8000   46.0180 C   0  0  0  0  0  0  0  0  0  0  0  0
   58.2580   32.9350   46.3700 C   0  0  0  0  0  0  0  0  0  0  0  0
   57.9340   33.9760   45.3400 C   0  0  0  0  0  0  0  0  0  0  0  0
   57.8840   33.1280   47.7100 C   0  0  0  0  0  0  0  0  0  0  0  0
   60.2901   30.7487   53.3023 H   0  0  0  0  0  0  0  0  0  0  0  0
   59.9724   28.8979   53.6240 H   0  0  0  0  0  0  0  0  0  0  0  0
   54.5000   28.2386   52.4323 H   0  0  0  0  0  0  0  0  0  0  0  0
   53.3111   30.6260   54.4708 H   0  0  0  0  0  0  0  0  0  0  0  0
   51.3276   32.1076   54.2244 H   0  0  0  0  0  0  0  0  0  0  0  0
   53.3742   29.9902   50.1930 H   0  0  0  0  0  0  0  0  0  0  0  0
   57.7838   33.3478   52.8679 H   0  0  0  0  0  0  0  0  0  0  0  0
   59.3525   32.5057   53.1390 H   0  0  0  0  0  0  0  0  0  0  0  0
   56.8510   32.2690   50.3340 H   0  0  0  0  0  0  0  0  0  0  0  0
   59.2487   30.3037   49.0802 H   0  0  0  0  0  0  0  0  0  0  0  0
   59.9337   29.9691   46.7065 H   0  0  0  0  0  0  0  0  0  0  0  0
   59.3135   31.6505   44.9734 H   0  0  0  0  0  0  0  0  0  0  0  0
   57.6431   34.9105   45.8421 H   0  0  0  0  0  0  0  0  0  0  0  0
   58.8182   34.1574   44.7113 H   0  0  0  0  0  0  0  0  0  0  0  0
   57.1030   33.6236   44.7113 H   0  0  0  0  0  0  0  0  0  0  0  0
   57.3292   34.0335   47.9969 H   0  0  0  0  0  0  0  0  0  0  0  0
  1  2  2  0
  2  3  1  0
  3  4  1  0
  4  5  2  3
  5  6  1  0
  6  7  2  0
  7  8  1  0
  8  9  2  0
  9 10  1  0
  9 11  1  0
 11 12  1  0
 12 13  2  0
 12 14  1  0
 11 15  2  0
  4 16  1  0
 16 17  2  0
 16 18  1  0
 18 19  1  0
 19 20  1  0
 20 21  2  0
 20 22  1  0
 22 23  1  0
 23 24  2  0
 24 25  1  0
 25 26  2  0
 26 27  1  0
 27 28  1  0
 27 29  2  0
 18  2  1  0
 29 23  1  0
 15  6  1  0
  1 30  1  0
  1 31  1  0
  5 32  1  0
  7 33  1  0
  8 34  1  0
 15 35  1  0
 19 36  1  0
 19 37  1  0
 22 38  1  0
 24 39  1  0
 25 40  1  0
 26 41  1  0
 28 42  1  0
 28 43  1  0
 28 44  1  0
 29 45  1  0
M  CHG  3  10  -1  12   1  14  -1
M  END
>  <UniqueID>  (72) 
68

>  <SMILES>  (72) 
C=c1sc(=Cc2ccc([O-])c([N+](=O)[O-])c2)c(=O)n1CC(=O)Nc1cccc(C)c1

>  <Energy>  (72) 
91.72947428676238

>  <Genealogy>  (72) 
C=c1sc(=Cc2ccc([O-])c([N+](=O)[O-])c2)c(=O)n1CC(=O)Nc1cccc(C)c1 (protonated)
C=c1sc(=Cc2ccc([O-])c([N+](=O)[O-])c2)c(=O)n1CC(=O)Nc1cccc(C)c1 (3D coordinates assigned)
C=c1sc(=Cc2ccc([O-])c([N+](=O)[O-])c2)c(=O)n1CC(=O)Nc1cccc(C)c1 (optimized conformer: 91.72947428676238 kcal/mol)

>  <smiles>  (72) 
C=c1sc(=Cc2ccc(O)c([N+](=O)[O-])c2)c(=O)n1CC(=O)Nc1cccc(C)c1

>  <score_type>  (72) 
oracle

>  <origin>  (72) 
adg

>  <m_score__min__energy>  (72) 
-13.859999999999999

>  <m_primary>  (72) 
energy

$$$$
72:0
     RDKit          3D

 47 50  0  0  0  0  0  0  0  0999 V2000
   51.0070   23.0390   46.0460 C   0  0  0  0  0  0  0  0  0  0  0  0
   51.7810   23.3080   44.9960 C   0  0  0  0  0  0  0  0  0  0  0  0
   53.1270   23.8820   45.1380 C   0  0  0  0  0  0  0  0  0  0  0  0
   54.2670   23.2370   44.8040 N   0  0  0  0  0  0  0  0  0  0  0  0
   55.2450   24.0820   45.0720 N   0  0  0  0  0  0  0  0  0  0  0  0
   56.6650   23.7810   44.9080 C   0  0  0  0  0  0  0  0  0  0  0  0
   57.4760   24.6650   45.8000 C   0  0  0  0  0  0  0  0  0  0  0  0
   57.3860   24.7260   47.1850 C   0  0  0  0  0  0  0  0  0  0  0  0
   58.1540   25.6880   47.7630 N   0  0  0  0  0  0  0  0  0  0  0  0
   58.8500   26.4030   46.8490 C   0  0  0  0  0  0  0  0  0  0  0  0
   59.7100   27.5060   47.1980 N   0  0  0  0  0  0  0  0  0  0  0  0
   60.2930   28.3780   46.1740 C   0  0  0  0  0  0  0  0  0  0  0  0
   59.4980   29.6840   46.1200 C   0  0  0  0  0  0  0  0  0  0  0  0
   59.3450   30.2380   47.4770 N   0  0  0  0  0  0  0  0  0  0  0  0
   59.5200   31.6470   47.7270 C   0  0  0  0  0  0  0  0  0  0  0  0
   60.0720   32.0220   48.7970 O   0  0  0  0  0  0  0  0  0  0  0  0
   59.0590   32.6690   46.7600 C   0  0  0  0  0  0  0  0  0  0  0  0
   59.8610   33.7800   46.4520 C   0  0  0  0  0  0  0  0  0  0  0  0
   59.4260   34.7330   45.5270 C   0  0  0  0  0  0  0  0  0  0  0  0
   58.1910   34.5810   44.8930 C   0  0  0  0  0  0  0  0  0  0  0  0
   57.3960   33.4680   45.1720 C   0  0  0  0  0  0  0  0  0  0  0  0
   57.8270   32.5140   46.1010 C   0  0  0  0  0  0  0  0  0  0  0  0
   58.8880   29.3530   48.5600 C   0  0  0  0  0  0  0  0  0  0  0  0
   59.6950   28.0530   48.5580 C   0  0  0  0  0  0  0  0  0  0  0  0
   58.5270   25.8720   45.2790 S   0  0  0  0  0  0  0  0  0  0  0  0
   54.6920   25.1990   45.5700 C   0  0  0  0  0  0  0  0  0  0  0  0
   55.3480   26.2020   45.9570 O   0  0  0  0  0  0  0  0  0  0  0  0
   53.3490   25.1250   45.6260 N   0  0  0  0  0  0  0  0  0  0  0  0
   50.0056   22.6095   45.8954 H   0  0  0  0  0  0  0  0  0  0  0  0
   51.3692   23.2463   47.0638 H   0  0  0  0  0  0  0  0  0  0  0  0
   51.3996   23.0931   43.9869 H   0  0  0  0  0  0  0  0  0  0  0  0
   56.8482   22.7290   45.1719 H   0  0  0  0  0  0  0  0  0  0  0  0
   56.9551   23.9564   43.8615 H   0  0  0  0  0  0  0  0  0  0  0  0
   56.7440   24.0494   47.7682 H   0  0  0  0  0  0  0  0  0  0  0  0
   61.3413   28.5946   46.4274 H   0  0  0  0  0  0  0  0  0  0  0  0
   60.2540   27.8786   45.1947 H   0  0  0  0  0  0  0  0  0  0  0  0
   60.0318   30.4094   45.4885 H   0  0  0  0  0  0  0  0  0  0  0  0
   58.5023   29.4831   45.6978 H   0  0  0  0  0  0  0  0  0  0  0  0
   60.8383   33.9009   46.9422 H   0  0  0  0  0  0  0  0  0  0  0  0
   60.0573   35.6042   45.2980 H   0  0  0  0  0  0  0  0  0  0  0  0
   57.8448   35.3381   44.1740 H   0  0  0  0  0  0  0  0  0  0  0  0
   56.4301   33.3406   44.6613 H   0  0  0  0  0  0  0  0  0  0  0  0
   57.1980   31.6378   46.3167 H   0  0  0  0  0  0  0  0  0  0  0  0
   59.0220   29.8621   49.5259 H   0  0  0  0  0  0  0  0  0  0  0  0
   57.8253   29.1153   48.4042 H   0  0  0  0  0  0  0  0  0  0  0  0
   60.7251   28.2573   48.8853 H   0  0  0  0  0  0  0  0  0  0  0  0
   59.2360   27.3281   49.2464 H   0  0  0  0  0  0  0  0  0  0  0  0
  1  2  2  0
  2  3  1  0
  3  4  2  0
  4  5  1  0
  5  6  1  0
  6  7  1  0
  7  8  2  0
  8  9  1  0
  9 10  2  0
 10 11  1  0
 11 12  1  0
 12 13  1  0
 13 14  1  0
 14 15  1  0
 15 16  2  0
 15 17  1  0
 17 18  2  0
 18 19  1  0
 19 20  2  0
 20 21  1  0
 21 22  2  0
 14 23  1  0
 23 24  1  0
 10 25  1  0
  5 26  1  0
 26 27  2  0
 26 28  1  0
 28  3  1  0
 25  7  1  0
 24 11  1  0
 22 17  1  0
  1 29  1  0
  1 30  1  0
  2 31  1  0
  6 32  1  0
  6 33  1  0
  8 34  1  0
 12 35  1  0
 12 36  1  0
 13 37  1  0
 13 38  1  0
 18 39  1  0
 19 40  1  0
 20 41  1  0
 21 42  1  0
 22 43  1  0
 23 44  1  0
 23 45  1  0
 24 46  1  0
 24 47  1  0
M  CHG  1  28  -1
M  END
>  <UniqueID>  (73) 
69

>  <SMILES>  (73) 
C=Cc1nn(Cc2cnc(N3CCN(C(=O)c4ccccc4)CC3)s2)c(=O)[n-]1

>  <Energy>  (73) 
116.65884262414181

>  <Genealogy>  (73) 
C=Cc1nn(Cc2cnc(N3CCN(C(=O)c4ccccc4)CC3)s2)c(=O)[n-]1 (protonated)
C=Cc1nn(Cc2cnc(N3CCN(C(=O)c4ccccc4)CC3)s2)c(=O)[n-]1 (3D coordinates assigned)
C=Cc1nn(Cc2cnc(N3CCN(C(=O)c4ccccc4)CC3)s2)c(=O)[n-]1 (nonaromatic ring conformer: 116.65884262414181 kcal/mol)

>  <smiles>  (73) 
C=Cc1nn(Cc2cnc(N3CCN(C(=O)c4ccccc4)CC3)s2)c(=O)[nH]1

>  <score_type>  (73) 
oracle

>  <origin>  (73) 
adg

>  <m_score__min__energy>  (73) 
-9.8499999999999996

>  <m_primary>  (73) 
energy

$$$$
74:0
     RDKit          3D

 49 52  0  0  0  0  0  0  0  0999 V2000
   55.3440   29.3260   44.6650 N   0  0  0  0  0  0  0  0  0  0  0  0
   56.6830   29.7630   43.6650 S   0  0  0  0  0  0  0  0  0  0  0  0
   57.7190   28.6750   43.7130 O   0  0  0  0  0  0  0  0  0  0  0  0
   56.2190   29.9240   42.2440 O   0  0  0  0  0  0  0  0  0  0  0  0
   57.3780   31.2740   44.2400 C   0  0  0  0  0  0  0  0  0  0  0  0
   57.9390   32.1840   43.3330 C   0  0  0  0  0  0  0  0  0  0  0  0
   58.5040   33.3770   43.7930 C   0  0  0  0  0  0  0  0  0  0  0  0
   58.5150   33.6740   45.1640 C   0  0  0  0  0  0  0  0  0  0  0  0
   59.1510   34.9500   45.6540 C   0  0  0  0  0  0  0  0  0  0  0  0
   60.3340   34.6610   46.4950 N   0  0  0  0  0  0  0  0  0  0  0  0
   61.0670   33.4580   46.0150 C   0  0  0  0  0  0  0  0  0  0  0  0
   61.7650   32.6910   47.1420 C   0  0  0  0  0  0  0  0  0  0  0  0
   60.7700   32.3200   48.1500 N   0  0  0  0  0  0  0  0  0  0  0  0
   60.8320   31.0360   48.7860 C   0  0  0  0  0  0  0  0  0  0  0  0
   60.5510   29.9210   48.0920 C   0  0  0  0  0  0  0  0  0  0  0  0
   60.1150   30.0190   46.3860 Cl  0  0  0  0  0  0  0  0  0  0  0  0
   60.6110   28.5940   48.7360 C   0  0  0  0  0  0  0  0  0  0  0  0
   60.3380   27.5700   48.0540 O   0  0  0  0  0  0  0  0  0  0  0  0
   60.9880   28.4710   50.1710 C   0  0  0  0  0  0  0  0  0  0  0  0
   61.0580   27.2160   50.8160 C   0  0  0  0  0  0  0  0  0  0  0  0
   60.7750   26.0370   50.1330 O   0  0  0  0  0  0  0  0  0  0  0  0
   61.4150   27.1360   52.1630 C   0  0  0  0  0  0  0  0  0  0  0  0
   61.7070   28.2920   52.8830 C   0  0  0  0  0  0  0  0  0  0  0  0
   61.6440   29.5420   52.2670 C   0  0  0  0  0  0  0  0  0  0  0  0
   61.9430   30.6720   53.0210 O   0  0  0  0  0  0  0  0  0  0  0  0
   61.2840   29.6460   50.9040 C   0  0  0  0  0  0  0  0  0  0  0  0
   61.2060   30.9620   50.2140 C   0  0  0  0  0  0  0  0  0  0  0  0
   61.4530   32.0310   50.8360 O   0  0  0  0  0  0  0  0  0  0  0  0
   59.6670   33.2300   48.4560 C   0  0  0  0  0  0  0  0  0  0  0  0
   59.9810   34.6400   47.9390 C   0  0  0  0  0  0  0  0  0  0  0  0
   57.9640   32.7550   46.0720 C   0  0  0  0  0  0  0  0  0  0  0  0
   57.3990   31.5620   45.6110 C   0  0  0  0  0  0  0  0  0  0  0  0
   55.1500   28.3150   44.4900 H   0  0  0  0  0  0  0  0  0  0  0  0
   57.9346   31.9586   42.2564 H   0  0  0  0  0  0  0  0  0  0  0  0
   58.9424   34.0868   43.0760 H   0  0  0  0  0  0  0  0  0  0  0  0
   59.4631   35.5525   44.7882 H   0  0  0  0  0  0  0  0  0  0  0  0
   58.4152   35.4997   46.2593 H   0  0  0  0  0  0  0  0  0  0  0  0
   60.3498   32.7836   45.5243 H   0  0  0  0  0  0  0  0  0  0  0  0
   61.8473   33.8042   45.3213 H   0  0  0  0  0  0  0  0  0  0  0  0
   62.2347   31.7833   46.7352 H   0  0  0  0  0  0  0  0  0  0  0  0
   62.5404   33.3235   47.5988 H   0  0  0  0  0  0  0  0  0  0  0  0
   61.4660   26.1552   52.6584 H   0  0  0  0  0  0  0  0  0  0  0  0
   61.9890   28.2188   53.9437 H   0  0  0  0  0  0  0  0  0  0  0  0
   58.7491   32.8627   47.9738 H   0  0  0  0  0  0  0  0  0  0  0  0
   59.5291   33.2712   49.5465 H   0  0  0  0  0  0  0  0  0  0  0  0
   59.0966   35.2756   48.0935 H   0  0  0  0  0  0  0  0  0  0  0  0
   60.8534   35.0100   48.4977 H   0  0  0  0  0  0  0  0  0  0  0  0
   57.9770   32.9746   47.1498 H   0  0  0  0  0  0  0  0  0  0  0  0
   56.9692   30.8466   46.3276 H   0  0  0  0  0  0  0  0  0  0  0  0
  1  2  1  0
  2  3  2  0
  2  4  2  0
  2  5  1  0
  5  6  2  0
  6  7  1  0
  7  8  2  0
  8  9  1  0
  9 10  1  0
 10 11  1  0
 11 12  1  0
 12 13  1  0
 13 14  1  0
 14 15  2  0
 15 16  1  0
 15 17  1  0
 17 18  2  0
 17 19  1  0
 19 20  2  0
 20 21  1  0
 20 22  1  0
 22 23  2  0
 23 24  1  0
 24 25  1  0
 24 26  2  0
 26 27  1  0
 27 28  2  0
 13 29  1  0
 29 30  1  0
  8 31  1  0
 31 32  2  0
 32  5  1  0
 30 10  1  0
 27 14  1  0
 26 19  1  0
  1 33  1  0
  6 34  1  0
  7 35  1  0
  9 36  1  0
  9 37  1  0
 11 38  1  0
 11 39  1  0
 12 40  1  0
 12 41  1  0
 22 42  1  0
 23 43  1  0
 29 44  1  0
 29 45  1  0
 30 46  1  0
 30 47  1  0
 31 48  1  0
 32 49  1  0
M  CHG  3   1  -1  21  -1  25  -1
M  END
>  <UniqueID>  (74) 
70

>  <SMILES>  (74) 
[NH-]S(=O)(=O)c1ccc(CN2CCN(C3=C(Cl)C(=O)c4c([O-])ccc([O-])c4C3=O)CC2)cc1

>  <Energy>  (74) 
71.05742171678796

>  <Genealogy>  (74) 
[NH-]S(=O)(=O)c1ccc(CN2CCN(C3=C(Cl)C(=O)c4c([O-])ccc([O-])c4C3=O)CC2)cc1 (protonated)
[NH-]S(=O)(=O)c1ccc(CN2CCN(C3=C(Cl)C(=O)c4c([O-])ccc([O-])c4C3=O)CC2)cc1 (3D coordinates assigned)
[NH-]S(=O)(=O)c1ccc(CN2CCN(C3=C(Cl)C(=O)c4c([O-])ccc([O-])c4C3=O)CC2)cc1 (nonaromatic ring conformer: 71.05742171678796 kcal/mol)

>  <smiles>  (74) 
NS(=O)(=O)c1ccc(CN2CCN(C3=C(Cl)C(=O)c4c(O)ccc(O)c4C3=O)CC2)cc1

>  <score_type>  (74) 
oracle

>  <origin>  (74) 
adg

>  <m_score__min__energy>  (74) 
-14.68

>  <m_primary>  (74) 
energy

$$$$
75:0
     RDKit          3D

 47 50  0  0  0  0  0  0  0  0999 V2000
   58.1530   29.6990   44.4100 C   0  0  0  0  0  0  0  0  0  0  0  0
   58.3170   29.6110   45.7390 C   0  0  0  0  0  0  0  0  0  0  0  0
   58.4540   28.4410   46.5020 C   0  0  0  0  0  0  0  0  0  0  0  0
   58.2550   27.1500   46.1800 C   0  0  0  0  0  0  0  0  0  0  0  0
   56.9630   26.4450   46.2380 C   0  0  0  0  0  0  0  0  0  0  0  0
   56.8090   25.1580   46.6000 N   0  0  0  0  0  0  0  0  0  0  0  0
   55.5000   24.9230   46.3640 C   0  0  0  0  0  0  0  0  0  0  0  0
   54.9580   23.8110   46.5970 O   0  0  0  0  0  0  0  0  0  0  0  0
   54.8210   25.9690   45.8460 N   0  0  0  0  0  0  0  0  0  0  0  0
   55.7660   26.9180   45.7580 C   0  0  0  0  0  0  0  0  0  0  0  0
   55.5410   28.1900   45.2470 O   0  0  0  0  0  0  0  0  0  0  0  0
   58.8240   28.8490   47.7730 C   0  0  0  0  0  0  0  0  0  0  0  0
   58.8360   30.2280   47.7640 C   0  0  0  0  0  0  0  0  0  0  0  0
   59.1420   31.0820   48.9570 C   0  0  0  0  0  0  0  0  0  0  0  0
   58.4950   30.6920   46.5410 N   0  0  0  0  0  0  0  0  0  0  0  0
   58.4480   32.0760   46.1520 C   0  0  0  0  0  0  0  0  0  0  0  0
   57.2790   32.5870   45.6750 N   0  0  0  0  0  0  0  0  0  0  0  0
   57.1770   33.8670   45.2330 C   0  0  0  0  0  0  0  0  0  0  0  0
   58.2950   34.7000   45.2420 C   0  0  0  0  0  0  0  0  0  0  0  0
   59.5090   34.2090   45.7240 C   0  0  0  0  0  0  0  0  0  0  0  0
   59.6010   32.8940   46.2040 C   0  0  0  0  0  0  0  0  0  0  0  0
   60.8900   32.4050   46.7430 C   0  0  0  0  0  0  0  0  0  0  0  0
   61.2180   31.2000   46.5550 O   0  0  0  0  0  0  0  0  0  0  0  0
   61.7790   33.2780   47.4610 N   0  0  0  0  0  0  0  0  0  0  0  0
   63.2280   33.1850   47.2670 C   0  0  0  0  0  0  0  0  0  0  0  0
   63.8410   32.4420   48.4540 C   0  0  0  0  0  0  0  0  0  0  0  0
   63.3640   32.9940   49.7230 N   0  0  0  0  0  0  0  0  0  0  0  0
   62.0760   33.6140   49.8490 C   0  0  0  0  0  0  0  0  0  0  0  0
   61.6150   33.8740   50.9930 O   0  0  0  0  0  0  0  0  0  0  0  0
   61.3080   34.0300   48.6280 C   0  0  0  0  0  0  0  0  0  0  0  0
   58.0575   30.6850   43.9317 H   0  0  0  0  0  0  0  0  0  0  0  0
   58.1141   28.7852   43.7989 H   0  0  0  0  0  0  0  0  0  0  0  0
   59.1298   26.5730   45.8456 H   0  0  0  0  0  0  0  0  0  0  0  0
   59.0627   28.1975   48.6265 H   0  0  0  0  0  0  0  0  0  0  0  0
   58.9384   30.5138   49.8766 H   0  0  0  0  0  0  0  0  0  0  0  0
   60.2016   31.3766   48.9350 H   0  0  0  0  0  0  0  0  0  0  0  0
   58.5106   31.9825   48.9350 H   0  0  0  0  0  0  0  0  0  0  0  0
   56.2115   34.2469   44.8676 H   0  0  0  0  0  0  0  0  0  0  0  0
   58.2208   35.7336   44.8730 H   0  0  0  0  0  0  0  0  0  0  0  0
   60.3984   34.8563   45.7276 H   0  0  0  0  0  0  0  0  0  0  0  0
   63.4415   32.6361   46.3379 H   0  0  0  0  0  0  0  0  0  0  0  0
   63.6596   34.1943   47.1965 H   0  0  0  0  0  0  0  0  0  0  0  0
   63.5614   31.3797   48.3964 H   0  0  0  0  0  0  0  0  0  0  0  0
   64.9342   32.5563   48.4116 H   0  0  0  0  0  0  0  0  0  0  0  0
   63.8920   32.7570   50.5940 H   0  0  0  0  0  0  0  0  0  0  0  0
   60.2380   33.8283   48.7841 H   0  0  0  0  0  0  0  0  0  0  0  0
   61.4625   35.1048   48.4522 H   0  0  0  0  0  0  0  0  0  0  0  0
  1  2  2  0
  2  3  1  0
  3  4  2  3
  4  5  1  0
  5  6  1  0
  6  7  1  0
  7  8  2  0
  7  9  1  0
  9 10  1  0
 10 11  1  0
  3 12  1  0
 12 13  2  0
 13 14  1  0
 13 15  1  0
 15 16  1  0
 16 17  2  0
 17 18  1  0
 18 19  2  0
 19 20  1  0
 20 21  2  0
 21 22  1  0
 22 23  2  0
 22 24  1  0
 24 25  1  0
 25 26  1  0
 26 27  1  0
 27 28  1  0
 28 29  2  0
 28 30  1  0
 15  2  1  0
 21 16  1  0
 30 24  1  0
 10  5  2  0
  1 31  1  0
  1 32  1  0
  4 33  1  0
 12 34  1  0
 14 35  1  0
 14 36  1  0
 14 37  1  0
 18 38  1  0
 19 39  1  0
 20 40  1  0
 25 41  1  0
 25 42  1  0
 26 43  1  0
 26 44  1  0
 27 45  1  0
 30 46  1  0
 30 47  1  0
M  CHG  3   6  -1   9  -1  11  -1
M  END
>  <UniqueID>  (75) 
71

>  <SMILES>  (75) 
C=c1c(=Cc2[n-]c(=O)[n-]c2[O-])cc(C)n1-c1ncccc1C(=O)N1CCNC(=O)C1

>  <Energy>  (75) 
128.84124092264403

>  <Genealogy>  (75) 
C=c1c(=Cc2[n-]c(=O)[n-]c2[O-])cc(C)n1-c1ncccc1C(=O)N1CCNC(=O)C1 (protonated)
C=c1c(=Cc2[n-]c(=O)[n-]c2[O-])cc(C)n1-c1ncccc1C(=O)N1CCNC(=O)C1 (3D coordinates assigned)
C=c1c(=Cc2[n-]c(=O)[n-]c2[O-])cc(C)n1-c1ncccc1C(=O)N1CCNC(=O)C1 (nonaromatic ring conformer: 128.84124092264403 kcal/mol)

>  <smiles>  (75) 
C=c1c(=Cc2[nH]c(=O)[nH]c2O)cc(C)n1-c1ncccc1C(=O)N1CCNC(=O)C1

>  <score_type>  (75) 
oracle

>  <origin>  (75) 
adg

>  <m_score__min__energy>  (75) 
-16.32

>  <m_primary>  (75) 
energy

$$$$
76:0
     RDKit          3D

 41 43  0  0  0  0  0  0  0  0999 V2000
   59.8820   25.8320   46.0730 C   0  0  0  0  0  0  0  0  0  0  0  0
   60.6850   26.3470   47.1300 O   0  0  0  0  0  0  0  0  0  0  0  0
   60.3500   27.4660   47.9070 C   0  0  0  0  0  0  0  0  0  0  0  0
   60.7360   27.5920   49.2560 C   0  0  0  0  0  0  0  0  0  0  0  0
   60.3770   28.7280   49.9870 C   0  0  0  0  0  0  0  0  0  0  0  0
   59.6340   29.7510   49.3830 C   0  0  0  0  0  0  0  0  0  0  0  0
   59.2590   30.9190   50.1420 N   0  0  0  0  0  0  0  0  0  0  0  0
   60.0170   32.0630   50.0950 C   0  0  0  0  0  0  0  0  0  0  0  0
   61.4000   32.1450   49.2020 S   0  0  0  0  0  0  0  0  0  0  0  0
   59.6420   33.1570   50.8120 N   0  0  0  0  0  0  0  0  0  0  0  0
   58.5290   33.1510   51.5870 C   0  0  0  0  0  0  0  0  0  0  0  0
   58.1950   34.2980   52.3000 O   0  0  0  0  0  0  0  0  0  0  0  0
   57.7300   32.0010   51.6670 C   0  0  0  0  0  0  0  0  0  0  0  0
   56.5140   32.0130   52.5240 C   0  0  0  0  0  0  0  0  0  0  0  0
   55.8740   30.9190   52.8080 N   0  0  0  0  0  0  0  0  0  0  0  0
   54.5010   30.6250   52.4960 C   0  0  0  0  0  0  0  0  0  0  0  0
   54.0530   29.3100   52.6680 C   0  0  0  0  0  0  0  0  0  0  0  0
   52.7340   28.9660   52.3720 C   0  0  0  0  0  0  0  0  0  0  0  0
   51.8480   29.9300   51.8880 C   0  0  0  0  0  0  0  0  0  0  0  0
   52.2770   31.2520   51.6880 C   0  0  0  0  0  0  0  0  0  0  0  0
   51.3380   32.2670   51.1590 C   0  0  0  0  0  0  0  0  0  0  0  0
   51.1120   32.3500   49.9220 O   0  0  0  0  0  0  0  0  0  0  0  0
   50.6920   33.1460   52.0220 O   0  0  0  0  0  0  0  0  0  0  0  0
   53.6100   31.5930   51.9890 C   0  0  0  0  0  0  0  0  0  0  0  0
   58.1260   30.8740   50.9140 C   0  0  0  0  0  0  0  0  0  0  0  0
   57.4320   29.8190   50.9450 O   0  0  0  0  0  0  0  0  0  0  0  0
   59.2450   29.6250   48.0430 C   0  0  0  0  0  0  0  0  0  0  0  0
   59.6040   28.4900   47.3110 C   0  0  0  0  0  0  0  0  0  0  0  0
   59.0271   25.2837   46.4957 H   0  0  0  0  0  0  0  0  0  0  0  0
   59.5144   26.6632   45.4534 H   0  0  0  0  0  0  0  0  0  0  0  0
   60.4841   25.1512   45.4534 H   0  0  0  0  0  0  0  0  0  0  0  0
   61.3217   26.7939   49.7355 H   0  0  0  0  0  0  0  0  0  0  0  0
   60.6790   28.8193   51.0408 H   0  0  0  0  0  0  0  0  0  0  0  0
   60.2210   34.0270   50.7760 H   0  0  0  0  0  0  0  0  0  0  0  0
   56.1488   32.9696   52.9261 H   0  0  0  0  0  0  0  0  0  0  0  0
   54.7468   28.5416   53.0397 H   0  0  0  0  0  0  0  0  0  0  0  0
   52.3908   27.9315   52.5205 H   0  0  0  0  0  0  0  0  0  0  0  0
   50.8079   29.6525   51.6620 H   0  0  0  0  0  0  0  0  0  0  0  0
   53.9590   32.6235   51.8271 H   0  0  0  0  0  0  0  0  0  0  0  0
   58.6554   30.4216   47.5658 H   0  0  0  0  0  0  0  0  0  0  0  0
   59.2981   28.4004   46.2582 H   0  0  0  0  0  0  0  0  0  0  0  0
  1  2  1  0
  2  3  1  0
  3  4  2  0
  4  5  1  0
  5  6  2  0
  6  7  1  0
  7  8  1  0
  8  9  2  0
  8 10  1  0
 10 11  1  0
 11 12  1  0
 11 13  2  0
 13 14  1  0
 14 15  2  3
 15 16  1  0
 16 17  2  0
 17 18  1  0
 18 19  2  0
 19 20  1  0
 20 21  1  0
 21 22  2  0
 21 23  1  0
 20 24  2  0
 13 25  1  0
 25 26  2  0
  6 27  1  0
 27 28  2  0
 28  3  1  0
 25  7  1  0
 24 16  1  0
  1 29  1  0
  1 30  1  0
  1 31  1  0
  4 32  1  0
  5 33  1  0
 10 34  1  0
 14 35  1  0
 17 36  1  0
 18 37  1  0
 19 38  1  0
 24 39  1  0
 27 40  1  0
 28 41  1  0
M  CHG  2  12  -1  23  -1
M  END
>  <UniqueID>  (76) 
72

>  <SMILES>  (76) 
COc1ccc(-n2c(=S)[nH]c([O-])c(C=Nc3cccc(C(=O)[O-])c3)c2=O)cc1

>  <Energy>  (76) 
62.42252796628033

>  <Genealogy>  (76) 
COc1ccc(-n2c(=S)[nH]c([O-])c(C=Nc3cccc(C(=O)[O-])c3)c2=O)cc1 (protonated)
COc1ccc(-n2c(=S)[nH]c([O-])c(C=Nc3cccc(C(=O)[O-])c3)c2=O)cc1 (3D coordinates assigned)
COc1ccc(-n2c(=S)[nH]c([O-])c(C=Nc3cccc(C(=O)[O-])c3)c2=O)cc1 (optimized conformer: 62.42252796628033 kcal/mol)

>  <smiles>  (76) 
COc1ccc(-n2c(=S)[nH]c(O)c(C=Nc3cccc(C(=O)O)c3)c2=O)cc1

>  <score_type>  (76) 
oracle

>  <origin>  (76) 
adg

>  <m_score__min__energy>  (76) 
-11.789999999999999

>  <m_primary>  (76) 
energy

$$$$
77:0
     RDKit          3D

 54 57  0  0  0  0  0  0  0  0999 V2000
   58.1848   28.3294   42.5392 H   0  0  0  0  0  0  0  0  0  0  0  0
   57.7890   27.3880   42.9480 C   0  0  0  0  0  0  0  0  0  0  0  0
   57.0554   26.8040   42.3728 H   0  0  0  0  0  0  0  0  0  0  0  0
   58.2020   26.9510   44.1510 C   0  0  0  0  0  0  0  0  0  0  0  0
   57.7820   25.7750   44.7880 C   0  0  0  0  0  0  0  0  0  0  0  0
   56.9360   24.8440   44.2950 C   0  0  0  0  0  0  0  0  0  0  0  0
   57.2536   24.3081   43.3884 H   0  0  0  0  0  0  0  0  0  0  0  0
   55.6190   24.4810   44.8670 C   0  0  0  0  0  0  0  0  0  0  0  0
   55.0250   23.2770   44.7860 N   0  0  0  0  0  0  0  0  0  0  0  0
   53.8810   23.4400   45.4860 C   0  0  0  0  0  0  0  0  0  0  0  0
   53.0390   22.5170   45.6340 O   0  0  0  0  0  0  0  0  0  0  0  0
   53.7110   24.6700   46.0130 N   0  0  0  0  0  0  0  0  0  0  0  0
   54.8190   25.3150   45.6140 C   0  0  0  0  0  0  0  0  0  0  0  0
   55.0960   26.6410   45.9280 O   0  0  0  0  0  0  0  0  0  0  0  0
   58.4170   25.7620   46.0220 C   0  0  0  0  0  0  0  0  0  0  0  0
   58.3200   24.9892   46.7988 H   0  0  0  0  0  0  0  0  0  0  0  0
   59.1930   26.9010   46.0910 C   0  0  0  0  0  0  0  0  0  0  0  0
   59.9530   27.3070   47.3300 C   0  0  0  0  0  0  0  0  0  0  0  0
   60.0512   26.4314   47.9885 H   0  0  0  0  0  0  0  0  0  0  0  0
   60.9377   27.6826   47.0149 H   0  0  0  0  0  0  0  0  0  0  0  0
   59.2560   28.4110   48.0890 C   0  0  0  0  0  0  0  0  0  0  0  0
   58.1360   28.1810   48.6260 O   0  0  0  0  0  0  0  0  0  0  0  0
   59.8310   29.7320   48.1950 N   0  0  0  0  0  0  0  0  0  0  0  0
   60.9750   30.1450   47.3650 C   0  0  0  0  0  0  0  0  0  0  0  0
   61.9027   30.0289   47.9446 H   0  0  0  0  0  0  0  0  0  0  0  0
   61.0068   29.5130   46.4652 H   0  0  0  0  0  0  0  0  0  0  0  0
   60.8290   31.6110   46.9350 C   0  0  0  0  0  0  0  0  0  0  0  0
   61.7937   31.9618   46.5397 H   0  0  0  0  0  0  0  0  0  0  0  0
   60.0402   31.6610   46.1700 H   0  0  0  0  0  0  0  0  0  0  0  0
   60.4300   32.4820   48.0520 N   0  0  0  0  0  0  0  0  0  0  0  0
   60.2910   33.9070   47.8480 C   0  0  0  0  0  0  0  0  0  0  0  0
   59.8880   34.6460   48.7860 O   0  0  0  0  0  0  0  0  0  0  0  0
   60.5670   34.5300   46.5030 C   0  0  0  0  0  0  0  0  0  0  0  0
   61.6547   34.3673   46.5251 H   0  0  0  0  0  0  0  0  0  0  0  0
   59.6430   35.6850   46.1470 C   0  0  0  0  0  0  0  0  0  0  0  0
   58.8871   36.0267   46.8694 H   0  0  0  0  0  0  0  0  0  0  0  0
   59.7899   36.7215   45.8093 H   0  0  0  0  0  0  0  0  0  0  0  0
   59.4780   34.3460   45.4540 C   0  0  0  0  0  0  0  0  0  0  0  0
   58.6029   33.7170   45.6744 H   0  0  0  0  0  0  0  0  0  0  0  0
   59.4561   34.0100   44.4068 H   0  0  0  0  0  0  0  0  0  0  0  0
   60.1900   31.8910   49.3770 C   0  0  0  0  0  0  0  0  0  0  0  0
   61.1528   31.6216   49.8358 H   0  0  0  0  0  0  0  0  0  0  0  0
   59.6675   32.6231   50.0102 H   0  0  0  0  0  0  0  0  0  0  0  0
   59.3240   30.6350   49.2400 C   0  0  0  0  0  0  0  0  0  0  0  0
   59.3188   30.0998   50.2010 H   0  0  0  0  0  0  0  0  0  0  0  0
   58.3087   30.9494   48.9565 H   0  0  0  0  0  0  0  0  0  0  0  0
   59.0780   27.6240   44.9470 N   0  0  0  0  0  0  0  0  0  0  0  0
   59.7360   28.9080   44.6530 C   0  0  0  0  0  0  0  0  0  0  0  0
   60.5471   29.0721   45.3778 H   0  0  0  0  0  0  0  0  0  0  0  0
   60.1388   28.8722   43.6300 H   0  0  0  0  0  0  0  0  0  0  0  0
   58.7410   30.0590   44.7470 C   0  0  0  0  0  0  0  0  0  0  0  0
   58.5435   30.2875   45.8047 H   0  0  0  0  0  0  0  0  0  0  0  0
   59.1602   30.9474   44.2521 H   0  0  0  0  0  0  0  0  0  0  0  0
   57.8013   29.7727   44.2521 H   0  0  0  0  0  0  0  0  0  0  0  0
  1  2  1  0
  2  3  1  0
  2  4  2  0
  4  5  1  0
  5  6  2  0
  6  7  1  0
  6  8  1  0
  8  9  1  0
  9 10  1  0
 10 11  2  0
 10 12  1  0
 12 13  1  0
 13 14  1  0
  5 15  1  0
 15 16  1  0
 15 17  2  0
 17 18  1  0
 18 19  1  0
 18 20  1  0
 18 21  1  0
 21 22  2  0
 21 23  1  0
 23 24  1  0
 24 25  1  0
 24 26  1  0
 24 27  1  0
 27 28  1  0
 27 29  1  0
 27 30  1  0
 30 31  1  0
 31 32  2  0
 31 33  1  0
 33 34  1  0
 33 35  1  0
 35 36  1  0
 35 37  1  0
 35 38  1  0
 38 39  1  0
 38 40  1  0
 30 41  1  0
 41 42  1  0
 41 43  1  0
 41 44  1  0
 44 45  1  0
 44 46  1  0
 17 47  1  0
 47 48  1  0
 48 49  1  0
 48 50  1  0
 48 51  1  0
 51 52  1  0
 51 53  1  0
 51 54  1  0
 47  4  1  0
 13  8  2  0
 44 23  1  0
 38 33  1  0
M  CHG  3   9  -1  12  -1  14  -1
M  END
>  <UniqueID>  (77) 
73

>  <SMILES>  (77) 
C=c1/c(=C/c2[n-]c(=O)[n-]c2[O-])cc(CC(=O)N2CCN(C(=O)C3CC3)CC2)n1CC

>  <Energy>  (77) 
380.64986224513973

>  <Genealogy>  (77) 
C=c1c(=Cc2[n-]c(=O)[n-]c2[O-])cc(CC(=O)N2CCN(C(=O)C3CC3)CC2)n1CC (protonated)
C=c1/c(=C/c2[n-]c(=O)[n-]c2[O-])cc(CC(=O)N2CCN(C(=O)C3CC3)CC2)n1CC (cis-trans isomerization)
C=c1/c(=C/c2[n-]c(=O)[n-]c2[O-])cc(CC(=O)N2CCN(C(=O)C3CC3)CC2)n1CC (3D coordinates assigned)
C=c1/c(=C/c2[n-]c(=O)[n-]c2[O-])cc(CC(=O)N2CCN(C(=O)C3CC3)CC2)n1CC (nonaromatic ring conformer: 380.64986224513973 kcal/mol)

>  <smiles>  (77) 
C=c1c(=Cc2[nH]c(=O)[nH]c2O)cc(CC(=O)N2CCN(C(=O)C3CC3)CC2)n1CC

>  <score_type>  (77) 
oracle

>  <origin>  (77) 
adg

>  <m_score__min__energy>  (77) 
-18.289999999999999

>  <m_primary>  (77) 
energy

$$$$
78:0
     RDKit          3D

 51 54  0  0  0  0  0  0  0  0999 V2000
   54.2220   27.3230   53.9970 C   0  0  0  0  0  0  0  0  0  0  0  0
   54.6580   28.5330   53.6510 C   0  0  0  0  0  0  0  0  0  0  0  0
   55.9080   28.8960   53.8310 O   0  0  0  0  0  0  0  0  0  0  0  0
   56.0960   30.0790   53.2960 C   0  0  0  0  0  0  0  0  0  0  0  0
   57.3870   30.7960   53.2740 C   0  0  0  0  0  0  0  0  0  0  0  0
   57.7630   31.3910   54.3220 O   0  0  0  0  0  0  0  0  0  0  0  0
   58.2060   30.8590   52.0870 N   0  0  0  0  0  0  0  0  0  0  0  0
   58.1210   29.8100   51.0570 C   0  0  0  0  0  0  0  0  0  0  0  0
   59.3840   29.7610   50.1870 C   0  0  0  0  0  0  0  0  0  0  0  0
   59.7260   31.1000   49.6870 N   0  0  0  0  0  0  0  0  0  0  0  0
   60.4730   31.2310   48.4610 C   0  0  0  0  0  0  0  0  0  0  0  0
   61.1330   30.2490   48.0160 O   0  0  0  0  0  0  0  0  0  0  0  0
   60.4740   32.4590   47.7220 N   0  0  0  0  0  0  0  0  0  0  0  0
   59.2110   33.0020   47.2160 C   0  0  0  0  0  0  0  0  0  0  0  0
   59.4840   33.8710   45.9860 C   0  0  0  0  0  0  0  0  0  0  0  0
   60.4680   34.8430   46.2780 O   0  0  0  0  0  0  0  0  0  0  0  0
   61.7090   34.2050   46.5110 C   0  0  0  0  0  0  0  0  0  0  0  0
   61.6500   33.3260   47.7680 C   0  0  0  0  0  0  0  0  0  0  0  0
   59.4700   32.2850   50.5200 C   0  0  0  0  0  0  0  0  0  0  0  0
   59.2400   31.8990   51.9840 C   0  0  0  0  0  0  0  0  0  0  0  0
   54.9180   30.5340   52.7330 C   0  0  0  0  0  0  0  0  0  0  0  0
   53.9690   29.5590   52.9920 C   0  0  0  0  0  0  0  0  0  0  0  0
   52.6740   29.6790   52.6430 C   0  0  0  0  0  0  0  0  0  0  0  0
   52.0400   30.8990   52.1160 C   0  0  0  0  0  0  0  0  0  0  0  0
   51.5330   31.8710   52.8940 N   0  0  0  0  0  0  0  0  0  0  0  0
   50.9440   32.7080   52.0100 C   0  0  0  0  0  0  0  0  0  0  0  0
   50.3610   33.7680   52.3670 O   0  0  0  0  0  0  0  0  0  0  0  0
   51.0140   32.3110   50.7240 N   0  0  0  0  0  0  0  0  0  0  0  0
   51.6960   31.1560   50.8100 C   0  0  0  0  0  0  0  0  0  0  0  0
   51.9830   30.3390   49.7150 O   0  0  0  0  0  0  0  0  0  0  0  0
   53.1691   27.0501   53.8330 H   0  0  0  0  0  0  0  0  0  0  0  0
   54.9148   26.5966   54.4468 H   0  0  0  0  0  0  0  0  0  0  0  0
   57.9911   28.8358   51.5510 H   0  0  0  0  0  0  0  0  0  0  0  0
   57.2656   30.0401   50.4048 H   0  0  0  0  0  0  0  0  0  0  0  0
   60.2210   29.3758   50.7879 H   0  0  0  0  0  0  0  0  0  0  0  0
   59.1943   29.1016   49.3272 H   0  0  0  0  0  0  0  0  0  0  0  0
   58.5413   32.1745   46.9387 H   0  0  0  0  0  0  0  0  0  0  0  0
   58.7359   33.6129   47.9977 H   0  0  0  0  0  0  0  0  0  0  0  0
   59.8378   33.2330   45.1627 H   0  0  0  0  0  0  0  0  0  0  0  0
   58.5536   34.3811   45.6958 H   0  0  0  0  0  0  0  0  0  0  0  0
   61.9581   33.5758   45.6438 H   0  0  0  0  0  0  0  0  0  0  0  0
   62.4771   34.9781   46.6605 H   0  0  0  0  0  0  0  0  0  0  0  0
   62.5570   32.7058   47.8208 H   0  0  0  0  0  0  0  0  0  0  0  0
   61.5853   33.9724   48.6557 H   0  0  0  0  0  0  0  0  0  0  0  0
   60.3370   32.9592   50.4595 H   0  0  0  0  0  0  0  0  0  0  0  0
   58.5627   32.7819   50.1461 H   0  0  0  0  0  0  0  0  0  0  0  0
   60.1800   31.5180   52.4097 H   0  0  0  0  0  0  0  0  0  0  0  0
   58.9055   32.7887   52.5377 H   0  0  0  0  0  0  0  0  0  0  0  0
   54.7655   31.4783   52.1898 H   0  0  0  0  0  0  0  0  0  0  0  0
   52.0360   28.7908   52.7616 H   0  0  0  0  0  0  0  0  0  0  0  0
   52.8440   30.4560   49.1910 H   0  0  0  0  0  0  0  0  0  0  0  0
  1  2  2  0
  2  3  1  0
  3  4  1  0
  4  5  1  0
  5  6  2  0
  5  7  1  0
  7  8  1  0
  8  9  1  0
  9 10  1  0
 10 11  1  0
 11 12  2  0
 11 13  1  0
 13 14  1  0
 14 15  1  0
 15 16  1  0
 16 17  1  0
 17 18  1  0
 10 19  1  0
 19 20  1  0
  4 21  2  0
 21 22  1  0
 22 23  2  3
 23 24  1  0
 24 25  1  0
 25 26  1  0
 26 27  2  0
 26 28  1  0
 28 29  1  0
 29 30  1  0
 22  2  1  0
 29 24  2  0
 20  7  1  0
 18 13  1  0
  1 31  1  0
  1 32  1  0
  8 33  1  0
  8 34  1  0
  9 35  1  0
  9 36  1  0
 14 37  1  0
 14 38  1  0
 15 39  1  0
 15 40  1  0
 17 41  1  0
 17 42  1  0
 18 43  1  0
 18 44  1  0
 19 45  1  0
 19 46  1  0
 20 47  1  0
 20 48  1  0
 21 49  1  0
 23 50  1  0
 30 51  1  0
M  CHG  2  25  -1  28  -1
M  END
>  <UniqueID>  (78) 
74

>  <SMILES>  (78) 
C=c1oc(C(=O)N2CCN(C(=O)N3CCOCC3)CC2)cc1=Cc1[n-]c(=O)[n-]c1O

>  <Energy>  (78) 
128.4365214931593

>  <Genealogy>  (78) 
C=c1oc(C(=O)N2CCN(C(=O)N3CCOCC3)CC2)cc1=Cc1[n-]c(=O)[n-]c1O (protonated)
C=c1oc(C(=O)N2CCN(C(=O)N3CCOCC3)CC2)cc1=Cc1[n-]c(=O)[n-]c1O (3D coordinates assigned)
C=c1oc(C(=O)N2CCN(C(=O)N3CCOCC3)CC2)cc1=Cc1[n-]c(=O)[n-]c1O (nonaromatic ring conformer: 128.4365214931593 kcal/mol)

>  <smiles>  (78) 
C=c1oc(C(=O)N2CCN(C(=O)N3CCOCC3)CC2)cc1=Cc1[nH]c(=O)[nH]c1O

>  <score_type>  (78) 
oracle

>  <origin>  (78) 
adg

>  <m_score__min__energy>  (78) 
-12.699999999999999

>  <m_primary>  (78) 
energy

$$$$
79:0
     RDKit          3D

 47 50  0  0  0  0  0  0  0  0999 V2000
   49.9090   33.5040   54.2660 C   0  0  0  0  0  0  0  0  0  0  0  0
   50.6080   32.8260   53.3650 C   0  0  0  0  0  0  0  0  0  0  0  0
   50.6770   33.1750   52.0610 N   0  0  0  0  0  0  0  0  0  0  0  0
   51.4530   32.3130   51.3510 C   0  0  0  0  0  0  0  0  0  0  0  0
   51.5990   32.4500   50.1080 O   0  0  0  0  0  0  0  0  0  0  0  0
   52.0260   31.2690   52.0940 C   0  0  0  0  0  0  0  0  0  0  0  0
   52.8160   30.2650   51.6830 C   0  0  0  0  0  0  0  0  0  0  0  0
   53.8680   29.6260   52.4980 C   0  0  0  0  0  0  0  0  0  0  0  0
   53.6870   28.3420   53.0340 C   0  0  0  0  0  0  0  0  0  0  0  0
   54.7140   27.7300   53.7550 C   0  0  0  0  0  0  0  0  0  0  0  0
   55.9360   28.3860   53.9300 C   0  0  0  0  0  0  0  0  0  0  0  0
   56.1440   29.6620   53.3790 C   0  0  0  0  0  0  0  0  0  0  0  0
   57.4480   30.3470   53.5340 C   0  0  0  0  0  0  0  0  0  0  0  0
   58.1090   30.1910   54.5980 O   0  0  0  0  0  0  0  0  0  0  0  0
   57.9680   31.2000   52.5000 N   0  0  0  0  0  0  0  0  0  0  0  0
   58.1780   30.6580   51.1530 C   0  0  0  0  0  0  0  0  0  0  0  0
   57.9450   31.7490   50.1070 C   0  0  0  0  0  0  0  0  0  0  0  0
   58.6870   32.9630   50.4710 N   0  0  0  0  0  0  0  0  0  0  0  0
   59.3300   33.7680   49.4620 C   0  0  0  0  0  0  0  0  0  0  0  0
   59.3970   35.0210   49.6020 O   0  0  0  0  0  0  0  0  0  0  0  0
   59.9130   33.1480   48.2240 C   0  0  0  0  0  0  0  0  0  0  0  0
   59.0680   33.3200   46.9700 C   0  0  0  0  0  0  0  0  0  0  0  0
   60.3280   34.1470   47.1540 C   0  0  0  0  0  0  0  0  0  0  0  0
   58.4810   33.5060   51.8210 C   0  0  0  0  0  0  0  0  0  0  0  0
   58.7020   32.4140   52.8690 C   0  0  0  0  0  0  0  0  0  0  0  0
   55.1060   30.2670   52.6460 C   0  0  0  0  0  0  0  0  0  0  0  0
   51.4990   31.4380   53.6860 S   0  0  0  0  0  0  0  0  0  0  0  0
   49.8916   33.1698   55.3139 H   0  0  0  0  0  0  0  0  0  0  0  0
   49.3468   34.4003   53.9652 H   0  0  0  0  0  0  0  0  0  0  0  0
   52.6682   29.8892   50.6598 H   0  0  0  0  0  0  0  0  0  0  0  0
   52.7325   27.8157   52.8856 H   0  0  0  0  0  0  0  0  0  0  0  0
   54.5613   26.7296   54.1862 H   0  0  0  0  0  0  0  0  0  0  0  0
   56.7399   27.9003   54.5026 H   0  0  0  0  0  0  0  0  0  0  0  0
   59.2095   30.2856   51.0671 H   0  0  0  0  0  0  0  0  0  0  0  0
   57.4683   29.8355   50.9805 H   0  0  0  0  0  0  0  0  0  0  0  0
   58.2903   31.3919   49.1256 H   0  0  0  0  0  0  0  0  0  0  0  0
   56.8710   31.9827   50.0632 H   0  0  0  0  0  0  0  0  0  0  0  0
   60.3950   32.2982   48.7294 H   0  0  0  0  0  0  0  0  0  0  0  0
   59.0393   32.5227   46.2127 H   0  0  0  0  0  0  0  0  0  0  0  0
   58.0106   33.5481   46.7703 H   0  0  0  0  0  0  0  0  0  0  0  0
   61.2118   33.9487   46.5298 H   0  0  0  0  0  0  0  0  0  0  0  0
   60.5608   35.2220   47.1426 H   0  0  0  0  0  0  0  0  0  0  0  0
   59.1929   34.3263   51.9953 H   0  0  0  0  0  0  0  0  0  0  0  0
   57.4498   33.8797   51.9040 H   0  0  0  0  0  0  0  0  0  0  0  0
   59.7758   32.1838   52.9326 H   0  0  0  0  0  0  0  0  0  0  0  0
   58.3356   32.7722   53.8424 H   0  0  0  0  0  0  0  0  0  0  0  0
   55.2677   31.2524   52.1847 H   0  0  0  0  0  0  0  0  0  0  0  0
  1  2  2  0
  2  3  1  0
  3  4  1  0
  4  5  2  0
  4  6  1  0
  6  7  2  3
  7  8  1  0
  8  9  2  0
  9 10  1  0
 10 11  2  0
 11 12  1  0
 12 13  1  0
 13 14  2  0
 13 15  1  0
 15 16  1  0
 16 17  1  0
 17 18  1  0
 18 19  1  0
 19 20  2  0
 19 21  1  0
 21 22  1  0
 22 23  1  0
 18 24  1  0
 24 25  1  0
 12 26  2  0
  6 27  1  0
 27  2  1  0
 26  8  1  0
 25 15  1  0
 23 21  1  0
  1 28  1  0
  1 29  1  0
  7 30  1  0
  9 31  1  0
 10 32  1  0
 11 33  1  0
 16 34  1  0
 16 35  1  0
 17 36  1  0
 17 37  1  0
 21 38  1  0
 22 39  1  0
 22 40  1  0
 23 41  1  0
 23 42  1  0
 24 43  1  0
 24 44  1  0
 25 45  1  0
 25 46  1  0
 26 47  1  0
M  CHG  1   3  -1
M  END
>  <UniqueID>  (79) 
75

>  <SMILES>  (79) 
C=c1[n-]c(=O)c(=Cc2cccc(C(=O)N3CCN(C(=O)C4CC4)CC3)c2)s1

>  <Energy>  (79) 
354.6409190404667

>  <Genealogy>  (79) 
C=c1[n-]c(=O)c(=Cc2cccc(C(=O)N3CCN(C(=O)C4CC4)CC3)c2)s1 (protonated)
C=c1[n-]c(=O)c(=Cc2cccc(C(=O)N3CCN(C(=O)C4CC4)CC3)c2)s1 (3D coordinates assigned)
C=c1[n-]c(=O)c(=Cc2cccc(C(=O)N3CCN(C(=O)C4CC4)CC3)c2)s1 (nonaromatic ring conformer: 354.6409190404667 kcal/mol)

>  <smiles>  (79) 
C=c1[nH]c(=O)c(=Cc2cccc(C(=O)N3CCN(C(=O)C4CC4)CC3)c2)s1

>  <score_type>  (79) 
oracle

>  <origin>  (79) 
adg

>  <m_score__min__energy>  (79) 
-11.18

>  <m_primary>  (79) 
energy

$$$$
80:0
     RDKit          3D

 55 58  0  0  0  0  0  0  0  0999 V2000
   63.6720   31.9050   47.8330 C   0  0  0  0  0  0  0  0  0  0  0  0
   62.4820   32.2800   46.9410 C   0  0  2  0  0  0  0  0  0  0  0  0
   61.8190   33.5870   47.4390 C   0  0  0  0  0  0  0  0  0  0  0  0
   60.3310   33.6300   47.0840 C   0  0  0  0  0  0  0  0  0  0  0  0
   59.5530   32.5200   47.8390 C   0  0  1  0  0  0  0  0  0  0  0  0
   58.0880   32.3330   47.3200 C   0  0  1  0  0  0  0  0  0  0  0  0
   57.4120   33.6130   46.8130 C   0  0  0  0  0  0  0  0  0  0  0  0
   58.0000   31.2300   46.2960 C   0  0  0  0  0  0  0  0  0  0  0  0
   58.6020   30.0490   46.5270 C   0  0  0  0  0  0  0  0  0  0  0  0
   58.4800   28.9290   45.5570 C   0  0  0  0  0  0  0  0  0  0  0  0
   59.0800   29.0070   44.4550 O   0  0  0  0  0  0  0  0  0  0  0  0
   57.6580   27.7240   45.8410 C   0  0  0  0  0  0  0  0  0  0  0  0
   56.2700   27.7400   45.6300 C   0  0  0  0  0  0  0  0  0  0  0  0
   55.6280   28.8870   45.1780 O   0  0  0  0  0  0  0  0  0  0  0  0
   55.5350   26.6280   45.8880 N   0  0  0  0  0  0  0  0  0  0  0  0
   56.1120   25.4920   46.3510 C   0  0  0  0  0  0  0  0  0  0  0  0
   55.4040   24.4830   46.5990 O   0  0  0  0  0  0  0  0  0  0  0  0
   57.4530   25.4430   46.5460 N   0  0  0  0  0  0  0  0  0  0  0  0
   58.2370   26.5220   46.2940 C   0  0  0  0  0  0  0  0  0  0  0  0
   59.4820   26.4220   46.4480 O   0  0  0  0  0  0  0  0  0  0  0  0
   59.4480   29.9030   47.7810 C   0  0  2  0  0  0  0  0  0  0  0  0
   58.5230   29.6450   48.9610 C   0  0  0  0  0  0  0  0  0  0  0  0
   58.8510   29.8310   50.2480 C   0  0  0  0  0  0  0  0  0  0  0  0
   58.3580   30.9890   51.0200 C   0  0  0  0  0  0  0  0  0  0  0  0
   59.1610   32.1320   51.1530 C   0  0  0  0  0  0  0  0  0  0  0  0
   58.6830   33.2230   51.8840 C   0  0  0  0  0  0  0  0  0  0  0  0
   57.4200   33.1670   52.4750 C   0  0  0  0  0  0  0  0  0  0  0  0
   56.6480   32.0140   52.3270 C   0  0  0  0  0  0  0  0  0  0  0  0
   57.1260   30.9660   51.6080 N   0  0  0  0  0  0  0  0  0  0  0  0
   60.3630   31.1670   47.9010 C   0  0  1  0  0  0  0  0  0  0  0  0
   61.4720   31.1110   46.8190 C   0  0  0  0  0  0  0  0  0  0  0  0
   63.3812   31.9966   48.8899 H   0  0  0  0  0  0  0  0  0  0  0  0
   63.9742   30.8681   47.6244 H   0  0  0  0  0  0  0  0  0  0  0  0
   64.5141   32.5813   47.6244 H   0  0  0  0  0  0  0  0  0  0  0  0
   62.8570   32.4704   45.9246 H   0  0  0  0  0  0  0  0  0  0  0  0
   61.9280   33.6495   48.5318 H   0  0  0  0  0  0  0  0  0  0  0  0
   62.3164   34.4361   46.9474 H   0  0  0  0  0  0  0  0  0  0  0  0
   59.9215   34.6118   47.3640 H   0  0  0  0  0  0  0  0  0  0  0  0
   60.2213   33.4643   46.0021 H   0  0  0  0  0  0  0  0  0  0  0  0
   59.4479   32.8684   48.8771 H   0  0  0  0  0  0  0  0  0  0  0  0
   57.5139   32.0407   48.2116 H   0  0  0  0  0  0  0  0  0  0  0  0
   57.0903   34.2221   47.6706 H   0  0  0  0  0  0  0  0  0  0  0  0
   58.1246   34.1869   46.2024 H   0  0  0  0  0  0  0  0  0  0  0  0
   56.5362   33.3480   46.2024 H   0  0  0  0  0  0  0  0  0  0  0  0
   57.4440   31.3906   45.3606 H   0  0  0  0  0  0  0  0  0  0  0  0
   60.1296   29.0402   47.7491 H   0  0  0  0  0  0  0  0  0  0  0  0
   57.5092   29.2784   48.7422 H   0  0  0  0  0  0  0  0  0  0  0  0
   59.5065   29.0994   50.7430 H   0  0  0  0  0  0  0  0  0  0  0  0
   60.1566   32.1689   50.6867 H   0  0  0  0  0  0  0  0  0  0  0  0
   59.3021   34.1256   51.9935 H   0  0  0  0  0  0  0  0  0  0  0  0
   57.0372   34.0223   53.0511 H   0  0  0  0  0  0  0  0  0  0  0  0
   55.6531   31.9542   52.7924 H   0  0  0  0  0  0  0  0  0  0  0  0
   60.8309   31.1504   48.8964 H   0  0  0  0  0  0  0  0  0  0  0  0
   62.0177   30.1615   46.9224 H   0  0  0  0  0  0  0  0  0  0  0  0
   60.9840   31.1930   45.8366 H   0  0  0  0  0  0  0  0  0  0  0  0
  1  2  1  0
  2  3  1  0
  3  4  1  0
  4  5  1  0
  5  6  1  0
  6  7  1  0
  6  8  1  0
  8  9  2  0
  9 10  1  0
 10 11  2  0
 10 12  1  0
 12 13  2  0
 13 14  1  0
 13 15  1  0
 15 16  1  0
 16 17  2  0
 16 18  1  0
 18 19  1  0
 19 20  2  0
  9 21  1  0
 21 22  1  0
 22 23  2  3
 23 24  1  0
 24 25  2  0
 25 26  1  0
 26 27  2  0
 27 28  1  0
 28 29  2  0
 21 30  1  0
 30 31  1  0
 31  2  1  0
 30  5  1  0
 19 12  1  0
 29 24  1  0
  1 32  1  0
  1 33  1  0
  1 34  1  0
  2 35  1  6
  3 36  1  0
  3 37  1  0
  4 38  1  0
  4 39  1  0
  5 40  1  1
  6 41  1  1
  7 42  1  0
  7 43  1  0
  7 44  1  0
  8 45  1  0
 21 46  1  6
 22 47  1  0
 23 48  1  0
 25 49  1  0
 26 50  1  0
 27 51  1  0
 28 52  1  0
 30 53  1  1
 31 54  1  0
 31 55  1  0
M  CHG  3  14  -1  15  -1  18  -1
M  END
>  <UniqueID>  (80) 
76

>  <SMILES>  (80) 
CC1C=C(C(=O)c2c([O-])[n-]c(=O)[n-]c2=O)C(C=Cc2ccccn2)C2C[C@H](C)CC[C@@H]12

>  <Energy>  (80) 
78.27117224999445

>  <Genealogy>  (80) 
CC1CCC2C(C)C=C(C(=O)c3c([O-])[n-]c(=O)[n-]c3=O)C(C=Cc3ccccn3)C2C1 (protonated)
CC1C=C(C(=O)c2c([O-])[n-]c(=O)[n-]c2=O)C(C=Cc2ccccn2)C2C[C@H](C)CC[C@@H]12 (chirality)
CC1C=C(C(=O)c2c([O-])[n-]c(=O)[n-]c2=O)C(C=Cc2ccccn2)C2C[C@H](C)CC[C@@H]12 (3D coordinates assigned)
CC1C=C(C(=O)c2c([O-])[n-]c(=O)[n-]c2=O)C(C=Cc2ccccn2)C2C[C@H](C)CC[C@@H]12 (nonaromatic ring conformer: 78.27117224999445 kcal/mol)

>  <smiles>  (80) 
CC1CCC2C(C)C=C(C(=O)c3c(O)[nH]c(=O)[nH]c3=O)C(C=Cc3ccccn3)C2C1

>  <score_type>  (80) 
oracle

>  <origin>  (80) 
adg

>  <m_score__min__energy>  (80) 
-16.420000000000002

>  <m_primary>  (80) 
energy

$$$$
81:0
     RDKit          3D

 39 42  0  0  0  0  0  0  0  0999 V2000
   54.6660   26.1600   45.9900 N   0  0  0  0  0  0  0  0  0  0  0  0
   56.1320   25.2830   46.2540 S   0  0  0  0  0  0  0  0  0  0  0  0
   56.4200   24.4150   45.0610 O   0  0  0  0  0  0  0  0  0  0  0  0
   55.9780   24.4050   47.4630 O   0  0  0  0  0  0  0  0  0  0  0  0
   57.4570   26.4150   46.5020 C   0  0  0  0  0  0  0  0  0  0  0  0
   58.5900   26.0330   47.2210 C   0  0  0  0  0  0  0  0  0  0  0  0
   59.6200   26.9030   47.3990 N   0  0  0  0  0  0  0  0  0  0  0  0
   59.5860   28.1780   46.8960 C   0  0  0  0  0  0  0  0  0  0  0  0
   60.5970   28.9940   47.0410 N   0  0  0  0  0  0  0  0  0  0  0  0
   60.8830   29.8420   48.1620 C   0  0  0  0  0  0  0  0  0  0  0  0
   60.2340   29.6600   49.3960 C   0  0  0  0  0  0  0  0  0  0  0  0
   60.4820   30.5390   50.4550 C   0  0  0  0  0  0  0  0  0  0  0  0
   61.3570   31.6160   50.2820 C   0  0  0  0  0  0  0  0  0  0  0  0
   61.9760   31.8210   49.0460 C   0  0  0  0  0  0  0  0  0  0  0  0
   61.7290   30.9440   47.9850 C   0  0  0  0  0  0  0  0  0  0  0  0
   58.4620   28.5960   46.1460 C   0  0  0  0  0  0  0  0  0  0  0  0
   58.3690   29.9600   45.5650 C   0  0  0  0  0  0  0  0  0  0  0  0
   57.7280   30.1700   44.3150 C   0  0  0  0  0  0  0  0  0  0  0  0
   57.6450   31.4590   43.7570 C   0  0  0  0  0  0  0  0  0  0  0  0
   58.2160   32.5100   44.4680 C   0  0  0  0  0  0  0  0  0  0  0  0
   58.2540   33.8060   44.1250 N   0  0  0  0  0  0  0  0  0  0  0  0
   58.9240   34.3550   45.1700 C   0  0  0  0  0  0  0  0  0  0  0  0
   59.1750   35.5870   45.2380 O   0  0  0  0  0  0  0  0  0  0  0  0
   59.3040   33.4820   46.1390 N   0  0  0  0  0  0  0  0  0  0  0  0
   58.8400   32.3180   45.6630 C   0  0  0  0  0  0  0  0  0  0  0  0
   58.9430   31.0590   46.2470 C   0  0  0  0  0  0  0  0  0  0  0  0
   57.4040   27.6970   45.9530 C   0  0  0  0  0  0  0  0  0  0  0  0
   54.7790   27.0880   46.4550 H   0  0  0  0  0  0  0  0  0  0  0  0
   58.6506   25.0207   47.6470 H   0  0  0  0  0  0  0  0  0  0  0  0
   60.4600   26.5390   47.8990 H   0  0  0  0  0  0  0  0  0  0  0  0
   59.5302   28.8250   49.5286 H   0  0  0  0  0  0  0  0  0  0  0  0
   59.9881   30.3830   51.4254 H   0  0  0  0  0  0  0  0  0  0  0  0
   61.5580   32.3015   51.1185 H   0  0  0  0  0  0  0  0  0  0  0  0
   62.6581   32.6728   48.9075 H   0  0  0  0  0  0  0  0  0  0  0  0
   62.2012   31.1205   47.0073 H   0  0  0  0  0  0  0  0  0  0  0  0
   57.2916   29.3154   43.7772 H   0  0  0  0  0  0  0  0  0  0  0  0
   57.1458   31.6300   42.7918 H   0  0  0  0  0  0  0  0  0  0  0  0
   59.4556   30.9222   47.2106 H   0  0  0  0  0  0  0  0  0  0  0  0
   56.5264   28.0039   45.3651 H   0  0  0  0  0  0  0  0  0  0  0  0
  1  2  1  0
  2  3  2  0
  2  4  2  0
  2  5  1  0
  5  6  2  0
  6  7  1  0
  7  8  1  0
  8  9  2  3
  9 10  1  0
 10 11  2  0
 11 12  1  0
 12 13  2  0
 13 14  1  0
 14 15  2  0
  8 16  1  0
 16 17  1  0
 17 18  2  0
 18 19  1  0
 19 20  2  0
 20 21  1  0
 21 22  1  0
 22 23  2  0
 22 24  1  0
 24 25  1  0
 25 26  2  0
 16 27  2  0
 27  5  1  0
 15 10  1  0
 26 17  1  0
 25 20  1  0
  1 28  1  0
  6 29  1  0
  7 30  1  0
 11 31  1  0
 12 32  1  0
 13 33  1  0
 14 34  1  0
 15 35  1  0
 18 36  1  0
 19 37  1  0
 26 38  1  0
 27 39  1  0
M  CHG  3   1  -1  21  -1  24  -1
M  END
>  <UniqueID>  (81) 
77

>  <SMILES>  (81) 
[NH-]S(=O)(=O)c1c[nH]c(=Nc2ccccc2)c(-c2ccc3[n-]c(=O)[n-]c3c2)c1

>  <Energy>  (81) 
95.03033464792613

>  <Genealogy>  (81) 
[NH-]S(=O)(=O)c1c[nH]c(=Nc2ccccc2)c(-c2ccc3[n-]c(=O)[n-]c3c2)c1 (protonated)
[NH-]S(=O)(=O)c1c[nH]c(=Nc2ccccc2)c(-c2ccc3[n-]c(=O)[n-]c3c2)c1 (3D coordinates assigned)
[NH-]S(=O)(=O)c1c[nH]c(=Nc2ccccc2)c(-c2ccc3[n-]c(=O)[n-]c3c2)c1 (optimized conformer: 95.03033464792613 kcal/mol)

>  <smiles>  (81) 
NS(=O)(=O)c1c[nH]c(=Nc2ccccc2)c(-c2ccc3[nH]c(=O)[nH]c3c2)c1

>  <score_type>  (81) 
oracle

>  <origin>  (81) 
adg

>  <m_score__min__energy>  (81) 
-12.32

>  <m_primary>  (81) 
energy

$$$$
82:0
     RDKit          3D

 49 52  0  0  0  0  0  0  0  0999 V2000
   54.7080   26.3700   45.2010 H   0  0  0  0  0  0  0  0  0  0  0  0
   53.8930   25.8750   45.6300 N   0  0  0  0  0  0  0  0  0  0  0  0
   54.1300   24.1860   45.3560 S   0  0  0  0  0  0  0  0  0  0  0  0
   53.3840   23.7830   44.1160 O   0  0  0  0  0  0  0  0  0  0  0  0
   53.5910   23.4070   46.5230 O   0  0  0  0  0  0  0  0  0  0  0  0
   55.8560   23.8510   45.1750 C   0  0  0  0  0  0  0  0  0  0  0  0
   56.2770   22.7310   44.4420 C   0  0  0  0  0  0  0  0  0  0  0  0
   55.5307   22.0633   43.9868 H   0  0  0  0  0  0  0  0  0  0  0  0
   57.6380   22.4590   44.2870 C   0  0  0  0  0  0  0  0  0  0  0  0
   57.9602   21.5735   43.7195 H   0  0  0  0  0  0  0  0  0  0  0  0
   58.5890   23.3090   44.8510 C   0  0  0  0  0  0  0  0  0  0  0  0
   59.6605   23.0989   44.7180 H   0  0  0  0  0  0  0  0  0  0  0  0
   58.1840   24.4260   45.5840 C   0  0  0  0  0  0  0  0  0  0  0  0
   58.9390   25.1004   46.0144 H   0  0  0  0  0  0  0  0  0  0  0  0
   56.8140   24.6950   45.7760 C   0  0  0  0  0  0  0  0  0  0  0  0
   56.3780   25.8610   46.4960 N   0  0  0  0  0  0  0  0  0  0  0  0
   56.8110   27.0780   46.3510 C   0  0  0  0  0  0  0  0  0  0  0  0
   56.1870   27.9580   45.5230 N   0  0  0  0  0  0  0  0  0  0  0  0
   56.6690   29.2170   45.3660 C   0  0  0  0  0  0  0  0  0  0  0  0
   56.0530   30.0410   44.5750 N   0  0  0  0  0  0  0  0  0  0  0  0
   56.6500   31.2770   44.0770 C   0  0  0  0  0  0  0  0  0  0  0  0
   56.0911   31.9795   44.7127 H   0  0  0  0  0  0  0  0  0  0  0  0
   57.0150   31.2020   42.6070 C   0  0  0  0  0  0  0  0  0  0  0  0
   56.7575   30.3073   42.0212 H   0  0  0  0  0  0  0  0  0  0  0  0
   56.8276   31.8328   41.7256 H   0  0  0  0  0  0  0  0  0  0  0  0
   58.1040   31.1300   43.6670 C   0  0  0  0  0  0  0  0  0  0  0  0
   58.6339   30.1832   43.8482 H   0  0  0  0  0  0  0  0  0  0  0  0
   59.0305   31.6869   43.8705 H   0  0  0  0  0  0  0  0  0  0  0  0
   57.7910   29.5950   46.0360 N   0  0  0  0  0  0  0  0  0  0  0  0
   58.4280   28.7210   46.8550 C   0  0  0  0  0  0  0  0  0  0  0  0
   59.5020   29.0990   47.4810 N   0  0  0  0  0  0  0  0  0  0  0  0
   60.2200   30.3480   47.2280 C   0  0  0  0  0  0  0  0  0  0  0  0
   61.2705   30.2287   47.5318 H   0  0  0  0  0  0  0  0  0  0  0  0
   60.1576   30.5810   46.1548 H   0  0  0  0  0  0  0  0  0  0  0  0
   59.5950   31.5010   48.0200 C   0  0  0  0  0  0  0  0  0  0  0  0
   58.7236   31.1265   48.5772 H   0  0  0  0  0  0  0  0  0  0  0  0
   60.3468   31.9027   48.7153 H   0  0  0  0  0  0  0  0  0  0  0  0
   59.1540   32.6010   47.0930 C   0  0  0  0  0  0  0  0  0  0  0  0
   60.1060   33.3580   46.3900 C   0  0  0  0  0  0  0  0  0  0  0  0
   61.1785   33.1627   46.5369 H   0  0  0  0  0  0  0  0  0  0  0  0
   59.6950   34.3590   45.5040 C   0  0  0  0  0  0  0  0  0  0  0  0
   60.4444   34.9541   44.9616 H   0  0  0  0  0  0  0  0  0  0  0  0
   58.3340   34.6040   45.3070 C   0  0  0  0  0  0  0  0  0  0  0  0
   58.0127   35.3940   44.6123 H   0  0  0  0  0  0  0  0  0  0  0  0
   57.3800   33.8460   45.9920 C   0  0  0  0  0  0  0  0  0  0  0  0
   56.3085   34.0373   45.8329 H   0  0  0  0  0  0  0  0  0  0  0  0
   57.7870   32.8440   46.8800 C   0  0  0  0  0  0  0  0  0  0  0  0
   57.0341   32.2448   47.4129 H   0  0  0  0  0  0  0  0  0  0  0  0
   57.9360   27.4620   47.0040 N   0  0  0  0  0  0  0  0  0  0  0  0
  1  2  1  0
  2  3  1  0
  3  4  2  0
  3  5  2  0
  3  6  1  0
  6  7  2  0
  7  8  1  0
  7  9  1  0
  9 10  1  0
  9 11  2  0
 11 12  1  0
 11 13  1  0
 13 14  1  0
 13 15  2  0
 15 16  1  0
 16 17  2  0
 17 18  1  0
 18 19  1  0
 19 20  2  3
 20 21  1  0
 21 22  1  0
 21 23  1  0
 23 24  1  0
 23 25  1  0
 23 26  1  0
 26 27  1  0
 26 28  1  0
 19 29  1  0
 29 30  1  0
 30 31  2  0
 31 32  1  0
 32 33  1  0
 32 34  1  0
 32 35  1  0
 35 36  1  0
 35 37  1  0
 35 38  1  0
 38 39  2  0
 39 40  1  0
 39 41  1  0
 41 42  1  0
 41 43  2  0
 43 44  1  0
 43 45  1  0
 45 46  1  0
 45 47  2  0
 47 48  1  0
 30 49  1  0
 15  6  1  0
 49 17  1  0
 26 21  1  0
 47 38  1  0
M  CHG  4   2  -1  18  -1  29  -1  49  -1
M  END
>  <UniqueID>  (82) 
78

>  <SMILES>  (82) 
[NH-]S(=O)(=O)c1ccccc1/N=c1\[n-]c(=NC2CC2)[n-]/c(=N/CCc2ccccc2)[n-]1

>  <Energy>  (82) 
320.663010796125

>  <Genealogy>  (82) 
[NH-]S(=O)(=O)c1ccccc1N=c1[n-]c(=NCCc2ccccc2)[n-]c(=NC2CC2)[n-]1 (protonated)
[NH-]S(=O)(=O)c1ccccc1/N=c1\[n-]c(=NC2CC2)[n-]/c(=N/CCc2ccccc2)[n-]1 (cis-trans isomerization)
[NH-]S(=O)(=O)c1ccccc1/N=c1\[n-]c(=NC2CC2)[n-]/c(=N/CCc2ccccc2)[n-]1 (3D coordinates assigned)
[NH-]S(=O)(=O)c1ccccc1/N=c1\[n-]c(=NC2CC2)[n-]/c(=N/CCc2ccccc2)[n-]1 (nonaromatic ring conformer: 320.663010796125 kcal/mol)

>  <smiles>  (82) 
NS(=O)(=O)c1ccccc1N=c1[nH]c(=NCCc2ccccc2)[nH]c(=NC2CC2)[nH]1

>  <score_type>  (82) 
oracle

>  <origin>  (82) 
adg

>  <m_score__min__energy>  (82) 
-16.25

>  <m_primary>  (82) 
energy

$$$$
83:0
     RDKit          3D

 79 83  0  0  0  0  0  0  0  0999 V2000
   64.3180   32.3940   53.2430 H   0  0  0  0  0  0  0  0  0  0  0  0
   65.1950   32.6280   52.8370 O   0  0  0  0  0  0  0  0  0  0  0  0
   65.0460   32.7010   51.4360 C   0  0  0  0  0  0  0  0  0  0  0  0
   63.5680   32.7730   51.0940 C   0  0  0  0  0  0  0  0  0  0  0  0
   62.7270   32.2110   51.8460 O   0  0  0  0  0  0  0  0  0  0  0  0
   63.1080   33.4100   49.8870 N   0  0  0  0  0  0  0  0  0  0  0  0
   63.6940   33.0340   48.5880 C   0  0  0  0  0  0  0  0  0  0  0  0
   64.1617   32.0424   48.6775 H   0  0  0  0  0  0  0  0  0  0  0  0
   64.4438   33.7890   48.3092 H   0  0  0  0  0  0  0  0  0  0  0  0
   62.6170   32.9850   47.4940 C   0  0  0  0  0  0  0  0  0  0  0  0
   62.9371   32.3020   46.6934 H   0  0  0  0  0  0  0  0  0  0  0  0
   62.4694   33.9919   47.0764 H   0  0  0  0  0  0  0  0  0  0  0  0
   61.3560   32.5030   48.0760 N   0  0  0  0  0  0  0  0  0  0  0  0
   60.8460   31.1810   47.7900 C   0  0  0  0  0  0  0  0  0  0  0  0
   59.7680   30.6440   48.5200 C   0  0  0  0  0  0  0  0  0  0  0  0
   59.3850   31.1800   49.4009 H   0  0  0  0  0  0  0  0  0  0  0  0
   59.1800   29.4340   48.1340 C   0  0  0  0  0  0  0  0  0  0  0  0
   58.3476   29.0162   48.7193 H   0  0  0  0  0  0  0  0  0  0  0  0
   59.6500   28.7550   47.0040 C   0  0  0  0  0  0  0  0  0  0  0  0
   58.9290   27.5730   46.5100 C   0  0  0  0  0  0  0  0  0  0  0  0
   59.4126   26.5914   46.6224 H   0  0  0  0  0  0  0  0  0  0  0  0
   57.7090   27.6140   45.9260 C   0  0  0  0  0  0  0  0  0  0  0  0
   57.0950   28.8880   45.4280 C   0  0  0  0  0  0  0  0  0  0  0  0
   55.8490   28.9580   45.2440 O   0  0  0  0  0  0  0  0  0  0  0  0
   57.8990   30.0380   45.1150 N   0  0  0  0  0  0  0  0  0  0  0  0
   58.8960   30.0860   45.4190 H   0  0  0  0  0  0  0  0  0  0  0  0
   57.3510   31.2000   44.4170 C   0  0  0  0  0  0  0  0  0  0  0  0
   57.6538   31.1636   43.3601 H   0  0  0  0  0  0  0  0  0  0  0  0
   56.2542   31.1793   44.4977 H   0  0  0  0  0  0  0  0  0  0  0  0
   57.8620   32.4760   45.0360 C   0  0  0  0  0  0  0  0  0  0  0  0
   58.5150   33.4400   44.2460 C   0  0  0  0  0  0  0  0  0  0  0  0
   58.5866   33.2990   43.1574 H   0  0  0  0  0  0  0  0  0  0  0  0
   59.0730   34.5760   44.8390 C   0  0  0  0  0  0  0  0  0  0  0  0
   59.5869   35.3245   44.2180 H   0  0  0  0  0  0  0  0  0  0  0  0
   58.9780   34.7610   46.2220 C   0  0  0  0  0  0  0  0  0  0  0  0
   59.4193   35.6539   46.6888 H   0  0  0  0  0  0  0  0  0  0  0  0
   58.3220   33.8110   47.0120 C   0  0  0  0  0  0  0  0  0  0  0  0
   58.2411   33.9620   48.0986 H   0  0  0  0  0  0  0  0  0  0  0  0
   57.7690   32.6700   46.4230 C   0  0  0  0  0  0  0  0  0  0  0  0
   57.2595   31.9221   47.0484 H   0  0  0  0  0  0  0  0  0  0  0  0
   56.7790   26.1040   45.8400 S   0  0  0  0  0  0  0  0  0  0  0  0
   57.1740   25.1970   46.9720 O   0  0  0  0  0  0  0  0  0  0  0  0
   55.3060   26.3880   45.9570 O   0  0  0  0  0  0  0  0  0  0  0  0
   57.0720   25.3050   44.2660 C   0  0  0  0  0  0  0  0  0  0  0  0
   56.1900   25.4368   43.6221 H   0  0  0  0  0  0  0  0  0  0  0  0
   57.9548   25.7592   43.7923 H   0  0  0  0  0  0  0  0  0  0  0  0
   57.3250   23.8360   44.4670 C   0  0  0  0  0  0  0  0  0  0  0  0
   58.5260   23.4020   45.0530 C   0  0  0  0  0  0  0  0  0  0  0  0
   59.2906   24.1376   45.3433 H   0  0  0  0  0  0  0  0  0  0  0  0
   58.7540   22.0390   45.2690 C   0  0  0  0  0  0  0  0  0  0  0  0
   59.6947   21.7059   45.7317 H   0  0  0  0  0  0  0  0  0  0  0  0
   57.7890   21.1010   44.8980 C   0  0  0  0  0  0  0  0  0  0  0  0
   57.9743   20.0290   45.0605 H   0  0  0  0  0  0  0  0  0  0  0  0
   56.5870   21.5220   44.3200 C   0  0  0  0  0  0  0  0  0  0  0  0
   55.8266   20.7812   44.0319 H   0  0  0  0  0  0  0  0  0  0  0  0
   56.3510   22.8840   44.1080 C   0  0  0  0  0  0  0  0  0  0  0  0
   55.1720   23.2730   43.5530 F   0  0  0  0  0  0  0  0  0  0  0  0
   60.7480   29.2580   46.2950 C   0  0  0  0  0  0  0  0  0  0  0  0
   61.1423   28.7069   45.4285 H   0  0  0  0  0  0  0  0  0  0  0  0
   61.3430   30.4600   46.6880 C   0  0  0  0  0  0  0  0  0  0  0  0
   62.2087   30.8466   46.1303 H   0  0  0  0  0  0  0  0  0  0  0  0
   60.7630   33.2760   49.1830 C   0  0  0  0  0  0  0  0  0  0  0  0
   60.3156   32.5803   49.9082 H   0  0  0  0  0  0  0  0  0  0  0  0
   59.9964   33.9480   48.7697 H   0  0  0  0  0  0  0  0  0  0  0  0
   61.8280   34.1270   49.8940 C   0  0  0  0  0  0  0  0  0  0  0  0
   61.5166   34.3122   50.9326 H   0  0  0  0  0  0  0  0  0  0  0  0
   61.9415   35.0874   49.3698 H   0  0  0  0  0  0  0  0  0  0  0  0
   65.7210   31.4860   50.7810 C   0  0  0  0  0  0  0  0  0  0  0  0
   65.6776   30.6154   51.4520 H   0  0  0  0  0  0  0  0  0  0  0  0
   65.2188   31.1985   49.8455 H   0  0  0  0  0  0  0  0  0  0  0  0
   67.1690   31.8980   50.5380 C   0  0  0  0  0  0  0  0  0  0  0  0
   67.8105   31.5205   51.3479 H   0  0  0  0  0  0  0  0  0  0  0  0
   67.5425   31.4818   49.5908 H   0  0  0  0  0  0  0  0  0  0  0  0
   67.1990   33.4260   50.5130 C   0  0  0  0  0  0  0  0  0  0  0  0
   67.9286   33.8000   51.2464 H   0  0  0  0  0  0  0  0  0  0  0  0
   67.4949   33.7930   49.5191 H   0  0  0  0  0  0  0  0  0  0  0  0
   65.7980   33.9150   50.8740 C   0  0  0  0  0  0  0  0  0  0  0  0
   65.8563   34.7104   51.6316 H   0  0  0  0  0  0  0  0  0  0  0  0
   65.2827   34.3314   49.9959 H   0  0  0  0  0  0  0  0  0  0  0  0
  1  2  1  0
  2  3  1  0
  3  4  1  0
  4  5  2  0
  4  6  1  0
  6  7  1  0
  7  8  1  0
  7  9  1  0
  7 10  1  0
 10 11  1  0
 10 12  1  0
 10 13  1  0
 13 14  1  0
 14 15  2  0
 15 16  1  0
 15 17  1  0
 17 18  1  0
 17 19  2  0
 19 20  1  0
 20 21  1  0
 20 22  2  0
 22 23  1  0
 23 24  2  0
 23 25  1  0
 25 26  1  0
 25 27  1  0
 27 28  1  0
 27 29  1  0
 27 30  1  0
 30 31  2  0
 31 32  1  0
 31 33  1  0
 33 34  1  0
 33 35  2  0
 35 36  1  0
 35 37  1  0
 37 38  1  0
 37 39  2  0
 39 40  1  0
 22 41  1  0
 41 42  2  0
 41 43  2  0
 41 44  1  0
 44 45  1  0
 44 46  1  0
 44 47  1  0
 47 48  2  0
 48 49  1  0
 48 50  1  0
 50 51  1  0
 50 52  2  0
 52 53  1  0
 52 54  1  0
 54 55  1  0
 54 56  2  0
 56 57  1  0
 19 58  1  0
 58 59  1  0
 58 60  2  0
 60 61  1  0
 13 62  1  0
 62 63  1  0
 62 64  1  0
 62 65  1  0
 65 66  1  0
 65 67  1  0
  3 68  1  0
 68 69  1  0
 68 70  1  0
 68 71  1  0
 71 72  1  0
 71 73  1  0
 71 74  1  0
 74 75  1  0
 74 76  1  0
 74 77  1  0
 77 78  1  0
 77 79  1  0
 77  3  1  0
 65  6  1  0
 60 14  1  0
 39 30  1  0
 56 47  1  0
M  END
>  <UniqueID>  (83) 
79

>  <SMILES>  (83) 
O=C(NCc1ccccc1)/C(=C\c1ccc(N2CCN(C(=O)C3(O)CCCC3)CC2)cc1)S(=O)(=O)Cc1ccccc1F

>  <Energy>  (83) 
102.86281946119101

>  <Genealogy>  (83) 
O=C(NCc1ccccc1)/C(=C\c1ccc(N2CCN(C(=O)C3(O)CCCC3)CC2)cc1)S(=O)(=O)Cc1ccccc1F (cis-trans isomerization)
O=C(NCc1ccccc1)/C(=C\c1ccc(N2CCN(C(=O)C3(O)CCCC3)CC2)cc1)S(=O)(=O)Cc1ccccc1F (3D coordinates assigned)
O=C(NCc1ccccc1)/C(=C\c1ccc(N2CCN(C(=O)C3(O)CCCC3)CC2)cc1)S(=O)(=O)Cc1ccccc1F (nonaromatic ring conformer: 102.86281946119101 kcal/mol)

>  <smiles>  (83) 
O=C(NCc1ccccc1)C(=Cc1ccc(N2CCN(C(=O)C3(O)CCCC3)CC2)cc1)S(=O)(=O)Cc1ccccc1F

>  <score_type>  (83) 
oracle

>  <origin>  (83) 
adg

>  <m_score__min__energy>  (83) 
-11.43

>  <m_primary>  (83) 
energy

$$$$
84:0
     RDKit          3D

 50 52  0  0  0  0  0  0  0  0999 V2000
   66.8250   32.7050   50.1180 C   0  0  0  0  0  0  0  0  0  0  0  0
   65.4650   32.0240   50.1410 C   0  0  0  0  0  0  0  0  0  0  0  0
   64.4570   32.9640   49.7860 O   0  0  0  0  0  0  0  0  0  0  0  0
   63.8160   32.9520   48.5410 C   0  0  0  0  0  0  0  0  0  0  0  0
   64.4070   33.4090   47.5240 O   0  0  0  0  0  0  0  0  0  0  0  0
   62.4840   32.4210   48.4300 N   0  0  0  0  0  0  0  0  0  0  0  0
   61.7700   32.0340   49.6550 C   0  0  0  0  0  0  0  0  0  0  0  0
   60.3040   31.6840   49.3750 C   0  0  0  0  0  0  0  0  0  0  0  0
   60.2070   30.7830   48.2190 N   0  0  0  0  0  0  0  0  0  0  0  0
   59.2210   29.7300   48.2060 C   0  0  0  0  0  0  0  0  0  0  0  0
   58.2730   29.7430   49.0370 O   0  0  0  0  0  0  0  0  0  0  0  0
   59.3410   28.5820   47.2820 C   0  0  0  0  0  0  0  0  0  0  0  0
   60.2070   27.5390   47.6490 C   0  0  0  0  0  0  0  0  0  0  0  0
   60.3520   26.4160   46.8340 C   0  0  0  0  0  0  0  0  0  0  0  0
   59.6300   26.3170   45.6470 C   0  0  0  0  0  0  0  0  0  0  0  0
   58.7700   27.3460   45.2620 C   0  0  0  0  0  0  0  0  0  0  0  0
   58.6250   28.5000   46.0580 C   0  0  0  0  0  0  0  0  0  0  0  0
   57.7430   29.5940   45.5710 C   0  0  0  0  0  0  0  0  0  0  0  0
   56.4920   29.4560   45.6190 O   0  0  0  0  0  0  0  0  0  0  0  0
   58.2680   30.7770   44.9490 N   0  0  0  0  0  0  0  0  0  0  0  0
   58.3650   32.0900   45.5210 C   0  0  0  0  0  0  0  0  0  0  0  0
   58.0060   32.2700   46.8620 C   0  0  0  0  0  0  0  0  0  0  0  0
   58.1050   33.5310   47.4600 C   0  0  0  0  0  0  0  0  0  0  0  0
   58.5780   34.6190   46.7220 C   0  0  0  0  0  0  0  0  0  0  0  0
   58.9610   34.4450   45.3880 C   0  0  0  0  0  0  0  0  0  0  0  0
   59.4360   35.4970   44.6780 F   0  0  0  0  0  0  0  0  0  0  0  0
   58.8640   33.1840   44.7900 C   0  0  0  0  0  0  0  0  0  0  0  0
   61.0070   31.0490   47.0140 C   0  0  0  0  0  0  0  0  0  0  0  0
   61.8030   32.3530   47.1300 C   0  0  0  0  0  0  0  0  0  0  0  0
   67.1668   32.8762   51.1494 H   0  0  0  0  0  0  0  0  0  0  0  0
   67.5479   32.0626   49.5940 H   0  0  0  0  0  0  0  0  0  0  0  0
   66.7437   33.6687   49.5940 H   0  0  0  0  0  0  0  0  0  0  0  0
   65.4596   31.1917   49.4219 H   0  0  0  0  0  0  0  0  0  0  0  0
   65.2659   31.6373   51.1514 H   0  0  0  0  0  0  0  0  0  0  0  0
   62.2674   31.1569   50.0947 H   0  0  0  0  0  0  0  0  0  0  0  0
   61.7905   32.8892   50.3465 H   0  0  0  0  0  0  0  0  0  0  0  0
   59.8741   31.1888   50.2581 H   0  0  0  0  0  0  0  0  0  0  0  0
   59.7509   32.6091   49.1552 H   0  0  0  0  0  0  0  0  0  0  0  0
   60.7762   27.6082   48.5877 H   0  0  0  0  0  0  0  0  0  0  0  0
   61.0373   25.6078   47.1292 H   0  0  0  0  0  0  0  0  0  0  0  0
   59.7381   25.4255   45.0117 H   0  0  0  0  0  0  0  0  0  0  0  0
   58.1986   27.2555   44.3264 H   0  0  0  0  0  0  0  0  0  0  0  0
   57.6434   31.4139   47.4498 H   0  0  0  0  0  0  0  0  0  0  0  0
   57.8104   33.6658   48.5112 H   0  0  0  0  0  0  0  0  0  0  0  0
   58.6492   35.6120   47.1899 H   0  0  0  0  0  0  0  0  0  0  0  0
   59.1788   33.0472   43.7449 H   0  0  0  0  0  0  0  0  0  0  0  0
   61.7096   30.2162   46.8632 H   0  0  0  0  0  0  0  0  0  0  0  0
   60.3171   31.1466   46.1628 H   0  0  0  0  0  0  0  0  0  0  0  0
   62.5520   32.3937   46.3255 H   0  0  0  0  0  0  0  0  0  0  0  0
   61.1108   33.2035   47.0439 H   0  0  0  0  0  0  0  0  0  0  0  0
  1  2  1  0
  2  3  1  0
  3  4  1  0
  4  5  2  0
  4  6  1  0
  6  7  1  0
  7  8  1  0
  8  9  1  0
  9 10  1  0
 10 11  2  0
 10 12  1  0
 12 13  2  0
 13 14  1  0
 14 15  2  0
 15 16  1  0
 16 17  2  0
 17 18  1  0
 18 19  2  0
 18 20  1  0
 20 21  1  0
 21 22  2  0
 22 23  1  0
 23 24  2  0
 24 25  1  0
 25 26  1  0
 25 27  2  0
  9 28  1  0
 28 29  1  0
 29  6  1  0
 17 12  1  0
 27 21  1  0
  1 30  1  0
  1 31  1  0
  1 32  1  0
  2 33  1  0
  2 34  1  0
  7 35  1  0
  7 36  1  0
  8 37  1  0
  8 38  1  0
 13 39  1  0
 14 40  1  0
 15 41  1  0
 16 42  1  0
 22 43  1  0
 23 44  1  0
 24 45  1  0
 27 46  1  0
 28 47  1  0
 28 48  1  0
 29 49  1  0
 29 50  1  0
M  CHG  1  20  -1
M  END
>  <UniqueID>  (84) 
80

>  <SMILES>  (84) 
CCOC(=O)N1CCN(C(=O)c2ccccc2C(=O)[N-]c2cccc(F)c2)CC1

>  <Energy>  (84) 
61.70802570519231

>  <Genealogy>  (84) 
CCOC(=O)N1CCN(C(=O)c2ccccc2C(=O)[N-]c2cccc(F)c2)CC1 (protonated)
CCOC(=O)N1CCN(C(=O)c2ccccc2C(=O)[N-]c2cccc(F)c2)CC1 (3D coordinates assigned)
CCOC(=O)N1CCN(C(=O)c2ccccc2C(=O)[N-]c2cccc(F)c2)CC1 (nonaromatic ring conformer: 61.70802570519231 kcal/mol)

>  <smiles>  (84) 
CCOC(=O)N1CCN(C(=O)c2ccccc2C(=O)Nc2cccc(F)c2)CC1

>  <score_type>  (84) 
oracle

>  <origin>  (84) 
adg

>  <m_score__min__energy>  (84) 
-8.4800000000000004

>  <m_primary>  (84) 
energy

$$$$
85:0
     RDKit          3D

 51 54  0  0  0  0  0  0  0  0999 V2000
   60.2860   34.5670   48.1150 C   0  0  0  0  0  0  0  0  0  0  0  0
   59.1680   34.7660   47.4120 C   0  0  0  0  0  0  0  0  0  0  0  0
   58.4800   33.7240   46.6140 C   0  0  0  0  0  0  0  0  0  0  0  0
   57.4180   33.2300   47.0800 O   0  0  0  0  0  0  0  0  0  0  0  0
   58.9970   33.2480   45.3530 N   0  0  0  0  0  0  0  0  0  0  0  0
   58.2340   32.4650   44.4170 C   0  0  0  0  0  0  0  0  0  0  0  0
   58.2430   32.7520   43.0410 C   0  0  0  0  0  0  0  0  0  0  0  0
   57.5150   31.9580   42.1510 C   0  0  0  0  0  0  0  0  0  0  0  0
   56.7820   30.8660   42.6190 C   0  0  0  0  0  0  0  0  0  0  0  0
   56.7640   30.5580   43.9900 C   0  0  0  0  0  0  0  0  0  0  0  0
   56.0000   29.3910   44.4950 C   0  0  0  0  0  0  0  0  0  0  0  0
   54.7710   29.2970   44.2340 O   0  0  0  0  0  0  0  0  0  0  0  0
   56.6060   28.3850   45.3180 N   0  0  0  0  0  0  0  0  0  0  0  0
   57.9410   28.4140   45.8460 C   0  0  0  0  0  0  0  0  0  0  0  0
   59.0410   27.9640   45.0940 C   0  0  0  0  0  0  0  0  0  0  0  0
   60.3180   27.9510   45.6600 C   0  0  0  0  0  0  0  0  0  0  0  0
   60.5080   28.3820   46.9740 C   0  0  0  0  0  0  0  0  0  0  0  0
   59.4260   28.8460   47.7300 C   0  0  0  0  0  0  0  0  0  0  0  0
   59.6450   29.2150   49.1030 N   0  0  0  0  0  0  0  0  0  0  0  0
   59.0610   30.1870   49.7390 C   0  0  0  0  0  0  0  0  0  0  0  0
   58.0120   29.9090   50.5580 N   0  0  0  0  0  0  0  0  0  0  0  0
   57.3820   30.8820   51.2740 C   0  0  0  0  0  0  0  0  0  0  0  0
   56.2260   30.5170   52.1350 C   0  0  0  0  0  0  0  0  0  0  0  0
   54.9140   30.8000   51.7150 C   0  0  0  0  0  0  0  0  0  0  0  0
   53.8270   30.4670   52.5250 C   0  0  0  0  0  0  0  0  0  0  0  0
   54.0530   29.8410   53.7490 C   0  0  0  0  0  0  0  0  0  0  0  0
   55.3210   29.5540   54.1410 N   0  0  0  0  0  0  0  0  0  0  0  0
   56.3990   29.8690   53.3740 C   0  0  0  0  0  0  0  0  0  0  0  0
   57.8300   32.2080   51.1530 C   0  0  0  0  0  0  0  0  0  0  0  0
   58.9140   32.4780   50.3190 C   0  0  0  0  0  0  0  0  0  0  0  0
   59.5090   31.4700   49.6340 N   0  0  0  0  0  0  0  0  0  0  0  0
   58.1360   28.8330   47.1690 C   0  0  0  0  0  0  0  0  0  0  0  0
   57.5120   31.3520   44.8770 C   0  0  0  0  0  0  0  0  0  0  0  0
   60.7341   35.3963   48.6820 H   0  0  0  0  0  0  0  0  0  0  0  0
   60.7587   33.5738   48.1270 H   0  0  0  0  0  0  0  0  0  0  0  0
   58.7271   35.7737   47.4264 H   0  0  0  0  0  0  0  0  0  0  0  0
   60.0170   33.3550   45.1560 H   0  0  0  0  0  0  0  0  0  0  0  0
   58.8256   33.6052   42.6633 H   0  0  0  0  0  0  0  0  0  0  0  0
   57.5195   32.1945   41.0767 H   0  0  0  0  0  0  0  0  0  0  0  0
   56.2155   30.2433   41.9109 H   0  0  0  0  0  0  0  0  0  0  0  0
   58.8955   27.6218   44.0587 H   0  0  0  0  0  0  0  0  0  0  0  0
   61.1764   27.6001   45.0685 H   0  0  0  0  0  0  0  0  0  0  0  0
   61.5142   28.3567   47.4177 H   0  0  0  0  0  0  0  0  0  0  0  0
   54.7435   31.2863   50.7432 H   0  0  0  0  0  0  0  0  0  0  0  0
   52.8015   30.6967   52.1999 H   0  0  0  0  0  0  0  0  0  0  0  0
   53.2042   29.5792   54.3979 H   0  0  0  0  0  0  0  0  0  0  0  0
   57.4112   29.6165   53.7228 H   0  0  0  0  0  0  0  0  0  0  0  0
   57.3342   33.0190   51.7066 H   0  0  0  0  0  0  0  0  0  0  0  0
   59.2865   33.5079   50.2166 H   0  0  0  0  0  0  0  0  0  0  0  0
   57.2745   29.1539   47.7729 H   0  0  0  0  0  0  0  0  0  0  0  0
   57.5319   31.0976   45.9470 H   0  0  0  0  0  0  0  0  0  0  0  0
  1  2  2  0
  2  3  1  0
  3  4  2  0
  3  5  1  0
  5  6  1  0
  6  7  2  0
  7  8  1  0
  8  9  2  0
  9 10  1  0
 10 11  1  0
 11 12  2  0
 11 13  1  0
 13 14  1  0
 14 15  2  0
 15 16  1  0
 16 17  2  0
 17 18  1  0
 18 19  1  0
 19 20  2  3
 20 21  1  0
 21 22  2  0
 22 23  1  0
 23 24  2  0
 24 25  1  0
 25 26  2  0
 26 27  1  0
 27 28  2  0
 22 29  1  0
 29 30  2  0
 30 31  1  0
 18 32  2  0
 10 33  2  0
 33  6  1  0
 32 14  1  0
 31 20  1  0
 28 23  1  0
  1 34  1  0
  1 35  1  0
  2 36  1  0
  5 37  1  0
  7 38  1  0
  8 39  1  0
  9 40  1  0
 15 41  1  0
 16 42  1  0
 17 43  1  0
 24 44  1  0
 25 45  1  0
 26 46  1  0
 28 47  1  0
 29 48  1  0
 30 49  1  0
 32 50  1  0
 33 51  1  0
M  CHG  2  13  -1  31  -1
M  END
>  <UniqueID>  (85) 
81

>  <SMILES>  (85) 
C=CC(=O)Nc1cccc(C(=O)[N-]c2cccc(N=c3nc(-c4cccnc4)cc[n-]3)c2)c1

>  <Energy>  (85) 
78.1551869528505

>  <Genealogy>  (85) 
C=CC(=O)Nc1cccc(C(=O)[N-]c2cccc(N=c3nc(-c4cccnc4)cc[n-]3)c2)c1 (protonated)
C=CC(=O)Nc1cccc(C(=O)[N-]c2cccc(N=c3nc(-c4cccnc4)cc[n-]3)c2)c1 (3D coordinates assigned)
C=CC(=O)Nc1cccc(C(=O)[N-]c2cccc(N=c3nc(-c4cccnc4)cc[n-]3)c2)c1 (optimized conformer: 78.1551869528505 kcal/mol)

>  <smiles>  (85) 
C=CC(=O)Nc1cccc(C(=O)Nc2cccc(N=c3nc(-c4cccnc4)cc[nH]3)c2)c1

>  <score_type>  (85) 
oracle

>  <origin>  (85) 
adg

>  <m_score__min__energy>  (85) 
-12.470000000000001

>  <m_primary>  (85) 
energy

$$$$
86:0
     RDKit          3D

 63 66  0  0  1  0  0  0  0  0999 V2000
   68.6080   26.9160   51.9160 C   0  0  0  0  0  0  0  0  0  0  0  0
   67.6400   28.1280   51.0260 S   0  0  0  0  0  0  0  0  0  0  0  0
   66.2500   27.5860   50.8770 O   0  0  0  0  0  0  0  0  0  0  0  0
   68.2030   28.3210   49.6410 O   0  0  0  0  0  0  0  0  0  0  0  0
   67.6340   29.6360   51.8720 N   0  0  0  0  0  0  0  0  0  0  0  0
   67.1020   30.8250   51.3080 C   0  0  0  0  0  0  0  0  0  0  0  0
   67.9070   31.9360   51.2530 C   0  0  0  0  0  0  0  0  0  0  0  0
   67.3730   33.0790   50.7020 C   0  0  0  0  0  0  0  0  0  0  0  0
   66.0730   33.0960   50.2270 C   0  0  0  0  0  0  0  0  0  0  0  0
   65.2470   31.9830   50.2770 C   0  0  0  0  0  0  0  0  0  0  0  0
   63.8790   32.0100   49.7750 C   0  0  0  0  0  0  0  0  0  0  0  0
   63.3730   33.0740   49.0460 C   0  0  0  0  0  0  0  0  0  0  0  0
   62.0730   33.0830   48.5780 C   0  0  0  0  0  0  0  0  0  0  0  0
   61.6430   34.0910   47.9060 N   0  0  0  0  0  0  0  0  0  0  0  0
   61.3080   34.0580   46.5210 C   0  0  0  0  0  0  0  0  0  0  0  0
   59.8250   33.9470   46.2830 C   0  0  0  0  0  0  0  0  0  0  0  0
   58.9550   33.5480   47.2770 C   0  0  0  0  0  0  0  0  0  0  0  0
   57.5920   33.4370   47.0960 C   0  0  0  0  0  0  0  0  0  0  0  0
   57.0510   33.7370   45.8560 C   0  0  0  0  0  0  0  0  0  0  0  0
   57.9180   34.1340   44.8660 C   0  0  0  0  0  0  0  0  0  0  0  0
   59.2790   34.2440   45.0510 C   0  0  0  0  0  0  0  0  0  0  0  0
   61.2560   32.0450   48.8210 N   0  0  0  0  0  0  0  0  0  0  0  0
   61.7410   31.0180   49.5220 C   0  0  0  0  0  0  0  0  0  0  0  0
   60.9460   30.0260   49.7490 N   0  0  0  0  0  0  0  0  0  0  0  0
   60.9290   28.8150   48.9660 C   0  0  0  0  0  0  0  0  0  0  0  0
   59.9040   28.9900   47.8920 C   0  0  0  0  0  0  0  0  0  0  0  0
   59.9720   30.0990   47.0560 C   0  0  0  0  0  0  0  0  0  0  0  0
   59.0150   30.2440   46.0670 C   0  0  0  0  0  0  0  0  0  0  0  0
   58.0000   29.3260   45.8850 C   0  0  0  0  0  0  0  0  0  0  0  0
   56.8470   29.5990   44.6150 S   0  0  0  0  0  0  0  0  0  0  0  0
   57.3560   28.9070   43.1170 N   0  0  0  0  0  0  0  0  0  0  0  0
   55.5240   28.9900   44.9880 O   0  0  0  0  0  0  0  0  0  0  0  0
   56.6660   31.0840   44.4630 O   0  0  0  0  0  0  0  0  0  0  0  0
   57.9580   28.2330   46.7330 C   0  0  0  0  0  0  0  0  0  0  0  0
   58.8980   28.0590   47.7280 C   0  0  0  0  0  0  0  0  0  0  0  0
   63.0050   30.9910   49.9880 N   0  0  0  0  0  0  0  0  0  0  0  0
   65.7970   30.8460   50.8300 C   0  0  0  0  0  0  0  0  0  0  0  0
   68.4844   27.0708   52.9980 H   0  0  0  0  0  0  0  0  0  0  0  0
   68.2657   25.9053   51.6487 H   0  0  0  0  0  0  0  0  0  0  0  0
   69.6693   27.0264   51.6487 H   0  0  0  0  0  0  0  0  0  0  0  0
   68.0310   29.7020   52.8330 H   0  0  0  0  0  0  0  0  0  0  0  0
   68.9385   31.9136   51.6344 H   0  0  0  0  0  0  0  0  0  0  0  0
   67.9868   33.9896   50.6385 H   0  0  0  0  0  0  0  0  0  0  0  0
   65.6801   34.0275   49.7935 H   0  0  0  0  0  0  0  0  0  0  0  0
   64.0239   33.9350   48.8340 H   0  0  0  0  0  0  0  0  0  0  0  0
   61.6717   34.9827   46.0491 H   0  0  0  0  0  0  0  0  0  0  0  0
   61.7815   33.1653   46.0864 H   0  0  0  0  0  0  0  0  0  0  0  0
   59.3704   33.3056   48.2663 H   0  0  0  0  0  0  0  0  0  0  0  0
   56.9437   33.1149   47.9243 H   0  0  0  0  0  0  0  0  0  0  0  0
   55.9694   33.6604   45.6711 H   0  0  0  0  0  0  0  0  0  0  0  0
   57.5044   34.3762   43.8759 H   0  0  0  0  0  0  0  0  0  0  0  0
   59.9261   34.5665   44.2220 H   0  0  0  0  0  0  0  0  0  0  0  0
   60.2800   32.0350   48.4780 H   0  0  0  0  0  0  0  0  0  0  0  0
   61.9185   28.6440   48.5168 H   0  0  0  0  0  0  0  0  0  0  0  0
   60.6849   27.9481   49.5976 H   0  0  0  0  0  0  0  0  0  0  0  0
   60.7703   30.8459   47.1783 H   0  0  0  0  0  0  0  0  0  0  0  0
   59.0647   31.1200   45.4036 H   0  0  0  0  0  0  0  0  0  0  0  0
   56.6490   28.2420   42.7370 H   0  0  0  0  0  0  0  0  0  0  0  0
   57.7060   29.6050   42.4490 H   0  0  0  0  0  0  0  0  0  0  0  0
   57.1585   27.4874   46.6112 H   0  0  0  0  0  0  0  0  0  0  0  0
   58.8459   27.1810   48.3886 H   0  0  0  0  0  0  0  0  0  0  0  0
   63.2800   30.1440   50.5210 H   0  0  0  0  0  0  0  0  0  0  0  0
   65.1876   29.9325   50.8945 H   0  0  0  0  0  0  0  0  0  0  0  0
  1  2  1  0
  2  3  2  0
  2  4  2  0
  2  5  1  0
  5  6  1  0
  6  7  2  0
  7  8  1  0
  8  9  2  0
  9 10  1  0
 10 11  1  0
 11 12  2  0
 12 13  1  0
 13 14  2  0
 14 15  1  0
 15 16  1  0
 16 17  2  0
 17 18  1  0
 18 19  2  0
 19 20  1  0
 20 21  2  0
 13 22  1  0
 22 23  1  0
 23 24  2  0
 24 25  1  0
 25 26  1  0
 26 27  2  0
 27 28  1  0
 28 29  2  0
 29 30  1  0
 30 31  1  0
 30 32  2  0
 30 33  2  0
 29 34  1  0
 34 35  2  0
 23 36  1  0
 10 37  2  0
 37  6  1  0
 36 11  1  0
 21 16  1  0
 35 26  1  0
  1 38  1  0
  1 39  1  0
  1 40  1  0
  5 41  1  0
  7 42  1  0
  8 43  1  0
  9 44  1  0
 12 45  1  0
 15 46  1  0
 15 47  1  0
 17 48  1  0
 18 49  1  0
 19 50  1  0
 20 51  1  0
 21 52  1  0
 22 53  1  0
 25 54  1  0
 25 55  1  0
 27 56  1  0
 28 57  1  0
 31 58  1  0
 31 59  1  0
 34 60  1  0
 35 61  1  0
 36 62  1  0
 37 63  1  0
M  END
>  <smiles>  (86) 
CS(=O)(=O)Nc1cccc(-c2cc(=NCc3ccccc3)[nH]c(=NCc3ccc(S(N)(=O)=O)cc3)[nH]2)c1

>  <score_type>  (86) 
oracle

>  <origin>  (86) 
adg

>  <m_score__min__energy>  (86) 
-11.43

>  <m_primary>  (86) 
energy

$$$$
87:0
     RDKit          3D

 53 54  0  0  0  0  0  0  0  0999 V2000
   56.3190   29.6990   43.1450 C   0  0  0  0  0  0  0  0  0  0  0  0
   56.2280   30.8900   44.0910 C   0  0  0  0  0  0  0  0  0  0  0  0
   57.3550   31.8150   43.8710 N   0  0  0  0  0  0  0  0  0  0  0  0
   58.1280   31.6860   42.6250 C   0  0  0  0  0  0  0  0  0  0  0  0
   57.3760   32.3230   41.4610 C   0  0  0  0  0  0  0  0  0  0  0  0
   57.6880   32.8400   44.8430 C   0  0  0  0  0  0  0  0  0  0  0  0
   56.6470   33.2530   46.0420 S   0  0  0  0  0  0  0  0  0  0  0  0
   59.1850   33.8260   44.6880 S   0  0  0  0  0  0  0  0  0  0  0  0
   59.7360   33.6180   46.4260 C   0  0  0  0  0  0  0  0  0  0  0  0
   60.3960   32.2520   46.7060 C   0  0  2  0  0  0  0  0  0  0  0  0
   59.5140   31.3840   47.4870 N   0  0  0  0  0  0  0  0  0  0  0  0
   59.2510   29.9940   47.2390 C   0  0  0  0  0  0  0  0  0  0  0  0
   59.7500   29.1430   48.0240 O   0  0  0  0  0  0  0  0  0  0  0  0
   58.4180   29.5450   46.1010 C   0  0  0  0  0  0  0  0  0  0  0  0
   57.3970   28.6940   46.2620 C   0  0  0  0  0  0  0  0  0  0  0  0
   57.5580   27.2310   46.1300 C   0  0  0  0  0  0  0  0  0  0  0  0
   58.8590   26.7030   46.0860 C   0  0  0  0  0  0  0  0  0  0  0  0
   59.0600   25.3230   45.9860 C   0  0  0  0  0  0  0  0  0  0  0  0
   57.9660   24.4590   45.9090 C   0  0  0  0  0  0  0  0  0  0  0  0
   56.6690   24.9730   45.9230 C   0  0  0  0  0  0  0  0  0  0  0  0
   56.4570   26.3530   46.0240 C   0  0  0  0  0  0  0  0  0  0  0  0
   55.1540   26.8380   45.9890 O   0  0  0  0  0  0  0  0  0  0  0  0
   61.7360   32.4170   47.3970 C   0  0  0  0  0  0  0  0  0  0  0  0
   62.5910   33.4630   47.0100 C   0  0  0  0  0  0  0  0  0  0  0  0
   63.8110   33.6630   47.6630 C   0  0  0  0  0  0  0  0  0  0  0  0
   64.1900   32.8220   48.7180 C   0  0  0  0  0  0  0  0  0  0  0  0
   65.4010   33.0130   49.3780 O   0  0  0  0  0  0  0  0  0  0  0  0
   63.3410   31.7860   49.1170 C   0  0  0  0  0  0  0  0  0  0  0  0
   62.1200   31.5860   48.4690 C   0  0  0  0  0  0  0  0  0  0  0  0
   56.3900   28.7704   43.7304 H   0  0  0  0  0  0  0  0  0  0  0  0
   55.4208   29.6650   42.5109 H   0  0  0  0  0  0  0  0  0  0  0  0
   57.2119   29.8018   42.5109 H   0  0  0  0  0  0  0  0  0  0  0  0
   55.2826   31.4229   43.9114 H   0  0  0  0  0  0  0  0  0  0  0  0
   56.2673   30.5234   45.1274 H   0  0  0  0  0  0  0  0  0  0  0  0
   59.0985   32.1890   42.7475 H   0  0  0  0  0  0  0  0  0  0  0  0
   58.2788   30.6180   42.4090 H   0  0  0  0  0  0  0  0  0  0  0  0
   56.5913   32.9877   41.8513 H   0  0  0  0  0  0  0  0  0  0  0  0
   58.0777   32.9057   40.8461 H   0  0  0  0  0  0  0  0  0  0  0  0
   56.9167   31.5350   40.8461 H   0  0  0  0  0  0  0  0  0  0  0  0
   60.4639   34.4097   46.6570 H   0  0  0  0  0  0  0  0  0  0  0  0
   58.8378   33.6776   47.0582 H   0  0  0  0  0  0  0  0  0  0  0  0
   60.5730   31.7692   45.7336 H   0  0  0  0  0  0  0  0  0  0  0  0
   58.6445   29.9218   45.0927 H   0  0  0  0  0  0  0  0  0  0  0  0
   56.4024   29.0985   46.5012 H   0  0  0  0  0  0  0  0  0  0  0  0
   59.7252   27.3796   46.1305 H   0  0  0  0  0  0  0  0  0  0  0  0
   60.0822   24.9171   45.9680 H   0  0  0  0  0  0  0  0  0  0  0  0
   58.1266   23.3732   45.8373 H   0  0  0  0  0  0  0  0  0  0  0  0
   55.8090   24.2906   45.8544 H   0  0  0  0  0  0  0  0  0  0  0  0
   62.2978   34.1303   46.1861 H   0  0  0  0  0  0  0  0  0  0  0  0
   64.4745   34.4819   47.3481 H   0  0  0  0  0  0  0  0  0  0  0  0
   66.2880   32.8210   48.9250 H   0  0  0  0  0  0  0  0  0  0  0  0
   63.6358   31.1250   49.9453 H   0  0  0  0  0  0  0  0  0  0  0  0
   61.4536   30.7747   48.7973 H   0  0  0  0  0  0  0  0  0  0  0  0
  1  2  1  0
  2  3  1  0
  3  4  1  0
  4  5  1  0
  3  6  1  0
  6  7  2  0
  6  8  1  0
  8  9  1  0
  9 10  1  0
 10 11  1  0
 11 12  1  0
 12 13  2  0
 12 14  1  0
 14 15  2  3
 15 16  1  0
 16 17  2  0
 17 18  1  0
 18 19  2  0
 19 20  1  0
 20 21  2  0
 21 22  1  0
 10 23  1  0
 23 24  2  0
 24 25  1  0
 25 26  2  0
 26 27  1  0
 26 28  1  0
 28 29  2  0
 21 16  1  0
 29 23  1  0
  1 30  1  0
  1 31  1  0
  1 32  1  0
  2 33  1  0
  2 34  1  0
  4 35  1  0
  4 36  1  0
  5 37  1  0
  5 38  1  0
  5 39  1  0
  9 40  1  0
  9 41  1  0
 10 42  1  6
 14 43  1  0
 15 44  1  0
 17 45  1  0
 18 46  1  0
 19 47  1  0
 20 48  1  0
 24 49  1  0
 25 50  1  0
 27 51  1  0
 28 52  1  0
 29 53  1  0
M  CHG  2  11  -1  22  -1
M  END
>  <UniqueID>  (87) 
82

>  <SMILES>  (87) 
CCN(CC)C(=S)SC[C@H]([N-]C(=O)C=Cc1ccccc1[O-])c1ccc(O)cc1

>  <Energy>  (87) 
45.49177367385978

>  <Genealogy>  (87) 
CCN(CC)C(=S)SCC([N-]C(=O)C=Cc1ccccc1[O-])c1ccc(O)cc1 (protonated)
CCN(CC)C(=S)SC[C@H]([N-]C(=O)C=Cc1ccccc1[O-])c1ccc(O)cc1 (chirality)
CCN(CC)C(=S)SC[C@H]([N-]C(=O)C=Cc1ccccc1[O-])c1ccc(O)cc1 (3D coordinates assigned)
CCN(CC)C(=S)SC[C@H]([N-]C(=O)C=Cc1ccccc1[O-])c1ccc(O)cc1 (optimized conformer: 45.49177367385978 kcal/mol)

>  <smiles>  (87) 
CCN(CC)C(=S)SCC(NC(=O)C=Cc1ccccc1O)c1ccc(O)cc1

>  <score_type>  (87) 
oracle

>  <origin>  (87) 
adg

>  <m_score__min__energy>  (87) 
-13.67

>  <m_primary>  (87) 
energy

$$$$
88:0
     RDKit          3D

 52 55  0  0  0  0  0  0  0  0999 V2000
   59.0600   26.3000   48.1670 H   0  0  0  0  0  0  0  0  0  0  0  0
   58.5860   25.7440   47.4660 O   0  0  0  0  0  0  0  0  0  0  0  0
   57.4330   26.2000   46.8330 C   0  0  0  0  0  0  0  0  0  0  0  0
   56.3020   25.4800   46.7510 N   0  0  0  0  0  0  0  0  0  0  0  0
   55.4910   26.2790   46.0250 C   0  0  0  0  0  0  0  0  0  0  0  0
   54.3150   25.9530   45.7180 O   0  0  0  0  0  0  0  0  0  0  0  0
   56.0430   27.4520   45.6430 N   0  0  0  0  0  0  0  0  0  0  0  0
   57.2720   27.4070   46.1850 C   0  0  0  0  0  0  0  0  0  0  0  0
   58.2980   28.4330   45.9510 C   0  0  0  0  0  0  0  0  0  0  0  0
   59.3420   28.0940   45.8794 H   0  0  0  0  0  0  0  0  0  0  0  0
   58.0680   29.7520   45.8170 C   0  0  0  0  0  0  0  0  0  0  0  0
   58.7260   30.7160   46.5600 C   0  0  0  0  0  0  0  0  0  0  0  0
   59.5184   30.5494   47.3045 H   0  0  0  0  0  0  0  0  0  0  0  0
   58.1880   31.9290   46.1790 C   0  0  0  0  0  0  0  0  0  0  0  0
   58.5840   33.2490   46.7010 C   0  0  0  0  0  0  0  0  0  0  0  0
   57.7190   34.1630   46.7780 O   0  0  0  0  0  0  0  0  0  0  0  0
   59.9190   33.4950   47.1830 N   0  0  0  0  0  0  0  0  0  0  0  0
   60.1080   34.3860   48.3320 C   0  0  0  0  0  0  0  0  0  0  0  0
   59.8547   35.4141   48.0338 H   0  0  0  0  0  0  0  0  0  0  0  0
   59.4532   34.0449   49.1474 H   0  0  0  0  0  0  0  0  0  0  0  0
   61.5620   34.3530   48.8310 C   0  0  0  0  0  0  0  0  0  0  0  0
   62.1583   35.0566   48.2315 H   0  0  0  0  0  0  0  0  0  0  0  0
   61.5605   34.6344   49.8944 H   0  0  0  0  0  0  0  0  0  0  0  0
   62.1600   33.0070   48.7190 N   0  0  0  0  0  0  0  0  0  0  0  0
   61.9550   32.0920   49.8680 C   0  0  0  0  0  0  0  0  0  0  0  0
   62.4999   31.1580   49.6664 H   0  0  0  0  0  0  0  0  0  0  0  0
   62.3252   32.6181   50.7603 H   0  0  0  0  0  0  0  0  0  0  0  0
   60.4970   31.7450   50.1390 C   0  0  0  0  0  0  0  0  0  0  0  0
   59.6970   32.6750   50.8300 C   0  0  0  0  0  0  0  0  0  0  0  0
   60.1241   33.6462   51.1205 H   0  0  0  0  0  0  0  0  0  0  0  0
   58.3710   32.3840   51.1520 C   0  0  0  0  0  0  0  0  0  0  0  0
   57.7680   33.1145   51.7112 H   0  0  0  0  0  0  0  0  0  0  0  0
   57.8110   31.1700   50.7660 C   0  0  0  0  0  0  0  0  0  0  0  0
   56.7729   30.9318   51.0410 H   0  0  0  0  0  0  0  0  0  0  0  0
   58.5640   30.2550   50.0310 C   0  0  0  0  0  0  0  0  0  0  0  0
   58.1070   29.3067   49.7117 H   0  0  0  0  0  0  0  0  0  0  0  0
   59.9020   30.5310   49.6930 C   0  0  0  0  0  0  0  0  0  0  0  0
   60.6370   29.5460   48.8220 C   0  0  0  0  0  0  0  0  0  0  0  0
   61.1745   28.8256   49.4561 H   0  0  0  0  0  0  0  0  0  0  0  0
   59.9168   29.0094   48.1869 H   0  0  0  0  0  0  0  0  0  0  0  0
   61.3564   30.0837   48.1869 H   0  0  0  0  0  0  0  0  0  0  0  0
   62.1150   32.3910   47.3700 C   0  0  0  0  0  0  0  0  0  0  0  0
   63.1138   32.4715   46.9161 H   0  0  0  0  0  0  0  0  0  0  0  0
   61.8015   31.3447   47.5004 H   0  0  0  0  0  0  0  0  0  0  0  0
   61.0970   33.0570   46.4300 C   0  0  0  0  0  0  0  0  0  0  0  0
   61.5643   33.9286   45.9483 H   0  0  0  0  0  0  0  0  0  0  0  0
   60.7836   32.3279   45.6683 H   0  0  0  0  0  0  0  0  0  0  0  0
   57.2850   31.7440   45.2450 O   0  0  0  0  0  0  0  0  0  0  0  0
   57.1920   30.4620   44.9830 C   0  0  0  0  0  0  0  0  0  0  0  0
   56.4030   30.0040   44.0090 C   0  0  0  0  0  0  0  0  0  0  0  0
   56.3443   28.9236   43.8111 H   0  0  0  0  0  0  0  0  0  0  0  0
   55.8114   30.7069   43.4041 H   0  0  0  0  0  0  0  0  0  0  0  0
  1  2  1  0
  2  3  1  0
  3  4  1  0
  4  5  1  0
  5  6  2  0
  5  7  1  0
  7  8  1  0
  8  9  1  0
  9 10  1  0
  9 11  2  0
 11 12  1  0
 12 13  1  0
 12 14  2  0
 14 15  1  0
 15 16  2  0
 15 17  1  0
 17 18  1  0
 18 19  1  0
 18 20  1  0
 18 21  1  0
 21 22  1  0
 21 23  1  0
 21 24  1  0
 24 25  1  0
 25 26  1  0
 25 27  1  0
 25 28  1  0
 28 29  2  0
 29 30  1  0
 29 31  1  0
 31 32  1  0
 31 33  2  0
 33 34  1  0
 33 35  1  0
 35 36  1  0
 35 37  2  0
 37 38  1  0
 38 39  1  0
 38 40  1  0
 38 41  1  0
 24 42  1  0
 42 43  1  0
 42 44  1  0
 42 45  1  0
 45 46  1  0
 45 47  1  0
 14 48  1  0
 48 49  1  0
 49 50  2  0
 50 51  1  0
 50 52  1  0
  8  3  2  0
 49 11  1  0
 45 17  1  0
 37 28  1  0
M  CHG  2   4  -1   7  -1
M  END
>  <UniqueID>  (88) 
83

>  <SMILES>  (88) 
C=c1oc(C(=O)N2CCN(Cc3ccccc3C)CC2)c/c1=C/c1[n-]c(=O)[n-]c1O

>  <Energy>  (88) 
137.3295272725826

>  <Genealogy>  (88) 
C=c1oc(C(=O)N2CCN(Cc3ccccc3C)CC2)cc1=Cc1[n-]c(=O)[n-]c1O (protonated)
C=c1oc(C(=O)N2CCN(Cc3ccccc3C)CC2)c/c1=C/c1[n-]c(=O)[n-]c1O (cis-trans isomerization)
C=c1oc(C(=O)N2CCN(Cc3ccccc3C)CC2)c/c1=C/c1[n-]c(=O)[n-]c1O (3D coordinates assigned)
C=c1oc(C(=O)N2CCN(Cc3ccccc3C)CC2)c/c1=C/c1[n-]c(=O)[n-]c1O (nonaromatic ring conformer: 137.3295272725826 kcal/mol)

>  <smiles>  (88) 
C=c1oc(C(=O)N2CCN(Cc3ccccc3C)CC2)cc1=Cc1[nH]c(=O)[nH]c1O

>  <score_type>  (88) 
oracle

>  <origin>  (88) 
adg

>  <m_score__min__energy>  (88) 
-13.94

>  <m_primary>  (88) 
energy

$$$$
89:0
     RDKit          3D

 50 53  0  0  0  0  0  0  0  0999 V2000
   60.0640   33.8180   50.1980 C   0  0  0  0  0  0  0  0  0  0  0  0
   59.9280   32.5510   49.3640 C   0  0  0  0  0  0  0  0  0  0  0  0
   61.2210   32.1750   48.7900 N   0  0  0  0  0  0  0  0  0  0  0  0
   62.4310   32.9660   48.9540 C   0  0  0  0  0  0  0  0  0  0  0  0
   63.3900   32.4070   47.8940 C   0  0  0  0  0  0  0  0  0  0  0  0
   62.6220   31.3970   47.1820 N   0  0  0  0  0  0  0  0  0  0  0  0
   61.4470   31.2870   47.7000 C   0  0  0  0  0  0  0  0  0  0  0  0
   60.4650   30.3140   47.1840 C   0  0  0  0  0  0  0  0  0  0  0  0
   60.5640   29.8560   45.8620 C   0  0  0  0  0  0  0  0  0  0  0  0
   59.6440   28.9250   45.3650 C   0  0  0  0  0  0  0  0  0  0  0  0
   58.6380   28.4130   46.1910 C   0  0  0  0  0  0  0  0  0  0  0  0
   57.6990   27.4800   45.6430 N   0  0  0  0  0  0  0  0  0  0  0  0
   56.2780   27.6500   45.6250 C   0  0  0  0  0  0  0  0  0  0  0  0
   55.5460   26.7200   46.0500 O   0  0  0  0  0  0  0  0  0  0  0  0
   55.7050   28.9040   45.2340 N   0  0  0  0  0  0  0  0  0  0  0  0
   56.3480   29.9310   44.4660 C   0  0  0  0  0  0  0  0  0  0  0  0
   56.3700   29.9030   43.0620 C   0  0  0  0  0  0  0  0  0  0  0  0
   57.0200   30.9140   42.3520 C   0  0  0  0  0  0  0  0  0  0  0  0
   57.6640   31.9510   43.0330 C   0  0  0  0  0  0  0  0  0  0  0  0
   57.6760   31.9830   44.4390 C   0  0  0  0  0  0  0  0  0  0  0  0
   58.3620   33.0720   45.1810 C   0  0  0  0  0  0  0  0  0  0  0  0
   58.2820   33.1910   46.4630 N   0  0  0  0  0  0  0  0  0  0  0  0
   59.0550   34.3410   46.9110 C   0  0  0  0  0  0  0  0  0  0  0  0
   59.6620   34.9340   45.6320 C   0  0  0  0  0  0  0  0  0  0  0  0
   59.1670   34.0710   44.5780 N   0  0  0  0  0  0  0  0  0  0  0  0
   57.0180   30.9570   45.1440 C   0  0  0  0  0  0  0  0  0  0  0  0
   58.5390   28.8680   47.5170 C   0  0  0  0  0  0  0  0  0  0  0  0
   59.4530   29.8050   48.0100 C   0  0  0  0  0  0  0  0  0  0  0  0
   60.0361   33.5583   51.2666 H   0  0  0  0  0  0  0  0  0  0  0  0
   61.0201   34.3095   49.9649 H   0  0  0  0  0  0  0  0  0  0  0  0
   59.2340   34.5013   49.9649 H   0  0  0  0  0  0  0  0  0  0  0  0
   59.5643   31.7335   50.0039 H   0  0  0  0  0  0  0  0  0  0  0  0
   59.2160   32.7374   48.5465 H   0  0  0  0  0  0  0  0  0  0  0  0
   62.2281   34.0320   48.7737 H   0  0  0  0  0  0  0  0  0  0  0  0
   62.8428   32.9016   49.9720 H   0  0  0  0  0  0  0  0  0  0  0  0
   63.7119   33.2030   47.2065 H   0  0  0  0  0  0  0  0  0  0  0  0
   64.3028   31.9892   48.3438 H   0  0  0  0  0  0  0  0  0  0  0  0
   61.3688   30.2303   45.2122 H   0  0  0  0  0  0  0  0  0  0  0  0
   59.7128   28.5941   44.3182 H   0  0  0  0  0  0  0  0  0  0  0  0
   55.8744   29.0834   42.5211 H   0  0  0  0  0  0  0  0  0  0  0  0
   57.0254   30.8945   41.2522 H   0  0  0  0  0  0  0  0  0  0  0  0
   58.1654   32.7483   42.4648 H   0  0  0  0  0  0  0  0  0  0  0  0
   58.4033   35.0757   47.4064 H   0  0  0  0  0  0  0  0  0  0  0  0
   59.8266   34.0605   47.6431 H   0  0  0  0  0  0  0  0  0  0  0  0
   59.3227   35.9695   45.4815 H   0  0  0  0  0  0  0  0  0  0  0  0
   60.7607   34.9765   45.6643 H   0  0  0  0  0  0  0  0  0  0  0  0
   59.3820   34.1910   43.5650 H   0  0  0  0  0  0  0  0  0  0  0  0
   57.0304   30.9614   46.2439 H   0  0  0  0  0  0  0  0  0  0  0  0
   57.7400   28.4859   48.1694 H   0  0  0  0  0  0  0  0  0  0  0  0
   59.3772   30.1450   49.0534 H   0  0  0  0  0  0  0  0  0  0  0  0
  1  2  1  0
  2  3  1  0
  3  4  1  0
  4  5  1  0
  5  6  1  0
  6  7  2  0
  7  8  1  0
  8  9  2  0
  9 10  1  0
 10 11  2  0
 11 12  1  0
 12 13  1  0
 13 14  2  0
 13 15  1  0
 15 16  1  0
 16 17  2  0
 17 18  1  0
 18 19  2  0
 19 20  1  0
 20 21  1  0
 21 22  2  0
 22 23  1  0
 23 24  1  0
 24 25  1  0
 20 26  2  0
 11 27  1  0
 27 28  2  0
  7  3  1  0
 28  8  1  0
 26 16  1  0
 25 21  1  0
  1 29  1  0
  1 30  1  0
  1 31  1  0
  2 32  1  0
  2 33  1  0
  4 34  1  0
  4 35  1  0
  5 36  1  0
  5 37  1  0
  9 38  1  0
 10 39  1  0
 17 40  1  0
 18 41  1  0
 19 42  1  0
 23 43  1  0
 23 44  1  0
 24 45  1  0
 24 46  1  0
 25 47  1  0
 26 48  1  0
 27 49  1  0
 28 50  1  0
M  CHG  2  12  -1  15  -1
M  END
>  <UniqueID>  (89) 
84

>  <SMILES>  (89) 
CCN1CCN=C1c1ccc([N-]C(=O)[N-]c2cccc(C3=NCCN3)c2)cc1

>  <Energy>  (89) 
86.17527907717957

>  <Genealogy>  (89) 
CCN1CCN=C1c1ccc([N-]C(=O)[N-]c2cccc(C3=NCCN3)c2)cc1 (protonated)
CCN1CCN=C1c1ccc([N-]C(=O)[N-]c2cccc(C3=NCCN3)c2)cc1 (3D coordinates assigned)
CCN1CCN=C1c1ccc([N-]C(=O)[N-]c2cccc(C3=NCCN3)c2)cc1 (nonaromatic ring conformer: 86.17527907717957 kcal/mol)

>  <smiles>  (89) 
CCN1CCN=C1c1ccc(NC(=O)Nc2cccc(C3=NCCN3)c2)cc1

>  <score_type>  (89) 
oracle

>  <origin>  (89) 
adg

>  <m_score__min__energy>  (89) 
-11.49

>  <m_primary>  (89) 
energy

$$$$
