0:0
     RDKit          3D

 44 49  0  0  0  0  0  0  0  0999 V2000
   55.2453   28.5528   45.2656 H   0  0  0  0  0  0  0  0  0  0  0  0
   56.2110   29.0670   45.1520 C   0  0  0  0  0  0  0  0  0  0  0  0
   56.4200   30.1320   44.4360 N   0  0  0  0  0  0  0  0  0  0  0  0
   57.7810   30.4500   44.5540 N   0  0  0  0  0  0  0  0  0  0  0  0
   58.3180   31.6760   44.7150 C   0  0  0  0  0  0  0  0  0  0  0  0
   57.8900   32.7620   44.1440 N   0  0  0  0  0  0  0  0  0  0  0  0
   57.4950   33.9650   44.8700 C   0  0  0  0  0  0  0  0  0  0  0  0
   56.8382   34.3960   44.1000 H   0  0  0  0  0  0  0  0  0  0  0  0
   57.3930   33.7690   46.3720 C   0  0  0  0  0  0  0  0  0  0  0  0
   56.6469   34.3328   46.9512 H   0  0  0  0  0  0  0  0  0  0  0  0
   57.2541   32.9035   47.0366 H   0  0  0  0  0  0  0  0  0  0  0  0
   58.5950   34.4870   45.7750 C   0  0  0  0  0  0  0  0  0  0  0  0
   58.7182   35.5700   45.9229 H   0  0  0  0  0  0  0  0  0  0  0  0
   59.6858   34.3558   45.8294 H   0  0  0  0  0  0  0  0  0  0  0  0
   59.3080   31.6740   45.6370 N   0  0  0  0  0  0  0  0  0  0  0  0
   59.3130   30.3770   46.0400 C   0  0  0  0  0  0  0  0  0  0  0  0
   59.9470   29.9440   47.0890 N   0  0  0  0  0  0  0  0  0  0  0  0
   60.9640   30.6300   47.8370 C   0  0  0  0  0  0  0  0  0  0  0  0
   61.1410   30.2870   49.1980 C   0  0  0  0  0  0  0  0  0  0  0  0
   60.4857   29.5318   49.6566 H   0  0  0  0  0  0  0  0  0  0  0  0
   62.1430   30.8980   49.9730 C   0  0  0  0  0  0  0  0  0  0  0  0
   62.2735   30.6434   51.0351 H   0  0  0  0  0  0  0  0  0  0  0  0
   62.9640   31.8350   49.3530 C   0  0  0  0  0  0  0  0  0  0  0  0
   62.8180   32.1550   48.0300 C   0  0  0  0  0  0  0  0  0  0  0  0
   61.8380   31.5690   47.2330 C   0  0  0  0  0  0  0  0  0  0  0  0
   61.7448   31.8266   46.1677 H   0  0  0  0  0  0  0  0  0  0  0  0
   63.7890   33.0810   47.7200 C   0  0  0  0  0  0  0  0  0  0  0  0
   63.9714   33.5581   46.7458 H   0  0  0  0  0  0  0  0  0  0  0  0
   64.4900   33.2830   48.9060 C   0  0  0  0  0  0  0  0  0  0  0  0
   65.3412   33.9705   49.0192 H   0  0  0  0  0  0  0  0  0  0  0  0
   63.9820   32.5190   49.9000 N   0  0  0  0  0  0  0  0  0  0  0  0
   64.3200   32.4680   50.8860 H   0  0  0  0  0  0  0  0  0  0  0  0
   58.4190   29.6330   45.3530 N   0  0  0  0  0  0  0  0  0  0  0  0
   57.4720   28.6620   45.7840 C   0  0  0  0  0  0  0  0  0  0  0  0
   57.6810   27.5640   46.5200 C   0  0  0  0  0  0  0  0  0  0  0  0
   58.2464   27.6695   47.4577 H   0  0  0  0  0  0  0  0  0  0  0  0
   57.1990   26.2230   46.1490 C   0  0  0  0  0  0  0  0  0  0  0  0
   57.9920   25.1570   45.9050 N   0  0  0  0  0  0  0  0  0  0  0  0
   57.1200   24.1940   45.5350 C   0  0  0  0  0  0  0  0  0  0  0  0
   57.4790   23.0260   45.2310 O   0  0  0  0  0  0  0  0  0  0  0  0
   55.8350   24.5960   45.5150 N   0  0  0  0  0  0  0  0  0  0  0  0
   54.9890   24.0390   45.2570 H   0  0  0  0  0  0  0  0  0  0  0  0
   55.8920   25.8800   45.8920 C   0  0  0  0  0  0  0  0  0  0  0  0
   54.7860   26.7140   45.9990 O   0  0  0  0  0  0  0  0  0  0  0  0
  1  2  1  0
  2  3  2  0
  3  4  1  0
  4  5  1  0
  5  6  2  3
  6  7  1  0
  7  8  1  0
  7  9  1  0
  9 10  1  0
  9 11  1  0
  9 12  1  0
 12 13  1  0
 12 14  1  0
  5 15  1  0
 15 16  1  0
 16 17  2  3
 17 18  1  0
 18 19  2  0
 19 20  1  0
 19 21  1  0
 21 22  1  0
 21 23  2  0
 23 24  1  0
 24 25  2  0
 25 26  1  0
 24 27  1  0
 27 28  1  0
 27 29  2  0
 29 30  1  0
 29 31  1  0
 31 32  1  0
 16 33  1  0
 33 34  1  0
 34 35  2  0
 35 36  1  0
 35 37  1  0
 37 38  1  0
 38 39  1  0
 39 40  2  0
 39 41  1  0
 41 42  1  0
 41 43  1  0
 43 44  1  0
 34  2  1  0
 43 37  2  0
 33  4  1  0
 12  7  1  0
 25 18  1  0
 31 23  1  0
M  CHG  3  15  -1  38  -1  44  -1
M  END
>  <UniqueID>  (1) 
1

>  <SMILES>  (1) 
O=c1[n-]c(/C=C2/C=Nn3c(=NC4CC4)[n-]c(=Nc4ccc5[nH]ccc5c4)n32)c([O-])[nH]1

>  <Energy>  (1) 
482.1056296963435

>  <Genealogy>  (1) 
O=c1[n-]c(C=C2C=Nn3c(=NC4CC4)[n-]c(=Nc4ccc5[nH]ccc5c4)n32)c([O-])[nH]1 (protonated)
O=c1[n-]c(/C=C2/C=Nn3c(=NC4CC4)[n-]c(=Nc4ccc5[nH]ccc5c4)n32)c([O-])[nH]1 (cis-trans isomerization)
O=c1[n-]c(/C=C2/C=Nn3c(=NC4CC4)[n-]c(=Nc4ccc5[nH]ccc5c4)n32)c([O-])[nH]1 (3D coordinates assigned)
O=c1[n-]c(/C=C2/C=Nn3c(=NC4CC4)[n-]c(=Nc4ccc5[nH]ccc5c4)n32)c([O-])[nH]1 (nonaromatic ring conformer: 482.1056296963435 kcal/mol)

>  <smiles>  (1) 
O=c1[nH]c(O)c(C=C2C=Nn3c(=NC4CC4)[nH]c(=Nc4ccc5[nH]ccc5c4)n32)[nH]1

>  <score_type>  (1) 
oracle

>  <origin>  (1) 
adg

>  <m_score__min__energy>  (1) 
-15.300000000000001

>  <m_primary>  (1) 
energy

$$$$
1:0
     RDKit          3D

 34 35  0  0  0  0  0  0  0  0999 V2000
   67.3340   33.1260   50.4840 C   0  0  0  0  0  0  0  0  0  0  0  0
   66.2760   32.3970   50.1170 C   0  0  0  0  0  0  0  0  0  0  0  0
   64.9140   33.0140   49.9650 C   0  0  0  0  0  0  0  0  0  0  0  0
   64.5180   33.0780   48.5550 N   0  0  0  0  0  0  0  0  0  0  0  0
   63.1960   33.4510   48.1240 C   0  0  0  0  0  0  0  0  0  0  0  0
   62.8340   33.4690   46.7670 C   0  0  0  0  0  0  0  0  0  0  0  0
   61.5390   33.8400   46.3990 C   0  0  0  0  0  0  0  0  0  0  0  0
   60.6150   34.1770   47.3480 N   0  0  0  0  0  0  0  0  0  0  0  0
   59.2680   34.5950   46.9380 C   0  0  0  0  0  0  0  0  0  0  0  0
   58.6730   33.5760   46.0030 C   0  0  0  0  0  0  0  0  0  0  0  0
   58.2990   32.3090   46.4810 C   0  0  0  0  0  0  0  0  0  0  0  0
   57.7820   31.3510   45.6040 C   0  0  0  0  0  0  0  0  0  0  0  0
   57.6440   31.6470   44.2460 C   0  0  0  0  0  0  0  0  0  0  0  0
   58.0250   32.9010   43.7610 C   0  0  0  0  0  0  0  0  0  0  0  0
   58.5430   33.8620   44.6340 C   0  0  0  0  0  0  0  0  0  0  0  0
   60.9510   34.1740   48.6730 C   0  0  0  0  0  0  0  0  0  0  0  0
   62.2360   33.8100   49.0790 C   0  0  0  0  0  0  0  0  0  0  0  0
   68.3203   32.6503   50.5881 H   0  0  0  0  0  0  0  0  0  0  0  0
   67.2186   34.2019   50.6820 H   0  0  0  0  0  0  0  0  0  0  0  0
   66.4047   31.3221   49.9219 H   0  0  0  0  0  0  0  0  0  0  0  0
   64.1811   32.4071   50.5168 H   0  0  0  0  0  0  0  0  0  0  0  0
   64.9477   34.0380   50.3653 H   0  0  0  0  0  0  0  0  0  0  0  0
   65.2270   32.8470   47.8210 H   0  0  0  0  0  0  0  0  0  0  0  0
   63.5684   33.1917   45.9964 H   0  0  0  0  0  0  0  0  0  0  0  0
   61.2599   33.8612   45.3352 H   0  0  0  0  0  0  0  0  0  0  0  0
   58.6291   34.6886   47.8286 H   0  0  0  0  0  0  0  0  0  0  0  0
   59.3331   35.5637   46.4210 H   0  0  0  0  0  0  0  0  0  0  0  0
   58.4133   32.0701   47.5486 H   0  0  0  0  0  0  0  0  0  0  0  0
   57.4835   30.3628   45.9839 H   0  0  0  0  0  0  0  0  0  0  0  0
   57.2351   30.8925   43.5578 H   0  0  0  0  0  0  0  0  0  0  0  0
   57.9171   33.1321   42.6910 H   0  0  0  0  0  0  0  0  0  0  0  0
   58.8497   34.8452   44.2477 H   0  0  0  0  0  0  0  0  0  0  0  0
   60.2022   34.4610   49.4259 H   0  0  0  0  0  0  0  0  0  0  0  0
   62.4946   33.8051   50.1481 H   0  0  0  0  0  0  0  0  0  0  0  0
  1  2  2  0
  2  3  1  0
  3  4  1  0
  4  5  1  0
  5  6  2  0
  6  7  1  0
  7  8  2  0
  8  9  1  0
  9 10  1  0
 10 11  2  0
 11 12  1  0
 12 13  2  0
 13 14  1  0
 14 15  2  0
  8 16  1  0
 16 17  2  0
 17  5  1  0
 15 10  1  0
  1 18  1  0
  1 19  1  0
  2 20  1  0
  3 21  1  0
  3 22  1  0
  4 23  1  0
  6 24  1  0
  7 25  1  0
  9 26  1  0
  9 27  1  0
 11 28  1  0
 12 29  1  0
 13 30  1  0
 14 31  1  0
 15 32  1  0
 16 33  1  0
 17 34  1  0
M  CHG  1   8   1
M  END
>  <UniqueID>  (2) 
2

>  <SMILES>  (2) 
C=CCNc1cc[n+](Cc2ccccc2)cc1

>  <Energy>  (2) 
30.736964503765485

>  <Genealogy>  (2) 
C=CCNc1cc[n+](Cc2ccccc2)cc1 (3D coordinates assigned)
C=CCNc1cc[n+](Cc2ccccc2)cc1 (optimized conformer: 30.736964503765485 kcal/mol)

>  <smiles>  (2) 
C=CCNc1cc[n+](Cc2ccccc2)cc1

>  <score_type>  (2) 
oracle

>  <origin>  (2) 
adg

>  <m_score__min__energy>  (2) 
-4.7800000000000002

>  <m_primary>  (2) 
energy

$$$$
2:0
     RDKit          3D

 56 58  0  0  0  0  0  0  0  0999 V2000
   55.1620   26.6980   45.9960 N   0  0  0  0  0  0  0  0  0  0  0  0
   56.5280   25.6380   46.0300 S   0  0  0  0  0  0  0  0  0  0  0  0
   56.5570   24.8030   44.7810 O   0  0  0  0  0  0  0  0  0  0  0  0
   56.3960   24.7200   47.2130 O   0  0  0  0  0  0  0  0  0  0  0  0
   58.0170   26.5910   46.1560 C   0  0  0  0  0  0  0  0  0  0  0  0
   58.9950   26.1860   47.0820 C   0  0  0  0  0  0  0  0  0  0  0  0
   60.1860   26.9010   47.2180 C   0  0  0  0  0  0  0  0  0  0  0  0
   60.4180   28.0280   46.4340 C   0  0  0  0  0  0  0  0  0  0  0  0
   59.4580   28.4490   45.5140 C   0  0  0  0  0  0  0  0  0  0  0  0
   58.2450   27.7480   45.3660 C   0  0  0  0  0  0  0  0  0  0  0  0
   57.2710   28.2250   44.3100 C   0  0  0  0  0  0  0  0  0  0  0  0
   56.4620   29.3840   44.8100 C   0  0  0  0  0  0  0  0  0  0  0  0
   55.2020   29.3160   44.8070 O   0  0  0  0  0  0  0  0  0  0  0  0
   57.1190   30.5430   45.3270 N   0  0  0  0  0  0  0  0  0  0  0  0
   57.0460   31.8530   44.6950 C   0  0  0  0  0  0  0  0  0  0  0  0
   57.2810   32.9480   45.7360 C   0  0  0  0  0  0  0  0  0  0  0  0
   58.5680   33.7370   45.4490 C   0  0  0  0  0  0  0  0  0  0  0  0
   59.5410   33.5790   46.5400 N   0  0  0  0  0  0  0  0  0  0  0  0
   60.7000   34.4840   46.6180 C   0  0  0  0  0  0  0  0  0  0  0  0
   61.7980   33.8780   47.4570 C   0  0  0  0  0  0  0  0  0  0  0  0
   61.9290   34.2230   48.8130 C   0  0  0  0  0  0  0  0  0  0  0  0
   62.9210   33.6290   49.5990 C   0  0  0  0  0  0  0  0  0  0  0  0
   63.7880   32.6860   49.0370 C   0  0  0  0  0  0  0  0  0  0  0  0
   63.6610   32.3360   47.6910 C   0  0  0  0  0  0  0  0  0  0  0  0
   62.6690   32.9270   46.9020 C   0  0  0  0  0  0  0  0  0  0  0  0
   59.3000   32.6030   47.5770 C   0  0  0  0  0  0  0  0  0  0  0  0
   58.8340   33.0090   48.8400 C   0  0  0  0  0  0  0  0  0  0  0  0
   58.5840   32.0640   49.8390 C   0  0  0  0  0  0  0  0  0  0  0  0
   58.8020   30.7070   49.5900 C   0  0  0  0  0  0  0  0  0  0  0  0
   59.2730   30.2930   48.3420 C   0  0  0  0  0  0  0  0  0  0  0  0
   59.5250   31.2340   47.3400 C   0  0  0  0  0  0  0  0  0  0  0  0
   55.1490   27.1490   45.0550 H   0  0  0  0  0  0  0  0  0  0  0  0
   58.8195   25.2968   47.7053 H   0  0  0  0  0  0  0  0  0  0  0  0
   60.9428   26.5735   47.9460 H   0  0  0  0  0  0  0  0  0  0  0  0
   61.3594   28.5869   46.5403 H   0  0  0  0  0  0  0  0  0  0  0  0
   59.6503   29.3389   44.8967 H   0  0  0  0  0  0  0  0  0  0  0  0
   57.8327   28.5369   43.4171 H   0  0  0  0  0  0  0  0  0  0  0  0
   56.5866   27.3992   44.0657 H   0  0  0  0  0  0  0  0  0  0  0  0
   57.8153   31.9233   43.9119 H   0  0  0  0  0  0  0  0  0  0  0  0
   56.0487   31.9849   44.2501 H   0  0  0  0  0  0  0  0  0  0  0  0
   56.4272   33.6414   45.7232 H   0  0  0  0  0  0  0  0  0  0  0  0
   57.3844   32.4689   46.7208 H   0  0  0  0  0  0  0  0  0  0  0  0
   59.0142   33.3683   44.5136 H   0  0  0  0  0  0  0  0  0  0  0  0
   58.3117   34.8031   45.3616 H   0  0  0  0  0  0  0  0  0  0  0  0
   61.0820   34.6689   45.6032 H   0  0  0  0  0  0  0  0  0  0  0  0
   60.3798   35.4273   47.0846 H   0  0  0  0  0  0  0  0  0  0  0  0
   61.2481   34.9636   49.2579 H   0  0  0  0  0  0  0  0  0  0  0  0
   63.0197   33.9033   50.6597 H   0  0  0  0  0  0  0  0  0  0  0  0
   64.5696   32.2202   49.6551 H   0  0  0  0  0  0  0  0  0  0  0  0
   64.3428   31.5937   47.2504 H   0  0  0  0  0  0  0  0  0  0  0  0
   62.5709   32.6458   45.8431 H   0  0  0  0  0  0  0  0  0  0  0  0
   58.6652   34.0768   49.0430 H   0  0  0  0  0  0  0  0  0  0  0  0
   58.2150   32.3894   50.8228 H   0  0  0  0  0  0  0  0  0  0  0  0
   58.6028   29.9645   50.3767 H   0  0  0  0  0  0  0  0  0  0  0  0
   59.4459   29.2242   48.1474 H   0  0  0  0  0  0  0  0  0  0  0  0
   59.9012   30.9030   46.3608 H   0  0  0  0  0  0  0  0  0  0  0  0
  1  2  1  0
  2  3  2  0
  2  4  2  0
  2  5  1  0
  5  6  2  0
  6  7  1  0
  7  8  2  0
  8  9  1  0
  9 10  2  0
 10 11  1  0
 11 12  1  0
 12 13  2  0
 12 14  1  0
 14 15  1  0
 15 16  1  0
 16 17  1  0
 17 18  1  0
 18 19  1  0
 19 20  1  0
 20 21  2  0
 21 22  1  0
 22 23  2  0
 23 24  1  0
 24 25  2  0
 18 26  1  0
 26 27  2  0
 27 28  1  0
 28 29  2  0
 29 30  1  0
 30 31  2  0
 10  5  1  0
 25 20  1  0
 31 26  1  0
  1 32  1  0
  6 33  1  0
  7 34  1  0
  8 35  1  0
  9 36  1  0
 11 37  1  0
 11 38  1  0
 15 39  1  0
 15 40  1  0
 16 41  1  0
 16 42  1  0
 17 43  1  0
 17 44  1  0
 19 45  1  0
 19 46  1  0
 21 47  1  0
 22 48  1  0
 23 49  1  0
 24 50  1  0
 25 51  1  0
 27 52  1  0
 28 53  1  0
 29 54  1  0
 30 55  1  0
 31 56  1  0
M  CHG  2   1  -1  14  -1
M  END
>  <UniqueID>  (3) 
3

>  <SMILES>  (3) 
[NH-]S(=O)(=O)c1ccccc1CC(=O)[N-]CCCN(Cc1ccccc1)c1ccccc1

>  <Energy>  (3) 
53.94170251878726

>  <Genealogy>  (3) 
[NH-]S(=O)(=O)c1ccccc1CC(=O)[N-]CCCN(Cc1ccccc1)c1ccccc1 (protonated)
[NH-]S(=O)(=O)c1ccccc1CC(=O)[N-]CCCN(Cc1ccccc1)c1ccccc1 (3D coordinates assigned)
[NH-]S(=O)(=O)c1ccccc1CC(=O)[N-]CCCN(Cc1ccccc1)c1ccccc1 (optimized conformer: 53.94170251878726 kcal/mol)

>  <smiles>  (3) 
NS(=O)(=O)c1ccccc1CC(=O)NCCCN(Cc1ccccc1)c1ccccc1

>  <score_type>  (3) 
oracle

>  <origin>  (3) 
adg

>  <m_score__min__energy>  (3) 
-14.73

>  <m_primary>  (3) 
energy

$$$$
3:0
     RDKit          3D

 68 72  0  0  1  0  0  0  0  0999 V2000
   63.0130   34.5570   49.9180 C   0  0  0  0  0  0  0  0  0  0  0  0
   61.7480   33.8650   49.5580 C   0  0  0  0  0  0  0  0  0  0  0  0
   60.9040   34.4910   48.6470 C   0  0  0  0  0  0  0  0  0  0  0  0
   59.7250   33.8510   48.3070 C   0  0  0  0  0  0  0  0  0  0  0  0
   58.8280   34.4750   47.3640 N   0  0  0  0  0  0  0  0  0  0  0  0
   58.3670   33.7840   46.3770 C   0  0  0  0  0  0  0  0  0  0  0  0
   59.0480   33.1790   45.3330 C   0  0  0  0  0  0  0  0  0  0  0  0
   58.0580   32.5780   44.5730 C   0  0  0  0  0  0  0  0  0  0  0  0
   58.2870   31.7860   43.3160 C   0  0  0  0  0  0  0  0  0  0  0  0
   57.0180   31.1700   42.6640 C   0  0  0  0  0  0  0  0  0  0  0  0
   57.7570   32.2730   42.0390 C   0  0  0  0  0  0  0  0  0  0  0  0
   56.8560   32.8020   45.1180 N   0  0  0  0  0  0  0  0  0  0  0  0
   57.0630   33.5310   46.2050 N   0  0  0  0  0  0  0  0  0  0  0  0
   59.4270   32.6590   48.8570 N   0  0  0  0  0  0  0  0  0  0  0  0
   60.2490   32.0590   49.7380 C   0  0  0  0  0  0  0  0  0  0  0  0
   59.9650   30.9090   50.2700 N   0  0  0  0  0  0  0  0  0  0  0  0
   59.9700   29.7350   49.4670 C   0  0  0  0  0  0  0  0  0  0  0  0
   60.4320   28.5120   49.9310 C   0  0  0  0  0  0  0  0  0  0  0  0
   60.3910   27.4320   49.0620 C   0  0  0  0  0  0  0  0  0  0  0  0
   59.9070   27.5530   47.7660 C   0  0  0  0  0  0  0  0  0  0  0  0
   59.8750   26.4450   46.9050 N   0  0  0  0  0  0  0  0  0  0  0  0
   58.7440   25.6110   46.6930 C   0  0  0  0  0  0  0  0  0  0  0  0
   57.6980   25.9290   47.3560 O   0  0  0  0  0  0  0  0  0  0  0  0
   58.7910   24.4870   45.7880 C   0  0  0  0  0  0  0  0  0  0  0  0
   59.9050   23.8750   45.6430 O   0  0  0  0  0  0  0  0  0  0  0  0
   57.6640   24.0520   45.0740 N   0  0  0  0  0  0  0  0  0  0  0  0
   56.3790   24.6990   45.1950 C   0  0  0  0  0  0  0  0  0  0  0  0
   57.7670   22.9040   44.1650 C   0  0  0  0  0  0  0  0  0  0  0  0
   59.4450   28.7790   47.2990 C   0  0  0  0  0  0  0  0  0  0  0  0
   58.9420   28.9460   45.9790 N   0  0  0  0  0  0  0  0  0  0  0  0
   59.6990   28.6080   44.7910 C   0  0  0  0  0  0  0  0  0  0  0  0
   58.8900   27.6030   44.0090 C   0  0  0  0  0  0  0  0  0  0  0  0
   57.5990   27.4600   44.4820 O   0  0  0  0  0  0  0  0  0  0  0  0
   56.9430   28.6540   44.7040 C   0  0  0  0  0  0  0  0  0  0  0  0
   57.6020   29.4830   45.7930 C   0  0  0  0  0  0  0  0  0  0  0  0
   59.4920   29.8420   48.1760 C   0  0  0  0  0  0  0  0  0  0  0  0
   61.4090   32.6570   50.0910 N   0  0  0  0  0  0  0  0  0  0  0  0
   63.1047   34.6072   51.0130 H   0  0  0  0  0  0  0  0  0  0  0  0
   63.8663   34.0001   49.5037 H   0  0  0  0  0  0  0  0  0  0  0  0
   63.0043   35.5760   49.5037 H   0  0  0  0  0  0  0  0  0  0  0  0
   61.1658   35.4658   48.2097 H   0  0  0  0  0  0  0  0  0  0  0  0
   60.1325   33.1765   45.1488 H   0  0  0  0  0  0  0  0  0  0  0  0
   59.2758   31.4421   43.6538 H   0  0  0  0  0  0  0  0  0  0  0  0
   57.0518   30.1609   42.2275 H   0  0  0  0  0  0  0  0  0  0  0  0
   55.9778   30.9924   42.9745 H   0  0  0  0  0  0  0  0  0  0  0  0
   58.3232   32.0864   41.1145 H   0  0  0  0  0  0  0  0  0  0  0  0
   57.4610   33.2684   41.6764 H   0  0  0  0  0  0  0  0  0  0  0  0
   55.9490   32.4640   44.7490 H   0  0  0  0  0  0  0  0  0  0  0  0
   56.2630   33.8390   46.8120 H   0  0  0  0  0  0  0  0  0  0  0  0
   58.5450   32.2140   48.5820 H   0  0  0  0  0  0  0  0  0  0  0  0
   60.8184   28.4024   50.9551 H   0  0  0  0  0  0  0  0  0  0  0  0
   60.7518   26.4525   49.4089 H   0  0  0  0  0  0  0  0  0  0  0  0
   60.7430   26.1980   46.3690 H   0  0  0  0  0  0  0  0  0  0  0  0
   56.1303   24.8242   46.2592 H   0  0  0  0  0  0  0  0  0  0  0  0
   56.4177   25.6851   44.7090 H   0  0  0  0  0  0  0  0  0  0  0  0
   55.6099   24.0807   44.7090 H   0  0  0  0  0  0  0  0  0  0  0  0
   57.8501   21.9776   44.7523 H   0  0  0  0  0  0  0  0  0  0  0  0
   56.8695   22.8568   43.5308 H   0  0  0  0  0  0  0  0  0  0  0  0
   58.6586   23.0173   43.5308 H   0  0  0  0  0  0  0  0  0  0  0  0
   59.8669   29.5095   44.1834 H   0  0  0  0  0  0  0  0  0  0  0  0
   60.6795   28.1896   45.0622 H   0  0  0  0  0  0  0  0  0  0  0  0
   58.8442   27.9307   42.9599 H   0  0  0  0  0  0  0  0  0  0  0  0
   59.3878   26.6278   44.1146 H   0  0  0  0  0  0  0  0  0  0  0  0
   56.9412   29.2351   43.7700 H   0  0  0  0  0  0  0  0  0  0  0  0
   55.9205   28.4185   45.0342 H   0  0  0  0  0  0  0  0  0  0  0  0
   57.6563   30.5377   45.4852 H   0  0  0  0  0  0  0  0  0  0  0  0
   57.0249   29.4355   46.7283 H   0  0  0  0  0  0  0  0  0  0  0  0
   59.1314   30.8222   47.8306 H   0  0  0  0  0  0  0  0  0  0  0  0
  1  2  1  0
  2  3  1  0
  3  4  2  0
  4  5  1  0
  5  6  2  0
  6  7  1  0
  7  8  2  0
  8  9  1  0
  9 10  1  0
 10 11  1  0
  8 12  1  0
 12 13  1  0
  4 14  1  0
 14 15  1  0
 15 16  2  0
 16 17  1  0
 17 18  2  0
 18 19  1  0
 19 20  2  0
 20 21  1  0
 21 22  1  0
 22 23  2  0
 22 24  1  0
 24 25  2  0
 24 26  1  0
 26 27  1  0
 26 28  1  0
 20 29  1  0
 29 30  1  0
 30 31  1  0
 31 32  1  0
 32 33  1  0
 33 34  1  0
 34 35  1  0
 29 36  2  0
 15 37  1  0
 37  2  2  0
 13  6  1  0
 36 17  1  0
 11  9  1  0
 35 30  1  0
  1 38  1  0
  1 39  1  0
  1 40  1  0
  3 41  1  0
  7 42  1  0
  9 43  1  0
 10 44  1  0
 10 45  1  0
 11 46  1  0
 11 47  1  0
 12 48  1  0
 13 49  1  0
 14 50  1  0
 18 51  1  0
 19 52  1  0
 21 53  1  0
 27 54  1  0
 27 55  1  0
 27 56  1  0
 28 57  1  0
 28 58  1  0
 28 59  1  0
 31 60  1  0
 31 61  1  0
 32 62  1  0
 32 63  1  0
 34 64  1  0
 34 65  1  0
 35 66  1  0
 35 67  1  0
 36 68  1  0
M  END
>  <smiles>  (4) 
Cc1cc(N=c2cc(C3CC3)[nH][nH]2)[nH]c(=Nc2ccc(NC(=O)C(=O)N(C)C)c(N3CCOCC3)c2)n1

>  <score_type>  (4) 
oracle

>  <origin>  (4) 
adg

>  <m_score__min__energy>  (4) 
-9.8699999999999992

>  <m_primary>  (4) 
energy

$$$$
4:0
     RDKit          3D

 39 41  0  0  1  0  0  0  0  0999 V2000
   57.4150   28.3220   43.6900 O   0  0  0  0  0  0  0  0  0  0  0  0
   56.6390   29.3120   43.9250 C   0  0  0  0  0  0  0  0  0  0  0  0
   55.9420   29.2600   45.1030 O   0  0  0  0  0  0  0  0  0  0  0  0
   56.5980   30.3640   42.9100 C   0  0  0  0  0  0  0  0  0  0  0  0
   57.5510   31.4810   43.1270 C   0  0  0  0  0  0  0  0  0  0  0  0
   57.3860   32.2520   44.3640 C   0  0  0  0  0  0  0  0  0  0  0  0
   57.2420   33.5000   44.4250 O   0  0  0  0  0  0  0  0  0  0  0  0
   57.3880   31.5470   45.5970 N   0  0  0  0  0  0  0  0  0  0  0  0
   58.3940   31.0670   46.2110 C   0  0  0  0  0  0  0  0  0  0  0  0
   58.6900   29.7590   46.1290 N   0  0  0  0  0  0  0  0  0  0  0  0
   59.7990   29.3200   46.8260 C   0  0  0  0  0  0  0  0  0  0  0  0
   60.1290   27.5850   46.6720 S   0  0  0  0  0  0  0  0  0  0  0  0
   58.7320   26.6830   46.1570 C   0  0  0  0  0  0  0  0  0  0  0  0
   57.4910   27.0390   46.7270 C   0  0  0  0  0  0  0  0  0  0  0  0
   56.3250   26.3950   46.3950 C   0  0  0  0  0  0  0  0  0  0  0  0
   56.2960   25.3640   45.4830 C   0  0  0  0  0  0  0  0  0  0  0  0
   55.0620   24.7310   45.1740 N   0  0  0  0  0  0  0  0  0  0  0  0
   55.0730   23.6890   44.4770 O   0  0  0  0  0  0  0  0  0  0  0  0
   53.8790   25.2510   45.6300 O   0  0  0  0  0  0  0  0  0  0  0  0
   57.4950   24.9990   44.9140 C   0  0  0  0  0  0  0  0  0  0  0  0
   58.6780   25.6550   45.2550 C   0  0  0  0  0  0  0  0  0  0  0  0
   60.5430   30.1330   47.5450 N   0  0  0  0  0  0  0  0  0  0  0  0
   60.2970   31.4890   47.6730 C   0  0  0  0  0  0  0  0  0  0  0  0
   60.9680   32.3450   48.3490 N   0  0  0  0  0  0  0  0  0  0  0  0
   60.6010   33.6500   48.3790 C   0  0  0  0  0  0  0  0  0  0  0  0
   61.0170   34.6540   48.9050 O   0  0  0  0  0  0  0  0  0  0  0  0
   59.0670   33.6470   47.2770 S   0  0  0  0  0  0  0  0  0  0  0  0
   59.1700   31.8820   46.9530 C   0  0  0  0  0  0  0  0  0  0  0  0
   55.7520   30.1110   45.6320 H   0  0  0  0  0  0  0  0  0  0  0  0
   56.8238   29.9070   41.9353 H   0  0  0  0  0  0  0  0  0  0  0  0
   55.5911   30.8037   42.9628 H   0  0  0  0  0  0  0  0  0  0  0  0
   58.5664   31.0580   43.1299 H   0  0  0  0  0  0  0  0  0  0  0  0
   57.3547   32.1932   42.3120 H   0  0  0  0  0  0  0  0  0  0  0  0
   58.1090   29.1300   45.5700 H   0  0  0  0  0  0  0  0  0  0  0  0
   57.4570   27.8582   47.4603 H   0  0  0  0  0  0  0  0  0  0  0  0
   55.3858   26.7122   46.8718 H   0  0  0  0  0  0  0  0  0  0  0  0
   57.5207   24.1794   44.1808 H   0  0  0  0  0  0  0  0  0  0  0  0
   59.6132   25.3302   44.7755 H   0  0  0  0  0  0  0  0  0  0  0  0
   61.8520   32.0930   48.9260 H   0  0  0  0  0  0  0  0  0  0  0  0
  1  2  2  0
  2  3  1  0
  2  4  1  0
  4  5  1  0
  5  6  1  0
  6  7  2  0
  6  8  1  0
  8  9  2  0
  9 10  1  0
 10 11  1  0
 11 12  1  0
 12 13  1  0
 13 14  2  0
 14 15  1  0
 15 16  2  0
 16 17  1  0
 17 18  2  0
 17 19  1  0
 16 20  1  0
 20 21  2  0
 11 22  2  0
 22 23  1  0
 23 24  1  0
 24 25  1  0
 25 26  2  0
 25 27  1  0
 27 28  1  0
 28  9  1  0
 21 13  1  0
 28 23  2  0
  3 29  1  0
  4 30  1  0
  4 31  1  0
  5 32  1  0
  5 33  1  0
 10 34  1  0
 14 35  1  0
 15 36  1  0
 20 37  1  0
 21 38  1  0
 24 39  1  0
M  CHG  2  17   1  19  -1
M  END
>  <smiles>  (5) 
O=C(O)CCC(=O)N=c1[nH]c(Sc2ccc([N+](=O)[O-])cc2)nc2[nH]c(=O)sc12

>  <score_type>  (5) 
oracle

>  <origin>  (5) 
adg

>  <m_score__min__energy>  (5) 
-9.1099999999999994

>  <m_primary>  (5) 
energy

$$$$
5:0
     RDKit          3D

 25 25  0  0  0  0  0  0  0  0999 V2000
   55.3210   25.4450   45.6160 C   0  0  0  0  0  0  0  0  0  0  0  0
   55.6770   26.8180   45.9680 N   0  0  0  0  0  0  0  0  0  0  0  0
   57.3660   27.0940   45.6580 S   0  0  0  0  0  0  0  0  0  0  0  0
   57.9890   25.8010   45.2190 O   0  0  0  0  0  0  0  0  0  0  0  0
   58.0460   27.5530   46.9200 O   0  0  0  0  0  0  0  0  0  0  0  0
   57.5770   28.2980   44.3460 C   0  0  0  0  0  0  0  0  0  0  0  0
   56.7710   29.5430   44.6010 C   0  0  0  0  0  0  0  0  0  0  0  0
   55.5460   29.4100   44.8740 O   0  0  0  0  0  0  0  0  0  0  0  0
   57.3680   30.9080   44.5550 C   0  0  0  0  0  0  0  0  0  0  0  0
   57.7570   31.5420   45.7520 C   0  0  0  0  0  0  0  0  0  0  0  0
   58.3220   32.8210   45.7310 C   0  0  0  0  0  0  0  0  0  0  0  0
   58.5080   33.4850   44.5180 C   0  0  0  0  0  0  0  0  0  0  0  0
   59.0560   34.7250   44.4990 F   0  0  0  0  0  0  0  0  0  0  0  0
   58.1290   32.8710   43.3230 C   0  0  0  0  0  0  0  0  0  0  0  0
   57.5640   31.5920   43.3380 C   0  0  0  0  0  0  0  0  0  0  0  0
   55.1690   24.8587   46.5342 H   0  0  0  0  0  0  0  0  0  0  0  0
   54.3936   25.4468   45.0244 H   0  0  0  0  0  0  0  0  0  0  0  0
   56.1324   24.9960   45.0244 H   0  0  0  0  0  0  0  0  0  0  0  0
   55.1440   27.4550   45.3330 H   0  0  0  0  0  0  0  0  0  0  0  0
   58.6409   28.5693   44.2783 H   0  0  0  0  0  0  0  0  0  0  0  0
   57.2256   27.8474   43.4061 H   0  0  0  0  0  0  0  0  0  0  0  0
   57.6147   31.0255   46.7127 H   0  0  0  0  0  0  0  0  0  0  0  0
   58.6204   33.3047   46.6728 H   0  0  0  0  0  0  0  0  0  0  0  0
   58.2752   33.3948   42.3668 H   0  0  0  0  0  0  0  0  0  0  0  0
   57.2697   31.1152   42.3914 H   0  0  0  0  0  0  0  0  0  0  0  0
  1  2  1  0
  2  3  1  0
  3  4  2  0
  3  5  2  0
  3  6  1  0
  6  7  1  0
  7  8  2  0
  7  9  1  0
  9 10  2  0
 10 11  1  0
 11 12  2  0
 12 13  1  0
 12 14  1  0
 14 15  2  0
 15  9  1  0
  1 16  1  0
  1 17  1  0
  1 18  1  0
  2 19  1  0
  6 20  1  0
  6 21  1  0
 10 22  1  0
 11 23  1  0
 14 24  1  0
 15 25  1  0
M  END
>  <UniqueID>  (6) 
4

>  <SMILES>  (6) 
CNS(=O)(=O)CC(=O)c1ccc(F)cc1

>  <Energy>  (6) 
18.398243389074516

>  <Genealogy>  (6) 
CNS(=O)(=O)CC(=O)c1ccc(F)cc1 (3D coordinates assigned)
CNS(=O)(=O)CC(=O)c1ccc(F)cc1 (optimized conformer: 18.398243389074516 kcal/mol)

>  <smiles>  (6) 
CNS(=O)(=O)CC(=O)c1ccc(F)cc1

>  <score_type>  (6) 
oracle

>  <origin>  (6) 
adg

>  <m_score__min__energy>  (6) 
-6.4000000000000004

>  <m_primary>  (6) 
energy

$$$$
6:0
     RDKit          3D

 58 61  0  0  0  0  0  0  0  0999 V2000
   56.2379   22.3769   46.2998 H   0  0  0  0  0  0  0  0  0  0  0  0
   56.4110   23.4630   46.2770 C   0  0  0  0  0  0  0  0  0  0  0  0
   55.3530   24.3410   46.0180 C   0  0  0  0  0  0  0  0  0  0  0  0
   53.9740   23.8150   45.7810 C   0  0  0  0  0  0  0  0  0  0  0  0
   53.4821   23.6274   46.7468 H   0  0  0  0  0  0  0  0  0  0  0  0
   53.3925   24.5544   45.2109 H   0  0  0  0  0  0  0  0  0  0  0  0
   54.0326   22.8761   45.2109 H   0  0  0  0  0  0  0  0  0  0  0  0
   55.5790   25.6830   46.0080 N   0  0  0  0  0  0  0  0  0  0  0  0
   56.8150   26.2140   46.2310 C   0  0  0  0  0  0  0  0  0  0  0  0
   57.0020   27.6010   46.2090 O   0  0  0  0  0  0  0  0  0  0  0  0
   57.2990   28.3230   45.0180 C   0  0  0  0  0  0  0  0  0  0  0  0
   58.3365   28.6862   45.0594 H   0  0  0  0  0  0  0  0  0  0  0  0
   57.1747   27.6602   44.1490 H   0  0  0  0  0  0  0  0  0  0  0  0
   56.3710   29.4850   44.8910 C   0  0  0  0  0  0  0  0  0  0  0  0
   55.1250   29.2980   44.8380 O   0  0  0  0  0  0  0  0  0  0  0  0
   56.8740   30.7800   44.8770 O   0  0  0  0  0  0  0  0  0  0  0  0
   57.9070   25.3610   46.4780 C   0  0  0  0  0  0  0  0  0  0  0  0
   59.2890   25.9180   46.7270 C   0  0  0  0  0  0  0  0  0  0  0  0
   59.4685   26.7557   46.0371 H   0  0  0  0  0  0  0  0  0  0  0  0
   60.0240   25.1166   46.5612 H   0  0  0  0  0  0  0  0  0  0  0  0
   59.4240   26.3950   48.1030 N   0  0  0  0  0  0  0  0  0  0  0  0
   59.7610   27.6030   48.4470 C   0  0  0  0  0  0  0  0  0  0  0  0
   60.7800   28.0230   49.7200 S   0  0  0  0  0  0  0  0  0  0  0  0
   60.6550   29.6780   49.4130 C   0  0  0  0  0  0  0  0  0  0  0  0
   61.4440   30.7320   50.1430 C   0  0  0  0  0  0  0  0  0  0  0  0
   60.7646   31.2915   50.8028 H   0  0  0  0  0  0  0  0  0  0  0  0
   62.2326   30.2280   50.7210 H   0  0  0  0  0  0  0  0  0  0  0  0
   62.1060   31.6980   49.1930 C   0  0  0  0  0  0  0  0  0  0  0  0
   62.7300   31.2330   48.0210 C   0  0  0  0  0  0  0  0  0  0  0  0
   62.7494   30.1551   47.8024 H   0  0  0  0  0  0  0  0  0  0  0  0
   63.3260   32.1340   47.1320 C   0  0  0  0  0  0  0  0  0  0  0  0
   63.8211   31.7624   46.2227 H   0  0  0  0  0  0  0  0  0  0  0  0
   63.2930   33.5060   47.3980 C   0  0  0  0  0  0  0  0  0  0  0  0
   63.7671   34.2127   46.7010 H   0  0  0  0  0  0  0  0  0  0  0  0
   62.6580   33.9800   48.5490 C   0  0  0  0  0  0  0  0  0  0  0  0
   62.6286   35.0601   48.7550 H   0  0  0  0  0  0  0  0  0  0  0  0
   62.0600   33.0830   49.4390 C   0  0  0  0  0  0  0  0  0  0  0  0
   61.5504   33.4620   50.3371 H   0  0  0  0  0  0  0  0  0  0  0  0
   59.8070   29.8540   48.3090 C   0  0  0  0  0  0  0  0  0  0  0  0
   59.4820   31.1600   47.7060 C   0  0  0  0  0  0  0  0  0  0  0  0
   59.8970   31.4470   46.3970 C   0  0  0  0  0  0  0  0  0  0  0  0
   60.4714   30.7010   45.8281 H   0  0  0  0  0  0  0  0  0  0  0  0
   59.5830   32.6780   45.8130 C   0  0  0  0  0  0  0  0  0  0  0  0
   59.9194   32.9000   44.7895 H   0  0  0  0  0  0  0  0  0  0  0  0
   58.8380   33.6350   46.5290 C   0  0  0  0  0  0  0  0  0  0  0  0
   58.5020   34.8850   45.9880 O   0  0  0  0  0  0  0  0  0  0  0  0
   59.3020   35.5960   45.0500 C   0  0  0  0  0  0  0  0  0  0  0  0
   60.0190   36.2333   45.5883 H   0  0  0  0  0  0  0  0  0  0  0  0
   59.8493   34.8808   44.4184 H   0  0  0  0  0  0  0  0  0  0  0  0
   58.6560   36.2235   44.4184 H   0  0  0  0  0  0  0  0  0  0  0  0
   58.4070   33.3320   47.8260 C   0  0  0  0  0  0  0  0  0  0  0  0
   57.8185   34.0697   48.3913 H   0  0  0  0  0  0  0  0  0  0  0  0
   58.7180   32.1000   48.4090 C   0  0  0  0  0  0  0  0  0  0  0  0
   58.3614   31.8681   49.4234 H   0  0  0  0  0  0  0  0  0  0  0  0
   59.3260   28.6940   47.7830 N   0  0  0  0  0  0  0  0  0  0  0  0
   58.6890   28.6500   46.9550 H   0  0  0  0  0  0  0  0  0  0  0  0
   57.6870   23.9770   46.5060 C   0  0  0  0  0  0  0  0  0  0  0  0
   58.5244   23.2934   46.7095 H   0  0  0  0  0  0  0  0  0  0  0  0
  1  2  1  0
  2  3  2  0
  3  4  1  0
  4  5  1  0
  4  6  1  0
  4  7  1  0
  3  8  1  0
  8  9  2  0
  9 10  1  0
 10 11  1  0
 11 12  1  0
 11 13  1  0
 11 14  1  0
 14 15  2  0
 14 16  1  0
  9 17  1  0
 17 18  1  0
 18 19  1  0
 18 20  1  0
 18 21  1  0
 21 22  2  0
 22 23  1  0
 23 24  1  0
 24 25  1  0
 25 26  1  0
 25 27  1  0
 25 28  1  0
 28 29  2  0
 29 30  1  0
 29 31  1  0
 31 32  1  0
 31 33  2  0
 33 34  1  0
 33 35  1  0
 35 36  1  0
 35 37  2  0
 37 38  1  0
 24 39  2  0
 39 40  1  0
 40 41  2  0
 41 42  1  0
 41 43  1  0
 43 44  1  0
 43 45  2  0
 45 46  1  0
 46 47  1  0
 47 48  1  0
 47 49  1  0
 47 50  1  0
 45 51  1  0
 51 52  1  0
 51 53  2  0
 53 54  1  0
 39 55  1  0
 55 56  1  0
 17 57  2  0
 57 58  1  0
 57  2  1  0
 55 22  1  0
 37 28  1  0
 53 40  1  0
M  CHG  1  16  -1
M  END
>  <UniqueID>  (7) 
5

>  <SMILES>  (7) 
COc1ccc(-c2[nH]/c(=N/Cc3ccc(C)nc3OCC(=O)[O-])sc2Cc2ccccc2)cc1

>  <Energy>  (7) 
91.60364363938962

>  <Genealogy>  (7) 
COc1ccc(-c2[nH]c(=NCc3ccc(C)nc3OCC(=O)[O-])sc2Cc2ccccc2)cc1 (protonated)
COc1ccc(-c2[nH]/c(=N/Cc3ccc(C)nc3OCC(=O)[O-])sc2Cc2ccccc2)cc1 (cis-trans isomerization)
COc1ccc(-c2[nH]/c(=N/Cc3ccc(C)nc3OCC(=O)[O-])sc2Cc2ccccc2)cc1 (3D coordinates assigned)
COc1ccc(-c2[nH]/c(=N/Cc3ccc(C)nc3OCC(=O)[O-])sc2Cc2ccccc2)cc1 (optimized conformer: 91.60364363938962 kcal/mol)

>  <smiles>  (7) 
COc1ccc(-c2[nH]c(=NCc3ccc(C)nc3OCC(=O)O)sc2Cc2ccccc2)cc1

>  <score_type>  (7) 
oracle

>  <origin>  (7) 
adg

>  <m_score__min__energy>  (7) 
-11.699999999999999

>  <m_primary>  (7) 
energy

$$$$
7:0
     RDKit          3D

 54 54  0  0  0  0  0  0  0  0999 V2000
   66.7390   32.6150   50.3610 C   0  0  0  0  0  0  0  0  0  0  0  0
   65.3810   33.0720   49.8260 C   0  0  0  0  0  0  0  0  0  0  0  0
   64.3040   31.9770   49.9350 C   0  0  0  0  0  0  0  0  0  0  0  0
   63.1920   32.1040   48.8790 C   0  0  0  0  0  0  0  0  0  0  0  0
   63.7520   32.3780   47.4700 C   0  0  0  0  0  0  0  0  0  0  0  0
   63.1870   33.6650   46.8490 C   0  0  0  0  0  0  0  0  0  0  0  0
   61.7240   33.5110   46.3950 C   0  0  0  0  0  0  0  0  0  0  0  0
   60.7470   34.3470   47.2410 C   0  0  0  0  0  0  0  0  0  0  0  0
   59.6380   35.0710   46.4490 C   0  0  0  0  0  0  0  0  0  0  0  0
   59.2400   34.3710   45.1320 C   0  0  0  0  0  0  0  0  0  0  0  0
   57.7300   34.4510   44.8600 C   0  0  0  0  0  0  0  0  0  0  0  0
   56.9970   33.2120   45.3900 C   0  0  0  0  0  0  0  0  0  0  0  0
   57.9010   31.9940   45.3250 C   0  0  0  0  0  0  0  0  0  0  0  0
   58.0620   31.2420   44.1360 C   0  0  0  0  0  0  0  0  0  0  0  0
   57.3940   31.6540   42.8490 C   0  0  0  0  0  0  0  0  0  0  0  0
   58.8610   30.1340   44.1390 N   0  0  0  0  0  0  0  0  0  0  0  0
   59.5110   29.7040   45.2580 C   0  0  0  0  0  0  0  0  0  0  0  0
   60.3800   28.4780   45.1930 C   0  0  0  0  0  0  0  0  0  0  0  0
   59.3670   30.4140   46.4620 C   0  0  0  0  0  0  0  0  0  0  0  0
   60.2800   29.8610   48.0650 Br  0  0  0  0  0  0  0  0  0  0  0  0
   58.5530   31.5510   46.4940 C   0  0  0  0  0  0  0  0  0  0  0  0
   58.4090   32.1780   47.5780 O   0  0  0  0  0  0  0  0  0  0  0  0
   66.7207   32.6211   51.4608 H   0  0  0  0  0  0  0  0  0  0  0  0
   66.9500   31.5964   50.0035 H   0  0  0  0  0  0  0  0  0  0  0  0
   67.5229   33.2988   50.0035 H   0  0  0  0  0  0  0  0  0  0  0  0
   65.0518   33.9489   50.4028 H   0  0  0  0  0  0  0  0  0  0  0  0
   65.5060   33.3121   48.7598 H   0  0  0  0  0  0  0  0  0  0  0  0
   64.7896   30.9975   49.8135 H   0  0  0  0  0  0  0  0  0  0  0  0
   63.8287   32.0870   50.9209 H   0  0  0  0  0  0  0  0  0  0  0  0
   62.6180   31.1660   48.8552 H   0  0  0  0  0  0  0  0  0  0  0  0
   62.5567   32.9568   49.1603 H   0  0  0  0  0  0  0  0  0  0  0  0
   64.8460   32.4704   47.5376 H   0  0  0  0  0  0  0  0  0  0  0  0
   63.4546   31.5384   46.8245 H   0  0  0  0  0  0  0  0  0  0  0  0
   63.2409   34.4700   47.5967 H   0  0  0  0  0  0  0  0  0  0  0  0
   63.7893   33.8973   45.9584 H   0  0  0  0  0  0  0  0  0  0  0  0
   61.6455   33.8332   45.3462 H   0  0  0  0  0  0  0  0  0  0  0  0
   61.4481   32.4533   46.5181 H   0  0  0  0  0  0  0  0  0  0  0  0
   60.2633   33.6743   47.9646 H   0  0  0  0  0  0  0  0  0  0  0  0
   61.3514   35.1383   47.7086 H   0  0  0  0  0  0  0  0  0  0  0  0
   58.7450   35.1370   47.0879 H   0  0  0  0  0  0  0  0  0  0  0  0
   60.0394   36.0574   46.1735 H   0  0  0  0  0  0  0  0  0  0  0  0
   59.7749   34.8526   44.3002 H   0  0  0  0  0  0  0  0  0  0  0  0
   59.5090   33.3082   45.2222 H   0  0  0  0  0  0  0  0  0  0  0  0
   57.3244   35.3455   45.3554 H   0  0  0  0  0  0  0  0  0  0  0  0
   57.5775   34.5031   43.7719 H   0  0  0  0  0  0  0  0  0  0  0  0
   56.6986   33.3865   46.4343 H   0  0  0  0  0  0  0  0  0  0  0  0
   56.1081   33.0301   44.7681 H   0  0  0  0  0  0  0  0  0  0  0  0
   56.4779   32.2190   43.0759 H   0  0  0  0  0  0  0  0  0  0  0  0
   58.0798   32.2862   42.2660 H   0  0  0  0  0  0  0  0  0  0  0  0
   57.1368   30.7574   42.2660 H   0  0  0  0  0  0  0  0  0  0  0  0
   58.9820   29.5950   43.2510 H   0  0  0  0  0  0  0  0  0  0  0  0
   60.6178   28.1426   46.2133 H   0  0  0  0  0  0  0  0  0  0  0  0
   59.8461   27.6780   44.6591 H   0  0  0  0  0  0  0  0  0  0  0  0
   61.3116   28.7168   44.6591 H   0  0  0  0  0  0  0  0  0  0  0  0
  1  2  1  0
  2  3  1  0
  3  4  1  0
  4  5  1  0
  5  6  1  0
  6  7  1  0
  7  8  1  0
  8  9  1  0
  9 10  1  0
 10 11  1  0
 11 12  1  0
 12 13  1  0
 13 14  2  0
 14 15  1  0
 14 16  1  0
 16 17  1  0
 17 18  1  0
 17 19  2  0
 19 20  1  0
 19 21  1  0
 21 22  2  0
 21 13  1  0
  1 23  1  0
  1 24  1  0
  1 25  1  0
  2 26  1  0
  2 27  1  0
  3 28  1  0
  3 29  1  0
  4 30  1  0
  4 31  1  0
  5 32  1  0
  5 33  1  0
  6 34  1  0
  6 35  1  0
  7 36  1  0
  7 37  1  0
  8 38  1  0
  8 39  1  0
  9 40  1  0
  9 41  1  0
 10 42  1  0
 10 43  1  0
 11 44  1  0
 11 45  1  0
 12 46  1  0
 12 47  1  0
 15 48  1  0
 15 49  1  0
 15 50  1  0
 16 51  1  0
 18 52  1  0
 18 53  1  0
 18 54  1  0
M  END
>  <UniqueID>  (8) 
6

>  <SMILES>  (8) 
CCCCCCCCCCCCc1c(C)[nH]c(C)c(Br)c1=O

>  <Energy>  (8) 
34.250811869969695

>  <Genealogy>  (8) 
CCCCCCCCCCCCc1c(C)[nH]c(C)c(Br)c1=O (3D coordinates assigned)
CCCCCCCCCCCCc1c(C)[nH]c(C)c(Br)c1=O (optimized conformer: 34.250811869969695 kcal/mol)

>  <smiles>  (8) 
CCCCCCCCCCCCc1c(C)[nH]c(C)c(Br)c1=O

>  <score_type>  (8) 
oracle

>  <origin>  (8) 
adg

>  <m_score__min__energy>  (8) 
-7.3799999999999999

>  <m_primary>  (8) 
energy

$$$$
8:0
     RDKit          3D

 36 38  0  0  0  0  0  0  0  0999 V2000
   57.7900   31.9120   42.7320 O   0  0  0  0  0  0  0  0  0  0  0  0
   58.0390   31.6030   43.9270 C   0  0  0  0  0  0  0  0  0  0  0  0
   58.7470   32.5410   44.7510 N   0  0  0  0  0  0  0  0  0  0  0  0
   58.3420   32.9750   46.0860 C   0  0  0  0  0  0  0  0  0  0  0  0
   59.5180   32.8960   47.0660 C   0  0  0  0  0  0  0  0  0  0  0  0
   59.5790   31.5360   47.7060 C   0  0  0  0  0  0  0  0  0  0  0  0
   60.4500   30.5570   47.1970 C   0  0  0  0  0  0  0  0  0  0  0  0
   60.5360   29.3040   47.8100 C   0  0  0  0  0  0  0  0  0  0  0  0
   59.7620   29.0220   48.9400 C   0  0  0  0  0  0  0  0  0  0  0  0
   58.9030   29.9950   49.4610 C   0  0  0  0  0  0  0  0  0  0  0  0
   58.1410   29.7160   50.5880 O   0  0  0  0  0  0  0  0  0  0  0  0
   58.8150   31.2510   48.8490 C   0  0  0  0  0  0  0  0  0  0  0  0
   57.5710   30.3000   44.4460 C   0  0  0  0  0  0  0  0  0  0  0  0
   58.4900   29.3270   44.8560 C   0  0  0  0  0  0  0  0  0  0  0  0
   58.0290   28.1160   45.3760 C   0  0  0  0  0  0  0  0  0  0  0  0
   58.9150   27.1250   45.8220 C   0  0  0  0  0  0  0  0  0  0  0  0
   58.4180   25.9260   46.3400 C   0  0  0  0  0  0  0  0  0  0  0  0
   57.0370   25.7100   46.4140 C   0  0  0  0  0  0  0  0  0  0  0  0
   56.1470   26.6930   45.9690 C   0  0  0  0  0  0  0  0  0  0  0  0
   54.7760   26.4680   46.0450 O   0  0  0  0  0  0  0  0  0  0  0  0
   56.6360   27.8980   45.4490 C   0  0  0  0  0  0  0  0  0  0  0  0
   55.7910   28.8350   45.0240 O   0  0  0  0  0  0  0  0  0  0  0  0
   56.1970   30.0010   44.5320 C   0  0  0  0  0  0  0  0  0  0  0  0
   55.3360   30.8420   44.1590 O   0  0  0  0  0  0  0  0  0  0  0  0
   57.9853   34.0143   46.0343 H   0  0  0  0  0  0  0  0  0  0  0  0
   57.5407   32.3116   46.4437 H   0  0  0  0  0  0  0  0  0  0  0  0
   60.4558   33.0827   46.5222 H   0  0  0  0  0  0  0  0  0  0  0  0
   59.3784   33.6533   47.8515 H   0  0  0  0  0  0  0  0  0  0  0  0
   61.0661   30.7780   46.3130 H   0  0  0  0  0  0  0  0  0  0  0  0
   61.2133   28.5387   47.4031 H   0  0  0  0  0  0  0  0  0  0  0  0
   59.8288   28.0342   49.4194 H   0  0  0  0  0  0  0  0  0  0  0  0
   58.1448   32.0175   49.2652 H   0  0  0  0  0  0  0  0  0  0  0  0
   59.5702   29.5156   44.7689 H   0  0  0  0  0  0  0  0  0  0  0  0
   60.0008   27.2912   45.7642 H   0  0  0  0  0  0  0  0  0  0  0  0
   59.1141   25.1497   46.6906 H   0  0  0  0  0  0  0  0  0  0  0  0
   56.6507   24.7648   46.8231 H   0  0  0  0  0  0  0  0  0  0  0  0
  1  2  2  0
  2  3  1  0
  3  4  1  0
  4  5  1  0
  5  6  1  0
  6  7  2  0
  7  8  1  0
  8  9  2  0
  9 10  1  0
 10 11  1  0
 10 12  2  0
  2 13  1  0
 13 14  2  0
 14 15  1  0
 15 16  2  0
 16 17  1  0
 17 18  2  0
 18 19  1  0
 19 20  1  0
 19 21  2  0
 21 22  1  0
 22 23  1  0
 23 24  2  0
 12  6  1  0
 23 13  1  0
 21 15  1  0
  4 25  1  0
  4 26  1  0
  5 27  1  0
  5 28  1  0
  7 29  1  0
  8 30  1  0
  9 31  1  0
 12 32  1  0
 14 33  1  0
 16 34  1  0
 17 35  1  0
 18 36  1  0
M  CHG  3   3  -1  11  -1  20  -1
M  END
>  <UniqueID>  (9) 
7

>  <SMILES>  (9) 
O=C([N-]CCc1cccc([O-])c1)c1cc2cccc([O-])c2oc1=O

>  <Energy>  (9) 
44.565857185302136

>  <Genealogy>  (9) 
O=C([N-]CCc1cccc([O-])c1)c1cc2cccc([O-])c2oc1=O (protonated)
O=C([N-]CCc1cccc([O-])c1)c1cc2cccc([O-])c2oc1=O (3D coordinates assigned)
O=C([N-]CCc1cccc([O-])c1)c1cc2cccc([O-])c2oc1=O (optimized conformer: 44.565857185302136 kcal/mol)

>  <smiles>  (9) 
O=C(NCCc1cccc(O)c1)c1cc2cccc(O)c2oc1=O

>  <score_type>  (9) 
oracle

>  <origin>  (9) 
adg

>  <m_score__min__energy>  (9) 
-14.31

>  <m_primary>  (9) 
energy

$$$$
9:0
     RDKit          3D

 39 40  0  0  0  0  0  0  0  0999 V2000
   64.5340   32.5600   47.5100 H   0  0  0  0  0  0  0  0  0  0  0  0
   64.0790   33.4310   47.8630 N   0  0  0  0  0  0  0  0  0  0  0  0
   62.9560   33.4010   48.5100 C   0  0  0  0  0  0  0  0  0  0  0  0
   61.6830   33.2520   47.7620 C   0  0  0  0  0  0  0  0  0  0  0  0
   61.2800   32.0010   47.2610 C   0  0  0  0  0  0  0  0  0  0  0  0
   61.9027   31.1133   47.4460 H   0  0  0  0  0  0  0  0  0  0  0  0
   60.0950   31.8760   46.5300 C   0  0  0  0  0  0  0  0  0  0  0  0
   59.7945   30.8924   46.1399 H   0  0  0  0  0  0  0  0  0  0  0  0
   59.2870   32.9970   46.2910 C   0  0  0  0  0  0  0  0  0  0  0  0
   58.0910   32.8920   45.3850 C   0  0  0  0  0  0  0  0  0  0  0  0
   57.3637   32.1872   45.8143 H   0  0  0  0  0  0  0  0  0  0  0  0
   57.6172   33.8790   45.2786 H   0  0  0  0  0  0  0  0  0  0  0  0
   58.5260   32.4110   44.0800 N   0  0  0  0  0  0  0  0  0  0  0  0
   57.6030   32.0060   43.0650 C   0  0  0  0  0  0  0  0  0  0  0  0
   57.5150   32.6540   41.9880 O   0  0  0  0  0  0  0  0  0  0  0  0
   56.6470   30.8920   43.3430 C   0  0  0  0  0  0  0  0  0  0  0  0
   55.7742   31.2814   43.8876 H   0  0  0  0  0  0  0  0  0  0  0  0
   56.3096   30.4449   42.3963 H   0  0  0  0  0  0  0  0  0  0  0  0
   57.3440   29.8490   44.1820 C   0  0  0  0  0  0  0  0  0  0  0  0
   58.7430   29.7650   44.1500 C   0  0  0  0  0  0  0  0  0  0  0  0
   59.3216   30.5008   43.5722 H   0  0  0  0  0  0  0  0  0  0  0  0
   59.4050   28.7560   44.8450 C   0  0  0  0  0  0  0  0  0  0  0  0
   60.5034   28.7022   44.8186 H   0  0  0  0  0  0  0  0  0  0  0  0
   58.6810   27.8140   45.5740 C   0  0  0  0  0  0  0  0  0  0  0  0
   59.2154   27.0245   46.1228 H   0  0  0  0  0  0  0  0  0  0  0  0
   57.2740   27.8600   45.6170 C   0  0  0  0  0  0  0  0  0  0  0  0
   56.5390   26.8190   46.3860 C   0  0  0  0  0  0  0  0  0  0  0  0
   57.1260   26.1750   47.2970 O   0  0  0  0  0  0  0  0  0  0  0  0
   55.1720   26.5210   46.1110 N   0  0  0  0  0  0  0  0  0  0  0  0
   54.7550   26.7250   45.1760 H   0  0  0  0  0  0  0  0  0  0  0  0
   56.6060   28.8880   44.9070 C   0  0  0  0  0  0  0  0  0  0  0  0
   55.2160   28.9610   44.9070 O   0  0  0  0  0  0  0  0  0  0  0  0
   59.6780   34.2450   46.7960 C   0  0  0  0  0  0  0  0  0  0  0  0
   59.0535   35.1310   46.6092 H   0  0  0  0  0  0  0  0  0  0  0  0
   60.8580   34.3690   47.5360 C   0  0  0  0  0  0  0  0  0  0  0  0
   61.1439   35.3492   47.9453 H   0  0  0  0  0  0  0  0  0  0  0  0
   62.9620   33.4870   49.9410 N   0  0  0  0  0  0  0  0  0  0  0  0
   63.8560   33.6460   50.4580 H   0  0  0  0  0  0  0  0  0  0  0  0
   62.1010   33.3110   50.5020 H   0  0  0  0  0  0  0  0  0  0  0  0
  1  2  1  0
  2  3  2  0
  3  4  1  0
  4  5  2  0
  5  6  1  0
  5  7  1  0
  7  8  1  0
  7  9  2  0
  9 10  1  0
 10 11  1  0
 10 12  1  0
 10 13  1  0
 13 14  1  0
 14 15  2  0
 14 16  1  0
 16 17  1  0
 16 18  1  0
 16 19  1  0
 19 20  2  0
 20 21  1  0
 20 22  1  0
 22 23  1  0
 22 24  2  0
 24 25  1  0
 24 26  1  0
 26 27  1  0
 27 28  2  0
 27 29  1  0
 29 30  1  0
 26 31  2  0
 31 32  1  0
  9 33  1  0
 33 34  1  0
 33 35  2  0
 35 36  1  0
  3 37  1  0
 37 38  1  0
 37 39  1  0
 35  4  1  0
 31 19  1  0
M  CHG  3  13  -1  29  -1  32  -1
M  END
>  <UniqueID>  (10) 
8

>  <SMILES>  (10) 
[H]/N=C(\N)c1ccc(C[N-]C(=O)Cc2cccc(C([NH-])=O)c2[O-])cc1

>  <Energy>  (10) 
36.144243878499005

>  <Genealogy>  (10) 
N=C(N)c1ccc(C[N-]C(=O)Cc2cccc(C([NH-])=O)c2[O-])cc1 (protonated)
[H]/N=C(\N)c1ccc(C[N-]C(=O)Cc2cccc(C([NH-])=O)c2[O-])cc1 (cis-trans isomerization)
[H]/N=C(\N)c1ccc(C[N-]C(=O)Cc2cccc(C([NH-])=O)c2[O-])cc1 (3D coordinates assigned)
[H]/N=C(\N)c1ccc(C[N-]C(=O)Cc2cccc(C([NH-])=O)c2[O-])cc1 (optimized conformer: 36.144243878499005 kcal/mol)

>  <smiles>  (10) 
N=C(N)c1ccc(CNC(=O)Cc2cccc(C(N)=O)c2O)cc1

>  <score_type>  (10) 
oracle

>  <origin>  (10) 
adg

>  <m_score__min__energy>  (10) 
-15.710000000000001

>  <m_primary>  (10) 
energy

$$$$
10:0
     RDKit          3D

 46 48  0  0  0  0  0  0  0  0999 V2000
   58.2030   29.3790   44.4850 C   0  0  0  0  0  0  0  0  0  0  0  0
   56.5360   29.9330   44.1880 S   0  0  0  0  0  0  0  0  0  0  0  0
   55.5480   29.0310   44.8720 O   0  0  0  0  0  0  0  0  0  0  0  0
   56.2710   29.9060   42.7090 O   0  0  0  0  0  0  0  0  0  0  0  0
   56.3280   31.5600   44.7550 N   0  0  0  0  0  0  0  0  0  0  0  0
   57.3690   32.4240   45.2370 C   0  0  0  0  0  0  0  0  0  0  0  0
   57.7600   33.5070   44.4400 C   0  0  0  0  0  0  0  0  0  0  0  0
   58.7630   34.3780   44.8730 C   0  0  0  0  0  0  0  0  0  0  0  0
   59.3910   34.1710   46.1060 C   0  0  0  0  0  0  0  0  0  0  0  0
   59.0200   33.0790   46.9140 C   0  0  0  0  0  0  0  0  0  0  0  0
   59.6320   32.8060   48.1490 O   0  0  0  0  0  0  0  0  0  0  0  0
   59.3540   31.6750   48.9760 C   0  0  0  0  0  0  0  0  0  0  0  0
   58.8120   32.1040   50.3170 C   0  0  0  0  0  0  0  0  0  0  0  0
   59.3280   33.2460   50.9550 C   0  0  0  0  0  0  0  0  0  0  0  0
   58.7810   33.6880   52.1620 C   0  0  0  0  0  0  0  0  0  0  0  0
   57.7060   33.0050   52.7380 C   0  0  0  0  0  0  0  0  0  0  0  0
   57.1680   31.8680   52.1090 C   0  0  0  0  0  0  0  0  0  0  0  0
   55.9590   31.1910   52.6950 C   0  0  0  0  0  0  0  0  0  0  0  0
   55.0500   30.7930   51.6260 N   0  0  0  0  0  0  0  0  0  0  0  0
   53.7470   30.2430   51.8590 C   0  0  0  0  0  0  0  0  0  0  0  0
   53.6010   28.9990   52.0000 O   0  0  0  0  0  0  0  0  0  0  0  0
   52.5740   31.1300   51.9090 C   0  0  0  0  0  0  0  0  0  0  0  0
   51.7350   31.3400   52.9870 C   0  0  0  0  0  0  0  0  0  0  0  0
   50.8070   32.2640   52.5590 C   0  0  0  0  0  0  0  0  0  0  0  0
   51.0560   32.6030   51.3100 O   0  0  0  0  0  0  0  0  0  0  0  0
   52.1090   31.9410   50.8900 C   0  0  0  0  0  0  0  0  0  0  0  0
   57.7200   31.4250   50.8940 C   0  0  0  0  0  0  0  0  0  0  0  0
   58.0050   32.2170   46.4760 C   0  0  0  0  0  0  0  0  0  0  0  0
   58.3820   29.3195   45.5687 H   0  0  0  0  0  0  0  0  0  0  0  0
   58.3449   28.3854   44.0348 H   0  0  0  0  0  0  0  0  0  0  0  0
   58.9114   30.0900   44.0348 H   0  0  0  0  0  0  0  0  0  0  0  0
   57.2745   33.6730   43.4670 H   0  0  0  0  0  0  0  0  0  0  0  0
   59.0598   35.2291   44.2425 H   0  0  0  0  0  0  0  0  0  0  0  0
   60.1762   34.8628   46.4450 H   0  0  0  0  0  0  0  0  0  0  0  0
   58.6106   31.0375   48.4751 H   0  0  0  0  0  0  0  0  0  0  0  0
   60.2907   31.1215   49.1381 H   0  0  0  0  0  0  0  0  0  0  0  0
   60.1668   33.7942   50.5012 H   0  0  0  0  0  0  0  0  0  0  0  0
   59.1973   34.5758   52.6604 H   0  0  0  0  0  0  0  0  0  0  0  0
   57.2787   33.3586   53.6880 H   0  0  0  0  0  0  0  0  0  0  0  0
   56.2756   30.2995   53.2562 H   0  0  0  0  0  0  0  0  0  0  0  0
   55.4427   31.8894   53.3701 H   0  0  0  0  0  0  0  0  0  0  0  0
   51.7955   30.8683   53.9789 H   0  0  0  0  0  0  0  0  0  0  0  0
   49.9814   32.6597   53.1688 H   0  0  0  0  0  0  0  0  0  0  0  0
   52.5516   32.0191   49.8860 H   0  0  0  0  0  0  0  0  0  0  0  0
   57.2970   30.5431   50.3908 H   0  0  0  0  0  0  0  0  0  0  0  0
   57.7019   31.3690   47.1076 H   0  0  0  0  0  0  0  0  0  0  0  0
  1  2  1  0
  2  3  2  0
  2  4  2  0
  2  5  1  0
  5  6  1  0
  6  7  2  0
  7  8  1  0
  8  9  2  0
  9 10  1  0
 10 11  1  0
 11 12  1  0
 12 13  1  0
 13 14  2  0
 14 15  1  0
 15 16  2  0
 16 17  1  0
 17 18  1  0
 18 19  1  0
 19 20  1  0
 20 21  2  0
 20 22  1  0
 22 23  1  0
 23 24  2  0
 24 25  1  0
 25 26  1  0
 17 27  2  0
 10 28  2  0
 28  6  1  0
 27 13  1  0
 26 22  2  0
  1 29  1  0
  1 30  1  0
  1 31  1  0
  7 32  1  0
  8 33  1  0
  9 34  1  0
 12 35  1  0
 12 36  1  0
 14 37  1  0
 15 38  1  0
 16 39  1  0
 18 40  1  0
 18 41  1  0
 23 42  1  0
 24 43  1  0
 26 44  1  0
 27 45  1  0
 28 46  1  0
M  CHG  2   5  -1  19  -1
M  END
>  <UniqueID>  (11) 
9

>  <SMILES>  (11) 
CS(=O)(=O)[N-]c1cccc(OCc2cccc(C[N-]C(=O)c3ccoc3)c2)c1

>  <Energy>  (11) 
70.74385952337025

>  <Genealogy>  (11) 
CS(=O)(=O)[N-]c1cccc(OCc2cccc(C[N-]C(=O)c3ccoc3)c2)c1 (protonated)
CS(=O)(=O)[N-]c1cccc(OCc2cccc(C[N-]C(=O)c3ccoc3)c2)c1 (3D coordinates assigned)
CS(=O)(=O)[N-]c1cccc(OCc2cccc(C[N-]C(=O)c3ccoc3)c2)c1 (optimized conformer: 70.74385952337025 kcal/mol)

>  <smiles>  (11) 
CS(=O)(=O)Nc1cccc(OCc2cccc(CNC(=O)c3ccoc3)c2)c1

>  <score_type>  (11) 
oracle

>  <origin>  (11) 
adg

>  <m_score__min__energy>  (11) 
-11.93

>  <m_primary>  (11) 
energy

$$$$
11:0
     RDKit          3D

 55 57  0  0  0  0  0  0  0  0999 V2000
   59.2460   29.3950   46.6160 O   0  0  0  0  0  0  0  0  0  0  0  0
   58.0620   28.9990   46.4370 C   0  0  0  0  0  0  0  0  0  0  0  0
   57.7270   27.5540   46.6190 C   0  0  0  0  0  0  0  0  0  0  0  0
   56.9490   27.0840   45.4750 N   0  0  0  0  0  0  0  0  0  0  0  0
   56.0650   25.6460   45.8920 S   0  0  0  0  0  0  0  0  0  0  0  0
   54.6030   25.8970   45.6520 O   0  0  0  0  0  0  0  0  0  0  0  0
   56.2740   25.3350   47.3500 O   0  0  0  0  0  0  0  0  0  0  0  0
   56.5670   24.2620   44.9170 C   0  0  0  0  0  0  0  0  0  0  0  0
   55.8380   23.8900   43.7770 C   0  0  0  0  0  0  0  0  0  0  0  0
   56.2290   22.7840   43.0190 C   0  0  0  0  0  0  0  0  0  0  0  0
   57.3530   22.0400   43.3930 C   0  0  0  0  0  0  0  0  0  0  0  0
   58.0820   22.3990   44.5320 C   0  0  0  0  0  0  0  0  0  0  0  0
   57.6900   23.5040   45.2950 C   0  0  0  0  0  0  0  0  0  0  0  0
   58.4060   23.8310   46.4010 F   0  0  0  0  0  0  0  0  0  0  0  0
   57.0580   29.9070   45.9680 N   0  0  0  0  0  0  0  0  0  0  0  0
   57.0660   30.5330   44.6770 C   0  0  0  0  0  0  0  0  0  0  0  0
   56.6020   29.7880   43.5840 C   0  0  0  0  0  0  0  0  0  0  0  0
   56.6660   30.3060   42.2900 C   0  0  0  0  0  0  0  0  0  0  0  0
   57.1880   31.5810   42.0760 C   0  0  0  0  0  0  0  0  0  0  0  0
   57.6190   32.3520   43.1570 C   0  0  0  0  0  0  0  0  0  0  0  0
   57.5420   31.8540   44.4700 C   0  0  0  0  0  0  0  0  0  0  0  0
   57.9030   32.7560   45.5890 C   0  0  0  0  0  0  0  0  0  0  0  0
   57.8110   34.0050   45.4260 O   0  0  0  0  0  0  0  0  0  0  0  0
   58.2870   32.2250   46.8670 N   0  0  0  0  0  0  0  0  0  0  0  0
   58.5510   33.0880   48.0200 C   0  0  0  0  0  0  0  0  0  0  0  0
   59.9160   33.7700   47.8630 C   0  0  0  0  0  0  0  0  0  0  0  0
   60.8410   32.9810   47.0230 N   0  0  0  0  0  0  0  0  0  0  0  0
   61.8830   33.8480   46.4190 C   0  0  0  0  0  0  0  0  0  0  0  0
   63.1960   33.8090   47.2240 C   0  0  0  0  0  0  0  0  0  0  0  0
   63.7640   32.5100   47.3340 O   0  0  0  0  0  0  0  0  0  0  0  0
   62.8110   31.4620   47.2330 C   0  0  0  0  0  0  0  0  0  0  0  0
   61.4260   31.8460   47.7790 C   0  0  0  0  0  0  0  0  0  0  0  0
   58.6558   26.9695   46.6952 H   0  0  0  0  0  0  0  0  0  0  0  0
   57.1369   27.4286   47.5388 H   0  0  0  0  0  0  0  0  0  0  0  0
   54.9539   24.4726   43.4788 H   0  0  0  0  0  0  0  0  0  0  0  0
   55.6525   22.4977   42.1270 H   0  0  0  0  0  0  0  0  0  0  0  0
   57.6637   21.1729   42.7917 H   0  0  0  0  0  0  0  0  0  0  0  0
   58.9640   21.8119   44.8277 H   0  0  0  0  0  0  0  0  0  0  0  0
   56.1830   28.7843   43.7482 H   0  0  0  0  0  0  0  0  0  0  0  0
   56.3050   29.7090   41.4395 H   0  0  0  0  0  0  0  0  0  0  0  0
   57.2603   31.9801   41.0535 H   0  0  0  0  0  0  0  0  0  0  0  0
   58.0231   33.3597   42.9800 H   0  0  0  0  0  0  0  0  0  0  0  0
   58.1640   31.2000   47.0340 H   0  0  0  0  0  0  0  0  0  0  0  0
   57.7659   33.8555   48.0879 H   0  0  0  0  0  0  0  0  0  0  0  0
   58.5556   32.4772   48.9348 H   0  0  0  0  0  0  0  0  0  0  0  0
   59.7681   34.7556   47.3975 H   0  0  0  0  0  0  0  0  0  0  0  0
   60.3641   33.8628   48.8633 H   0  0  0  0  0  0  0  0  0  0  0  0
   62.0833   33.5028   45.3939 H   0  0  0  0  0  0  0  0  0  0  0  0
   61.5106   34.8831   46.4216 H   0  0  0  0  0  0  0  0  0  0  0  0
   63.9261   34.4658   46.7285 H   0  0  0  0  0  0  0  0  0  0  0  0
   62.9556   34.1408   48.2448 H   0  0  0  0  0  0  0  0  0  0  0  0
   62.7048   31.1874   46.1731 H   0  0  0  0  0  0  0  0  0  0  0  0
   63.1812   30.6246   47.8426 H   0  0  0  0  0  0  0  0  0  0  0  0
   60.7556   30.9778   47.6966 H   0  0  0  0  0  0  0  0  0  0  0  0
   61.5409   32.1525   48.8292 H   0  0  0  0  0  0  0  0  0  0  0  0
  1  2  2  0
  2  3  1  0
  3  4  1  0
  4  5  1  0
  5  6  2  0
  5  7  2  0
  5  8  1  0
  8  9  2  0
  9 10  1  0
 10 11  2  0
 11 12  1  0
 12 13  2  0
 13 14  1  0
  2 15  1  0
 15 16  1  0
 16 17  2  0
 17 18  1  0
 18 19  2  0
 19 20  1  0
 20 21  2  0
 21 22  1  0
 22 23  2  0
 22 24  1  0
 24 25  1  0
 25 26  1  0
 26 27  1  0
 27 28  1  0
 28 29  1  0
 29 30  1  0
 30 31  1  0
 31 32  1  0
 13  8  1  0
 21 16  1  0
 32 27  1  0
  3 33  1  0
  3 34  1  0
  9 35  1  0
 10 36  1  0
 11 37  1  0
 12 38  1  0
 17 39  1  0
 18 40  1  0
 19 41  1  0
 20 42  1  0
 24 43  1  0
 25 44  1  0
 25 45  1  0
 26 46  1  0
 26 47  1  0
 28 48  1  0
 28 49  1  0
 29 50  1  0
 29 51  1  0
 31 52  1  0
 31 53  1  0
 32 54  1  0
 32 55  1  0
M  CHG  2   4  -1  15  -1
M  END
>  <UniqueID>  (12) 
10

>  <SMILES>  (12) 
O=C(C[N-]S(=O)(=O)c1ccccc1F)[N-]c1ccccc1C(=O)NCCN1CCOCC1

>  <Energy>  (12) 
72.97012310521306

>  <Genealogy>  (12) 
O=C(C[N-]S(=O)(=O)c1ccccc1F)[N-]c1ccccc1C(=O)NCCN1CCOCC1 (protonated)
O=C(C[N-]S(=O)(=O)c1ccccc1F)[N-]c1ccccc1C(=O)NCCN1CCOCC1 (3D coordinates assigned)
O=C(C[N-]S(=O)(=O)c1ccccc1F)[N-]c1ccccc1C(=O)NCCN1CCOCC1 (nonaromatic ring conformer: 72.97012310521306 kcal/mol)

>  <smiles>  (12) 
O=C(CNS(=O)(=O)c1ccccc1F)Nc1ccccc1C(=O)NCCN1CCOCC1

>  <score_type>  (12) 
oracle

>  <origin>  (12) 
adg

>  <m_score__min__energy>  (12) 
-11.880000000000001

>  <m_primary>  (12) 
energy

$$$$
12:0
     RDKit          3D

 25 26  0  0  0  0  0  0  0  0999 V2000
   57.5730   25.7730   46.6700 O   0  0  0  0  0  0  0  0  0  0  0  0
   57.5180   26.9420   46.2030 C   0  0  0  0  0  0  0  0  0  0  0  0
   58.6800   27.7160   46.1210 C   0  0  0  0  0  0  0  0  0  0  0  0
   58.6050   29.0170   45.6050 C   0  0  0  0  0  0  0  0  0  0  0  0
   59.8390   29.8590   45.4650 C   0  0  0  0  0  0  0  0  0  0  0  0
   59.5810   31.2470   45.9830 C   0  0  0  0  0  0  0  0  0  0  0  0
   58.8280   32.1580   45.2250 C   0  0  0  0  0  0  0  0  0  0  0  0
   58.5580   33.4370   45.7230 C   0  0  0  0  0  0  0  0  0  0  0  0
   59.0270   33.8140   46.9850 C   0  0  0  0  0  0  0  0  0  0  0  0
   58.7510   35.0910   47.4690 O   0  0  0  0  0  0  0  0  0  0  0  0
   59.7680   32.9040   47.7520 C   0  0  0  0  0  0  0  0  0  0  0  0
   60.0390   31.6250   47.2560 C   0  0  0  0  0  0  0  0  0  0  0  0
   57.4080   29.5040   45.1750 N   0  0  0  0  0  0  0  0  0  0  0  0
   56.2660   28.7690   45.2460 C   0  0  0  0  0  0  0  0  0  0  0  0
   55.0690   29.3160   44.8000 O   0  0  0  0  0  0  0  0  0  0  0  0
   56.2990   27.4710   45.7660 C   0  0  0  0  0  0  0  0  0  0  0  0
   55.1330   26.7160   45.8420 O   0  0  0  0  0  0  0  0  0  0  0  0
   59.6440   27.3074   46.4584 H   0  0  0  0  0  0  0  0  0  0  0  0
   60.6578   29.4025   46.0406 H   0  0  0  0  0  0  0  0  0  0  0  0
   60.1152   29.9178   44.4019 H   0  0  0  0  0  0  0  0  0  0  0  0
   58.4487   31.8646   44.2350 H   0  0  0  0  0  0  0  0  0  0  0  0
   57.9748   34.1484   45.1198 H   0  0  0  0  0  0  0  0  0  0  0  0
   59.3890   35.8630   47.3170 H   0  0  0  0  0  0  0  0  0  0  0  0
   60.1370   33.1967   48.7461 H   0  0  0  0  0  0  0  0  0  0  0  0
   60.6134   30.9117   47.8654 H   0  0  0  0  0  0  0  0  0  0  0  0
  1  2  2  0
  2  3  1  0
  3  4  2  0
  4  5  1  0
  5  6  1  0
  6  7  2  0
  7  8  1  0
  8  9  2  0
  9 10  1  0
  9 11  1  0
 11 12  2  0
  4 13  1  0
 13 14  1  0
 14 15  1  0
 14 16  2  0
 16 17  1  0
 16  2  1  0
 12  6  1  0
  3 18  1  0
  5 19  1  0
  5 20  1  0
  7 21  1  0
  8 22  1  0
 10 23  1  0
 11 24  1  0
 12 25  1  0
M  CHG  3  13  -1  15  -1  17  -1
M  END
>  <UniqueID>  (13) 
11

>  <SMILES>  (13) 
O=c1cc(Cc2ccc(O)cc2)[n-]c([O-])c1[O-]

>  <Energy>  (13) 
25.274136796522566

>  <Genealogy>  (13) 
O=c1cc(Cc2ccc(O)cc2)[n-]c([O-])c1[O-] (protonated)
O=c1cc(Cc2ccc(O)cc2)[n-]c([O-])c1[O-] (3D coordinates assigned)
O=c1cc(Cc2ccc(O)cc2)[n-]c([O-])c1[O-] (optimized conformer: 25.274136796522566 kcal/mol)

>  <smiles>  (13) 
O=c1cc(Cc2ccc(O)cc2)[nH]c(O)c1O

>  <score_type>  (13) 
oracle

>  <origin>  (13) 
adg

>  <m_score__min__energy>  (13) 
-16.609999999999999

>  <m_primary>  (13) 
energy

$$$$
13:0
     RDKit          3D

 32 34  0  0  0  0  0  0  0  0999 V2000
   56.8502   32.8095   44.0871 H   0  0  0  0  0  0  0  0  0  0  0  0
   57.4560   33.1850   44.9250 C   0  0  0  0  0  0  0  0  0  0  0  0
   57.5430   32.5300   46.1130 N   0  0  0  0  0  0  0  0  0  0  0  0
   58.3450   33.1860   46.9810 C   0  0  0  0  0  0  0  0  0  0  0  0
   58.6040   32.7860   48.1900 N   0  0  0  0  0  0  0  0  0  0  0  0
   59.8150   33.0290   48.9250 C   0  0  0  0  0  0  0  0  0  0  0  0
   59.7680   33.3620   50.1400 O   0  0  0  0  0  0  0  0  0  0  0  0
   61.1240   32.8550   48.2480 C   0  0  0  0  0  0  0  0  0  0  0  0
   61.8160   33.9990   47.8110 C   0  0  0  0  0  0  0  0  0  0  0  0
   61.3822   34.9951   47.9833 H   0  0  0  0  0  0  0  0  0  0  0  0
   63.0470   33.8860   47.1610 C   0  0  0  0  0  0  0  0  0  0  0  0
   63.5729   34.7899   46.8198 H   0  0  0  0  0  0  0  0  0  0  0  0
   63.6100   32.6300   46.9440 C   0  0  0  0  0  0  0  0  0  0  0  0
   64.5775   32.5429   46.4280 H   0  0  0  0  0  0  0  0  0  0  0  0
   62.9470   31.4830   47.3810 C   0  0  0  0  0  0  0  0  0  0  0  0
   63.3975   30.4943   47.2092 H   0  0  0  0  0  0  0  0  0  0  0  0
   61.7120   31.5790   48.0370 C   0  0  0  0  0  0  0  0  0  0  0  0
   60.9660   30.0540   48.6350 S   0  0  0  0  0  0  0  0  0  0  0  0
   59.9120   29.9090   47.1980 C   0  0  0  0  0  0  0  0  0  0  0  0
   60.3200   30.1830   45.9400 N   0  0  0  0  0  0  0  0  0  0  0  0
   59.3600   30.0190   45.0320 N   0  0  0  0  0  0  0  0  0  0  0  0
   58.1880   29.6150   45.5690 C   0  0  0  0  0  0  0  0  0  0  0  0
   56.7360   29.3310   44.6310 S   0  0  0  0  0  0  0  0  0  0  0  0
   55.9600   28.1990   45.2420 O   0  0  0  0  0  0  0  0  0  0  0  0
   55.8850   30.5700   44.6360 O   0  0  0  0  0  0  0  0  0  0  0  0
   57.1600   28.9200   43.0060 N   0  0  0  0  0  0  0  0  0  0  0  0
   58.1940   29.0430   42.9190 H   0  0  0  0  0  0  0  0  0  0  0  0
   56.9680   27.9000   42.8890 H   0  0  0  0  0  0  0  0  0  0  0  0
   58.2950   29.4400   47.2400 S   0  0  0  0  0  0  0  0  0  0  0  0
   58.9740   34.5930   46.3180 S   0  0  0  0  0  0  0  0  0  0  0  0
   58.1890   34.3650   44.8460 C   0  0  0  0  0  0  0  0  0  0  0  0
   58.2458   35.0327   43.9737 H   0  0  0  0  0  0  0  0  0  0  0  0
  1  2  1  0
  2  3  1  0
  3  4  1  0
  4  5  2  0
  5  6  1  0
  6  7  2  0
  6  8  1  0
  8  9  2  0
  9 10  1  0
  9 11  1  0
 11 12  1  0
 11 13  2  0
 13 14  1  0
 13 15  1  0
 15 16  1  0
 15 17  2  0
 17 18  1  0
 18 19  1  0
 19 20  2  0
 20 21  1  0
 21 22  2  0
 22 23  1  0
 23 24  2  0
 23 25  2  0
 23 26  1  0
 26 27  1  0
 26 28  1  0
 22 29  1  0
  4 30  1  0
 30 31  1  0
 31 32  1  0
 31  2  2  0
 17  8  1  0
 29 19  1  0
M  CHG  1   3  -1
M  END
>  <UniqueID>  (14) 
12

>  <SMILES>  (14) 
NS(=O)(=O)c1nnc(Sc2ccccc2C(=O)/N=c2\[n-]ccs2)s1

>  <Energy>  (14) 
99.23015030330187

>  <Genealogy>  (14) 
NS(=O)(=O)c1nnc(Sc2ccccc2C(=O)N=c2[n-]ccs2)s1 (protonated)
NS(=O)(=O)c1nnc(Sc2ccccc2C(=O)/N=c2\[n-]ccs2)s1 (cis-trans isomerization)
NS(=O)(=O)c1nnc(Sc2ccccc2C(=O)/N=c2\[n-]ccs2)s1 (3D coordinates assigned)
NS(=O)(=O)c1nnc(Sc2ccccc2C(=O)/N=c2\[n-]ccs2)s1 (optimized conformer: 99.23015030330187 kcal/mol)

>  <smiles>  (14) 
NS(=O)(=O)c1nnc(Sc2ccccc2C(=O)N=c2[nH]ccs2)s1

>  <score_type>  (14) 
oracle

>  <origin>  (14) 
adg

>  <m_score__min__energy>  (14) 
-10.18

>  <m_primary>  (14) 
energy

$$$$
14:0
     RDKit          3D

 48 51  0  0  0  0  0  0  0  0999 V2000
   61.8450   33.4620   45.9880 O   0  0  0  0  0  0  0  0  0  0  0  0
   60.9410   33.3380   46.8600 C   0  0  0  0  0  0  0  0  0  0  0  0
   59.7470   34.2660   46.8630 C   0  0  1  0  0  0  0  0  0  0  0  0
   59.4150   34.8210   45.4570 C   0  0  0  0  0  0  0  0  0  0  0  0
   58.6500   33.7820   44.6300 C   0  0  0  0  0  0  0  0  0  0  0  0
   57.3430   33.2970   45.3150 C   0  0  1  0  0  0  0  0  0  0  0  0
   57.2580   31.8820   45.2370 O   0  0  0  0  0  0  0  0  0  0  0  0
   58.3950   31.3330   44.5980 C   0  0  0  0  0  0  0  0  0  0  0  0
   58.9610   30.2040   45.4180 C   0  0  0  0  0  0  0  0  0  0  0  0
   59.9060   29.3230   44.8670 C   0  0  0  0  0  0  0  0  0  0  0  0
   60.4110   28.2660   45.6300 C   0  0  0  0  0  0  0  0  0  0  0  0
   59.9750   28.0790   46.9450 C   0  0  0  0  0  0  0  0  0  0  0  0
   59.0310   28.9500   47.4980 C   0  0  0  0  0  0  0  0  0  0  0  0
   58.5240   30.0080   46.7380 C   0  0  0  0  0  0  0  0  0  0  0  0
   57.2650   33.7020   46.8000 C   0  0  0  0  0  0  0  0  0  0  0  0
   58.5830   33.5660   47.4360 N   0  0  0  0  0  0  0  0  0  0  0  0
   58.7690   32.7380   48.5990 C   0  0  0  0  0  0  0  0  0  0  0  0
   57.7810   32.3160   49.2580 O   0  0  0  0  0  0  0  0  0  0  0  0
   60.1580   32.4030   49.0530 C   0  0  0  0  0  0  0  0  0  0  0  0
   61.0720   32.3520   47.9060 N   0  0  0  0  0  0  0  0  0  0  0  0
   62.2280   31.4500   47.9420 C   0  0  0  0  0  0  0  0  0  0  0  0
   63.2940   32.0130   48.8280 C   0  0  0  0  0  0  0  0  0  0  0  0
   63.6880   31.4930   50.0540 C   0  0  0  0  0  0  0  0  0  0  0  0
   64.6570   32.2740   50.6960 C   0  0  0  0  0  0  0  0  0  0  0  0
   65.0170   33.4110   49.9860 C   0  0  0  0  0  0  0  0  0  0  0  0
   64.1270   33.4480   48.5590 S   0  0  0  0  0  0  0  0  0  0  0  0
   60.0028   35.1363   47.4852 H   0  0  0  0  0  0  0  0  0  0  0  0
   58.7967   35.7246   45.5625 H   0  0  0  0  0  0  0  0  0  0  0  0
   60.3562   35.0601   44.9404 H   0  0  0  0  0  0  0  0  0  0  0  0
   58.3907   34.2298   43.6593 H   0  0  0  0  0  0  0  0  0  0  0  0
   59.3055   32.9057   44.5186 H   0  0  0  0  0  0  0  0  0  0  0  0
   56.5096   33.7778   44.7819 H   0  0  0  0  0  0  0  0  0  0  0  0
   58.1061   30.9525   43.6072 H   0  0  0  0  0  0  0  0  0  0  0  0
   59.1595   32.1168   44.4924 H   0  0  0  0  0  0  0  0  0  0  0  0
   60.2498   29.4652   43.8318 H   0  0  0  0  0  0  0  0  0  0  0  0
   61.1528   27.5802   45.1948 H   0  0  0  0  0  0  0  0  0  0  0  0
   60.3742   27.2474   47.5443 H   0  0  0  0  0  0  0  0  0  0  0  0
   58.6870   28.8024   48.5323 H   0  0  0  0  0  0  0  0  0  0  0  0
   57.7798   30.6897   47.1757 H   0  0  0  0  0  0  0  0  0  0  0  0
   56.9327   34.7480   46.8738 H   0  0  0  0  0  0  0  0  0  0  0  0
   56.5502   33.0422   47.3136 H   0  0  0  0  0  0  0  0  0  0  0  0
   60.5043   33.1725   49.7586 H   0  0  0  0  0  0  0  0  0  0  0  0
   60.1456   31.4187   49.5438 H   0  0  0  0  0  0  0  0  0  0  0  0
   61.9127   30.4702   48.3301 H   0  0  0  0  0  0  0  0  0  0  0  0
   62.6288   31.3387   46.9237 H   0  0  0  0  0  0  0  0  0  0  0  0
   63.2807   30.5630   50.4774 H   0  0  0  0  0  0  0  0  0  0  0  0
   65.0920   32.0110   51.6715 H   0  0  0  0  0  0  0  0  0  0  0  0
   65.7578   34.1600   50.3024 H   0  0  0  0  0  0  0  0  0  0  0  0
  1  2  2  0
  2  3  1  0
  3  4  1  0
  4  5  1  0
  5  6  1  0
  6  7  1  0
  7  8  1  0
  8  9  1  0
  9 10  2  0
 10 11  1  0
 11 12  2  0
 12 13  1  0
 13 14  2  0
  6 15  1  0
 15 16  1  0
 16 17  1  0
 17 18  2  0
 17 19  1  0
 19 20  1  0
 20 21  1  0
 21 22  1  0
 22 23  2  0
 23 24  1  0
 24 25  2  0
 25 26  1  0
 20  2  1  0
 26 22  1  0
 16  3  1  0
 14  9  1  0
  3 27  1  1
  4 28  1  0
  4 29  1  0
  5 30  1  0
  5 31  1  0
  6 32  1  6
  8 33  1  0
  8 34  1  0
 10 35  1  0
 11 36  1  0
 12 37  1  0
 13 38  1  0
 14 39  1  0
 15 40  1  0
 15 41  1  0
 19 42  1  0
 19 43  1  0
 21 44  1  0
 21 45  1  0
 23 46  1  0
 24 47  1  0
 25 48  1  0
M  END
>  <UniqueID>  (15) 
13

>  <SMILES>  (15) 
O=C1[C@H]2CC[C@@H](OCc3ccccc3)CN2C(=O)CN1Cc1cccs1

>  <Energy>  (15) 
82.49808079901543

>  <Genealogy>  (15) 
O=C1[C@H]2CC[C@@H](OCc3ccccc3)CN2C(=O)CN1Cc1cccs1 (chirality)
O=C1[C@H]2CC[C@@H](OCc3ccccc3)CN2C(=O)CN1Cc1cccs1 (3D coordinates assigned)
O=C1[C@H]2CC[C@@H](OCc3ccccc3)CN2C(=O)CN1Cc1cccs1 (nonaromatic ring conformer: 82.49808079901543 kcal/mol)

>  <smiles>  (15) 
O=C1C2CCC(OCc3ccccc3)CN2C(=O)CN1Cc1cccs1

>  <score_type>  (15) 
oracle

>  <origin>  (15) 
adg

>  <m_score__min__energy>  (15) 
-7.6600000000000001

>  <m_primary>  (15) 
energy

$$$$
15:0
     RDKit          3D

 39 42  0  0  0  0  0  0  0  0999 V2000
   56.2920   29.2910   42.2410 N   0  0  0  0  0  0  0  0  0  0  0  0
   56.7450   30.1490   42.8680 C   0  0  0  0  0  0  0  0  0  0  0  0
   57.3130   31.2200   43.6510 C   0  0  0  0  0  0  0  0  0  0  0  0
   57.7580   32.3790   43.0040 C   0  0  0  0  0  0  0  0  0  0  0  0
   58.3270   33.4220   43.7390 C   0  0  0  0  0  0  0  0  0  0  0  0
   58.4480   33.3250   45.1280 C   0  0  0  0  0  0  0  0  0  0  0  0
   59.0790   34.3670   45.8220 O   0  0  0  0  0  0  0  0  0  0  0  0
   59.9930   34.1940   46.8690 C   0  0  0  0  0  0  0  0  0  0  0  0
   59.5470   34.3470   48.1880 C   0  0  0  0  0  0  0  0  0  0  0  0
   60.4280   34.1720   49.2590 C   0  0  0  0  0  0  0  0  0  0  0  0
   61.7570   33.8110   49.0210 C   0  0  0  0  0  0  0  0  0  0  0  0
   62.6130   33.6290   50.0630 N   0  0  0  0  0  0  0  0  0  0  0  0
   63.9070   33.2590   49.8700 C   0  0  0  0  0  0  0  0  0  0  0  0
   64.6680   33.1040   50.8600 O   0  0  0  0  0  0  0  0  0  0  0  0
   64.3890   33.0440   48.5740 C   0  0  0  0  0  0  0  0  0  0  0  0
   63.5330   33.2210   47.4850 C   0  0  0  0  0  0  0  0  0  0  0  0
   62.2080   33.6230   47.6970 C   0  0  0  0  0  0  0  0  0  0  0  0
   61.3280   33.8270   46.6230 C   0  0  0  0  0  0  0  0  0  0  0  0
   57.9940   32.1660   45.7820 C   0  0  0  0  0  0  0  0  0  0  0  0
   57.4220   31.1090   45.0490 C   0  0  0  0  0  0  0  0  0  0  0  0
   57.0310   29.8890   45.6990 N   0  0  0  0  0  0  0  0  0  0  0  0
   57.9040   29.0000   46.4040 C   0  0  0  0  0  0  0  0  0  0  0  0
   57.6150   27.7760   46.4530 O   0  0  0  0  0  0  0  0  0  0  0  0
   59.0910   29.4920   47.1260 C   0  0  0  0  0  0  0  0  0  0  0  0
   60.2960   29.8910   46.5600 C   0  0  0  0  0  0  0  0  0  0  0  0
   61.2080   30.3880   47.4980 C   0  0  0  0  0  0  0  0  0  0  0  0
   60.7280   30.3830   48.8010 C   0  0  0  0  0  0  0  0  0  0  0  0
   59.1650   29.7680   48.7840 S   0  0  0  0  0  0  0  0  0  0  0  0
   57.6592   32.4688   41.9121 H   0  0  0  0  0  0  0  0  0  0  0  0
   58.6820   34.3253   43.2212 H   0  0  0  0  0  0  0  0  0  0  0  0
   58.4959   34.6067   48.3824 H   0  0  0  0  0  0  0  0  0  0  0  0
   60.0749   34.3186   50.2904 H   0  0  0  0  0  0  0  0  0  0  0  0
   65.4335   32.7381   48.4144 H   0  0  0  0  0  0  0  0  0  0  0  0
   63.8985   33.0451   46.4625 H   0  0  0  0  0  0  0  0  0  0  0  0
   61.6823   33.6999   45.5894 H   0  0  0  0  0  0  0  0  0  0  0  0
   58.0865   32.0846   46.8751 H   0  0  0  0  0  0  0  0  0  0  0  0
   60.5112   29.8230   45.4834 H   0  0  0  0  0  0  0  0  0  0  0  0
   62.2115   30.7489   47.2282 H   0  0  0  0  0  0  0  0  0  0  0  0
   61.2770   30.7233   49.6914 H   0  0  0  0  0  0  0  0  0  0  0  0
  1  2  3  0
  2  3  1  0
  3  4  2  0
  4  5  1  0
  5  6  2  0
  6  7  1  0
  7  8  1  0
  8  9  2  0
  9 10  1  0
 10 11  2  0
 11 12  1  0
 12 13  1  0
 13 14  2  0
 13 15  1  0
 15 16  2  0
 16 17  1  0
 17 18  2  0
  6 19  1  0
 19 20  2  0
 20 21  1  0
 21 22  1  0
 22 23  2  0
 22 24  1  0
 24 25  2  0
 25 26  1  0
 26 27  2  0
 27 28  1  0
 20  3  1  0
 28 24  1  0
 18  8  1  0
 17 11  1  0
  4 29  1  0
  5 30  1  0
  9 31  1  0
 10 32  1  0
 15 33  1  0
 16 34  1  0
 18 35  1  0
 19 36  1  0
 25 37  1  0
 26 38  1  0
 27 39  1  0
M  CHG  2  12  -1  21  -1
M  END
>  <UniqueID>  (16) 
14

>  <SMILES>  (16) 
N#Cc1ccc(Oc2ccc3[n-]c(=O)ccc3c2)cc1[N-]C(=O)c1cccs1

>  <Energy>  (16) 
82.15789033744579

>  <Genealogy>  (16) 
N#Cc1ccc(Oc2ccc3[n-]c(=O)ccc3c2)cc1[N-]C(=O)c1cccs1 (protonated)
N#Cc1ccc(Oc2ccc3[n-]c(=O)ccc3c2)cc1[N-]C(=O)c1cccs1 (3D coordinates assigned)
N#Cc1ccc(Oc2ccc3[n-]c(=O)ccc3c2)cc1[N-]C(=O)c1cccs1 (optimized conformer: 82.15789033744579 kcal/mol)

>  <smiles>  (16) 
N#Cc1ccc(Oc2ccc3[nH]c(=O)ccc3c2)cc1NC(=O)c1cccs1

>  <score_type>  (16) 
oracle

>  <origin>  (16) 
adg

>  <m_score__min__energy>  (16) 
-11.369999999999999

>  <m_primary>  (16) 
energy

$$$$
16:0
     RDKit          3D

 43 45  0  0  0  0  0  0  0  0999 V2000
   57.8520   32.3200   42.0510 C   0  0  0  0  0  0  0  0  0  0  0  0
   57.5260   31.9660   43.4330 N   0  0  0  0  0  0  0  0  0  0  0  0
   57.9240   32.8280   44.5190 C   0  0  0  0  0  0  0  0  0  0  0  0
   57.3780   32.6550   45.8050 C   0  0  0  0  0  0  0  0  0  0  0  0
   57.7670   33.4890   46.8570 C   0  0  0  0  0  0  0  0  0  0  0  0
   58.7030   34.5020   46.6400 C   0  0  0  0  0  0  0  0  0  0  0  0
   59.2520   34.6830   45.3690 C   0  0  0  0  0  0  0  0  0  0  0  0
   58.8680   33.8510   44.3140 C   0  0  0  0  0  0  0  0  0  0  0  0
   56.6540   30.4920   43.7470 S   0  0  0  0  0  0  0  0  0  0  0  0
   56.2890   29.8210   42.4520 O   0  0  0  0  0  0  0  0  0  0  0  0
   55.3960   30.8140   44.5040 O   0  0  0  0  0  0  0  0  0  0  0  0
   57.6710   29.3880   44.6670 C   0  0  0  0  0  0  0  0  0  0  0  0
   59.0570   29.5790   44.7410 C   0  0  0  0  0  0  0  0  0  0  0  0
   59.8500   28.6860   45.4660 C   0  0  0  0  0  0  0  0  0  0  0  0
   59.2650   27.5940   46.1130 C   0  0  0  0  0  0  0  0  0  0  0  0
   57.8780   27.3820   46.0270 C   0  0  0  0  0  0  0  0  0  0  0  0
   57.2410   26.2720   46.6750 N   0  0  0  0  0  0  0  0  0  0  0  0
   56.4010   25.2950   46.0470 C   0  0  0  0  0  0  0  0  0  0  0  0
   55.1520   25.4150   46.1500 O   0  0  0  0  0  0  0  0  0  0  0  0
   56.9500   24.1660   45.2690 C   0  0  0  0  0  0  0  0  0  0  0  0
   58.1870   23.5910   45.4780 C   0  0  0  0  0  0  0  0  0  0  0  0
   58.2680   22.5860   44.5350 C   0  0  0  0  0  0  0  0  0  0  0  0
   57.1300   22.5470   43.8140 N   0  0  0  0  0  0  0  0  0  0  0  0
   56.3300   23.4990   44.2690 N   0  0  0  0  0  0  0  0  0  0  0  0
   54.9860   23.7160   43.7430 C   0  0  0  0  0  0  0  0  0  0  0  0
   57.0860   28.2950   45.3200 C   0  0  0  0  0  0  0  0  0  0  0  0
   58.5972   33.1292   42.0458 H   0  0  0  0  0  0  0  0  0  0  0  0
   58.2626   31.4401   41.5342 H   0  0  0  0  0  0  0  0  0  0  0  0
   56.9413   32.6569   41.5342 H   0  0  0  0  0  0  0  0  0  0  0  0
   56.6406   31.8584   45.9830 H   0  0  0  0  0  0  0  0  0  0  0  0
   57.3346   33.3469   47.8584 H   0  0  0  0  0  0  0  0  0  0  0  0
   59.0077   35.1569   47.4696 H   0  0  0  0  0  0  0  0  0  0  0  0
   59.9883   35.4821   45.1978 H   0  0  0  0  0  0  0  0  0  0  0  0
   59.3069   33.9969   43.3160 H   0  0  0  0  0  0  0  0  0  0  0  0
   59.5216   30.4336   44.2274 H   0  0  0  0  0  0  0  0  0  0  0  0
   60.9370   28.8427   45.5277 H   0  0  0  0  0  0  0  0  0  0  0  0
   59.8915   26.8987   46.6910 H   0  0  0  0  0  0  0  0  0  0  0  0
   58.9406   23.8711   46.2288 H   0  0  0  0  0  0  0  0  0  0  0  0
   59.1306   21.9183   44.3935 H   0  0  0  0  0  0  0  0  0  0  0  0
   54.2794   23.8301   44.5783 H   0  0  0  0  0  0  0  0  0  0  0  0
   54.9760   24.6274   43.1272 H   0  0  0  0  0  0  0  0  0  0  0  0
   54.6897   22.8541   43.1272 H   0  0  0  0  0  0  0  0  0  0  0  0
   55.9960   28.1531   45.2769 H   0  0  0  0  0  0  0  0  0  0  0  0
  1  2  1  0
  2  3  1  0
  3  4  2  0
  4  5  1  0
  5  6  2  0
  6  7  1  0
  7  8  2  0
  2  9  1  0
  9 10  2  0
  9 11  2  0
  9 12  1  0
 12 13  2  0
 13 14  1  0
 14 15  2  0
 15 16  1  0
 16 17  1  0
 17 18  1  0
 18 19  2  0
 18 20  1  0
 20 21  2  0
 21 22  1  0
 22 23  2  0
 23 24  1  0
 24 25  1  0
 16 26  2  0
  8  3  1  0
 26 12  1  0
 24 20  1  0
  1 27  1  0
  1 28  1  0
  1 29  1  0
  4 30  1  0
  5 31  1  0
  6 32  1  0
  7 33  1  0
  8 34  1  0
 13 35  1  0
 14 36  1  0
 15 37  1  0
 21 38  1  0
 22 39  1  0
 25 40  1  0
 25 41  1  0
 25 42  1  0
 26 43  1  0
M  CHG  1  17  -1
M  END
>  <UniqueID>  (17) 
15

>  <SMILES>  (17) 
CN(c1ccccc1)S(=O)(=O)c1cccc([N-]C(=O)c2ccnn2C)c1

>  <Energy>  (17) 
83.15950951048677

>  <Genealogy>  (17) 
CN(c1ccccc1)S(=O)(=O)c1cccc([N-]C(=O)c2ccnn2C)c1 (protonated)
CN(c1ccccc1)S(=O)(=O)c1cccc([N-]C(=O)c2ccnn2C)c1 (3D coordinates assigned)
CN(c1ccccc1)S(=O)(=O)c1cccc([N-]C(=O)c2ccnn2C)c1 (optimized conformer: 83.15950951048677 kcal/mol)

>  <smiles>  (17) 
CN(c1ccccc1)S(=O)(=O)c1cccc(NC(=O)c2ccnn2C)c1

>  <score_type>  (17) 
oracle

>  <origin>  (17) 
adg

>  <m_score__min__energy>  (17) 
-11.48

>  <m_primary>  (17) 
energy

$$$$
17:0
     RDKit          3D

 63 65  0  0  0  0  0  0  0  0999 V2000
   60.4740   30.7710   47.1960 C   0  0  0  0  0  0  0  0  0  0  0  0
   59.3470   30.8720   48.2210 C   0  0  2  0  0  0  0  0  0  0  0  0
   58.5070   29.6780   48.1580 N   0  0  0  0  0  0  0  0  0  0  0  0
   58.1300   29.0280   46.9390 C   0  0  0  0  0  0  0  0  0  0  0  0
   57.0210   29.3010   46.3910 O   0  0  0  0  0  0  0  0  0  0  0  0
   58.9950   27.9210   46.3800 C   0  0  2  0  0  0  0  0  0  0  0  0
   59.0930   27.8840   44.8350 C   0  0  0  0  0  0  0  0  0  0  0  0
   58.3470   28.9920   44.1350 C   0  0  0  0  0  0  0  0  0  0  0  0
   58.8070   30.3200   44.2230 C   0  0  0  0  0  0  0  0  0  0  0  0
   58.1360   31.3450   43.5500 C   0  0  0  0  0  0  0  0  0  0  0  0
   57.0040   31.0530   42.7830 C   0  0  0  0  0  0  0  0  0  0  0  0
   56.5240   29.7420   42.7090 C   0  0  0  0  0  0  0  0  0  0  0  0
   57.1890   28.7120   43.3860 C   0  0  0  0  0  0  0  0  0  0  0  0
   58.6440   26.6030   46.9280 N   0  0  0  0  0  0  0  0  0  0  0  0
   58.1590   25.4740   46.1920 C   0  0  0  0  0  0  0  0  0  0  0  0
   58.9450   24.5410   45.8540 O   0  0  0  0  0  0  0  0  0  0  0  0
   56.7040   25.4370   45.7950 C   0  0  2  0  0  0  0  0  0  0  0  0
   55.9790   26.6320   46.2440 N   0  0  0  0  0  0  0  0  0  0  0  0
   56.0480   24.1600   46.3610 C   0  0  0  0  0  0  0  0  0  0  0  0
   54.6330   23.9760   45.8820 C   0  0  0  0  0  0  0  0  0  0  0  0
   54.0600   22.7810   45.5110 C   0  0  0  0  0  0  0  0  0  0  0  0
   52.8030   23.0140   45.0950 N   0  0  0  0  0  0  0  0  0  0  0  0
   52.6570   24.3520   45.2100 C   0  0  0  0  0  0  0  0  0  0  0  0
   53.7580   24.9790   45.6740 N   0  0  0  0  0  0  0  0  0  0  0  0
   58.5510   32.1490   48.0670 C   0  0  0  0  0  0  0  0  0  0  0  0
   57.9580   32.6010   49.0810 O   0  0  0  0  0  0  0  0  0  0  0  0
   58.3930   32.8420   46.8240 N   0  0  0  0  0  0  0  0  0  0  0  0
   58.4590   34.2830   46.5980 C   0  0  0  0  0  0  0  0  0  0  0  0
   59.8400   34.6660   46.0620 C   0  0  0  0  0  0  0  0  0  0  0  0
   60.9520   34.1780   46.9610 C   0  0  0  0  0  0  0  0  0  0  0  0
   62.1170   33.6180   46.4100 C   0  0  0  0  0  0  0  0  0  0  0  0
   63.1590   33.2050   47.2460 C   0  0  0  0  0  0  0  0  0  0  0  0
   63.0510   33.3520   48.6300 C   0  0  0  0  0  0  0  0  0  0  0  0
   61.8870   33.8880   49.1830 C   0  0  0  0  0  0  0  0  0  0  0  0
   60.8390   34.2970   48.3560 C   0  0  0  0  0  0  0  0  0  0  0  0
   61.4381   30.6846   47.7185 H   0  0  0  0  0  0  0  0  0  0  0  0
   60.3178   29.8833   46.5655 H   0  0  0  0  0  0  0  0  0  0  0  0
   60.4781   31.6724   46.5655 H   0  0  0  0  0  0  0  0  0  0  0  0
   59.7935   30.9200   49.2252 H   0  0  0  0  0  0  0  0  0  0  0  0
   60.0076   28.1762   46.7257 H   0  0  0  0  0  0  0  0  0  0  0  0
   60.1547   27.9549   44.5562 H   0  0  0  0  0  0  0  0  0  0  0  0
   58.6264   26.9410   44.5141 H   0  0  0  0  0  0  0  0  0  0  0  0
   59.6985   30.5518   44.8242 H   0  0  0  0  0  0  0  0  0  0  0  0
   58.4984   32.3810   43.6238 H   0  0  0  0  0  0  0  0  0  0  0  0
   56.4896   31.8571   42.2363 H   0  0  0  0  0  0  0  0  0  0  0  0
   55.6231   29.5193   42.1184 H   0  0  0  0  0  0  0  0  0  0  0  0
   56.8055   27.6824   43.3322 H   0  0  0  0  0  0  0  0  0  0  0  0
   56.6506   25.4241   44.6964 H   0  0  0  0  0  0  0  0  0  0  0  0
   56.5910   27.1900   46.8840 H   0  0  0  0  0  0  0  0  0  0  0  0
   55.1250   26.3460   46.7700 H   0  0  0  0  0  0  0  0  0  0  0  0
   56.6425   23.2894   46.0468 H   0  0  0  0  0  0  0  0  0  0  0  0
   56.0193   24.2572   47.4563 H   0  0  0  0  0  0  0  0  0  0  0  0
   54.5500   21.7969   45.5487 H   0  0  0  0  0  0  0  0  0  0  0  0
   51.7281   24.8806   44.9499 H   0  0  0  0  0  0  0  0  0  0  0  0
   57.6909   34.5724   45.8657 H   0  0  0  0  0  0  0  0  0  0  0  0
   58.2832   34.8061   47.5495 H   0  0  0  0  0  0  0  0  0  0  0  0
   59.9693   34.2216   45.0641 H   0  0  0  0  0  0  0  0  0  0  0  0
   59.8951   35.7638   46.0192 H   0  0  0  0  0  0  0  0  0  0  0  0
   62.2094   33.5044   45.3198 H   0  0  0  0  0  0  0  0  0  0  0  0
   64.0674   32.7625   46.8113 H   0  0  0  0  0  0  0  0  0  0  0  0
   63.8814   33.0461   49.2833 H   0  0  0  0  0  0  0  0  0  0  0  0
   61.7949   33.9886   50.2745 H   0  0  0  0  0  0  0  0  0  0  0  0
   59.9221   34.7137   48.7983 H   0  0  0  0  0  0  0  0  0  0  0  0
  1  2  1  0
  2  3  1  0
  3  4  1  0
  4  5  2  0
  4  6  1  0
  6  7  1  0
  7  8  1  0
  8  9  2  0
  9 10  1  0
 10 11  2  0
 11 12  1  0
 12 13  2  0
  6 14  1  0
 14 15  1  0
 15 16  2  0
 15 17  1  0
 17 18  1  0
 17 19  1  0
 19 20  1  0
 20 21  2  0
 21 22  1  0
 22 23  1  0
 23 24  2  0
  2 25  1  0
 25 26  2  0
 25 27  1  0
 27 28  1  0
 28 29  1  0
 29 30  1  0
 30 31  2  0
 31 32  1  0
 32 33  2  0
 33 34  1  0
 34 35  2  0
 13  8  1  0
 24 20  1  0
 35 30  1  0
  1 36  1  0
  1 37  1  0
  1 38  1  0
  2 39  1  1
  6 40  1  1
  7 41  1  0
  7 42  1  0
  9 43  1  0
 10 44  1  0
 11 45  1  0
 12 46  1  0
 13 47  1  0
 17 48  1  6
 18 49  1  0
 18 50  1  0
 19 51  1  0
 19 52  1  0
 21 53  1  0
 23 54  1  0
 28 55  1  0
 28 56  1  0
 29 57  1  0
 29 58  1  0
 31 59  1  0
 32 60  1  0
 33 61  1  0
 34 62  1  0
 35 63  1  0
M  CHG  4   3  -1  14  -1  22  -1  27  -1
M  END
>  <UniqueID>  (18) 
16

>  <SMILES>  (18) 
C[C@H]([N-]C(=O)[C@H](Cc1ccccc1)[N-]C(=O)C(N)Cc1c[n-]cn1)C(=O)[N-]CCc1ccccc1

>  <Energy>  (18) 
81.16741657732875

>  <Genealogy>  (18) 
CC([N-]C(=O)C(Cc1ccccc1)[N-]C(=O)C(N)Cc1c[n-]cn1)C(=O)[N-]CCc1ccccc1 (protonated)
C[C@H]([N-]C(=O)[C@H](Cc1ccccc1)[N-]C(=O)C(N)Cc1c[n-]cn1)C(=O)[N-]CCc1ccccc1 (chirality)
C[C@H]([N-]C(=O)[C@H](Cc1ccccc1)[N-]C(=O)C(N)Cc1c[n-]cn1)C(=O)[N-]CCc1ccccc1 (3D coordinates assigned)
C[C@H]([N-]C(=O)[C@H](Cc1ccccc1)[N-]C(=O)C(N)Cc1c[n-]cn1)C(=O)[N-]CCc1ccccc1 (optimized conformer: 81.16741657732875 kcal/mol)

>  <smiles>  (18) 
CC(NC(=O)C(Cc1ccccc1)NC(=O)C(N)Cc1c[nH]cn1)C(=O)NCCc1ccccc1

>  <score_type>  (18) 
oracle

>  <origin>  (18) 
adg

>  <m_score__min__energy>  (18) 
-15.17

>  <m_primary>  (18) 
energy

$$$$
18:0
     RDKit          3D

 29 30  0  0  0  0  0  0  0  0999 V2000
   58.0999   27.1607   44.1122 H   0  0  0  0  0  0  0  0  0  0  0  0
   57.6720   26.5100   44.8890 C   0  0  0  0  0  0  0  0  0  0  0  0
   56.4730   27.0130   45.6060 C   0  0  0  0  0  0  0  0  0  0  0  0
   55.9210   26.3260   46.5050 O   0  0  0  0  0  0  0  0  0  0  0  0
   55.8810   28.2700   45.2520 N   0  0  0  0  0  0  0  0  0  0  0  0
   56.5240   29.3440   44.5510 C   0  0  0  0  0  0  0  0  0  0  0  0
   56.0850   29.7480   43.2770 C   0  0  0  0  0  0  0  0  0  0  0  0
   55.2173   29.2541   42.8154 H   0  0  0  0  0  0  0  0  0  0  0  0
   56.7450   30.7730   42.5950 C   0  0  0  0  0  0  0  0  0  0  0  0
   56.3872   31.0933   41.6054 H   0  0  0  0  0  0  0  0  0  0  0  0
   57.8590   31.3920   43.1680 C   0  0  0  0  0  0  0  0  0  0  0  0
   58.4990   32.3850   42.5050 F   0  0  0  0  0  0  0  0  0  0  0  0
   58.3190   30.9790   44.4210 C   0  0  0  0  0  0  0  0  0  0  0  0
   59.2003   31.4623   44.8679 H   0  0  0  0  0  0  0  0  0  0  0  0
   57.6620   29.9520   45.1100 C   0  0  0  0  0  0  0  0  0  0  0  0
   58.2690   29.4500   46.6820 Cl  0  0  0  0  0  0  0  0  0  0  0  0
   58.2810   25.3330   45.1030 C   0  0  0  0  0  0  0  0  0  0  0  0
   59.1531   25.3262   45.7734 H   0  0  0  0  0  0  0  0  0  0  0  0
   57.8690   24.0480   44.5070 C   0  0  0  0  0  0  0  0  0  0  0  0
   56.7570   24.0080   43.6590 C   0  0  0  0  0  0  0  0  0  0  0  0
   56.2133   24.9343   43.4217 H   0  0  0  0  0  0  0  0  0  0  0  0
   56.3370   22.7940   43.1140 C   0  0  0  0  0  0  0  0  0  0  0  0
   55.4716   22.7591   42.4359 H   0  0  0  0  0  0  0  0  0  0  0  0
   57.0260   21.6250   43.4380 C   0  0  0  0  0  0  0  0  0  0  0  0
   56.7068   20.6640   43.0084 H   0  0  0  0  0  0  0  0  0  0  0  0
   58.0920   21.6690   44.2840 N   0  0  0  0  0  0  0  0  0  0  0  0
   58.5850   20.7780   44.5200 H   0  0  0  0  0  0  0  0  0  0  0  0
   58.5210   22.8420   44.8290 C   0  0  0  0  0  0  0  0  0  0  0  0
   59.5000   22.8380   45.6250 O   0  0  0  0  0  0  0  0  0  0  0  0
  1  2  1  0
  2  3  1  0
  3  4  2  0
  3  5  1  0
  5  6  1  0
  6  7  2  0
  7  8  1  0
  7  9  1  0
  9 10  1  0
  9 11  2  0
 11 12  1  0
 11 13  1  0
 13 14  1  0
 13 15  2  0
 15 16  1  0
  2 17  2  0
 17 18  1  0
 17 19  1  0
 19 20  2  0
 20 21  1  0
 20 22  1  0
 22 23  1  0
 22 24  2  0
 24 25  1  0
 24 26  1  0
 26 27  1  0
 26 28  1  0
 28 29  2  0
 15  6  1  0
 28 19  1  0
M  CHG  1   5  -1
M  END
>  <UniqueID>  (19) 
17

>  <SMILES>  (19) 
O=C(/C=C\c1ccc[nH]c1=O)[N-]c1ccc(F)cc1Cl

>  <Energy>  (19) 
45.31901718539419

>  <Genealogy>  (19) 
O=C(C=Cc1ccc[nH]c1=O)[N-]c1ccc(F)cc1Cl (protonated)
O=C(/C=C\c1ccc[nH]c1=O)[N-]c1ccc(F)cc1Cl (cis-trans isomerization)
O=C(/C=C\c1ccc[nH]c1=O)[N-]c1ccc(F)cc1Cl (3D coordinates assigned)
O=C(/C=C\c1ccc[nH]c1=O)[N-]c1ccc(F)cc1Cl (optimized conformer: 45.31901718539419 kcal/mol)

>  <smiles>  (19) 
O=C(C=Cc1ccc[nH]c1=O)Nc1ccc(F)cc1Cl

>  <score_type>  (19) 
oracle

>  <origin>  (19) 
adg

>  <m_score__min__energy>  (19) 
-9.2200000000000006

>  <m_primary>  (19) 
energy

$$$$
19:0
     RDKit          3D

 47 49  0  0  0  0  0  0  0  0999 V2000
   54.2690   26.7680   46.5240 H   0  0  0  0  0  0  0  0  0  0  0  0
   55.1360   26.3360   46.1300 N   0  0  0  0  0  0  0  0  0  0  0  0
   56.2090   27.0220   45.8940 C   0  0  0  0  0  0  0  0  0  0  0  0
   56.1110   28.2080   45.2450 N   0  0  0  0  0  0  0  0  0  0  0  0
   57.1930   28.9790   44.9570 C   0  0  0  0  0  0  0  0  0  0  0  0
   56.9610   30.2790   44.2410 C   0  0  0  0  0  0  0  0  0  0  0  0
   56.8175   31.0830   44.9779 H   0  0  0  0  0  0  0  0  0  0  0  0
   57.8320   30.5108   43.6104 H   0  0  0  0  0  0  0  0  0  0  0  0
   56.0636   30.1952   43.6104 H   0  0  0  0  0  0  0  0  0  0  0  0
   58.4910   28.5360   45.3200 C   0  0  0  0  0  0  0  0  0  0  0  0
   59.7100   29.3810   45.0140 C   0  0  0  0  0  0  0  0  0  0  0  0
   60.5377   28.7304   44.6953 H   0  0  0  0  0  0  0  0  0  0  0  0
   59.4737   30.0910   44.2077 H   0  0  0  0  0  0  0  0  0  0  0  0
   60.1000   30.1140   46.2120 N   0  0  0  0  0  0  0  0  0  0  0  0
   59.2910   31.1120   46.8410 C   0  0  0  0  0  0  0  0  0  0  0  0
   58.7480   30.8510   47.9450 O   0  0  0  0  0  0  0  0  0  0  0  0
   59.0630   32.4290   46.2120 C   0  0  0  0  0  0  0  0  0  0  0  0
   59.0230   33.6200   46.9720 C   0  0  0  0  0  0  0  0  0  0  0  0
   59.2940   33.6400   48.4480 C   0  0  0  0  0  0  0  0  0  0  0  0
   58.4153   34.0359   48.9781 H   0  0  0  0  0  0  0  0  0  0  0  0
   59.5006   32.6185   48.7998 H   0  0  0  0  0  0  0  0  0  0  0  0
   60.4220   34.4730   48.7060 O   0  0  0  0  0  0  0  0  0  0  0  0
   61.7360   34.0080   48.8550 C   0  0  0  0  0  0  0  0  0  0  0  0
   62.3470   34.1340   50.1090 C   0  0  0  0  0  0  0  0  0  0  0  0
   61.7897   34.5821   50.9448 H   0  0  0  0  0  0  0  0  0  0  0  0
   63.6590   33.6950   50.3070 C   0  0  0  0  0  0  0  0  0  0  0  0
   64.1310   33.8011   51.2949 H   0  0  0  0  0  0  0  0  0  0  0  0
   64.3720   33.1210   49.2500 C   0  0  0  0  0  0  0  0  0  0  0  0
   65.6440   32.6950   49.4420 F   0  0  0  0  0  0  0  0  0  0  0  0
   63.7700   32.9840   47.9970 C   0  0  0  0  0  0  0  0  0  0  0  0
   64.3304   32.5301   47.1663 H   0  0  0  0  0  0  0  0  0  0  0  0
   62.4570   33.4220   47.7950 C   0  0  0  0  0  0  0  0  0  0  0  0
   61.9863   33.3089   46.8072 H   0  0  0  0  0  0  0  0  0  0  0  0
   58.8140   34.8020   46.3300 N   0  0  0  0  0  0  0  0  0  0  0  0
   58.6230   34.8610   44.9880 C   0  0  0  0  0  0  0  0  0  0  0  0
   58.4475   35.8284   44.4948 H   0  0  0  0  0  0  0  0  0  0  0  0
   58.6510   33.6860   44.2400 C   0  0  0  0  0  0  0  0  0  0  0  0
   58.4967   33.7193   43.1514 H   0  0  0  0  0  0  0  0  0  0  0  0
   58.8700   32.4990   44.8630 N   0  0  0  0  0  0  0  0  0  0  0  0
   58.8760   31.6260   44.2880 H   0  0  0  0  0  0  0  0  0  0  0  0
   58.6110   27.3200   46.0390 C   0  0  0  0  0  0  0  0  0  0  0  0
   59.9470   26.8000   46.5020 C   0  0  0  0  0  0  0  0  0  0  0  0
   59.9751   26.7890   47.6016 H   0  0  0  0  0  0  0  0  0  0  0  0
   60.0949   25.7787   46.1212 H   0  0  0  0  0  0  0  0  0  0  0  0
   60.7464   27.4526   46.1212 H   0  0  0  0  0  0  0  0  0  0  0  0
   57.4630   26.5590   46.3040 C   0  0  0  0  0  0  0  0  0  0  0  0
   57.5491   25.5989   46.8339 H   0  0  0  0  0  0  0  0  0  0  0  0
  1  2  1  0
  2  3  2  0
  3  4  1  0
  4  5  1  0
  5  6  1  0
  6  7  1  0
  6  8  1  0
  6  9  1  0
  5 10  2  0
 10 11  1  0
 11 12  1  0
 11 13  1  0
 11 14  1  0
 14 15  1  0
 15 16  2  0
 15 17  1  0
 17 18  1  0
 18 19  1  0
 19 20  1  0
 19 21  1  0
 19 22  1  0
 22 23  1  0
 23 24  2  0
 24 25  1  0
 24 26  1  0
 26 27  1  0
 26 28  2  0
 28 29  1  0
 28 30  1  0
 30 31  1  0
 30 32  2  0
 32 33  1  0
 18 34  2  0
 34 35  1  0
 35 36  1  0
 35 37  2  0
 37 38  1  0
 37 39  1  0
 39 40  1  0
 10 41  1  0
 41 42  1  0
 42 43  1  0
 42 44  1  0
 42 45  1  0
 41 46  2  0
 46 47  1  0
 46  3  1  0
 39 17  2  0
 32 23  1  0
M  CHG  3   4  -1  14  -1  39   1
M  END
>  <UniqueID>  (20) 
18

>  <SMILES>  (20) 
[H]/N=c1\cc(C)c(C[N-]C(=O)c2[nH+]ccnc2COc2ccc(F)cc2)c(C)[n-]1

>  <Energy>  (20) 
55.10546647329162

>  <Genealogy>  (20) 
Cc1cc(=N)[n-]c(C)c1C[N-]C(=O)c1[nH+]ccnc1COc1ccc(F)cc1 (protonated)
[H]/N=c1\cc(C)c(C[N-]C(=O)c2[nH+]ccnc2COc2ccc(F)cc2)c(C)[n-]1 (cis-trans isomerization)
[H]/N=c1\cc(C)c(C[N-]C(=O)c2[nH+]ccnc2COc2ccc(F)cc2)c(C)[n-]1 (3D coordinates assigned)
[H]/N=c1\cc(C)c(C[N-]C(=O)c2[nH+]ccnc2COc2ccc(F)cc2)c(C)[n-]1 (optimized conformer: 55.10546647329162 kcal/mol)

>  <smiles>  (20) 
Cc1cc(=N)[nH]c(C)c1CNC(=O)c1nccnc1COc1ccc(F)cc1

>  <score_type>  (20) 
oracle

>  <origin>  (20) 
adg

>  <m_score__min__energy>  (20) 
-9.9600000000000009

>  <m_primary>  (20) 
energy

$$$$
20:0
     RDKit          3D

 37 38  0  0  0  0  0  0  0  0999 V2000
   56.1220   28.2870   53.9960 O   0  0  0  0  0  0  0  0  0  0  0  0
   55.8900   29.4640   53.6110 C   0  0  0  0  0  0  0  0  0  0  0  0
   54.5980   30.0820   53.9720 C   0  0  0  0  0  0  0  0  0  0  0  0
   53.4010   29.7090   53.4910 C   0  0  0  0  0  0  0  0  0  0  0  0
   52.6590   30.4030   52.4120 C   0  0  0  0  0  0  0  0  0  0  0  0
   52.7540   29.9740   51.0760 C   0  0  0  0  0  0  0  0  0  0  0  0
   52.0360   30.6250   50.0700 C   0  0  0  0  0  0  0  0  0  0  0  0
   51.1990   31.6980   50.3890 C   0  0  0  0  0  0  0  0  0  0  0  0
   50.4880   32.3420   49.3830 O   0  0  0  0  0  0  0  0  0  0  0  0
   51.0740   32.1160   51.7180 C   0  0  0  0  0  0  0  0  0  0  0  0
   50.2320   33.1770   52.0360 O   0  0  0  0  0  0  0  0  0  0  0  0
   51.7950   31.4680   52.7310 C   0  0  0  0  0  0  0  0  0  0  0  0
   51.6600   31.8940   54.0480 O   0  0  0  0  0  0  0  0  0  0  0  0
   56.9380   30.1960   52.8760 C   0  0  0  0  0  0  0  0  0  0  0  0
   57.4350   31.2510   53.3560 O   0  0  0  0  0  0  0  0  0  0  0  0
   57.4030   29.6910   51.6220 N   0  0  0  0  0  0  0  0  0  0  0  0
   57.9440   30.5500   50.5760 C   0  0  0  0  0  0  0  0  0  0  0  0
   59.4080   30.1990   50.3070 C   0  0  0  0  0  0  0  0  0  0  0  0
   59.5280   29.0110   49.3880 C   0  0  0  0  0  0  0  0  0  0  0  0
   58.8440   28.9960   48.1610 C   0  0  0  0  0  0  0  0  0  0  0  0
   58.9800   27.9080   47.2920 C   0  0  0  0  0  0  0  0  0  0  0  0
   59.8050   26.8340   47.6390 C   0  0  0  0  0  0  0  0  0  0  0  0
   59.9400   25.7530   46.7750 O   0  0  0  0  0  0  0  0  0  0  0  0
   60.4970   26.8470   48.8550 C   0  0  0  0  0  0  0  0  0  0  0  0
   60.3620   27.9330   49.7250 C   0  0  0  0  0  0  0  0  0  0  0  0
   54.6179   30.9136   54.6918 H   0  0  0  0  0  0  0  0  0  0  0  0
   52.9337   28.8168   53.9333 H   0  0  0  0  0  0  0  0  0  0  0  0
   53.3984   29.1196   50.8214 H   0  0  0  0  0  0  0  0  0  0  0  0
   52.1294   30.2928   49.0255 H   0  0  0  0  0  0  0  0  0  0  0  0
   57.3615   30.4096   49.6535 H   0  0  0  0  0  0  0  0  0  0  0  0
   57.8813   31.5978   50.9048 H   0  0  0  0  0  0  0  0  0  0  0  0
   59.9036   31.0635   49.8412 H   0  0  0  0  0  0  0  0  0  0  0  0
   59.8852   29.9454   51.2651 H   0  0  0  0  0  0  0  0  0  0  0  0
   58.1993   29.8426   47.8825 H   0  0  0  0  0  0  0  0  0  0  0  0
   58.4375   27.8976   46.3352 H   0  0  0  0  0  0  0  0  0  0  0  0
   61.1474   26.0025   49.1265 H   0  0  0  0  0  0  0  0  0  0  0  0
   60.9116   27.9429   50.6778 H   0  0  0  0  0  0  0  0  0  0  0  0
  1  2  2  0
  2  3  1  0
  3  4  2  3
  4  5  1  0
  5  6  2  0
  6  7  1  0
  7  8  2  0
  8  9  1  0
  8 10  1  0
 10 11  1  0
 10 12  2  0
 12 13  1  0
  2 14  1  0
 14 15  2  0
 14 16  1  0
 16 17  1  0
 17 18  1  0
 18 19  1  0
 19 20  2  0
 20 21  1  0
 21 22  2  0
 22 23  1  0
 22 24  1  0
 24 25  2  0
 12  5  1  0
 25 19  1  0
  3 26  1  0
  4 27  1  0
  6 28  1  0
  7 29  1  0
 17 30  1  0
 17 31  1  0
 18 32  1  0
 18 33  1  0
 20 34  1  0
 21 35  1  0
 24 36  1  0
 25 37  1  0
M  CHG  5   9  -1  11  -1  13  -1  16  -1  23  -1
M  END
>  <UniqueID>  (21) 
19

>  <SMILES>  (21) 
O=C(C=Cc1ccc([O-])c([O-])c1[O-])C(=O)[N-]CCc1ccc([O-])cc1

>  <Energy>  (21) 
42.625545736960355

>  <Genealogy>  (21) 
O=C(C=Cc1ccc([O-])c([O-])c1[O-])C(=O)[N-]CCc1ccc([O-])cc1 (protonated)
O=C(C=Cc1ccc([O-])c([O-])c1[O-])C(=O)[N-]CCc1ccc([O-])cc1 (3D coordinates assigned)
O=C(C=Cc1ccc([O-])c([O-])c1[O-])C(=O)[N-]CCc1ccc([O-])cc1 (optimized conformer: 42.625545736960355 kcal/mol)

>  <smiles>  (21) 
O=C(C=Cc1ccc(O)c(O)c1O)C(=O)NCCc1ccc(O)cc1

>  <score_type>  (21) 
oracle

>  <origin>  (21) 
adg

>  <m_score__min__energy>  (21) 
-18.34

>  <m_primary>  (21) 
energy

$$$$
21:0
     RDKit          3D

 31 32  0  0  0  0  0  0  0  0999 V2000
   57.5310   31.6940   45.9860 O   0  0  0  0  0  0  0  0  0  0  0  0
   57.5890   32.4370   44.9680 C   0  0  0  0  0  0  0  0  0  0  0  0
   57.6000   31.8630   43.6580 N   0  0  0  0  0  0  0  0  0  0  0  0
   56.9340   30.6080   43.3300 C   0  0  0  0  0  0  0  0  0  0  0  0
   57.4250   29.5070   44.2350 C   0  0  0  0  0  0  0  0  0  0  0  0
   58.7980   29.2210   44.3160 C   0  0  0  0  0  0  0  0  0  0  0  0
   59.2560   28.1740   45.1220 C   0  0  0  0  0  0  0  0  0  0  0  0
   58.3480   27.4040   45.8510 C   0  0  0  0  0  0  0  0  0  0  0  0
   56.9800   27.6760   45.7740 C   0  0  0  0  0  0  0  0  0  0  0  0
   56.5140   28.7200   44.9680 C   0  0  0  0  0  0  0  0  0  0  0  0
   55.1470   28.9690   44.8960 O   0  0  0  0  0  0  0  0  0  0  0  0
   57.6470   33.8990   45.1250 C   0  0  0  0  0  0  0  0  0  0  0  0
   56.5880   34.5720   45.0220 O   0  0  0  0  0  0  0  0  0  0  0  0
   58.8720   34.5760   45.4360 N   0  0  0  0  0  0  0  0  0  0  0  0
   59.7410   34.2760   46.5380 C   0  0  0  0  0  0  0  0  0  0  0  0
   59.2710   34.4660   47.8440 C   0  0  0  0  0  0  0  0  0  0  0  0
   60.1000   34.2000   48.9380 C   0  0  0  0  0  0  0  0  0  0  0  0
   61.4100   33.7580   48.7350 C   0  0  0  0  0  0  0  0  0  0  0  0
   61.8970   33.5900   47.4340 C   0  0  0  0  0  0  0  0  0  0  0  0
   63.5480   33.0560   47.1780 Cl  0  0  0  0  0  0  0  0  0  0  0  0
   61.0700   33.8570   46.3380 C   0  0  0  0  0  0  0  0  0  0  0  0
   55.8483   30.7280   43.4596 H   0  0  0  0  0  0  0  0  0  0  0  0
   57.1603   30.3432   42.2866 H   0  0  0  0  0  0  0  0  0  0  0  0
   59.5170   29.8241   43.7421 H   0  0  0  0  0  0  0  0  0  0  0  0
   60.3327   27.9570   45.1816 H   0  0  0  0  0  0  0  0  0  0  0  0
   58.7100   26.5824   46.4866 H   0  0  0  0  0  0  0  0  0  0  0  0
   56.2668   27.0672   46.3491 H   0  0  0  0  0  0  0  0  0  0  0  0
   58.2449   34.8262   48.0095 H   0  0  0  0  0  0  0  0  0  0  0  0
   59.7201   34.3390   49.9609 H   0  0  0  0  0  0  0  0  0  0  0  0
   62.0579   33.5423   49.5973 H   0  0  0  0  0  0  0  0  0  0  0  0
   61.4595   33.7391   45.3160 H   0  0  0  0  0  0  0  0  0  0  0  0
  1  2  2  0
  2  3  1  0
  3  4  1  0
  4  5  1  0
  5  6  2  0
  6  7  1  0
  7  8  2  0
  8  9  1  0
  9 10  2  0
 10 11  1  0
  2 12  1  0
 12 13  2  0
 12 14  1  0
 14 15  1  0
 15 16  2  0
 16 17  1  0
 17 18  2  0
 18 19  1  0
 19 20  1  0
 19 21  2  0
 10  5  1  0
 21 15  1  0
  4 22  1  0
  4 23  1  0
  6 24  1  0
  7 25  1  0
  8 26  1  0
  9 27  1  0
 16 28  1  0
 17 29  1  0
 18 30  1  0
 21 31  1  0
M  CHG  3   3  -1  11  -1  14  -1
M  END
>  <UniqueID>  (22) 
20

>  <SMILES>  (22) 
O=C([N-]Cc1ccccc1[O-])C(=O)[N-]c1cccc(Cl)c1

>  <Energy>  (22) 
32.98613738083818

>  <Genealogy>  (22) 
O=C([N-]Cc1ccccc1[O-])C(=O)[N-]c1cccc(Cl)c1 (protonated)
O=C([N-]Cc1ccccc1[O-])C(=O)[N-]c1cccc(Cl)c1 (3D coordinates assigned)
O=C([N-]Cc1ccccc1[O-])C(=O)[N-]c1cccc(Cl)c1 (optimized conformer: 32.98613738083818 kcal/mol)

>  <smiles>  (22) 
O=C(NCc1ccccc1O)C(=O)Nc1cccc(Cl)c1

>  <score_type>  (22) 
oracle

>  <origin>  (22) 
adg

>  <m_score__min__energy>  (22) 
-15.01

>  <m_primary>  (22) 
energy

$$$$
22:0
     RDKit          3D

 38 40  0  0  0  0  0  0  0  0999 V2000
   65.4470   33.0630   49.3700 N   0  0  0  0  0  0  0  0  0  0  0  0
   63.9300   33.3520   50.1480 S   0  0  0  0  0  0  0  0  0  0  0  0
   64.0600   34.5160   51.0900 O   0  0  0  0  0  0  0  0  0  0  0  0
   63.5420   32.1230   50.9220 O   0  0  0  0  0  0  0  0  0  0  0  0
   62.7020   33.7100   48.9390 C   0  0  0  0  0  0  0  0  0  0  0  0
   61.4650   34.2440   49.3240 C   0  0  0  0  0  0  0  0  0  0  0  0
   60.4950   34.5350   48.3600 C   0  0  0  0  0  0  0  0  0  0  0  0
   60.7420   34.2800   47.0060 C   0  0  0  0  0  0  0  0  0  0  0  0
   59.7320   34.6150   46.0400 N   0  0  0  0  0  0  0  0  0  0  0  0
   58.5800   34.0280   45.8690 C   0  0  0  0  0  0  0  0  0  0  0  0
   58.3840   32.5610   45.9380 C   0  0  0  0  0  0  0  0  0  0  0  0
   58.1390   31.8190   44.7660 C   0  0  0  0  0  0  0  0  0  0  0  0
   58.1070   32.6390   43.1980 Cl  0  0  0  0  0  0  0  0  0  0  0  0
   57.9550   30.4250   44.8630 C   0  0  0  0  0  0  0  0  0  0  0  0
   57.7270   29.6120   43.7380 C   0  0  0  0  0  0  0  0  0  0  0  0
   57.5550   28.2320   43.8860 C   0  0  0  0  0  0  0  0  0  0  0  0
   57.6070   27.6390   45.1610 C   0  0  0  0  0  0  0  0  0  0  0  0
   57.4410   26.2620   45.3630 O   0  0  0  0  0  0  0  0  0  0  0  0
   55.9840   25.5200   45.8660 S   0  0  0  0  0  0  0  0  0  0  0  0
   55.5780   24.4700   44.8720 O   0  0  0  0  0  0  0  0  0  0  0  0
   56.1970   24.8760   47.2060 O   0  0  0  0  0  0  0  0  0  0  0  0
   54.7710   26.6750   45.9940 O   0  0  0  0  0  0  0  0  0  0  0  0
   57.8310   28.4470   46.2800 C   0  0  0  0  0  0  0  0  0  0  0  0
   58.0050   29.8290   46.1420 C   0  0  0  0  0  0  0  0  0  0  0  0
   58.2110   30.5700   47.2240 O   0  0  0  0  0  0  0  0  0  0  0  0
   58.3900   31.8840   47.1740 C   0  0  0  0  0  0  0  0  0  0  0  0
   58.5510   32.5190   48.2500 O   0  0  0  0  0  0  0  0  0  0  0  0
   62.0010   33.7850   46.6180 C   0  0  0  0  0  0  0  0  0  0  0  0
   62.9700   33.4940   47.5810 C   0  0  0  0  0  0  0  0  0  0  0  0
   65.2670   33.0620   48.3420 H   0  0  0  0  0  0  0  0  0  0  0  0
   61.2566   34.4347   50.3871 H   0  0  0  0  0  0  0  0  0  0  0  0
   59.5314   34.9672   48.6676 H   0  0  0  0  0  0  0  0  0  0  0  0
   57.7030   34.6587   45.6615 H   0  0  0  0  0  0  0  0  0  0  0  0
   57.6837   30.0642   42.7362 H   0  0  0  0  0  0  0  0  0  0  0  0
   57.3778   27.6056   42.9993 H   0  0  0  0  0  0  0  0  0  0  0  0
   57.8709   27.9913   47.2804 H   0  0  0  0  0  0  0  0  0  0  0  0
   62.2228   33.6267   45.5523 H   0  0  0  0  0  0  0  0  0  0  0  0
   63.9469   33.0938   47.2720 H   0  0  0  0  0  0  0  0  0  0  0  0
  1  2  1  0
  2  3  2  0
  2  4  2  0
  2  5  1  0
  5  6  2  0
  6  7  1  0
  7  8  2  0
  8  9  1  0
  9 10  2  3
 10 11  1  0
 11 12  2  0
 12 13  1  0
 12 14  1  0
 14 15  2  0
 15 16  1  0
 16 17  2  0
 17 18  1  0
 18 19  1  0
 19 20  2  0
 19 21  2  0
 19 22  1  0
 17 23  1  0
 23 24  2  0
 24 25  1  0
 25 26  1  0
 26 27  2  0
  8 28  1  0
 28 29  2  0
 29  5  1  0
 26 11  1  0
 24 14  1  0
  1 30  1  0
  6 31  1  0
  7 32  1  0
 10 33  1  0
 15 34  1  0
 16 35  1  0
 23 36  1  0
 28 37  1  0
 29 38  1  0
M  CHG  2   1  -1  22  -1
M  END
>  <UniqueID>  (23) 
21

>  <SMILES>  (23) 
[NH-]S(=O)(=O)c1ccc(N=Cc2c(Cl)c3ccc(OS(=O)(=O)[O-])cc3oc2=O)cc1

>  <Energy>  (23) 
59.15485160794542

>  <Genealogy>  (23) 
[NH-]S(=O)(=O)c1ccc(N=Cc2c(Cl)c3ccc(OS(=O)(=O)[O-])cc3oc2=O)cc1 (protonated)
[NH-]S(=O)(=O)c1ccc(N=Cc2c(Cl)c3ccc(OS(=O)(=O)[O-])cc3oc2=O)cc1 (3D coordinates assigned)
[NH-]S(=O)(=O)c1ccc(N=Cc2c(Cl)c3ccc(OS(=O)(=O)[O-])cc3oc2=O)cc1 (optimized conformer: 59.15485160794542 kcal/mol)

>  <smiles>  (23) 
NS(=O)(=O)c1ccc(N=Cc2c(Cl)c3ccc(OS(=O)(=O)O)cc3oc2=O)cc1

>  <score_type>  (23) 
oracle

>  <origin>  (23) 
adg

>  <m_score__min__energy>  (23) 
-12.49

>  <m_primary>  (23) 
energy

$$$$
23:0
     RDKit          3D

 56 59  0  0  0  0  0  0  0  0999 V2000
   55.1570   30.5790   44.4660 O   0  0  0  0  0  0  0  0  0  0  0  0
   56.3840   30.2890   44.4810 C   0  0  0  0  0  0  0  0  0  0  0  0
   56.8180   28.9600   44.1600 N   0  0  0  0  0  0  0  0  0  0  0  0
   57.6510   28.1100   44.9590 C   0  0  0  0  0  0  0  0  0  0  0  0
   59.0350   28.3170   45.0860 C   0  0  0  0  0  0  0  0  0  0  0  0
   59.8060   27.4380   45.8500 C   0  0  0  0  0  0  0  0  0  0  0  0
   59.2080   26.3490   46.4900 C   0  0  0  0  0  0  0  0  0  0  0  0
   57.8230   26.1360   46.3810 C   0  0  0  0  0  0  0  0  0  0  0  0
   57.1950   24.9620   47.0360 C   0  0  0  0  0  0  0  0  0  0  0  0
   57.4950   24.6850   48.2270 O   0  0  0  0  0  0  0  0  0  0  0  0
   56.2160   24.1500   46.3700 N   0  0  0  0  0  0  0  0  0  0  0  0
   56.4690   23.2100   45.3130 C   0  0  0  0  0  0  0  0  0  0  0  0
   56.0110   23.4400   44.0020 C   0  0  0  0  0  0  0  0  0  0  0  0
   56.2580   22.5040   42.9940 C   0  0  0  0  0  0  0  0  0  0  0  0
   56.9780   21.3430   43.2800 C   0  0  0  0  0  0  0  0  0  0  0  0
   57.4570   21.1160   44.5730 C   0  0  0  0  0  0  0  0  0  0  0  0
   57.2100   22.0490   45.5900 C   0  0  0  0  0  0  0  0  0  0  0  0
   57.6880   21.8250   46.8810 O   0  0  0  0  0  0  0  0  0  0  0  0
   57.0490   27.0500   45.6450 C   0  0  0  0  0  0  0  0  0  0  0  0
   57.3740   31.2930   44.9330 C   0  0  0  0  0  0  0  0  0  0  0  0
   57.9520   31.2010   46.2110 C   0  0  0  0  0  0  0  0  0  0  0  0
   58.8080   32.2020   46.6760 C   0  0  0  0  0  0  0  0  0  0  0  0
   59.0920   33.3140   45.8730 C   0  0  0  0  0  0  0  0  0  0  0  0
   60.0150   34.6720   46.5070 S   0  0  0  0  0  0  0  0  0  0  0  0
   59.5410   34.9720   47.9010 O   0  0  0  0  0  0  0  0  0  0  0  0
   59.8060   35.8960   45.6560 O   0  0  0  0  0  0  0  0  0  0  0  0
   61.7070   34.2610   46.5560 N   0  0  0  0  0  0  0  0  0  0  0  0
   62.1210   33.8320   47.8950 C   0  0  0  0  0  0  0  0  0  0  0  0
   61.4830   32.5190   48.2770 C   0  0  0  0  0  0  0  0  0  0  0  0
   61.7120   31.3630   47.5070 C   0  0  0  0  0  0  0  0  0  0  0  0
   61.0950   30.1550   47.8480 C   0  0  0  0  0  0  0  0  0  0  0  0
   60.2510   30.0890   48.9610 C   0  0  0  0  0  0  0  0  0  0  0  0
   60.0370   31.2260   49.7450 C   0  0  0  0  0  0  0  0  0  0  0  0
   60.6560   32.4350   49.4100 C   0  0  0  0  0  0  0  0  0  0  0  0
   58.5560   33.3900   44.5820 C   0  0  0  0  0  0  0  0  0  0  0  0
   57.7050   32.3870   44.1130 C   0  0  0  0  0  0  0  0  0  0  0  0
   59.5114   29.1717   44.5835 H   0  0  0  0  0  0  0  0  0  0  0  0
   60.8890   27.6037   45.9484 H   0  0  0  0  0  0  0  0  0  0  0  0
   59.8239   25.6556   47.0816 H   0  0  0  0  0  0  0  0  0  0  0  0
   55.4560   24.3609   43.7698 H   0  0  0  0  0  0  0  0  0  0  0  0
   55.8848   22.6824   41.9747 H   0  0  0  0  0  0  0  0  0  0  0  0
   57.1687   20.6056   42.4864 H   0  0  0  0  0  0  0  0  0  0  0  0
   58.0294   20.2029   44.7935 H   0  0  0  0  0  0  0  0  0  0  0  0
   57.7660   22.5770   47.5560 H   0  0  0  0  0  0  0  0  0  0  0  0
   55.9562   26.9301   45.6081 H   0  0  0  0  0  0  0  0  0  0  0  0
   57.7284   30.3339   46.8499 H   0  0  0  0  0  0  0  0  0  0  0  0
   59.2602   32.1169   47.6751 H   0  0  0  0  0  0  0  0  0  0  0  0
   63.2147   33.7159   47.9109 H   0  0  0  0  0  0  0  0  0  0  0  0
   61.7977   34.5959   48.6175 H   0  0  0  0  0  0  0  0  0  0  0  0
   62.3790   31.4099   46.6335 H   0  0  0  0  0  0  0  0  0  0  0  0
   61.2739   29.2559   47.2400 H   0  0  0  0  0  0  0  0  0  0  0  0
   59.7553   29.1417   49.2196 H   0  0  0  0  0  0  0  0  0  0  0  0
   59.3812   31.1702   50.6264 H   0  0  0  0  0  0  0  0  0  0  0  0
   60.4945   33.3245   50.0367 H   0  0  0  0  0  0  0  0  0  0  0  0
   58.8062   34.2432   43.9344 H   0  0  0  0  0  0  0  0  0  0  0  0
   57.2909   32.4528   43.0960 H   0  0  0  0  0  0  0  0  0  0  0  0
  1  2  2  0
  2  3  1  0
  3  4  1  0
  4  5  2  0
  5  6  1  0
  6  7  2  0
  7  8  1  0
  8  9  1  0
  9 10  2  0
  9 11  1  0
 11 12  1  0
 12 13  2  0
 13 14  1  0
 14 15  2  0
 15 16  1  0
 16 17  2  0
 17 18  1  0
  8 19  2  0
  2 20  1  0
 20 21  2  0
 21 22  1  0
 22 23  2  0
 23 24  1  0
 24 25  2  0
 24 26  2  0
 24 27  1  0
 27 28  1  0
 28 29  1  0
 29 30  2  0
 30 31  1  0
 31 32  2  0
 32 33  1  0
 33 34  2  0
 23 35  1  0
 35 36  2  0
 19  4  1  0
 36 20  1  0
 17 12  1  0
 34 29  1  0
  5 37  1  0
  6 38  1  0
  7 39  1  0
 13 40  1  0
 14 41  1  0
 15 42  1  0
 16 43  1  0
 18 44  1  0
 19 45  1  0
 21 46  1  0
 22 47  1  0
 28 48  1  0
 28 49  1  0
 30 50  1  0
 31 51  1  0
 32 52  1  0
 33 53  1  0
 34 54  1  0
 35 55  1  0
 36 56  1  0
M  CHG  3   3  -1  11  -1  27  -1
M  END
>  <UniqueID>  (24) 
22

>  <SMILES>  (24) 
O=C([N-]c1cccc(C(=O)[N-]c2ccccc2O)c1)c1ccc(S(=O)(=O)[N-]Cc2ccccc2)cc1

>  <Energy>  (24) 
66.47340486598347

>  <Genealogy>  (24) 
O=C([N-]c1cccc(C(=O)[N-]c2ccccc2O)c1)c1ccc(S(=O)(=O)[N-]Cc2ccccc2)cc1 (protonated)
O=C([N-]c1cccc(C(=O)[N-]c2ccccc2O)c1)c1ccc(S(=O)(=O)[N-]Cc2ccccc2)cc1 (3D coordinates assigned)
O=C([N-]c1cccc(C(=O)[N-]c2ccccc2O)c1)c1ccc(S(=O)(=O)[N-]Cc2ccccc2)cc1 (optimized conformer: 66.47340486598347 kcal/mol)

>  <smiles>  (24) 
O=C(Nc1cccc(C(=O)Nc2ccccc2O)c1)c1ccc(S(=O)(=O)NCc2ccccc2)cc1

>  <score_type>  (24) 
oracle

>  <origin>  (24) 
adg

>  <m_score__min__energy>  (24) 
-15.25

>  <m_primary>  (24) 
energy

$$$$
24:0
     RDKit          3D

 35 36  0  0  0  0  0  0  0  0999 V2000
   63.5440   31.7890   47.7150 N   0  0  0  0  0  0  0  0  0  0  0  0
   62.8960   33.3310   47.2780 S   0  0  0  0  0  0  0  0  0  0  0  0
   62.9160   34.2230   48.4880 O   0  0  0  0  0  0  0  0  0  0  0  0
   63.7410   33.9410   46.1960 O   0  0  0  0  0  0  0  0  0  0  0  0
   61.2450   33.1430   46.6950 C   0  0  0  0  0  0  0  0  0  0  0  0
   60.5600   34.2420   46.1650 C   0  0  0  0  0  0  0  0  0  0  0  0
   59.2460   34.1020   45.7090 C   0  0  0  0  0  0  0  0  0  0  0  0
   58.5940   32.8580   45.7830 C   0  0  0  0  0  0  0  0  0  0  0  0
   57.2000   32.7080   45.3020 C   0  0  0  0  0  0  0  0  0  0  0  0
   56.4280   33.7080   45.2880 O   0  0  0  0  0  0  0  0  0  0  0  0
   56.7300   31.4300   44.8530 N   0  0  0  0  0  0  0  0  0  0  0  0
   57.4020   30.6370   44.0760 C   0  0  0  0  0  0  0  0  0  0  0  0
   57.8140   29.3050   44.5430 C   0  0  0  0  0  0  0  0  0  0  0  0
   59.0440   29.0550   44.6480 O   0  0  0  0  0  0  0  0  0  0  0  0
   56.8370   28.2920   44.8380 N   0  0  0  0  0  0  0  0  0  0  0  0
   57.1430   27.0650   45.5230 C   0  0  0  0  0  0  0  0  0  0  0  0
   58.4740   26.6350   45.6820 C   0  0  0  0  0  0  0  0  0  0  0  0
   58.7580   25.4540   46.3740 C   0  0  0  0  0  0  0  0  0  0  0  0
   57.7210   24.6970   46.9230 C   0  0  0  0  0  0  0  0  0  0  0  0
   56.3980   25.1230   46.7900 C   0  0  0  0  0  0  0  0  0  0  0  0
   56.1060   26.3040   46.0980 C   0  0  0  0  0  0  0  0  0  0  0  0
   54.7830   26.7140   45.9770 O   0  0  0  0  0  0  0  0  0  0  0  0
   59.2860   31.7590   46.3240 C   0  0  0  0  0  0  0  0  0  0  0  0
   60.6010   31.9030   46.7780 C   0  0  0  0  0  0  0  0  0  0  0  0
   64.4990   31.7300   47.2960 H   0  0  0  0  0  0  0  0  0  0  0  0
   61.0580   35.2211   46.1069 H   0  0  0  0  0  0  0  0  0  0  0  0
   58.7182   34.9710   45.2893 H   0  0  0  0  0  0  0  0  0  0  0  0
   57.6656   30.9641   43.0594 H   0  0  0  0  0  0  0  0  0  0  0  0
   55.8680   28.4180   44.4680 H   0  0  0  0  0  0  0  0  0  0  0  0
   59.2955   27.2319   45.2592 H   0  0  0  0  0  0  0  0  0  0  0  0
   59.8002   25.1205   46.4862 H   0  0  0  0  0  0  0  0  0  0  0  0
   57.9466   23.7643   47.4607 H   0  0  0  0  0  0  0  0  0  0  0  0
   55.5834   24.5291   47.2301 H   0  0  0  0  0  0  0  0  0  0  0  0
   58.7894   30.7797   46.3904 H   0  0  0  0  0  0  0  0  0  0  0  0
   61.1316   31.0378   47.2022 H   0  0  0  0  0  0  0  0  0  0  0  0
  1  2  1  0
  2  3  2  0
  2  4  2  0
  2  5  1  0
  5  6  2  0
  6  7  1  0
  7  8  2  0
  8  9  1  0
  9 10  2  0
  9 11  1  0
 11 12  2  3
 12 13  1  0
 13 14  2  0
 13 15  1  0
 15 16  1  0
 16 17  2  0
 17 18  1  0
 18 19  2  0
 19 20  1  0
 20 21  2  0
 21 22  1  0
  8 23  1  0
 23 24  2  0
 24  5  1  0
 21 16  1  0
  1 25  1  0
  6 26  1  0
  7 27  1  0
 12 28  1  0
 15 29  1  0
 17 30  1  0
 18 31  1  0
 19 32  1  0
 20 33  1  0
 23 34  1  0
 24 35  1  0
M  CHG  2   1  -1  22  -1
M  END
>  <UniqueID>  (25) 
23

>  <SMILES>  (25) 
[NH-]S(=O)(=O)c1ccc(C(=O)N=CC(=O)Nc2ccccc2[O-])cc1

>  <Energy>  (25) 
38.81547817945608

>  <Genealogy>  (25) 
[NH-]S(=O)(=O)c1ccc(C(=O)N=CC(=O)Nc2ccccc2[O-])cc1 (protonated)
[NH-]S(=O)(=O)c1ccc(C(=O)N=CC(=O)Nc2ccccc2[O-])cc1 (3D coordinates assigned)
[NH-]S(=O)(=O)c1ccc(C(=O)N=CC(=O)Nc2ccccc2[O-])cc1 (optimized conformer: 38.81547817945608 kcal/mol)

>  <smiles>  (25) 
NS(=O)(=O)c1ccc(C(=O)N=CC(=O)Nc2ccccc2O)cc1

>  <score_type>  (25) 
oracle

>  <origin>  (25) 
adg

>  <m_score__min__energy>  (25) 
-13.02

>  <m_primary>  (25) 
energy

$$$$
25:0
     RDKit          3D

 56 58  0  0  0  0  0  0  0  0999 V2000
   54.7750   27.0950   44.9810 H   0  0  0  0  0  0  0  0  0  0  0  0
   55.0820   26.5100   45.7460 O   0  0  0  0  0  0  0  0  0  0  0  0
   56.4270   26.3700   46.0940 C   0  0  0  0  0  0  0  0  0  0  0  0
   56.7560   25.4920   47.1350 C   0  0  0  0  0  0  0  0  0  0  0  0
   55.9566   24.9843   47.6946 H   0  0  0  0  0  0  0  0  0  0  0  0
   58.0920   25.2570   47.4670 C   0  0  0  0  0  0  0  0  0  0  0  0
   58.3418   24.5686   48.2878 H   0  0  0  0  0  0  0  0  0  0  0  0
   59.1110   25.8960   46.7570 C   0  0  0  0  0  0  0  0  0  0  0  0
   60.1636   25.6967   47.0067 H   0  0  0  0  0  0  0  0  0  0  0  0
   58.7940   26.7880   45.7300 C   0  0  0  0  0  0  0  0  0  0  0  0
   59.6000   27.2820   45.1676 H   0  0  0  0  0  0  0  0  0  0  0  0
   57.4570   27.0580   45.4110 C   0  0  0  0  0  0  0  0  0  0  0  0
   57.1810   28.0180   44.3840 N   0  0  0  0  0  0  0  0  0  0  0  0
   56.4680   29.2440   44.5950 C   0  0  0  0  0  0  0  0  0  0  0  0
   55.2380   29.2080   44.8690 O   0  0  0  0  0  0  0  0  0  0  0  0
   57.1920   30.5420   44.5380 C   0  0  0  0  0  0  0  0  0  0  0  0
   56.9790   31.3940   43.4360 C   0  0  0  0  0  0  0  0  0  0  0  0
   56.2711   31.0973   42.6481 H   0  0  0  0  0  0  0  0  0  0  0  0
   57.6560   32.6100   43.3330 C   0  0  0  0  0  0  0  0  0  0  0  0
   57.4854   33.2607   42.4627 H   0  0  0  0  0  0  0  0  0  0  0  0
   58.5470   33.0020   44.3290 C   0  0  0  0  0  0  0  0  0  0  0  0
   59.0781   33.9615   44.2440 H   0  0  0  0  0  0  0  0  0  0  0  0
   58.7670   32.1800   45.4340 C   0  0  0  0  0  0  0  0  0  0  0  0
   59.4642   32.5013   46.2218 H   0  0  0  0  0  0  0  0  0  0  0  0
   58.1030   30.9390   45.5510 C   0  0  0  0  0  0  0  0  0  0  0  0
   58.2760   30.1150   46.7180 N   0  0  0  0  0  0  0  0  0  0  0  0
   59.3880   29.9370   47.3650 C   0  0  0  0  0  0  0  0  0  0  0  0
   60.3143   30.4135   47.0116 H   0  0  0  0  0  0  0  0  0  0  0  0
   59.4050   29.0800   48.5950 C   0  0  0  0  0  0  0  0  0  0  0  0
   59.8207   28.0941   48.3398 H   0  0  0  0  0  0  0  0  0  0  0  0
   58.3740   28.9816   48.9657 H   0  0  0  0  0  0  0  0  0  0  0  0
   60.2600   29.7130   49.6990 C   0  0  0  0  0  0  0  0  0  0  0  0
   61.3112   29.7320   49.3757 H   0  0  0  0  0  0  0  0  0  0  0  0
   60.1541   29.1146   50.6159 H   0  0  0  0  0  0  0  0  0  0  0  0
   59.8120   31.0960   49.9780 N   0  0  0  0  0  0  0  0  0  0  0  0
   60.9190   32.0730   49.8970 C   0  0  0  0  0  0  0  0  0  0  0  0
   60.9505   32.6613   50.8259 H   0  0  0  0  0  0  0  0  0  0  0  0
   61.8641   31.5271   49.7597 H   0  0  0  0  0  0  0  0  0  0  0  0
   60.7220   33.0020   48.7300 C   0  0  0  0  0  0  0  0  0  0  0  0
   61.6560   33.0170   47.6810 C   0  0  0  0  0  0  0  0  0  0  0  0
   62.5339   32.3553   47.7187 H   0  0  0  0  0  0  0  0  0  0  0  0
   61.4730   33.8700   46.5900 C   0  0  0  0  0  0  0  0  0  0  0  0
   62.2106   33.8835   45.7741 H   0  0  0  0  0  0  0  0  0  0  0  0
   60.3550   34.7060   46.5330 C   0  0  0  0  0  0  0  0  0  0  0  0
   60.2138   35.3777   45.6734 H   0  0  0  0  0  0  0  0  0  0  0  0
   59.4160   34.6890   47.5680 C   0  0  0  0  0  0  0  0  0  0  0  0
   58.5344   35.3452   47.5201 H   0  0  0  0  0  0  0  0  0  0  0  0
   59.5950   33.8390   48.6650 C   0  0  0  0  0  0  0  0  0  0  0  0
   58.8531   33.8259   49.4770 H   0  0  0  0  0  0  0  0  0  0  0  0
   59.0180   31.1990   51.2280 C   0  0  0  0  0  0  0  0  0  0  0  0
   59.6284   31.7169   51.9825 H   0  0  0  0  0  0  0  0  0  0  0  0
   58.7574   30.1716   51.5220 H   0  0  0  0  0  0  0  0  0  0  0  0
   57.6950   31.9620   51.0730 C   0  0  0  0  0  0  0  0  0  0  0  0
   57.2883   32.1966   52.0678 H   0  0  0  0  0  0  0  0  0  0  0  0
   57.8731   32.8961   50.5201 H   0  0  0  0  0  0  0  0  0  0  0  0
   56.9756   31.3401   50.5201 H   0  0  0  0  0  0  0  0  0  0  0  0
  1  2  1  0
  2  3  1  0
  3  4  2  0
  4  5  1  0
  4  6  1  0
  6  7  1  0
  6  8  2  0
  8  9  1  0
  8 10  1  0
 10 11  1  0
 10 12  2  0
 12 13  1  0
 13 14  1  0
 14 15  2  0
 14 16  1  0
 16 17  2  0
 17 18  1  0
 17 19  1  0
 19 20  1  0
 19 21  2  0
 21 22  1  0
 21 23  1  0
 23 24  1  0
 23 25  2  0
 25 26  1  0
 26 27  2  0
 27 28  1  0
 27 29  1  0
 29 30  1  0
 29 31  1  0
 29 32  1  0
 32 33  1  0
 32 34  1  0
 32 35  1  0
 35 36  1  0
 36 37  1  0
 36 38  1  0
 36 39  1  0
 39 40  2  0
 40 41  1  0
 40 42  1  0
 42 43  1  0
 42 44  2  0
 44 45  1  0
 44 46  1  0
 46 47  1  0
 46 48  2  0
 48 49  1  0
 35 50  1  0
 50 51  1  0
 50 52  1  0
 50 53  1  0
 53 54  1  0
 53 55  1  0
 53 56  1  0
 12  3  1  0
 25 16  1  0
 48 39  1  0
M  CHG  1  13  -1
M  END
>  <UniqueID>  (26) 
24

>  <SMILES>  (26) 
CCN(CC/C=N/c1ccccc1C(=O)[N-]c1ccccc1O)Cc1ccccc1

>  <Energy>  (26) 
70.94845209822867

>  <Genealogy>  (26) 
CCN(CCC=Nc1ccccc1C(=O)[N-]c1ccccc1O)Cc1ccccc1 (protonated)
CCN(CC/C=N/c1ccccc1C(=O)[N-]c1ccccc1O)Cc1ccccc1 (cis-trans isomerization)
CCN(CC/C=N/c1ccccc1C(=O)[N-]c1ccccc1O)Cc1ccccc1 (3D coordinates assigned)
CCN(CC/C=N/c1ccccc1C(=O)[N-]c1ccccc1O)Cc1ccccc1 (optimized conformer: 70.94845209822867 kcal/mol)

>  <smiles>  (26) 
CCN(CCC=Nc1ccccc1C(=O)Nc1ccccc1O)Cc1ccccc1

>  <score_type>  (26) 
oracle

>  <origin>  (26) 
adg

>  <m_score__min__energy>  (26) 
-11.470000000000001

>  <m_primary>  (26) 
energy

$$$$
26:0
     RDKit          3D

 47 49  0  0  0  0  0  0  0  0999 V2000
   56.8880   24.5990   44.6170 C   0  0  0  0  0  0  0  0  0  0  0  0
   55.7800   24.6920   45.6630 C   0  0  0  0  0  0  0  0  0  0  0  0
   55.7670   26.0160   46.2870 N   0  0  0  0  0  0  0  0  0  0  0  0
   56.8860   26.9260   46.3050 C   0  0  0  0  0  0  0  0  0  0  0  0
   56.9630   27.9290   45.3290 C   0  0  0  0  0  0  0  0  0  0  0  0
   58.0330   28.8270   45.3130 C   0  0  0  0  0  0  0  0  0  0  0  0
   59.0560   28.7390   46.2740 C   0  0  0  0  0  0  0  0  0  0  0  0
   60.2080   29.6710   46.2600 C   0  0  0  0  0  0  0  0  0  0  0  0
   61.1100   29.5150   45.3920 O   0  0  0  0  0  0  0  0  0  0  0  0
   60.3000   30.7500   47.2070 N   0  0  0  0  0  0  0  0  0  0  0  0
   61.3550   31.7280   47.1960 C   0  0  0  0  0  0  0  0  0  0  0  0
   62.6550   31.3760   47.5990 C   0  0  0  0  0  0  0  0  0  0  0  0
   63.6650   32.3400   47.6540 C   0  0  0  0  0  0  0  0  0  0  0  0
   63.3840   33.6690   47.3220 C   0  0  0  0  0  0  0  0  0  0  0  0
   62.0940   34.0340   46.9360 C   0  0  0  0  0  0  0  0  0  0  0  0
   61.0750   33.0730   46.8670 C   0  0  0  0  0  0  0  0  0  0  0  0
   59.7600   33.4780   46.4570 N   0  0  0  0  0  0  0  0  0  0  0  0
   58.6720   33.5090   47.4420 C   0  0  0  0  0  0  0  0  0  0  0  0
   57.3110   33.4610   46.7380 C   0  0  0  0  0  0  0  0  0  0  0  0
   57.2520   34.4150   45.6940 O   0  0  0  0  0  0  0  0  0  0  0  0
   58.1620   34.0480   44.6760 C   0  0  0  0  0  0  0  0  0  0  0  0
   59.6070   34.1670   45.1730 C   0  0  0  0  0  0  0  0  0  0  0  0
   58.9910   27.7210   47.2380 C   0  0  0  0  0  0  0  0  0  0  0  0
   57.9170   26.8270   47.2580 C   0  0  0  0  0  0  0  0  0  0  0  0
   57.8622   24.5172   45.1211 H   0  0  0  0  0  0  0  0  0  0  0  0
   56.7250   23.7114   43.9881 H   0  0  0  0  0  0  0  0  0  0  0  0
   56.8752   25.5014   43.9881 H   0  0  0  0  0  0  0  0  0  0  0  0
   54.8094   24.5120   45.1777 H   0  0  0  0  0  0  0  0  0  0  0  0
   55.9639   23.9363   46.4409 H   0  0  0  0  0  0  0  0  0  0  0  0
   54.8770   26.3190   46.7440 H   0  0  0  0  0  0  0  0  0  0  0  0
   56.1729   28.0099   44.5679 H   0  0  0  0  0  0  0  0  0  0  0  0
   58.0758   29.6101   44.5417 H   0  0  0  0  0  0  0  0  0  0  0  0
   59.5540   30.8600   47.9260 H   0  0  0  0  0  0  0  0  0  0  0  0
   62.8787   30.3344   47.8729 H   0  0  0  0  0  0  0  0  0  0  0  0
   64.6823   32.0532   47.9588 H   0  0  0  0  0  0  0  0  0  0  0  0
   64.1802   34.4268   47.3652 H   0  0  0  0  0  0  0  0  0  0  0  0
   61.8748   35.0821   46.6842 H   0  0  0  0  0  0  0  0  0  0  0  0
   58.7645   32.6410   48.1114 H   0  0  0  0  0  0  0  0  0  0  0  0
   58.7414   34.4420   48.0205 H   0  0  0  0  0  0  0  0  0  0  0  0
   57.1575   32.4562   46.3176 H   0  0  0  0  0  0  0  0  0  0  0  0
   56.5254   33.6925   47.4724 H   0  0  0  0  0  0  0  0  0  0  0  0
   57.9678   33.0077   44.3758 H   0  0  0  0  0  0  0  0  0  0  0  0
   58.0257   34.7240   43.8190 H   0  0  0  0  0  0  0  0  0  0  0  0
   60.2837   33.7128   44.4342 H   0  0  0  0  0  0  0  0  0  0  0  0
   59.8541   35.2307   45.3053 H   0  0  0  0  0  0  0  0  0  0  0  0
   59.7930   27.6259   47.9848 H   0  0  0  0  0  0  0  0  0  0  0  0
   57.8771   26.0394   48.0249 H   0  0  0  0  0  0  0  0  0  0  0  0
  1  2  1  0
  2  3  1  0
  3  4  1  0
  4  5  2  0
  5  6  1  0
  6  7  2  0
  7  8  1  0
  8  9  2  0
  8 10  1  0
 10 11  1  0
 11 12  2  0
 12 13  1  0
 13 14  2  0
 14 15  1  0
 15 16  2  0
 16 17  1  0
 17 18  1  0
 18 19  1  0
 19 20  1  0
 20 21  1  0
 21 22  1  0
  7 23  1  0
 23 24  2  0
 24  4  1  0
 16 11  1  0
 22 17  1  0
  1 25  1  0
  1 26  1  0
  1 27  1  0
  2 28  1  0
  2 29  1  0
  3 30  1  0
  5 31  1  0
  6 32  1  0
 10 33  1  0
 12 34  1  0
 13 35  1  0
 14 36  1  0
 15 37  1  0
 18 38  1  0
 18 39  1  0
 19 40  1  0
 19 41  1  0
 21 42  1  0
 21 43  1  0
 22 44  1  0
 22 45  1  0
 23 46  1  0
 24 47  1  0
M  END
>  <UniqueID>  (27) 
25

>  <SMILES>  (27) 
CCNc1ccc(C(=O)Nc2ccccc2N2CCOCC2)cc1

>  <Energy>  (27) 
58.73729307981388

>  <Genealogy>  (27) 
CCNc1ccc(C(=O)Nc2ccccc2N2CCOCC2)cc1 (3D coordinates assigned)
CCNc1ccc(C(=O)Nc2ccccc2N2CCOCC2)cc1 (nonaromatic ring conformer: 58.73729307981388 kcal/mol)

>  <smiles>  (27) 
CCNc1ccc(C(=O)Nc2ccccc2N2CCOCC2)cc1

>  <score_type>  (27) 
oracle

>  <origin>  (27) 
adg

>  <m_score__min__energy>  (27) 
-7.0599999999999996

>  <m_primary>  (27) 
energy

$$$$
27:0
     RDKit          3D

 51 55  0  0  0  0  0  0  0  0999 V2000
   64.1010   32.7130   46.6440 N   0  0  0  0  0  0  0  0  0  0  0  0
   63.1360   32.8950   47.6850 C   0  0  0  0  0  0  0  0  0  0  0  0
   63.1100   34.0870   48.4220 C   0  0  0  0  0  0  0  0  0  0  0  0
   62.1710   34.2670   49.4390 C   0  0  0  0  0  0  0  0  0  0  0  0
   61.2400   33.2630   49.7260 C   0  0  0  0  0  0  0  0  0  0  0  0
   60.3410   33.4560   50.7220 N   0  0  0  0  0  0  0  0  0  0  0  0
   59.3860   32.5430   51.0240 C   0  0  0  0  0  0  0  0  0  0  0  0
   58.4560   32.8470   52.0250 C   0  0  0  0  0  0  0  0  0  0  0  0
   57.3860   31.9900   52.2730 C   0  0  0  0  0  0  0  0  0  0  0  0
   57.2170   30.8470   51.4950 C   0  0  0  0  0  0  0  0  0  0  0  0
   58.1420   30.5300   50.4970 C   0  0  0  0  0  0  0  0  0  0  0  0
   59.2960   31.3260   50.2940 C   0  0  0  0  0  0  0  0  0  0  0  0
   60.3120   31.0360   49.3250 C   0  0  0  0  0  0  0  0  0  0  0  0
   60.4720   29.8680   48.7510 N   0  0  0  0  0  0  0  0  0  0  0  0
   59.6330   29.1560   47.8320 C   0  0  0  0  0  0  0  0  0  0  0  0
   58.7120   29.8360   47.0210 C   0  0  0  0  0  0  0  0  0  0  0  0
   57.8620   29.1250   46.1720 C   0  0  0  0  0  0  0  0  0  0  0  0
   57.9010   27.7170   46.1390 C   0  0  0  0  0  0  0  0  0  0  0  0
   57.0430   26.9490   45.2780 N   0  0  0  0  0  0  0  0  0  0  0  0
   56.1310   25.5640   45.7920 S   0  0  0  0  0  0  0  0  0  0  0  0
   54.6650   25.8470   45.6260 O   0  0  0  0  0  0  0  0  0  0  0  0
   56.4110   25.2970   47.2440 O   0  0  0  0  0  0  0  0  0  0  0  0
   56.6110   24.1530   44.8530 C   0  0  0  0  0  0  0  0  0  0  0  0
   55.8730   23.7600   43.7270 C   0  0  0  0  0  0  0  0  0  0  0  0
   56.2590   22.6330   42.9910 C   0  0  0  0  0  0  0  0  0  0  0  0
   57.3820   21.8950   43.3770 C   0  0  0  0  0  0  0  0  0  0  0  0
   58.1190   22.2800   44.5020 C   0  0  0  0  0  0  0  0  0  0  0  0
   57.7370   23.4070   45.2390 C   0  0  0  0  0  0  0  0  0  0  0  0
   58.8020   27.0440   46.9810 C   0  0  0  0  0  0  0  0  0  0  0  0
   59.6500   27.7590   47.8320 C   0  0  0  0  0  0  0  0  0  0  0  0
   61.2390   32.0560   48.9900 C   0  0  0  0  0  0  0  0  0  0  0  0
   62.2110   31.8820   47.9770 C   0  0  0  0  0  0  0  0  0  0  0  0
   64.0910   33.3180   45.7910 H   0  0  0  0  0  0  0  0  0  0  0  0
   64.8480   31.9820   46.7230 H   0  0  0  0  0  0  0  0  0  0  0  0
   63.8334   34.8848   48.1978 H   0  0  0  0  0  0  0  0  0  0  0  0
   62.1630   35.2026   50.0174 H   0  0  0  0  0  0  0  0  0  0  0  0
   58.5705   33.7662   52.6182 H   0  0  0  0  0  0  0  0  0  0  0  0
   56.6757   32.2156   53.0820 H   0  0  0  0  0  0  0  0  0  0  0  0
   56.3511   30.1908   51.6672 H   0  0  0  0  0  0  0  0  0  0  0  0
   57.9717   29.6497   49.8598 H   0  0  0  0  0  0  0  0  0  0  0  0
   58.6594   30.9342   47.0543 H   0  0  0  0  0  0  0  0  0  0  0  0
   57.1573   29.6675   45.5247 H   0  0  0  0  0  0  0  0  0  0  0  0
   56.9450   27.2310   44.2760 H   0  0  0  0  0  0  0  0  0  0  0  0
   54.9888   24.3385   43.4213 H   0  0  0  0  0  0  0  0  0  0  0  0
   55.6780   22.3280   42.1081 H   0  0  0  0  0  0  0  0  0  0  0  0
   57.6860   21.0117   42.7961 H   0  0  0  0  0  0  0  0  0  0  0  0
   58.9998   21.6963   44.8078 H   0  0  0  0  0  0  0  0  0  0  0  0
   58.3195   23.7090   46.1219 H   0  0  0  0  0  0  0  0  0  0  0  0
   58.8406   25.9447   46.9706 H   0  0  0  0  0  0  0  0  0  0  0  0
   60.3334   27.2195   48.5043 H   0  0  0  0  0  0  0  0  0  0  0  0
   62.2417   30.9395   47.4107 H   0  0  0  0  0  0  0  0  0  0  0  0
  1  2  1  0
  2  3  2  0
  3  4  1  0
  4  5  2  0
  5  6  1  0
  6  7  1  0
  7  8  2  0
  8  9  1  0
  9 10  2  0
 10 11  1  0
 11 12  2  0
 12 13  1  0
 13 14  2  3
 14 15  1  0
 15 16  2  0
 16 17  1  0
 17 18  2  0
 18 19  1  0
 19 20  1  0
 20 21  2  0
 20 22  2  0
 20 23  1  0
 23 24  2  0
 24 25  1  0
 25 26  2  0
 26 27  1  0
 27 28  2  0
 18 29  1  0
 29 30  2  0
 13 31  1  0
 31 32  2  0
 32  2  1  0
 31  5  1  0
 12  7  1  0
 30 15  1  0
 28 23  1  0
  1 33  1  0
  1 34  1  0
  3 35  1  0
  4 36  1  0
  8 37  1  0
  9 38  1  0
 10 39  1  0
 11 40  1  0
 16 41  1  0
 17 42  1  0
 19 43  1  0
 24 44  1  0
 25 45  1  0
 26 46  1  0
 27 47  1  0
 28 48  1  0
 29 49  1  0
 30 50  1  0
 32 51  1  0
M  CHG  1   6  -1
M  END
>  <UniqueID>  (28) 
26

>  <SMILES>  (28) 
Nc1ccc2[n-]c3ccccc3c(=Nc3ccc(NS(=O)(=O)c4ccccc4)cc3)c2c1

>  <Energy>  (28) 
87.75120534876038

>  <Genealogy>  (28) 
Nc1ccc2[n-]c3ccccc3c(=Nc3ccc(NS(=O)(=O)c4ccccc4)cc3)c2c1 (protonated)
Nc1ccc2[n-]c3ccccc3c(=Nc3ccc(NS(=O)(=O)c4ccccc4)cc3)c2c1 (3D coordinates assigned)
Nc1ccc2[n-]c3ccccc3c(=Nc3ccc(NS(=O)(=O)c4ccccc4)cc3)c2c1 (optimized conformer: 87.75120534876038 kcal/mol)

>  <smiles>  (28) 
Nc1ccc2[nH]c3ccccc3c(=Nc3ccc(NS(=O)(=O)c4ccccc4)cc3)c2c1

>  <score_type>  (28) 
oracle

>  <origin>  (28) 
adg

>  <m_score__min__energy>  (28) 
-10.859999999999999

>  <m_primary>  (28) 
energy

$$$$
28:0
     RDKit          3D

 37 39  0  0  0  0  0  0  0  0999 V2000
   58.3120   26.4200   46.5700 H   0  0  0  0  0  0  0  0  0  0  0  0
   58.7000   27.3890   46.5860 N   0  0  0  0  0  0  0  0  0  0  0  0
   58.0640   28.4400   46.1590 C   0  0  0  0  0  0  0  0  0  0  0  0
   58.6260   29.7340   46.2160 C   0  0  0  0  0  0  0  0  0  0  0  0
   59.9740   29.9330   46.7960 C   0  0  0  0  0  0  0  0  0  0  0  0
   60.9780   29.8720   46.0390 O   0  0  0  0  0  0  0  0  0  0  0  0
   60.1640   30.3010   48.1660 N   0  0  0  0  0  0  0  0  0  0  0  0
   61.4510   30.4130   48.8430 C   0  0  0  0  0  0  0  0  0  0  0  0
   61.2776   30.5639   49.9187 H   0  0  0  0  0  0  0  0  0  0  0  0
   62.0175   29.4870   48.6651 H   0  0  0  0  0  0  0  0  0  0  0  0
   62.2540   31.5700   48.3090 C   0  0  0  0  0  0  0  0  0  0  0  0
   63.3540   32.0410   49.0420 C   0  0  0  0  0  0  0  0  0  0  0  0
   63.6683   31.5240   49.9607 H   0  0  0  0  0  0  0  0  0  0  0  0
   64.0470   33.1680   48.6000 C   0  0  0  0  0  0  0  0  0  0  0  0
   64.9155   33.5380   49.1646 H   0  0  0  0  0  0  0  0  0  0  0  0
   63.6360   33.8240   47.4410 C   0  0  0  0  0  0  0  0  0  0  0  0
   64.1814   34.7084   47.0800 H   0  0  0  0  0  0  0  0  0  0  0  0
   62.5250   33.3470   46.7430 C   0  0  0  0  0  0  0  0  0  0  0  0
   62.1903   33.8595   45.8290 H   0  0  0  0  0  0  0  0  0  0  0  0
   61.8540   32.2490   47.1900 N   0  0  0  0  0  0  0  0  0  0  0  0
   61.0130   31.9390   46.6540 H   0  0  0  0  0  0  0  0  0  0  0  0
   57.8600   30.8180   45.7170 C   0  0  0  0  0  0  0  0  0  0  0  0
   58.3440   32.2220   45.7030 C   0  0  0  0  0  0  0  0  0  0  0  0
   58.6070   32.8970   46.9090 C   0  0  0  0  0  0  0  0  0  0  0  0
   58.4640   32.3754   47.8669 H   0  0  0  0  0  0  0  0  0  0  0  0
   59.0480   34.2230   46.9030 C   0  0  0  0  0  0  0  0  0  0  0  0
   59.2740   34.7313   47.8520 H   0  0  0  0  0  0  0  0  0  0  0  0
   59.2020   34.9030   45.6940 C   0  0  0  0  0  0  0  0  0  0  0  0
   59.5622   35.9424   45.6892 H   0  0  0  0  0  0  0  0  0  0  0  0
   58.8990   34.2640   44.4920 C   0  0  0  0  0  0  0  0  0  0  0  0
   59.0034   34.8089   43.5422 H   0  0  0  0  0  0  0  0  0  0  0  0
   58.4630   32.9340   44.4860 C   0  0  0  0  0  0  0  0  0  0  0  0
   58.0860   32.1970   42.9300 Cl  0  0  0  0  0  0  0  0  0  0  0  0
   56.6470   30.5830   45.2240 O   0  0  0  0  0  0  0  0  0  0  0  0
   56.1230   29.3830   45.1730 N   0  0  0  0  0  0  0  0  0  0  0  0
   56.7840   28.2910   45.6210 C   0  0  0  0  0  0  0  0  0  0  0  0
   56.2390   27.1570   45.5480 O   0  0  0  0  0  0  0  0  0  0  0  0
  1  2  1  0
  2  3  2  0
  3  4  1  0
  4  5  1  0
  5  6  2  0
  5  7  1  0
  7  8  1  0
  8  9  1  0
  8 10  1  0
  8 11  1  0
 11 12  2  0
 12 13  1  0
 12 14  1  0
 14 15  1  0
 14 16  2  0
 16 17  1  0
 16 18  1  0
 18 19  1  0
 18 20  2  0
 20 21  1  0
  4 22  2  0
 22 23  1  0
 23 24  2  0
 24 25  1  0
 24 26  1  0
 26 27  1  0
 26 28  2  0
 28 29  1  0
 28 30  1  0
 30 31  1  0
 30 32  2  0
 32 33  1  0
 22 34  1  0
 34 35  1  0
 35 36  1  0
 36 37  2  0
 36  3  1  0
 20 11  1  0
 32 23  1  0
M  CHG  3   7  -1  20   1  35  -1
M  END
>  <UniqueID>  (29) 
27

>  <SMILES>  (29) 
[H]/N=c1\c(C(=O)[N-]Cc2cccc[nH+]2)c(-c2ccccc2Cl)o[n-]c1=O

>  <Energy>  (29) 
56.48089208946469

>  <Genealogy>  (29) 
N=c1c(C(=O)[N-]Cc2cccc[nH+]2)c(-c2ccccc2Cl)o[n-]c1=O (protonated)
[H]/N=c1\c(C(=O)[N-]Cc2cccc[nH+]2)c(-c2ccccc2Cl)o[n-]c1=O (cis-trans isomerization)
[H]/N=c1\c(C(=O)[N-]Cc2cccc[nH+]2)c(-c2ccccc2Cl)o[n-]c1=O (3D coordinates assigned)
[H]/N=c1\c(C(=O)[N-]Cc2cccc[nH+]2)c(-c2ccccc2Cl)o[n-]c1=O (optimized conformer: 56.48089208946469 kcal/mol)

>  <smiles>  (29) 
N=c1c(C(=O)NCc2ccccn2)c(-c2ccccc2Cl)o[nH]c1=O

>  <score_type>  (29) 
oracle

>  <origin>  (29) 
adg

>  <m_score__min__energy>  (29) 
-9.4900000000000002

>  <m_primary>  (29) 
energy

$$$$
29:0
     RDKit          3D

 46 48  0  0  0  0  0  0  0  0999 V2000
   55.2680   28.9890   44.5930 N   0  0  0  0  0  0  0  0  0  0  0  0
   56.3770   30.2400   44.1530 S   0  0  0  0  0  0  0  0  0  0  0  0
   56.3170   30.4680   42.6680 O   0  0  0  0  0  0  0  0  0  0  0  0
   55.9900   31.5150   44.8520 O   0  0  0  0  0  0  0  0  0  0  0  0
   58.0100   29.7700   44.6150 C   0  0  0  0  0  0  0  0  0  0  0  0
   58.5670   28.5870   44.1070 C   0  0  0  0  0  0  0  0  0  0  0  0
   59.8520   28.1970   44.4910 C   0  0  0  0  0  0  0  0  0  0  0  0
   60.5910   28.9860   45.3770 C   0  0  0  0  0  0  0  0  0  0  0  0
   60.0510   30.1850   45.8780 C   0  0  0  0  0  0  0  0  0  0  0  0
   60.7640   31.0140   46.8080 N   0  0  0  0  0  0  0  0  0  0  0  0
   60.2070   31.7250   47.9210 C   0  0  0  0  0  0  0  0  0  0  0  0
   59.2600   32.5410   47.7610 O   0  0  0  0  0  0  0  0  0  0  0  0
   60.7520   31.4870   49.2920 C   0  0  0  0  0  0  0  0  0  0  0  0
   59.7050   31.7310   50.2860 N   0  0  0  0  0  0  0  0  0  0  0  0
   59.0430   30.2380   50.8830 S   0  0  0  0  0  0  0  0  0  0  0  0
   57.5580   30.3860   51.0480 O   0  0  0  0  0  0  0  0  0  0  0  0
   59.6450   29.9100   52.2210 O   0  0  0  0  0  0  0  0  0  0  0  0
   59.3660   28.9470   49.7270 C   0  0  0  0  0  0  0  0  0  0  0  0
   60.5530   28.2140   49.7880 C   0  0  0  0  0  0  0  0  0  0  0  0
   60.8090   27.2160   48.8460 C   0  0  0  0  0  0  0  0  0  0  0  0
   59.8870   26.9260   47.8300 C   0  0  0  0  0  0  0  0  0  0  0  0
   58.6830   27.6700   47.7620 C   0  0  0  0  0  0  0  0  0  0  0  0
   58.4410   28.6780   48.7140 C   0  0  0  0  0  0  0  0  0  0  0  0
   57.6530   27.4160   46.7000 C   0  0  0  0  0  0  0  0  0  0  0  0
   57.2280   25.9470   46.7160 C   0  0  0  0  0  0  0  0  0  0  0  0
   58.0570   25.1000   45.7470 C   0  0  0  0  0  0  0  0  0  0  0  0
   59.5270   24.9980   46.0610 C   0  0  0  0  0  0  0  0  0  0  0  0
   60.1360   23.9850   45.6250 O   0  0  0  0  0  0  0  0  0  0  0  0
   60.2690   25.9190   46.8770 N   0  0  0  0  0  0  0  0  0  0  0  0
   58.7500   30.5580   45.5090 C   0  0  0  0  0  0  0  0  0  0  0  0
   54.5910   29.4060   45.2710 H   0  0  0  0  0  0  0  0  0  0  0  0
   57.9910   27.9657   43.4054 H   0  0  0  0  0  0  0  0  0  0  0  0
   60.2838   27.2660   44.0949 H   0  0  0  0  0  0  0  0  0  0  0  0
   61.5985   28.6685   45.6838 H   0  0  0  0  0  0  0  0  0  0  0  0
   61.0980   30.4460   49.3728 H   0  0  0  0  0  0  0  0  0  0  0  0
   61.5947   32.1703   49.4738 H   0  0  0  0  0  0  0  0  0  0  0  0
   61.2875   28.4233   50.5796 H   0  0  0  0  0  0  0  0  0  0  0  0
   61.7493   26.6479   48.9016 H   0  0  0  0  0  0  0  0  0  0  0  0
   57.5107   29.2625   48.6602 H   0  0  0  0  0  0  0  0  0  0  0  0
   56.7741   28.0504   46.8873 H   0  0  0  0  0  0  0  0  0  0  0  0
   58.0855   27.6535   45.7169 H   0  0  0  0  0  0  0  0  0  0  0  0
   57.3573   25.5509   47.7340 H   0  0  0  0  0  0  0  0  0  0  0  0
   56.1759   25.8940   46.3993 H   0  0  0  0  0  0  0  0  0  0  0  0
   57.6402   24.0820   45.7464 H   0  0  0  0  0  0  0  0  0  0  0  0
   57.9931   25.6090   44.7740 H   0  0  0  0  0  0  0  0  0  0  0  0
   58.3068   31.4753   45.9238 H   0  0  0  0  0  0  0  0  0  0  0  0
  1  2  1  0
  2  3  2  0
  2  4  2  0
  2  5  1  0
  5  6  2  0
  6  7  1  0
  7  8  2  0
  8  9  1  0
  9 10  1  0
 10 11  1  0
 11 12  2  0
 11 13  1  0
 13 14  1  0
 14 15  1  0
 15 16  2  0
 15 17  2  0
 15 18  1  0
 18 19  2  0
 19 20  1  0
 20 21  2  0
 21 22  1  0
 22 23  2  0
 22 24  1  0
 24 25  1  0
 25 26  1  0
 26 27  1  0
 27 28  2  0
 27 29  1  0
  9 30  2  0
 30  5  1  0
 23 18  1  0
 29 21  1  0
  1 31  1  0
  6 32  1  0
  7 33  1  0
  8 34  1  0
 13 35  1  0
 13 36  1  0
 19 37  1  0
 20 38  1  0
 23 39  1  0
 24 40  1  0
 24 41  1  0
 25 42  1  0
 25 43  1  0
 26 44  1  0
 26 45  1  0
 30 46  1  0
M  CHG  4   1  -1  10  -1  14  -1  29  -1
M  END
>  <UniqueID>  (30) 
28

>  <SMILES>  (30) 
[NH-]S(=O)(=O)c1cccc([N-]C(=O)C[N-]S(=O)(=O)c2ccc3c(c2)CCCC(=O)[N-]3)c1

>  <Energy>  (30) 
60.18364518439209

>  <Genealogy>  (30) 
[NH-]S(=O)(=O)c1cccc([N-]C(=O)C[N-]S(=O)(=O)c2ccc3c(c2)CCCC(=O)[N-]3)c1 (protonated)
[NH-]S(=O)(=O)c1cccc([N-]C(=O)C[N-]S(=O)(=O)c2ccc3c(c2)CCCC(=O)[N-]3)c1 (3D coordinates assigned)
[NH-]S(=O)(=O)c1cccc([N-]C(=O)C[N-]S(=O)(=O)c2ccc3c(c2)CCCC(=O)[N-]3)c1 (nonaromatic ring conformer: 60.18364518439209 kcal/mol)

>  <smiles>  (30) 
NS(=O)(=O)c1cccc(NC(=O)CNS(=O)(=O)c2ccc3c(c2)CCCC(=O)N3)c1

>  <score_type>  (30) 
oracle

>  <origin>  (30) 
adg

>  <m_score__min__energy>  (30) 
-12.43

>  <m_primary>  (30) 
energy

$$$$
30:0
     RDKit          3D

 35 36  0  0  0  0  0  0  0  0999 V2000
   55.1180   26.3460   45.9950 O   0  0  0  0  0  0  0  0  0  0  0  0
   56.2770   26.1110   46.2960 C   0  0  0  0  0  0  0  0  0  0  0  0
   57.3120   27.1950   46.2420 C   0  0  0  0  0  0  0  0  0  0  0  0
   57.6310   27.5740   44.7930 C   0  0  0  0  0  0  0  0  0  0  0  0
   57.3980   29.0350   44.5730 C   0  0  0  0  0  0  0  0  0  0  0  0
   56.2360   29.6600   44.8640 N   0  0  0  0  0  0  0  0  0  0  0  0
   56.2740   30.9720   44.6410 N   0  0  0  0  0  0  0  0  0  0  0  0
   57.4700   31.4030   44.1820 C   0  0  0  0  0  0  0  0  0  0  0  0
   57.7680   32.8320   43.8590 C   0  0  0  0  0  0  0  0  0  0  0  0
   57.2950   33.7310   44.9650 C   0  0  0  0  0  0  0  0  0  0  0  0
   56.9320   34.9050   44.6880 O   0  0  0  0  0  0  0  0  0  0  0  0
   57.1980   33.2800   46.3210 N   0  0  0  0  0  0  0  0  0  0  0  0
   58.1700   33.5830   47.3650 C   0  0  0  0  0  0  0  0  0  0  0  0
   59.3090   32.6020   47.2920 C   0  0  0  0  0  0  0  0  0  0  0  0
   60.6270   33.0650   47.4520 C   0  0  0  0  0  0  0  0  0  0  0  0
   61.7030   32.1760   47.3960 C   0  0  0  0  0  0  0  0  0  0  0  0
   61.4760   30.8160   47.1870 C   0  0  0  0  0  0  0  0  0  0  0  0
   60.1720   30.3380   47.0390 C   0  0  0  0  0  0  0  0  0  0  0  0
   59.0830   31.2160   47.0960 C   0  0  0  0  0  0  0  0  0  0  0  0
   57.7990   30.6840   46.9580 O   0  0  0  0  0  0  0  0  0  0  0  0
   58.5640   30.1280   44.0370 S   0  0  0  0  0  0  0  0  0  0  0  0
   56.5647   25.0966   46.6093 H   0  0  0  0  0  0  0  0  0  0  0  0
   56.9328   28.0817   46.7711 H   0  0  0  0  0  0  0  0  0  0  0  0
   58.2319   26.8268   46.7197 H   0  0  0  0  0  0  0  0  0  0  0  0
   58.6843   27.3389   44.5803 H   0  0  0  0  0  0  0  0  0  0  0  0
   56.9732   27.0026   44.1216 H   0  0  0  0  0  0  0  0  0  0  0  0
   58.8536   32.9555   43.7314 H   0  0  0  0  0  0  0  0  0  0  0  0
   57.2437   33.1037   42.9309 H   0  0  0  0  0  0  0  0  0  0  0  0
   58.5554   34.6033   47.2218 H   0  0  0  0  0  0  0  0  0  0  0  0
   57.6850   33.5083   48.3495 H   0  0  0  0  0  0  0  0  0  0  0  0
   60.8122   34.1358   47.6226 H   0  0  0  0  0  0  0  0  0  0  0  0
   62.7307   32.5491   47.5169 H   0  0  0  0  0  0  0  0  0  0  0  0
   62.3253   30.1186   47.1386 H   0  0  0  0  0  0  0  0  0  0  0  0
   59.9994   29.2639   46.8765 H   0  0  0  0  0  0  0  0  0  0  0  0
   57.0830   31.1020   46.3780 H   0  0  0  0  0  0  0  0  0  0  0  0
  1  2  2  0
  2  3  1  0
  3  4  1  0
  4  5  1  0
  5  6  2  0
  6  7  1  0
  7  8  2  0
  8  9  1  0
  9 10  1  0
 10 11  2  0
 10 12  1  0
 12 13  1  0
 13 14  1  0
 14 15  2  0
 15 16  1  0
 16 17  2  0
 17 18  1  0
 18 19  2  0
 19 20  1  0
  8 21  1  0
 21  5  1  0
 19 14  1  0
  2 22  1  0
  3 23  1  0
  3 24  1  0
  4 25  1  0
  4 26  1  0
  9 27  1  0
  9 28  1  0
 13 29  1  0
 13 30  1  0
 15 31  1  0
 16 32  1  0
 17 33  1  0
 18 34  1  0
 20 35  1  0
M  CHG  1  12  -1
M  END
>  <UniqueID>  (31) 
29

>  <SMILES>  (31) 
O=CCCc1nnc(CC(=O)[N-]Cc2ccccc2O)s1

>  <Energy>  (31) 
59.77901020201027

>  <Genealogy>  (31) 
O=CCCc1nnc(CC(=O)[N-]Cc2ccccc2O)s1 (protonated)
O=CCCc1nnc(CC(=O)[N-]Cc2ccccc2O)s1 (3D coordinates assigned)
O=CCCc1nnc(CC(=O)[N-]Cc2ccccc2O)s1 (optimized conformer: 59.77901020201027 kcal/mol)

>  <smiles>  (31) 
O=CCCc1nnc(CC(=O)NCc2ccccc2O)s1

>  <score_type>  (31) 
oracle

>  <origin>  (31) 
adg

>  <m_score__min__energy>  (31) 
-10.380000000000001

>  <m_primary>  (31) 
energy

$$$$
31:0
     RDKit          3D

 36 38  0  0  0  0  0  0  0  0999 V2000
   54.8010   26.3360   45.9910 N   0  0  0  0  0  0  0  0  0  0  0  0
   56.0470   25.1550   46.1830 S   0  0  0  0  0  0  0  0  0  0  0  0
   55.8290   24.3970   47.4630 O   0  0  0  0  0  0  0  0  0  0  0  0
   55.9980   24.1850   45.0350 O   0  0  0  0  0  0  0  0  0  0  0  0
   57.6150   25.9550   46.2200 C   0  0  0  0  0  0  0  0  0  0  0  0
   58.7900   25.2070   46.0750 C   0  0  0  0  0  0  0  0  0  0  0  0
   60.0330   25.8390   46.1160 C   0  0  0  0  0  0  0  0  0  0  0  0
   60.1130   27.2210   46.3080 C   0  0  0  0  0  0  0  0  0  0  0  0
   58.9440   27.9870   46.4630 C   0  0  0  0  0  0  0  0  0  0  0  0
   59.0390   29.4510   46.6720 C   0  0  0  0  0  0  0  0  0  0  0  0
   59.9580   30.0320   47.4760 N   0  0  0  0  0  0  0  0  0  0  0  0
   59.8440   31.3880   47.5040 C   0  0  0  0  0  0  0  0  0  0  0  0
   60.7460   32.2280   48.3120 C   0  0  0  0  0  0  0  0  0  0  0  0
   60.5160   33.4650   48.4150 O   0  0  0  0  0  0  0  0  0  0  0  0
   61.8570   31.6390   49.0070 N   0  0  0  0  0  0  0  0  0  0  0  0
   62.9210   32.3980   49.6070 C   0  0  0  0  0  0  0  0  0  0  0  0
   64.2710   32.0850   49.3570 C   0  0  0  0  0  0  0  0  0  0  0  0
   65.2910   32.8190   49.9690 C   0  0  0  0  0  0  0  0  0  0  0  0
   64.9770   33.8620   50.8440 C   0  0  0  0  0  0  0  0  0  0  0  0
   63.6400   34.1670   51.1140 C   0  0  0  0  0  0  0  0  0  0  0  0
   62.6150   33.4360   50.5060 C   0  0  0  0  0  0  0  0  0  0  0  0
   61.3240   33.7490   50.7790 F   0  0  0  0  0  0  0  0  0  0  0  0
   58.8210   31.9070   46.7110 C   0  0  0  0  0  0  0  0  0  0  0  0
   58.0480   30.6160   45.9630 S   0  0  0  0  0  0  0  0  0  0  0  0
   57.6940   27.3400   46.4200 C   0  0  0  0  0  0  0  0  0  0  0  0
   55.1640   27.0560   45.3270 H   0  0  0  0  0  0  0  0  0  0  0  0
   58.7327   24.1183   45.9284 H   0  0  0  0  0  0  0  0  0  0  0  0
   60.9529   25.2478   45.9969 H   0  0  0  0  0  0  0  0  0  0  0  0
   61.0966   27.7126   46.3381 H   0  0  0  0  0  0  0  0  0  0  0  0
   61.8520   30.6040   49.1550 H   0  0  0  0  0  0  0  0  0  0  0  0
   64.5241   31.2586   48.6766 H   0  0  0  0  0  0  0  0  0  0  0  0
   66.3433   32.5749   49.7613 H   0  0  0  0  0  0  0  0  0  0  0  0
   65.7811   34.4425   51.3199 H   0  0  0  0  0  0  0  0  0  0  0  0
   63.3934   34.9848   51.8071 H   0  0  0  0  0  0  0  0  0  0  0  0
   58.5658   32.9708   46.5958 H   0  0  0  0  0  0  0  0  0  0  0  0
   56.7718   27.9265   46.5444 H   0  0  0  0  0  0  0  0  0  0  0  0
  1  2  1  0
  2  3  2  0
  2  4  2  0
  2  5  1  0
  5  6  2  0
  6  7  1  0
  7  8  2  0
  8  9  1  0
  9 10  1  0
 10 11  2  0
 11 12  1  0
 12 13  1  0
 13 14  2  0
 13 15  1  0
 15 16  1  0
 16 17  2  0
 17 18  1  0
 18 19  2  0
 19 20  1  0
 20 21  2  0
 21 22  1  0
 12 23  2  0
 23 24  1  0
  9 25  2  0
 25  5  1  0
 24 10  1  0
 21 16  1  0
  1 26  1  0
  6 27  1  0
  7 28  1  0
  8 29  1  0
 15 30  1  0
 17 31  1  0
 18 32  1  0
 19 33  1  0
 20 34  1  0
 23 35  1  0
 25 36  1  0
M  CHG  1   1  -1
M  END
>  <UniqueID>  (32) 
30

>  <SMILES>  (32) 
[NH-]S(=O)(=O)c1cccc(-c2nc(C(=O)Nc3ccccc3F)cs2)c1

>  <Energy>  (32) 
72.19556061792784

>  <Genealogy>  (32) 
[NH-]S(=O)(=O)c1cccc(-c2nc(C(=O)Nc3ccccc3F)cs2)c1 (protonated)
[NH-]S(=O)(=O)c1cccc(-c2nc(C(=O)Nc3ccccc3F)cs2)c1 (3D coordinates assigned)
[NH-]S(=O)(=O)c1cccc(-c2nc(C(=O)Nc3ccccc3F)cs2)c1 (optimized conformer: 72.19556061792784 kcal/mol)

>  <smiles>  (32) 
NS(=O)(=O)c1cccc(-c2nc(C(=O)Nc3ccccc3F)cs2)c1

>  <score_type>  (32) 
oracle

>  <origin>  (32) 
adg

>  <m_score__min__energy>  (32) 
-10.949999999999999

>  <m_primary>  (32) 
energy

$$$$
32:0
     RDKit          3D

 34 35  0  0  0  0  0  0  0  0999 V2000
   56.3200   26.6160   46.0220 C   0  0  0  0  0  0  0  0  0  0  0  0
   57.6570   27.2210   45.8700 N   0  0  0  0  0  0  0  0  0  0  0  0
   57.7990   28.5540   45.5280 C   0  0  0  0  0  0  0  0  0  0  0  0
   56.6410   29.4260   45.2000 C   0  0  0  0  0  0  0  0  0  0  0  0
   55.5300   28.9230   44.8780 O   0  0  0  0  0  0  0  0  0  0  0  0
   56.8010   30.8480   45.2050 N   0  0  0  0  0  0  0  0  0  0  0  0
   57.5760   31.5640   44.1990 C   0  0  0  0  0  0  0  0  0  0  0  0
   57.3950   33.0720   44.3710 C   0  0  0  0  0  0  0  0  0  0  0  0
   58.2130   33.5960   45.5220 C   0  0  0  0  0  0  0  0  0  0  0  0
   58.0660   33.0410   46.8050 C   0  0  0  0  0  0  0  0  0  0  0  0
   58.8500   33.5050   47.8670 C   0  0  0  0  0  0  0  0  0  0  0  0
   59.7910   34.5170   47.6540 C   0  0  0  0  0  0  0  0  0  0  0  0
   59.9500   35.0650   46.3790 C   0  0  0  0  0  0  0  0  0  0  0  0
   59.1680   34.6060   45.3150 C   0  0  0  0  0  0  0  0  0  0  0  0
   59.0810   29.1260   45.4730 C   0  0  0  0  0  0  0  0  0  0  0  0
   60.2040   28.3450   45.7110 C   0  0  0  0  0  0  0  0  0  0  0  0
   60.0540   26.9940   45.9970 C   0  0  0  0  0  0  0  0  0  0  0  0
   58.7750   26.4390   46.0700 C   0  0  0  0  0  0  0  0  0  0  0  0
   58.6690   25.2080   46.3230 O   0  0  0  0  0  0  0  0  0  0  0  0
   56.0851   26.5097   47.0913 H   0  0  0  0  0  0  0  0  0  0  0  0
   55.5688   27.2619   45.5440 H   0  0  0  0  0  0  0  0  0  0  0  0
   56.3093   25.6253   45.5440 H   0  0  0  0  0  0  0  0  0  0  0  0
   58.6404   31.3103   44.3113 H   0  0  0  0  0  0  0  0  0  0  0  0
   57.2247   31.2712   43.1986 H   0  0  0  0  0  0  0  0  0  0  0  0
   57.7118   33.5781   43.4472 H   0  0  0  0  0  0  0  0  0  0  0  0
   56.3339   33.2715   44.5813 H   0  0  0  0  0  0  0  0  0  0  0  0
   57.3322   32.2393   46.9747 H   0  0  0  0  0  0  0  0  0  0  0  0
   58.7259   33.0730   48.8710 H   0  0  0  0  0  0  0  0  0  0  0  0
   60.4059   34.8815   48.4901 H   0  0  0  0  0  0  0  0  0  0  0  0
   60.6922   35.8595   46.2118 H   0  0  0  0  0  0  0  0  0  0  0  0
   59.3007   35.0371   44.3117 H   0  0  0  0  0  0  0  0  0  0  0  0
   59.1953   30.1951   45.2408 H   0  0  0  0  0  0  0  0  0  0  0  0
   61.2075   28.7939   45.6733 H   0  0  0  0  0  0  0  0  0  0  0  0
   60.9397   26.3637   46.1654 H   0  0  0  0  0  0  0  0  0  0  0  0
  1  2  1  0
  2  3  1  0
  3  4  1  0
  4  5  2  0
  4  6  1  0
  6  7  1  0
  7  8  1  0
  8  9  1  0
  9 10  2  0
 10 11  1  0
 11 12  2  0
 12 13  1  0
 13 14  2  0
  3 15  2  0
 15 16  1  0
 16 17  2  0
 17 18  1  0
 18 19  2  0
 18  2  1  0
 14  9  1  0
  1 20  1  0
  1 21  1  0
  1 22  1  0
  7 23  1  0
  7 24  1  0
  8 25  1  0
  8 26  1  0
 10 27  1  0
 11 28  1  0
 12 29  1  0
 13 30  1  0
 14 31  1  0
 15 32  1  0
 16 33  1  0
 17 34  1  0
M  CHG  1   6  -1
M  END
>  <UniqueID>  (33) 
31

>  <SMILES>  (33) 
Cn1c(C(=O)[N-]CCc2ccccc2)cccc1=O

>  <Energy>  (33) 
38.48409504587248

>  <Genealogy>  (33) 
Cn1c(C(=O)[N-]CCc2ccccc2)cccc1=O (protonated)
Cn1c(C(=O)[N-]CCc2ccccc2)cccc1=O (3D coordinates assigned)
Cn1c(C(=O)[N-]CCc2ccccc2)cccc1=O (optimized conformer: 38.48409504587248 kcal/mol)

>  <smiles>  (33) 
Cn1c(C(=O)NCCc2ccccc2)cccc1=O

>  <score_type>  (33) 
oracle

>  <origin>  (33) 
adg

>  <m_score__min__energy>  (33) 
-8.5899999999999999

>  <m_primary>  (33) 
energy

$$$$
33:0
     RDKit          3D

 54 57  0  0  0  0  0  0  0  0999 V2000
   59.1710   30.1410   50.3110 N   0  0  0  0  0  0  0  0  0  0  0  0
   59.0510   31.5360   50.6350 C   0  0  0  0  0  0  0  0  0  0  0  0
   59.4390   32.4930   49.6770 C   0  0  0  0  0  0  0  0  0  0  0  0
   59.8700   32.1000   48.3590 N   0  0  0  0  0  0  0  0  0  0  0  0
   58.9610   31.3770   47.4970 C   0  0  0  0  0  0  0  0  0  0  0  0
   58.9510   30.1150   47.5360 O   0  0  0  0  0  0  0  0  0  0  0  0
   58.0820   32.1020   46.4940 C   0  0  0  0  0  0  0  0  0  0  0  0
   58.5100   31.9350   45.0390 C   0  0  0  0  0  0  0  0  0  0  0  0
   57.9000   33.1270   44.3130 C   0  0  0  0  0  0  0  0  0  0  0  0
   57.6940   34.2160   45.3670 C   0  0  0  0  0  0  0  0  0  0  0  0
   58.0860   33.6080   46.7100 C   0  0  0  0  0  0  0  0  0  0  0  0
   61.1860   32.4830   47.9260 C   0  0  0  0  0  0  0  0  0  0  0  0
   62.3200   31.9310   48.5420 C   0  0  0  0  0  0  0  0  0  0  0  0
   63.6010   32.3100   48.1300 C   0  0  0  0  0  0  0  0  0  0  0  0
   63.7580   33.2530   47.1080 C   0  0  0  0  0  0  0  0  0  0  0  0
   62.6340   33.8220   46.5050 C   0  0  0  0  0  0  0  0  0  0  0  0
   61.3510   33.4460   46.9160 C   0  0  0  0  0  0  0  0  0  0  0  0
   59.3740   33.8460   50.0160 C   0  0  0  0  0  0  0  0  0  0  0  0
   59.7060   34.7300   49.1800 O   0  0  0  0  0  0  0  0  0  0  0  0
   58.9420   34.2140   51.2460 N   0  0  0  0  0  0  0  0  0  0  0  0
   58.5600   33.2920   52.1680 C   0  0  0  0  0  0  0  0  0  0  0  0
   58.1720   33.6920   53.3000 O   0  0  0  0  0  0  0  0  0  0  0  0
   58.6030   31.9470   51.8750 N   0  0  0  0  0  0  0  0  0  0  0  0
   58.2210   30.9600   52.9090 C   0  0  0  0  0  0  0  0  0  0  0  0
   56.7990   30.4930   52.7160 C   0  0  0  0  0  0  0  0  0  0  0  0
   56.3740   29.2660   53.2580 C   0  0  0  0  0  0  0  0  0  0  0  0
   55.0570   28.8340   53.0820 C   0  0  0  0  0  0  0  0  0  0  0  0
   54.1490   29.6270   52.3750 C   0  0  0  0  0  0  0  0  0  0  0  0
   54.5560   30.8570   51.8480 C   0  0  0  0  0  0  0  0  0  0  0  0
   55.8730   31.2910   52.0210 C   0  0  0  0  0  0  0  0  0  0  0  0
   59.7080   29.7930   49.4870 H   0  0  0  0  0  0  0  0  0  0  0  0
   58.7120   29.4120   50.8990 H   0  0  0  0  0  0  0  0  0  0  0  0
   57.0977   31.6421   46.6662 H   0  0  0  0  0  0  0  0  0  0  0  0
   59.6066   31.9495   44.9538 H   0  0  0  0  0  0  0  0  0  0  0  0
   58.1754   30.9763   44.6159 H   0  0  0  0  0  0  0  0  0  0  0  0
   58.5818   33.4829   43.5266 H   0  0  0  0  0  0  0  0  0  0  0  0
   56.9500   32.8556   43.8294 H   0  0  0  0  0  0  0  0  0  0  0  0
   58.3311   35.0845   45.1439 H   0  0  0  0  0  0  0  0  0  0  0  0
   56.6497   34.5613   45.3794 H   0  0  0  0  0  0  0  0  0  0  0  0
   59.0877   33.9504   47.0088 H   0  0  0  0  0  0  0  0  0  0  0  0
   57.3923   33.9063   47.5099 H   0  0  0  0  0  0  0  0  0  0  0  0
   62.2002   31.1970   49.3525 H   0  0  0  0  0  0  0  0  0  0  0  0
   64.4862   31.8667   48.6095 H   0  0  0  0  0  0  0  0  0  0  0  0
   64.7662   33.5460   46.7797 H   0  0  0  0  0  0  0  0  0  0  0  0
   62.7580   34.5672   45.7054 H   0  0  0  0  0  0  0  0  0  0  0  0
   60.4684   33.9056   46.4471 H   0  0  0  0  0  0  0  0  0  0  0  0
   58.9000   35.2300   51.4890 H   0  0  0  0  0  0  0  0  0  0  0  0
   58.8955   30.0934   52.8449 H   0  0  0  0  0  0  0  0  0  0  0  0
   58.3001   31.4397   53.8957 H   0  0  0  0  0  0  0  0  0  0  0  0
   57.0828   28.6433   53.8236 H   0  0  0  0  0  0  0  0  0  0  0  0
   54.7346   27.8690   53.5002 H   0  0  0  0  0  0  0  0  0  0  0  0
   53.1137   29.2836   52.2329 H   0  0  0  0  0  0  0  0  0  0  0  0
   53.8389   31.4832   51.2970 H   0  0  0  0  0  0  0  0  0  0  0  0
   56.1871   32.2623   51.6112 H   0  0  0  0  0  0  0  0  0  0  0  0
  1  2  1  0
  2  3  2  0
  3  4  1  0
  4  5  1  0
  5  6  2  0
  5  7  1  0
  7  8  1  0
  8  9  1  0
  9 10  1  0
 10 11  1  0
  4 12  1  0
 12 13  2  0
 13 14  1  0
 14 15  2  0
 15 16  1  0
 16 17  2  0
  3 18  1  0
 18 19  2  0
 18 20  1  0
 20 21  1  0
 21 22  2  0
 21 23  1  0
 23 24  1  0
 24 25  1  0
 25 26  2  0
 26 27  1  0
 27 28  2  0
 28 29  1  0
 29 30  2  0
 23  2  1  0
 30 25  1  0
 11  7  1  0
 17 12  1  0
  1 31  1  0
  1 32  1  0
  7 33  1  0
  8 34  1  0
  8 35  1  0
  9 36  1  0
  9 37  1  0
 10 38  1  0
 10 39  1  0
 11 40  1  0
 11 41  1  0
 13 42  1  0
 14 43  1  0
 15 44  1  0
 16 45  1  0
 17 46  1  0
 20 47  1  0
 24 48  1  0
 24 49  1  0
 26 50  1  0
 27 51  1  0
 28 52  1  0
 29 53  1  0
 30 54  1  0
M  END
>  <UniqueID>  (34) 
32

>  <SMILES>  (34) 
Nc1c(N(C(=O)C2CCCC2)c2ccccc2)c(=O)[nH]c(=O)n1Cc1ccccc1

>  <Energy>  (34) 
77.42249042340758

>  <Genealogy>  (34) 
Nc1c(N(C(=O)C2CCCC2)c2ccccc2)c(=O)[nH]c(=O)n1Cc1ccccc1 (3D coordinates assigned)
Nc1c(N(C(=O)C2CCCC2)c2ccccc2)c(=O)[nH]c(=O)n1Cc1ccccc1 (nonaromatic ring conformer: 77.42249042340758 kcal/mol)

>  <smiles>  (34) 
Nc1c(N(C(=O)C2CCCC2)c2ccccc2)c(=O)[nH]c(=O)n1Cc1ccccc1

>  <score_type>  (34) 
oracle

>  <origin>  (34) 
adg

>  <m_score__min__energy>  (34) 
-8.5800000000000001

>  <m_primary>  (34) 
energy

$$$$
34:0
     RDKit          3D

 54 56  0  0  0  0  0  0  0  0999 V2000
   58.0170   23.6850   45.4190 C   0  0  0  0  0  0  0  0  0  0  0  0
   58.1460   25.0580   44.9040 N   0  0  0  0  0  0  0  0  0  0  0  0
   57.3950   25.2220   43.6490 C   0  0  0  0  0  0  0  0  0  0  0  0
   57.7840   26.0760   45.9140 C   0  0  0  0  0  0  0  0  0  0  0  0
   56.3160   26.4060   45.9380 C   0  0  0  0  0  0  0  0  0  0  0  0
   55.4860   25.5310   46.3040 O   0  0  0  0  0  0  0  0  0  0  0  0
   55.8850   27.7350   45.6180 N   0  0  0  0  0  0  0  0  0  0  0  0
   56.7070   28.7810   45.0820 C   0  0  0  0  0  0  0  0  0  0  0  0
   56.2770   29.4490   43.9290 C   0  0  0  0  0  0  0  0  0  0  0  0
   57.0530   30.4710   43.3740 C   0  0  0  0  0  0  0  0  0  0  0  0
   58.2600   30.8380   43.9740 C   0  0  0  0  0  0  0  0  0  0  0  0
   58.6950   30.1900   45.1400 C   0  0  0  0  0  0  0  0  0  0  0  0
   59.9080   30.5840   45.7960 N   0  0  0  0  0  0  0  0  0  0  0  0
   59.9290   31.2390   47.0770 C   0  0  0  0  0  0  0  0  0  0  0  0
   58.8680   31.3370   47.7530 O   0  0  0  0  0  0  0  0  0  0  0  0
   61.1840   31.8020   47.6280 C   0  0  0  0  0  0  0  0  0  0  0  0
   62.4110   31.2390   47.2370 C   0  0  0  0  0  0  0  0  0  0  0  0
   63.6150   31.7420   47.7320 C   0  0  0  0  0  0  0  0  0  0  0  0
   63.6090   32.8060   48.6320 C   0  0  0  0  0  0  0  0  0  0  0  0
   62.3990   33.3670   49.0470 C   0  0  0  0  0  0  0  0  0  0  0  0
   61.1750   32.8680   48.5590 C   0  0  0  0  0  0  0  0  0  0  0  0
   59.9450   33.3880   48.9950 O   0  0  0  0  0  0  0  0  0  0  0  0
   59.3500   34.5860   48.5070 C   0  0  0  0  0  0  0  0  0  0  0  0
   58.8290   34.3450   47.1190 C   0  0  0  0  0  0  0  0  0  0  0  0
   57.5530   33.7960   46.9160 C   0  0  0  0  0  0  0  0  0  0  0  0
   57.0800   33.5790   45.6170 C   0  0  0  0  0  0  0  0  0  0  0  0
   57.8800   33.8980   44.5180 C   0  0  0  0  0  0  0  0  0  0  0  0
   59.1610   34.4210   44.7130 C   0  0  0  0  0  0  0  0  0  0  0  0
   59.6370   34.6440   46.0080 C   0  0  0  0  0  0  0  0  0  0  0  0
   57.9030   29.1790   45.7040 C   0  0  0  0  0  0  0  0  0  0  0  0
   58.0188   23.7042   46.5188 H   0  0  0  0  0  0  0  0  0  0  0  0
   57.0737   23.2464   45.0615 H   0  0  0  0  0  0  0  0  0  0  0  0
   58.8621   23.0784   45.0615 H   0  0  0  0  0  0  0  0  0  0  0  0
   56.3439   25.4515   43.8780 H   0  0  0  0  0  0  0  0  0  0  0  0
   57.8315   26.0460   43.0655 H   0  0  0  0  0  0  0  0  0  0  0  0
   57.4483   24.2911   43.0655 H   0  0  0  0  0  0  0  0  0  0  0  0
   58.0718   25.6989   46.9064 H   0  0  0  0  0  0  0  0  0  0  0  0
   58.3178   26.9998   45.6463 H   0  0  0  0  0  0  0  0  0  0  0  0
   55.3237   29.1682   43.4574 H   0  0  0  0  0  0  0  0  0  0  0  0
   56.7128   30.9867   42.4639 H   0  0  0  0  0  0  0  0  0  0  0  0
   58.8715   31.6378   43.5308 H   0  0  0  0  0  0  0  0  0  0  0  0
   60.8000   30.4630   45.2680 H   0  0  0  0  0  0  0  0  0  0  0  0
   62.4224   30.3933   46.5337 H   0  0  0  0  0  0  0  0  0  0  0  0
   64.5692   31.2984   47.4116 H   0  0  0  0  0  0  0  0  0  0  0  0
   64.5593   33.2049   49.0164 H   0  0  0  0  0  0  0  0  0  0  0  0
   62.4017   34.2046   49.7601 H   0  0  0  0  0  0  0  0  0  0  0  0
   58.5200   34.8803   49.1662 H   0  0  0  0  0  0  0  0  0  0  0  0
   60.0993   35.3910   48.4874 H   0  0  0  0  0  0  0  0  0  0  0  0
   56.9237   33.5359   47.7799 H   0  0  0  0  0  0  0  0  0  0  0  0
   56.0764   33.1564   45.4615 H   0  0  0  0  0  0  0  0  0  0  0  0
   57.5015   33.7374   43.4977 H   0  0  0  0  0  0  0  0  0  0  0  0
   59.7956   34.6575   43.8462 H   0  0  0  0  0  0  0  0  0  0  0  0
   60.6464   35.0545   46.1584 H   0  0  0  0  0  0  0  0  0  0  0  0
   58.2200   28.6944   46.6393 H   0  0  0  0  0  0  0  0  0  0  0  0
  1  2  1  0
  2  3  1  0
  2  4  1  0
  4  5  1  0
  5  6  2  0
  5  7  1  0
  7  8  1  0
  8  9  2  0
  9 10  1  0
 10 11  2  0
 11 12  1  0
 12 13  1  0
 13 14  1  0
 14 15  2  0
 14 16  1  0
 16 17  2  0
 17 18  1  0
 18 19  2  0
 19 20  1  0
 20 21  2  0
 21 22  1  0
 22 23  1  0
 23 24  1  0
 24 25  2  0
 25 26  1  0
 26 27  2  0
 27 28  1  0
 28 29  2  0
 12 30  2  0
 30  8  1  0
 21 16  1  0
 29 24  1  0
  1 31  1  0
  1 32  1  0
  1 33  1  0
  3 34  1  0
  3 35  1  0
  3 36  1  0
  4 37  1  0
  4 38  1  0
  9 39  1  0
 10 40  1  0
 11 41  1  0
 13 42  1  0
 17 43  1  0
 18 44  1  0
 19 45  1  0
 20 46  1  0
 23 47  1  0
 23 48  1  0
 25 49  1  0
 26 50  1  0
 27 51  1  0
 28 52  1  0
 29 53  1  0
 30 54  1  0
M  CHG  1   7  -1
M  END
>  <UniqueID>  (35) 
33

>  <SMILES>  (35) 
CN(C)CC(=O)[N-]c1cccc(NC(=O)c2ccccc2OCc2ccccc2)c1

>  <Energy>  (35) 
65.31260850872651

>  <Genealogy>  (35) 
CN(C)CC(=O)[N-]c1cccc(NC(=O)c2ccccc2OCc2ccccc2)c1 (protonated)
CN(C)CC(=O)[N-]c1cccc(NC(=O)c2ccccc2OCc2ccccc2)c1 (3D coordinates assigned)
CN(C)CC(=O)[N-]c1cccc(NC(=O)c2ccccc2OCc2ccccc2)c1 (optimized conformer: 65.31260850872651 kcal/mol)

>  <smiles>  (35) 
CN(C)CC(=O)Nc1cccc(NC(=O)c2ccccc2OCc2ccccc2)c1

>  <score_type>  (35) 
oracle

>  <origin>  (35) 
adg

>  <m_score__min__energy>  (35) 
-10.779999999999999

>  <m_primary>  (35) 
energy

$$$$
35:0
     RDKit          3D

 45 47  0  0  0  0  0  0  0  0999 V2000
   55.1550   29.5300   44.8390 O   0  0  0  0  0  0  0  0  0  0  0  0
   56.2850   30.0240   44.5840 C   0  0  0  0  0  0  0  0  0  0  0  0
   56.4490   31.4500   44.5430 N   0  0  0  0  0  0  0  0  0  0  0  0
   57.4580   32.2220   45.2140 C   0  0  0  0  0  0  0  0  0  0  0  0
   57.5390   33.5940   44.9470 C   0  0  0  0  0  0  0  0  0  0  0  0
   58.4990   34.3860   45.5820 C   0  0  0  0  0  0  0  0  0  0  0  0
   59.3910   33.8130   46.5070 C   0  0  0  0  0  0  0  0  0  0  0  0
   60.3580   34.5730   47.1810 O   0  0  0  0  0  0  0  0  0  0  0  0
   61.5810   34.0920   47.6730 C   0  0  0  0  0  0  0  0  0  0  0  0
   61.8080   34.1240   49.0550 C   0  0  0  0  0  0  0  0  0  0  0  0
   63.0100   33.6450   49.5860 C   0  0  0  0  0  0  0  0  0  0  0  0
   63.9890   33.1190   48.7400 C   0  0  0  0  0  0  0  0  0  0  0  0
   63.7640   33.0610   47.3610 C   0  0  0  0  0  0  0  0  0  0  0  0
   62.5620   33.5380   46.8280 C   0  0  0  0  0  0  0  0  0  0  0  0
   59.2760   32.4530   46.8120 C   0  0  0  0  0  0  0  0  0  0  0  0
   58.3180   31.6590   46.1730 C   0  0  0  0  0  0  0  0  0  0  0  0
   57.4460   29.1750   44.4240 N   0  0  0  0  0  0  0  0  0  0  0  0
   57.3950   28.2760   43.2440 C   0  0  0  0  0  0  0  0  0  0  0  0
   58.3780   27.0900   43.2470 C   0  0  0  0  0  0  0  0  0  0  0  0
   57.8200   25.8160   43.8910 C   0  0  0  0  0  0  0  0  0  0  0  0
   57.8260   25.8980   45.4220 C   0  0  0  0  0  0  0  0  0  0  0  0
   57.2090   27.1780   46.0210 C   0  0  0  0  0  0  0  0  0  0  0  0
   57.8890   28.5210   45.6780 C   0  0  0  0  0  0  0  0  0  0  0  0
   56.8408   34.0523   44.2311 H   0  0  0  0  0  0  0  0  0  0  0  0
   58.5576   35.4613   45.3580 H   0  0  0  0  0  0  0  0  0  0  0  0
   61.0363   34.5283   49.7266 H   0  0  0  0  0  0  0  0  0  0  0  0
   63.1846   33.6826   50.6714 H   0  0  0  0  0  0  0  0  0  0  0  0
   64.9371   32.7503   49.1585 H   0  0  0  0  0  0  0  0  0  0  0  0
   64.5322   32.6403   46.6955 H   0  0  0  0  0  0  0  0  0  0  0  0
   62.3822   33.4802   45.7443 H   0  0  0  0  0  0  0  0  0  0  0  0
   59.9448   32.0038   47.5610 H   0  0  0  0  0  0  0  0  0  0  0  0
   58.2373   30.5905   46.4217 H   0  0  0  0  0  0  0  0  0  0  0  0
   58.2300   29.8330   44.1880 H   0  0  0  0  0  0  0  0  0  0  0  0
   56.3761   27.8667   43.1782 H   0  0  0  0  0  0  0  0  0  0  0  0
   57.6900   28.8995   42.3871 H   0  0  0  0  0  0  0  0  0  0  0  0
   58.6464   26.8613   42.2051 H   0  0  0  0  0  0  0  0  0  0  0  0
   59.2441   27.3976   43.8513 H   0  0  0  0  0  0  0  0  0  0  0  0
   56.7857   25.6676   43.5471 H   0  0  0  0  0  0  0  0  0  0  0  0
   58.4624   24.9744   43.5927 H   0  0  0  0  0  0  0  0  0  0  0  0
   57.2623   25.0367   45.8097 H   0  0  0  0  0  0  0  0  0  0  0  0
   58.8849   25.9055   45.7197 H   0  0  0  0  0  0  0  0  0  0  0  0
   56.1674   27.2368   45.6723 H   0  0  0  0  0  0  0  0  0  0  0  0
   57.3337   27.0687   47.1084 H   0  0  0  0  0  0  0  0  0  0  0  0
   57.6946   29.2174   46.5070 H   0  0  0  0  0  0  0  0  0  0  0  0
   58.9525   28.2836   45.5275 H   0  0  0  0  0  0  0  0  0  0  0  0
  1  2  2  0
  2  3  1  0
  3  4  1  0
  4  5  2  0
  5  6  1  0
  6  7  2  0
  7  8  1  0
  8  9  1  0
  9 10  2  0
 10 11  1  0
 11 12  2  0
 12 13  1  0
 13 14  2  0
  7 15  1  0
 15 16  2  0
  2 17  1  0
 17 18  1  0
 18 19  1  0
 19 20  1  0
 20 21  1  0
 21 22  1  0
 22 23  1  0
 16  4  1  0
 23 17  1  0
 14  9  1  0
  5 24  1  0
  6 25  1  0
 10 26  1  0
 11 27  1  0
 12 28  1  0
 13 29  1  0
 14 30  1  0
 15 31  1  0
 16 32  1  0
 17 33  1  0
 18 34  1  0
 18 35  1  0
 19 36  1  0
 19 37  1  0
 20 38  1  0
 20 39  1  0
 21 40  1  0
 21 41  1  0
 22 42  1  0
 22 43  1  0
 23 44  1  0
 23 45  1  0
M  CHG  2   3  -1  17   1
M  END
>  <UniqueID>  (36) 
34

>  <SMILES>  (36) 
O=C([N-]c1ccc(Oc2ccccc2)cc1)[NH+]1CCCCCC1

>  <Energy>  (36) 
70.40138861904923

>  <Genealogy>  (36) 
O=C([N-]c1ccc(Oc2ccccc2)cc1)[NH+]1CCCCCC1 (protonated)
O=C([N-]c1ccc(Oc2ccccc2)cc1)[NH+]1CCCCCC1 (3D coordinates assigned)
O=C([N-]c1ccc(Oc2ccccc2)cc1)[NH+]1CCCCCC1 (nonaromatic ring conformer: 70.40138861904923 kcal/mol)

>  <smiles>  (36) 
O=C(Nc1ccc(Oc2ccccc2)cc1)N1CCCCCC1

>  <score_type>  (36) 
oracle

>  <origin>  (36) 
adg

>  <m_score__min__energy>  (36) 
-6.21

>  <m_primary>  (36) 
energy

$$$$
36:0
     RDKit          3D

 39 41  0  0  0  0  0  0  0  0999 V2000
   55.6140   29.7110   45.9980 H   0  0  0  0  0  0  0  0  0  0  0  0
   55.3750   29.3900   45.0690 O   0  0  0  0  0  0  0  0  0  0  0  0
   56.3610   29.1870   44.1280 N   0  0  0  0  0  0  0  0  0  0  0  0
   56.0790   28.8140   43.1950 H   0  0  0  0  0  0  0  0  0  0  0  0
   57.6110   29.4430   44.3980 C   0  0  0  0  0  0  0  0  0  0  0  0
   58.0250   30.7740   44.9100 C   0  0  0  0  0  0  0  0  0  0  0  0
   58.6150   30.9290   46.1780 C   0  0  0  0  0  0  0  0  0  0  0  0
   58.7890   30.0472   46.8122 H   0  0  0  0  0  0  0  0  0  0  0  0
   58.9710   32.1630   46.6230 N   0  0  0  0  0  0  0  0  0  0  0  0
   58.7730   33.2800   45.8740 C   0  0  0  0  0  0  0  0  0  0  0  0
   59.2600   34.8770   46.5210 S   0  0  0  0  0  0  0  0  0  0  0  0
   60.7620   34.2260   47.2470 C   0  0  0  0  0  0  0  0  0  0  0  0
   61.7980   33.7640   46.4230 C   0  0  0  0  0  0  0  0  0  0  0  0
   61.6906   33.8050   45.3290 H   0  0  0  0  0  0  0  0  0  0  0  0
   62.9680   33.2510   46.9920 C   0  0  0  0  0  0  0  0  0  0  0  0
   63.7793   32.8863   46.3448 H   0  0  0  0  0  0  0  0  0  0  0  0
   63.1080   33.2010   48.3820 C   0  0  0  0  0  0  0  0  0  0  0  0
   64.0285   32.7962   48.8280 H   0  0  0  0  0  0  0  0  0  0  0  0
   62.0770   33.6660   49.2060 C   0  0  0  0  0  0  0  0  0  0  0  0
   62.1881   33.6286   50.2997 H   0  0  0  0  0  0  0  0  0  0  0  0
   60.9060   34.1780   48.6400 C   0  0  0  0  0  0  0  0  0  0  0  0
   60.0965   34.5437   49.2889 H   0  0  0  0  0  0  0  0  0  0  0  0
   58.1860   33.1790   44.6110 C   0  0  0  0  0  0  0  0  0  0  0  0
   58.0240   34.0789   43.9995 H   0  0  0  0  0  0  0  0  0  0  0  0
   57.8070   31.9230   44.1330 C   0  0  0  0  0  0  0  0  0  0  0  0
   57.3355   31.8333   43.1432 H   0  0  0  0  0  0  0  0  0  0  0  0
   58.6230   28.4470   44.1690 N   0  0  0  0  0  0  0  0  0  0  0  0
   59.4970   28.7510   43.6830 H   0  0  0  0  0  0  0  0  0  0  0  0
   58.5630   27.1050   44.6850 C   0  0  0  0  0  0  0  0  0  0  0  0
   59.3150   26.7150   45.8100 C   0  0  0  0  0  0  0  0  0  0  0  0
   59.9544   27.4487   46.3228 H   0  0  0  0  0  0  0  0  0  0  0  0
   59.2520   25.3980   46.2780 C   0  0  0  0  0  0  0  0  0  0  0  0
   59.8354   25.1010   47.1620 H   0  0  0  0  0  0  0  0  0  0  0  0
   58.4500   24.4600   45.6250 C   0  0  0  0  0  0  0  0  0  0  0  0
   58.3983   23.4265   45.9981 H   0  0  0  0  0  0  0  0  0  0  0  0
   57.7130   24.8330   44.4980 C   0  0  0  0  0  0  0  0  0  0  0  0
   57.0856   24.0919   43.9811 H   0  0  0  0  0  0  0  0  0  0  0  0
   57.7730   26.1490   44.0270 C   0  0  0  0  0  0  0  0  0  0  0  0
   57.1972   26.4367   43.1350 H   0  0  0  0  0  0  0  0  0  0  0  0
  1  2  1  0
  2  3  1  0
  3  4  1  0
  3  5  2  0
  5  6  1  0
  6  7  2  0
  7  8  1  0
  7  9  1  0
  9 10  2  0
 10 11  1  0
 11 12  1  0
 12 13  2  0
 13 14  1  0
 13 15  1  0
 15 16  1  0
 15 17  2  0
 17 18  1  0
 17 19  1  0
 19 20  1  0
 19 21  2  0
 21 22  1  0
 10 23  1  0
 23 24  1  0
 23 25  2  0
 25 26  1  0
  5 27  1  0
 27 28  1  0
 27 29  1  0
 29 30  2  0
 30 31  1  0
 30 32  1  0
 32 33  1  0
 32 34  2  0
 34 35  1  0
 34 36  1  0
 36 37  1  0
 36 38  2  0
 38 39  1  0
 25  6  1  0
 38 29  1  0
 21 12  1  0
M  CHG  1   3   1
M  END
>  <UniqueID>  (37) 
35

>  <SMILES>  (37) 
O/[NH+]=C(\Nc1ccccc1)c1ccc(Sc2ccccc2)nc1

>  <Energy>  (37) 
46.48404854573048

>  <Genealogy>  (37) 
O[NH+]=C(Nc1ccccc1)c1ccc(Sc2ccccc2)nc1 (protonated)
O/[NH+]=C(\Nc1ccccc1)c1ccc(Sc2ccccc2)nc1 (cis-trans isomerization)
O/[NH+]=C(\Nc1ccccc1)c1ccc(Sc2ccccc2)nc1 (3D coordinates assigned)
O/[NH+]=C(\Nc1ccccc1)c1ccc(Sc2ccccc2)nc1 (optimized conformer: 46.48404854573048 kcal/mol)

>  <smiles>  (37) 
ON=C(Nc1ccccc1)c1ccc(Sc2ccccc2)nc1

>  <score_type>  (37) 
oracle

>  <origin>  (37) 
adg

>  <m_score__min__energy>  (37) 
-7.9800000000000004

>  <m_primary>  (37) 
energy

$$$$
37:0
     RDKit          3D

 69 71  0  0  0  0  0  0  0  0999 V2000
   56.9600   20.8480   42.9910 C   0  0  0  0  0  0  0  0  0  0  0  0
   55.9510   21.8260   43.2350 O   0  0  0  0  0  0  0  0  0  0  0  0
   56.1610   23.0210   43.9390 C   0  0  0  0  0  0  0  0  0  0  0  0
   55.1990   23.4200   44.8740 C   0  0  0  0  0  0  0  0  0  0  0  0
   55.3530   24.6100   45.5900 C   0  0  0  0  0  0  0  0  0  0  0  0
   56.4760   25.4240   45.3770 C   0  0  0  0  0  0  0  0  0  0  0  0
   56.6300   26.7050   46.1450 C   0  0  0  0  0  0  0  0  0  0  0  0
   55.9130   27.7750   45.4660 N   0  0  0  0  0  0  0  0  0  0  0  0
   56.4460   29.0960   45.3420 C   0  0  0  0  0  0  0  0  0  0  0  0
   55.6720   30.0820   45.2040 O   0  0  0  0  0  0  0  0  0  0  0  0
   57.9330   29.3200   45.3760 C   0  0  1  0  0  0  0  0  0  0  0  0
   58.4300   30.0090   44.0890 C   0  0  0  0  0  0  0  0  0  0  0  0
   57.3680   30.8790   43.3760 C   0  0  0  0  0  0  0  0  0  0  0  0
   56.4750   30.0500   42.4410 C   0  0  0  0  0  0  0  0  0  0  0  0
   58.0560   31.9980   42.5830 C   0  0  0  0  0  0  0  0  0  0  0  0
   58.2840   30.1510   46.5250 N   0  0  0  0  0  0  0  0  0  0  0  0
   59.1690   29.7350   47.5730 C   0  0  0  0  0  0  0  0  0  0  0  0
   59.1980   28.5280   47.9320 O   0  0  0  0  0  0  0  0  0  0  0  0
   60.0690   30.7200   48.2030 C   0  0  0  0  0  0  0  0  0  0  0  0
   61.5640   30.4750   48.1620 C   0  0  0  0  0  0  0  0  0  0  0  0
   62.3400   31.7540   47.9440 C   0  0  0  0  0  0  0  0  0  0  0  0
   63.3610   32.1460   48.8330 C   0  0  0  0  0  0  0  0  0  0  0  0
   64.0750   33.3280   48.6100 C   0  0  0  0  0  0  0  0  0  0  0  0
   63.7880   34.1230   47.4970 C   0  0  0  0  0  0  0  0  0  0  0  0
   62.7880   33.7330   46.6000 C   0  0  0  0  0  0  0  0  0  0  0  0
   62.0690   32.5550   46.8190 C   0  0  0  0  0  0  0  0  0  0  0  0
   59.5230   31.7540   48.7840 N   0  0  0  0  0  0  0  0  0  0  0  0
   58.4620   32.6130   48.3340 C   0  0  0  0  0  0  0  0  0  0  0  0
   57.3890   32.7080   48.9900 O   0  0  0  0  0  0  0  0  0  0  0  0
   58.6790   33.4980   47.1640 C   0  0  0  0  0  0  0  0  0  0  0  0
   59.6460   34.5200   47.2360 C   0  0  0  0  0  0  0  0  0  0  0  0
   59.8880   35.3500   46.1390 C   0  0  0  0  0  0  0  0  0  0  0  0
   59.1670   35.1780   44.9570 C   0  0  0  0  0  0  0  0  0  0  0  0
   58.1940   34.1790   44.8720 C   0  0  0  0  0  0  0  0  0  0  0  0
   57.9370   33.3420   45.9680 C   0  0  0  0  0  0  0  0  0  0  0  0
   56.9350   32.3780   45.8750 O   0  0  0  0  0  0  0  0  0  0  0  0
   57.4550   25.0180   44.4570 C   0  0  0  0  0  0  0  0  0  0  0  0
   57.2980   23.8280   43.7380 C   0  0  0  0  0  0  0  0  0  0  0  0
   57.3468   20.4731   43.9501 H   0  0  0  0  0  0  0  0  0  0  0  0
   56.5306   20.0134   42.4174 H   0  0  0  0  0  0  0  0  0  0  0  0
   57.7808   21.3032   42.4174 H   0  0  0  0  0  0  0  0  0  0  0  0
   54.3134   22.7909   45.0468 H   0  0  0  0  0  0  0  0  0  0  0  0
   54.5905   24.9100   46.3239 H   0  0  0  0  0  0  0  0  0  0  0  0
   56.2200   26.5756   47.1575 H   0  0  0  0  0  0  0  0  0  0  0  0
   57.6969   26.9651   46.2082 H   0  0  0  0  0  0  0  0  0  0  0  0
   58.4169   28.3354   45.4562 H   0  0  0  0  0  0  0  0  0  0  0  0
   59.2821   30.6533   44.3513 H   0  0  0  0  0  0  0  0  0  0  0  0
   58.6983   29.2053   43.3875 H   0  0  0  0  0  0  0  0  0  0  0  0
   56.7216   31.3145   44.1523 H   0  0  0  0  0  0  0  0  0  0  0  0
   55.7991   29.4225   43.0406 H   0  0  0  0  0  0  0  0  0  0  0  0
   55.8821   30.7251   41.8064 H   0  0  0  0  0  0  0  0  0  0  0  0
   57.1042   29.4086   41.8064 H   0  0  0  0  0  0  0  0  0  0  0  0
   58.5011   32.7220   43.2814 H   0  0  0  0  0  0  0  0  0  0  0  0
   58.8451   31.5667   41.9496 H   0  0  0  0  0  0  0  0  0  0  0  0
   57.3149   32.5075   41.9496 H   0  0  0  0  0  0  0  0  0  0  0  0
   61.8772   30.0276   49.1168 H   0  0  0  0  0  0  0  0  0  0  0  0
   61.7755   29.8005   47.3192 H   0  0  0  0  0  0  0  0  0  0  0  0
   63.5974   31.5198   49.7059 H   0  0  0  0  0  0  0  0  0  0  0  0
   64.8646   33.6326   49.3127 H   0  0  0  0  0  0  0  0  0  0  0  0
   64.3479   35.0544   47.3265 H   0  0  0  0  0  0  0  0  0  0  0  0
   62.5671   34.3551   45.7201 H   0  0  0  0  0  0  0  0  0  0  0  0
   61.2865   32.2519   46.1078 H   0  0  0  0  0  0  0  0  0  0  0  0
   60.2161   34.6658   48.1654 H   0  0  0  0  0  0  0  0  0  0  0  0
   60.6490   36.1413   46.2072 H   0  0  0  0  0  0  0  0  0  0  0  0
   59.3645   35.8287   44.0924 H   0  0  0  0  0  0  0  0  0  0  0  0
   57.6256   34.0479   43.9394 H   0  0  0  0  0  0  0  0  0  0  0  0
   57.0470   31.4540   46.2780 H   0  0  0  0  0  0  0  0  0  0  0  0
   58.3499   25.6382   44.3005 H   0  0  0  0  0  0  0  0  0  0  0  0
   58.0659   23.5212   43.0125 H   0  0  0  0  0  0  0  0  0  0  0  0
  1  2  1  0
  2  3  1  0
  3  4  2  0
  4  5  1  0
  5  6  2  0
  6  7  1  0
  7  8  1  0
  8  9  1  0
  9 10  2  0
  9 11  1  0
 11 12  1  0
 12 13  1  0
 13 14  1  0
 13 15  1  0
 11 16  1  0
 16 17  1  0
 17 18  2  0
 17 19  1  0
 19 20  1  0
 20 21  1  0
 21 22  2  0
 22 23  1  0
 23 24  2  0
 24 25  1  0
 25 26  2  0
 19 27  2  3
 27 28  1  0
 28 29  2  0
 28 30  1  0
 30 31  2  0
 31 32  1  0
 32 33  2  0
 33 34  1  0
 34 35  2  0
 35 36  1  0
  6 37  1  0
 37 38  2  0
 38  3  1  0
 26 21  1  0
 35 30  1  0
  1 39  1  0
  1 40  1  0
  1 41  1  0
  4 42  1  0
  5 43  1  0
  7 44  1  0
  7 45  1  0
 11 46  1  1
 12 47  1  0
 12 48  1  0
 13 49  1  0
 14 50  1  0
 14 51  1  0
 14 52  1  0
 15 53  1  0
 15 54  1  0
 15 55  1  0
 20 56  1  0
 20 57  1  0
 22 58  1  0
 23 59  1  0
 24 60  1  0
 25 61  1  0
 26 62  1  0
 31 63  1  0
 32 64  1  0
 33 65  1  0
 34 66  1  0
 36 67  1  0
 37 68  1  0
 38 69  1  0
M  CHG  2   8  -1  16  -1
M  END
>  <UniqueID>  (38) 
36

>  <SMILES>  (38) 
COc1ccc(C[N-]C(=O)[C@@H](CC(C)C)[N-]C(=O)C(Cc2ccccc2)=NC(=O)c2ccccc2O)cc1

>  <Energy>  (38) 
66.63231598958721

>  <Genealogy>  (38) 
COc1ccc(C[N-]C(=O)C(CC(C)C)[N-]C(=O)C(Cc2ccccc2)=NC(=O)c2ccccc2O)cc1 (protonated)
COc1ccc(C[N-]C(=O)[C@@H](CC(C)C)[N-]C(=O)C(Cc2ccccc2)=NC(=O)c2ccccc2O)cc1 (chirality)
COc1ccc(C[N-]C(=O)[C@@H](CC(C)C)[N-]C(=O)C(Cc2ccccc2)=NC(=O)c2ccccc2O)cc1 (3D coordinates assigned)
COc1ccc(C[N-]C(=O)[C@@H](CC(C)C)[N-]C(=O)C(Cc2ccccc2)=NC(=O)c2ccccc2O)cc1 (optimized conformer: 66.63231598958721 kcal/mol)

>  <smiles>  (38) 
COc1ccc(CNC(=O)C(CC(C)C)NC(=O)C(Cc2ccccc2)=NC(=O)c2ccccc2O)cc1

>  <score_type>  (38) 
oracle

>  <origin>  (38) 
adg

>  <m_score__min__energy>  (38) 
-12.81

>  <m_primary>  (38) 
energy

$$$$
38:0
     RDKit          3D

 51 54  0  0  0  0  0  0  0  0999 V2000
   58.3123   33.9209   43.4830 H   0  0  0  0  0  0  0  0  0  0  0  0
   57.9870   32.9010   43.7360 C   0  0  0  0  0  0  0  0  0  0  0  0
   57.8960   32.4990   45.0780 C   0  0  0  0  0  0  0  0  0  0  0  0
   58.2380   33.4200   46.1780 C   0  0  0  0  0  0  0  0  0  0  0  0
   57.7850   34.5960   46.1620 O   0  0  0  0  0  0  0  0  0  0  0  0
   59.1170   32.9940   47.2290 N   0  0  0  0  0  0  0  0  0  0  0  0
   60.5460   32.8840   47.1650 C   0  0  0  0  0  0  0  0  0  0  0  0
   61.1450   31.6900   47.5890 C   0  0  0  0  0  0  0  0  0  0  0  0
   60.5166   30.8568   47.9366 H   0  0  0  0  0  0  0  0  0  0  0  0
   62.5370   31.5510   47.5730 C   0  0  0  0  0  0  0  0  0  0  0  0
   62.9986   30.6072   47.8987 H   0  0  0  0  0  0  0  0  0  0  0  0
   63.3410   32.6090   47.1440 C   0  0  0  0  0  0  0  0  0  0  0  0
   64.4351   32.4967   47.1255 H   0  0  0  0  0  0  0  0  0  0  0  0
   62.7540   33.8110   46.7380 C   0  0  0  0  0  0  0  0  0  0  0  0
   63.3880   34.6460   46.4050 H   0  0  0  0  0  0  0  0  0  0  0  0
   61.3630   33.9550   46.7540 C   0  0  0  0  0  0  0  0  0  0  0  0
   60.9061   34.9067   46.4449 H   0  0  0  0  0  0  0  0  0  0  0  0
   57.4930   31.2300   45.3690 N   0  0  0  0  0  0  0  0  0  0  0  0
   57.1680   30.3250   44.4050 C   0  0  0  0  0  0  0  0  0  0  0  0
   56.7440   28.9620   44.7910 C   0  0  0  0  0  0  0  0  0  0  0  0
   55.5180   28.7120   44.9580 O   0  0  0  0  0  0  0  0  0  0  0  0
   57.7240   27.9320   45.0130 N   0  0  0  0  0  0  0  0  0  0  0  0
   58.7110   28.2200   45.1970 H   0  0  0  0  0  0  0  0  0  0  0  0
   57.3990   26.5370   45.1340 C   0  0  0  0  0  0  0  0  0  0  0  0
   56.8270   26.0170   46.3090 C   0  0  0  0  0  0  0  0  0  0  0  0
   56.6305   26.6821   47.1628 H   0  0  0  0  0  0  0  0  0  0  0  0
   56.5070   24.6590   46.3970 C   0  0  0  0  0  0  0  0  0  0  0  0
   56.0639   24.2596   47.3212 H   0  0  0  0  0  0  0  0  0  0  0  0
   56.7480   23.8050   45.3140 C   0  0  0  0  0  0  0  0  0  0  0  0
   56.3580   22.0920   45.4240 S   0  0  0  0  0  0  0  0  0  0  0  0
   57.4950   21.3700   46.0930 O   0  0  0  0  0  0  0  0  0  0  0  0
   56.1430   21.5420   44.0430 O   0  0  0  0  0  0  0  0  0  0  0  0
   54.9180   21.8810   46.3680 N   0  0  0  0  0  0  0  0  0  0  0  0
   53.7560   22.3180   45.9970 C   0  0  0  0  0  0  0  0  0  0  0  0
   53.5170   22.9710   44.8440 N   0  0  0  0  0  0  0  0  0  0  0  0
   52.2420   23.2380   44.8350 O   0  0  0  0  0  0  0  0  0  0  0  0
   51.6570   22.7840   45.9220 C   0  0  0  0  0  0  0  0  0  0  0  0
   50.2070   22.9430   46.2310 C   0  0  0  0  0  0  0  0  0  0  0  0
   50.0641   22.9587   47.3216 H   0  0  0  0  0  0  0  0  0  0  0  0
   49.8415   23.8866   45.7997 H   0  0  0  0  0  0  0  0  0  0  0  0
   49.6457   22.1010   45.7997 H   0  0  0  0  0  0  0  0  0  0  0  0
   52.5980   22.1740   46.7260 C   0  0  0  0  0  0  0  0  0  0  0  0
   52.4575   21.6928   47.7051 H   0  0  0  0  0  0  0  0  0  0  0  0
   57.2880   24.3250   44.1310 C   0  0  0  0  0  0  0  0  0  0  0  0
   57.4633   23.6623   43.2707 H   0  0  0  0  0  0  0  0  0  0  0  0
   57.6050   25.6840   44.0400 C   0  0  0  0  0  0  0  0  0  0  0  0
   58.0188   26.0868   43.1038 H   0  0  0  0  0  0  0  0  0  0  0  0
   57.2500   30.7030   43.0540 C   0  0  0  0  0  0  0  0  0  0  0  0
   56.9920   29.9855   42.2612 H   0  0  0  0  0  0  0  0  0  0  0  0
   57.6610   31.9950   42.7260 C   0  0  0  0  0  0  0  0  0  0  0  0
   57.7281   32.2997   41.6712 H   0  0  0  0  0  0  0  0  0  0  0  0
  1  2  1  0
  2  3  2  0
  3  4  1  0
  4  5  2  0
  4  6  1  0
  6  7  1  0
  7  8  2  0
  8  9  1  0
  8 10  1  0
 10 11  1  0
 10 12  2  0
 12 13  1  0
 12 14  1  0
 14 15  1  0
 14 16  2  0
 16 17  1  0
  3 18  1  0
 18 19  2  0
 19 20  1  0
 20 21  2  0
 20 22  1  0
 22 23  1  0
 22 24  1  0
 24 25  2  0
 25 26  1  0
 25 27  1  0
 27 28  1  0
 27 29  2  0
 29 30  1  0
 30 31  2  0
 30 32  2  0
 30 33  1  0
 33 34  2  0
 34 35  1  0
 35 36  1  0
 36 37  1  0
 37 38  1  0
 38 39  1  0
 38 40  1  0
 38 41  1  0
 37 42  2  0
 42 43  1  0
 29 44  1  0
 44 45  1  0
 44 46  2  0
 46 47  1  0
 19 48  1  0
 48 49  1  0
 48 50  2  0
 50 51  1  0
 50  2  1  0
 16  7  1  0
 46 24  1  0
 42 34  1  0
M  CHG  2   6  -1  35  -1
M  END
>  <UniqueID>  (39) 
37

>  <SMILES>  (39) 
Cc1c/c(=N/S(=O)(=O)c2ccc(NC(=O)c3cccc(C(=O)[N-]c4ccccc4)n3)cc2)[n-]o1

>  <Energy>  (39) 
96.68992721993982

>  <Genealogy>  (39) 
Cc1cc(=NS(=O)(=O)c2ccc(NC(=O)c3cccc(C(=O)[N-]c4ccccc4)n3)cc2)[n-]o1 (protonated)
Cc1c/c(=N/S(=O)(=O)c2ccc(NC(=O)c3cccc(C(=O)[N-]c4ccccc4)n3)cc2)[n-]o1 (cis-trans isomerization)
Cc1c/c(=N/S(=O)(=O)c2ccc(NC(=O)c3cccc(C(=O)[N-]c4ccccc4)n3)cc2)[n-]o1 (3D coordinates assigned)
Cc1c/c(=N/S(=O)(=O)c2ccc(NC(=O)c3cccc(C(=O)[N-]c4ccccc4)n3)cc2)[n-]o1 (optimized conformer: 96.68992721993982 kcal/mol)

>  <smiles>  (39) 
Cc1cc(=NS(=O)(=O)c2ccc(NC(=O)c3cccc(C(=O)Nc4ccccc4)n3)cc2)[nH]o1

>  <score_type>  (39) 
oracle

>  <origin>  (39) 
adg

>  <m_score__min__energy>  (39) 
-12.99

>  <m_primary>  (39) 
energy

$$$$
39:0
     RDKit          3D

 52 54  0  0  0  0  0  0  0  0999 V2000
   58.2770   28.1620   55.1220 C   0  0  0  0  0  0  0  0  0  0  0  0
   57.3060   28.3700   54.1020 O   0  0  0  0  0  0  0  0  0  0  0  0
   57.4310   29.3130   53.0690 C   0  0  0  0  0  0  0  0  0  0  0  0
   56.4220   30.2700   52.9130 C   0  0  0  0  0  0  0  0  0  0  0  0
   56.5090   31.2360   51.9070 C   0  0  0  0  0  0  0  0  0  0  0  0
   57.6090   31.2530   51.0290 C   0  0  0  0  0  0  0  0  0  0  0  0
   57.7790   32.2850   50.0380 N   0  0  0  0  0  0  0  0  0  0  0  0
   59.0430   32.7700   49.5540 C   0  0  0  0  0  0  0  0  0  0  0  0
   60.0720   32.6970   50.2800 O   0  0  0  0  0  0  0  0  0  0  0  0
   59.1250   33.3920   48.2160 C   0  0  0  0  0  0  0  0  0  0  0  0
   60.2180   34.1750   47.8280 C   0  0  0  0  0  0  0  0  0  0  0  0
   60.2460   34.7080   46.5420 C   0  0  0  0  0  0  0  0  0  0  0  0
   59.1910   34.4500   45.6650 C   0  0  0  0  0  0  0  0  0  0  0  0
   59.2210   34.9330   44.5010 O   0  0  0  0  0  0  0  0  0  0  0  0
   58.1410   33.6720   46.0800 N   0  0  0  0  0  0  0  0  0  0  0  0
   57.0110   33.3360   45.2000 C   0  0  0  0  0  0  0  0  0  0  0  0
   57.0130   31.8640   44.9200 C   0  0  0  0  0  0  0  0  0  0  0  0
   55.9660   31.2950   44.5080 O   0  0  0  0  0  0  0  0  0  0  0  0
   58.2380   31.1310   45.0270 N   0  0  0  0  0  0  0  0  0  0  0  0
   58.4170   29.9380   45.8050 C   0  0  0  0  0  0  0  0  0  0  0  0
   59.4820   29.8760   46.7080 C   0  0  0  0  0  0  0  0  0  0  0  0
   59.7470   28.7000   47.4100 C   0  0  0  0  0  0  0  0  0  0  0  0
   58.9640   27.5510   47.2070 C   0  0  0  0  0  0  0  0  0  0  0  0
   59.2950   26.2980   47.9710 C   0  0  0  0  0  0  0  0  0  0  0  0
   57.8690   27.6100   46.3080 C   0  0  0  0  0  0  0  0  0  0  0  0
   56.8240   26.2110   46.0050 S   0  0  0  0  0  0  0  0  0  0  0  0
   55.1680   26.7020   46.0660 N   0  0  0  0  0  0  0  0  0  0  0  0
   57.1260   25.6200   44.6570 O   0  0  0  0  0  0  0  0  0  0  0  0
   57.0560   25.1530   47.0480 O   0  0  0  0  0  0  0  0  0  0  0  0
   57.6190   28.7990   45.6030 C   0  0  0  0  0  0  0  0  0  0  0  0
   58.1240   33.1820   47.3240 N   0  0  0  0  0  0  0  0  0  0  0  0
   58.6170   30.2880   51.1840 C   0  0  0  0  0  0  0  0  0  0  0  0
   58.5330   29.3250   52.1920 C   0  0  0  0  0  0  0  0  0  0  0  0
   57.8005   28.2641   56.1082 H   0  0  0  0  0  0  0  0  0  0  0  0
   58.7023   27.1524   55.0230 H   0  0  0  0  0  0  0  0  0  0  0  0
   59.0785   28.9088   55.0230 H   0  0  0  0  0  0  0  0  0  0  0  0
   55.5533   30.2618   53.5878 H   0  0  0  0  0  0  0  0  0  0  0  0
   55.7130   31.9877   51.8006 H   0  0  0  0  0  0  0  0  0  0  0  0
   56.9110   32.7000   49.6290 H   0  0  0  0  0  0  0  0  0  0  0  0
   61.0435   34.3667   48.5292 H   0  0  0  0  0  0  0  0  0  0  0  0
   61.0946   35.3289   46.2189 H   0  0  0  0  0  0  0  0  0  0  0  0
   56.0677   33.6137   45.6931 H   0  0  0  0  0  0  0  0  0  0  0  0
   57.1080   33.8882   44.2536 H   0  0  0  0  0  0  0  0  0  0  0  0
   60.1158   30.7610   46.8663 H   0  0  0  0  0  0  0  0  0  0  0  0
   60.5779   28.6718   48.1303 H   0  0  0  0  0  0  0  0  0  0  0  0
   59.2412   26.5018   49.0506 H   0  0  0  0  0  0  0  0  0  0  0  0
   58.5746   25.5086   47.7105 H   0  0  0  0  0  0  0  0  0  0  0  0
   60.3113   25.9674   47.7105 H   0  0  0  0  0  0  0  0  0  0  0  0
   54.8200   26.7150   45.0810 H   0  0  0  0  0  0  0  0  0  0  0  0
   56.7879   28.8391   44.8835 H   0  0  0  0  0  0  0  0  0  0  0  0
   59.4819   30.2905   50.5044 H   0  0  0  0  0  0  0  0  0  0  0  0
   59.3294   28.5741   52.3012 H   0  0  0  0  0  0  0  0  0  0  0  0
  1  2  1  0
  2  3  1  0
  3  4  2  0
  4  5  1  0
  5  6  2  0
  6  7  1  0
  7  8  1  0
  8  9  2  0
  8 10  1  0
 10 11  1  0
 11 12  2  0
 12 13  1  0
 13 14  2  0
 13 15  1  0
 15 16  1  0
 16 17  1  0
 17 18  2  0
 17 19  1  0
 19 20  1  0
 20 21  2  0
 21 22  1  0
 22 23  2  0
 23 24  1  0
 23 25  1  0
 25 26  1  0
 26 27  1  0
 26 28  2  0
 26 29  2  0
 25 30  2  0
 15 31  1  0
  6 32  1  0
 32 33  2  0
 33  3  1  0
 31 10  2  0
 30 20  1  0
  1 34  1  0
  1 35  1  0
  1 36  1  0
  4 37  1  0
  5 38  1  0
  7 39  1  0
 11 40  1  0
 12 41  1  0
 16 42  1  0
 16 43  1  0
 21 44  1  0
 22 45  1  0
 24 46  1  0
 24 47  1  0
 24 48  1  0
 27 49  1  0
 30 50  1  0
 32 51  1  0
 33 52  1  0
M  CHG  2  19  -1  27  -1
M  END
>  <UniqueID>  (40) 
38

>  <SMILES>  (40) 
COc1ccc(NC(=O)c2ccc(=O)n(CC(=O)[N-]c3ccc(C)c(S([NH-])(=O)=O)c3)n2)cc1

>  <Energy>  (40) 
58.324561190393226

>  <Genealogy>  (40) 
COc1ccc(NC(=O)c2ccc(=O)n(CC(=O)[N-]c3ccc(C)c(S([NH-])(=O)=O)c3)n2)cc1 (protonated)
COc1ccc(NC(=O)c2ccc(=O)n(CC(=O)[N-]c3ccc(C)c(S([NH-])(=O)=O)c3)n2)cc1 (3D coordinates assigned)
COc1ccc(NC(=O)c2ccc(=O)n(CC(=O)[N-]c3ccc(C)c(S([NH-])(=O)=O)c3)n2)cc1 (optimized conformer: 58.324561190393226 kcal/mol)

>  <smiles>  (40) 
COc1ccc(NC(=O)c2ccc(=O)n(CC(=O)Nc3ccc(C)c(S(N)(=O)=O)c3)n2)cc1

>  <score_type>  (40) 
oracle

>  <origin>  (40) 
adg

>  <m_score__min__energy>  (40) 
-13.18

>  <m_primary>  (40) 
energy

$$$$
40:0
     RDKit          3D

 51 54  0  0  0  0  0  0  0  0999 V2000
   55.1430   28.6450   45.6310 H   0  0  0  0  0  0  0  0  0  0  0  0
   55.1510   29.3420   44.8530 N   0  0  0  0  0  0  0  0  0  0  0  0
   56.8040   29.7660   44.5720 S   0  0  0  0  0  0  0  0  0  0  0  0
   57.0960   31.1000   45.1970 O   0  0  0  0  0  0  0  0  0  0  0  0
   57.0190   29.8650   43.0870 O   0  0  0  0  0  0  0  0  0  0  0  0
   57.8810   28.5360   45.2580 C   0  0  0  0  0  0  0  0  0  0  0  0
   57.7630   27.2110   44.8110 C   0  0  0  0  0  0  0  0  0  0  0  0
   57.0375   26.9655   44.0215 H   0  0  0  0  0  0  0  0  0  0  0  0
   58.5570   26.2010   45.3580 C   0  0  0  0  0  0  0  0  0  0  0  0
   58.4555   25.1667   44.9977 H   0  0  0  0  0  0  0  0  0  0  0  0
   59.4790   26.5020   46.3610 C   0  0  0  0  0  0  0  0  0  0  0  0
   60.0980   25.7038   46.7965 H   0  0  0  0  0  0  0  0  0  0  0  0
   59.6160   27.8160   46.8120 C   0  0  0  0  0  0  0  0  0  0  0  0
   60.3425   28.0475   47.6048 H   0  0  0  0  0  0  0  0  0  0  0  0
   58.8340   28.8450   46.2620 C   0  0  0  0  0  0  0  0  0  0  0  0
   59.0400   30.2210   46.7550 C   0  0  0  0  0  0  0  0  0  0  0  0
   58.6250   30.5720   48.0470 C   0  0  0  0  0  0  0  0  0  0  0  0
   58.1360   29.8233   48.6876 H   0  0  0  0  0  0  0  0  0  0  0  0
   58.8300   31.8700   48.5250 C   0  0  0  0  0  0  0  0  0  0  0  0
   58.4854   32.1422   49.5335 H   0  0  0  0  0  0  0  0  0  0  0  0
   59.4740   32.8290   47.7240 C   0  0  0  0  0  0  0  0  0  0  0  0
   59.7190   34.2010   48.2260 C   0  0  0  0  0  0  0  0  0  0  0  0
   59.1160   35.1680   47.6910 O   0  0  0  0  0  0  0  0  0  0  0  0
   60.6130   34.4680   49.3160 N   0  0  0  0  0  0  0  0  0  0  0  0
   61.8900   33.8520   49.5400 C   0  0  0  0  0  0  0  0  0  0  0  0
   62.8360   33.9130   48.5090 C   0  0  0  0  0  0  0  0  0  0  0  0
   62.5653   34.3733   47.5473 H   0  0  0  0  0  0  0  0  0  0  0  0
   64.1190   33.3950   48.6910 C   0  0  0  0  0  0  0  0  0  0  0  0
   64.8563   33.4577   47.8771 H   0  0  0  0  0  0  0  0  0  0  0  0
   64.4690   32.7980   49.9020 C   0  0  0  0  0  0  0  0  0  0  0  0
   66.0860   32.1570   50.1310 Cl  0  0  0  0  0  0  0  0  0  0  0  0
   63.5240   32.6940   50.9270 C   0  0  0  0  0  0  0  0  0  0  0  0
   63.8038   32.2200   51.8794 H   0  0  0  0  0  0  0  0  0  0  0  0
   62.2200   33.1890   50.7530 C   0  0  0  0  0  0  0  0  0  0  0  0
   61.2320   32.9620   51.8350 C   0  0  0  0  0  0  0  0  0  0  0  0
   60.9480   33.9160   52.6070 O   0  0  0  0  0  0  0  0  0  0  0  0
   60.5610   31.7050   52.0210 N   0  0  0  0  0  0  0  0  0  0  0  0
   59.2760   31.4950   52.0030 C   0  0  0  0  0  0  0  0  0  0  0  0
   58.7640   30.2320   51.9890 N   0  0  0  0  0  0  0  0  0  0  0  0
   57.4260   29.9960   51.9800 C   0  0  0  0  0  0  0  0  0  0  0  0
   57.0499   28.9624   51.9641 H   0  0  0  0  0  0  0  0  0  0  0  0
   56.5280   31.0660   51.9910 C   0  0  0  0  0  0  0  0  0  0  0  0
   54.7990   30.7740   51.9780 Cl  0  0  0  0  0  0  0  0  0  0  0  0
   57.0240   32.3710   52.0160 C   0  0  0  0  0  0  0  0  0  0  0  0
   56.3298   33.2242   52.0278 H   0  0  0  0  0  0  0  0  0  0  0  0
   58.4040   32.5910   52.0260 C   0  0  0  0  0  0  0  0  0  0  0  0
   58.8021   33.6161   52.0517 H   0  0  0  0  0  0  0  0  0  0  0  0
   59.8820   32.4740   46.4270 C   0  0  0  0  0  0  0  0  0  0  0  0
   60.3665   33.2222   45.7824 H   0  0  0  0  0  0  0  0  0  0  0  0
   59.6760   31.1760   45.9510 C   0  0  0  0  0  0  0  0  0  0  0  0
   60.0147   30.9031   44.9407 H   0  0  0  0  0  0  0  0  0  0  0  0
  1  2  1  0
  2  3  1  0
  3  4  2  0
  3  5  2  0
  3  6  1  0
  6  7  2  0
  7  8  1  0
  7  9  1  0
  9 10  1  0
  9 11  2  0
 11 12  1  0
 11 13  1  0
 13 14  1  0
 13 15  2  0
 15 16  1  0
 16 17  2  0
 17 18  1  0
 17 19  1  0
 19 20  1  0
 19 21  2  0
 21 22  1  0
 22 23  2  0
 22 24  1  0
 24 25  1  0
 25 26  2  0
 26 27  1  0
 26 28  1  0
 28 29  1  0
 28 30  2  0
 30 31  1  0
 30 32  1  0
 32 33  1  0
 32 34  2  0
 34 35  1  0
 35 36  2  0
 35 37  1  0
 37 38  2  0
 38 39  1  0
 39 40  1  0
 40 41  1  0
 40 42  2  0
 42 43  1  0
 42 44  1  0
 44 45  1  0
 44 46  2  0
 46 47  1  0
 21 48  1  0
 48 49  1  0
 48 50  2  0
 50 51  1  0
 15  6  1  0
 50 16  1  0
 34 25  1  0
 46 38  1  0
M  CHG  3   2  -1  24  -1  39  -1
M  END
>  <UniqueID>  (41) 
39

>  <SMILES>  (41) 
[NH-]S(=O)(=O)c1ccccc1-c1ccc(C(=O)[N-]c2ccc(Cl)cc2C(=O)/N=c2/ccc(Cl)c[n-]2)cc1

>  <Energy>  (41) 
81.75008655982894

>  <Genealogy>  (41) 
[NH-]S(=O)(=O)c1ccccc1-c1ccc(C(=O)[N-]c2ccc(Cl)cc2C(=O)N=c2ccc(Cl)c[n-]2)cc1 (protonated)
[NH-]S(=O)(=O)c1ccccc1-c1ccc(C(=O)[N-]c2ccc(Cl)cc2C(=O)/N=c2/ccc(Cl)c[n-]2)cc1 (cis-trans isomerization)
[NH-]S(=O)(=O)c1ccccc1-c1ccc(C(=O)[N-]c2ccc(Cl)cc2C(=O)/N=c2/ccc(Cl)c[n-]2)cc1 (3D coordinates assigned)
[NH-]S(=O)(=O)c1ccccc1-c1ccc(C(=O)[N-]c2ccc(Cl)cc2C(=O)/N=c2/ccc(Cl)c[n-]2)cc1 (optimized conformer: 81.75008655982894 kcal/mol)

>  <smiles>  (41) 
NS(=O)(=O)c1ccccc1-c1ccc(C(=O)Nc2ccc(Cl)cc2C(=O)N=c2ccc(Cl)c[nH]2)cc1

>  <score_type>  (41) 
oracle

>  <origin>  (41) 
adg

>  <m_score__min__energy>  (41) 
-14.83

>  <m_primary>  (41) 
energy

$$$$
41:0
     RDKit          3D

 60 62  0  0  0  0  0  0  0  0999 V2000
   63.6620   33.1640   47.1640 C   0  0  0  0  0  0  0  0  0  0  0  0
   62.8530   31.9350   47.5770 C   0  0  0  0  0  0  0  0  0  0  0  0
   61.6500   32.2790   48.3790 N   0  0  0  0  0  0  0  0  0  0  0  0
   61.7520   33.6520   48.9360 C   0  0  0  0  0  0  0  0  0  0  0  0
   60.4090   34.3900   48.9420 C   0  0  0  0  0  0  0  0  0  0  0  0
   61.3690   31.2880   49.4530 C   0  0  0  0  0  0  0  0  0  0  0  0
   60.2120   30.3740   49.1460 C   0  0  0  0  0  0  0  0  0  0  0  0
   59.6080   29.8010   50.0920 O   0  0  0  0  0  0  0  0  0  0  0  0
   59.8200   30.1660   47.7810 N   0  0  0  0  0  0  0  0  0  0  0  0
   59.1090   30.9650   47.0360 C   0  0  0  0  0  0  0  0  0  0  0  0
   59.1240   32.3090   47.2430 N   0  0  0  0  0  0  0  0  0  0  0  0
   58.4050   33.1710   46.4840 C   0  0  0  0  0  0  0  0  0  0  0  0
   57.6080   32.6910   45.4500 C   0  0  0  0  0  0  0  0  0  0  0  0
   57.5530   31.3100   45.2020 C   0  0  0  0  0  0  0  0  0  0  0  0
   56.7300   30.7730   44.1970 O   0  0  0  0  0  0  0  0  0  0  0  0
   57.0150   30.8270   42.8040 C   0  0  0  0  0  0  0  0  0  0  0  0
   58.3230   30.4340   45.9930 C   0  0  0  0  0  0  0  0  0  0  0  0
   58.2460   28.9740   45.7580 C   0  0  0  0  0  0  0  0  0  0  0  0
   59.3460   28.2720   45.2400 C   0  0  0  0  0  0  0  0  0  0  0  0
   59.2380   26.9060   44.9620 C   0  0  0  0  0  0  0  0  0  0  0  0
   58.0230   26.2430   45.1610 C   0  0  0  0  0  0  0  0  0  0  0  0
   56.9100   26.9450   45.6370 C   0  0  0  0  0  0  0  0  0  0  0  0
   55.6500   26.2750   45.7550 N   0  0  0  0  0  0  0  0  0  0  0  0
   55.4860   24.6300   46.2900 S   0  0  0  0  0  0  0  0  0  0  0  0
   54.0250   24.2770   46.3500 O   0  0  0  0  0  0  0  0  0  0  0  0
   56.0590   24.5140   47.6760 O   0  0  0  0  0  0  0  0  0  0  0  0
   56.3300   23.5020   45.2170 C   0  0  0  0  0  0  0  0  0  0  0  0
   57.6080   23.0280   45.5640 C   0  0  0  0  0  0  0  0  0  0  0  0
   58.1740   23.3740   46.7450 F   0  0  0  0  0  0  0  0  0  0  0  0
   58.3280   22.2240   44.6760 C   0  0  0  0  0  0  0  0  0  0  0  0
   57.7850   21.8910   43.4350 C   0  0  0  0  0  0  0  0  0  0  0  0
   56.5170   22.3540   43.0820 C   0  0  0  0  0  0  0  0  0  0  0  0
   55.7870   23.1540   43.9670 C   0  0  0  0  0  0  0  0  0  0  0  0
   54.5780   23.6290   43.5750 F   0  0  0  0  0  0  0  0  0  0  0  0
   57.0450   28.2940   45.9910 C   0  0  0  0  0  0  0  0  0  0  0  0
   64.0102   33.6930   48.0634 H   0  0  0  0  0  0  0  0  0  0  0  0
   64.5293   32.8480   46.5657 H   0  0  0  0  0  0  0  0  0  0  0  0
   63.0289   33.8356   46.5657 H   0  0  0  0  0  0  0  0  0  0  0  0
   62.5299   31.4056   46.6685 H   0  0  0  0  0  0  0  0  0  0  0  0
   63.5018   31.3081   48.2063 H   0  0  0  0  0  0  0  0  0  0  0  0
   60.8210   32.2520   47.7400 H   0  0  0  0  0  0  0  0  0  0  0  0
   62.1215   33.5856   49.9700 H   0  0  0  0  0  0  0  0  0  0  0  0
   62.4402   34.2206   48.2933 H   0  0  0  0  0  0  0  0  0  0  0  0
   60.0912   34.5646   49.9805 H   0  0  0  0  0  0  0  0  0  0  0  0
   60.5184   35.3547   48.4249 H   0  0  0  0  0  0  0  0  0  0  0  0
   59.6533   33.7804   48.4249 H   0  0  0  0  0  0  0  0  0  0  0  0
   62.2683   30.6721   49.6011 H   0  0  0  0  0  0  0  0  0  0  0  0
   61.0978   31.8584   50.3536 H   0  0  0  0  0  0  0  0  0  0  0  0
   58.4516   34.2513   46.6857 H   0  0  0  0  0  0  0  0  0  0  0  0
   57.0248   33.3885   44.8308 H   0  0  0  0  0  0  0  0  0  0  0  0
   58.0860   31.0299   42.6565 H   0  0  0  0  0  0  0  0  0  0  0  0
   56.7569   29.8640   42.3393 H   0  0  0  0  0  0  0  0  0  0  0  0
   56.4225   31.6289   42.3393 H   0  0  0  0  0  0  0  0  0  0  0  0
   60.2941   28.7974   45.0526 H   0  0  0  0  0  0  0  0  0  0  0  0
   60.1106   26.3517   44.5860 H   0  0  0  0  0  0  0  0  0  0  0  0
   57.9420   25.1679   44.9430 H   0  0  0  0  0  0  0  0  0  0  0  0
   59.3249   21.8530   44.9563 H   0  0  0  0  0  0  0  0  0  0  0  0
   58.3562   21.2636   42.7349 H   0  0  0  0  0  0  0  0  0  0  0  0
   56.0897   22.0887   42.1037 H   0  0  0  0  0  0  0  0  0  0  0  0
   56.2000   28.8230   46.4559 H   0  0  0  0  0  0  0  0  0  0  0  0
  1  2  1  0
  2  3  1  0
  3  4  1  0
  4  5  1  0
  3  6  1  0
  6  7  1  0
  7  8  2  0
  7  9  1  0
  9 10  2  3
 10 11  1  0
 11 12  1  0
 12 13  2  0
 13 14  1  0
 14 15  1  0
 15 16  1  0
 14 17  2  0
 17 18  1  0
 18 19  2  0
 19 20  1  0
 20 21  2  0
 21 22  1  0
 22 23  1  0
 23 24  1  0
 24 25  2  0
 24 26  2  0
 24 27  1  0
 27 28  2  0
 28 29  1  0
 28 30  1  0
 30 31  2  0
 31 32  1  0
 32 33  2  0
 33 34  1  0
 22 35  2  0
 17 10  1  0
 35 18  1  0
 33 27  1  0
  1 36  1  0
  1 37  1  0
  1 38  1  0
  2 39  1  0
  2 40  1  0
  3 41  1  0
  4 42  1  0
  4 43  1  0
  5 44  1  0
  5 45  1  0
  5 46  1  0
  6 47  1  0
  6 48  1  0
 12 49  1  0
 13 50  1  0
 16 51  1  0
 16 52  1  0
 16 53  1  0
 19 54  1  0
 20 55  1  0
 21 56  1  0
 30 57  1  0
 31 58  1  0
 32 59  1  0
 35 60  1  0
M  CHG  3   3   1  11  -1  23  -1
M  END
>  <UniqueID>  (42) 
40

>  <SMILES>  (42) 
CC[NH+](CC)CC(=O)N=c1[n-]ccc(OC)c1-c1cccc([N-]S(=O)(=O)c2c(F)cccc2F)c1

>  <Energy>  (42) 
78.42452168668557

>  <Genealogy>  (42) 
CC[NH+](CC)CC(=O)N=c1[n-]ccc(OC)c1-c1cccc([N-]S(=O)(=O)c2c(F)cccc2F)c1 (protonated)
CC[NH+](CC)CC(=O)N=c1[n-]ccc(OC)c1-c1cccc([N-]S(=O)(=O)c2c(F)cccc2F)c1 (3D coordinates assigned)
CC[NH+](CC)CC(=O)N=c1[n-]ccc(OC)c1-c1cccc([N-]S(=O)(=O)c2c(F)cccc2F)c1 (optimized conformer: 78.42452168668557 kcal/mol)

>  <smiles>  (42) 
CCN(CC)CC(=O)N=c1[nH]ccc(OC)c1-c1cccc(NS(=O)(=O)c2c(F)cccc2F)c1

>  <score_type>  (42) 
oracle

>  <origin>  (42) 
adg

>  <m_score__min__energy>  (42) 
-10.199999999999999

>  <m_primary>  (42) 
energy

$$$$
42:0
     RDKit          3D

 47 50  0  0  0  0  0  0  0  0999 V2000
   65.4730   30.1840   51.3240 H   0  0  0  0  0  0  0  0  0  0  0  0
   66.1640   30.8700   50.9470 N   0  0  0  0  0  0  0  0  0  0  0  0
   65.7350   32.0750   50.3140 C   0  0  0  0  0  0  0  0  0  0  0  0
   66.4860   33.0860   50.3650 O   0  0  0  0  0  0  0  0  0  0  0  0
   64.4190   32.1360   49.6160 C   0  0  0  0  0  0  0  0  0  0  0  0
   64.2720   32.9710   48.5090 C   0  0  0  0  0  0  0  0  0  0  0  0
   65.1383   33.5259   48.1197 H   0  0  0  0  0  0  0  0  0  0  0  0
   63.0320   33.1020   47.8980 C   0  0  0  0  0  0  0  0  0  0  0  0
   62.8340   34.0290   46.8700 C   0  0  0  0  0  0  0  0  0  0  0  0
   63.6799   34.6227   46.4932 H   0  0  0  0  0  0  0  0  0  0  0  0
   61.5970   34.1950   46.3380 N   0  0  0  0  0  0  0  0  0  0  0  0
   60.5410   33.4650   46.7830 C   0  0  0  0  0  0  0  0  0  0  0  0
   59.3450   33.6420   46.3020 N   0  0  0  0  0  0  0  0  0  0  0  0
   58.7030   32.8640   45.2780 C   0  0  0  0  0  0  0  0  0  0  0  0
   58.5440   33.4280   44.0060 C   0  0  0  0  0  0  0  0  0  0  0  0
   58.9249   34.4402   43.8052 H   0  0  0  0  0  0  0  0  0  0  0  0
   57.9040   32.7120   42.9900 C   0  0  0  0  0  0  0  0  0  0  0  0
   57.7996   33.1547   41.9885 H   0  0  0  0  0  0  0  0  0  0  0  0
   57.3970   31.4360   43.2440 C   0  0  0  0  0  0  0  0  0  0  0  0
   56.9063   30.8700   42.4385 H   0  0  0  0  0  0  0  0  0  0  0  0
   57.5120   30.8750   44.5230 C   0  0  0  0  0  0  0  0  0  0  0  0
   56.8620   29.2730   44.8580 S   0  0  0  0  0  0  0  0  0  0  0  0
   57.2810   28.8230   46.2300 O   0  0  0  0  0  0  0  0  0  0  0  0
   57.3880   28.2920   43.8470 O   0  0  0  0  0  0  0  0  0  0  0  0
   55.1370   29.3220   44.7760 N   0  0  0  0  0  0  0  0  0  0  0  0
   54.7860   29.3770   45.7590 H   0  0  0  0  0  0  0  0  0  0  0  0
   58.1590   31.5910   45.5390 C   0  0  0  0  0  0  0  0  0  0  0  0
   58.2426   31.1566   46.5461 H   0  0  0  0  0  0  0  0  0  0  0  0
   60.7260   32.5580   47.7760 N   0  0  0  0  0  0  0  0  0  0  0  0
   61.9430   32.3230   48.3390 C   0  0  0  0  0  0  0  0  0  0  0  0
   62.1120   31.3770   49.3400 N   0  0  0  0  0  0  0  0  0  0  0  0
   61.0190   30.4390   49.7830 C   0  0  0  0  0  0  0  0  0  0  0  0
   61.5416   29.8974   50.5852 H   0  0  0  0  0  0  0  0  0  0  0  0
   59.7310   31.0900   50.3110 C   0  0  0  0  0  0  0  0  0  0  0  0
   59.8432   31.3562   51.3724 H   0  0  0  0  0  0  0  0  0  0  0  0
   59.4933   32.0171   49.7688 H   0  0  0  0  0  0  0  0  0  0  0  0
   58.6450   30.0490   50.1400 C   0  0  0  0  0  0  0  0  0  0  0  0
   58.6280   29.3646   51.0010 H   0  0  0  0  0  0  0  0  0  0  0  0
   57.6458   30.5045   50.0765 H   0  0  0  0  0  0  0  0  0  0  0  0
   59.0070   29.3000   48.8730 C   0  0  0  0  0  0  0  0  0  0  0  0
   58.8140   28.2244   48.9989 H   0  0  0  0  0  0  0  0  0  0  0  0
   58.4056   29.6468   48.0198 H   0  0  0  0  0  0  0  0  0  0  0  0
   60.4960   29.5450   48.6360 C   0  0  0  0  0  0  0  0  0  0  0  0
   61.0365   28.5870   48.6328 H   0  0  0  0  0  0  0  0  0  0  0  0
   60.6535   30.0368   47.6647 H   0  0  0  0  0  0  0  0  0  0  0  0
   63.3000   31.3860   50.0540 C   0  0  0  0  0  0  0  0  0  0  0  0
   63.3940   30.7400   51.1330 O   0  0  0  0  0  0  0  0  0  0  0  0
  1  2  1  0
  2  3  1  0
  3  4  2  0
  3  5  1  0
  5  6  2  0
  6  7  1  0
  6  8  1  0
  8  9  2  0
  9 10  1  0
  9 11  1  0
 11 12  1  0
 12 13  2  0
 13 14  1  0
 14 15  2  0
 15 16  1  0
 15 17  1  0
 17 18  1  0
 17 19  2  0
 19 20  1  0
 19 21  1  0
 21 22  1  0
 22 23  2  0
 22 24  2  0
 22 25  1  0
 25 26  1  0
 21 27  2  0
 27 28  1  0
 12 29  1  0
 29 30  2  0
 30 31  1  0
 31 32  1  0
 32 33  1  0
 32 34  1  0
 34 35  1  0
 34 36  1  0
 34 37  1  0
 37 38  1  0
 37 39  1  0
 37 40  1  0
 40 41  1  0
 40 42  1  0
 40 43  1  0
 43 44  1  0
 43 45  1  0
 31 46  1  0
 46 47  2  0
 46  5  1  0
 30  8  1  0
 43 32  1  0
 27 14  1  0
M  CHG  3   2  -1  11  -1  25  -1
M  END
>  <UniqueID>  (43) 
41

>  <SMILES>  (43) 
[NH-]C(=O)c1cc2c[n-]/c(=N\c3cccc(S([NH-])(=O)=O)c3)nc2n(C2CCCC2)c1=O

>  <Energy>  (43) 
80.36913692436353

>  <Genealogy>  (43) 
[NH-]C(=O)c1cc2c[n-]c(=Nc3cccc(S([NH-])(=O)=O)c3)nc2n(C2CCCC2)c1=O (protonated)
[NH-]C(=O)c1cc2c[n-]/c(=N\c3cccc(S([NH-])(=O)=O)c3)nc2n(C2CCCC2)c1=O (cis-trans isomerization)
[NH-]C(=O)c1cc2c[n-]/c(=N\c3cccc(S([NH-])(=O)=O)c3)nc2n(C2CCCC2)c1=O (3D coordinates assigned)
[NH-]C(=O)c1cc2c[n-]/c(=N\c3cccc(S([NH-])(=O)=O)c3)nc2n(C2CCCC2)c1=O (nonaromatic ring conformer: 80.36913692436353 kcal/mol)

>  <smiles>  (43) 
NC(=O)c1cc2c[nH]c(=Nc3cccc(S(N)(=O)=O)c3)nc2n(C2CCCC2)c1=O

>  <score_type>  (43) 
oracle

>  <origin>  (43) 
adg

>  <m_score__min__energy>  (43) 
-13.93

>  <m_primary>  (43) 
energy

$$$$
43:0
     RDKit          3D

 53 55  0  0  0  0  0  0  0  0999 V2000
   59.6260   30.2600   51.3540 C   0  0  0  0  0  0  0  0  0  0  0  0
   60.1170   30.0600   49.9880 N   0  0  0  0  0  0  0  0  0  0  0  0
   61.0570   28.9710   49.6860 C   0  0  0  0  0  0  0  0  0  0  0  0
   60.3240   27.7560   49.2050 C   0  0  0  0  0  0  0  0  0  0  0  0
   60.6410   26.6220   49.6560 O   0  0  0  0  0  0  0  0  0  0  0  0
   59.2780   27.8920   48.2330 N   0  0  0  0  0  0  0  0  0  0  0  0
   58.7820   26.8730   47.3550 C   0  0  0  0  0  0  0  0  0  0  0  0
   57.4330   26.7980   46.9820 C   0  0  0  0  0  0  0  0  0  0  0  0
   56.9950   25.8030   46.1040 C   0  0  0  0  0  0  0  0  0  0  0  0
   57.8970   24.8590   45.5580 C   0  0  0  0  0  0  0  0  0  0  0  0
   57.4410   23.8170   44.6400 N   0  0  0  0  0  0  0  0  0  0  0  0
   56.3020   24.0940   43.7380 C   0  0  0  0  0  0  0  0  0  0  0  0
   55.9890   22.9450   42.7770 C   0  0  0  0  0  0  0  0  0  0  0  0
   56.1370   21.7010   43.4160 O   0  0  0  0  0  0  0  0  0  0  0  0
   57.5070   21.4910   43.6680 C   0  0  0  0  0  0  0  0  0  0  0  0
   58.0250   22.4610   44.7350 C   0  0  0  0  0  0  0  0  0  0  0  0
   59.2570   24.9630   45.9350 C   0  0  0  0  0  0  0  0  0  0  0  0
   59.6890   25.9610   46.8110 C   0  0  0  0  0  0  0  0  0  0  0  0
   59.6280   30.9140   48.9370 C   0  0  0  0  0  0  0  0  0  0  0  0
   58.5730   31.5850   49.1090 O   0  0  0  0  0  0  0  0  0  0  0  0
   60.3050   30.9600   47.7090 O   0  0  0  0  0  0  0  0  0  0  0  0
   59.9410   30.2530   46.5540 C   0  0  0  0  0  0  0  0  0  0  0  0
   60.8000   29.3230   45.9390 C   0  0  0  0  0  0  0  0  0  0  0  0
   60.3880   28.6340   44.7960 C   0  0  0  0  0  0  0  0  0  0  0  0
   59.1130   28.8520   44.2670 C   0  0  0  0  0  0  0  0  0  0  0  0
   58.2370   29.7520   44.8880 C   0  0  0  0  0  0  0  0  0  0  0  0
   56.6250   30.0110   44.2300 S   0  0  0  0  0  0  0  0  0  0  0  0
   55.5240   28.8790   44.9300 N   0  0  0  0  0  0  0  0  0  0  0  0
   56.1710   31.4110   44.5380 O   0  0  0  0  0  0  0  0  0  0  0  0
   56.6470   29.8290   42.7380 O   0  0  0  0  0  0  0  0  0  0  0  0
   58.6580   30.4510   46.0290 C   0  0  0  0  0  0  0  0  0  0  0  0
   60.3985   29.9453   52.0711 H   0  0  0  0  0  0  0  0  0  0  0  0
   59.3942   31.3242   51.5082 H   0  0  0  0  0  0  0  0  0  0  0  0
   58.7166   29.6606   51.5082 H   0  0  0  0  0  0  0  0  0  0  0  0
   61.7560   29.3038   48.9046 H   0  0  0  0  0  0  0  0  0  0  0  0
   61.6052   28.7126   50.6040 H   0  0  0  0  0  0  0  0  0  0  0  0
   56.7140   27.5275   47.3832 H   0  0  0  0  0  0  0  0  0  0  0  0
   55.9302   25.7526   45.8324 H   0  0  0  0  0  0  0  0  0  0  0  0
   55.4102   24.2862   44.3527 H   0  0  0  0  0  0  0  0  0  0  0  0
   56.5809   24.9624   43.1231 H   0  0  0  0  0  0  0  0  0  0  0  0
   54.9532   23.0457   42.4207 H   0  0  0  0  0  0  0  0  0  0  0  0
   56.6924   22.9919   41.9326 H   0  0  0  0  0  0  0  0  0  0  0  0
   57.6540   20.4588   44.0187 H   0  0  0  0  0  0  0  0  0  0  0  0
   58.0650   21.6651   42.7362 H   0  0  0  0  0  0  0  0  0  0  0  0
   57.7846   22.0480   45.7258 H   0  0  0  0  0  0  0  0  0  0  0  0
   59.1083   22.5657   44.5754 H   0  0  0  0  0  0  0  0  0  0  0  0
   59.9863   24.2454   45.5311 H   0  0  0  0  0  0  0  0  0  0  0  0
   60.7546   26.0295   47.0753 H   0  0  0  0  0  0  0  0  0  0  0  0
   61.7993   29.1381   46.3600 H   0  0  0  0  0  0  0  0  0  0  0  0
   61.0684   27.9184   44.3113 H   0  0  0  0  0  0  0  0  0  0  0  0
   58.7963   28.3155   43.3605 H   0  0  0  0  0  0  0  0  0  0  0  0
   54.6020   29.3620   45.0130 H   0  0  0  0  0  0  0  0  0  0  0  0
   57.9738   31.1614   46.5160 H   0  0  0  0  0  0  0  0  0  0  0  0
  1  2  1  0
  2  3  1  0
  3  4  1  0
  4  5  2  0
  4  6  1  0
  6  7  1  0
  7  8  2  0
  8  9  1  0
  9 10  2  0
 10 11  1  0
 11 12  1  0
 12 13  1  0
 13 14  1  0
 14 15  1  0
 15 16  1  0
 10 17  1  0
 17 18  2  0
  2 19  1  0
 19 20  2  0
 19 21  1  0
 21 22  1  0
 22 23  2  0
 23 24  1  0
 24 25  2  0
 25 26  1  0
 26 27  1  0
 27 28  1  0
 27 29  2  0
 27 30  2  0
 26 31  2  0
 18  7  1  0
 31 22  1  0
 16 11  1  0
  1 32  1  0
  1 33  1  0
  1 34  1  0
  3 35  1  0
  3 36  1  0
  8 37  1  0
  9 38  1  0
 12 39  1  0
 12 40  1  0
 13 41  1  0
 13 42  1  0
 15 43  1  0
 15 44  1  0
 16 45  1  0
 16 46  1  0
 17 47  1  0
 18 48  1  0
 23 49  1  0
 24 50  1  0
 25 51  1  0
 28 52  1  0
 31 53  1  0
M  CHG  2   6  -1  28  -1
M  END
>  <UniqueID>  (44) 
42

>  <SMILES>  (44) 
CN(CC(=O)[N-]c1ccc(N2CCOCC2)cc1)C(=O)Oc1cccc(S([NH-])(=O)=O)c1

>  <Energy>  (44) 
65.94588987809631

>  <Genealogy>  (44) 
CN(CC(=O)[N-]c1ccc(N2CCOCC2)cc1)C(=O)Oc1cccc(S([NH-])(=O)=O)c1 (protonated)
CN(CC(=O)[N-]c1ccc(N2CCOCC2)cc1)C(=O)Oc1cccc(S([NH-])(=O)=O)c1 (3D coordinates assigned)
CN(CC(=O)[N-]c1ccc(N2CCOCC2)cc1)C(=O)Oc1cccc(S([NH-])(=O)=O)c1 (nonaromatic ring conformer: 65.94588987809631 kcal/mol)

>  <smiles>  (44) 
CN(CC(=O)Nc1ccc(N2CCOCC2)cc1)C(=O)Oc1cccc(S(N)(=O)=O)c1

>  <score_type>  (44) 
oracle

>  <origin>  (44) 
adg

>  <m_score__min__energy>  (44) 
-13

>  <m_primary>  (44) 
energy

$$$$
44:0
     RDKit          3D

 64 66  0  0  0  0  0  0  0  0999 V2000
   60.5050   28.8900   45.3890 C   0  0  0  0  0  0  0  0  0  0  0  0
   60.2680   27.9430   46.5670 C   0  0  0  0  0  0  0  0  0  0  0  0
   59.2640   28.5040   47.5860 C   0  0  0  0  0  0  0  0  0  0  0  0
   59.8750   28.7930   48.9700 C   0  0  0  0  0  0  0  0  0  0  0  0
   59.7440   30.2200   49.3470 N   0  0  0  0  0  0  0  0  0  0  0  0
   60.5460   31.1890   48.7750 C   0  0  0  0  0  0  0  0  0  0  0  0
   61.5780   30.8470   47.8310 N   0  0  0  0  0  0  0  0  0  0  0  0
   60.3820   32.5430   49.1460 C   0  0  0  0  0  0  0  0  0  0  0  0
   61.1360   33.5950   48.5040 N   0  0  0  0  0  0  0  0  0  0  0  0
   61.9410   34.5030   49.3330 C   0  0  0  0  0  0  0  0  0  0  0  0
   63.0890   33.7450   50.0170 C   0  0  0  0  0  0  0  0  0  0  0  0
   64.0610   33.1350   48.9960 C   0  0  0  0  0  0  0  0  0  0  0  0
   64.7300   31.9340   49.5460 N   0  0  0  0  0  0  0  0  0  0  0  0
   63.8420   31.2450   50.4940 C   0  0  0  0  0  0  0  0  0  0  0  0
   65.9890   32.2900   50.2220 C   0  0  0  0  0  0  0  0  0  0  0  0
   61.2650   33.6240   47.0640 C   0  0  0  0  0  0  0  0  0  0  0  0
   62.4110   33.5780   46.5370 O   0  0  0  0  0  0  0  0  0  0  0  0
   60.0790   33.6670   46.1810 C   0  0  0  0  0  0  0  0  0  0  0  0
   59.5960   34.8890   45.6900 C   0  0  0  0  0  0  0  0  0  0  0  0
   58.4690   34.9210   44.8710 C   0  0  0  0  0  0  0  0  0  0  0  0
   57.8130   33.7360   44.5300 C   0  0  0  0  0  0  0  0  0  0  0  0
   58.2880   32.4970   45.0000 C   0  0  0  0  0  0  0  0  0  0  0  0
   57.6100   31.2710   44.6510 N   0  0  0  0  0  0  0  0  0  0  0  0
   57.0190   30.9860   43.4710 C   0  0  0  0  0  0  0  0  0  0  0  0
   56.4650   29.7240   43.5120 C   0  0  0  0  0  0  0  0  0  0  0  0
   56.7320   29.2190   44.7680 C   0  0  0  0  0  0  0  0  0  0  0  0
   57.4360   30.1940   45.4450 C   0  0  0  0  0  0  0  0  0  0  0  0
   59.4310   32.4750   45.8220 C   0  0  0  0  0  0  0  0  0  0  0  0
   59.4390   32.8560   50.1280 C   0  0  0  0  0  0  0  0  0  0  0  0
   59.2640   34.0460   50.4980 O   0  0  0  0  0  0  0  0  0  0  0  0
   58.6880   31.8760   50.6750 N   0  0  0  0  0  0  0  0  0  0  0  0
   58.8180   30.5820   50.2990 C   0  0  0  0  0  0  0  0  0  0  0  0
   58.0760   29.7210   50.8450 O   0  0  0  0  0  0  0  0  0  0  0  0
   60.7557   29.8916   45.7684 H   0  0  0  0  0  0  0  0  0  0  0  0
   61.3361   28.5116   44.7758 H   0  0  0  0  0  0  0  0  0  0  0  0
   59.5936   28.9477   44.7758 H   0  0  0  0  0  0  0  0  0  0  0  0
   59.8804   26.9893   46.1794 H   0  0  0  0  0  0  0  0  0  0  0  0
   61.2290   27.8107   47.0856 H   0  0  0  0  0  0  0  0  0  0  0  0
   58.8526   29.4426   47.1862 H   0  0  0  0  0  0  0  0  0  0  0  0
   58.4929   27.7332   47.7320 H   0  0  0  0  0  0  0  0  0  0  0  0
   59.3585   28.1781   49.7218 H   0  0  0  0  0  0  0  0  0  0  0  0
   60.9469   28.5500   48.9259 H   0  0  0  0  0  0  0  0  0  0  0  0
   62.1810   31.5820   47.4000 H   0  0  0  0  0  0  0  0  0  0  0  0
   61.8060   29.8680   47.5580 H   0  0  0  0  0  0  0  0  0  0  0  0
   62.3612   35.2954   48.6961 H   0  0  0  0  0  0  0  0  0  0  0  0
   61.2942   34.9378   50.1093 H   0  0  0  0  0  0  0  0  0  0  0  0
   63.6425   34.4439   50.6614 H   0  0  0  0  0  0  0  0  0  0  0  0
   62.6528   32.9241   50.6051 H   0  0  0  0  0  0  0  0  0  0  0  0
   63.5013   32.8519   48.0923 H   0  0  0  0  0  0  0  0  0  0  0  0
   64.8304   33.8838   48.7566 H   0  0  0  0  0  0  0  0  0  0  0  0
   64.1488   31.4831   51.5232 H   0  0  0  0  0  0  0  0  0  0  0  0
   62.8058   31.5778   50.3340 H   0  0  0  0  0  0  0  0  0  0  0  0
   63.9070   30.1586   50.3340 H   0  0  0  0  0  0  0  0  0  0  0  0
   65.8444   32.2491   51.3117 H   0  0  0  0  0  0  0  0  0  0  0  0
   66.7759   31.5791   49.9296 H   0  0  0  0  0  0  0  0  0  0  0  0
   66.2871   33.3077   49.9296 H   0  0  0  0  0  0  0  0  0  0  0  0
   60.1090   35.8260   45.9526 H   0  0  0  0  0  0  0  0  0  0  0  0
   58.0946   35.8832   44.4916 H   0  0  0  0  0  0  0  0  0  0  0  0
   56.9191   33.7712   43.8898 H   0  0  0  0  0  0  0  0  0  0  0  0
   56.9845   31.6618   42.6037 H   0  0  0  0  0  0  0  0  0  0  0  0
   55.9177   29.2190   42.7024 H   0  0  0  0  0  0  0  0  0  0  0  0
   56.4404   28.2313   45.1545 H   0  0  0  0  0  0  0  0  0  0  0  0
   57.8012   30.1061   46.4789 H   0  0  0  0  0  0  0  0  0  0  0  0
   59.8203   31.5130   46.1868 H   0  0  0  0  0  0  0  0  0  0  0  0
  1  2  1  0
  2  3  1  0
  3  4  1  0
  4  5  1  0
  5  6  1  0
  6  7  1  0
  6  8  2  0
  8  9  1  0
  9 10  1  0
 10 11  1  0
 11 12  1  0
 12 13  1  0
 13 14  1  0
 13 15  1  0
  9 16  1  0
 16 17  2  0
 16 18  1  0
 18 19  2  0
 19 20  1  0
 20 21  2  0
 21 22  1  0
 22 23  1  0
 23 24  1  0
 24 25  2  0
 25 26  1  0
 26 27  2  0
 22 28  2  0
  8 29  1  0
 29 30  2  0
 29 31  1  0
 31 32  1  0
 32 33  2  0
 32  5  1  0
 28 18  1  0
 27 23  1  0
  1 34  1  0
  1 35  1  0
  1 36  1  0
  2 37  1  0
  2 38  1  0
  3 39  1  0
  3 40  1  0
  4 41  1  0
  4 42  1  0
  7 43  1  0
  7 44  1  0
 10 45  1  0
 10 46  1  0
 11 47  1  0
 11 48  1  0
 12 49  1  0
 12 50  1  0
 14 51  1  0
 14 52  1  0
 14 53  1  0
 15 54  1  0
 15 55  1  0
 15 56  1  0
 19 57  1  0
 20 58  1  0
 21 59  1  0
 24 60  1  0
 25 61  1  0
 26 62  1  0
 27 63  1  0
 28 64  1  0
M  CHG  1  31  -1
M  END
>  <UniqueID>  (45) 
43

>  <SMILES>  (45) 
CCCCn1c(N)c(N(CCCN(C)C)C(=O)c2cccc(-n3cccc3)c2)c(=O)[n-]c1=O

>  <Energy>  (45) 
103.61449815868161

>  <Genealogy>  (45) 
CCCCn1c(N)c(N(CCCN(C)C)C(=O)c2cccc(-n3cccc3)c2)c(=O)[n-]c1=O (protonated)
CCCCn1c(N)c(N(CCCN(C)C)C(=O)c2cccc(-n3cccc3)c2)c(=O)[n-]c1=O (3D coordinates assigned)
CCCCn1c(N)c(N(CCCN(C)C)C(=O)c2cccc(-n3cccc3)c2)c(=O)[n-]c1=O (optimized conformer: 103.61449815868161 kcal/mol)

>  <smiles>  (45) 
CCCCn1c(N)c(N(CCCN(C)C)C(=O)c2cccc(-n3cccc3)c2)c(=O)[nH]c1=O

>  <score_type>  (45) 
oracle

>  <origin>  (45) 
adg

>  <m_score__min__energy>  (45) 
-10.66

>  <m_primary>  (45) 
energy

$$$$
45:0
     RDKit          3D

 24 25  0  0  0  0  0  0  0  0999 V2000
   54.3890   26.7110   46.7510 H   0  0  0  0  0  0  0  0  0  0  0  0
   54.9960   26.4110   45.9960 O   0  0  0  0  0  0  0  0  0  0  0  0
   56.3630   26.6780   46.0150 C   0  0  0  0  0  0  0  0  0  0  0  0
   57.2670   25.6480   46.3540 C   0  0  0  0  0  0  0  0  0  0  0  0
   56.8835   24.6506   46.6151 H   0  0  0  0  0  0  0  0  0  0  0  0
   58.6530   25.8850   46.3610 C   0  0  0  0  0  0  0  0  0  0  0  0
   59.3643   25.0839   46.6104 H   0  0  0  0  0  0  0  0  0  0  0  0
   59.0970   27.1670   46.0420 C   0  0  0  0  0  0  0  0  0  0  0  0
   58.2240   28.1800   45.7400 C   0  0  0  0  0  0  0  0  0  0  0  0
   56.8440   27.9650   45.6920 C   0  0  0  0  0  0  0  0  0  0  0  0
   56.1537   28.7741   45.4111 H   0  0  0  0  0  0  0  0  0  0  0  0
   58.9950   29.2940   45.4460 C   0  0  0  0  0  0  0  0  0  0  0  0
   58.5570   30.6340   45.0190 C   0  0  0  0  0  0  0  0  0  0  0  0
   59.2909   31.3021   44.5447 H   0  0  0  0  0  0  0  0  0  0  0  0
   57.3420   31.0590   45.1790 N   0  0  0  0  0  0  0  0  0  0  0  0
   56.2650   30.4640   44.5590 O   0  0  0  0  0  0  0  0  0  0  0  0
   56.2890   30.2140   43.1640 C   0  0  0  0  0  0  0  0  0  0  0  0
   56.3928   29.1333   42.9869 H   0  0  0  0  0  0  0  0  0  0  0  0
   55.3524   30.5715   42.7113 H   0  0  0  0  0  0  0  0  0  0  0  0
   57.1405   30.7432   42.7113 H   0  0  0  0  0  0  0  0  0  0  0  0
   60.3160   28.8770   45.5610 C   0  0  0  0  0  0  0  0  0  0  0  0
   61.1931   29.5129   45.3704 H   0  0  0  0  0  0  0  0  0  0  0  0
   60.3720   27.5800   45.9400 N   0  0  0  0  0  0  0  0  0  0  0  0
   61.2340   27.0130   46.0960 H   0  0  0  0  0  0  0  0  0  0  0  0
  1  2  1  0
  2  3  1  0
  3  4  2  0
  4  5  1  0
  4  6  1  0
  6  7  1  0
  6  8  2  0
  8  9  1  0
  9 10  2  0
 10 11  1  0
  9 12  1  0
 12 13  1  0
 13 14  1  0
 13 15  2  0
 15 16  1  0
 16 17  1  0
 17 18  1  0
 17 19  1  0
 17 20  1  0
 12 21  2  0
 21 22  1  0
 21 23  1  0
 23 24  1  0
 10  3  1  0
 23  8  1  0
M  END
>  <UniqueID>  (46) 
44

>  <SMILES>  (46) 
CO/N=C\c1c[nH]c2ccc(O)cc12

>  <Energy>  (46) 
58.030889318573266

>  <Genealogy>  (46) 
CO/N=C\c1c[nH]c2ccc(O)cc12 (cis-trans isomerization)
CO/N=C\c1c[nH]c2ccc(O)cc12 (3D coordinates assigned)
CO/N=C\c1c[nH]c2ccc(O)cc12 (optimized conformer: 58.030889318573266 kcal/mol)

>  <smiles>  (46) 
CON=Cc1c[nH]c2ccc(O)cc12

>  <score_type>  (46) 
oracle

>  <origin>  (46) 
adg

>  <m_score__min__energy>  (46) 
-6.8300000000000001

>  <m_primary>  (46) 
energy

$$$$
46:0
     RDKit          3D

 45 46  0  0  0  0  0  0  0  0999 V2000
   59.6460   35.3720   46.0070 C   0  0  0  0  0  0  0  0  0  0  0  0
   59.6840   34.0060   46.4080 O   0  0  0  0  0  0  0  0  0  0  0  0
   58.9200   32.9880   45.8170 C   0  0  0  0  0  0  0  0  0  0  0  0
   58.1840   33.1880   44.6350 C   0  0  0  0  0  0  0  0  0  0  0  0
   57.4310   32.1450   44.0910 C   0  0  0  0  0  0  0  0  0  0  0  0
   57.3880   30.8950   44.7230 C   0  0  0  0  0  0  0  0  0  0  0  0
   56.4040   29.5860   44.0600 S   0  0  0  0  0  0  0  0  0  0  0  0
   57.1750   28.9300   42.9500 O   0  0  0  0  0  0  0  0  0  0  0  0
   55.1320   30.1460   43.4870 O   0  0  0  0  0  0  0  0  0  0  0  0
   55.9900   28.3780   45.2480 N   0  0  0  0  0  0  0  0  0  0  0  0
   57.0360   27.3670   45.4150 C   0  0  0  0  0  0  0  0  0  0  0  0
   56.5580   26.1930   46.2130 C   0  0  0  0  0  0  0  0  0  0  0  0
   57.3870   25.4200   46.7630 O   0  0  0  0  0  0  0  0  0  0  0  0
   55.1550   25.9580   46.3350 N   0  0  0  0  0  0  0  0  0  0  0  0
   54.4310   24.9370   45.5920 C   0  0  0  0  0  0  0  0  0  0  0  0
   55.2620   23.6740   45.5760 C   0  0  0  0  0  0  0  0  0  0  0  0
   55.7550   23.2150   46.7970 C   0  0  0  0  0  0  0  0  0  0  0  0
   56.4550   22.0180   46.8450 C   0  0  0  0  0  0  0  0  0  0  0  0
   56.8770   21.6040   47.9600 O   0  0  0  0  0  0  0  0  0  0  0  0
   56.6770   21.3030   45.7010 N   0  0  0  0  0  0  0  0  0  0  0  0
   57.3920   20.0160   45.7630 C   0  0  0  0  0  0  0  0  0  0  0  0
   56.1600   21.7430   44.5070 C   0  0  0  0  0  0  0  0  0  0  0  0
   56.3420   21.0560   43.4620 O   0  0  0  0  0  0  0  0  0  0  0  0
   55.4410   22.9160   44.4410 N   0  0  0  0  0  0  0  0  0  0  0  0
   54.9020   23.3770   43.1460 C   0  0  0  0  0  0  0  0  0  0  0  0
   58.1410   30.6860   45.8860 C   0  0  0  0  0  0  0  0  0  0  0  0
   58.8980   31.7280   46.4300 C   0  0  0  0  0  0  0  0  0  0  0  0
   59.6281   36.0156   46.8989 H   0  0  0  0  0  0  0  0  0  0  0  0
   60.5381   35.6027   45.4062 H   0  0  0  0  0  0  0  0  0  0  0  0
   58.7425   35.5528   45.4062 H   0  0  0  0  0  0  0  0  0  0  0  0
   58.2016   34.1689   44.1376 H   0  0  0  0  0  0  0  0  0  0  0  0
   56.8678   32.3059   43.1599 H   0  0  0  0  0  0  0  0  0  0  0  0
   57.3529   27.0162   44.4218 H   0  0  0  0  0  0  0  0  0  0  0  0
   57.8728   27.8298   45.9586 H   0  0  0  0  0  0  0  0  0  0  0  0
   53.4648   24.7390   46.0790 H   0  0  0  0  0  0  0  0  0  0  0  0
   54.2469   25.2796   44.5630 H   0  0  0  0  0  0  0  0  0  0  0  0
   55.5901   23.7976   47.7153 H   0  0  0  0  0  0  0  0  0  0  0  0
   57.5487   19.7339   46.8146 H   0  0  0  0  0  0  0  0  0  0  0  0
   56.7954   19.2405   45.2603 H   0  0  0  0  0  0  0  0  0  0  0  0
   58.3656   20.1129   45.2603 H   0  0  0  0  0  0  0  0  0  0  0  0
   54.0769   24.0827   43.3226 H   0  0  0  0  0  0  0  0  0  0  0  0
   55.6975   23.8784   42.5753 H   0  0  0  0  0  0  0  0  0  0  0  0
   54.5300   22.5133   42.5753 H   0  0  0  0  0  0  0  0  0  0  0  0
   58.1366   29.6994   46.3724 H   0  0  0  0  0  0  0  0  0  0  0  0
   59.4812   31.5573   47.3469 H   0  0  0  0  0  0  0  0  0  0  0  0
  1  2  1  0
  2  3  1  0
  3  4  2  0
  4  5  1  0
  5  6  2  0
  6  7  1  0
  7  8  2  0
  7  9  2  0
  7 10  1  0
 10 11  1  0
 11 12  1  0
 12 13  2  0
 12 14  1  0
 14 15  1  0
 15 16  1  0
 16 17  2  0
 17 18  1  0
 18 19  2  0
 18 20  1  0
 20 21  1  0
 20 22  1  0
 22 23  2  0
 22 24  1  0
 24 25  1  0
  6 26  1  0
 26 27  2  0
 27  3  1  0
 24 16  1  0
  1 28  1  0
  1 29  1  0
  1 30  1  0
  4 31  1  0
  5 32  1  0
 11 33  1  0
 11 34  1  0
 15 35  1  0
 15 36  1  0
 17 37  1  0
 21 38  1  0
 21 39  1  0
 21 40  1  0
 25 41  1  0
 25 42  1  0
 25 43  1  0
 26 44  1  0
 27 45  1  0
M  CHG  2  10  -1  14  -1
M  END
>  <UniqueID>  (47) 
45

>  <SMILES>  (47) 
COc1ccc(S(=O)(=O)[N-]CC(=O)[N-]Cc2cc(=O)n(C)c(=O)n2C)cc1

>  <Energy>  (47) 
45.556111225708165

>  <Genealogy>  (47) 
COc1ccc(S(=O)(=O)[N-]CC(=O)[N-]Cc2cc(=O)n(C)c(=O)n2C)cc1 (protonated)
COc1ccc(S(=O)(=O)[N-]CC(=O)[N-]Cc2cc(=O)n(C)c(=O)n2C)cc1 (3D coordinates assigned)
COc1ccc(S(=O)(=O)[N-]CC(=O)[N-]Cc2cc(=O)n(C)c(=O)n2C)cc1 (optimized conformer: 45.556111225708165 kcal/mol)

>  <smiles>  (47) 
COc1ccc(S(=O)(=O)NCC(=O)NCc2cc(=O)n(C)c(=O)n2C)cc1

>  <score_type>  (47) 
oracle

>  <origin>  (47) 
adg

>  <m_score__min__energy>  (47) 
-11.6

>  <m_primary>  (47) 
energy

$$$$
47:0
     RDKit          3D

 65 68  0  0  0  0  0  0  0  0999 V2000
   57.1410   21.5170   43.6020 C   0  0  0  0  0  0  0  0  0  0  0  0
   56.2370   22.3950   44.2620 O   0  0  0  0  0  0  0  0  0  0  0  0
   56.5240   23.7300   44.5880 C   0  0  0  0  0  0  0  0  0  0  0  0
   57.7430   24.3460   44.2460 C   0  0  0  0  0  0  0  0  0  0  0  0
   57.9790   25.6790   44.5940 C   0  0  0  0  0  0  0  0  0  0  0  0
   57.0120   26.4090   45.2930 C   0  0  0  0  0  0  0  0  0  0  0  0
   57.2910   27.7570   45.6690 N   0  0  0  0  0  0  0  0  0  0  0  0
   56.6980   29.0830   44.7260 S   0  0  0  0  0  0  0  0  0  0  0  0
   56.9630   28.8170   43.2680 O   0  0  0  0  0  0  0  0  0  0  0  0
   55.2120   29.2220   44.9320 O   0  0  0  0  0  0  0  0  0  0  0  0
   57.5290   30.5650   45.1930 C   0  0  0  0  0  0  0  0  0  0  0  0
   57.4650   31.7070   44.3880 C   0  0  0  0  0  0  0  0  0  0  0  0
   58.1180   32.8770   44.7750 C   0  0  0  0  0  0  0  0  0  0  0  0
   58.8380   32.9320   45.9800 C   0  0  0  0  0  0  0  0  0  0  0  0
   59.5000   34.2260   46.3730 C   0  0  0  0  0  0  0  0  0  0  0  0
   58.9170   31.7730   46.7940 C   0  0  0  0  0  0  0  0  0  0  0  0
   59.6830   31.7460   48.0610 C   0  0  0  0  0  0  0  0  0  0  0  0
   60.0320   32.8280   48.6090 O   0  0  0  0  0  0  0  0  0  0  0  0
   60.0140   30.4890   48.6710 N   0  0  0  0  0  0  0  0  0  0  0  0
   60.9580   30.3550   49.7440 C   0  0  0  0  0  0  0  0  0  0  0  0
   60.6130   29.3030   50.9570 S   0  0  0  0  0  0  0  0  0  0  0  0
   62.1720   31.1330   49.7490 N   0  0  0  0  0  0  0  0  0  0  0  0
   63.2410   30.9680   50.6930 C   0  0  0  0  0  0  0  0  0  0  0  0
   63.5290   29.6900   51.1930 C   0  0  0  0  0  0  0  0  0  0  0  0
   64.5520   29.5130   52.1300 C   0  0  0  0  0  0  0  0  0  0  0  0
   65.2850   30.6160   52.5900 C   0  0  0  0  0  0  0  0  0  0  0  0
   66.6010   30.4070   53.7440 S   0  0  0  0  0  0  0  0  0  0  0  0
   66.2140   29.4430   54.8300 O   0  0  0  0  0  0  0  0  0  0  0  0
   66.9180   31.7350   54.3700 O   0  0  0  0  0  0  0  0  0  0  0  0
   68.0080   29.8110   52.9240 N   0  0  0  0  0  0  0  0  0  0  0  0
   67.9750   28.9960   51.9120 C   0  0  0  0  0  0  0  0  0  0  0  0
   68.4120   27.6830   51.8910 C   0  0  0  0  0  0  0  0  0  0  0  0
   68.1650   27.3010   50.5870 C   0  0  0  0  0  0  0  0  0  0  0  0
   68.4370   25.9590   49.9990 C   0  0  0  0  0  0  0  0  0  0  0  0
   67.6290   28.3080   49.9350 O   0  0  0  0  0  0  0  0  0  0  0  0
   67.4990   29.3510   50.7040 N   0  0  0  0  0  0  0  0  0  0  0  0
   64.9770   31.8970   52.1170 C   0  0  0  0  0  0  0  0  0  0  0  0
   63.9550   32.0740   51.1780 C   0  0  0  0  0  0  0  0  0  0  0  0
   58.2530   30.6040   46.3880 C   0  0  0  0  0  0  0  0  0  0  0  0
   55.7860   25.8060   45.6250 C   0  0  0  0  0  0  0  0  0  0  0  0
   54.7840   26.5110   46.2930 O   0  0  0  0  0  0  0  0  0  0  0  0
   55.5560   24.4700   45.2770 C   0  0  0  0  0  0  0  0  0  0  0  0
   57.7192   20.9555   44.3506 H   0  0  0  0  0  0  0  0  0  0  0  0
   56.5757   20.8140   42.9725 H   0  0  0  0  0  0  0  0  0  0  0  0
   57.8272   22.1026   42.9725 H   0  0  0  0  0  0  0  0  0  0  0  0
   58.5119   23.7765   43.7033 H   0  0  0  0  0  0  0  0  0  0  0  0
   58.9303   26.1566   44.3167 H   0  0  0  0  0  0  0  0  0  0  0  0
   56.8975   31.6822   43.4460 H   0  0  0  0  0  0  0  0  0  0  0  0
   58.0687   33.7664   44.1296 H   0  0  0  0  0  0  0  0  0  0  0  0
   59.5379   34.3001   47.4698 H   0  0  0  0  0  0  0  0  0  0  0  0
   60.5224   34.2526   45.9681 H   0  0  0  0  0  0  0  0  0  0  0  0
   58.9233   35.0707   45.9681 H   0  0  0  0  0  0  0  0  0  0  0  0
   59.4470   29.6500   48.4070 H   0  0  0  0  0  0  0  0  0  0  0  0
   62.2830   31.8950   49.0450 H   0  0  0  0  0  0  0  0  0  0  0  0
   62.9477   28.8228   50.8467 H   0  0  0  0  0  0  0  0  0  0  0  0
   64.7821   28.5056   52.5071 H   0  0  0  0  0  0  0  0  0  0  0  0
   68.8477   27.0910   52.7093 H   0  0  0  0  0  0  0  0  0  0  0  0
   68.5852   25.2277   50.8073 H   0  0  0  0  0  0  0  0  0  0  0  0
   67.5830   25.6509   49.3778 H   0  0  0  0  0  0  0  0  0  0  0  0
   69.3435   26.0077   49.3778 H   0  0  0  0  0  0  0  0  0  0  0  0
   65.5403   32.7673   52.4848 H   0  0  0  0  0  0  0  0  0  0  0  0
   63.7103   33.0844   50.8186 H   0  0  0  0  0  0  0  0  0  0  0  0
   58.3035   29.7052   47.0202 H   0  0  0  0  0  0  0  0  0  0  0  0
   54.7740   27.5220   46.3420 H   0  0  0  0  0  0  0  0  0  0  0  0
   54.6017   23.9951   45.5486 H   0  0  0  0  0  0  0  0  0  0  0  0
  1  2  1  0
  2  3  1  0
  3  4  2  0
  4  5  1  0
  5  6  2  0
  6  7  1  0
  7  8  1  0
  8  9  2  0
  8 10  2  0
  8 11  1  0
 11 12  2  0
 12 13  1  0
 13 14  2  0
 14 15  1  0
 14 16  1  0
 16 17  1  0
 17 18  2  0
 17 19  1  0
 19 20  1  0
 20 21  2  0
 20 22  1  0
 22 23  1  0
 23 24  2  0
 24 25  1  0
 25 26  2  0
 26 27  1  0
 27 28  2  0
 27 29  2  0
 27 30  1  0
 30 31  2  3
 31 32  1  0
 32 33  2  0
 33 34  1  0
 33 35  1  0
 35 36  1  0
 26 37  1  0
 37 38  2  0
 16 39  2  0
  6 40  1  0
 40 41  1  0
 40 42  2  0
 42  3  1  0
 39 11  1  0
 38 23  1  0
 36 31  1  0
  1 43  1  0
  1 44  1  0
  1 45  1  0
  4 46  1  0
  5 47  1  0
 12 48  1  0
 13 49  1  0
 15 50  1  0
 15 51  1  0
 15 52  1  0
 19 53  1  0
 22 54  1  0
 24 55  1  0
 25 56  1  0
 32 57  1  0
 34 58  1  0
 34 59  1  0
 34 60  1  0
 37 61  1  0
 38 62  1  0
 39 63  1  0
 41 64  1  0
 42 65  1  0
M  CHG  2   7  -1  36  -1
M  END
>  <UniqueID>  (48) 
46

>  <SMILES>  (48) 
COc1ccc([N-]S(=O)(=O)c2ccc(C)c(C(=O)NC(=S)Nc3ccc(S(=O)(=O)N=c4cc(C)o[n-]4)cc3)c2)c(O)c1

>  <Energy>  (48) 
124.2849834419572

>  <Genealogy>  (48) 
COc1ccc([N-]S(=O)(=O)c2ccc(C)c(C(=O)NC(=S)Nc3ccc(S(=O)(=O)N=c4cc(C)o[n-]4)cc3)c2)c(O)c1 (protonated)
COc1ccc([N-]S(=O)(=O)c2ccc(C)c(C(=O)NC(=S)Nc3ccc(S(=O)(=O)N=c4cc(C)o[n-]4)cc3)c2)c(O)c1 (3D coordinates assigned)
COc1ccc([N-]S(=O)(=O)c2ccc(C)c(C(=O)NC(=S)Nc3ccc(S(=O)(=O)N=c4cc(C)o[n-]4)cc3)c2)c(O)c1 (optimized conformer: 124.2849834419572 kcal/mol)

>  <smiles>  (48) 
COc1ccc(NS(=O)(=O)c2ccc(C)c(C(=O)NC(=S)Nc3ccc(S(=O)(=O)N=c4cc(C)o[nH]4)cc3)c2)c(O)c1

>  <score_type>  (48) 
oracle

>  <origin>  (48) 
adg

>  <m_score__min__energy>  (48) 
-12.539999999999999

>  <m_primary>  (48) 
energy

$$$$
48:0
     RDKit          3D

 44 46  0  0  0  0  0  0  0  0999 V2000
   59.6300   35.7610   46.3350 N   0  0  0  0  0  0  0  0  0  0  0  0
   59.1440   34.4340   46.5800 C   0  0  0  0  0  0  0  0  0  0  0  0
   58.6440   33.6900   45.5000 C   0  0  0  0  0  0  0  0  0  0  0  0
   58.1030   32.4170   45.6970 C   0  0  0  0  0  0  0  0  0  0  0  0
   57.4970   31.4830   44.3320 S   0  0  0  0  0  0  0  0  0  0  0  0
   56.0350   31.2120   44.5450 O   0  0  0  0  0  0  0  0  0  0  0  0
   57.6730   32.2440   43.0470 O   0  0  0  0  0  0  0  0  0  0  0  0
   58.3490   29.9750   44.2170 N   0  0  0  0  0  0  0  0  0  0  0  0
   58.0340   28.8130   45.0040 C   0  0  0  0  0  0  0  0  0  0  0  0
   59.0680   28.1400   45.6750 C   0  0  0  0  0  0  0  0  0  0  0  0
   58.7960   27.0020   46.4390 C   0  0  0  0  0  0  0  0  0  0  0  0
   57.4880   26.5260   46.5450 C   0  0  0  0  0  0  0  0  0  0  0  0
   56.4490   27.1900   45.8910 C   0  0  0  0  0  0  0  0  0  0  0  0
   55.1460   26.7170   46.0010 O   0  0  0  0  0  0  0  0  0  0  0  0
   56.7160   28.3300   45.1260 C   0  0  0  0  0  0  0  0  0  0  0  0
   58.0460   31.8840   46.9860 C   0  0  0  0  0  0  0  0  0  0  0  0
   58.5540   32.6030   48.0680 C   0  0  0  0  0  0  0  0  0  0  0  0
   59.1250   33.8780   47.8840 C   0  0  0  0  0  0  0  0  0  0  0  0
   59.7220   34.5800   48.9960 N   0  0  0  0  0  0  0  0  0  0  0  0
   60.8810   34.0970   49.7470 C   0  0  0  0  0  0  0  0  0  0  0  0
   61.8210   33.3350   48.8490 C   0  0  0  0  0  0  0  0  0  0  0  0
   61.6590   31.9500   48.6650 C   0  0  0  0  0  0  0  0  0  0  0  0
   62.5210   31.2460   47.8190 C   0  0  0  0  0  0  0  0  0  0  0  0
   63.5420   31.9170   47.1420 C   0  0  0  0  0  0  0  0  0  0  0  0
   63.7000   33.2960   47.3060 C   0  0  0  0  0  0  0  0  0  0  0  0
   62.8400   34.0050   48.1500 C   0  0  0  0  0  0  0  0  0  0  0  0
   60.2490   35.9880   45.5270 H   0  0  0  0  0  0  0  0  0  0  0  0
   59.4710   36.5180   47.0370 H   0  0  0  0  0  0  0  0  0  0  0  0
   58.6785   34.1145   44.4858 H   0  0  0  0  0  0  0  0  0  0  0  0
   59.0750   29.9000   43.4700 H   0  0  0  0  0  0  0  0  0  0  0  0
   60.1005   28.5117   45.5985 H   0  0  0  0  0  0  0  0  0  0  0  0
   59.6139   26.4805   46.9577 H   0  0  0  0  0  0  0  0  0  0  0  0
   57.2762   25.6279   47.1438 H   0  0  0  0  0  0  0  0  0  0  0  0
   55.8926   28.8523   44.6168 H   0  0  0  0  0  0  0  0  0  0  0  0
   57.5984   30.8925   47.1492 H   0  0  0  0  0  0  0  0  0  0  0  0
   58.5083   32.1691   49.0778 H   0  0  0  0  0  0  0  0  0  0  0  0
   59.3660   35.5270   49.2540 H   0  0  0  0  0  0  0  0  0  0  0  0
   61.4136   34.9564   50.1803 H   0  0  0  0  0  0  0  0  0  0  0  0
   60.5298   33.4234   50.5425 H   0  0  0  0  0  0  0  0  0  0  0  0
   60.8508   31.4186   49.1889 H   0  0  0  0  0  0  0  0  0  0  0  0
   62.3949   30.1613   47.6862 H   0  0  0  0  0  0  0  0  0  0  0  0
   64.2215   31.3603   46.4800 H   0  0  0  0  0  0  0  0  0  0  0  0
   64.5023   33.8243   46.7701 H   0  0  0  0  0  0  0  0  0  0  0  0
   62.9613   35.0920   48.2676 H   0  0  0  0  0  0  0  0  0  0  0  0
  1  2  1  0
  2  3  2  0
  3  4  1  0
  4  5  1  0
  5  6  2  0
  5  7  2  0
  5  8  1  0
  8  9  1  0
  9 10  2  0
 10 11  1  0
 11 12  2  0
 12 13  1  0
 13 14  1  0
 13 15  2  0
  4 16  2  0
 16 17  1  0
 17 18  2  0
 18 19  1  0
 19 20  1  0
 20 21  1  0
 21 22  2  0
 22 23  1  0
 23 24  2  0
 24 25  1  0
 25 26  2  0
 18  2  1  0
 26 21  1  0
 15  9  1  0
  1 27  1  0
  1 28  1  0
  3 29  1  0
  8 30  1  0
 10 31  1  0
 11 32  1  0
 12 33  1  0
 15 34  1  0
 16 35  1  0
 17 36  1  0
 19 37  1  0
 20 38  1  0
 20 39  1  0
 22 40  1  0
 23 41  1  0
 24 42  1  0
 25 43  1  0
 26 44  1  0
M  CHG  1  14  -1
M  END
>  <UniqueID>  (49) 
47

>  <SMILES>  (49) 
Nc1cc(S(=O)(=O)Nc2cccc([O-])c2)ccc1NCc1ccccc1

>  <Energy>  (49) 
51.38649907560465

>  <Genealogy>  (49) 
Nc1cc(S(=O)(=O)Nc2cccc([O-])c2)ccc1NCc1ccccc1 (protonated)
Nc1cc(S(=O)(=O)Nc2cccc([O-])c2)ccc1NCc1ccccc1 (3D coordinates assigned)
Nc1cc(S(=O)(=O)Nc2cccc([O-])c2)ccc1NCc1ccccc1 (optimized conformer: 51.38649907560465 kcal/mol)

>  <smiles>  (49) 
Nc1cc(S(=O)(=O)Nc2cccc(O)c2)ccc1NCc1ccccc1

>  <score_type>  (49) 
oracle

>  <origin>  (49) 
adg

>  <m_score__min__energy>  (49) 
-12.93

>  <m_primary>  (49) 
energy

$$$$
49:0
     RDKit          3D

 48 51  0  0  0  0  0  0  0  0999 V2000
   59.0080   28.5640   47.8200 C   0  0  0  0  0  0  0  0  0  0  0  0
   58.8750   29.7970   48.6630 C   0  0  0  0  0  0  0  0  0  0  0  0
   58.9310   31.0640   48.0710 C   0  0  0  0  0  0  0  0  0  0  0  0
   58.8620   32.2100   48.8620 C   0  0  0  0  0  0  0  0  0  0  0  0
   58.7410   32.1140   50.2530 C   0  0  0  0  0  0  0  0  0  0  0  0
   58.7290   33.3010   50.9880 O   0  0  0  0  0  0  0  0  0  0  0  0
   58.6520   30.8390   50.8670 C   0  0  0  0  0  0  0  0  0  0  0  0
   58.5020   30.7130   52.3740 C   0  0  0  0  0  0  0  0  0  0  0  0
   57.2860   29.9670   52.7690 N   0  0  0  0  0  0  0  0  0  0  0  0
   56.0860   30.5890   52.5760 C   0  0  0  0  0  0  0  0  0  0  0  0
   54.8810   29.9770   52.9140 C   0  0  0  0  0  0  0  0  0  0  0  0
   53.6060   30.7030   52.6810 C   0  0  0  0  0  0  0  0  0  0  0  0
   52.6600   30.8390   53.7130 C   0  0  0  0  0  0  0  0  0  0  0  0
   51.4590   31.5160   53.4850 C   0  0  0  0  0  0  0  0  0  0  0  0
   51.1890   32.0600   52.2260 C   0  0  0  0  0  0  0  0  0  0  0  0
   49.9940   32.7330   52.0000 O   0  0  0  0  0  0  0  0  0  0  0  0
   52.1200   31.9250   51.1920 C   0  0  0  0  0  0  0  0  0  0  0  0
   53.3220   31.2480   51.4160 C   0  0  0  0  0  0  0  0  0  0  0  0
   54.9010   28.6920   53.4760 C   0  0  0  0  0  0  0  0  0  0  0  0
   53.8050   28.1680   53.8150 O   0  0  0  0  0  0  0  0  0  0  0  0
   56.1330   28.0190   53.6830 C   0  0  0  0  0  0  0  0  0  0  0  0
   56.2170   26.7020   54.2420 C   0  0  0  0  0  0  0  0  0  0  0  0
   55.0070   25.8840   54.6330 C   0  0  0  0  0  0  0  0  0  0  0  0
   57.4750   26.1170   54.4490 C   0  0  0  0  0  0  0  0  0  0  0  0
   58.6380   26.7920   54.1160 C   0  0  0  0  0  0  0  0  0  0  0  0
   58.5780   28.0620   53.5600 C   0  0  0  0  0  0  0  0  0  0  0  0
   57.3390   28.7010   53.3230 C   0  0  0  0  0  0  0  0  0  0  0  0
   58.7640   29.6890   50.0560 C   0  0  0  0  0  0  0  0  0  0  0  0
   59.1030   27.6829   48.4716 H   0  0  0  0  0  0  0  0  0  0  0  0
   58.1163   28.4560   47.1850 H   0  0  0  0  0  0  0  0  0  0  0  0
   59.9022   28.6487   47.1850 H   0  0  0  0  0  0  0  0  0  0  0  0
   59.0297   31.1558   46.9793 H   0  0  0  0  0  0  0  0  0  0  0  0
   58.9031   33.2014   48.3872 H   0  0  0  0  0  0  0  0  0  0  0  0
   59.5640   33.7470   51.3460 H   0  0  0  0  0  0  0  0  0  0  0  0
   59.3821   30.1866   52.7720 H   0  0  0  0  0  0  0  0  0  0  0  0
   58.4146   31.7299   52.7843 H   0  0  0  0  0  0  0  0  0  0  0  0
   56.0702   31.5998   52.1423 H   0  0  0  0  0  0  0  0  0  0  0  0
   52.8667   30.4102   54.7047 H   0  0  0  0  0  0  0  0  0  0  0  0
   50.7250   31.6210   54.2975 H   0  0  0  0  0  0  0  0  0  0  0  0
   51.9063   32.3520   50.2011 H   0  0  0  0  0  0  0  0  0  0  0  0
   54.0500   31.1408   50.5983 H   0  0  0  0  0  0  0  0  0  0  0  0
   54.9358   25.8358   55.7296 H   0  0  0  0  0  0  0  0  0  0  0  0
   54.0995   26.3546   54.2269 H   0  0  0  0  0  0  0  0  0  0  0  0
   55.1055   24.8665   54.2269 H   0  0  0  0  0  0  0  0  0  0  0  0
   57.5389   25.1078   54.8820 H   0  0  0  0  0  0  0  0  0  0  0  0
   59.6149   26.3184   54.2934 H   0  0  0  0  0  0  0  0  0  0  0  0
   59.5118   28.5814   53.2987 H   0  0  0  0  0  0  0  0  0  0  0  0
   58.7642   28.6936   50.5241 H   0  0  0  0  0  0  0  0  0  0  0  0
  1  2  1  0
  2  3  2  0
  3  4  1  0
  4  5  2  0
  5  6  1  0
  5  7  1  0
  7  8  1  0
  8  9  1  0
  9 10  1  0
 10 11  2  0
 11 12  1  0
 12 13  2  0
 13 14  1  0
 14 15  2  0
 15 16  1  0
 15 17  1  0
 17 18  2  0
 11 19  1  0
 19 20  2  0
 19 21  1  0
 21 22  2  0
 22 23  1  0
 22 24  1  0
 24 25  2  0
 25 26  1  0
 26 27  2  0
  7 28  2  0
 28  2  1  0
 27  9  1  0
 18 12  1  0
 27 21  1  0
  1 29  1  0
  1 30  1  0
  1 31  1  0
  3 32  1  0
  4 33  1  0
  6 34  1  0
  8 35  1  0
  8 36  1  0
 10 37  1  0
 13 38  1  0
 14 39  1  0
 17 40  1  0
 18 41  1  0
 23 42  1  0
 23 43  1  0
 23 44  1  0
 24 45  1  0
 25 46  1  0
 26 47  1  0
 28 48  1  0
M  CHG  1  16  -1
M  END
>  <UniqueID>  (50) 
48

>  <SMILES>  (50) 
Cc1ccc(O)c(Cn2cc(-c3ccc([O-])cc3)c(=O)c3c(C)cccc32)c1

>  <Energy>  (50) 
75.87458488337026

>  <Genealogy>  (50) 
Cc1ccc(O)c(Cn2cc(-c3ccc([O-])cc3)c(=O)c3c(C)cccc32)c1 (protonated)
Cc1ccc(O)c(Cn2cc(-c3ccc([O-])cc3)c(=O)c3c(C)cccc32)c1 (3D coordinates assigned)
Cc1ccc(O)c(Cn2cc(-c3ccc([O-])cc3)c(=O)c3c(C)cccc32)c1 (optimized conformer: 75.87458488337026 kcal/mol)

>  <smiles>  (50) 
Cc1ccc(O)c(Cn2cc(-c3ccc(O)cc3)c(=O)c3c(C)cccc32)c1

>  <score_type>  (50) 
oracle

>  <origin>  (50) 
adg

>  <m_score__min__energy>  (50) 
-11.119999999999999

>  <m_primary>  (50) 
energy

$$$$
50:0
     RDKit          3D

 35 37  0  0  0  0  0  0  0  0999 V2000
   61.3440   30.6260   47.1840 C   0  0  0  0  0  0  0  0  0  0  0  0
   60.8850   29.3830   46.6640 O   0  0  0  0  0  0  0  0  0  0  0  0
   59.5510   29.1060   46.3270 C   0  0  0  0  0  0  0  0  0  0  0  0
   58.8040   30.1100   45.7080 C   0  0  0  0  0  0  0  0  0  0  0  0
   57.4640   29.8880   45.3420 C   0  0  0  0  0  0  0  0  0  0  0  0
   56.6880   30.8770   44.7170 O   0  0  0  0  0  0  0  0  0  0  0  0
   57.0590   32.2480   44.6110 C   0  0  0  0  0  0  0  0  0  0  0  0
   56.8730   28.6460   45.6080 C   0  0  0  0  0  0  0  0  0  0  0  0
   55.5430   28.4430   45.2550 O   0  0  0  0  0  0  0  0  0  0  0  0
   57.6100   27.6210   46.2360 C   0  0  0  0  0  0  0  0  0  0  0  0
   56.9880   26.2990   46.4990 C   0  0  0  0  0  0  0  0  0  0  0  0
   57.5210   25.4180   47.4560 C   0  0  0  0  0  0  0  0  0  0  0  0
   56.9060   24.1840   47.6680 C   0  0  0  0  0  0  0  0  0  0  0  0
   57.3800   23.3910   48.5280 O   0  0  0  0  0  0  0  0  0  0  0  0
   55.7660   23.8450   46.9240 C   0  0  0  0  0  0  0  0  0  0  0  0
   55.0970   22.6190   47.0860 C   0  0  0  0  0  0  0  0  0  0  0  0
   53.9620   22.3320   46.3200 C   0  0  0  0  0  0  0  0  0  0  0  0
   53.4870   23.2620   45.3910 C   0  0  0  0  0  0  0  0  0  0  0  0
   52.3590   22.9720   44.6330 O   0  0  0  0  0  0  0  0  0  0  0  0
   54.1460   24.4850   45.2220 C   0  0  0  0  0  0  0  0  0  0  0  0
   55.2820   24.7820   45.9820 C   0  0  0  0  0  0  0  0  0  0  0  0
   55.9010   25.9460   45.8140 O   0  0  0  0  0  0  0  0  0  0  0  0
   58.9510   27.8600   46.5870 C   0  0  0  0  0  0  0  0  0  0  0  0
   61.3310   30.5908   48.2834 H   0  0  0  0  0  0  0  0  0  0  0  0
   62.3704   30.8128   46.8352 H   0  0  0  0  0  0  0  0  0  0  0  0
   60.6853   31.4350   46.8352 H   0  0  0  0  0  0  0  0  0  0  0  0
   59.2687   31.0860   45.5041 H   0  0  0  0  0  0  0  0  0  0  0  0
   57.1747   32.6755   45.6179 H   0  0  0  0  0  0  0  0  0  0  0  0
   58.0114   32.3291   44.0666 H   0  0  0  0  0  0  0  0  0  0  0  0
   56.2775   32.7983   44.0666 H   0  0  0  0  0  0  0  0  0  0  0  0
   58.4148   25.6991   48.0324 H   0  0  0  0  0  0  0  0  0  0  0  0
   55.4667   21.8842   47.8163 H   0  0  0  0  0  0  0  0  0  0  0  0
   53.4418   21.3714   46.4493 H   0  0  0  0  0  0  0  0  0  0  0  0
   53.7697   25.2145   44.4897 H   0  0  0  0  0  0  0  0  0  0  0  0
   59.5370   27.0642   47.0700 H   0  0  0  0  0  0  0  0  0  0  0  0
  1  2  1  0
  2  3  1  0
  3  4  2  0
  4  5  1  0
  5  6  1  0
  6  7  1  0
  5  8  2  0
  8  9  1  0
  8 10  1  0
 10 11  1  0
 11 12  2  0
 12 13  1  0
 13 14  2  0
 13 15  1  0
 15 16  2  0
 16 17  1  0
 17 18  2  0
 18 19  1  0
 18 20  1  0
 20 21  2  0
 21 22  1  0
 10 23  2  0
 23  3  1  0
 22 11  1  0
 21 15  1  0
  1 24  1  0
  1 25  1  0
  1 26  1  0
  4 27  1  0
  7 28  1  0
  7 29  1  0
  7 30  1  0
 12 31  1  0
 16 32  1  0
 17 33  1  0
 20 34  1  0
 23 35  1  0
M  CHG  2   9  -1  19  -1
M  END
>  <UniqueID>  (51) 
49

>  <SMILES>  (51) 
COc1cc(OC)c([O-])c(-c2cc(=O)c3ccc([O-])cc3o2)c1

>  <Energy>  (51) 
46.92916911377048

>  <Genealogy>  (51) 
COc1cc(OC)c([O-])c(-c2cc(=O)c3ccc([O-])cc3o2)c1 (protonated)
COc1cc(OC)c([O-])c(-c2cc(=O)c3ccc([O-])cc3o2)c1 (3D coordinates assigned)
COc1cc(OC)c([O-])c(-c2cc(=O)c3ccc([O-])cc3o2)c1 (optimized conformer: 46.92916911377048 kcal/mol)

>  <smiles>  (51) 
COc1cc(OC)c(O)c(-c2cc(=O)c3ccc(O)cc3o2)c1

>  <score_type>  (51) 
oracle

>  <origin>  (51) 
adg

>  <m_score__min__energy>  (51) 
-12.17

>  <m_primary>  (51) 
energy

$$$$
51:0
     RDKit          3D

 42 43  0  0  0  0  0  0  0  0999 V2000
   53.7850   25.1520   45.6210 C   0  0  0  0  0  0  0  0  0  0  0  0
   54.7900   26.1140   45.9210 O   0  0  0  0  0  0  0  0  0  0  0  0
   56.1660   25.8370   45.9780 C   0  0  0  0  0  0  0  0  0  0  0  0
   56.6570   24.5330   46.1880 C   0  0  0  0  0  0  0  0  0  0  0  0
   58.0320   24.2950   46.2400 C   0  0  0  0  0  0  0  0  0  0  0  0
   58.9310   25.3500   46.0760 C   0  0  0  0  0  0  0  0  0  0  0  0
   58.4570   26.6460   45.8650 C   0  0  0  0  0  0  0  0  0  0  0  0
   57.0760   26.9020   45.8300 C   0  0  0  0  0  0  0  0  0  0  0  0
   56.5800   28.2290   45.5850 N   0  0  0  0  0  0  0  0  0  0  0  0
   57.4180   29.3390   45.2180 C   0  0  0  0  0  0  0  0  0  0  0  0
   58.6310   29.1570   44.9320 O   0  0  0  0  0  0  0  0  0  0  0  0
   56.8820   30.6650   45.1390 N   0  0  0  0  0  0  0  0  0  0  0  0
   57.6070   31.8770   45.3830 C   0  0  0  0  0  0  0  0  0  0  0  0
   57.3690   33.0410   44.6340 C   0  0  0  0  0  0  0  0  0  0  0  0
   58.0650   34.2170   44.9220 C   0  0  0  0  0  0  0  0  0  0  0  0
   58.9970   34.2450   45.9630 C   0  0  0  0  0  0  0  0  0  0  0  0
   59.2390   33.0880   46.7270 C   0  0  0  0  0  0  0  0  0  0  0  0
   60.1470   33.0720   47.7960 O   0  0  0  0  0  0  0  0  0  0  0  0
   61.4440   32.5410   47.7530 C   0  0  0  0  0  0  0  0  0  0  0  0
   61.6950   31.5220   47.0510 O   0  0  0  0  0  0  0  0  0  0  0  0
   62.4790   33.1280   48.5590 N   0  0  0  0  0  0  0  0  0  0  0  0
   63.8310   32.5630   48.5360 C   0  0  0  0  0  0  0  0  0  0  0  0
   62.1680   34.2930   49.3900 C   0  0  0  0  0  0  0  0  0  0  0  0
   58.5220   31.9180   46.4430 C   0  0  0  0  0  0  0  0  0  0  0  0
   53.3682   24.7530   46.5575 H   0  0  0  0  0  0  0  0  0  0  0  0
   52.9840   25.6285   45.0368 H   0  0  0  0  0  0  0  0  0  0  0  0
   54.2261   24.3309   45.0368 H   0  0  0  0  0  0  0  0  0  0  0  0
   55.9527   23.6972   46.3118 H   0  0  0  0  0  0  0  0  0  0  0  0
   58.4070   23.2750   46.4104 H   0  0  0  0  0  0  0  0  0  0  0  0
   60.0139   25.1601   46.1130 H   0  0  0  0  0  0  0  0  0  0  0  0
   59.1695   27.4723   45.7252 H   0  0  0  0  0  0  0  0  0  0  0  0
   55.5690   28.4090   45.7730 H   0  0  0  0  0  0  0  0  0  0  0  0
   56.6318   33.0263   43.8177 H   0  0  0  0  0  0  0  0  0  0  0  0
   57.8791   35.1238   44.3278 H   0  0  0  0  0  0  0  0  0  0  0  0
   59.5428   35.1737   46.1858 H   0  0  0  0  0  0  0  0  0  0  0  0
   64.1843   32.4154   49.5672 H   0  0  0  0  0  0  0  0  0  0  0  0
   63.8155   31.5961   48.0118 H   0  0  0  0  0  0  0  0  0  0  0  0
   64.5081   33.2535   48.0118 H   0  0  0  0  0  0  0  0  0  0  0  0
   62.2419   34.0161   50.4520 H   0  0  0  0  0  0  0  0  0  0  0  0
   62.8820   35.1006   49.1711 H   0  0  0  0  0  0  0  0  0  0  0  0
   61.1465   34.6373   49.1711 H   0  0  0  0  0  0  0  0  0  0  0  0
   58.6795   31.0209   47.0598 H   0  0  0  0  0  0  0  0  0  0  0  0
  1  2  1  0
  2  3  1  0
  3  4  2  0
  4  5  1  0
  5  6  2  0
  6  7  1  0
  7  8  2  0
  8  9  1  0
  9 10  1  0
 10 11  2  0
 10 12  1  0
 12 13  1  0
 13 14  2  0
 14 15  1  0
 15 16  2  0
 16 17  1  0
 17 18  1  0
 18 19  1  0
 19 20  2  0
 19 21  1  0
 21 22  1  0
 21 23  1  0
 17 24  2  0
  8  3  1  0
 24 13  1  0
  1 25  1  0
  1 26  1  0
  1 27  1  0
  4 28  1  0
  5 29  1  0
  6 30  1  0
  7 31  1  0
  9 32  1  0
 14 33  1  0
 15 34  1  0
 16 35  1  0
 22 36  1  0
 22 37  1  0
 22 38  1  0
 23 39  1  0
 23 40  1  0
 23 41  1  0
 24 42  1  0
M  CHG  1  12  -1
M  END
>  <UniqueID>  (52) 
50

>  <SMILES>  (52) 
COc1ccccc1NC(=O)[N-]c1cccc(OC(=O)N(C)C)c1

>  <Energy>  (52) 
50.82698364137045

>  <Genealogy>  (52) 
COc1ccccc1NC(=O)[N-]c1cccc(OC(=O)N(C)C)c1 (protonated)
COc1ccccc1NC(=O)[N-]c1cccc(OC(=O)N(C)C)c1 (3D coordinates assigned)
COc1ccccc1NC(=O)[N-]c1cccc(OC(=O)N(C)C)c1 (optimized conformer: 50.82698364137045 kcal/mol)

>  <smiles>  (52) 
COc1ccccc1NC(=O)Nc1cccc(OC(=O)N(C)C)c1

>  <score_type>  (52) 
oracle

>  <origin>  (52) 
adg

>  <m_score__min__energy>  (52) 
-9.4299999999999997

>  <m_primary>  (52) 
energy

$$$$
52:0
     RDKit          3D

 42 44  0  0  0  0  0  0  0  0999 V2000
   59.3768   35.9971   45.1678 H   0  0  0  0  0  0  0  0  0  0  0  0
   59.0500   34.9530   45.2820 C   0  0  0  0  0  0  0  0  0  0  0  0
   57.7800   34.5670   44.8470 C   0  0  0  0  0  0  0  0  0  0  0  0
   57.1056   35.3095   44.3954 H   0  0  0  0  0  0  0  0  0  0  0  0
   57.3640   33.2400   44.9840 C   0  0  0  0  0  0  0  0  0  0  0  0
   56.3601   32.9440   44.6456 H   0  0  0  0  0  0  0  0  0  0  0  0
   58.2230   32.2790   45.5530 C   0  0  0  0  0  0  0  0  0  0  0  0
   57.8100   30.9080   45.7140 N   0  0  0  0  0  0  0  0  0  0  0  0
   56.6660   30.4320   45.2350 N   0  0  0  0  0  0  0  0  0  0  0  0
   56.5900   29.1290   45.5780 C   0  0  0  0  0  0  0  0  0  0  0  0
   55.5250   28.3020   45.2470 O   0  0  0  0  0  0  0  0  0  0  0  0
   57.7100   28.7660   46.2990 C   0  0  0  0  0  0  0  0  0  0  0  0
   58.0280   27.5010   46.8800 N   0  0  0  0  0  0  0  0  0  0  0  0
   58.7950   26.6760   46.2890 N   0  0  0  0  0  0  0  0  0  0  0  0
   58.2920   25.5260   45.5980 C   0  0  0  0  0  0  0  0  0  0  0  0
   57.7050   25.6280   44.3240 C   0  0  0  0  0  0  0  0  0  0  0  0
   57.6243   26.6098   43.8345 H   0  0  0  0  0  0  0  0  0  0  0  0
   57.2240   24.4860   43.6780 C   0  0  0  0  0  0  0  0  0  0  0  0
   56.7648   24.5727   42.6822 H   0  0  0  0  0  0  0  0  0  0  0  0
   57.3240   23.2310   44.2930 C   0  0  0  0  0  0  0  0  0  0  0  0
   56.7260   21.7870   43.4720 S   0  0  0  0  0  0  0  0  0  0  0  0
   57.8850   21.0510   42.8600 O   0  0  0  0  0  0  0  0  0  0  0  0
   55.8000   22.1990   42.3600 O   0  0  0  0  0  0  0  0  0  0  0  0
   55.8770   20.7270   44.5700 N   0  0  0  0  0  0  0  0  0  0  0  0
   56.8380   19.8790   45.2860 C   0  0  0  0  0  0  0  0  0  0  0  0
   56.6988   20.0019   46.3702 H   0  0  0  0  0  0  0  0  0  0  0  0
   56.6734   18.8264   45.0121 H   0  0  0  0  0  0  0  0  0  0  0  0
   57.8619   20.1733   45.0121 H   0  0  0  0  0  0  0  0  0  0  0  0
   55.0930   21.5210   45.5240 C   0  0  0  0  0  0  0  0  0  0  0  0
   55.3707   21.2398   46.5505 H   0  0  0  0  0  0  0  0  0  0  0  0
   55.2995   22.5901   45.3681 H   0  0  0  0  0  0  0  0  0  0  0  0
   54.0213   21.3280   45.3681 H   0  0  0  0  0  0  0  0  0  0  0  0
   57.9090   23.1290   45.5620 C   0  0  0  0  0  0  0  0  0  0  0  0
   57.9902   22.1468   46.0505 H   0  0  0  0  0  0  0  0  0  0  0  0
   58.3900   24.2710   46.2100 C   0  0  0  0  0  0  0  0  0  0  0  0
   58.8479   24.1826   47.2062 H   0  0  0  0  0  0  0  0  0  0  0  0
   58.4550   29.9160   46.3720 C   0  0  0  0  0  0  0  0  0  0  0  0
   59.5440   30.0450   46.9910 O   0  0  0  0  0  0  0  0  0  0  0  0
   59.4930   32.6840   46.0020 C   0  0  0  0  0  0  0  0  0  0  0  0
   60.1673   31.9497   46.4668 H   0  0  0  0  0  0  0  0  0  0  0  0
   59.9050   34.0130   45.8620 C   0  0  0  0  0  0  0  0  0  0  0  0
   60.9032   34.3184   46.2089 H   0  0  0  0  0  0  0  0  0  0  0  0
  1  2  1  0
  2  3  2  0
  3  4  1  0
  3  5  1  0
  5  6  1  0
  5  7  2  0
  7  8  1  0
  8  9  1  0
  9 10  1  0
 10 11  1  0
 10 12  2  0
 12 13  1  0
 13 14  2  0
 14 15  1  0
 15 16  2  0
 16 17  1  0
 16 18  1  0
 18 19  1  0
 18 20  2  0
 20 21  1  0
 21 22  2  0
 21 23  2  0
 21 24  1  0
 24 25  1  0
 25 26  1  0
 25 27  1  0
 25 28  1  0
 24 29  1  0
 29 30  1  0
 29 31  1  0
 29 32  1  0
 20 33  1  0
 33 34  1  0
 33 35  2  0
 35 36  1  0
 12 37  1  0
 37 38  2  0
  7 39  1  0
 39 40  1  0
 39 41  2  0
 41 42  1  0
 41  2  1  0
 37  8  1  0
 35 15  1  0
M  CHG  2   9  -1  11  -1
M  END
>  <UniqueID>  (53) 
51

>  <SMILES>  (53) 
CN(C)S(=O)(=O)c1ccc(/N=N/c2c([O-])[n-]n(-c3ccccc3)c2=O)cc1

>  <Energy>  (53) 
81.3247849123362

>  <Genealogy>  (53) 
CN(C)S(=O)(=O)c1ccc(N=Nc2c([O-])[n-]n(-c3ccccc3)c2=O)cc1 (protonated)
CN(C)S(=O)(=O)c1ccc(/N=N/c2c([O-])[n-]n(-c3ccccc3)c2=O)cc1 (cis-trans isomerization)
CN(C)S(=O)(=O)c1ccc(/N=N/c2c([O-])[n-]n(-c3ccccc3)c2=O)cc1 (3D coordinates assigned)
CN(C)S(=O)(=O)c1ccc(/N=N/c2c([O-])[n-]n(-c3ccccc3)c2=O)cc1 (optimized conformer: 81.3247849123362 kcal/mol)

>  <smiles>  (53) 
CN(C)S(=O)(=O)c1ccc(N=Nc2c(O)[nH]n(-c3ccccc3)c2=O)cc1

>  <score_type>  (53) 
oracle

>  <origin>  (53) 
adg

>  <m_score__min__energy>  (53) 
-13.050000000000001

>  <m_primary>  (53) 
energy

$$$$
53:0
     RDKit          3D

110113  0  0  0  0  0  0  0  0999 V2000
   58.1940   27.1550   45.7060 C   0  0  0  0  0  0  0  0  0  0  0  0
   58.7080   28.0250   44.8250 C   0  0  0  0  0  0  0  0  0  0  0  0
   60.1800   28.3380   44.8650 C   0  0  0  0  0  0  0  0  0  0  0  0
   57.8170   28.7000   43.8090 C   0  0  0  0  0  0  0  0  0  0  0  0
   57.3600   30.0560   44.2840 C   0  0  0  0  0  0  0  0  0  0  0  0
   56.3340   30.1440   44.9440 O   0  0  0  0  0  0  0  0  0  0  0  0
   58.1710   31.2940   43.9930 C   0  0  0  0  0  0  0  0  0  0  0  0
   58.6240   32.0710   45.2620 C   0  0  1  0  0  0  0  0  0  0  0  0
   57.3820   32.6900   45.9150 C   0  0  0  0  0  0  0  0  0  0  0  0
   59.5100   31.1870   46.2130 C   0  0  2  0  0  0  0  0  0  0  0  0
   58.8210   30.4510   47.3350 C   0  0  0  0  0  0  0  0  0  0  0  0
   57.8420   29.7390   47.1710 O   0  0  0  0  0  0  0  0  0  0  0  0
   59.5030   30.6000   48.6670 C   0  0  0  0  0  0  0  0  0  0  0  0
   60.2730   31.9140   48.4660 C   0  0  1  0  0  0  0  0  0  0  0  0
   59.2940   33.0690   48.8510 C   0  0  0  0  0  0  0  0  0  0  0  0
   61.5030   32.1700   49.2950 C   0  0  0  0  0  0  0  0  0  0  0  0
   62.3600   33.1250   48.9160 C   0  0  0  0  0  0  0  0  0  0  0  0
   62.3120   33.8010   47.5300 C   0  0  0  0  0  0  0  0  0  0  0  0
   61.2330   33.2480   46.5340 C   0  0  0  0  0  0  0  0  0  0  0  0
   60.7230   31.8460   46.9590 C   0  0  2  0  0  0  0  0  0  0  0  0
   61.9310   30.8570   46.7480 C   0  0  0  0  0  0  0  0  0  0  0  0
   63.3250   33.4890   50.0130 C   0  0  2  0  0  0  0  0  0  0  0  0
   63.0900   34.9760   50.3820 C   0  0  0  0  0  0  0  0  0  0  0  0
   64.7860   33.3040   49.5350 C   0  0  0  0  0  0  0  0  0  0  0  0
   65.7600   33.1220   50.6710 C   0  0  0  0  0  0  0  0  0  0  0  0
   66.9450   33.3310   50.4720 O   0  0  0  0  0  0  0  0  0  0  0  0
   65.3190   32.7020   52.0440 C   0  0  1  0  0  0  0  0  0  0  0  0
   65.0610   33.8950   52.7880 O   0  0  0  0  0  0  0  0  0  0  0  0
   65.7530   35.0990   52.6260 C   0  0  0  0  0  0  0  0  0  0  0  0
   67.2040   35.1500   52.9370 C   0  0  0  0  0  0  0  0  0  0  0  0
   65.1610   36.1470   52.2540 O   0  0  0  0  0  0  0  0  0  0  0  0
   64.0490   31.7970   51.9990 C   0  0  2  0  0  0  0  0  0  0  0  0
   63.5580   31.5990   53.4620 C   0  0  0  0  0  0  0  0  0  0  0  0
   64.4240   30.3460   51.5120 C   0  0  0  0  0  0  0  0  0  0  0  0
   63.5300   29.2100   51.9290 C   0  0  0  0  0  0  0  0  0  0  0  0
   62.3250   29.4550   52.1970 O   0  0  0  0  0  0  0  0  0  0  0  0
   64.0890   27.8380   52.0630 C   0  0  0  0  0  0  0  0  0  0  0  0
   63.5030   26.7940   52.6940 C   0  0  0  0  0  0  0  0  0  0  0  0
   63.4820   26.6550   54.1930 C   0  0  0  0  0  0  0  0  0  0  0  0
   62.8110   25.7280   51.8770 C   0  0  0  0  0  0  0  0  0  0  0  0
   61.5200   26.2430   51.3220 C   0  0  0  0  0  0  0  0  0  0  0  0
   60.4500   25.6140   51.5400 O   0  0  0  0  0  0  0  0  0  0  0  0
   61.5080   27.4350   50.5880 O   0  0  0  0  0  0  0  0  0  0  0  0
   60.3280   28.2120   50.3970 C   0  0  0  0  0  0  0  0  0  0  0  0
   59.7130   28.6050   51.7470 C   0  0  0  0  0  0  0  0  0  0  0  0
   59.2480   30.0810   51.8180 C   0  0  0  0  0  0  0  0  0  0  0  0
   57.7380   30.2160   51.5630 C   0  0  0  0  0  0  0  0  0  0  0  0
   59.6060   30.6820   53.1860 C   0  0  0  0  0  0  0  0  0  0  0  0
   62.8980   32.5420   51.2010 C   0  0  2  0  0  0  0  0  0  0  0  0
   61.7370   31.6660   50.6740 C   0  0  0  0  0  0  0  0  0  0  0  0
   57.1196   26.9202   45.6842 H   0  0  0  0  0  0  0  0  0  0  0  0
   58.8467   26.6759   46.4506 H   0  0  0  0  0  0  0  0  0  0  0  0
   60.5116   28.4085   45.9115 H   0  0  0  0  0  0  0  0  0  0  0  0
   60.7388   27.5386   44.3564 H   0  0  0  0  0  0  0  0  0  0  0  0
   60.3652   29.2956   44.3564 H   0  0  0  0  0  0  0  0  0  0  0  0
   58.3755   28.8208   42.8690 H   0  0  0  0  0  0  0  0  0  0  0  0
   56.9274   28.0704   43.6599 H   0  0  0  0  0  0  0  0  0  0  0  0
   59.0690   30.9946   43.4327 H   0  0  0  0  0  0  0  0  0  0  0  0
   57.5197   31.9722   43.4222 H   0  0  0  0  0  0  0  0  0  0  0  0
   59.2984   32.8971   44.9923 H   0  0  0  0  0  0  0  0  0  0  0  0
   57.4803   32.6410   47.0095 H   0  0  0  0  0  0  0  0  0  0  0  0
   57.2881   33.7403   45.6019 H   0  0  0  0  0  0  0  0  0  0  0  0
   56.4868   32.1326   45.6019 H   0  0  0  0  0  0  0  0  0  0  0  0
   59.8393   30.5289   45.3954 H   0  0  0  0  0  0  0  0  0  0  0  0
   58.7733   30.6822   49.4860 H   0  0  0  0  0  0  0  0  0  0  0  0
   60.1363   29.7452   48.9468 H   0  0  0  0  0  0  0  0  0  0  0  0
   59.2295   33.1451   49.9465 H   0  0  0  0  0  0  0  0  0  0  0  0
   59.6667   34.0183   48.4388 H   0  0  0  0  0  0  0  0  0  0  0  0
   58.2965   32.8568   48.4388 H   0  0  0  0  0  0  0  0  0  0  0  0
   62.1111   34.8715   47.6841 H   0  0  0  0  0  0  0  0  0  0  0  0
   63.2848   33.5894   47.0621 H   0  0  0  0  0  0  0  0  0  0  0  0
   60.3817   33.9441   46.5085 H   0  0  0  0  0  0  0  0  0  0  0  0
   61.6982   33.1567   45.5414 H   0  0  0  0  0  0  0  0  0  0  0  0
   62.3196   30.5388   47.7266 H   0  0  0  0  0  0  0  0  0  0  0  0
   61.5895   29.9759   46.1850 H   0  0  0  0  0  0  0  0  0  0  0  0
   62.7274   31.3658   46.1850 H   0  0  0  0  0  0  0  0  0  0  0  0
   63.0729   35.0839   51.4766 H   0  0  0  0  0  0  0  0  0  0  0  0
   63.9023   35.5899   49.9657 H   0  0  0  0  0  0  0  0  0  0  0  0
   62.1280   35.3095   49.9657 H   0  0  0  0  0  0  0  0  0  0  0  0
   64.8330   32.4159   48.8876 H   0  0  0  0  0  0  0  0  0  0  0  0
   65.0746   34.2198   48.9984 H   0  0  0  0  0  0  0  0  0  0  0  0
   66.1079   32.1008   52.5195 H   0  0  0  0  0  0  0  0  0  0  0  0
   67.3452   35.1550   54.0279 H   0  0  0  0  0  0  0  0  0  0  0  0
   67.7024   34.2688   52.5068 H   0  0  0  0  0  0  0  0  0  0  0  0
   67.6393   36.0640   52.5068 H   0  0  0  0  0  0  0  0  0  0  0  0
   64.3467   31.9171   54.1597 H   0  0  0  0  0  0  0  0  0  0  0  0
   62.6542   32.2029   53.6303 H   0  0  0  0  0  0  0  0  0  0  0  0
   63.3260   30.5370   53.6303 H   0  0  0  0  0  0  0  0  0  0  0  0
   64.4399   30.3635   50.4123 H   0  0  0  0  0  0  0  0  0  0  0  0
   65.3869   30.1321   51.9990 H   0  0  0  0  0  0  0  0  0  0  0  0
   65.0724   27.6545   51.6056 H   0  0  0  0  0  0  0  0  0  0  0  0
   63.6311   27.6421   54.6549 H   0  0  0  0  0  0  0  0  0  0  0  0
   62.5117   26.2448   54.5097 H   0  0  0  0  0  0  0  0  0  0  0  0
   64.2878   25.9765   54.5097 H   0  0  0  0  0  0  0  0  0  0  0  0
   63.4666   25.4268   51.0467 H   0  0  0  0  0  0  0  0  0  0  0  0
   62.5984   24.8662   52.5267 H   0  0  0  0  0  0  0  0  0  0  0  0
   60.5828   29.1239   49.8371 H   0  0  0  0  0  0  0  0  0  0  0  0
   59.5963   27.6119   49.8363 H   0  0  0  0  0  0  0  0  0  0  0  0
   58.8428   27.9582   51.9328 H   0  0  0  0  0  0  0  0  0  0  0  0
   60.5003   28.4810   52.5052 H   0  0  0  0  0  0  0  0  0  0  0  0
   59.7726   30.6345   51.0252 H   0  0  0  0  0  0  0  0  0  0  0  0
   57.2065   30.2635   52.5249 H   0  0  0  0  0  0  0  0  0  0  0  0
   57.5435   31.1351   50.9908 H   0  0  0  0  0  0  0  0  0  0  0  0
   57.3835   29.3460   50.9908 H   0  0  0  0  0  0  0  0  0  0  0  0
   59.2189   30.0321   53.9846 H   0  0  0  0  0  0  0  0  0  0  0  0
   60.6993   30.7624   53.2764 H   0  0  0  0  0  0  0  0  0  0  0  0
   59.1561   31.6817   53.2764 H   0  0  0  0  0  0  0  0  0  0  0  0
   62.5489   33.1615   52.0403 H   0  0  0  0  0  0  0  0  0  0  0  0
   62.0242   30.6043   50.6587 H   0  0  0  0  0  0  0  0  0  0  0  0
   60.8387   31.7290   51.3058 H   0  0  0  0  0  0  0  0  0  0  0  0
  1  2  2  0
  2  3  1  0
  2  4  1  0
  4  5  1  0
  5  6  2  0
  5  7  1  0
  7  8  1  0
  8  9  1  0
  8 10  1  0
 10 11  1  0
 11 12  2  0
 11 13  1  0
 13 14  1  0
 14 15  1  6
 14 16  1  0
 16 17  2  0
 17 18  1  0
 18 19  1  0
 19 20  1  0
 20 21  1  1
 17 22  1  0
 22 23  1  1
 22 24  1  0
 24 25  1  0
 25 26  2  0
 25 27  1  0
 27 28  1  0
 28 29  1  0
 29 30  1  0
 29 31  2  0
 27 32  1  0
 32 33  1  1
 32 34  1  0
 34 35  1  0
 35 36  2  0
 35 37  1  0
 37 38  2  3
 38 39  1  0
 38 40  1  0
 40 41  1  0
 41 42  2  0
 41 43  1  0
 43 44  1  0
 44 45  1  0
 45 46  1  0
 46 47  1  0
 46 48  1  0
 32 49  1  0
 49 50  1  0
 20 10  1  0
 49 22  1  0
 20 14  1  0
 50 16  1  0
  1 51  1  0
  1 52  1  0
  3 53  1  0
  3 54  1  0
  3 55  1  0
  4 56  1  0
  4 57  1  0
  7 58  1  0
  7 59  1  0
  8 60  1  6
  9 61  1  0
  9 62  1  0
  9 63  1  0
 10 64  1  6
 13 65  1  0
 13 66  1  0
 15 67  1  0
 15 68  1  0
 15 69  1  0
 18 70  1  0
 18 71  1  0
 19 72  1  0
 19 73  1  0
 21 74  1  0
 21 75  1  0
 21 76  1  0
 23 77  1  0
 23 78  1  0
 23 79  1  0
 24 80  1  0
 24 81  1  0
 27 82  1  1
 30 83  1  0
 30 84  1  0
 30 85  1  0
 33 86  1  0
 33 87  1  0
 33 88  1  0
 34 89  1  0
 34 90  1  0
 37 91  1  0
 39 92  1  0
 39 93  1  0
 39 94  1  0
 40 95  1  0
 40 96  1  0
 44 97  1  0
 44 98  1  0
 45 99  1  0
 45100  1  0
 46101  1  0
 47102  1  0
 47103  1  0
 47104  1  0
 48105  1  0
 48106  1  0
 48107  1  0
 49108  1  1
 50109  1  0
 50110  1  0
M  END
>  <UniqueID>  (54) 
52

>  <SMILES>  (54) 
C=C(C)CC(=O)C[C@@H](C)[C@@H]1C(=O)CC2(C)C3=C(CCC12C)C1(C)CC(=O)C(OC(C)=O)C(C)(CC(=O)C=C(C)CC(=O)OCCC(C)C)C1C3

>  <Energy>  (54) 
143.95169055662322

>  <Genealogy>  (54) 
C=C(C)CC(=O)C[C@@H](C)[C@@H]1C(=O)CC2(C)C3=C(CCC12C)C1(C)CC(=O)C(OC(C)=O)C(C)(CC(=O)C=C(C)CC(=O)OCCC(C)C)C1C3 (chirality)
C=C(C)CC(=O)C[C@@H](C)[C@@H]1C(=O)CC2(C)C3=C(CCC12C)C1(C)CC(=O)C(OC(C)=O)C(C)(CC(=O)C=C(C)CC(=O)OCCC(C)C)C1C3 (3D coordinates assigned)
C=C(C)CC(=O)C[C@@H](C)[C@@H]1C(=O)CC2(C)C3=C(CCC12C)C1(C)CC(=O)C(OC(C)=O)C(C)(CC(=O)C=C(C)CC(=O)OCCC(C)C)C1C3 (nonaromatic ring conformer: 143.95169055662322 kcal/mol)

>  <smiles>  (54) 
C=C(C)CC(=O)CC(C)C1C(=O)CC2(C)C3=C(CCC12C)C1(C)CC(=O)C(OC(C)=O)C(C)(CC(=O)C=C(C)CC(=O)OCCC(C)C)C1C3

>  <score_type>  (54) 
oracle

>  <origin>  (54) 
adg

>  <m_score__min__energy>  (54) 
-9.7400000000000002

>  <m_primary>  (54) 
energy

$$$$
54:0
     RDKit          3D

 57 60  0  0  0  0  0  0  0  0999 V2000
   61.7840   30.9310   47.8810 C   0  0  0  0  0  0  0  0  0  0  0  0
   60.7290   30.7020   48.9360 C   0  0  0  0  0  0  0  0  0  0  0  0
   61.0910   30.0400   50.1190 C   0  0  0  0  0  0  0  0  0  0  0  0
   60.1420   29.7590   51.1030 C   0  0  0  0  0  0  0  0  0  0  0  0
   58.8050   30.1530   50.9330 C   0  0  0  0  0  0  0  0  0  0  0  0
   57.7740   29.7830   51.9300 C   0  0  0  0  0  0  0  0  0  0  0  0
   58.1170   29.3230   53.0540 O   0  0  0  0  0  0  0  0  0  0  0  0
   56.3850   29.9800   51.6400 N   0  0  0  0  0  0  0  0  0  0  0  0
   55.6670   31.2080   51.9630 C   0  0  0  0  0  0  0  0  0  0  0  0
   54.1890   30.9340   51.9540 C   0  0  0  0  0  0  0  0  0  0  0  0
   53.7140   29.6190   52.1020 C   0  0  0  0  0  0  0  0  0  0  0  0
   52.3460   29.3390   51.9630 C   0  0  0  0  0  0  0  0  0  0  0  0
   51.4470   30.3630   51.6590 C   0  0  0  0  0  0  0  0  0  0  0  0
   51.9160   31.6730   51.5020 C   0  0  0  0  0  0  0  0  0  0  0  0
   51.0240   32.6900   51.1870 O   0  0  0  0  0  0  0  0  0  0  0  0
   53.2820   31.9600   51.6540 C   0  0  0  0  0  0  0  0  0  0  0  0
   58.4460   30.8610   49.7750 C   0  0  0  0  0  0  0  0  0  0  0  0
   59.3900   31.1430   48.7720 C   0  0  0  0  0  0  0  0  0  0  0  0
   58.9290   31.8440   47.5490 C   0  0  0  0  0  0  0  0  0  0  0  0
   59.2860   33.1760   47.3070 C   0  0  0  0  0  0  0  0  0  0  0  0
   58.8190   33.8290   46.1680 C   0  0  0  0  0  0  0  0  0  0  0  0
   57.9840   33.1640   45.2640 C   0  0  0  0  0  0  0  0  0  0  0  0
   57.6200   31.8360   45.4870 C   0  0  0  0  0  0  0  0  0  0  0  0
   56.7020   31.2060   44.5830 N   0  0  0  0  0  0  0  0  0  0  0  0
   56.4100   29.8040   44.5370 C   0  0  0  0  0  0  0  0  0  0  0  0
   55.2850   29.3720   44.9090 O   0  0  0  0  0  0  0  0  0  0  0  0
   57.4500   28.8500   44.0420 C   0  0  0  0  0  0  0  0  0  0  0  0
   58.1870   28.2580   45.2120 C   0  0  0  0  0  0  0  0  0  0  0  0
   59.5850   28.4080   45.3220 C   0  0  0  0  0  0  0  0  0  0  0  0
   60.2660   27.8860   46.4280 C   0  0  0  0  0  0  0  0  0  0  0  0
   59.5580   27.2260   47.4380 C   0  0  0  0  0  0  0  0  0  0  0  0
   60.2390   26.6980   48.5310 O   0  0  0  0  0  0  0  0  0  0  0  0
   58.1660   27.0930   47.3470 C   0  0  0  0  0  0  0  0  0  0  0  0
   57.4820   27.6070   46.2390 C   0  0  0  0  0  0  0  0  0  0  0  0
   58.0870   31.1830   46.6400 C   0  0  0  0  0  0  0  0  0  0  0  0
   62.7486   31.1404   48.3665 H   0  0  0  0  0  0  0  0  0  0  0  0
   61.8766   30.0320   47.2539 H   0  0  0  0  0  0  0  0  0  0  0  0
   61.4956   31.7875   47.2539 H   0  0  0  0  0  0  0  0  0  0  0  0
   62.1375   29.7382   50.2730 H   0  0  0  0  0  0  0  0  0  0  0  0
   60.4431   29.2259   52.0169 H   0  0  0  0  0  0  0  0  0  0  0  0
   55.9698   31.5596   52.9603 H   0  0  0  0  0  0  0  0  0  0  0  0
   55.9038   31.9813   51.2174 H   0  0  0  0  0  0  0  0  0  0  0  0
   54.4187   28.8051   52.3280 H   0  0  0  0  0  0  0  0  0  0  0  0
   51.9809   28.3097   52.0939 H   0  0  0  0  0  0  0  0  0  0  0  0
   50.3757   30.1418   51.5434 H   0  0  0  0  0  0  0  0  0  0  0  0
   53.6416   32.9930   51.5373 H   0  0  0  0  0  0  0  0  0  0  0  0
   57.4074   31.2012   49.6502 H   0  0  0  0  0  0  0  0  0  0  0  0
   59.9362   33.7079   48.0171 H   0  0  0  0  0  0  0  0  0  0  0  0
   59.1086   34.8732   45.9787 H   0  0  0  0  0  0  0  0  0  0  0  0
   57.6125   33.6910   44.3727 H   0  0  0  0  0  0  0  0  0  0  0  0
   56.9661   28.0455   43.4687 H   0  0  0  0  0  0  0  0  0  0  0  0
   58.1602   29.3860   43.3953 H   0  0  0  0  0  0  0  0  0  0  0  0
   60.1426   28.9374   44.5354 H   0  0  0  0  0  0  0  0  0  0  0  0
   61.3580   27.9948   46.5029 H   0  0  0  0  0  0  0  0  0  0  0  0
   57.6097   26.5837   48.1477 H   0  0  0  0  0  0  0  0  0  0  0  0
   56.3892   27.5011   46.1719 H   0  0  0  0  0  0  0  0  0  0  0  0
   57.7896   30.1417   46.8330 H   0  0  0  0  0  0  0  0  0  0  0  0
  1  2  1  0
  2  3  2  0
  3  4  1  0
  4  5  2  0
  5  6  1  0
  6  7  2  0
  6  8  1  0
  8  9  1  0
  9 10  1  0
 10 11  2  0
 11 12  1  0
 12 13  2  0
 13 14  1  0
 14 15  1  0
 14 16  2  0
  5 17  1  0
 17 18  2  0
 18 19  1  0
 19 20  2  0
 20 21  1  0
 21 22  2  0
 22 23  1  0
 23 24  1  0
 24 25  1  0
 25 26  2  0
 25 27  1  0
 27 28  1  0
 28 29  2  0
 29 30  1  0
 30 31  2  0
 31 32  1  0
 31 33  1  0
 33 34  2  0
 23 35  2  0
 18  2  1  0
 35 19  1  0
 16 10  1  0
 34 28  1  0
  1 36  1  0
  1 37  1  0
  1 38  1  0
  3 39  1  0
  4 40  1  0
  9 41  1  0
  9 42  1  0
 11 43  1  0
 12 44  1  0
 13 45  1  0
 16 46  1  0
 17 47  1  0
 20 48  1  0
 21 49  1  0
 22 50  1  0
 27 51  1  0
 27 52  1  0
 29 53  1  0
 30 54  1  0
 33 55  1  0
 34 56  1  0
 35 57  1  0
M  CHG  4   8  -1  15  -1  24  -1  32  -1
M  END
>  <UniqueID>  (55) 
53

>  <SMILES>  (55) 
Cc1ccc(C(=O)[N-]Cc2cccc([O-])c2)cc1-c1cccc([N-]C(=O)Cc2ccc([O-])cc2)c1

>  <Energy>  (55) 
70.60857364460615

>  <Genealogy>  (55) 
Cc1ccc(C(=O)[N-]Cc2cccc([O-])c2)cc1-c1cccc([N-]C(=O)Cc2ccc([O-])cc2)c1 (protonated)
Cc1ccc(C(=O)[N-]Cc2cccc([O-])c2)cc1-c1cccc([N-]C(=O)Cc2ccc([O-])cc2)c1 (3D coordinates assigned)
Cc1ccc(C(=O)[N-]Cc2cccc([O-])c2)cc1-c1cccc([N-]C(=O)Cc2ccc([O-])cc2)c1 (optimized conformer: 70.60857364460615 kcal/mol)

>  <smiles>  (55) 
Cc1ccc(C(=O)NCc2cccc(O)c2)cc1-c1cccc(NC(=O)Cc2ccc(O)cc2)c1

>  <score_type>  (55) 
oracle

>  <origin>  (55) 
adg

>  <m_score__min__energy>  (55) 
-21.899999999999999

>  <m_primary>  (55) 
energy

$$$$
55:0
     RDKit          3D

 49 52  0  0  0  0  0  0  0  0999 V2000
   62.3160   33.8850   50.3450 C   0  0  0  0  0  0  0  0  0  0  0  0
   60.9580   34.0310   49.9430 O   0  0  0  0  0  0  0  0  0  0  0  0
   60.5230   34.0350   48.6090 C   0  0  0  0  0  0  0  0  0  0  0  0
   59.5780   34.9600   48.1240 C   0  0  0  0  0  0  0  0  0  0  0  0
   59.1770   34.9210   46.7860 C   0  0  0  0  0  0  0  0  0  0  0  0
   59.7150   33.9630   45.9120 C   0  0  0  0  0  0  0  0  0  0  0  0
   59.2690   33.8990   44.4730 C   0  0  0  0  0  0  0  0  0  0  0  0
   58.0000   33.1510   44.3470 N   0  0  0  0  0  0  0  0  0  0  0  0
   58.1350   31.9920   43.4190 C   0  0  0  0  0  0  0  0  0  0  0  0
   57.2670   30.7950   43.8220 C   0  0  0  0  0  0  0  0  0  0  0  0
   57.6030   30.4070   45.1930 N   0  0  0  0  0  0  0  0  0  0  0  0
   57.7840   29.0220   45.5280 C   0  0  0  0  0  0  0  0  0  0  0  0
   56.6560   28.1910   45.6210 C   0  0  0  0  0  0  0  0  0  0  0  0
   56.7900   26.8640   46.0340 C   0  0  0  0  0  0  0  0  0  0  0  0
   55.7010   26.0560   46.1310 N   0  0  0  0  0  0  0  0  0  0  0  0
   55.8160   24.7630   46.5390 C   0  0  0  0  0  0  0  0  0  0  0  0
   54.7890   24.0390   46.6200 O   0  0  0  0  0  0  0  0  0  0  0  0
   57.0820   24.2550   46.8650 C   0  0  0  0  0  0  0  0  0  0  0  0
   57.2180   23.0610   47.2440 O   0  0  0  0  0  0  0  0  0  0  0  0
   58.1720   25.0610   46.7700 N   0  0  0  0  0  0  0  0  0  0  0  0
   58.0590   26.3540   46.3640 C   0  0  0  0  0  0  0  0  0  0  0  0
   59.1870   27.1730   46.2690 C   0  0  0  0  0  0  0  0  0  0  0  0
   59.0660   28.5070   45.8400 C   0  0  0  0  0  0  0  0  0  0  0  0
   60.2480   29.3140   45.6910 N   0  0  0  0  0  0  0  0  0  0  0  0
   60.8570   29.3420   44.6020 O   0  0  0  0  0  0  0  0  0  0  0  0
   60.6260   30.1850   46.6860 O   0  0  0  0  0  0  0  0  0  0  0  0
   57.8850   31.4430   46.1890 C   0  0  0  0  0  0  0  0  0  0  0  0
   57.4300   32.8160   45.6770 C   0  0  0  0  0  0  0  0  0  0  0  0
   60.6510   33.0380   46.3970 C   0  0  0  0  0  0  0  0  0  0  0  0
   61.0520   33.0780   47.7360 C   0  0  0  0  0  0  0  0  0  0  0  0
   62.3746   33.8787   51.4434 H   0  0  0  0  0  0  0  0  0  0  0  0
   62.7153   32.9387   49.9511 H   0  0  0  0  0  0  0  0  0  0  0  0
   62.9073   34.7247   49.9511 H   0  0  0  0  0  0  0  0  0  0  0  0
   59.1540   35.7161   48.8012 H   0  0  0  0  0  0  0  0  0  0  0  0
   58.4360   35.6446   46.4156 H   0  0  0  0  0  0  0  0  0  0  0  0
   59.1233   34.9218   44.0952 H   0  0  0  0  0  0  0  0  0  0  0  0
   60.0426   33.3800   43.8879 H   0  0  0  0  0  0  0  0  0  0  0  0
   57.8391   32.3151   42.4100 H   0  0  0  0  0  0  0  0  0  0  0  0
   59.1841   31.6634   43.4551 H   0  0  0  0  0  0  0  0  0  0  0  0
   56.2044   31.0740   43.7669 H   0  0  0  0  0  0  0  0  0  0  0  0
   57.4532   29.9526   43.1396 H   0  0  0  0  0  0  0  0  0  0  0  0
   55.6618   28.5874   45.3672 H   0  0  0  0  0  0  0  0  0  0  0  0
   60.1769   26.7716   46.5316 H   0  0  0  0  0  0  0  0  0  0  0  0
   57.3477   31.2070   47.1194 H   0  0  0  0  0  0  0  0  0  0  0  0
   58.9687   31.4731   46.3752 H   0  0  0  0  0  0  0  0  0  0  0  0
   56.3327   32.8165   45.5996 H   0  0  0  0  0  0  0  0  0  0  0  0
   57.7884   33.5718   46.3913 H   0  0  0  0  0  0  0  0  0  0  0  0
   61.0712   32.2782   45.7216 H   0  0  0  0  0  0  0  0  0  0  0  0
   61.7897   32.3508   48.1062 H   0  0  0  0  0  0  0  0  0  0  0  0
  1  2  1  0
  2  3  1  0
  3  4  2  0
  4  5  1  0
  5  6  2  0
  6  7  1  0
  7  8  1  0
  8  9  1  0
  9 10  1  0
 10 11  1  0
 11 12  1  0
 12 13  2  0
 13 14  1  0
 14 15  1  0
 15 16  1  0
 16 17  2  0
 16 18  1  0
 18 19  2  0
 18 20  1  0
 20 21  1  0
 21 22  1  0
 22 23  2  0
 23 24  1  0
 24 25  2  0
 24 26  1  0
 11 27  1  0
 27 28  1  0
  6 29  1  0
 29 30  2  0
 30  3  1  0
 28  8  1  0
 23 12  1  0
 21 14  2  0
  1 31  1  0
  1 32  1  0
  1 33  1  0
  4 34  1  0
  5 35  1  0
  7 36  1  0
  7 37  1  0
  9 38  1  0
  9 39  1  0
 10 40  1  0
 10 41  1  0
 13 42  1  0
 22 43  1  0
 27 44  1  0
 27 45  1  0
 28 46  1  0
 28 47  1  0
 29 48  1  0
 30 49  1  0
M  CHG  4  15  -1  20  -1  24   1  26  -1
M  END
>  <UniqueID>  (56) 
54

>  <SMILES>  (56) 
COc1ccc(CN2CCN(c3cc4[n-]c(=O)c(=O)[n-]c4cc3[N+](=O)[O-])CC2)cc1

>  <Energy>  (56) 
73.09758284588317

>  <Genealogy>  (56) 
COc1ccc(CN2CCN(c3cc4[n-]c(=O)c(=O)[n-]c4cc3[N+](=O)[O-])CC2)cc1 (protonated)
COc1ccc(CN2CCN(c3cc4[n-]c(=O)c(=O)[n-]c4cc3[N+](=O)[O-])CC2)cc1 (3D coordinates assigned)
COc1ccc(CN2CCN(c3cc4[n-]c(=O)c(=O)[n-]c4cc3[N+](=O)[O-])CC2)cc1 (nonaromatic ring conformer: 73.09758284588317 kcal/mol)

>  <smiles>  (56) 
COc1ccc(CN2CCN(c3cc4[nH]c(=O)c(=O)[nH]c4cc3[N+](=O)[O-])CC2)cc1

>  <score_type>  (56) 
oracle

>  <origin>  (56) 
adg

>  <m_score__min__energy>  (56) 
-11.5

>  <m_primary>  (56) 
energy

$$$$
56:0
     RDKit          3D

 68 70  0  0  1  0  0  0  0  0999 V2000
   59.9890   33.6840   52.4620 C   0  0  0  0  0  0  0  0  0  0  0  0
   58.5680   34.0450   52.8690 C   0  0  0  0  0  0  0  0  0  0  0  0
   57.6240   33.3780   52.0950 O   0  0  0  0  0  0  0  0  0  0  0  0
   57.1270   32.2390   52.6690 C   0  0  0  0  0  0  0  0  0  0  0  0
   56.4590   31.2730   51.7440 C   0  0  0  0  0  0  0  0  0  0  0  0
   57.3860   30.2080   51.3270 N   0  0  0  0  0  0  0  0  0  0  0  0
   58.2990   30.4200   50.4570 C   0  0  0  0  0  0  0  0  0  0  0  0
   58.6830   29.3530   49.7100 N   0  0  0  0  0  0  0  0  0  0  0  0
   59.6370   29.4810   48.7700 C   0  0  0  0  0  0  0  0  0  0  0  0
   59.9770   28.3480   48.0440 O   0  0  0  0  0  0  0  0  0  0  0  0
   59.2370   27.8090   47.0190 C   0  0  0  0  0  0  0  0  0  0  0  0
   58.8430   26.4860   47.0980 C   0  0  0  0  0  0  0  0  0  0  0  0
   58.1010   25.9170   46.0860 C   0  0  0  0  0  0  0  0  0  0  0  0
   57.7370   26.6530   44.9800 C   0  0  0  0  0  0  0  0  0  0  0  0
   58.1120   27.9660   44.8710 C   0  0  0  0  0  0  0  0  0  0  0  0
   57.7980   28.8130   43.7840 N   0  0  0  0  0  0  0  0  0  0  0  0
   56.7680   30.1900   43.9020 S   0  0  0  0  0  0  0  0  0  0  0  0
   57.0240   31.3530   42.5870 C   0  0  0  0  0  0  0  0  0  0  0  0
   55.3500   29.6700   43.8010 O   0  0  0  0  0  0  0  0  0  0  0  0
   56.9630   30.9020   45.2110 O   0  0  0  0  0  0  0  0  0  0  0  0
   58.8640   28.5300   45.9020 C   0  0  0  0  0  0  0  0  0  0  0  0
   60.2250   30.7130   48.5710 C   0  0  0  0  0  0  0  0  0  0  0  0
   59.8060   31.7670   49.3510 C   0  0  0  0  0  0  0  0  0  0  0  0
   60.3280   32.9550   49.2060 N   0  0  0  0  0  0  0  0  0  0  0  0
   61.4480   33.1380   48.3140 C   0  0  0  0  0  0  0  0  0  0  0  0
   62.6430   32.5700   48.7090 C   0  0  0  0  0  0  0  0  0  0  0  0
   63.7800   32.6800   47.9350 C   0  0  0  0  0  0  0  0  0  0  0  0
   63.6890   33.3780   46.7500 C   0  0  0  0  0  0  0  0  0  0  0  0
   62.4820   33.9500   46.3530 C   0  0  0  0  0  0  0  0  0  0  0  0
   61.3400   33.8340   47.1400 C   0  0  0  0  0  0  0  0  0  0  0  0
   59.8180   34.5250   46.6960 S   0  0  0  0  0  0  0  0  0  0  0  0
   59.9800   35.6200   45.6730 O   0  0  0  0  0  0  0  0  0  0  0  0
   59.1710   35.1540   47.8990 O   0  0  0  0  0  0  0  0  0  0  0  0
   58.6770   33.3510   46.0420 C   0  0  0  0  0  0  0  0  0  0  0  0
   57.6600   33.0620   47.1270 C   0  0  0  0  0  0  0  0  0  0  0  0
   57.9310   33.8330   44.8350 C   0  0  0  0  0  0  0  0  0  0  0  0
   58.8450   31.6400   50.3000 N   0  0  0  0  0  0  0  0  0  0  0  0
   60.6003   33.5287   53.3632 H   0  0  0  0  0  0  0  0  0  0  0  0
   59.9759   32.7607   51.8643 H   0  0  0  0  0  0  0  0  0  0  0  0
   60.4181   34.5017   51.8643 H   0  0  0  0  0  0  0  0  0  0  0  0
   58.4198   33.7727   53.9244 H   0  0  0  0  0  0  0  0  0  0  0  0
   58.4328   35.1260   52.7170 H   0  0  0  0  0  0  0  0  0  0  0  0
   57.9634   31.7152   53.1549 H   0  0  0  0  0  0  0  0  0  0  0  0
   56.3414   32.5760   53.3613 H   0  0  0  0  0  0  0  0  0  0  0  0
   55.5993   30.8192   52.2587 H   0  0  0  0  0  0  0  0  0  0  0  0
   56.1300   31.8194   50.8477 H   0  0  0  0  0  0  0  0  0  0  0  0
   58.2360   28.4180   49.8620 H   0  0  0  0  0  0  0  0  0  0  0  0
   59.1238   25.8837   47.9746 H   0  0  0  0  0  0  0  0  0  0  0  0
   57.7958   24.8629   46.1622 H   0  0  0  0  0  0  0  0  0  0  0  0
   57.1430   26.1847   44.1814 H   0  0  0  0  0  0  0  0  0  0  0  0
   58.2280   28.5710   42.8570 H   0  0  0  0  0  0  0  0  0  0  0  0
   57.2422   32.3441   43.0114 H   0  0  0  0  0  0  0  0  0  0  0  0
   57.8714   31.0249   41.9671 H   0  0  0  0  0  0  0  0  0  0  0  0
   56.1171   31.4111   41.9671 H   0  0  0  0  0  0  0  0  0  0  0  0
   59.1698   29.5836   45.8224 H   0  0  0  0  0  0  0  0  0  0  0  0
   61.0073   30.8494   47.8098 H   0  0  0  0  0  0  0  0  0  0  0  0
   62.6895   32.0188   49.6598 H   0  0  0  0  0  0  0  0  0  0  0  0
   64.7293   32.2249   48.2537 H   0  0  0  0  0  0  0  0  0  0  0  0
   64.5782   33.4846   46.1112 H   0  0  0  0  0  0  0  0  0  0  0  0
   62.4310   34.5018   45.4028 H   0  0  0  0  0  0  0  0  0  0  0  0
   59.2550   32.4686   45.7300 H   0  0  0  0  0  0  0  0  0  0  0  0
   58.1283   33.1951   48.1134 H   0  0  0  0  0  0  0  0  0  0  0  0
   56.8111   33.7545   47.0277 H   0  0  0  0  0  0  0  0  0  0  0  0
   57.3021   32.0266   47.0277 H   0  0  0  0  0  0  0  0  0  0  0  0
   57.0469   34.4043   45.1543 H   0  0  0  0  0  0  0  0  0  0  0  0
   58.5867   34.4787   44.2323 H   0  0  0  0  0  0  0  0  0  0  0  0
   57.6119   32.9699   44.2323 H   0  0  0  0  0  0  0  0  0  0  0  0
   58.5280   32.4400   50.8900 H   0  0  0  0  0  0  0  0  0  0  0  0
  1  2  1  0
  2  3  1  0
  3  4  1  0
  4  5  1  0
  5  6  1  0
  6  7  2  0
  7  8  1  0
  8  9  1  0
  9 10  1  0
 10 11  1  0
 11 12  2  0
 12 13  1  0
 13 14  2  0
 14 15  1  0
 15 16  1  0
 16 17  1  0
 17 18  1  0
 17 19  2  0
 17 20  2  0
 15 21  2  0
  9 22  2  0
 22 23  1  0
 23 24  2  0
 24 25  1  0
 25 26  2  0
 26 27  1  0
 27 28  2  0
 28 29  1  0
 29 30  2  0
 30 31  1  0
 31 32  2  0
 31 33  2  0
 31 34  1  0
 34 35  1  0
 34 36  1  0
 23 37  1  0
 37  7  1  0
 21 11  1  0
 30 25  1  0
  1 38  1  0
  1 39  1  0
  1 40  1  0
  2 41  1  0
  2 42  1  0
  4 43  1  0
  4 44  1  0
  5 45  1  0
  5 46  1  0
  8 47  1  0
 12 48  1  0
 13 49  1  0
 14 50  1  0
 16 51  1  0
 18 52  1  0
 18 53  1  0
 18 54  1  0
 21 55  1  0
 22 56  1  0
 26 57  1  0
 27 58  1  0
 28 59  1  0
 29 60  1  0
 34 61  1  0
 35 62  1  0
 35 63  1  0
 35 64  1  0
 36 65  1  0
 36 66  1  0
 36 67  1  0
 37 68  1  0
M  END
>  <smiles>  (57) 
CCOCCN=c1[nH]c(Oc2cccc(NS(C)(=O)=O)c2)cc(=Nc2ccccc2S(=O)(=O)C(C)C)[nH]1

>  <score_type>  (57) 
oracle

>  <origin>  (57) 
adg

>  <m_score__min__energy>  (57) 
-10.73

>  <m_primary>  (57) 
energy

$$$$
57:0
     RDKit          3D

 30 32  0  0  0  0  0  0  0  0999 V2000
   62.3910   32.9570   47.5980 O   0  0  0  0  0  0  0  0  0  0  0  0
   61.4100   32.2930   47.1700 C   0  0  0  0  0  0  0  0  0  0  0  0
   61.5520   30.8710   47.0370 N   0  0  0  0  0  0  0  0  0  0  0  0
   60.4820   29.9200   46.9500 C   0  0  0  0  0  0  0  0  0  0  0  0
   60.5560   28.6650   47.5810 C   0  0  0  0  0  0  0  0  0  0  0  0
   59.5030   27.7520   47.4680 C   0  0  0  0  0  0  0  0  0  0  0  0
   58.3660   28.0770   46.7070 C   0  0  0  0  0  0  0  0  0  0  0  0
   57.2810   27.1980   46.5600 C   0  0  0  0  0  0  0  0  0  0  0  0
   57.2900   26.0690   47.1240 O   0  0  0  0  0  0  0  0  0  0  0  0
   56.2060   27.5670   45.8040 N   0  0  0  0  0  0  0  0  0  0  0  0
   55.1430   26.7010   45.6630 O   0  0  0  0  0  0  0  0  0  0  0  0
   56.1720   28.7810   45.1840 C   0  0  0  0  0  0  0  0  0  0  0  0
   55.1760   29.1100   44.4870 O   0  0  0  0  0  0  0  0  0  0  0  0
   57.2120   29.6440   45.3130 N   0  0  0  0  0  0  0  0  0  0  0  0
   58.3020   29.3250   46.0560 C   0  0  0  0  0  0  0  0  0  0  0  0
   59.3600   30.2340   46.1730 C   0  0  0  0  0  0  0  0  0  0  0  0
   60.1720   33.0020   46.7710 C   0  0  0  0  0  0  0  0  0  0  0  0
   58.9880   32.8640   47.5190 C   0  0  0  0  0  0  0  0  0  0  0  0
   57.8240   33.5350   47.1310 C   0  0  0  0  0  0  0  0  0  0  0  0
   57.8280   34.3410   45.9910 C   0  0  0  0  0  0  0  0  0  0  0  0
   58.9930   34.4730   45.2320 C   0  0  0  0  0  0  0  0  0  0  0  0
   60.1600   33.8050   45.6160 C   0  0  0  0  0  0  0  0  0  0  0  0
   61.4482   28.4001   48.1673 H   0  0  0  0  0  0  0  0  0  0  0  0
   59.5641   26.7779   47.9752 H   0  0  0  0  0  0  0  0  0  0  0  0
   59.3098   31.2011   45.6513 H   0  0  0  0  0  0  0  0  0  0  0  0
   58.9780   32.2246   48.4141 H   0  0  0  0  0  0  0  0  0  0  0  0
   56.9042   33.4276   47.7247 H   0  0  0  0  0  0  0  0  0  0  0  0
   56.9130   34.8724   45.6904 H   0  0  0  0  0  0  0  0  0  0  0  0
   58.9926   35.1035   44.3306 H   0  0  0  0  0  0  0  0  0  0  0  0
   61.0734   33.9080   45.0117 H   0  0  0  0  0  0  0  0  0  0  0  0
  1  2  2  0
  2  3  1  0
  3  4  1  0
  4  5  2  0
  5  6  1  0
  6  7  2  0
  7  8  1  0
  8  9  2  0
  8 10  1  0
 10 11  1  0
 10 12  1  0
 12 13  2  0
 12 14  1  0
 14 15  1  0
 15 16  2  0
  2 17  1  0
 17 18  2  0
 18 19  1  0
 19 20  2  0
 20 21  1  0
 21 22  2  0
 16  4  1  0
 22 17  1  0
 15  7  1  0
  5 23  1  0
  6 24  1  0
 16 25  1  0
 18 26  1  0
 19 27  1  0
 20 28  1  0
 21 29  1  0
 22 30  1  0
M  CHG  3   3  -1  11  -1  14  -1
M  END
>  <UniqueID>  (58) 
55

>  <SMILES>  (58) 
O=C([N-]c1ccc2c(=O)n([O-])c(=O)[n-]c2c1)c1ccccc1

>  <Energy>  (58) 
45.526052286115096

>  <Genealogy>  (58) 
O=C([N-]c1ccc2c(=O)n([O-])c(=O)[n-]c2c1)c1ccccc1 (protonated)
O=C([N-]c1ccc2c(=O)n([O-])c(=O)[n-]c2c1)c1ccccc1 (3D coordinates assigned)
O=C([N-]c1ccc2c(=O)n([O-])c(=O)[n-]c2c1)c1ccccc1 (optimized conformer: 45.526052286115096 kcal/mol)

>  <smiles>  (58) 
O=C(Nc1ccc2c(=O)n(O)c(=O)[nH]c2c1)c1ccccc1

>  <score_type>  (58) 
oracle

>  <origin>  (58) 
adg

>  <m_score__min__energy>  (58) 
-13.289999999999999

>  <m_primary>  (58) 
energy

$$$$
58:0
     RDKit          3D

 54 57  0  0  0  0  0  0  0  0999 V2000
   59.5830   22.2480   44.7880 C   0  0  0  0  0  0  0  0  0  0  0  0
   58.4250   21.6350   44.2290 O   0  0  0  0  0  0  0  0  0  0  0  0
   57.1520   22.2320   44.1750 C   0  0  0  0  0  0  0  0  0  0  0  0
   56.6350   22.7770   42.9830 C   0  0  0  0  0  0  0  0  0  0  0  0
   55.3580   23.3460   42.9610 C   0  0  0  0  0  0  0  0  0  0  0  0
   54.5790   23.3630   44.1160 C   0  0  0  0  0  0  0  0  0  0  0  0
   55.0800   22.8320   45.3070 C   0  0  0  0  0  0  0  0  0  0  0  0
   56.3700   22.2800   45.3520 C   0  0  0  0  0  0  0  0  0  0  0  0
   56.8870   21.6880   46.6360 C   0  0  0  0  0  0  0  0  0  0  0  0
   57.3850   22.7580   47.4940 N   0  0  0  0  0  0  0  0  0  0  0  0
   56.8000   24.0620   47.5350 C   0  0  0  0  0  0  0  0  0  0  0  0
   55.6580   24.2150   48.0520 O   0  0  0  0  0  0  0  0  0  0  0  0
   57.5300   25.2230   46.9620 C   0  0  0  0  0  0  0  0  0  0  0  0
   58.9330   25.2180   46.9530 C   0  0  0  0  0  0  0  0  0  0  0  0
   59.6520   26.2520   46.4180 N   0  0  0  0  0  0  0  0  0  0  0  0
   61.1230   26.1620   46.4490 C   0  0  0  0  0  0  0  0  0  0  0  0
   59.0080   27.3310   45.8490 C   0  0  0  0  0  0  0  0  0  0  0  0
   59.7250   28.4020   45.2640 C   0  0  0  0  0  0  0  0  0  0  0  0
   59.0550   29.4670   44.6600 C   0  0  0  0  0  0  0  0  0  0  0  0
   57.6620   29.5020   44.6310 C   0  0  0  0  0  0  0  0  0  0  0  0
   56.8400   30.8300   43.8130 S   0  0  0  0  0  0  0  0  0  0  0  0
   57.6340   31.3100   42.6280 O   0  0  0  0  0  0  0  0  0  0  0  0
   55.5010   30.3490   43.3290 O   0  0  0  0  0  0  0  0  0  0  0  0
   56.6030   32.1490   44.9190 N   0  0  0  0  0  0  0  0  0  0  0  0
   57.5270   32.9180   45.4210 C   0  0  0  0  0  0  0  0  0  0  0  0
   58.2660   33.8310   44.6380 C   0  0  0  0  0  0  0  0  0  0  0  0
   59.2490   34.6200   45.2440 C   0  0  0  0  0  0  0  0  0  0  0  0
   59.4880   34.5050   46.6130 C   0  0  0  0  0  0  0  0  0  0  0  0
   58.7400   33.5930   47.3600 C   0  0  0  0  0  0  0  0  0  0  0  0
   57.7890   32.8310   46.7540 N   0  0  0  0  0  0  0  0  0  0  0  0
   56.9310   28.4670   45.2240 C   0  0  0  0  0  0  0  0  0  0  0  0
   57.5890   27.3770   45.8300 C   0  0  0  0  0  0  0  0  0  0  0  0
   56.8570   26.3190   46.3970 C   0  0  0  0  0  0  0  0  0  0  0  0
   55.5940   26.3470   46.3830 O   0  0  0  0  0  0  0  0  0  0  0  0
   59.5214   22.2154   45.8858 H   0  0  0  0  0  0  0  0  0  0  0  0
   60.4811   21.7072   44.4549 H   0  0  0  0  0  0  0  0  0  0  0  0
   59.6407   23.2948   44.4549 H   0  0  0  0  0  0  0  0  0  0  0  0
   57.2396   22.7547   42.0643 H   0  0  0  0  0  0  0  0  0  0  0  0
   54.9674   23.7813   42.0294 H   0  0  0  0  0  0  0  0  0  0  0  0
   53.5678   23.7953   44.0900 H   0  0  0  0  0  0  0  0  0  0  0  0
   54.4598   22.8465   46.2154 H   0  0  0  0  0  0  0  0  0  0  0  0
   56.0730   21.1546   47.1487 H   0  0  0  0  0  0  0  0  0  0  0  0
   57.7021   20.9832   46.4150 H   0  0  0  0  0  0  0  0  0  0  0  0
   59.4687   24.3609   47.3871 H   0  0  0  0  0  0  0  0  0  0  0  0
   61.4671   26.1409   47.4936 H   0  0  0  0  0  0  0  0  0  0  0  0
   61.4449   25.2425   45.9383 H   0  0  0  0  0  0  0  0  0  0  0  0
   61.5546   27.0354   45.9383 H   0  0  0  0  0  0  0  0  0  0  0  0
   60.8248   28.3949   45.2857 H   0  0  0  0  0  0  0  0  0  0  0  0
   59.6310   30.2853   44.2032 H   0  0  0  0  0  0  0  0  0  0  0  0
   58.0702   33.9212   43.5593 H   0  0  0  0  0  0  0  0  0  0  0  0
   59.8332   35.3308   44.6411 H   0  0  0  0  0  0  0  0  0  0  0  0
   60.2562   35.1250   47.0983 H   0  0  0  0  0  0  0  0  0  0  0  0
   58.9196   33.4901   48.4403 H   0  0  0  0  0  0  0  0  0  0  0  0
   55.8316   28.5039   45.2174 H   0  0  0  0  0  0  0  0  0  0  0  0
  1  2  1  0
  2  3  1  0
  3  4  2  0
  4  5  1  0
  5  6  2  0
  6  7  1  0
  7  8  2  0
  8  9  1  0
  9 10  1  0
 10 11  1  0
 11 12  2  0
 11 13  1  0
 13 14  2  0
 14 15  1  0
 15 16  1  0
 15 17  1  0
 17 18  2  0
 18 19  1  0
 19 20  2  0
 20 21  1  0
 21 22  2  0
 21 23  2  0
 21 24  1  0
 24 25  2  3
 25 26  1  0
 26 27  2  0
 27 28  1  0
 28 29  2  0
 29 30  1  0
 20 31  1  0
 31 32  2  0
 32 33  1  0
 33 34  2  0
  8  3  1  0
 33 13  1  0
 32 17  1  0
 30 25  1  0
  1 35  1  0
  1 36  1  0
  1 37  1  0
  4 38  1  0
  5 39  1  0
  6 40  1  0
  7 41  1  0
  9 42  1  0
  9 43  1  0
 14 44  1  0
 16 45  1  0
 16 46  1  0
 16 47  1  0
 18 48  1  0
 19 49  1  0
 26 50  1  0
 27 51  1  0
 28 52  1  0
 29 53  1  0
 31 54  1  0
M  CHG  2  10  -1  30  -1
M  END
>  <UniqueID>  (59) 
56

>  <SMILES>  (59) 
COc1ccccc1C[N-]C(=O)c1cn(C)c2ccc(S(=O)(=O)N=c3cccc[n-]3)cc2c1=O

>  <Energy>  (59) 
73.79970528473748

>  <Genealogy>  (59) 
COc1ccccc1C[N-]C(=O)c1cn(C)c2ccc(S(=O)(=O)N=c3cccc[n-]3)cc2c1=O (protonated)
COc1ccccc1C[N-]C(=O)c1cn(C)c2ccc(S(=O)(=O)N=c3cccc[n-]3)cc2c1=O (3D coordinates assigned)
COc1ccccc1C[N-]C(=O)c1cn(C)c2ccc(S(=O)(=O)N=c3cccc[n-]3)cc2c1=O (optimized conformer: 73.79970528473748 kcal/mol)

>  <smiles>  (59) 
COc1ccccc1CNC(=O)c1cn(C)c2ccc(S(=O)(=O)N=c3cccc[nH]3)cc2c1=O

>  <score_type>  (59) 
oracle

>  <origin>  (59) 
adg

>  <m_score__min__energy>  (59) 
-12.58

>  <m_primary>  (59) 
energy

$$$$
59:0
     RDKit          3D

 45 48  0  0  0  0  0  0  0  0999 V2000
   59.1275   31.5409   49.9410 H   0  0  0  0  0  0  0  0  0  0  0  0
   58.9080   31.4620   48.8660 C   0  0  0  0  0  0  0  0  0  0  0  0
   58.3160   32.4890   48.2570 C   0  0  0  0  0  0  0  0  0  0  0  0
   57.8334   33.2735   48.8584 H   0  0  0  0  0  0  0  0  0  0  0  0
   58.3010   32.5850   46.7840 C   0  0  0  0  0  0  0  0  0  0  0  0
   58.9810   33.5830   46.1230 N   0  0  0  0  0  0  0  0  0  0  0  0
   59.7220   34.6120   46.8870 C   0  0  0  0  0  0  0  0  0  0  0  0
   59.8564   35.5011   46.2535 H   0  0  0  0  0  0  0  0  0  0  0  0
   59.1419   34.8602   47.7880 H   0  0  0  0  0  0  0  0  0  0  0  0
   61.0760   34.1060   47.3170 C   0  0  0  0  0  0  0  0  0  0  0  0
   61.3440   33.8680   48.6790 C   0  0  0  0  0  0  0  0  0  0  0  0
   60.5600   34.0460   49.4298 H   0  0  0  0  0  0  0  0  0  0  0  0
   62.6030   33.4060   49.0830 C   0  0  0  0  0  0  0  0  0  0  0  0
   62.8082   33.2306   50.1494 H   0  0  0  0  0  0  0  0  0  0  0  0
   63.5980   33.1680   48.1320 C   0  0  0  0  0  0  0  0  0  0  0  0
   64.5901   32.8155   48.4506 H   0  0  0  0  0  0  0  0  0  0  0  0
   63.3330   33.3780   46.7730 C   0  0  0  0  0  0  0  0  0  0  0  0
   64.1142   33.1798   46.0244 H   0  0  0  0  0  0  0  0  0  0  0  0
   62.0750   33.8400   46.3650 C   0  0  0  0  0  0  0  0  0  0  0  0
   61.8684   33.9951   45.2958 H   0  0  0  0  0  0  0  0  0  0  0  0
   58.9270   33.6480   44.7500 C   0  0  0  0  0  0  0  0  0  0  0  0
   59.5240   34.5730   44.1310 O   0  0  0  0  0  0  0  0  0  0  0  0
   58.1990   32.6910   44.0220 C   0  0  0  0  0  0  0  0  0  0  0  0
   58.1290   32.7140   42.6170 C   0  0  0  0  0  0  0  0  0  0  0  0
   58.6515   33.5019   42.0548 H   0  0  0  0  0  0  0  0  0  0  0  0
   57.3970   31.7380   41.9330 C   0  0  0  0  0  0  0  0  0  0  0  0
   57.3461   31.7598   40.8344 H   0  0  0  0  0  0  0  0  0  0  0  0
   56.7300   30.7350   42.6420 C   0  0  0  0  0  0  0  0  0  0  0  0
   56.1572   29.9677   42.1007 H   0  0  0  0  0  0  0  0  0  0  0  0
   56.7900   30.7060   44.0360 C   0  0  0  0  0  0  0  0  0  0  0  0
   56.2624   29.9167   44.5915 H   0  0  0  0  0  0  0  0  0  0  0  0
   57.5230   31.6830   44.7320 C   0  0  0  0  0  0  0  0  0  0  0  0
   57.5810   31.6610   46.0880 N   0  0  0  0  0  0  0  0  0  0  0  0
   57.0710   30.9110   46.6120 H   0  0  0  0  0  0  0  0  0  0  0  0
   59.2810   30.2230   48.1560 C   0  0  0  0  0  0  0  0  0  0  0  0
   58.5900   29.0360   48.4500 C   0  0  0  0  0  0  0  0  0  0  0  0
   57.8058   29.0361   49.2214 H   0  0  0  0  0  0  0  0  0  0  0  0
   58.8940   27.8540   47.7670 C   0  0  0  0  0  0  0  0  0  0  0  0
   58.3525   26.9267   48.0055 H   0  0  0  0  0  0  0  0  0  0  0  0
   59.8880   27.8500   46.7790 C   0  0  0  0  0  0  0  0  0  0  0  0
   60.1251   26.9194   46.2425 H   0  0  0  0  0  0  0  0  0  0  0  0
   60.5790   29.0270   46.4740 C   0  0  0  0  0  0  0  0  0  0  0  0
   61.3593   29.0214   45.6987 H   0  0  0  0  0  0  0  0  0  0  0  0
   60.2780   30.2120   47.1550 C   0  0  0  0  0  0  0  0  0  0  0  0
   60.9180   31.3510   46.8020 F   0  0  0  0  0  0  0  0  0  0  0  0
  1  2  1  0
  2  3  2  0
  3  4  1  0
  3  5  1  0
  5  6  1  0
  6  7  1  0
  7  8  1  0
  7  9  1  0
  7 10  1  0
 10 11  2  0
 11 12  1  0
 11 13  1  0
 13 14  1  0
 13 15  2  0
 15 16  1  0
 15 17  1  0
 17 18  1  0
 17 19  2  0
 19 20  1  0
  6 21  1  0
 21 22  2  0
 21 23  1  0
 23 24  2  0
 24 25  1  0
 24 26  1  0
 26 27  1  0
 26 28  2  0
 28 29  1  0
 28 30  1  0
 30 31  1  0
 30 32  2  0
 32 33  1  0
 33 34  1  0
  2 35  1  0
 35 36  2  0
 36 37  1  0
 36 38  1  0
 38 39  1  0
 38 40  2  0
 40 41  1  0
 40 42  1  0
 42 43  1  0
 42 44  2  0
 44 45  1  0
 33  5  2  0
 44 35  1  0
 19 10  1  0
 32 23  1  0
M  CHG  1  33   1
M  END
>  <UniqueID>  (60) 
57

>  <SMILES>  (60) 
O=c1c2ccccc2[nH+]c(/C=C/c2ccccc2F)n1Cc1ccccc1

>  <Energy>  (60) 
66.74797266539704

>  <Genealogy>  (60) 
O=c1c2ccccc2[nH+]c(C=Cc2ccccc2F)n1Cc1ccccc1 (protonated)
O=c1c2ccccc2[nH+]c(/C=C/c2ccccc2F)n1Cc1ccccc1 (cis-trans isomerization)
O=c1c2ccccc2[nH+]c(/C=C/c2ccccc2F)n1Cc1ccccc1 (3D coordinates assigned)
O=c1c2ccccc2[nH+]c(/C=C/c2ccccc2F)n1Cc1ccccc1 (optimized conformer: 66.74797266539704 kcal/mol)

>  <smiles>  (60) 
O=c1c2ccccc2nc(C=Cc2ccccc2F)n1Cc1ccccc1

>  <score_type>  (60) 
oracle

>  <origin>  (60) 
adg

>  <m_score__min__energy>  (60) 
-6.7400000000000002

>  <m_primary>  (60) 
energy

$$$$
60:0
     RDKit          3D

 62 65  0  0  0  0  0  0  0  0999 V2000
   56.9916   31.5943   52.9025 H   0  0  0  0  0  0  0  0  0  0  0  0
   57.5840   31.2550   52.0400 C   0  0  0  0  0  0  0  0  0  0  0  0
   58.4290   29.8010   51.9310 S   0  0  0  0  0  0  0  0  0  0  0  0
   58.9710   30.1120   50.3710 C   0  0  0  0  0  0  0  0  0  0  0  0
   59.7270   29.2940   49.7010 N   0  0  0  0  0  0  0  0  0  0  0  0
   60.2630   29.5170   48.3910 C   0  0  0  0  0  0  0  0  0  0  0  0
   60.6260   28.5250   47.7080 O   0  0  0  0  0  0  0  0  0  0  0  0
   60.3570   30.8260   47.8160 N   0  0  0  0  0  0  0  0  0  0  0  0
   61.1240   31.9250   48.3340 C   0  0  0  0  0  0  0  0  0  0  0  0
   62.4740   31.7060   48.6320 C   0  0  0  0  0  0  0  0  0  0  0  0
   62.9248   30.7235   48.4281 H   0  0  0  0  0  0  0  0  0  0  0  0
   63.2540   32.7240   49.1860 C   0  0  0  0  0  0  0  0  0  0  0  0
   64.6370   32.4820   49.5020 C   0  0  0  0  0  0  0  0  0  0  0  0
   65.7490   32.2900   49.7590 N   0  0  0  0  0  0  0  0  0  0  0  0
   62.6840   33.9750   49.4380 C   0  0  0  0  0  0  0  0  0  0  0  0
   63.2906   34.7723   49.8922 H   0  0  0  0  0  0  0  0  0  0  0  0
   61.3470   34.2160   49.1150 C   0  0  0  0  0  0  0  0  0  0  0  0
   60.9052   35.2021   49.3211 H   0  0  0  0  0  0  0  0  0  0  0  0
   60.5590   33.2060   48.5270 C   0  0  0  0  0  0  0  0  0  0  0  0
   59.2330   33.4290   48.1090 O   0  0  0  0  0  0  0  0  0  0  0  0
   58.8070   34.0760   46.9080 C   0  0  0  0  0  0  0  0  0  0  0  0
   59.5745   33.9336   46.1330 H   0  0  0  0  0  0  0  0  0  0  0  0
   58.6632   35.1452   47.1227 H   0  0  0  0  0  0  0  0  0  0  0  0
   57.4770   33.5010   46.4050 C   0  0  0  0  0  0  0  0  0  0  0  0
   56.6610   33.9175   47.0138 H   0  0  0  0  0  0  0  0  0  0  0  0
   57.5338   32.4061   46.4944 H   0  0  0  0  0  0  0  0  0  0  0  0
   57.2090   33.8300   44.9390 C   0  0  0  0  0  0  0  0  0  0  0  0
   57.6601   34.8028   44.6936 H   0  0  0  0  0  0  0  0  0  0  0  0
   56.1235   33.8740   44.7666 H   0  0  0  0  0  0  0  0  0  0  0  0
   57.7790   32.8210   44.1120 O   0  0  0  0  0  0  0  0  0  0  0  0
   57.7490   31.4510   44.4110 C   0  0  0  0  0  0  0  0  0  0  0  0
   58.8690   30.8750   45.0200 C   0  0  0  0  0  0  0  0  0  0  0  0
   59.7584   31.4912   45.2183 H   0  0  0  0  0  0  0  0  0  0  0  0
   58.8690   29.5240   45.3790 C   0  0  0  0  0  0  0  0  0  0  0  0
   59.7548   29.0877   45.8638 H   0  0  0  0  0  0  0  0  0  0  0  0
   57.7460   28.7200   45.1250 C   0  0  0  0  0  0  0  0  0  0  0  0
   57.7220   27.2990   45.5540 C   0  0  0  0  0  0  0  0  0  0  0  0
   56.5210   26.6950   45.9630 C   0  0  0  0  0  0  0  0  0  0  0  0
   55.5840   27.2705   45.9337 H   0  0  0  0  0  0  0  0  0  0  0  0
   56.5060   25.3690   46.4070 C   0  0  0  0  0  0  0  0  0  0  0  0
   55.5590   24.9083   46.7247 H   0  0  0  0  0  0  0  0  0  0  0  0
   57.6990   24.6210   46.4490 C   0  0  0  0  0  0  0  0  0  0  0  0
   57.7460   23.2920   46.9010 O   0  0  0  0  0  0  0  0  0  0  0  0
   57.4110   22.1390   46.1280 C   0  0  0  0  0  0  0  0  0  0  0  0
   56.3171   22.0250   46.1061 H   0  0  0  0  0  0  0  0  0  0  0  0
   57.8791   21.2571   46.5898 H   0  0  0  0  0  0  0  0  0  0  0  0
   57.9290   22.2750   44.6970 C   0  0  0  0  0  0  0  0  0  0  0  0
   58.9928   22.5543   44.7171 H   0  0  0  0  0  0  0  0  0  0  0  0
   57.8117   21.3156   44.1718 H   0  0  0  0  0  0  0  0  0  0  0  0
   57.3555   23.0530   44.1718 H   0  0  0  0  0  0  0  0  0  0  0  0
   58.8910   25.2160   46.0220 C   0  0  0  0  0  0  0  0  0  0  0  0
   59.8244   24.6341   46.0318 H   0  0  0  0  0  0  0  0  0  0  0  0
   58.9070   26.5430   45.5830 C   0  0  0  0  0  0  0  0  0  0  0  0
   59.8537   26.9991   45.2578 H   0  0  0  0  0  0  0  0  0  0  0  0
   56.6320   29.2910   44.4860 C   0  0  0  0  0  0  0  0  0  0  0  0
   55.7539   28.6678   44.2609 H   0  0  0  0  0  0  0  0  0  0  0  0
   56.6300   30.6440   44.1340 C   0  0  0  0  0  0  0  0  0  0  0  0
   55.7499   31.0796   43.6384 H   0  0  0  0  0  0  0  0  0  0  0  0
   58.5430   31.3190   49.9290 N   0  0  0  0  0  0  0  0  0  0  0  0
   58.7960   31.7500   49.0110 H   0  0  0  0  0  0  0  0  0  0  0  0
   57.7660   31.9520   50.8490 C   0  0  0  0  0  0  0  0  0  0  0  0
   57.3161   32.9389   50.6657 H   0  0  0  0  0  0  0  0  0  0  0  0
  1  2  1  0
  2  3  1  0
  3  4  1  0
  4  5  2  0
  5  6  1  0
  6  7  2  0
  6  8  1  0
  8  9  1  0
  9 10  2  0
 10 11  1  0
 10 12  1  0
 12 13  1  0
 13 14  3  0
 12 15  2  0
 15 16  1  0
 15 17  1  0
 17 18  1  0
 17 19  2  0
 19 20  1  0
 20 21  1  0
 21 22  1  0
 21 23  1  0
 21 24  1  0
 24 25  1  0
 24 26  1  0
 24 27  1  0
 27 28  1  0
 27 29  1  0
 27 30  1  0
 30 31  1  0
 31 32  2  0
 32 33  1  0
 32 34  1  0
 34 35  1  0
 34 36  2  0
 36 37  1  0
 37 38  2  0
 38 39  1  0
 38 40  1  0
 40 41  1  0
 40 42  2  0
 42 43  1  0
 43 44  1  0
 44 45  1  0
 44 46  1  0
 44 47  1  0
 47 48  1  0
 47 49  1  0
 47 50  1  0
 42 51  1  0
 51 52  1  0
 51 53  2  0
 53 54  1  0
 36 55  1  0
 55 56  1  0
 55 57  2  0
 57 58  1  0
  4 59  1  0
 59 60  1  0
 59 61  1  0
 61 62  1  0
 61  2  2  0
 19  9  1  0
 57 31  1  0
 53 37  1  0
M  CHG  1   8  -1
M  END
>  <UniqueID>  (61) 
58

>  <SMILES>  (61) 
CCOc1ccc(-c2ccc(OCCCOc3ccc(C#N)cc3[N-]C(=O)/N=c3\[nH]ccs3)cc2)cc1

>  <Energy>  (61) 
106.59806246268245

>  <Genealogy>  (61) 
CCOc1ccc(-c2ccc(OCCCOc3ccc(C#N)cc3[N-]C(=O)N=c3[nH]ccs3)cc2)cc1 (protonated)
CCOc1ccc(-c2ccc(OCCCOc3ccc(C#N)cc3[N-]C(=O)/N=c3\[nH]ccs3)cc2)cc1 (cis-trans isomerization)
CCOc1ccc(-c2ccc(OCCCOc3ccc(C#N)cc3[N-]C(=O)/N=c3\[nH]ccs3)cc2)cc1 (3D coordinates assigned)
CCOc1ccc(-c2ccc(OCCCOc3ccc(C#N)cc3[N-]C(=O)/N=c3\[nH]ccs3)cc2)cc1 (optimized conformer: 106.59806246268245 kcal/mol)

>  <smiles>  (61) 
CCOc1ccc(-c2ccc(OCCCOc3ccc(C#N)cc3NC(=O)N=c3[nH]ccs3)cc2)cc1

>  <score_type>  (61) 
oracle

>  <origin>  (61) 
adg

>  <m_score__min__energy>  (61) 
-10.380000000000001

>  <m_primary>  (61) 
energy

$$$$
61:0
     RDKit          3D

 47 49  0  0  0  0  0  0  0  0999 V2000
   57.0100   30.9940   42.9350 C   0  0  0  0  0  0  0  0  0  0  0  0
   56.2240   29.6890   42.9750 C   0  0  0  0  0  0  0  0  0  0  0  0
   55.9760   29.2920   44.3210 O   0  0  0  0  0  0  0  0  0  0  0  0
   56.9640   29.2970   45.3110 C   0  0  0  0  0  0  0  0  0  0  0  0
   57.3710   30.3940   45.9770 N   0  0  0  0  0  0  0  0  0  0  0  0
   58.2910   30.0120   46.8520 N   0  0  0  0  0  0  0  0  0  0  0  0
   58.8910   30.9420   47.8120 C   0  0  0  0  0  0  0  0  0  0  0  0
   59.4600   32.1480   47.0890 C   0  0  0  0  0  0  0  0  0  0  0  0
   58.5610   32.9160   46.3320 C   0  0  0  0  0  0  0  0  0  0  0  0
   58.9900   34.0700   45.6810 C   0  0  0  0  0  0  0  0  0  0  0  0
   58.1700   34.7490   45.0060 O   0  0  0  0  0  0  0  0  0  0  0  0
   60.2840   34.4680   45.7760 N   0  0  0  0  0  0  0  0  0  0  0  0
   61.2000   33.7610   46.4980 C   0  0  0  0  0  0  0  0  0  0  0  0
   62.5260   34.2130   46.5680 C   0  0  0  0  0  0  0  0  0  0  0  0
   63.4760   33.5050   47.2990 C   0  0  0  0  0  0  0  0  0  0  0  0
   63.1280   32.3310   47.9660 C   0  0  0  0  0  0  0  0  0  0  0  0
   64.1290   31.6600   48.6880 O   0  0  0  0  0  0  0  0  0  0  0  0
   64.5020   31.9670   50.0280 C   0  0  0  0  0  0  0  0  0  0  0  0
   61.8030   31.8610   47.8960 C   0  0  0  0  0  0  0  0  0  0  0  0
   60.8180   32.5710   47.1750 C   0  0  0  0  0  0  0  0  0  0  0  0
   58.4800   28.6730   46.7560 C   0  0  0  0  0  0  0  0  0  0  0  0
   59.3590   27.8510   47.6500 C   0  0  0  0  0  0  0  0  0  0  0  0
   57.6400   28.1840   45.7660 C   0  0  0  0  0  0  0  0  0  0  0  0
   57.3950   26.7590   45.3640 C   0  0  0  0  0  0  0  0  0  0  0  0
   56.2370   26.2010   46.1260 C   0  0  0  0  0  0  0  0  0  0  0  0
   55.0890   26.7010   45.9870 O   0  0  0  0  0  0  0  0  0  0  0  0
   56.4310   25.1600   47.0240 O   0  0  0  0  0  0  0  0  0  0  0  0
   57.2132   31.3313   43.9621 H   0  0  0  0  0  0  0  0  0  0  0  0
   57.9615   30.8329   42.4070 H   0  0  0  0  0  0  0  0  0  0  0  0
   56.4227   31.7597   42.4070 H   0  0  0  0  0  0  0  0  0  0  0  0
   55.2638   29.8297   42.4572 H   0  0  0  0  0  0  0  0  0  0  0  0
   56.8141   28.9051   42.4778 H   0  0  0  0  0  0  0  0  0  0  0  0
   58.1218   31.2751   48.5243 H   0  0  0  0  0  0  0  0  0  0  0  0
   59.7032   30.4293   48.3482 H   0  0  0  0  0  0  0  0  0  0  0  0
   57.5093   32.6037   46.2524 H   0  0  0  0  0  0  0  0  0  0  0  0
   60.5760   35.3420   45.2790 H   0  0  0  0  0  0  0  0  0  0  0  0
   62.8174   35.1337   46.0414 H   0  0  0  0  0  0  0  0  0  0  0  0
   64.5106   33.8751   47.3509 H   0  0  0  0  0  0  0  0  0  0  0  0
   63.8447   31.4260   50.7247 H   0  0  0  0  0  0  0  0  0  0  0  0
   65.5454   31.6626   50.1971 H   0  0  0  0  0  0  0  0  0  0  0  0
   64.4039   33.0495   50.1971 H   0  0  0  0  0  0  0  0  0  0  0  0
   61.5310   30.9274   48.4102 H   0  0  0  0  0  0  0  0  0  0  0  0
   59.1223   28.0724   48.7012 H   0  0  0  0  0  0  0  0  0  0  0  0
   59.1864   26.7828   47.4524 H   0  0  0  0  0  0  0  0  0  0  0  0
   60.4133   28.0947   47.4524 H   0  0  0  0  0  0  0  0  0  0  0  0
   57.1754   26.7177   44.2869 H   0  0  0  0  0  0  0  0  0  0  0  0
   58.2925   26.1633   45.5867 H   0  0  0  0  0  0  0  0  0  0  0  0
  1  2  1  0
  2  3  1  0
  3  4  1  0
  4  5  2  0
  5  6  1  0
  6  7  1  0
  7  8  1  0
  8  9  2  0
  9 10  1  0
 10 11  2  0
 10 12  1  0
 12 13  1  0
 13 14  2  0
 14 15  1  0
 15 16  2  0
 16 17  1  0
 17 18  1  0
 16 19  1  0
 19 20  2  0
  6 21  1  0
 21 22  1  0
 21 23  2  0
 23 24  1  0
 24 25  1  0
 25 26  2  0
 25 27  1  0
 23  4  1  0
 20  8  1  0
 20 13  1  0
  1 28  1  0
  1 29  1  0
  1 30  1  0
  2 31  1  0
  2 32  1  0
  7 33  1  0
  7 34  1  0
  9 35  1  0
 12 36  1  0
 14 37  1  0
 15 38  1  0
 18 39  1  0
 18 40  1  0
 18 41  1  0
 19 42  1  0
 22 43  1  0
 22 44  1  0
 22 45  1  0
 24 46  1  0
 24 47  1  0
M  CHG  1  27  -1
M  END
>  <UniqueID>  (62) 
59

>  <SMILES>  (62) 
CCOc1nn(Cc2cc(=O)[nH]c3ccc(OC)cc23)c(C)c1CC(=O)[O-]

>  <Energy>  (62) 
78.24948390771027

>  <Genealogy>  (62) 
CCOc1nn(Cc2cc(=O)[nH]c3ccc(OC)cc23)c(C)c1CC(=O)[O-] (protonated)
CCOc1nn(Cc2cc(=O)[nH]c3ccc(OC)cc23)c(C)c1CC(=O)[O-] (3D coordinates assigned)
CCOc1nn(Cc2cc(=O)[nH]c3ccc(OC)cc23)c(C)c1CC(=O)[O-] (optimized conformer: 78.24948390771027 kcal/mol)

>  <smiles>  (62) 
CCOc1nn(Cc2cc(=O)[nH]c3ccc(OC)cc23)c(C)c1CC(=O)O

>  <score_type>  (62) 
oracle

>  <origin>  (62) 
adg

>  <m_score__min__energy>  (62) 
-11.31

>  <m_primary>  (62) 
energy

$$$$
62:0
     RDKit          3D

 42 44  0  0  0  0  0  0  0  0999 V2000
   55.1760   27.1390   45.2290 H   0  0  0  0  0  0  0  0  0  0  0  0
   55.5910   26.4290   45.8770 N   0  0  0  0  0  0  0  0  0  0  0  0
   56.7440   26.6140   46.4320 C   0  0  0  0  0  0  0  0  0  0  0  0
   57.0860   27.8470   46.8920 N   0  0  0  0  0  0  0  0  0  0  0  0
   58.3040   28.1040   47.4400 C   0  0  0  0  0  0  0  0  0  0  0  0
   58.5760   29.4240   47.9200 N   0  0  0  0  0  0  0  0  0  0  0  0
   59.8370   29.9190   48.3940 C   0  0  0  0  0  0  0  0  0  0  0  0
   60.4360   29.2820   49.3020 O   0  0  0  0  0  0  0  0  0  0  0  0
   60.4500   31.1630   47.8760 C   0  0  0  0  0  0  0  0  0  0  0  0
   61.5370   31.6950   48.5890 C   0  0  0  0  0  0  0  0  0  0  0  0
   61.9348   31.1501   49.4578 H   0  0  0  0  0  0  0  0  0  0  0  0
   62.1180   32.9030   48.2110 C   0  0  0  0  0  0  0  0  0  0  0  0
   62.9873   33.2903   48.7626 H   0  0  0  0  0  0  0  0  0  0  0  0
   61.6010   33.6210   47.1370 C   0  0  0  0  0  0  0  0  0  0  0  0
   62.0565   34.5800   46.8491 H   0  0  0  0  0  0  0  0  0  0  0  0
   60.5060   33.1290   46.4230 C   0  0  0  0  0  0  0  0  0  0  0  0
   60.0020   33.8770   45.3630 O   0  0  0  0  0  0  0  0  0  0  0  0
   59.9230   31.8860   46.7690 C   0  0  0  0  0  0  0  0  0  0  0  0
   58.7380   31.3870   45.9580 C   0  0  0  0  0  0  0  0  0  0  0  0
   57.8830   31.2715   46.6403 H   0  0  0  0  0  0  0  0  0  0  0  0
   58.5717   32.1345   45.1683 H   0  0  0  0  0  0  0  0  0  0  0  0
   58.9550   30.0560   45.2430 C   0  0  0  0  0  0  0  0  0  0  0  0
   60.1890   29.3660   45.3420 C   0  0  0  0  0  0  0  0  0  0  0  0
   60.9879   29.7719   45.9799 H   0  0  0  0  0  0  0  0  0  0  0  0
   60.4040   28.1800   44.6420 C   0  0  0  0  0  0  0  0  0  0  0  0
   61.3642   27.6524   44.7396 H   0  0  0  0  0  0  0  0  0  0  0  0
   59.4080   27.6610   43.8200 C   0  0  0  0  0  0  0  0  0  0  0  0
   59.5851   26.7287   43.2637 H   0  0  0  0  0  0  0  0  0  0  0  0
   58.1870   28.3210   43.7010 C   0  0  0  0  0  0  0  0  0  0  0  0
   57.4028   27.9015   43.0536 H   0  0  0  0  0  0  0  0  0  0  0  0
   57.9460   29.5170   44.3990 C   0  0  0  0  0  0  0  0  0  0  0  0
   56.3640   30.2880   44.2170 S   0  0  0  0  0  0  0  0  0  0  0  0
   56.0330   30.4370   42.7610 O   0  0  0  0  0  0  0  0  0  0  0  0
   56.3800   31.6390   44.8700 O   0  0  0  0  0  0  0  0  0  0  0  0
   55.1320   29.3300   44.9640 N   0  0  0  0  0  0  0  0  0  0  0  0
   55.6120   28.5720   45.4970 H   0  0  0  0  0  0  0  0  0  0  0  0
   59.2300   27.0580   47.5830 C   0  0  0  0  0  0  0  0  0  0  0  0
   60.2088   27.2420   48.0501 H   0  0  0  0  0  0  0  0  0  0  0  0
   58.8950   25.7820   47.1260 C   0  0  0  0  0  0  0  0  0  0  0  0
   59.6128   24.9550   47.2301 H   0  0  0  0  0  0  0  0  0  0  0  0
   57.6520   25.5550   46.5380 C   0  0  0  0  0  0  0  0  0  0  0  0
   57.3881   24.5555   46.1619 H   0  0  0  0  0  0  0  0  0  0  0  0
  1  2  1  0
  2  3  2  0
  3  4  1  0
  4  5  1  0
  5  6  1  0
  6  7  1  0
  7  8  2  0
  7  9  1  0
  9 10  2  0
 10 11  1  0
 10 12  1  0
 12 13  1  0
 12 14  2  0
 14 15  1  0
 14 16  1  0
 16 17  1  0
 16 18  2  0
 18 19  1  0
 19 20  1  0
 19 21  1  0
 19 22  1  0
 22 23  2  0
 23 24  1  0
 23 25  1  0
 25 26  1  0
 25 27  2  0
 27 28  1  0
 27 29  1  0
 29 30  1  0
 29 31  2  0
 31 32  1  0
 32 33  2  0
 32 34  2  0
 32 35  1  0
 35 36  1  0
  5 37  2  0
 37 38  1  0
 37 39  1  0
 39 40  1  0
 39 41  2  0
 41 42  1  0
 41  3  1  0
 18  9  1  0
 31 22  1  0
M  CHG  4   4  -1   6  -1  17  -1  35  -1
M  END
>  <UniqueID>  (63) 
60

>  <SMILES>  (63) 
[H]/N=c1/cccc([N-]C(=O)c2cccc([O-])c2Cc2ccccc2S([NH-])(=O)=O)[n-]1

>  <Energy>  (63) 
58.17410810675487

>  <Genealogy>  (63) 
N=c1cccc([N-]C(=O)c2cccc([O-])c2Cc2ccccc2S([NH-])(=O)=O)[n-]1 (protonated)
[H]/N=c1/cccc([N-]C(=O)c2cccc([O-])c2Cc2ccccc2S([NH-])(=O)=O)[n-]1 (cis-trans isomerization)
[H]/N=c1/cccc([N-]C(=O)c2cccc([O-])c2Cc2ccccc2S([NH-])(=O)=O)[n-]1 (3D coordinates assigned)
[H]/N=c1/cccc([N-]C(=O)c2cccc([O-])c2Cc2ccccc2S([NH-])(=O)=O)[n-]1 (optimized conformer: 58.17410810675487 kcal/mol)

>  <smiles>  (63) 
N=c1cccc(NC(=O)c2cccc(O)c2Cc2ccccc2S(N)(=O)=O)[nH]1

>  <score_type>  (63) 
oracle

>  <origin>  (63) 
adg

>  <m_score__min__energy>  (63) 
-15.24

>  <m_primary>  (63) 
energy

$$$$
63:0
     RDKit          3D

 49 52  0  0  0  0  0  0  0  0999 V2000
   59.8524   29.8340   44.6058 H   0  0  0  0  0  0  0  0  0  0  0  0
   59.3770   29.5630   45.5600 C   0  0  0  0  0  0  0  0  0  0  0  0
   58.1950   28.9290   45.5070 C   0  0  0  0  0  0  0  0  0  0  0  0
   58.0630   27.1830   45.9080 S   0  0  0  0  0  0  0  0  0  0  0  0
   56.2860   27.3460   45.7020 C   0  0  0  0  0  0  0  0  0  0  0  0
   55.4930   26.4070   45.9760 O   0  0  0  0  0  0  0  0  0  0  0  0
   55.8120   28.6010   45.2350 N   0  0  0  0  0  0  0  0  0  0  0  0
   56.9020   29.4960   45.1000 C   0  0  0  0  0  0  0  0  0  0  0  0
   56.7490   30.6470   44.6140 O   0  0  0  0  0  0  0  0  0  0  0  0
   60.0870   29.9240   46.8040 C   0  0  0  0  0  0  0  0  0  0  0  0
   59.8510   29.2330   48.0030 C   0  0  0  0  0  0  0  0  0  0  0  0
   59.0940   28.4355   48.0342 H   0  0  0  0  0  0  0  0  0  0  0  0
   60.5720   29.5520   49.1580 C   0  0  0  0  0  0  0  0  0  0  0  0
   60.3624   29.0219   50.0988 H   0  0  0  0  0  0  0  0  0  0  0  0
   61.5660   30.5500   49.1210 C   0  0  0  0  0  0  0  0  0  0  0  0
   62.3320   30.9000   50.2450 O   0  0  0  0  0  0  0  0  0  0  0  0
   61.8200   31.1210   51.5620 C   0  0  0  0  0  0  0  0  0  0  0  0
   62.6567   31.1155   52.2760 H   0  0  0  0  0  0  0  0  0  0  0  0
   61.1028   30.3192   51.7917 H   0  0  0  0  0  0  0  0  0  0  0  0
   61.0870   32.4650   51.6640 C   0  0  0  0  0  0  0  0  0  0  0  0
   61.8076   33.2792   51.4970 H   0  0  0  0  0  0  0  0  0  0  0  0
   60.6388   32.5396   52.6658 H   0  0  0  0  0  0  0  0  0  0  0  0
   59.9860   32.5690   50.6440 C   0  0  0  0  0  0  0  0  0  0  0  0
   60.1530   33.1180   49.4250 N   0  0  0  0  0  0  0  0  0  0  0  0
   58.9340   33.0020   48.8550 C   0  0  0  0  0  0  0  0  0  0  0  0
   58.6270   33.4590   47.4860 C   0  0  0  0  0  0  0  0  0  0  0  0
   59.5420   34.2610   46.7760 C   0  0  0  0  0  0  0  0  0  0  0  0
   60.4902   34.5582   47.2478 H   0  0  0  0  0  0  0  0  0  0  0  0
   59.2510   34.6810   45.4750 C   0  0  0  0  0  0  0  0  0  0  0  0
   59.9714   35.3044   44.9250 H   0  0  0  0  0  0  0  0  0  0  0  0
   58.0460   34.3100   44.8720 C   0  0  0  0  0  0  0  0  0  0  0  0
   57.8183   34.6422   43.8484 H   0  0  0  0  0  0  0  0  0  0  0  0
   57.1300   33.5170   45.5690 C   0  0  0  0  0  0  0  0  0  0  0  0
   56.1811   33.2278   45.0937 H   0  0  0  0  0  0  0  0  0  0  0  0
   57.4180   33.0900   46.8710 C   0  0  0  0  0  0  0  0  0  0  0  0
   56.6955   32.4635   47.4146 H   0  0  0  0  0  0  0  0  0  0  0  0
   58.0550   32.4290   49.6510 O   0  0  0  0  0  0  0  0  0  0  0  0
   58.6740   32.1500   50.7720 C   0  0  0  0  0  0  0  0  0  0  0  0
   58.0310   31.4570   51.9360 C   0  0  0  0  0  0  0  0  0  0  0  0
   58.1113   32.0973   52.8268 H   0  0  0  0  0  0  0  0  0  0  0  0
   58.5459   30.5000   52.1063 H   0  0  0  0  0  0  0  0  0  0  0  0
   56.5590   31.1780   51.6510 C   0  0  0  0  0  0  0  0  0  0  0  0
   56.0147   31.0748   52.6013 H   0  0  0  0  0  0  0  0  0  0  0  0
   56.1330   32.0114   51.0731 H   0  0  0  0  0  0  0  0  0  0  0  0
   56.4676   30.2465   51.0731 H   0  0  0  0  0  0  0  0  0  0  0  0
   61.8120   31.2220   47.9180 C   0  0  0  0  0  0  0  0  0  0  0  0
   62.5799   32.0087   47.8808 H   0  0  0  0  0  0  0  0  0  0  0  0
   61.0910   30.9030   46.7630 C   0  0  0  0  0  0  0  0  0  0  0  0
   61.3120   31.4218   45.8185 H   0  0  0  0  0  0  0  0  0  0  0  0
  1  2  1  0
  2  3  2  0
  3  4  1  0
  4  5  1  0
  5  6  2  0
  5  7  1  0
  7  8  1  0
  8  9  2  0
  2 10  1  0
 10 11  2  0
 11 12  1  0
 11 13  1  0
 13 14  1  0
 13 15  2  0
 15 16  1  0
 16 17  1  0
 17 18  1  0
 17 19  1  0
 17 20  1  0
 20 21  1  0
 20 22  1  0
 20 23  1  0
 23 24  1  0
 24 25  2  0
 25 26  1  0
 26 27  2  0
 27 28  1  0
 27 29  1  0
 29 30  1  0
 29 31  2  0
 31 32  1  0
 31 33  1  0
 33 34  1  0
 33 35  2  0
 35 36  1  0
 25 37  1  0
 37 38  1  0
 38 39  1  0
 39 40  1  0
 39 41  1  0
 39 42  1  0
 42 43  1  0
 42 44  1  0
 42 45  1  0
 15 46  1  0
 46 47  1  0
 46 48  2  0
 48 49  1  0
  8  3  1  0
 48 10  1  0
 38 23  2  0
 35 26  1  0
M  CHG  1   7  -1
M  END
>  <UniqueID>  (64) 
61

>  <SMILES>  (64) 
CCc1oc(-c2ccccc2)nc1CCOc1ccc(/C=C2/SC(=O)[N-]C2=O)cc1

>  <Energy>  (64) 
103.14535521110592

>  <Genealogy>  (64) 
CCc1oc(-c2ccccc2)nc1CCOc1ccc(C=C2SC(=O)[N-]C2=O)cc1 (protonated)
CCc1oc(-c2ccccc2)nc1CCOc1ccc(/C=C2/SC(=O)[N-]C2=O)cc1 (cis-trans isomerization)
CCc1oc(-c2ccccc2)nc1CCOc1ccc(/C=C2/SC(=O)[N-]C2=O)cc1 (3D coordinates assigned)
CCc1oc(-c2ccccc2)nc1CCOc1ccc(/C=C2/SC(=O)[N-]C2=O)cc1 (nonaromatic ring conformer: 103.14535521110592 kcal/mol)

>  <smiles>  (64) 
CCc1oc(-c2ccccc2)nc1CCOc1ccc(C=C2SC(=O)NC2=O)cc1

>  <score_type>  (64) 
oracle

>  <origin>  (64) 
adg

>  <m_score__min__energy>  (64) 
-11

>  <m_primary>  (64) 
energy

$$$$
64:0
     RDKit          3D

 40 42  0  0  0  0  0  0  0  0999 V2000
   51.0150   24.6500   44.3500 C   0  0  0  0  0  0  0  0  0  0  0  0
   52.0160   23.6860   44.8910 C   0  0  0  0  0  0  0  0  0  0  0  0
   53.3360   23.9610   45.1760 C   0  0  0  0  0  0  0  0  0  0  0  0
   53.8070   22.7470   45.6410 C   0  0  0  0  0  0  0  0  0  0  0  0
   55.0150   22.4820   46.0380 N   0  0  0  0  0  0  0  0  0  0  0  0
   56.4450   22.8310   45.1190 S   0  0  0  0  0  0  0  0  0  0  0  0
   56.2660   22.3230   43.7160 O   0  0  0  0  0  0  0  0  0  0  0  0
   57.6150   22.1280   45.7480 O   0  0  0  0  0  0  0  0  0  0  0  0
   56.7190   24.5690   45.0650 C   0  0  0  0  0  0  0  0  0  0  0  0
   57.5370   25.1310   44.0760 C   0  0  0  0  0  0  0  0  0  0  0  0
   57.7650   26.5090   44.0490 C   0  0  0  0  0  0  0  0  0  0  0  0
   57.1630   27.3480   45.0050 C   0  0  0  0  0  0  0  0  0  0  0  0
   57.4040   28.7650   45.0180 N   0  0  0  0  0  0  0  0  0  0  0  0
   56.3980   29.7550   44.7530 C   0  0  0  0  0  0  0  0  0  0  0  0
   55.1780   29.4750   44.9060 O   0  0  0  0  0  0  0  0  0  0  0  0
   56.7620   31.0970   44.4120 N   0  0  0  0  0  0  0  0  0  0  0  0
   57.6180   31.9570   45.1750 C   0  0  0  0  0  0  0  0  0  0  0  0
   58.1460   31.4860   46.3850 C   0  0  0  0  0  0  0  0  0  0  0  0
   58.9650   32.3090   47.1660 C   0  0  0  0  0  0  0  0  0  0  0  0
   59.2500   33.6120   46.7500 C   0  0  0  0  0  0  0  0  0  0  0  0
   58.7060   34.0990   45.5570 C   0  0  0  0  0  0  0  0  0  0  0  0
   58.9660   35.3710   45.1650 F   0  0  0  0  0  0  0  0  0  0  0  0
   57.8870   33.2800   44.7740 C   0  0  0  0  0  0  0  0  0  0  0  0
   56.3580   26.7770   46.0020 C   0  0  0  0  0  0  0  0  0  0  0  0
   56.1300   25.3990   46.0280 C   0  0  0  0  0  0  0  0  0  0  0  0
   52.8250   21.8270   45.6300 N   0  0  0  0  0  0  0  0  0  0  0  0
   51.7640   22.4280   45.1730 O   0  0  0  0  0  0  0  0  0  0  0  0
   50.4979   25.1480   45.1834 H   0  0  0  0  0  0  0  0  0  0  0  0
   51.5274   25.4035   43.7338 H   0  0  0  0  0  0  0  0  0  0  0  0
   50.2814   24.1096   43.7338 H   0  0  0  0  0  0  0  0  0  0  0  0
   53.8798   24.9104   45.0619 H   0  0  0  0  0  0  0  0  0  0  0  0
   58.0018   24.4842   43.3173 H   0  0  0  0  0  0  0  0  0  0  0  0
   58.4185   26.9404   43.2765 H   0  0  0  0  0  0  0  0  0  0  0  0
   58.3480   29.1010   45.3170 H   0  0  0  0  0  0  0  0  0  0  0  0
   57.9155   30.4647   46.7222 H   0  0  0  0  0  0  0  0  0  0  0  0
   59.3852   31.9295   48.1091 H   0  0  0  0  0  0  0  0  0  0  0  0
   59.9018   34.2544   47.3603 H   0  0  0  0  0  0  0  0  0  0  0  0
   57.4515   33.6700   43.8422 H   0  0  0  0  0  0  0  0  0  0  0  0
   55.9025   27.4197   46.7697 H   0  0  0  0  0  0  0  0  0  0  0  0
   55.4862   24.9643   46.8068 H   0  0  0  0  0  0  0  0  0  0  0  0
  1  2  1  0
  2  3  2  0
  3  4  1  0
  4  5  2  3
  5  6  1  0
  6  7  2  0
  6  8  2  0
  6  9  1  0
  9 10  2  0
 10 11  1  0
 11 12  2  0
 12 13  1  0
 13 14  1  0
 14 15  2  0
 14 16  1  0
 16 17  1  0
 17 18  2  0
 18 19  1  0
 19 20  2  0
 20 21  1  0
 21 22  1  0
 21 23  2  0
 12 24  1  0
 24 25  2  0
  4 26  1  0
 26 27  1  0
 27  2  1  0
 25  9  1  0
 23 17  1  0
  1 28  1  0
  1 29  1  0
  1 30  1  0
  3 31  1  0
 10 32  1  0
 11 33  1  0
 13 34  1  0
 18 35  1  0
 19 36  1  0
 20 37  1  0
 23 38  1  0
 24 39  1  0
 25 40  1  0
M  CHG  2  16  -1  26  -1
M  END
>  <UniqueID>  (65) 
62

>  <SMILES>  (65) 
Cc1cc(=NS(=O)(=O)c2ccc(NC(=O)[N-]c3cccc(F)c3)cc2)[n-]o1

>  <Energy>  (65) 
82.282461928396

>  <Genealogy>  (65) 
Cc1cc(=NS(=O)(=O)c2ccc(NC(=O)[N-]c3cccc(F)c3)cc2)[n-]o1 (protonated)
Cc1cc(=NS(=O)(=O)c2ccc(NC(=O)[N-]c3cccc(F)c3)cc2)[n-]o1 (3D coordinates assigned)
Cc1cc(=NS(=O)(=O)c2ccc(NC(=O)[N-]c3cccc(F)c3)cc2)[n-]o1 (optimized conformer: 82.282461928396 kcal/mol)

>  <smiles>  (65) 
Cc1cc(=NS(=O)(=O)c2ccc(NC(=O)Nc3cccc(F)c3)cc2)[nH]o1

>  <score_type>  (65) 
oracle

>  <origin>  (65) 
adg

>  <m_score__min__energy>  (65) 
-11.789999999999999

>  <m_primary>  (65) 
energy

$$$$
65:0
     RDKit          3D

 43 45  0  0  0  0  0  0  0  0999 V2000
   61.0580   33.8040   51.3930 N   0  0  0  0  0  0  0  0  0  0  0  0
   61.1440   33.8060   50.2390 C   0  0  0  0  0  0  0  0  0  0  0  0
   61.2530   33.8080   48.7960 C   0  0  0  0  0  0  0  0  0  0  0  0
   62.3380   33.1900   48.1420 C   0  0  0  0  0  0  0  0  0  0  0  0
   63.4470   32.4790   48.8910 C   0  0  0  0  0  0  0  0  0  0  0  0
   63.0580   31.1500   49.2390 O   0  0  0  0  0  0  0  0  0  0  0  0
   61.7420   30.6580   49.2070 C   0  0  0  0  0  0  0  0  0  0  0  0
   60.9550   30.5140   50.3670 C   0  0  0  0  0  0  0  0  0  0  0  0
   59.6470   30.0310   50.2750 C   0  0  0  0  0  0  0  0  0  0  0  0
   59.1110   29.6870   49.0310 C   0  0  0  0  0  0  0  0  0  0  0  0
   59.8880   29.8200   47.8770 C   0  0  0  0  0  0  0  0  0  0  0  0
   61.1970   30.3020   47.9660 C   0  0  0  0  0  0  0  0  0  0  0  0
   62.4020   33.2680   46.7470 C   0  0  0  0  0  0  0  0  0  0  0  0
   61.4110   33.8800   46.0550 N   0  0  0  0  0  0  0  0  0  0  0  0
   60.3630   34.4450   46.6610 N   0  0  0  0  0  0  0  0  0  0  0  0
   59.3110   35.0270   45.8210 C   0  0  0  0  0  0  0  0  0  0  0  0
   58.4020   33.9470   45.3170 C   0  0  0  0  0  0  0  0  0  0  0  0
   57.1880   34.2100   45.1060 O   0  0  0  0  0  0  0  0  0  0  0  0
   58.9020   32.6100   45.1550 N   0  0  0  0  0  0  0  0  0  0  0  0
   58.1310   31.5220   44.6180 C   0  0  0  0  0  0  0  0  0  0  0  0
   57.4620   31.6900   43.3960 C   0  0  0  0  0  0  0  0  0  0  0  0
   56.6910   30.6530   42.8640 C   0  0  0  0  0  0  0  0  0  0  0  0
   56.5680   29.4450   43.5540 C   0  0  0  0  0  0  0  0  0  0  0  0
   57.2100   29.2750   44.7840 C   0  0  0  0  0  0  0  0  0  0  0  0
   57.0340   27.7670   45.6640 Cl  0  0  0  0  0  0  0  0  0  0  0  0
   57.9860   30.3100   45.3190 C   0  0  0  0  0  0  0  0  0  0  0  0
   60.2570   34.4290   48.0260 C   0  0  0  0  0  0  0  0  0  0  0  0
   59.2650   34.9680   48.5940 O   0  0  0  0  0  0  0  0  0  0  0  0
   64.3423   32.4366   48.2533 H   0  0  0  0  0  0  0  0  0  0  0  0
   63.6590   33.0360   49.8156 H   0  0  0  0  0  0  0  0  0  0  0  0
   61.3719   30.7829   51.3488 H   0  0  0  0  0  0  0  0  0  0  0  0
   59.0376   29.9212   51.1842 H   0  0  0  0  0  0  0  0  0  0  0  0
   58.0793   29.3122   48.9603 H   0  0  0  0  0  0  0  0  0  0  0  0
   59.4690   29.5451   46.8978 H   0  0  0  0  0  0  0  0  0  0  0  0
   61.8044   30.4027   47.0544 H   0  0  0  0  0  0  0  0  0  0  0  0
   63.2580   32.8319   46.2111 H   0  0  0  0  0  0  0  0  0  0  0  0
   58.7278   35.7469   46.4140 H   0  0  0  0  0  0  0  0  0  0  0  0
   59.7742   35.5384   44.9643 H   0  0  0  0  0  0  0  0  0  0  0  0
   59.8410   32.3900   45.5580 H   0  0  0  0  0  0  0  0  0  0  0  0
   57.5449   32.6434   42.8537 H   0  0  0  0  0  0  0  0  0  0  0  0
   56.1798   30.7885   41.8995 H   0  0  0  0  0  0  0  0  0  0  0  0
   55.9662   28.6278   43.1298 H   0  0  0  0  0  0  0  0  0  0  0  0
   58.4841   30.1757   46.2905 H   0  0  0  0  0  0  0  0  0  0  0  0
  1  2  3  0
  2  3  1  0
  3  4  2  0
  4  5  1  0
  5  6  1  0
  6  7  1  0
  7  8  2  0
  8  9  1  0
  9 10  2  0
 10 11  1  0
 11 12  2  0
  4 13  1  0
 13 14  2  0
 14 15  1  0
 15 16  1  0
 16 17  1  0
 17 18  2  0
 17 19  1  0
 19 20  1  0
 20 21  2  0
 21 22  1  0
 22 23  2  0
 23 24  1  0
 24 25  1  0
 24 26  2  0
 15 27  1  0
 27 28  2  0
 27  3  1  0
 12  7  1  0
 26 20  1  0
  5 29  1  0
  5 30  1  0
  8 31  1  0
  9 32  1  0
 10 33  1  0
 11 34  1  0
 12 35  1  0
 13 36  1  0
 16 37  1  0
 16 38  1  0
 19 39  1  0
 21 40  1  0
 22 41  1  0
 23 42  1  0
 26 43  1  0
M  END
>  <UniqueID>  (66) 
63

>  <SMILES>  (66) 
N#Cc1c(COc2ccccc2)cnn(CC(=O)Nc2cccc(Cl)c2)c1=O

>  <Energy>  (66) 
50.65492364026849

>  <Genealogy>  (66) 
N#Cc1c(COc2ccccc2)cnn(CC(=O)Nc2cccc(Cl)c2)c1=O (3D coordinates assigned)
N#Cc1c(COc2ccccc2)cnn(CC(=O)Nc2cccc(Cl)c2)c1=O (optimized conformer: 50.65492364026849 kcal/mol)

>  <smiles>  (66) 
N#Cc1c(COc2ccccc2)cnn(CC(=O)Nc2cccc(Cl)c2)c1=O

>  <score_type>  (66) 
oracle

>  <origin>  (66) 
adg

>  <m_score__min__energy>  (66) 
-8.4800000000000004

>  <m_primary>  (66) 
energy

$$$$
66:0
     RDKit          3D

 36 37  0  0  0  0  0  0  0  0999 V2000
   56.8480   25.4350   46.6770 C   0  0  0  0  0  0  0  0  0  0  0  0
   56.1310   26.3550   46.0240 C   0  0  0  0  0  0  0  0  0  0  0  0
   56.7240   27.6750   45.6270 C   0  0  0  0  0  0  0  0  0  0  0  0
   55.6680   28.5850   45.2090 N   0  0  0  0  0  0  0  0  0  0  0  0
   55.9150   29.7290   44.3870 C   0  0  0  0  0  0  0  0  0  0  0  0
   55.2050   30.7640   44.5010 O   0  0  0  0  0  0  0  0  0  0  0  0
   57.0040   29.6860   43.3650 C   0  0  0  0  0  0  0  0  0  0  0  0
   58.3170   30.8880   43.7660 S   0  0  0  0  0  0  0  0  0  0  0  0
   59.1690   29.8010   44.9140 C   0  0  0  0  0  0  0  0  0  0  0  0
   59.8580   28.7150   44.5070 N   0  0  0  0  0  0  0  0  0  0  0  0
   60.3480   28.1890   45.6490 C   0  0  0  0  0  0  0  0  0  0  0  0
   59.9480   28.9550   46.7200 C   0  0  0  0  0  0  0  0  0  0  0  0
   59.2080   29.9750   46.2530 N   0  0  0  0  0  0  0  0  0  0  0  0
   58.5170   30.9860   47.0570 C   0  0  0  0  0  0  0  0  0  0  0  0
   58.8250   32.3680   46.5340 C   0  0  0  0  0  0  0  0  0  0  0  0
   57.8020   33.1000   45.9070 C   0  0  0  0  0  0  0  0  0  0  0  0
   58.0360   34.3980   45.4460 C   0  0  0  0  0  0  0  0  0  0  0  0
   59.2930   34.9830   45.6090 C   0  0  0  0  0  0  0  0  0  0  0  0
   60.3190   34.2710   46.2350 C   0  0  0  0  0  0  0  0  0  0  0  0
   60.0960   32.9670   46.6990 C   0  0  0  0  0  0  0  0  0  0  0  0
   61.4370   32.1260   47.4690 Cl  0  0  0  0  0  0  0  0  0  0  0  0
   56.3881   24.4755   46.9560 H   0  0  0  0  0  0  0  0  0  0  0  0
   57.8979   25.6375   46.9354 H   0  0  0  0  0  0  0  0  0  0  0  0
   55.0822   26.1395   45.7719 H   0  0  0  0  0  0  0  0  0  0  0  0
   57.2599   28.1072   46.4849 H   0  0  0  0  0  0  0  0  0  0  0  0
   57.4230   27.5222   44.7915 H   0  0  0  0  0  0  0  0  0  0  0  0
   57.4361   28.6747   43.3408 H   0  0  0  0  0  0  0  0  0  0  0  0
   56.5775   29.9438   42.3844 H   0  0  0  0  0  0  0  0  0  0  0  0
   60.9721   27.2855   45.7139 H   0  0  0  0  0  0  0  0  0  0  0  0
   60.1918   28.7652   47.7757 H   0  0  0  0  0  0  0  0  0  0  0  0
   57.4321   30.8116   47.0059 H   0  0  0  0  0  0  0  0  0  0  0  0
   58.8606   30.9119   48.0993 H   0  0  0  0  0  0  0  0  0  0  0  0
   56.8080   32.6468   45.7781 H   0  0  0  0  0  0  0  0  0  0  0  0
   57.2285   34.9599   44.9538 H   0  0  0  0  0  0  0  0  0  0  0  0
   59.4756   36.0047   45.2445 H   0  0  0  0  0  0  0  0  0  0  0  0
   61.3074   34.7361   46.3646 H   0  0  0  0  0  0  0  0  0  0  0  0
  1  2  2  0
  2  3  1  0
  3  4  1  0
  4  5  1  0
  5  6  2  0
  5  7  1  0
  7  8  1  0
  8  9  1  0
  9 10  2  0
 10 11  1  0
 11 12  2  0
 12 13  1  0
 13 14  1  0
 14 15  1  0
 15 16  2  0
 16 17  1  0
 17 18  2  0
 18 19  1  0
 19 20  2  0
 20 21  1  0
 13  9  1  0
 20 15  1  0
  1 22  1  0
  1 23  1  0
  2 24  1  0
  3 25  1  0
  3 26  1  0
  7 27  1  0
  7 28  1  0
 11 29  1  0
 12 30  1  0
 14 31  1  0
 14 32  1  0
 16 33  1  0
 17 34  1  0
 18 35  1  0
 19 36  1  0
M  CHG  1   4  -1
M  END
>  <UniqueID>  (67) 
64

>  <SMILES>  (67) 
C=CC[N-]C(=O)CSc1nccn1Cc1ccccc1Cl

>  <Energy>  (67) 
52.61789026231863

>  <Genealogy>  (67) 
C=CC[N-]C(=O)CSc1nccn1Cc1ccccc1Cl (protonated)
C=CC[N-]C(=O)CSc1nccn1Cc1ccccc1Cl (3D coordinates assigned)
C=CC[N-]C(=O)CSc1nccn1Cc1ccccc1Cl (optimized conformer: 52.61789026231863 kcal/mol)

>  <smiles>  (67) 
C=CCNC(=O)CSc1nccn1Cc1ccccc1Cl

>  <score_type>  (67) 
oracle

>  <origin>  (67) 
adg

>  <m_score__min__energy>  (67) 
-9.0700000000000003

>  <m_primary>  (67) 
energy

$$$$
67:0
     RDKit          3D

 40 42  0  0  0  0  0  0  0  0999 V2000
   58.5850   29.5560   47.8180 C   0  0  0  0  0  0  0  0  0  0  0  0
   58.6450   29.4730   46.3570 N   0  0  0  0  0  0  0  0  0  0  0  0
   58.5220   28.3540   45.6090 C   0  0  0  0  0  0  0  0  0  0  0  0
   58.3840   26.9830   46.1440 C   0  0  0  0  0  0  0  0  0  0  0  0
   57.2050   26.3140   46.1590 C   0  0  0  0  0  0  0  0  0  0  0  0
   55.9010   26.9440   45.8140 C   0  0  0  0  0  0  0  0  0  0  0  0
   54.8140   26.3360   46.0000 O   0  0  0  0  0  0  0  0  0  0  0  0
   55.8690   28.2080   45.2390 O   0  0  0  0  0  0  0  0  0  0  0  0
   57.2190   24.8740   46.6240 C   0  0  0  0  0  0  0  0  0  0  0  0
   58.3830   24.0960   45.9870 C   0  0  0  0  0  0  0  0  0  0  0  0
   59.7220   24.8740   45.9690 C   0  0  0  0  0  0  0  0  0  0  0  0
   59.6280   26.2680   46.6080 C   0  0  0  0  0  0  0  0  0  0  0  0
   58.5590   28.6670   44.2630 C   0  0  0  0  0  0  0  0  0  0  0  0
   58.6930   30.0380   44.1850 C   0  0  0  0  0  0  0  0  0  0  0  0
   58.7310   30.5070   45.4870 C   0  0  0  0  0  0  0  0  0  0  0  0
   58.7930   31.9380   45.8620 C   0  0  0  0  0  0  0  0  0  0  0  0
   57.7490   32.7950   45.4690 C   0  0  0  0  0  0  0  0  0  0  0  0
   57.7890   34.1530   45.7900 C   0  0  0  0  0  0  0  0  0  0  0  0
   58.8710   34.6730   46.5020 C   0  0  0  0  0  0  0  0  0  0  0  0
   59.9190   33.8370   46.8940 C   0  0  0  0  0  0  0  0  0  0  0  0
   59.8890   32.4710   46.5780 C   0  0  0  0  0  0  0  0  0  0  0  0
   60.9750   31.6330   47.0280 C   0  0  0  0  0  0  0  0  0  0  0  0
   61.8460   30.9600   47.3880 N   0  0  0  0  0  0  0  0  0  0  0  0
   59.1761   28.7384   48.2563 H   0  0  0  0  0  0  0  0  0  0  0  0
   58.9948   30.5222   48.1475 H   0  0  0  0  0  0  0  0  0  0  0  0
   57.5391   29.4698   48.1475 H   0  0  0  0  0  0  0  0  0  0  0  0
   57.3283   24.8512   47.7183 H   0  0  0  0  0  0  0  0  0  0  0  0
   56.2744   24.3999   46.3190 H   0  0  0  0  0  0  0  0  0  0  0  0
   58.5303   23.1660   46.5557 H   0  0  0  0  0  0  0  0  0  0  0  0
   58.1073   23.9105   44.9384 H   0  0  0  0  0  0  0  0  0  0  0  0
   60.4727   24.2882   46.5197 H   0  0  0  0  0  0  0  0  0  0  0  0
   59.9985   25.0189   44.9142 H   0  0  0  0  0  0  0  0  0  0  0  0
   59.5971   26.1624   47.7025 H   0  0  0  0  0  0  0  0  0  0  0  0
   60.5076   26.8558   46.3066 H   0  0  0  0  0  0  0  0  0  0  0  0
   58.4944   27.9624   43.4208 H   0  0  0  0  0  0  0  0  0  0  0  0
   58.7571   30.6409   43.2672 H   0  0  0  0  0  0  0  0  0  0  0  0
   56.8950   32.3922   44.9047 H   0  0  0  0  0  0  0  0  0  0  0  0
   56.9662   34.8145   45.4812 H   0  0  0  0  0  0  0  0  0  0  0  0
   58.8984   35.7432   46.7549 H   0  0  0  0  0  0  0  0  0  0  0  0
   60.7711   34.2516   47.4527 H   0  0  0  0  0  0  0  0  0  0  0  0
  1  2  1  0
  2  3  1  0
  3  4  1  0
  4  5  2  0
  5  6  1  0
  6  7  2  0
  6  8  1  0
  5  9  1  0
  9 10  1  0
 10 11  1  0
 11 12  1  0
  3 13  2  0
 13 14  1  0
 14 15  2  0
 15 16  1  0
 16 17  2  0
 17 18  1  0
 18 19  2  0
 19 20  1  0
 20 21  2  0
 21 22  1  0
 22 23  3  0
 15  2  1  0
 21 16  1  0
 12  4  1  0
  1 24  1  0
  1 25  1  0
  1 26  1  0
  9 27  1  0
  9 28  1  0
 10 29  1  0
 10 30  1  0
 11 31  1  0
 11 32  1  0
 12 33  1  0
 12 34  1  0
 13 35  1  0
 14 36  1  0
 17 37  1  0
 18 38  1  0
 19 39  1  0
 20 40  1  0
M  CHG  1   8  -1
M  END
>  <UniqueID>  (68) 
65

>  <SMILES>  (68) 
Cn1c(C2=C(C(=O)[O-])CCCC2)ccc1-c1ccccc1C#N

>  <Energy>  (68) 
87.16288598670944

>  <Genealogy>  (68) 
Cn1c(C2=C(C(=O)[O-])CCCC2)ccc1-c1ccccc1C#N (protonated)
Cn1c(C2=C(C(=O)[O-])CCCC2)ccc1-c1ccccc1C#N (3D coordinates assigned)
Cn1c(C2=C(C(=O)[O-])CCCC2)ccc1-c1ccccc1C#N (nonaromatic ring conformer: 87.16288598670944 kcal/mol)

>  <smiles>  (68) 
Cn1c(C2=C(C(=O)O)CCCC2)ccc1-c1ccccc1C#N

>  <score_type>  (68) 
oracle

>  <origin>  (68) 
adg

>  <m_score__min__energy>  (68) 
-10.82

>  <m_primary>  (68) 
energy

$$$$
68:0
     RDKit          3D

 32 34  0  0  0  0  0  0  0  0999 V2000
   56.9410   30.8720   42.5150 N   0  0  0  0  0  0  0  0  0  0  0  0
   56.6090   29.4240   43.4030 S   0  0  0  0  0  0  0  0  0  0  0  0
   55.1290   29.3530   43.6580 O   0  0  0  0  0  0  0  0  0  0  0  0
   57.0380   28.2390   42.5830 O   0  0  0  0  0  0  0  0  0  0  0  0
   57.4870   29.4310   44.9400 C   0  0  0  0  0  0  0  0  0  0  0  0
   57.6950   28.2080   45.5970 C   0  0  0  0  0  0  0  0  0  0  0  0
   58.4580   28.1470   46.7660 C   0  0  0  0  0  0  0  0  0  0  0  0
   58.7350   26.5730   47.5760 S   0  0  0  0  0  0  0  0  0  0  0  0
   57.6140   25.7200   46.4750 C   0  0  0  0  0  0  0  0  0  0  0  0
   58.0300   25.1290   45.3250 N   0  0  0  0  0  0  0  0  0  0  0  0
   56.8910   24.6100   44.8440 C   0  0  0  0  0  0  0  0  0  0  0  0
   56.7170   23.8780   43.6720 C   0  0  0  0  0  0  0  0  0  0  0  0
   55.4180   23.4280   43.3690 C   0  0  0  0  0  0  0  0  0  0  0  0
   54.3410   23.7190   44.2390 C   0  0  0  0  0  0  0  0  0  0  0  0
   54.5560   24.4620   45.4160 C   0  0  0  0  0  0  0  0  0  0  0  0
   55.8550   24.8900   45.6810 C   0  0  0  0  0  0  0  0  0  0  0  0
   56.2870   25.5990   46.7330 N   0  0  0  0  0  0  0  0  0  0  0  0
   59.0160   29.3120   47.2950 C   0  0  0  0  0  0  0  0  0  0  0  0
   58.8040   30.5380   46.6630 C   0  0  0  0  0  0  0  0  0  0  0  0
   58.0270   30.6200   45.4950 C   0  0  0  0  0  0  0  0  0  0  0  0
   57.8020   31.9090   44.9020 N   0  0  0  0  0  0  0  0  0  0  0  0
   58.5490   32.3240   43.9920 O   0  0  0  0  0  0  0  0  0  0  0  0
   56.6340   32.5880   45.1610 O   0  0  0  0  0  0  0  0  0  0  0  0
   56.6720   31.6750   43.1260 H   0  0  0  0  0  0  0  0  0  0  0  0
   57.9760   30.9230   42.3880 H   0  0  0  0  0  0  0  0  0  0  0  0
   57.2527   27.2880   45.1872 H   0  0  0  0  0  0  0  0  0  0  0  0
   57.5650   23.6591   43.0064 H   0  0  0  0  0  0  0  0  0  0  0  0
   55.2396   22.8476   42.4518 H   0  0  0  0  0  0  0  0  0  0  0  0
   53.3294   23.3627   43.9947 H   0  0  0  0  0  0  0  0  0  0  0  0
   53.7280   24.6959   46.1014 H   0  0  0  0  0  0  0  0  0  0  0  0
   59.6234   29.2636   48.2108 H   0  0  0  0  0  0  0  0  0  0  0  0
   59.2504   31.4509   47.0841 H   0  0  0  0  0  0  0  0  0  0  0  0
  1  2  1  0
  2  3  2  0
  2  4  2  0
  2  5  1  0
  5  6  2  0
  6  7  1  0
  7  8  1  0
  8  9  1  0
  9 10  2  0
 10 11  1  0
 11 12  2  0
 12 13  1  0
 13 14  2  0
 14 15  1  0
 15 16  2  0
 16 17  1  0
  7 18  2  0
 18 19  1  0
 19 20  2  0
 20 21  1  0
 21 22  2  0
 21 23  1  0
 20  5  1  0
 17  9  1  0
 16 11  1  0
  1 24  1  0
  1 25  1  0
  6 26  1  0
 12 27  1  0
 13 28  1  0
 14 29  1  0
 15 30  1  0
 18 31  1  0
 19 32  1  0
M  CHG  3  17  -1  21   1  23  -1
M  END
>  <UniqueID>  (69) 
66

>  <SMILES>  (69) 
NS(=O)(=O)c1cc(Sc2nc3ccccc3[n-]2)ccc1[N+](=O)[O-]

>  <Energy>  (69) 
70.12340382533009

>  <Genealogy>  (69) 
NS(=O)(=O)c1cc(Sc2nc3ccccc3[n-]2)ccc1[N+](=O)[O-] (protonated)
NS(=O)(=O)c1cc(Sc2nc3ccccc3[n-]2)ccc1[N+](=O)[O-] (3D coordinates assigned)
NS(=O)(=O)c1cc(Sc2nc3ccccc3[n-]2)ccc1[N+](=O)[O-] (optimized conformer: 70.12340382533009 kcal/mol)

>  <smiles>  (69) 
NS(=O)(=O)c1cc(Sc2nc3ccccc3[nH]2)ccc1[N+](=O)[O-]

>  <score_type>  (69) 
oracle

>  <origin>  (69) 
adg

>  <m_score__min__energy>  (69) 
-9

>  <m_primary>  (69) 
energy

$$$$
69:0
     RDKit          3D

 38 40  0  0  0  0  0  0  0  0999 V2000
   57.0548   30.5534   42.1738 H   0  0  0  0  0  0  0  0  0  0  0  0
   57.2500   31.1410   43.0830 C   0  0  0  0  0  0  0  0  0  0  0  0
   56.9860   30.7710   44.3890 C   0  0  0  0  0  0  0  0  0  0  0  0
   56.3890   29.5030   44.8230 C   0  0  0  0  0  0  0  0  0  0  0  0
   55.1420   29.3480   44.7290 O   0  0  0  0  0  0  0  0  0  0  0  0
   57.2400   28.4300   45.2560 N   0  0  0  0  0  0  0  0  0  0  0  0
   58.2040   28.4570   46.1360 C   0  0  0  0  0  0  0  0  0  0  0  0
   58.9130   27.2720   46.3780 C   0  0  0  0  0  0  0  0  0  0  0  0
   58.6526   26.3525   45.8332 H   0  0  0  0  0  0  0  0  0  0  0  0
   59.9490   27.2620   47.3110 C   0  0  0  0  0  0  0  0  0  0  0  0
   60.5019   26.3324   47.5113 H   0  0  0  0  0  0  0  0  0  0  0  0
   60.2820   28.4330   47.9890 C   0  0  0  0  0  0  0  0  0  0  0  0
   61.0920   28.4337   48.7332 H   0  0  0  0  0  0  0  0  0  0  0  0
   59.5760   29.6050   47.7130 C   0  0  0  0  0  0  0  0  0  0  0  0
   59.8368   30.5366   48.2367 H   0  0  0  0  0  0  0  0  0  0  0  0
   58.5660   29.6020   46.7990 N   0  0  0  0  0  0  0  0  0  0  0  0
   58.1140   30.5190   46.6000 H   0  0  0  0  0  0  0  0  0  0  0  0
   57.3530   31.7270   45.2120 O   0  0  0  0  0  0  0  0  0  0  0  0
   57.8480   32.7140   44.5020 C   0  0  0  0  0  0  0  0  0  0  0  0
   58.3930   33.9740   45.0920 C   0  0  0  0  0  0  0  0  0  0  0  0
   57.6031   34.4781   45.6682 H   0  0  0  0  0  0  0  0  0  0  0  0
   58.7405   34.6319   44.2818 H   0  0  0  0  0  0  0  0  0  0  0  0
   59.5160   33.6660   45.9760 N   0  0  0  0  0  0  0  0  0  0  0  0
   60.7740   33.9460   45.6690 N   0  0  0  0  0  0  0  0  0  0  0  0
   61.5360   33.6090   46.7280 C   0  0  0  0  0  0  0  0  0  0  0  0
   63.0100   33.8400   46.7970 C   0  0  0  0  0  0  0  0  0  0  0  0
   63.3245   33.8893   47.8499 H   0  0  0  0  0  0  0  0  0  0  0  0
   63.5346   33.0131   46.2959 H   0  0  0  0  0  0  0  0  0  0  0  0
   63.2565   34.7877   46.2959 H   0  0  0  0  0  0  0  0  0  0  0  0
   60.7350   33.1290   47.7470 C   0  0  0  0  0  0  0  0  0  0  0  0
   61.2810   32.6130   49.5070 Br  0  0  0  0  0  0  0  0  0  0  0  0
   59.4550   33.1660   47.2310 C   0  0  0  0  0  0  0  0  0  0  0  0
   58.1940   32.8520   47.9790 C   0  0  0  0  0  0  0  0  0  0  0  0
   58.3877   32.9002   49.0607 H   0  0  0  0  0  0  0  0  0  0  0  0
   57.4176   33.5842   47.7125 H   0  0  0  0  0  0  0  0  0  0  0  0
   57.8516   31.8412   47.7125 H   0  0  0  0  0  0  0  0  0  0  0  0
   57.8090   32.4000   43.1570 C   0  0  0  0  0  0  0  0  0  0  0  0
   58.1524   33.0244   42.3191 H   0  0  0  0  0  0  0  0  0  0  0  0
  1  2  1  0
  2  3  2  0
  3  4  1  0
  4  5  2  0
  4  6  1  0
  6  7  2  0
  7  8  1  0
  8  9  1  0
  8 10  2  0
 10 11  1  0
 10 12  1  0
 12 13  1  0
 12 14  2  0
 14 15  1  0
 14 16  1  0
 16 17  1  0
  3 18  1  0
 18 19  1  0
 19 20  1  0
 20 21  1  0
 20 22  1  0
 20 23  1  0
 23 24  1  0
 24 25  2  0
 25 26  1  0
 26 27  1  0
 26 28  1  0
 26 29  1  0
 25 30  1  0
 30 31  1  0
 30 32  2  0
 32 33  1  0
 33 34  1  0
 33 35  1  0
 33 36  1  0
 19 37  2  0
 37 38  1  0
 37  2  1  0
 16  7  1  0
 32 23  1  0
M  END
>  <UniqueID>  (70) 
67

>  <SMILES>  (70) 
Cc1nn(Cc2ccc(C(=O)/N=c3/cccc[nH]3)o2)c(C)c1Br

>  <Energy>  (70) 
98.65175734805868

>  <Genealogy>  (70) 
Cc1nn(Cc2ccc(C(=O)/N=c3/cccc[nH]3)o2)c(C)c1Br (cis-trans isomerization)
Cc1nn(Cc2ccc(C(=O)/N=c3/cccc[nH]3)o2)c(C)c1Br (3D coordinates assigned)
Cc1nn(Cc2ccc(C(=O)/N=c3/cccc[nH]3)o2)c(C)c1Br (optimized conformer: 98.65175734805868 kcal/mol)

>  <smiles>  (70) 
Cc1nn(Cc2ccc(C(=O)N=c3cccc[nH]3)o2)c(C)c1Br

>  <score_type>  (70) 
oracle

>  <origin>  (70) 
adg

>  <m_score__min__energy>  (70) 
-7.5

>  <m_primary>  (70) 
energy

$$$$
70:0
     RDKit          3D

 60 63  0  0  1  0  0  0  0  0999 V2000
   61.3690   34.5720   48.8640 C   0  0  0  0  0  0  0  0  0  0  0  0
   59.9670   34.4070   48.7670 O   0  0  0  0  0  0  0  0  0  0  0  0
   59.4080   34.0470   47.5690 C   0  0  0  0  0  0  0  0  0  0  0  0
   59.9890   34.2360   46.3370 C   0  0  0  0  0  0  0  0  0  0  0  0
   59.3980   33.8630   45.1470 C   0  0  0  0  0  0  0  0  0  0  0  0
   58.1560   33.2670   45.2010 C   0  0  0  0  0  0  0  0  0  0  0  0
   57.4150   32.8210   43.9910 C   0  0  0  0  0  0  0  0  0  0  0  0
   57.1140   31.3730   44.1150 C   0  0  0  0  0  0  0  0  0  0  0  0
   56.7510   30.5610   43.0490 C   0  0  0  0  0  0  0  0  0  0  0  0
   56.5580   29.3360   43.5210 N   0  0  0  0  0  0  0  0  0  0  0  0
   56.7950   29.3780   44.8520 C   0  0  0  0  0  0  0  0  0  0  0  0
   56.7000   28.3630   45.6260 N   0  0  0  0  0  0  0  0  0  0  0  0
   57.8530   27.7750   46.2530 C   0  0  0  0  0  0  0  0  0  0  0  0
   58.0000   27.8470   47.4820 O   0  0  0  0  0  0  0  0  0  0  0  0
   58.8180   27.1010   45.3500 C   0  0  0  0  0  0  0  0  0  0  0  0
   60.1860   27.7260   45.5470 C   0  0  0  0  0  0  0  0  0  0  0  0
   60.0830   29.5410   45.3970 S   0  0  0  0  0  0  0  0  0  0  0  0
   60.5050   30.2400   46.9830 C   0  0  0  0  0  0  0  0  0  0  0  0
   61.7520   30.7340   47.1410 N   0  0  0  0  0  0  0  0  0  0  0  0
   62.1420   31.2780   48.3070 C   0  0  0  0  0  0  0  0  0  0  0  0
   63.2960   31.7230   48.4150 O   0  0  0  0  0  0  0  0  0  0  0  0
   61.2060   31.3120   49.3510 C   0  0  0  0  0  0  0  0  0  0  0  0
   61.6650   31.9680   50.5410 C   0  0  0  0  0  0  0  0  0  0  0  0
   62.0250   32.4810   51.5100 N   0  0  0  0  0  0  0  0  0  0  0  0
   59.9330   30.8160   49.2200 C   0  0  0  0  0  0  0  0  0  0  0  0
   58.9080   30.8650   50.2340 C   0  0  0  0  0  0  0  0  0  0  0  0
   58.7090   29.7120   50.9900 C   0  0  0  0  0  0  0  0  0  0  0  0
   57.7800   29.6840   52.0390 C   0  0  0  0  0  0  0  0  0  0  0  0
   57.0210   30.7800   52.3740 C   0  0  0  0  0  0  0  0  0  0  0  0
   56.1030   30.7450   53.4120 O   0  0  0  0  0  0  0  0  0  0  0  0
   54.9130   29.9610   53.2520 C   0  0  0  0  0  0  0  0  0  0  0  0
   57.2140   31.9220   51.6280 C   0  0  0  0  0  0  0  0  0  0  0  0
   58.1460   31.9450   50.5820 C   0  0  0  0  0  0  0  0  0  0  0  0
   59.6250   30.2850   48.0050 N   0  0  0  0  0  0  0  0  0  0  0  0
   57.1270   30.6090   45.1930 O   0  0  0  0  0  0  0  0  0  0  0  0
   57.5250   33.0540   46.4210 C   0  0  0  0  0  0  0  0  0  0  0  0
   58.1470   33.4420   47.5920 C   0  0  0  0  0  0  0  0  0  0  0  0
   61.6617   34.6064   49.9238 H   0  0  0  0  0  0  0  0  0  0  0  0
   61.8726   33.7269   48.3718 H   0  0  0  0  0  0  0  0  0  0  0  0
   61.6626   35.5109   48.3718 H   0  0  0  0  0  0  0  0  0  0  0  0
   60.9803   34.7111   46.2979 H   0  0  0  0  0  0  0  0  0  0  0  0
   59.9024   34.0359   44.1849 H   0  0  0  0  0  0  0  0  0  0  0  0
   56.4757   33.3868   43.9044 H   0  0  0  0  0  0  0  0  0  0  0  0
   58.0270   32.9978   43.0943 H   0  0  0  0  0  0  0  0  0  0  0  0
   56.6428   30.8766   42.0008 H   0  0  0  0  0  0  0  0  0  0  0  0
   56.2780   28.4810   42.9890 H   0  0  0  0  0  0  0  0  0  0  0  0
   58.8629   26.0285   45.5903 H   0  0  0  0  0  0  0  0  0  0  0  0
   58.4986   27.2197   44.3041 H   0  0  0  0  0  0  0  0  0  0  0  0
   60.5628   27.4657   46.5471 H   0  0  0  0  0  0  0  0  0  0  0  0
   60.8684   27.3421   44.7744 H   0  0  0  0  0  0  0  0  0  0  0  0
   59.2912   28.8076   50.7596 H   0  0  0  0  0  0  0  0  0  0  0  0
   57.6541   28.7543   52.6132 H   0  0  0  0  0  0  0  0  0  0  0  0
   54.5121   29.6969   54.2417 H   0  0  0  0  0  0  0  0  0  0  0  0
   54.1629   30.5424   52.6958 H   0  0  0  0  0  0  0  0  0  0  0  0
   55.1512   29.0424   52.6958 H   0  0  0  0  0  0  0  0  0  0  0  0
   56.6299   32.8258   51.8560 H   0  0  0  0  0  0  0  0  0  0  0  0
   58.2705   32.8781   50.0129 H   0  0  0  0  0  0  0  0  0  0  0  0
   58.6890   29.8670   47.7900 H   0  0  0  0  0  0  0  0  0  0  0  0
   56.5338   32.5781   46.4540 H   0  0  0  0  0  0  0  0  0  0  0  0
   57.6438   33.2729   48.5554 H   0  0  0  0  0  0  0  0  0  0  0  0
  1  2  1  0
  2  3  1  0
  3  4  2  0
  4  5  1  0
  5  6  2  0
  6  7  1  0
  7  8  1  0
  8  9  2  0
  9 10  1  0
 10 11  1  0
 11 12  2  0
 12 13  1  0
 13 14  2  0
 13 15  1  0
 15 16  1  0
 16 17  1  0
 17 18  1  0
 18 19  2  0
 19 20  1  0
 20 21  2  0
 20 22  1  0
 22 23  1  0
 23 24  3  0
 22 25  2  0
 25 26  1  0
 26 27  2  0
 27 28  1  0
 28 29  2  0
 29 30  1  0
 30 31  1  0
 29 32  1  0
 32 33  2  0
 25 34  1  0
 11 35  1  0
  6 36  1  0
 36 37  2  0
 37  3  1  0
 35  8  1  0
 34 18  1  0
 33 26  1  0
  1 38  1  0
  1 39  1  0
  1 40  1  0
  4 41  1  0
  5 42  1  0
  7 43  1  0
  7 44  1  0
  9 45  1  0
 10 46  1  0
 15 47  1  0
 15 48  1  0
 16 49  1  0
 16 50  1  0
 27 51  1  0
 28 52  1  0
 31 53  1  0
 31 54  1  0
 31 55  1  0
 32 56  1  0
 33 57  1  0
 34 58  1  0
 36 59  1  0
 37 60  1  0
M  END
>  <smiles>  (71) 
COc1ccc(Cc2c[nH]c(=NC(=O)CCSc3nc(=O)c(C#N)c(-c4ccc(OC)cc4)[nH]3)o2)cc1

>  <score_type>  (71) 
oracle

>  <origin>  (71) 
adg

>  <m_score__min__energy>  (71) 
-9.4600000000000009

>  <m_primary>  (71) 
energy

$$$$
71:0
     RDKit          3D

 51 54  0  0  0  0  0  0  0  0999 V2000
   58.5390   30.2540   44.3330 O   0  0  0  0  0  0  0  0  0  0  0  0
   57.8630   29.5990   45.1740 C   0  0  0  0  0  0  0  0  0  0  0  0
   57.0380   28.4200   44.7150 C   0  0  0  0  0  0  0  0  0  0  0  0
   57.4080   27.1570   45.4570 C   0  0  0  0  0  0  0  0  0  0  0  0
   58.7530   26.7460   45.4980 C   0  0  0  0  0  0  0  0  0  0  0  0
   59.1090   25.5590   46.1460 C   0  0  0  0  0  0  0  0  0  0  0  0
   58.1290   24.7730   46.7560 C   0  0  0  0  0  0  0  0  0  0  0  0
   56.7870   25.1650   46.7100 C   0  0  0  0  0  0  0  0  0  0  0  0
   56.4230   26.3480   46.0590 C   0  0  0  0  0  0  0  0  0  0  0  0
   55.0800   26.7130   46.0160 O   0  0  0  0  0  0  0  0  0  0  0  0
   57.7680   30.1050   46.5110 N   0  0  0  0  0  0  0  0  0  0  0  0
   58.7710   30.0080   47.5320 C   0  0  0  0  0  0  0  0  0  0  0  0
   59.5160   28.8280   47.6840 C   0  0  0  0  0  0  0  0  0  0  0  0
   60.5330   28.7490   48.6360 C   0  0  0  0  0  0  0  0  0  0  0  0
   60.8450   29.8530   49.4340 C   0  0  0  0  0  0  0  0  0  0  0  0
   61.9030   29.7330   50.3930 N   0  0  0  0  0  0  0  0  0  0  0  0
   63.0910   30.9550   50.7140 S   0  0  0  0  0  0  0  0  0  0  0  0
   64.4310   30.3150   50.9450 O   0  0  0  0  0  0  0  0  0  0  0  0
   62.6990   31.7530   51.9260 O   0  0  0  0  0  0  0  0  0  0  0  0
   63.1850   32.0330   49.3380 C   0  0  0  0  0  0  0  0  0  0  0  0
   63.3390   31.6520   48.0130 C   0  0  0  0  0  0  0  0  0  0  0  0
   63.3820   32.7430   47.1350 C   0  0  0  0  0  0  0  0  0  0  0  0
   63.2600   33.9730   47.7690 C   0  0  0  0  0  0  0  0  0  0  0  0
   63.0990   33.7080   49.4220 S   0  0  0  0  0  0  0  0  0  0  0  0
   60.1170   31.0430   49.2750 C   0  0  0  0  0  0  0  0  0  0  0  0
   59.0980   31.1410   48.3100 C   0  0  0  0  0  0  0  0  0  0  0  0
   58.3530   32.4150   48.1590 C   0  0  0  0  0  0  0  0  0  0  0  0
   57.4650   32.7070   49.0070 O   0  0  0  0  0  0  0  0  0  0  0  0
   58.6320   33.3660   47.0530 C   0  0  0  0  0  0  0  0  0  0  0  0
   57.8410   33.3460   45.8900 C   0  0  0  0  0  0  0  0  0  0  0  0
   58.0950   34.2400   44.8440 C   0  0  0  0  0  0  0  0  0  0  0  0
   59.1460   35.1550   44.9440 C   0  0  0  0  0  0  0  0  0  0  0  0
   59.9480   35.1740   46.0870 C   0  0  0  0  0  0  0  0  0  0  0  0
   59.7000   34.2810   47.1330 C   0  0  0  0  0  0  0  0  0  0  0  0
   55.9745   28.6387   44.8915 H   0  0  0  0  0  0  0  0  0  0  0  0
   57.2348   28.2594   43.6447 H   0  0  0  0  0  0  0  0  0  0  0  0
   59.5282   27.3613   45.0180 H   0  0  0  0  0  0  0  0  0  0  0  0
   60.1625   25.2439   46.1753 H   0  0  0  0  0  0  0  0  0  0  0  0
   58.4127   23.8446   47.2732 H   0  0  0  0  0  0  0  0  0  0  0  0
   56.0164   24.5415   47.1869 H   0  0  0  0  0  0  0  0  0  0  0  0
   59.2962   27.9584   47.0473 H   0  0  0  0  0  0  0  0  0  0  0  0
   61.0935   27.8106   48.7593 H   0  0  0  0  0  0  0  0  0  0  0  0
   63.4189   30.6046   47.6864 H   0  0  0  0  0  0  0  0  0  0  0  0
   63.5011   32.6357   46.0467 H   0  0  0  0  0  0  0  0  0  0  0  0
   63.2674   34.9550   47.2733 H   0  0  0  0  0  0  0  0  0  0  0  0
   60.3462   31.9094   49.9128 H   0  0  0  0  0  0  0  0  0  0  0  0
   57.0170   32.6225   45.8022 H   0  0  0  0  0  0  0  0  0  0  0  0
   57.4662   34.2224   43.9416 H   0  0  0  0  0  0  0  0  0  0  0  0
   59.3417   35.8601   44.1227 H   0  0  0  0  0  0  0  0  0  0  0  0
   60.7766   35.8933   46.1642 H   0  0  0  0  0  0  0  0  0  0  0  0
   60.3434   34.2927   48.0251 H   0  0  0  0  0  0  0  0  0  0  0  0
  1  2  2  0
  2  3  1  0
  3  4  1  0
  4  5  2  0
  5  6  1  0
  6  7  2  0
  7  8  1  0
  8  9  2  0
  9 10  1  0
  2 11  1  0
 11 12  1  0
 12 13  2  0
 13 14  1  0
 14 15  2  0
 15 16  1  0
 16 17  1  0
 17 18  2  0
 17 19  2  0
 17 20  1  0
 20 21  2  0
 21 22  1  0
 22 23  2  0
 23 24  1  0
 15 25  1  0
 25 26  2  0
 26 27  1  0
 27 28  2  0
 27 29  1  0
 29 30  2  0
 30 31  1  0
 31 32  2  0
 32 33  1  0
 33 34  2  0
  9  4  1  0
 26 12  1  0
 34 29  1  0
 24 20  1  0
  3 35  1  0
  3 36  1  0
  5 37  1  0
  6 38  1  0
  7 39  1  0
  8 40  1  0
 13 41  1  0
 14 42  1  0
 21 43  1  0
 22 44  1  0
 23 45  1  0
 25 46  1  0
 30 47  1  0
 31 48  1  0
 32 49  1  0
 33 50  1  0
 34 51  1  0
M  CHG  3  10  -1  11  -1  16  -1
M  END
>  <UniqueID>  (72) 
68

>  <SMILES>  (72) 
O=C(Cc1ccccc1[O-])[N-]c1ccc([N-]S(=O)(=O)c2cccs2)cc1C(=O)c1ccccc1

>  <Energy>  (72) 
99.57689015661688

>  <Genealogy>  (72) 
O=C(Cc1ccccc1[O-])[N-]c1ccc([N-]S(=O)(=O)c2cccs2)cc1C(=O)c1ccccc1 (protonated)
O=C(Cc1ccccc1[O-])[N-]c1ccc([N-]S(=O)(=O)c2cccs2)cc1C(=O)c1ccccc1 (3D coordinates assigned)
O=C(Cc1ccccc1[O-])[N-]c1ccc([N-]S(=O)(=O)c2cccs2)cc1C(=O)c1ccccc1 (optimized conformer: 99.57689015661688 kcal/mol)

>  <smiles>  (72) 
O=C(Cc1ccccc1O)Nc1ccc(NS(=O)(=O)c2cccs2)cc1C(=O)c1ccccc1

>  <score_type>  (72) 
oracle

>  <origin>  (72) 
adg

>  <m_score__min__energy>  (72) 
-15.32

>  <m_primary>  (72) 
energy

$$$$
72:0
     RDKit          3D

 47 49  0  0  0  0  0  0  0  0999 V2000
   59.6150   34.1700   50.3420 O   0  0  0  0  0  0  0  0  0  0  0  0
   60.5660   33.6030   49.7400 C   0  0  0  0  0  0  0  0  0  0  0  0
   61.1750   32.4620   50.3580 N   0  0  0  0  0  0  0  0  0  0  0  0
   61.2760   30.8680   49.6800 S   0  0  0  0  0  0  0  0  0  0  0  0
   61.4950   30.9780   48.1970 O   0  0  0  0  0  0  0  0  0  0  0  0
   62.4640   30.1660   50.2800 O   0  0  0  0  0  0  0  0  0  0  0  0
   59.8110   29.9620   49.9970 N   0  0  0  0  0  0  0  0  0  0  0  0
   60.0620   28.5340   50.2590 C   0  0  0  0  0  0  0  0  0  0  0  0
   60.5660   27.7780   49.0220 C   0  0  0  0  0  0  0  0  0  0  0  0
   59.8230   28.1600   47.7700 C   0  0  0  0  0  0  0  0  0  0  0  0
   59.9810   27.3800   46.6180 C   0  0  0  0  0  0  0  0  0  0  0  0
   59.3470   27.7350   45.4250 C   0  0  0  0  0  0  0  0  0  0  0  0
   58.5470   28.8910   45.3620 C   0  0  0  0  0  0  0  0  0  0  0  0
   57.8840   29.2890   44.1500 N   0  0  0  0  0  0  0  0  0  0  0  0
   56.2940   29.9840   44.1010 S   0  0  0  0  0  0  0  0  0  0  0  0
   55.8730   30.1950   42.6740 O   0  0  0  0  0  0  0  0  0  0  0  0
   56.3120   31.3090   44.8120 O   0  0  0  0  0  0  0  0  0  0  0  0
   55.2070   28.9660   44.8790 O   0  0  0  0  0  0  0  0  0  0  0  0
   58.4050   29.6810   46.5120 C   0  0  0  0  0  0  0  0  0  0  0  0
   59.0470   29.3350   47.7110 C   0  0  0  0  0  0  0  0  0  0  0  0
   58.7980   30.1660   48.9470 C   0  0  0  0  0  0  0  0  0  0  0  0
   61.0310   34.1480   48.4050 C   0  0  1  0  0  0  0  0  0  0  0  0
   62.2050   33.5040   47.9730 O   0  0  0  0  0  0  0  0  0  0  0  0
   59.9540   34.0590   47.3410 C   0  0  0  0  0  0  0  0  0  0  0  0
   58.7800   33.3150   47.5580 C   0  0  0  0  0  0  0  0  0  0  0  0
   57.8060   33.2210   46.5600 C   0  0  0  0  0  0  0  0  0  0  0  0
   57.9980   33.8530   45.3290 C   0  0  0  0  0  0  0  0  0  0  0  0
   57.0190   33.7530   44.3430 O   0  0  0  0  0  0  0  0  0  0  0  0
   59.1720   34.5790   45.0970 C   0  0  0  0  0  0  0  0  0  0  0  0
   60.1490   34.6750   46.0910 C   0  0  0  0  0  0  0  0  0  0  0  0
   60.8185   28.4508   51.0532 H   0  0  0  0  0  0  0  0  0  0  0  0
   59.1048   28.0801   50.5552 H   0  0  0  0  0  0  0  0  0  0  0  0
   61.6334   28.0037   48.8814 H   0  0  0  0  0  0  0  0  0  0  0  0
   60.3987   26.7047   49.1954 H   0  0  0  0  0  0  0  0  0  0  0  0
   60.6106   26.4787   46.6528 H   0  0  0  0  0  0  0  0  0  0  0  0
   59.4737   27.1078   44.5303 H   0  0  0  0  0  0  0  0  0  0  0  0
   58.4090   29.2460   43.2470 H   0  0  0  0  0  0  0  0  0  0  0  0
   57.7807   30.5859   46.4736 H   0  0  0  0  0  0  0  0  0  0  0  0
   58.8003   31.2281   48.6606 H   0  0  0  0  0  0  0  0  0  0  0  0
   57.8289   29.8522   49.3622 H   0  0  0  0  0  0  0  0  0  0  0  0
   61.2533   35.2141   48.5601 H   0  0  0  0  0  0  0  0  0  0  0  0
   62.3560   32.7120   48.5540 H   0  0  0  0  0  0  0  0  0  0  0  0
   58.6275   32.8036   48.5199 H   0  0  0  0  0  0  0  0  0  0  0  0
   56.8855   32.6477   46.7444 H   0  0  0  0  0  0  0  0  0  0  0  0
   56.5890   32.8650   44.1130 H   0  0  0  0  0  0  0  0  0  0  0  0
   59.3260   35.0761   44.1279 H   0  0  0  0  0  0  0  0  0  0  0  0
   61.0754   35.2350   45.8955 H   0  0  0  0  0  0  0  0  0  0  0  0
  1  2  2  0
  2  3  1  0
  3  4  1  0
  4  5  2  0
  4  6  2  0
  4  7  1  0
  7  8  1  0
  8  9  1  0
  9 10  1  0
 10 11  2  0
 11 12  1  0
 12 13  2  0
 13 14  1  0
 14 15  1  0
 15 16  2  0
 15 17  2  0
 15 18  1  0
 13 19  1  0
 19 20  2  0
 20 21  1  0
  2 22  1  0
 22 23  1  0
 22 24  1  0
 24 25  2  0
 25 26  1  0
 26 27  2  0
 27 28  1  0
 27 29  1  0
 29 30  2  0
 21  7  1  0
 30 24  1  0
 20 10  1  0
  8 31  1  0
  8 32  1  0
  9 33  1  0
  9 34  1  0
 11 35  1  0
 12 36  1  0
 14 37  1  0
 19 38  1  0
 21 39  1  0
 21 40  1  0
 22 41  1  1
 23 42  1  0
 25 43  1  0
 26 44  1  0
 28 45  1  0
 29 46  1  0
 30 47  1  0
M  CHG  2   3  -1  18  -1
M  END
>  <UniqueID>  (73) 
69

>  <SMILES>  (73) 
O=C([N-]S(=O)(=O)N1CCc2ccc(NS(=O)(=O)[O-])cc2C1)[C@@H](O)c1ccc(O)cc1

>  <Energy>  (73) 
56.72497711775097

>  <Genealogy>  (73) 
O=C([N-]S(=O)(=O)N1CCc2ccc(NS(=O)(=O)[O-])cc2C1)C(O)c1ccc(O)cc1 (protonated)
O=C([N-]S(=O)(=O)N1CCc2ccc(NS(=O)(=O)[O-])cc2C1)[C@@H](O)c1ccc(O)cc1 (chirality)
O=C([N-]S(=O)(=O)N1CCc2ccc(NS(=O)(=O)[O-])cc2C1)[C@@H](O)c1ccc(O)cc1 (3D coordinates assigned)
O=C([N-]S(=O)(=O)N1CCc2ccc(NS(=O)(=O)[O-])cc2C1)[C@@H](O)c1ccc(O)cc1 (nonaromatic ring conformer: 56.72497711775097 kcal/mol)

>  <smiles>  (73) 
O=C(NS(=O)(=O)N1CCc2ccc(NS(=O)(=O)O)cc2C1)C(O)c1ccc(O)cc1

>  <score_type>  (73) 
oracle

>  <origin>  (73) 
adg

>  <m_score__min__energy>  (73) 
-12.16

>  <m_primary>  (73) 
energy

$$$$
73:0
     RDKit          3D

 52 55  0  0  0  0  0  0  0  0999 V2000
   57.6598   24.1669   46.6995 H   0  0  0  0  0  0  0  0  0  0  0  0
   57.5560   25.2100   46.3660 C   0  0  0  0  0  0  0  0  0  0  0  0
   56.0910   25.9940   46.0460 S   0  0  0  0  0  0  0  0  0  0  0  0
   56.8010   27.4540   45.6220 C   0  0  0  0  0  0  0  0  0  0  0  0
   58.1740   27.3670   45.7190 C   0  0  0  0  0  0  0  0  0  0  0  0
   58.6140   26.0960   46.1400 C   0  0  0  0  0  0  0  0  0  0  0  0
   60.0490   25.7070   46.3350 C   0  0  0  0  0  0  0  0  0  0  0  0
   60.2697   25.6472   47.4110 H   0  0  0  0  0  0  0  0  0  0  0  0
   60.2300   24.7274   45.8685 H   0  0  0  0  0  0  0  0  0  0  0  0
   60.7000   26.4611   45.8685 H   0  0  0  0  0  0  0  0  0  0  0  0
   58.9270   28.5030   45.4020 C   0  0  0  0  0  0  0  0  0  0  0  0
   60.1830   28.5000   45.4690 O   0  0  0  0  0  0  0  0  0  0  0  0
   58.2750   29.6340   45.0110 N   0  0  0  0  0  0  0  0  0  0  0  0
   56.9120   29.6920   44.9200 C   0  0  0  0  0  0  0  0  0  0  0  0
   56.3630   30.8090   44.5350 N   0  0  0  0  0  0  0  0  0  0  0  0
   57.0510   32.0340   44.1240 C   0  0  0  0  0  0  0  0  0  0  0  0
   58.1195   31.8170   43.9783 H   0  0  0  0  0  0  0  0  0  0  0  0
   56.6044   32.3937   43.1853 H   0  0  0  0  0  0  0  0  0  0  0  0
   56.8990   33.1230   45.1930 C   0  0  0  0  0  0  0  0  0  0  0  0
   56.0407   33.7618   44.9377 H   0  0  0  0  0  0  0  0  0  0  0  0
   56.7397   32.6401   46.1684 H   0  0  0  0  0  0  0  0  0  0  0  0
   58.1700   33.9920   45.2730 C   0  0  0  0  0  0  0  0  0  0  0  0
   58.8078   33.7522   44.4095 H   0  0  0  0  0  0  0  0  0  0  0  0
   57.8386   35.0409   45.2766 H   0  0  0  0  0  0  0  0  0  0  0  0
   58.9610   33.7890   46.5060 N   0  0  0  0  0  0  0  0  0  0  0  0
   60.0550   34.7710   46.7160 C   0  0  0  0  0  0  0  0  0  0  0  0
   59.9117   35.6107   46.0201 H   0  0  0  0  0  0  0  0  0  0  0  0
   60.0093   35.0977   47.7654 H   0  0  0  0  0  0  0  0  0  0  0  0
   61.4520   34.1690   46.4790 C   0  0  0  0  0  0  0  0  0  0  0  0
   61.5542   33.9302   45.4101 H   0  0  0  0  0  0  0  0  0  0  0  0
   62.1917   34.9149   46.8053 H   0  0  0  0  0  0  0  0  0  0  0  0
   61.7020   32.8760   47.3010 C   0  0  0  0  0  0  0  0  0  0  0  0
   62.1528   32.1592   46.5989 H   0  0  0  0  0  0  0  0  0  0  0  0
   62.6920   33.0940   48.4330 C   0  0  0  0  0  0  0  0  0  0  0  0
   63.8830   32.3450   48.4820 C   0  0  0  0  0  0  0  0  0  0  0  0
   64.0960   31.6058   47.6957 H   0  0  0  0  0  0  0  0  0  0  0  0
   64.7970   32.5340   49.5230 C   0  0  0  0  0  0  0  0  0  0  0  0
   65.7254   31.9447   49.5519 H   0  0  0  0  0  0  0  0  0  0  0  0
   64.5340   33.4690   50.5260 C   0  0  0  0  0  0  0  0  0  0  0  0
   65.2557   33.6174   51.3427 H   0  0  0  0  0  0  0  0  0  0  0  0
   63.3540   34.2160   50.4920 C   0  0  0  0  0  0  0  0  0  0  0  0
   63.1468   34.9512   51.2835 H   0  0  0  0  0  0  0  0  0  0  0  0
   62.4360   34.0310   49.4540 C   0  0  0  0  0  0  0  0  0  0  0  0
   61.5077   34.6207   49.4341 H   0  0  0  0  0  0  0  0  0  0  0  0
   60.3970   32.2440   47.8240 C   0  0  0  0  0  0  0  0  0  0  0  0
   60.5698   31.1799   48.0429 H   0  0  0  0  0  0  0  0  0  0  0  0
   60.0841   32.7673   48.7396 H   0  0  0  0  0  0  0  0  0  0  0  0
   59.2950   32.3720   46.7710 C   0  0  0  0  0  0  0  0  0  0  0  0
   59.6377   31.9046   45.8361 H   0  0  0  0  0  0  0  0  0  0  0  0
   58.3934   31.8700   47.1518 H   0  0  0  0  0  0  0  0  0  0  0  0
   56.1640   28.5850   45.2340 N   0  0  0  0  0  0  0  0  0  0  0  0
   55.1220   28.5810   45.1930 H   0  0  0  0  0  0  0  0  0  0  0  0
  1  2  1  0
  2  3  1  0
  3  4  1  0
  4  5  2  0
  5  6  1  0
  6  7  1  0
  7  8  1  0
  7  9  1  0
  7 10  1  0
  5 11  1  0
 11 12  2  0
 11 13  1  0
 13 14  1  0
 14 15  2  0
 15 16  1  0
 16 17  1  0
 16 18  1  0
 16 19  1  0
 19 20  1  0
 19 21  1  0
 19 22  1  0
 22 23  1  0
 22 24  1  0
 22 25  1  0
 25 26  1  0
 26 27  1  0
 26 28  1  0
 26 29  1  0
 29 30  1  0
 29 31  1  0
 29 32  1  0
 32 33  1  0
 32 34  1  0
 34 35  2  0
 35 36  1  0
 35 37  1  0
 37 38  1  0
 37 39  2  0
 39 40  1  0
 39 41  1  0
 41 42  1  0
 41 43  2  0
 43 44  1  0
 32 45  1  0
 45 46  1  0
 45 47  1  0
 45 48  1  0
 48 49  1  0
 48 50  1  0
 14 51  1  0
 51 52  1  0
  6  2  2  0
 48 25  1  0
 51  4  1  0
 43 34  1  0
M  CHG  1  13  -1
M  END
>  <UniqueID>  (74) 
70

>  <SMILES>  (74) 
Cc1csc2[nH]/c(=N\CCCN3CCC(c4ccccc4)CC3)[n-]c(=O)c12

>  <Energy>  (74) 
98.61444974863349

>  <Genealogy>  (74) 
Cc1csc2[nH]c(=NCCCN3CCC(c4ccccc4)CC3)[n-]c(=O)c12 (protonated)
Cc1csc2[nH]/c(=N\CCCN3CCC(c4ccccc4)CC3)[n-]c(=O)c12 (cis-trans isomerization)
Cc1csc2[nH]/c(=N\CCCN3CCC(c4ccccc4)CC3)[n-]c(=O)c12 (3D coordinates assigned)
Cc1csc2[nH]/c(=N\CCCN3CCC(c4ccccc4)CC3)[n-]c(=O)c12 (nonaromatic ring conformer: 98.61444974863349 kcal/mol)

>  <smiles>  (74) 
Cc1csc2[nH]c(=NCCCN3CCC(c4ccccc4)CC3)[nH]c(=O)c12

>  <score_type>  (74) 
oracle

>  <origin>  (74) 
adg

>  <m_score__min__energy>  (74) 
-10.74

>  <m_primary>  (74) 
energy

$$$$
74:0
     RDKit          3D

 53 55  0  0  0  0  0  0  0  0999 V2000
   58.4660   29.6520   47.5940 N   0  0  0  0  0  0  0  0  0  0  0  0
   59.4350   30.3420   48.3910 C   0  0  0  0  0  0  0  0  0  0  0  0
   60.2080   29.6600   49.1180 O   0  0  0  0  0  0  0  0  0  0  0  0
   59.5200   31.8720   48.3710 C   0  0  0  0  0  0  0  0  0  0  0  0
   58.5000   32.3580   47.3440 C   0  0  0  0  0  0  0  0  0  0  0  0
   57.5200   33.0800   47.6810 O   0  0  0  0  0  0  0  0  0  0  0  0
   58.5940   31.8850   46.0340 O   0  0  0  0  0  0  0  0  0  0  0  0
   58.0410   32.5610   44.9100 C   0  0  0  0  0  0  0  0  0  0  0  0
   57.0420   31.6400   44.2140 C   0  0  0  0  0  0  0  0  0  0  0  0
   56.8160   30.4470   45.0390 N   0  0  0  0  0  0  0  0  0  0  0  0
   57.0860   29.2220   44.2820 C   0  0  0  0  0  0  0  0  0  0  0  0
   58.3170   28.5530   44.8400 C   0  0  0  0  0  0  0  0  0  0  0  0
   59.5770   29.1460   44.6420 C   0  0  0  0  0  0  0  0  0  0  0  0
   60.7230   28.5790   45.2030 C   0  0  0  0  0  0  0  0  0  0  0  0
   60.6240   27.4200   45.9760 C   0  0  0  0  0  0  0  0  0  0  0  0
   59.3780   26.8300   46.1940 C   0  0  0  0  0  0  0  0  0  0  0  0
   58.2220   27.3920   45.6380 C   0  0  0  0  0  0  0  0  0  0  0  0
   56.6720   26.6330   45.9880 Cl  0  0  0  0  0  0  0  0  0  0  0  0
   60.9500   32.3220   47.9730 C   0  0  0  0  0  0  0  0  0  0  0  0
   62.1160   31.6710   48.4430 C   0  0  0  0  0  0  0  0  0  0  0  0
   63.3870   32.1010   48.0480 C   0  0  0  0  0  0  0  0  0  0  0  0
   63.5240   33.1810   47.1770 C   0  0  0  0  0  0  0  0  0  0  0  0
   62.3910   33.8330   46.6940 C   0  0  0  0  0  0  0  0  0  0  0  0
   61.1170   33.4080   47.0830 C   0  0  0  0  0  0  0  0  0  0  0  0
   59.1230   32.4390   49.7540 C   0  0  0  0  0  0  0  0  0  0  0  0
   58.1310   31.8060   50.5420 C   0  0  0  0  0  0  0  0  0  0  0  0
   57.7610   32.3260   51.7840 C   0  0  0  0  0  0  0  0  0  0  0  0
   58.3430   33.5030   52.2530 C   0  0  0  0  0  0  0  0  0  0  0  0
   59.2780   34.1770   51.4690 C   0  0  0  0  0  0  0  0  0  0  0  0
   59.6540   33.6630   50.2240 C   0  0  0  0  0  0  0  0  0  0  0  0
   57.7440   30.1670   47.0440 H   0  0  0  0  0  0  0  0  0  0  0  0
   58.4370   28.6070   47.5950 H   0  0  0  0  0  0  0  0  0  0  0  0
   57.5279   33.4744   45.2454 H   0  0  0  0  0  0  0  0  0  0  0  0
   58.8443   32.8329   44.2094 H   0  0  0  0  0  0  0  0  0  0  0  0
   56.0902   32.1727   44.0719 H   0  0  0  0  0  0  0  0  0  0  0  0
   57.4437   31.3374   43.2357 H   0  0  0  0  0  0  0  0  0  0  0  0
   57.4940   30.4740   45.8390 H   0  0  0  0  0  0  0  0  0  0  0  0
   56.2268   28.5405   44.3671 H   0  0  0  0  0  0  0  0  0  0  0  0
   57.2498   29.4714   43.2232 H   0  0  0  0  0  0  0  0  0  0  0  0
   59.6602   30.0633   44.0407 H   0  0  0  0  0  0  0  0  0  0  0  0
   61.7050   29.0457   45.0360 H   0  0  0  0  0  0  0  0  0  0  0  0
   61.5285   26.9719   46.4132 H   0  0  0  0  0  0  0  0  0  0  0  0
   59.3036   25.9188   46.8057 H   0  0  0  0  0  0  0  0  0  0  0  0
   62.0211   30.8156   49.1280 H   0  0  0  0  0  0  0  0  0  0  0  0
   64.2819   31.5851   48.4260 H   0  0  0  0  0  0  0  0  0  0  0  0
   64.5255   33.5181   46.8713 H   0  0  0  0  0  0  0  0  0  0  0  0
   62.4992   34.6838   46.0052 H   0  0  0  0  0  0  0  0  0  0  0  0
   60.2302   33.9270   46.6903 H   0  0  0  0  0  0  0  0  0  0  0  0
   57.6451   30.8918   50.1704 H   0  0  0  0  0  0  0  0  0  0  0  0
   57.0082   31.8055   52.3942 H   0  0  0  0  0  0  0  0  0  0  0  0
   58.0646   33.8993   53.2406 H   0  0  0  0  0  0  0  0  0  0  0  0
   59.7215   35.1163   51.8309 H   0  0  0  0  0  0  0  0  0  0  0  0
   60.3720   34.2177   49.6021 H   0  0  0  0  0  0  0  0  0  0  0  0
  1  2  1  0
  2  3  2  0
  2  4  1  0
  4  5  1  0
  5  6  2  0
  5  7  1  0
  7  8  1  0
  8  9  1  0
  9 10  1  0
 10 11  1  0
 11 12  1  0
 12 13  2  0
 13 14  1  0
 14 15  2  0
 15 16  1  0
 16 17  2  0
 17 18  1  0
  4 19  1  0
 19 20  2  0
 20 21  1  0
 21 22  2  0
 22 23  1  0
 23 24  2  0
  4 25  1  0
 25 26  2  0
 26 27  1  0
 27 28  2  0
 28 29  1  0
 29 30  2  0
 17 12  1  0
 24 19  1  0
 30 25  1  0
  1 31  1  0
  1 32  1  0
  8 33  1  0
  8 34  1  0
  9 35  1  0
  9 36  1  0
 10 37  1  0
 11 38  1  0
 11 39  1  0
 13 40  1  0
 14 41  1  0
 15 42  1  0
 16 43  1  0
 20 44  1  0
 21 45  1  0
 22 46  1  0
 23 47  1  0
 24 48  1  0
 26 49  1  0
 27 50  1  0
 28 51  1  0
 29 52  1  0
 30 53  1  0
M  END
>  <UniqueID>  (75) 
71

>  <SMILES>  (75) 
NC(=O)C(C(=O)OCCNCc1ccccc1Cl)(c1ccccc1)c1ccccc1

>  <Energy>  (75) 
60.99478624655626

>  <Genealogy>  (75) 
NC(=O)C(C(=O)OCCNCc1ccccc1Cl)(c1ccccc1)c1ccccc1 (3D coordinates assigned)
NC(=O)C(C(=O)OCCNCc1ccccc1Cl)(c1ccccc1)c1ccccc1 (optimized conformer: 60.99478624655626 kcal/mol)

>  <smiles>  (75) 
NC(=O)C(C(=O)OCCNCc1ccccc1Cl)(c1ccccc1)c1ccccc1

>  <score_type>  (75) 
oracle

>  <origin>  (75) 
adg

>  <m_score__min__energy>  (75) 
-9

>  <m_primary>  (75) 
energy

$$$$
75:0
     RDKit          3D

 49 52  0  0  1  0  0  0  0  0999 V2000
   60.8970   29.7600   52.1950 C   0  0  0  0  0  0  0  0  0  0  0  0
   61.3860   30.4890   50.9880 C   0  0  0  0  0  0  0  0  0  0  0  0
   62.3190   31.5240   51.0870 C   0  0  0  0  0  0  0  0  0  0  0  0
   62.7370   32.1680   49.9170 C   0  0  0  0  0  0  0  0  0  0  0  0
   62.2510   31.8060   48.6760 C   0  0  0  0  0  0  0  0  0  0  0  0
   62.7190   32.5100   47.4830 C   0  0  0  0  0  0  0  0  0  0  0  0
   64.1180   32.5410   47.2020 N   0  0  0  0  0  0  0  0  0  0  0  0
   61.8590   33.0630   46.7500 O   0  0  0  0  0  0  0  0  0  0  0  0
   61.3330   30.7850   48.5940 C   0  0  0  0  0  0  0  0  0  0  0  0
   60.9060   30.1330   49.7430 C   0  0  0  0  0  0  0  0  0  0  0  0
   59.9540   29.0900   49.5550 N   0  0  0  0  0  0  0  0  0  0  0  0
   59.9710   28.4600   48.4320 C   0  0  0  0  0  0  0  0  0  0  0  0
   60.7690   27.4070   48.1790 N   0  0  0  0  0  0  0  0  0  0  0  0
   60.7280   26.7940   46.9590 C   0  0  0  0  0  0  0  0  0  0  0  0
   59.8860   27.2350   45.9870 N   0  0  0  0  0  0  0  0  0  0  0  0
   59.0680   28.3000   46.2160 C   0  0  0  0  0  0  0  0  0  0  0  0
   58.2120   28.7110   45.1620 N   0  0  0  0  0  0  0  0  0  0  0  0
   58.2760   29.4750   43.9300 C   0  0  0  0  0  0  0  0  0  0  0  0
   56.8260   29.8880   44.2180 C   0  0  0  0  0  0  0  0  0  0  0  0
   56.6920   30.8540   45.2130 O   0  0  0  0  0  0  0  0  0  0  0  0
   57.4550   31.9920   45.3340 C   0  0  0  0  0  0  0  0  0  0  0  0
   57.7790   32.8330   44.2960 C   0  0  0  0  0  0  0  0  0  0  0  0
   58.5510   33.9560   44.5070 C   0  0  0  0  0  0  0  0  0  0  0  0
   59.0330   34.2860   45.7720 C   0  0  0  0  0  0  0  0  0  0  0  0
   60.0090   35.7210   45.9900 Cl  0  0  0  0  0  0  0  0  0  0  0  0
   58.7090   33.4390   46.8270 C   0  0  0  0  0  0  0  0  0  0  0  0
   59.3230   33.8710   48.4010 Cl  0  0  0  0  0  0  0  0  0  0  0  0
   57.9370   32.3250   46.5880 C   0  0  0  0  0  0  0  0  0  0  0  0
   56.8020   28.5040   44.8860 C   0  0  0  0  0  0  0  0  0  0  0  0
   59.1020   28.9290   47.4510 C   0  0  0  0  0  0  0  0  0  0  0  0
   58.2800   29.9980   47.6790 F   0  0  0  0  0  0  0  0  0  0  0  0
   61.2441   30.2774   53.1015 H   0  0  0  0  0  0  0  0  0  0  0  0
   59.7974   29.7330   52.1865 H   0  0  0  0  0  0  0  0  0  0  0  0
   61.2891   28.7323   52.1865 H   0  0  0  0  0  0  0  0  0  0  0  0
   62.7177   31.8271   52.0664 H   0  0  0  0  0  0  0  0  0  0  0  0
   63.4717   32.9836   49.9876 H   0  0  0  0  0  0  0  0  0  0  0  0
   64.5350   32.1120   46.3390 H   0  0  0  0  0  0  0  0  0  0  0  0
   64.8150   32.9970   47.8440 H   0  0  0  0  0  0  0  0  0  0  0  0
   60.9354   30.4837   47.6137 H   0  0  0  0  0  0  0  0  0  0  0  0
   61.4070   27.0820   48.9320 H   0  0  0  0  0  0  0  0  0  0  0  0
   61.3839   25.9335   46.7607 H   0  0  0  0  0  0  0  0  0  0  0  0
   59.0018   30.3015   43.9359 H   0  0  0  0  0  0  0  0  0  0  0  0
   58.5777   29.0219   42.9741 H   0  0  0  0  0  0  0  0  0  0  0  0
   56.1514   30.2737   43.4395 H   0  0  0  0  0  0  0  0  0  0  0  0
   57.4171   32.6068   43.2822 H   0  0  0  0  0  0  0  0  0  0  0  0
   58.7925   34.6081   43.6547 H   0  0  0  0  0  0  0  0  0  0  0  0
   57.6911   31.6673   47.4347 H   0  0  0  0  0  0  0  0  0  0  0  0
   56.1619   28.4318   45.7776 H   0  0  0  0  0  0  0  0  0  0  0  0
   56.4307   27.6080   44.3671 H   0  0  0  0  0  0  0  0  0  0  0  0
  1  2  1  0
  2  3  2  0
  3  4  1  0
  4  5  2  0
  5  6  1  0
  6  7  1  0
  6  8  2  0
  5  9  1  0
  9 10  2  0
 10 11  1  0
 11 12  2  0
 12 13  1  0
 13 14  1  0
 14 15  2  0
 15 16  1  0
 16 17  1  0
 17 18  1  0
 18 19  1  0
 19 20  1  0
 20 21  1  0
 21 22  2  0
 22 23  1  0
 23 24  2  0
 24 25  1  0
 24 26  1  0
 26 27  1  0
 26 28  2  0
 19 29  1  0
 16 30  2  0
 30 31  1  0
 10  2  1  0
 30 12  1  0
 29 17  1  0
 28 21  1  0
  1 32  1  0
  1 33  1  0
  1 34  1  0
  3 35  1  0
  4 36  1  0
  7 37  1  0
  7 38  1  0
  9 39  1  0
 13 40  1  0
 14 41  1  0
 18 42  1  0
 18 43  1  0
 19 44  1  0
 22 45  1  0
 23 46  1  0
 28 47  1  0
 29 48  1  0
 29 49  1  0
M  END
>  <smiles>  (76) 
Cc1ccc(C(N)=O)cc1N=c1[nH]cnc(N2CC(Oc3ccc(Cl)c(Cl)c3)C2)c1F

>  <score_type>  (76) 
oracle

>  <origin>  (76) 
adg

>  <m_score__min__energy>  (76) 
-9.5199999999999996

>  <m_primary>  (76) 
energy

$$$$
76:0
     RDKit          3D

 57 60  0  0  0  0  0  0  0  0999 V2000
   62.5530   30.7610   50.8030 C   0  0  0  0  0  0  0  0  0  0  0  0
   61.4920   31.4890   50.1940 O   0  0  0  0  0  0  0  0  0  0  0  0
   60.1780   31.5440   50.6850 C   0  0  0  0  0  0  0  0  0  0  0  0
   59.6860   32.6870   51.3490 C   0  0  0  0  0  0  0  0  0  0  0  0
   58.3790   32.7130   51.8370 C   0  0  0  0  0  0  0  0  0  0  0  0
   57.5460   31.6080   51.6670 C   0  0  0  0  0  0  0  0  0  0  0  0
   58.0160   30.4710   51.0080 C   0  0  0  0  0  0  0  0  0  0  0  0
   59.3360   30.4210   50.5150 C   0  0  0  0  0  0  0  0  0  0  0  0
   59.8370   29.2470   49.8390 N   0  0  0  0  0  0  0  0  0  0  0  0
   60.3380   29.2400   48.4630 C   0  0  0  0  0  0  0  0  0  0  0  0
   59.5410   30.1870   47.6180 C   0  0  0  0  0  0  0  0  0  0  0  0
   58.5980   29.6930   46.7590 N   0  0  0  0  0  0  0  0  0  0  0  0
   57.9200   30.5660   45.9800 C   0  0  0  0  0  0  0  0  0  0  0  0
   58.1540   31.8990   46.0090 C   0  0  0  0  0  0  0  0  0  0  0  0
   57.3450   32.4340   45.0250 C   0  0  0  0  0  0  0  0  0  0  0  0
   56.6600   31.4160   44.4400 N   0  0  0  0  0  0  0  0  0  0  0  0
   57.0060   30.2820   45.0410 N   0  0  0  0  0  0  0  0  0  0  0  0
   56.5590   28.9590   44.6250 C   0  0  0  0  0  0  0  0  0  0  0  0
   59.1130   32.4210   46.8670 C   0  0  0  0  0  0  0  0  0  0  0  0
   59.3900   33.8300   46.9140 N   0  0  0  0  0  0  0  0  0  0  0  0
   59.2840   34.6230   45.6890 C   0  0  0  0  0  0  0  0  0  0  0  0
   59.9630   34.4220   48.1260 C   0  0  0  0  0  0  0  0  0  0  0  0
   61.4230   34.0700   48.2230 C   0  0  0  0  0  0  0  0  0  0  0  0
   62.1080   33.5570   47.1110 C   0  0  0  0  0  0  0  0  0  0  0  0
   63.4500   33.1850   47.2240 C   0  0  0  0  0  0  0  0  0  0  0  0
   64.1170   33.3170   48.4460 C   0  0  0  0  0  0  0  0  0  0  0  0
   63.4450   33.8310   49.5650 C   0  0  0  0  0  0  0  0  0  0  0  0
   64.1410   33.9150   50.8910 C   0  0  0  0  0  0  0  0  0  0  0  0
   62.0950   34.1920   49.4520 C   0  0  0  0  0  0  0  0  0  0  0  0
   59.7950   31.5390   47.6640 N   0  0  0  0  0  0  0  0  0  0  0  0
   62.4604   30.8245   51.8973 H   0  0  0  0  0  0  0  0  0  0  0  0
   62.5011   29.7074   50.4912 H   0  0  0  0  0  0  0  0  0  0  0  0
   63.5173   31.1886   50.4912 H   0  0  0  0  0  0  0  0  0  0  0  0
   60.3369   33.5636   51.4830 H   0  0  0  0  0  0  0  0  0  0  0  0
   58.0051   33.6073   52.3570 H   0  0  0  0  0  0  0  0  0  0  0  0
   56.5163   31.6323   52.0530 H   0  0  0  0  0  0  0  0  0  0  0  0
   57.3504   29.6058   50.8720 H   0  0  0  0  0  0  0  0  0  0  0  0
   59.7840   28.3230   50.3230 H   0  0  0  0  0  0  0  0  0  0  0  0
   61.3936   29.5495   48.4589 H   0  0  0  0  0  0  0  0  0  0  0  0
   60.2432   28.2244   48.0513 H   0  0  0  0  0  0  0  0  0  0  0  0
   57.2685   33.4991   44.7608 H   0  0  0  0  0  0  0  0  0  0  0  0
   56.3517   28.3456   45.5142 H   0  0  0  0  0  0  0  0  0  0  0  0
   55.6430   29.0538   44.0234 H   0  0  0  0  0  0  0  0  0  0  0  0
   57.3448   28.4788   44.0234 H   0  0  0  0  0  0  0  0  0  0  0  0
   59.1424   35.6824   45.9491 H   0  0  0  0  0  0  0  0  0  0  0  0
   60.2052   34.5104   45.0985 H   0  0  0  0  0  0  0  0  0  0  0  0
   58.4247   34.2724   45.0985 H   0  0  0  0  0  0  0  0  0  0  0  0
   59.8528   35.5157   48.0857 H   0  0  0  0  0  0  0  0  0  0  0  0
   59.4349   34.0290   49.0073 H   0  0  0  0  0  0  0  0  0  0  0  0
   61.5873   33.4475   46.1482 H   0  0  0  0  0  0  0  0  0  0  0  0
   63.9839   32.7868   46.3485 H   0  0  0  0  0  0  0  0  0  0  0  0
   65.1719   33.0168   48.5300 H   0  0  0  0  0  0  0  0  0  0  0  0
   63.4009   33.8257   51.6999 H   0  0  0  0  0  0  0  0  0  0  0  0
   64.8739   33.0988   50.9728 H   0  0  0  0  0  0  0  0  0  0  0  0
   64.6586   34.8821   50.9728 H   0  0  0  0  0  0  0  0  0  0  0  0
   61.5570   34.5739   50.3322 H   0  0  0  0  0  0  0  0  0  0  0  0
   60.5160   31.8970   48.3290 H   0  0  0  0  0  0  0  0  0  0  0  0
  1  2  1  0
  2  3  1  0
  3  4  2  0
  4  5  1  0
  5  6  2  0
  6  7  1  0
  7  8  2  0
  8  9  1  0
  9 10  1  0
 10 11  1  0
 11 12  2  0
 12 13  1  0
 13 14  2  0
 14 15  1  0
 15 16  2  0
 16 17  1  0
 17 18  1  0
 14 19  1  0
 19 20  1  0
 20 21  1  0
 20 22  1  0
 22 23  1  0
 23 24  2  0
 24 25  1  0
 25 26  2  0
 26 27  1  0
 27 28  1  0
 27 29  2  0
 19 30  2  0
  8  3  1  0
 30 11  1  0
 17 13  1  0
 29 23  1  0
  1 31  1  0
  1 32  1  0
  1 33  1  0
  4 34  1  0
  5 35  1  0
  6 36  1  0
  7 37  1  0
  9 38  1  0
 10 39  1  0
 10 40  1  0
 15 41  1  0
 18 42  1  0
 18 43  1  0
 18 44  1  0
 21 45  1  0
 21 46  1  0
 21 47  1  0
 22 48  1  0
 22 49  1  0
 24 50  1  0
 25 51  1  0
 26 52  1  0
 28 53  1  0
 28 54  1  0
 28 55  1  0
 29 56  1  0
 30 57  1  0
M  CHG  1  30   1
M  END
>  <UniqueID>  (77) 
72

>  <SMILES>  (77) 
COc1ccccc1NCc1nc2c(cnn2C)c(N(C)Cc2cccc(C)c2)[nH+]1

>  <Energy>  (77) 
100.2598898178741

>  <Genealogy>  (77) 
COc1ccccc1NCc1nc2c(cnn2C)c(N(C)Cc2cccc(C)c2)[nH+]1 (protonated)
COc1ccccc1NCc1nc2c(cnn2C)c(N(C)Cc2cccc(C)c2)[nH+]1 (3D coordinates assigned)
COc1ccccc1NCc1nc2c(cnn2C)c(N(C)Cc2cccc(C)c2)[nH+]1 (optimized conformer: 100.2598898178741 kcal/mol)

>  <smiles>  (77) 
COc1ccccc1NCc1nc(N(C)Cc2cccc(C)c2)c2cnn(C)c2n1

>  <score_type>  (77) 
oracle

>  <origin>  (77) 
adg

>  <m_score__min__energy>  (77) 
-7.0800000000000001

>  <m_primary>  (77) 
energy

$$$$
77:0
     RDKit          3D

 52 54  0  0  0  0  0  0  0  0999 V2000
   63.4500   33.8340   46.3570 C   0  0  0  0  0  0  0  0  0  0  0  0
   62.6670   33.5950   47.6100 C   0  0  0  0  0  0  0  0  0  0  0  0
   61.2950   33.7140   47.7160 C   0  0  0  0  0  0  0  0  0  0  0  0
   60.9810   33.4040   49.0270 C   0  0  0  0  0  0  0  0  0  0  0  0
   59.5990   33.4350   49.6190 C   0  0  0  0  0  0  0  0  0  0  0  0
   58.7440   32.2700   49.1030 C   0  0  0  0  0  0  0  0  0  0  0  0
   57.7610   32.7200   48.1680 O   0  0  0  0  0  0  0  0  0  0  0  0
   57.9790   32.9570   46.8030 C   0  0  0  0  0  0  0  0  0  0  0  0
   58.4110   34.2290   46.4160 C   0  0  0  0  0  0  0  0  0  0  0  0
   58.6570   34.5140   45.0700 C   0  0  0  0  0  0  0  0  0  0  0  0
   58.4690   33.5310   44.0980 C   0  0  0  0  0  0  0  0  0  0  0  0
   58.0250   32.2490   44.4670 C   0  0  0  0  0  0  0  0  0  0  0  0
   57.8210   31.2070   43.5060 N   0  0  0  0  0  0  0  0  0  0  0  0
   56.6600   29.9270   43.6530 S   0  0  0  0  0  0  0  0  0  0  0  0
   56.1440   29.5600   42.2910 O   0  0  0  0  0  0  0  0  0  0  0  0
   55.5110   30.3970   44.5010 O   0  0  0  0  0  0  0  0  0  0  0  0
   57.3890   28.5330   44.3830 N   0  0  0  0  0  0  0  0  0  0  0  0
   58.3940   28.5960   45.4090 C   0  0  0  0  0  0  0  0  0  0  0  0
   59.6160   29.2280   45.1280 C   0  0  0  0  0  0  0  0  0  0  0  0
   60.6130   29.3100   46.1030 C   0  0  0  0  0  0  0  0  0  0  0  0
   60.3970   28.7610   47.3690 C   0  0  0  0  0  0  0  0  0  0  0  0
   59.1860   28.1340   47.6630 C   0  0  0  0  0  0  0  0  0  0  0  0
   58.1830   28.0550   46.6930 C   0  0  0  0  0  0  0  0  0  0  0  0
   57.7810   31.9690   45.8180 C   0  0  0  0  0  0  0  0  0  0  0  0
   62.1780   33.1310   49.6750 C   0  0  0  0  0  0  0  0  0  0  0  0
   62.3290   32.7300   51.1140 C   0  0  0  0  0  0  0  0  0  0  0  0
   63.2000   33.2140   48.7930 N   0  0  0  0  0  0  0  0  0  0  0  0
   64.6200   33.0160   49.0910 C   0  0  0  0  0  0  0  0  0  0  0  0
   64.4722   34.1460   46.6173 H   0  0  0  0  0  0  0  0  0  0  0  0
   63.4888   32.9068   45.7664 H   0  0  0  0  0  0  0  0  0  0  0  0
   62.9644   34.6248   45.7664 H   0  0  0  0  0  0  0  0  0  0  0  0
   60.5931   33.9982   46.9182 H   0  0  0  0  0  0  0  0  0  0  0  0
   59.6768   33.3646   50.7140 H   0  0  0  0  0  0  0  0  0  0  0  0
   59.1158   34.3776   49.3224 H   0  0  0  0  0  0  0  0  0  0  0  0
   59.3986   31.5366   48.6093 H   0  0  0  0  0  0  0  0  0  0  0  0
   58.2251   31.8149   49.9595 H   0  0  0  0  0  0  0  0  0  0  0  0
   58.5583   35.0107   47.1758 H   0  0  0  0  0  0  0  0  0  0  0  0
   59.0001   35.5169   44.7760 H   0  0  0  0  0  0  0  0  0  0  0  0
   58.6686   33.7594   43.0407 H   0  0  0  0  0  0  0  0  0  0  0  0
   57.0220   27.6010   44.0970 H   0  0  0  0  0  0  0  0  0  0  0  0
   59.7896   29.6620   44.1322 H   0  0  0  0  0  0  0  0  0  0  0  0
   61.5674   29.8065   45.8739 H   0  0  0  0  0  0  0  0  0  0  0  0
   61.1833   28.8231   48.1357 H   0  0  0  0  0  0  0  0  0  0  0  0
   59.0202   27.7009   48.6604 H   0  0  0  0  0  0  0  0  0  0  0  0
   57.2257   27.5689   46.9326 H   0  0  0  0  0  0  0  0  0  0  0  0
   57.4316   30.9684   46.1125 H   0  0  0  0  0  0  0  0  0  0  0  0
   62.0156   33.5623   51.7614 H   0  0  0  0  0  0  0  0  0  0  0  0
   61.7005   31.8505   51.3174 H   0  0  0  0  0  0  0  0  0  0  0  0
   63.3815   32.4835   51.3174 H   0  0  0  0  0  0  0  0  0  0  0  0
   64.7665   32.9956   50.1810 H   0  0  0  0  0  0  0  0  0  0  0  0
   64.9560   32.0623   48.6579 H   0  0  0  0  0  0  0  0  0  0  0  0
   65.2041   33.8414   48.6579 H   0  0  0  0  0  0  0  0  0  0  0  0
  1  2  1  0
  2  3  2  0
  3  4  1  0
  4  5  1  0
  5  6  1  0
  6  7  1  0
  7  8  1  0
  8  9  2  0
  9 10  1  0
 10 11  2  0
 11 12  1  0
 12 13  1  0
 13 14  1  0
 14 15  2  0
 14 16  2  0
 14 17  1  0
 17 18  1  0
 18 19  2  0
 19 20  1  0
 20 21  2  0
 21 22  1  0
 22 23  2  0
 12 24  2  0
  4 25  2  0
 25 26  1  0
 25 27  1  0
 27 28  1  0
 27  2  1  0
 24  8  1  0
 23 18  1  0
  1 29  1  0
  1 30  1  0
  1 31  1  0
  3 32  1  0
  5 33  1  0
  5 34  1  0
  6 35  1  0
  6 36  1  0
  9 37  1  0
 10 38  1  0
 11 39  1  0
 17 40  1  0
 19 41  1  0
 20 42  1  0
 21 43  1  0
 22 44  1  0
 23 45  1  0
 24 46  1  0
 26 47  1  0
 26 48  1  0
 26 49  1  0
 28 50  1  0
 28 51  1  0
 28 52  1  0
M  CHG  1  13  -1
M  END
>  <UniqueID>  (78) 
73

>  <SMILES>  (78) 
Cc1cc(CCOc2cccc([N-]S(=O)(=O)Nc3ccccc3)c2)c(C)n1C

>  <Energy>  (78) 
79.13677273485241

>  <Genealogy>  (78) 
Cc1cc(CCOc2cccc([N-]S(=O)(=O)Nc3ccccc3)c2)c(C)n1C (protonated)
Cc1cc(CCOc2cccc([N-]S(=O)(=O)Nc3ccccc3)c2)c(C)n1C (3D coordinates assigned)
Cc1cc(CCOc2cccc([N-]S(=O)(=O)Nc3ccccc3)c2)c(C)n1C (optimized conformer: 79.13677273485241 kcal/mol)

>  <smiles>  (78) 
Cc1cc(CCOc2cccc(NS(=O)(=O)Nc3ccccc3)c2)c(C)n1C

>  <score_type>  (78) 
oracle

>  <origin>  (78) 
adg

>  <m_score__min__energy>  (78) 
-10.69

>  <m_primary>  (78) 
energy

$$$$
78:0
     RDKit          3D

 40 42  0  0  0  0  0  0  0  0999 V2000
   60.7647   29.5929   45.0991 H   0  0  0  0  0  0  0  0  0  0  0  0
   60.5210   29.7820   46.1550 C   0  0  0  0  0  0  0  0  0  0  0  0
   61.0780   30.8390   46.8000 N   0  0  0  0  0  0  0  0  0  0  0  0
   60.8170   31.1060   48.1110 C   0  0  0  0  0  0  0  0  0  0  0  0
   61.3470   32.1360   48.7030 N   0  0  0  0  0  0  0  0  0  0  0  0
   60.7660   33.4790   48.7200 C   0  0  0  0  0  0  0  0  0  0  0  0
   60.2536   33.6392   49.6801 H   0  0  0  0  0  0  0  0  0  0  0  0
   61.5723   34.2162   48.5917 H   0  0  0  0  0  0  0  0  0  0  0  0
   59.7730   33.6420   47.5940 C   0  0  0  0  0  0  0  0  0  0  0  0
   60.1840   34.2090   46.3730 C   0  0  0  0  0  0  0  0  0  0  0  0
   61.4740   34.5900   46.1900 F   0  0  0  0  0  0  0  0  0  0  0  0
   59.2650   34.3900   45.3350 C   0  0  0  0  0  0  0  0  0  0  0  0
   59.5932   34.8311   44.3822 H   0  0  0  0  0  0  0  0  0  0  0  0
   57.9310   34.0120   45.5050 C   0  0  0  0  0  0  0  0  0  0  0  0
   57.0420   34.1900   44.4970 F   0  0  0  0  0  0  0  0  0  0  0  0
   57.5130   33.4480   46.7130 C   0  0  0  0  0  0  0  0  0  0  0  0
   56.4625   33.1492   46.8438 H   0  0  0  0  0  0  0  0  0  0  0  0
   58.4250   33.2620   47.7560 C   0  0  0  0  0  0  0  0  0  0  0  0
   57.9920   32.7170   48.9210 F   0  0  0  0  0  0  0  0  0  0  0  0
   59.9610   30.2620   48.8290 C   0  0  0  0  0  0  0  0  0  0  0  0
   59.7528   30.4572   49.8913 H   0  0  0  0  0  0  0  0  0  0  0  0
   59.3740   29.1710   48.1860 C   0  0  0  0  0  0  0  0  0  0  0  0
   58.7049   28.4989   48.7433 H   0  0  0  0  0  0  0  0  0  0  0  0
   59.6370   28.9320   46.8310 C   0  0  0  0  0  0  0  0  0  0  0  0
   59.0110   27.7900   46.1370 C   0  0  0  0  0  0  0  0  0  0  0  0
   59.5030   26.4990   46.3960 C   0  0  0  0  0  0  0  0  0  0  0  0
   60.3188   26.3613   47.1210 H   0  0  0  0  0  0  0  0  0  0  0  0
   58.9650   25.3910   45.7410 C   0  0  0  0  0  0  0  0  0  0  0  0
   59.3580   24.3850   45.9495 H   0  0  0  0  0  0  0  0  0  0  0  0
   57.9280   25.5580   44.8210 C   0  0  0  0  0  0  0  0  0  0  0  0
   57.5115   24.6845   44.2981 H   0  0  0  0  0  0  0  0  0  0  0  0
   57.4190   26.8330   44.5640 C   0  0  0  0  0  0  0  0  0  0  0  0
   56.6011   26.9569   43.8389 H   0  0  0  0  0  0  0  0  0  0  0  0
   57.9410   27.9580   45.2220 C   0  0  0  0  0  0  0  0  0  0  0  0
   57.2150   29.5430   44.9030 S   0  0  0  0  0  0  0  0  0  0  0  0
   55.7180   29.4200   44.8640 O   0  0  0  0  0  0  0  0  0  0  0  0
   57.5810   30.5090   45.9950 O   0  0  0  0  0  0  0  0  0  0  0  0
   57.7750   30.1450   43.3820 N   0  0  0  0  0  0  0  0  0  0  0  0
   58.8150   30.0600   43.3830 H   0  0  0  0  0  0  0  0  0  0  0  0
   57.4170   29.4960   42.6450 H   0  0  0  0  0  0  0  0  0  0  0  0
  1  2  1  0
  2  3  1  0
  3  4  1  0
  4  5  2  0
  5  6  1  0
  6  7  1  0
  6  8  1  0
  6  9  1  0
  9 10  2  0
 10 11  1  0
 10 12  1  0
 12 13  1  0
 12 14  2  0
 14 15  1  0
 14 16  1  0
 16 17  1  0
 16 18  2  0
 18 19  1  0
  4 20  1  0
 20 21  1  0
 20 22  2  0
 22 23  1  0
 22 24  1  0
 24 25  1  0
 25 26  2  0
 26 27  1  0
 26 28  1  0
 28 29  1  0
 28 30  2  0
 30 31  1  0
 30 32  1  0
 32 33  1  0
 32 34  2  0
 34 35  1  0
 35 36  2  0
 35 37  2  0
 35 38  1  0
 38 39  1  0
 38 40  1  0
 24  2  2  0
 34 25  1  0
 18  9  1  0
M  CHG  1   3  -1
M  END
>  <UniqueID>  (79) 
74

>  <SMILES>  (79) 
NS(=O)(=O)c1ccccc1-c1cc/c(=N/Cc2c(F)cc(F)cc2F)[n-]c1

>  <Energy>  (79) 
50.57902215784538

>  <Genealogy>  (79) 
NS(=O)(=O)c1ccccc1-c1ccc(=NCc2c(F)cc(F)cc2F)[n-]c1 (protonated)
NS(=O)(=O)c1ccccc1-c1cc/c(=N/Cc2c(F)cc(F)cc2F)[n-]c1 (cis-trans isomerization)
NS(=O)(=O)c1ccccc1-c1cc/c(=N/Cc2c(F)cc(F)cc2F)[n-]c1 (3D coordinates assigned)
NS(=O)(=O)c1ccccc1-c1cc/c(=N/Cc2c(F)cc(F)cc2F)[n-]c1 (optimized conformer: 50.57902215784538 kcal/mol)

>  <smiles>  (79) 
NS(=O)(=O)c1ccccc1-c1ccc(=NCc2c(F)cc(F)cc2F)[nH]c1

>  <score_type>  (79) 
oracle

>  <origin>  (79) 
adg

>  <m_score__min__energy>  (79) 
-9.7799999999999994

>  <m_primary>  (79) 
energy

$$$$
79:0
     RDKit          3D

 49 51  0  0  0  0  0  0  0  0999 V2000
   58.9050   32.8990   49.9260 O   0  0  0  0  0  0  0  0  0  0  0  0
   58.9740   31.7670   49.3740 C   0  0  0  0  0  0  0  0  0  0  0  0
   58.9970   30.5330   50.2240 C   0  0  0  0  0  0  0  0  0  0  0  0
   59.5220   29.3430   49.4260 C   0  0  0  0  0  0  0  0  0  0  0  0
   58.5310   28.9540   48.4270 N   0  0  0  0  0  0  0  0  0  0  0  0
   59.3060   28.7090   46.8920 S   0  0  0  0  0  0  0  0  0  0  0  0
   60.6510   29.3780   46.9070 O   0  0  0  0  0  0  0  0  0  0  0  0
   59.5100   27.2370   46.6570 O   0  0  0  0  0  0  0  0  0  0  0  0
   58.3320   29.4010   45.5970 C   0  0  0  0  0  0  0  0  0  0  0  0
   58.8570   30.4070   44.7710 C   0  0  0  0  0  0  0  0  0  0  0  0
   58.0830   30.9360   43.7320 C   0  0  0  0  0  0  0  0  0  0  0  0
   56.7870   30.4630   43.5140 C   0  0  0  0  0  0  0  0  0  0  0  0
   56.2620   29.4570   44.3310 C   0  0  0  0  0  0  0  0  0  0  0  0
   57.0340   28.9250   45.3690 C   0  0  0  0  0  0  0  0  0  0  0  0
   59.1030   31.6610   47.9500 N   0  0  0  0  0  0  0  0  0  0  0  0
   58.9990   32.7950   47.0780 C   0  0  0  0  0  0  0  0  0  0  0  0
   57.7800   33.0370   46.4260 C   0  0  0  0  0  0  0  0  0  0  0  0
   57.6530   34.1070   45.5380 C   0  0  0  0  0  0  0  0  0  0  0  0
   58.7390   34.9510   45.3000 C   0  0  0  0  0  0  0  0  0  0  0  0
   59.9500   34.7370   45.9620 C   0  0  0  0  0  0  0  0  0  0  0  0
   60.0910   33.6670   46.8620 C   0  0  0  0  0  0  0  0  0  0  0  0
   61.3160   33.5340   47.6060 N   0  0  0  0  0  0  0  0  0  0  0  0
   62.3700   32.6350   47.1240 C   0  0  0  0  0  0  0  0  0  0  0  0
   63.3000   32.2500   48.2750 C   0  0  0  0  0  0  0  0  0  0  0  0
   62.5280   32.0040   49.4320 O   0  0  0  0  0  0  0  0  0  0  0  0
   62.0330   33.2220   49.9680 C   0  0  0  0  0  0  0  0  0  0  0  0
   61.4730   34.2000   48.9050 C   0  0  0  0  0  0  0  0  0  0  0  0
   59.6510   30.7036   51.0918 H   0  0  0  0  0  0  0  0  0  0  0  0
   57.9725   30.3126   50.5582 H   0  0  0  0  0  0  0  0  0  0  0  0
   60.4595   29.6231   48.9233 H   0  0  0  0  0  0  0  0  0  0  0  0
   59.7095   28.4987   50.1057 H   0  0  0  0  0  0  0  0  0  0  0  0
   59.8779   30.7800   44.9405 H   0  0  0  0  0  0  0  0  0  0  0  0
   58.4957   31.7252   43.0863 H   0  0  0  0  0  0  0  0  0  0  0  0
   56.1788   30.8822   42.6989 H   0  0  0  0  0  0  0  0  0  0  0  0
   55.2418   29.0840   44.1574 H   0  0  0  0  0  0  0  0  0  0  0  0
   56.6210   28.1307   46.0081 H   0  0  0  0  0  0  0  0  0  0  0  0
   59.4490   30.7600   47.5490 H   0  0  0  0  0  0  0  0  0  0  0  0
   56.9189   32.3794   46.6158 H   0  0  0  0  0  0  0  0  0  0  0  0
   56.6961   34.2850   45.0254 H   0  0  0  0  0  0  0  0  0  0  0  0
   58.6409   35.7856   44.5902 H   0  0  0  0  0  0  0  0  0  0  0  0
   60.7996   35.4109   45.7776 H   0  0  0  0  0  0  0  0  0  0  0  0
   61.9107   31.7262   46.7079 H   0  0  0  0  0  0  0  0  0  0  0  0
   62.9538   33.1493   46.3464 H   0  0  0  0  0  0  0  0  0  0  0  0
   63.8612   31.3426   48.0071 H   0  0  0  0  0  0  0  0  0  0  0  0
   64.0072   33.0698   48.4694 H   0  0  0  0  0  0  0  0  0  0  0  0
   61.2268   32.9846   50.6777 H   0  0  0  0  0  0  0  0  0  0  0  0
   62.8850   33.7274   50.4461 H   0  0  0  0  0  0  0  0  0  0  0  0
   60.4931   34.5715   49.2392 H   0  0  0  0  0  0  0  0  0  0  0  0
   62.1821   35.0327   48.7877 H   0  0  0  0  0  0  0  0  0  0  0  0
  1  2  2  0
  2  3  1  0
  3  4  1  0
  4  5  1  0
  5  6  1  0
  6  7  2  0
  6  8  2  0
  6  9  1  0
  9 10  2  0
 10 11  1  0
 11 12  2  0
 12 13  1  0
 13 14  2  0
  2 15  1  0
 15 16  1  0
 16 17  2  0
 17 18  1  0
 18 19  2  0
 19 20  1  0
 20 21  2  0
 21 22  1  0
 22 23  1  0
 23 24  1  0
 24 25  1  0
 25 26  1  0
 26 27  1  0
 14  9  1  0
 21 16  1  0
 27 22  1  0
  3 28  1  0
  3 29  1  0
  4 30  1  0
  4 31  1  0
 10 32  1  0
 11 33  1  0
 12 34  1  0
 13 35  1  0
 14 36  1  0
 15 37  1  0
 17 38  1  0
 18 39  1  0
 19 40  1  0
 20 41  1  0
 23 42  1  0
 23 43  1  0
 24 44  1  0
 24 45  1  0
 26 46  1  0
 26 47  1  0
 27 48  1  0
 27 49  1  0
M  CHG  1   5  -1
M  END
>  <UniqueID>  (80) 
75

>  <SMILES>  (80) 
O=C(CC[N-]S(=O)(=O)c1ccccc1)Nc1ccccc1N1CCOCC1

>  <Energy>  (80) 
60.826107934456246

>  <Genealogy>  (80) 
O=C(CC[N-]S(=O)(=O)c1ccccc1)Nc1ccccc1N1CCOCC1 (protonated)
O=C(CC[N-]S(=O)(=O)c1ccccc1)Nc1ccccc1N1CCOCC1 (3D coordinates assigned)
O=C(CC[N-]S(=O)(=O)c1ccccc1)Nc1ccccc1N1CCOCC1 (nonaromatic ring conformer: 60.826107934456246 kcal/mol)

>  <smiles>  (80) 
O=C(CCNS(=O)(=O)c1ccccc1)Nc1ccccc1N1CCOCC1

>  <score_type>  (80) 
oracle

>  <origin>  (80) 
adg

>  <m_score__min__energy>  (80) 
-9.6300000000000008

>  <m_primary>  (80) 
energy

$$$$
80:0
     RDKit          3D

 47 49  0  0  0  0  0  0  0  0999 V2000
   60.6580   29.4100   45.3820 C   0  0  0  0  0  0  0  0  0  0  0  0
   59.8220   28.3910   46.1110 C   0  0  0  0  0  0  0  0  0  0  0  0
   60.3890   27.7000   47.1940 C   0  0  0  0  0  0  0  0  0  0  0  0
   59.6630   26.7160   47.8640 C   0  0  0  0  0  0  0  0  0  0  0  0
   58.3630   26.4090   47.4650 C   0  0  0  0  0  0  0  0  0  0  0  0
   57.7650   27.0990   46.3990 C   0  0  0  0  0  0  0  0  0  0  0  0
   56.3570   26.7660   45.9860 C   0  0  0  0  0  0  0  0  0  0  0  0
   58.4830   28.1180   45.7370 C   0  0  0  0  0  0  0  0  0  0  0  0
   57.8540   28.8260   44.6600 N   0  0  0  0  0  0  0  0  0  0  0  0
   57.0750   30.0160   44.8340 C   0  0  0  0  0  0  0  0  0  0  0  0
   55.8170   29.9370   44.8820 O   0  0  0  0  0  0  0  0  0  0  0  0
   57.7330   31.3340   44.9840 C   0  0  0  0  0  0  0  0  0  0  0  0
   58.1480   31.7350   46.2680 C   0  0  0  0  0  0  0  0  0  0  0  0
   58.8030   32.9580   46.4610 C   0  0  0  0  0  0  0  0  0  0  0  0
   59.3630   33.4200   48.0660 S   0  0  0  0  0  0  0  0  0  0  0  0
   59.1930   34.9040   48.2430 O   0  0  0  0  0  0  0  0  0  0  0  0
   58.5380   32.7180   49.1100 O   0  0  0  0  0  0  0  0  0  0  0  0
   61.0470   33.0020   48.2340 N   0  0  0  0  0  0  0  0  0  0  0  0
   61.3050   31.6130   47.8480 C   0  0  0  0  0  0  0  0  0  0  0  0
   62.7530   31.5510   47.3780 C   0  0  0  0  0  0  0  0  0  0  0  0
   63.1440   32.9910   47.0770 C   0  0  0  0  0  0  0  0  0  0  0  0
   61.9020   33.8190   47.3700 C   0  0  0  0  0  0  0  0  0  0  0  0
   59.0510   33.7910   45.3660 C   0  0  0  0  0  0  0  0  0  0  0  0
   58.6290   33.4160   44.0910 C   0  0  0  0  0  0  0  0  0  0  0  0
   57.9700   32.1980   43.8870 C   0  0  0  0  0  0  0  0  0  0  0  0
   57.4040   31.8440   42.2570 Cl  0  0  0  0  0  0  0  0  0  0  0  0
   61.1799   30.0461   46.1121 H   0  0  0  0  0  0  0  0  0  0  0  0
   61.3967   28.8944   44.7508 H   0  0  0  0  0  0  0  0  0  0  0  0
   60.0080   30.0337   44.7508 H   0  0  0  0  0  0  0  0  0  0  0  0
   61.4137   27.9368   47.5163 H   0  0  0  0  0  0  0  0  0  0  0  0
   60.1176   26.1801   48.7103 H   0  0  0  0  0  0  0  0  0  0  0  0
   57.8023   25.6209   47.9890 H   0  0  0  0  0  0  0  0  0  0  0  0
   55.7369   26.6193   46.8826 H   0  0  0  0  0  0  0  0  0  0  0  0
   55.9457   27.5916   45.3867 H   0  0  0  0  0  0  0  0  0  0  0  0
   56.3591   25.8436   45.3867 H   0  0  0  0  0  0  0  0  0  0  0  0
   57.9555   31.0798   47.1304 H   0  0  0  0  0  0  0  0  0  0  0  0
   61.3300   33.1420   49.2330 H   0  0  0  0  0  0  0  0  0  0  0  0
   61.1574   30.9462   48.7103 H   0  0  0  0  0  0  0  0  0  0  0  0
   60.6169   31.2888   47.0534 H   0  0  0  0  0  0  0  0  0  0  0  0
   63.3961   31.1349   48.1675 H   0  0  0  0  0  0  0  0  0  0  0  0
   62.8689   30.9035   46.4963 H   0  0  0  0  0  0  0  0  0  0  0  0
   63.9772   33.3061   47.7224 H   0  0  0  0  0  0  0  0  0  0  0  0
   63.4803   33.1137   46.0369 H   0  0  0  0  0  0  0  0  0  0  0  0
   62.1800   34.7511   47.8836 H   0  0  0  0  0  0  0  0  0  0  0  0
   61.3802   34.0928   46.4411 H   0  0  0  0  0  0  0  0  0  0  0  0
   59.5802   34.7444   45.5106 H   0  0  0  0  0  0  0  0  0  0  0  0
   58.8158   34.0839   43.2371 H   0  0  0  0  0  0  0  0  0  0  0  0
  1  2  1  0
  2  3  2  0
  3  4  1  0
  4  5  2  0
  5  6  1  0
  6  7  1  0
  6  8  2  0
  8  9  1  0
  9 10  1  0
 10 11  2  0
 10 12  1  0
 12 13  2  0
 13 14  1  0
 14 15  1  0
 15 16  2  0
 15 17  2  0
 15 18  1  0
 18 19  1  0
 19 20  1  0
 20 21  1  0
 21 22  1  0
 14 23  2  0
 23 24  1  0
 24 25  2  0
 25 26  1  0
  8  2  1  0
 25 12  1  0
 22 18  1  0
  1 27  1  0
  1 28  1  0
  1 29  1  0
  3 30  1  0
  4 31  1  0
  5 32  1  0
  7 33  1  0
  7 34  1  0
  7 35  1  0
 13 36  1  0
 18 37  1  0
 19 38  1  0
 19 39  1  0
 20 40  1  0
 20 41  1  0
 21 42  1  0
 21 43  1  0
 22 44  1  0
 22 45  1  0
 23 46  1  0
 24 47  1  0
M  CHG  2   9  -1  18   1
M  END
>  <UniqueID>  (81) 
76

>  <SMILES>  (81) 
Cc1cccc(C)c1[N-]C(=O)c1cc(S(=O)(=O)[NH+]2CCCC2)ccc1Cl

>  <Energy>  (81) 
59.53045562633157

>  <Genealogy>  (81) 
Cc1cccc(C)c1[N-]C(=O)c1cc(S(=O)(=O)[NH+]2CCCC2)ccc1Cl (protonated)
Cc1cccc(C)c1[N-]C(=O)c1cc(S(=O)(=O)[NH+]2CCCC2)ccc1Cl (3D coordinates assigned)
Cc1cccc(C)c1[N-]C(=O)c1cc(S(=O)(=O)[NH+]2CCCC2)ccc1Cl (nonaromatic ring conformer: 59.53045562633157 kcal/mol)

>  <smiles>  (81) 
Cc1cccc(C)c1NC(=O)c1cc(S(=O)(=O)N2CCCC2)ccc1Cl

>  <score_type>  (81) 
oracle

>  <origin>  (81) 
adg

>  <m_score__min__energy>  (81) 
-8.8800000000000008

>  <m_primary>  (81) 
energy

$$$$
81:0
     RDKit          3D

 70 74  0  0  0  0  0  0  0  0999 V2000
   53.8300   28.5230   54.3310 C   0  0  0  0  0  0  0  0  0  0  0  0
   53.4610   29.5390   53.2890 C   0  0  0  0  0  0  0  0  0  0  0  0
   52.1840   30.1250   53.3010 C   0  0  0  0  0  0  0  0  0  0  0  0
   51.8230   31.0520   52.3230 C   0  0  0  0  0  0  0  0  0  0  0  0
   52.7320   31.4070   51.3230 C   0  0  0  0  0  0  0  0  0  0  0  0
   54.0040   30.8330   51.3000 C   0  0  0  0  0  0  0  0  0  0  0  0
   54.3690   29.8810   52.2660 C   0  0  0  0  0  0  0  0  0  0  0  0
   55.6780   29.3040   52.2480 N   0  0  0  0  0  0  0  0  0  0  0  0
   56.9960   29.9450   53.1700 S   0  0  0  0  0  0  0  0  0  0  0  0
   57.4130   28.9410   54.2070 O   0  0  0  0  0  0  0  0  0  0  0  0
   56.5350   31.1910   53.8760 O   0  0  0  0  0  0  0  0  0  0  0  0
   58.3670   30.3380   52.1380 C   0  0  0  0  0  0  0  0  0  0  0  0
   58.4230   31.5710   51.4770 C   0  0  0  0  0  0  0  0  0  0  0  0
   59.5260   31.8900   50.6790 C   0  0  0  0  0  0  0  0  0  0  0  0
   60.5750   30.9690   50.5110 C   0  0  0  0  0  0  0  0  0  0  0  0
   61.7640   31.3650   49.8070 N   0  0  0  0  0  0  0  0  0  0  0  0
   62.8870   31.8890   50.5920 C   0  0  0  0  0  0  0  0  0  0  0  0
   64.1780   31.8990   49.7560 C   0  0  0  0  0  0  0  0  0  0  0  0
   63.9550   32.4990   48.4970 O   0  0  0  0  0  0  0  0  0  0  0  0
   63.0920   31.6690   47.7390 C   0  0  0  0  0  0  0  0  0  0  0  0
   61.6910   31.6270   48.3620 C   0  0  0  0  0  0  0  0  0  0  0  0
   60.4870   29.6990   51.1250 C   0  0  0  0  0  0  0  0  0  0  0  0
   61.4940   28.6980   50.9330 N   0  0  0  0  0  0  0  0  0  0  0  0
   61.2340   27.3780   50.4430 C   0  0  0  0  0  0  0  0  0  0  0  0
   61.7820   26.3840   50.9880 O   0  0  0  0  0  0  0  0  0  0  0  0
   60.3710   27.1630   49.3250 N   0  0  0  0  0  0  0  0  0  0  0  0
   59.9070   28.1480   48.3900 C   0  0  0  0  0  0  0  0  0  0  0  0
   60.5940   28.2920   47.1770 C   0  0  0  0  0  0  0  0  0  0  0  0
   60.2030   29.2610   46.2480 C   0  0  0  0  0  0  0  0  0  0  0  0
   59.1140   30.0990   46.5240 C   0  0  0  0  0  0  0  0  0  0  0  0
   58.6790   31.1190   45.5460 C   0  0  0  0  0  0  0  0  0  0  0  0
   59.2080   32.4180   45.6610 C   0  0  0  0  0  0  0  0  0  0  0  0
   58.8110   33.4260   44.7830 C   0  0  0  0  0  0  0  0  0  0  0  0
   57.8840   33.1490   43.7790 C   0  0  0  0  0  0  0  0  0  0  0  0
   57.3440   31.8670   43.6540 C   0  0  0  0  0  0  0  0  0  0  0  0
   57.7200   30.8410   44.5370 C   0  0  0  0  0  0  0  0  0  0  0  0
   56.9350   29.2580   44.3840 S   0  0  0  0  0  0  0  0  0  0  0  0
   55.2860   29.3450   44.8870 N   0  0  0  0  0  0  0  0  0  0  0  0
   56.9680   28.8080   42.9510 O   0  0  0  0  0  0  0  0  0  0  0  0
   57.6660   28.2560   45.2280 O   0  0  0  0  0  0  0  0  0  0  0  0
   58.4470   29.9830   47.7550 C   0  0  0  0  0  0  0  0  0  0  0  0
   58.8410   29.0170   48.6840 C   0  0  0  0  0  0  0  0  0  0  0  0
   59.3990   29.4060   51.9590 C   0  0  0  0  0  0  0  0  0  0  0  0
   53.6744   28.9514   55.3321 H   0  0  0  0  0  0  0  0  0  0  0  0
   53.1988   27.6300   54.2121 H   0  0  0  0  0  0  0  0  0  0  0  0
   54.8872   28.2432   54.2121 H   0  0  0  0  0  0  0  0  0  0  0  0
   51.4644   29.8511   54.0865 H   0  0  0  0  0  0  0  0  0  0  0  0
   50.8205   31.5045   52.3391 H   0  0  0  0  0  0  0  0  0  0  0  0
   52.4451   32.1390   50.5537 H   0  0  0  0  0  0  0  0  0  0  0  0
   54.7237   31.1275   50.5220 H   0  0  0  0  0  0  0  0  0  0  0  0
   57.5977   32.2901   51.5857 H   0  0  0  0  0  0  0  0  0  0  0  0
   59.5734   32.8687   50.1790 H   0  0  0  0  0  0  0  0  0  0  0  0
   62.6560   32.9159   50.9115 H   0  0  0  0  0  0  0  0  0  0  0  0
   63.0384   31.2412   51.4680 H   0  0  0  0  0  0  0  0  0  0  0  0
   64.9518   32.4663   50.2940 H   0  0  0  0  0  0  0  0  0  0  0  0
   64.5047   30.8604   49.5990 H   0  0  0  0  0  0  0  0  0  0  0  0
   63.0196   32.0638   46.7149 H   0  0  0  0  0  0  0  0  0  0  0  0
   63.5037   30.6490   47.7279 H   0  0  0  0  0  0  0  0  0  0  0  0
   61.1947   32.5946   48.1966 H   0  0  0  0  0  0  0  0  0  0  0  0
   61.1208   30.8150   47.8872 H   0  0  0  0  0  0  0  0  0  0  0  0
   61.4488   27.6366   46.9537 H   0  0  0  0  0  0  0  0  0  0  0  0
   60.7505   29.3657   45.2997 H   0  0  0  0  0  0  0  0  0  0  0  0
   59.9411   32.6402   46.4504 H   0  0  0  0  0  0  0  0  0  0  0  0
   59.2288   34.4387   44.8824 H   0  0  0  0  0  0  0  0  0  0  0  0
   57.5768   33.9432   43.0827 H   0  0  0  0  0  0  0  0  0  0  0  0
   56.6166   31.6584   42.8557 H   0  0  0  0  0  0  0  0  0  0  0  0
   55.1460   28.6240   45.6290 H   0  0  0  0  0  0  0  0  0  0  0  0
   57.6095   30.6568   47.9887 H   0  0  0  0  0  0  0  0  0  0  0  0
   58.3164   28.9358   49.6474 H   0  0  0  0  0  0  0  0  0  0  0  0
   59.3546   28.4368   52.4773 H   0  0  0  0  0  0  0  0  0  0  0  0
  1  2  1  0
  2  3  2  0
  3  4  1  0
  4  5  2  0
  5  6  1  0
  6  7  2  0
  7  8  1  0
  8  9  1  0
  9 10  2  0
  9 11  2  0
  9 12  1  0
 12 13  2  0
 13 14  1  0
 14 15  2  0
 15 16  1  0
 16 17  1  0
 17 18  1  0
 18 19  1  0
 19 20  1  0
 20 21  1  0
 15 22  1  0
 22 23  1  0
 23 24  1  0
 24 25  2  0
 24 26  1  0
 26 27  1  0
 27 28  2  0
 28 29  1  0
 29 30  2  0
 30 31  1  0
 31 32  2  0
 32 33  1  0
 33 34  2  0
 34 35  1  0
 35 36  2  0
 36 37  1  0
 37 38  1  0
 37 39  2  0
 37 40  2  0
 30 41  1  0
 41 42  2  0
 22 43  2  0
  7  2  1  0
 43 12  1  0
 21 16  1  0
 42 27  1  0
 36 31  1  0
  1 44  1  0
  1 45  1  0
  1 46  1  0
  3 47  1  0
  4 48  1  0
  5 49  1  0
  6 50  1  0
 13 51  1  0
 14 52  1  0
 17 53  1  0
 17 54  1  0
 18 55  1  0
 18 56  1  0
 20 57  1  0
 20 58  1  0
 21 59  1  0
 21 60  1  0
 28 61  1  0
 29 62  1  0
 32 63  1  0
 33 64  1  0
 34 65  1  0
 35 66  1  0
 38 67  1  0
 41 68  1  0
 42 69  1  0
 43 70  1  0
M  CHG  4   8  -1  23  -1  26  -1  38  -1
M  END
>  <UniqueID>  (82) 
77

>  <SMILES>  (82) 
Cc1ccccc1[N-]S(=O)(=O)c1ccc(N2CCOCC2)c([N-]C(=O)[N-]c2ccc(-c3ccccc3S([NH-])(=O)=O)cc2)c1

>  <Energy>  (82) 
106.30676007835326

>  <Genealogy>  (82) 
Cc1ccccc1[N-]S(=O)(=O)c1ccc(N2CCOCC2)c([N-]C(=O)[N-]c2ccc(-c3ccccc3S([NH-])(=O)=O)cc2)c1 (protonated)
Cc1ccccc1[N-]S(=O)(=O)c1ccc(N2CCOCC2)c([N-]C(=O)[N-]c2ccc(-c3ccccc3S([NH-])(=O)=O)cc2)c1 (3D coordinates assigned)
Cc1ccccc1[N-]S(=O)(=O)c1ccc(N2CCOCC2)c([N-]C(=O)[N-]c2ccc(-c3ccccc3S([NH-])(=O)=O)cc2)c1 (nonaromatic ring conformer: 106.30676007835326 kcal/mol)

>  <smiles>  (82) 
Cc1ccccc1NS(=O)(=O)c1ccc(N2CCOCC2)c(NC(=O)Nc2ccc(-c3ccccc3S(N)(=O)=O)cc2)c1

>  <score_type>  (82) 
oracle

>  <origin>  (82) 
adg

>  <m_score__min__energy>  (82) 
-15.85

>  <m_primary>  (82) 
energy

$$$$
82:0
     RDKit          3D

 56 59  0  0  0  0  0  0  0  0999 V2000
   57.9498   30.0720   46.8540 H   0  0  0  0  0  0  0  0  0  0  0  0
   58.5240   30.9460   47.1950 C   0  0  0  0  0  0  0  0  0  0  0  0
   59.1960   30.8800   48.3060 N   0  0  0  0  0  0  0  0  0  0  0  0
   58.6900   30.4530   49.5250 O   0  0  0  0  0  0  0  0  0  0  0  0
   59.0180   31.0420   50.7890 C   0  0  2  0  0  0  0  0  0  0  0  0
   58.6879   30.3366   51.5658 H   0  0  0  0  0  0  0  0  0  0  0  0
   58.3450   32.4090   50.9100 C   0  0  0  0  0  0  0  0  0  0  0  0
   57.6530   32.5747   50.0712 H   0  0  0  0  0  0  0  0  0  0  0  0
   57.7503   32.4963   51.8313 H   0  0  0  0  0  0  0  0  0  0  0  0
   59.4840   33.4140   50.8690 C   0  0  0  0  0  0  0  0  0  0  0  0
   59.6580   33.7539   49.8374 H   0  0  0  0  0  0  0  0  0  0  0  0
   59.2581   34.3069   51.4704 H   0  0  0  0  0  0  0  0  0  0  0  0
   60.6610   32.7040   51.3780 N   0  0  2  0  0  0  0  0  0  0  0  0
   60.5720   32.6760   52.4250 H   0  0  0  0  0  0  0  0  0  0  0  0
   61.9610   33.3550   51.0820 C   0  0  0  0  0  0  0  0  0  0  0  0
   61.8497   34.4343   51.2629 H   0  0  0  0  0  0  0  0  0  0  0  0
   62.6998   32.8723   51.7387 H   0  0  0  0  0  0  0  0  0  0  0  0
   62.4720   33.1670   49.6650 C   0  0  0  0  0  0  0  0  0  0  0  0
   62.0470   34.0270   48.6360 C   0  0  0  0  0  0  0  0  0  0  0  0
   61.3588   34.8542   48.8645 H   0  0  0  0  0  0  0  0  0  0  0  0
   62.4940   33.8370   47.3240 C   0  0  0  0  0  0  0  0  0  0  0  0
   62.1655   34.5208   46.5274 H   0  0  0  0  0  0  0  0  0  0  0  0
   63.3570   32.7800   47.0240 C   0  0  0  0  0  0  0  0  0  0  0  0
   63.7126   32.6351   45.9932 H   0  0  0  0  0  0  0  0  0  0  0  0
   63.7680   31.9070   48.0350 C   0  0  0  0  0  0  0  0  0  0  0  0
   64.4454   31.0733   47.7983 H   0  0  0  0  0  0  0  0  0  0  0  0
   63.3200   32.0910   49.3470 C   0  0  0  0  0  0  0  0  0  0  0  0
   63.6327   31.3900   50.1349 H   0  0  0  0  0  0  0  0  0  0  0  0
   60.5240   31.3220   50.8970 C   0  0  0  0  0  0  0  0  0  0  0  0
   61.0017   31.2139   49.9120 H   0  0  0  0  0  0  0  0  0  0  0  0
   61.0110   30.6132   51.5830 H   0  0  0  0  0  0  0  0  0  0  0  0
   58.5230   32.1840   46.3840 C   0  0  0  0  0  0  0  0  0  0  0  0
   59.3280   33.2800   46.7530 C   0  0  0  0  0  0  0  0  0  0  0  0
   59.9737   33.2080   47.6406 H   0  0  0  0  0  0  0  0  0  0  0  0
   59.3130   34.4560   46.0020 C   0  0  0  0  0  0  0  0  0  0  0  0
   59.9402   35.3081   46.3028 H   0  0  0  0  0  0  0  0  0  0  0  0
   58.5040   34.5520   44.8710 C   0  0  0  0  0  0  0  0  0  0  0  0
   58.4929   35.4808   44.2818 H   0  0  0  0  0  0  0  0  0  0  0  0
   57.7080   33.4730   44.4840 C   0  0  0  0  0  0  0  0  0  0  0  0
   57.0772   33.5544   43.5865 H   0  0  0  0  0  0  0  0  0  0  0  0
   57.7060   32.2800   45.2340 C   0  0  0  0  0  0  0  0  0  0  0  0
   56.9190   31.1720   44.8640 O   0  0  0  0  0  0  0  0  0  0  0  0
   57.3140   30.1400   43.9590 C   0  0  0  0  0  0  0  0  0  0  0  0
   56.4154   29.6457   43.5613 H   0  0  0  0  0  0  0  0  0  0  0  0
   57.8960   30.5913   43.1419 H   0  0  0  0  0  0  0  0  0  0  0  0
   58.1730   29.1170   44.6560 C   0  0  0  0  0  0  0  0  0  0  0  0
   57.5800   28.0960   45.4180 C   0  0  0  0  0  0  0  0  0  0  0  0
   56.4844   28.0375   45.4964 H   0  0  0  0  0  0  0  0  0  0  0  0
   58.3760   27.1540   46.0770 C   0  0  0  0  0  0  0  0  0  0  0  0
   57.9054   26.3514   46.6638 H   0  0  0  0  0  0  0  0  0  0  0  0
   59.7690   27.2310   45.9910 C   0  0  0  0  0  0  0  0  0  0  0  0
   60.3943   26.4883   46.5081 H   0  0  0  0  0  0  0  0  0  0  0  0
   60.3670   28.2530   45.2470 C   0  0  0  0  0  0  0  0  0  0  0  0
   61.4634   28.3149   45.1826 H   0  0  0  0  0  0  0  0  0  0  0  0
   59.5760   29.1960   44.5850 C   0  0  0  0  0  0  0  0  0  0  0  0
   60.0515   30.0021   44.0069 H   0  0  0  0  0  0  0  0  0  0  0  0
  1  2  1  0
  2  3  2  0
  3  4  1  0
  4  5  1  0
  5  6  1  1
  5  7  1  0
  7  8  1  0
  7  9  1  0
  7 10  1  0
 10 11  1  0
 10 12  1  0
 10 13  1  0
 13 14  1  1
 13 15  1  0
 15 16  1  0
 15 17  1  0
 15 18  1  0
 18 19  2  0
 19 20  1  0
 19 21  1  0
 21 22  1  0
 21 23  2  0
 23 24  1  0
 23 25  1  0
 25 26  1  0
 25 27  2  0
 27 28  1  0
 13 29  1  0
 29 30  1  0
 29 31  1  0
  2 32  1  0
 32 33  2  0
 33 34  1  0
 33 35  1  0
 35 36  1  0
 35 37  2  0
 37 38  1  0
 37 39  1  0
 39 40  1  0
 39 41  2  0
 41 42  1  0
 42 43  1  0
 43 44  1  0
 43 45  1  0
 43 46  1  0
 46 47  2  0
 47 48  1  0
 47 49  1  0
 49 50  1  0
 49 51  2  0
 51 52  1  0
 51 53  1  0
 53 54  1  0
 53 55  2  0
 55 56  1  0
 29  5  1  0
 41 32  1  0
 55 46  1  0
 27 18  1  0
M  CHG  1  13   1
M  END
>  <UniqueID>  (83) 
78

>  <SMILES>  (83) 
C(=N/O[C@@H]1CC[N@H+](Cc2ccccc2)C1)\c1ccccc1OCc1ccccc1

>  <Energy>  (83) 
69.0360609049436

>  <Genealogy>  (83) 
C(=NOC1CC[NH+](Cc2ccccc2)C1)c1ccccc1OCc1ccccc1 (protonated)
C(=NO[C@@H]1CC[N@H+](Cc2ccccc2)C1)c1ccccc1OCc1ccccc1 (chirality)
C(=N/O[C@@H]1CC[N@H+](Cc2ccccc2)C1)\c1ccccc1OCc1ccccc1 (cis-trans isomerization)
C(=N/O[C@@H]1CC[N@H+](Cc2ccccc2)C1)\c1ccccc1OCc1ccccc1 (3D coordinates assigned)
C(=N/O[C@@H]1CC[N@H+](Cc2ccccc2)C1)\c1ccccc1OCc1ccccc1 (nonaromatic ring conformer: 69.0360609049436 kcal/mol)

>  <smiles>  (83) 
C(=NOC1CCN(Cc2ccccc2)C1)c1ccccc1OCc1ccccc1

>  <score_type>  (83) 
oracle

>  <origin>  (83) 
adg

>  <m_score__min__energy>  (83) 
-7.9699999999999998

>  <m_primary>  (83) 
energy

$$$$
83:0
     RDKit          3D

 33 35  0  0  0  0  0  0  0  0999 V2000
   55.1280   29.3390   44.8360 N   0  0  0  0  0  0  0  0  0  0  0  0
   56.6840   29.3390   44.0840 S   0  0  0  0  0  0  0  0  0  0  0  0
   56.5540   28.9220   42.6450 O   0  0  0  0  0  0  0  0  0  0  0  0
   57.2530   30.7290   44.1300 O   0  0  0  0  0  0  0  0  0  0  0  0
   57.7500   28.2120   44.9350 C   0  0  0  0  0  0  0  0  0  0  0  0
   57.7180   26.8510   44.5920 C   0  0  0  0  0  0  0  0  0  0  0  0
   58.5280   25.9310   45.2620 C   0  0  0  0  0  0  0  0  0  0  0  0
   59.3840   26.3630   46.2750 C   0  0  0  0  0  0  0  0  0  0  0  0
   59.4310   27.7140   46.6230 C   0  0  0  0  0  0  0  0  0  0  0  0
   58.6140   28.6510   45.9650 C   0  0  0  0  0  0  0  0  0  0  0  0
   58.7050   30.0460   46.3060 N   0  0  0  0  0  0  0  0  0  0  0  0
   58.9040   30.5110   47.6520 C   0  0  0  0  0  0  0  0  0  0  0  0
   58.7650   29.7140   48.6180 O   0  0  0  0  0  0  0  0  0  0  0  0
   59.2450   31.9260   47.9130 C   0  0  0  0  0  0  0  0  0  0  0  0
   59.5770   32.4990   49.1400 C   0  0  0  0  0  0  0  0  0  0  0  0
   59.8050   33.8230   48.9870 N   0  0  0  0  0  0  0  0  0  0  0  0
   59.6270   34.0990   47.7070 N   0  0  0  0  0  0  0  0  0  0  0  0
   59.7600   35.3190   47.1280 C   0  0  0  0  0  0  0  0  0  0  0  0
   59.5350   35.4300   45.7490 C   0  0  0  0  0  0  0  0  0  0  0  0
   59.1820   34.2860   45.0110 C   0  0  0  0  0  0  0  0  0  0  0  0
   59.0550   33.0410   45.6490 C   0  0  0  0  0  0  0  0  0  0  0  0
   59.2890   32.9900   47.0260 C   0  0  0  0  0  0  0  0  0  0  0  0
   55.1700   28.6540   45.6230 H   0  0  0  0  0  0  0  0  0  0  0  0
   57.0497   26.5063   43.7892 H   0  0  0  0  0  0  0  0  0  0  0  0
   58.4908   24.8656   44.9907 H   0  0  0  0  0  0  0  0  0  0  0  0
   60.0230   25.6380   46.8004 H   0  0  0  0  0  0  0  0  0  0  0  0
   60.1128   28.0487   47.4187 H   0  0  0  0  0  0  0  0  0  0  0  0
   58.5550   30.7510   45.5530 H   0  0  0  0  0  0  0  0  0  0  0  0
   59.6437   31.9538   50.0930 H   0  0  0  0  0  0  0  0  0  0  0  0
   60.0376   36.1994   47.7263 H   0  0  0  0  0  0  0  0  0  0  0  0
   59.6337   36.4042   45.2479 H   0  0  0  0  0  0  0  0  0  0  0  0
   59.0044   34.3666   43.9284 H   0  0  0  0  0  0  0  0  0  0  0  0
   58.7809   32.1376   45.0845 H   0  0  0  0  0  0  0  0  0  0  0  0
  1  2  1  0
  2  3  2  0
  2  4  2  0
  2  5  1  0
  5  6  2  0
  6  7  1  0
  7  8  2  0
  8  9  1  0
  9 10  2  0
 10 11  1  0
 11 12  1  0
 12 13  2  0
 12 14  1  0
 14 15  1  0
 15 16  2  0
 16 17  1  0
 17 18  1  0
 18 19  2  0
 19 20  1  0
 20 21  2  0
 21 22  1  0
 10  5  1  0
 22 14  2  0
 22 17  1  0
  1 23  1  0
  6 24  1  0
  7 25  1  0
  8 26  1  0
  9 27  1  0
 11 28  1  0
 15 29  1  0
 18 30  1  0
 19 31  1  0
 20 32  1  0
 21 33  1  0
M  CHG  1   1  -1
M  END
>  <UniqueID>  (84) 
79

>  <SMILES>  (84) 
[NH-]S(=O)(=O)c1ccccc1NC(=O)c1cnn2ccccc12

>  <Energy>  (84) 
77.41902061025505

>  <Genealogy>  (84) 
[NH-]S(=O)(=O)c1ccccc1NC(=O)c1cnn2ccccc12 (protonated)
[NH-]S(=O)(=O)c1ccccc1NC(=O)c1cnn2ccccc12 (3D coordinates assigned)
[NH-]S(=O)(=O)c1ccccc1NC(=O)c1cnn2ccccc12 (optimized conformer: 77.41902061025505 kcal/mol)

>  <smiles>  (84) 
NS(=O)(=O)c1ccccc1NC(=O)c1cnn2ccccc12

>  <score_type>  (84) 
oracle

>  <origin>  (84) 
adg

>  <m_score__min__energy>  (84) 
-10.279999999999999

>  <m_primary>  (84) 
energy

$$$$
84:0
     RDKit          3D

 48 50  0  0  0  0  0  0  0  0999 V2000
   60.2290   34.9580   47.8880 C   0  0  0  0  0  0  0  0  0  0  0  0
   59.4130   34.1290   46.9340 C   0  0  0  0  0  0  0  0  0  0  0  0
   59.5080   34.3870   45.5570 C   0  0  0  0  0  0  0  0  0  0  0  0
   58.7440   33.6590   44.6420 C   0  0  0  0  0  0  0  0  0  0  0  0
   57.8840   32.6500   45.0850 C   0  0  0  0  0  0  0  0  0  0  0  0
   57.1150   31.9180   44.1210 N   0  0  0  0  0  0  0  0  0  0  0  0
   56.7330   30.5430   44.2460 C   0  0  0  0  0  0  0  0  0  0  0  0
   55.5310   30.2660   44.4970 O   0  0  0  0  0  0  0  0  0  0  0  0
   57.6810   29.4950   43.9890 N   0  0  0  0  0  0  0  0  0  0  0  0
   57.5300   28.1400   44.4450 C   0  0  0  0  0  0  0  0  0  0  0  0
   56.9120   27.8950   45.6820 C   0  0  0  0  0  0  0  0  0  0  0  0
   56.7280   26.5870   46.1360 C   0  0  0  0  0  0  0  0  0  0  0  0
   57.1510   25.5030   45.3560 C   0  0  0  0  0  0  0  0  0  0  0  0
   56.8970   23.8550   45.9200 S   0  0  0  0  0  0  0  0  0  0  0  0
   57.3320   22.7150   44.6280 C   0  0  0  0  0  0  0  0  0  0  0  0
   55.4550   23.6650   46.2970 O   0  0  0  0  0  0  0  0  0  0  0  0
   57.7500   23.5940   47.1300 O   0  0  0  0  0  0  0  0  0  0  0  0
   57.7410   25.7390   44.1070 C   0  0  0  0  0  0  0  0  0  0  0  0
   57.9280   27.0480   43.6530 C   0  0  0  0  0  0  0  0  0  0  0  0
   57.7660   32.4000   46.4610 C   0  0  0  0  0  0  0  0  0  0  0  0
   58.5530   33.0980   47.3840 C   0  0  0  0  0  0  0  0  0  0  0  0
   58.4320   32.7580   48.7730 N   0  0  0  0  0  0  0  0  0  0  0  0
   58.9350   31.5590   49.3750 C   0  0  0  0  0  0  0  0  0  0  0  0
   59.0340   31.5080   50.6290 O   0  0  0  0  0  0  0  0  0  0  0  0
   59.3150   30.3750   48.5690 C   0  0  0  0  0  0  0  0  0  0  0  0
   60.1620   30.4930   47.4530 C   0  0  0  0  0  0  0  0  0  0  0  0
   60.5030   29.3620   46.7110 C   0  0  0  0  0  0  0  0  0  0  0  0
   59.9870   28.1190   47.0800 C   0  0  0  0  0  0  0  0  0  0  0  0
   60.3990   26.6830   46.1650 Cl  0  0  0  0  0  0  0  0  0  0  0  0
   59.1530   28.0200   48.1490 N   0  0  0  0  0  0  0  0  0  0  0  0
   58.8050   29.1060   48.8880 C   0  0  0  0  0  0  0  0  0  0  0  0
   59.9665   34.6914   48.9224 H   0  0  0  0  0  0  0  0  0  0  0  0
   61.2986   34.7644   47.7196 H   0  0  0  0  0  0  0  0  0  0  0  0
   60.0185   36.0244   47.7196 H   0  0  0  0  0  0  0  0  0  0  0  0
   60.1907   35.1700   45.1954 H   0  0  0  0  0  0  0  0  0  0  0  0
   58.8195   33.8808   43.5672 H   0  0  0  0  0  0  0  0  0  0  0  0
   58.4960   29.7180   43.3750 H   0  0  0  0  0  0  0  0  0  0  0  0
   56.5702   28.7397   46.2981 H   0  0  0  0  0  0  0  0  0  0  0  0
   56.2491   26.4074   47.1098 H   0  0  0  0  0  0  0  0  0  0  0  0
   57.6906   21.7753   45.0735 H   0  0  0  0  0  0  0  0  0  0  0  0
   56.4482   22.5118   44.0054 H   0  0  0  0  0  0  0  0  0  0  0  0
   58.1265   23.1522   44.0054 H   0  0  0  0  0  0  0  0  0  0  0  0
   58.0581   24.8914   43.4817 H   0  0  0  0  0  0  0  0  0  0  0  0
   58.3893   27.2250   42.6702 H   0  0  0  0  0  0  0  0  0  0  0  0
   57.0473   31.6475   46.8177 H   0  0  0  0  0  0  0  0  0  0  0  0
   60.5563   31.4785   47.1646 H   0  0  0  0  0  0  0  0  0  0  0  0
   61.1727   29.4492   45.8427 H   0  0  0  0  0  0  0  0  0  0  0  0
   58.1200   28.9905   49.7409 H   0  0  0  0  0  0  0  0  0  0  0  0
  1  2  1  0
  2  3  2  0
  3  4  1  0
  4  5  2  0
  5  6  1  0
  6  7  1  0
  7  8  2  0
  7  9  1  0
  9 10  1  0
 10 11  2  0
 11 12  1  0
 12 13  2  0
 13 14  1  0
 14 15  1  0
 14 16  2  0
 14 17  2  0
 13 18  1  0
 18 19  2  0
  5 20  1  0
 20 21  2  0
 21 22  1  0
 22 23  1  0
 23 24  2  0
 23 25  1  0
 25 26  2  0
 26 27  1  0
 27 28  2  0
 28 29  1  0
 28 30  1  0
 30 31  2  0
 21  2  1  0
 31 25  1  0
 19 10  1  0
  1 32  1  0
  1 33  1  0
  1 34  1  0
  3 35  1  0
  4 36  1  0
  9 37  1  0
 11 38  1  0
 12 39  1  0
 15 40  1  0
 15 41  1  0
 15 42  1  0
 18 43  1  0
 19 44  1  0
 20 45  1  0
 26 46  1  0
 27 47  1  0
 31 48  1  0
M  CHG  2   6  -1  22  -1
M  END
>  <UniqueID>  (85) 
80

>  <SMILES>  (85) 
Cc1ccc([N-]C(=O)Nc2ccc(S(C)(=O)=O)cc2)cc1[N-]C(=O)c1ccc(Cl)nc1

>  <Energy>  (85) 
64.12660966838868

>  <Genealogy>  (85) 
Cc1ccc([N-]C(=O)Nc2ccc(S(C)(=O)=O)cc2)cc1[N-]C(=O)c1ccc(Cl)nc1 (protonated)
Cc1ccc([N-]C(=O)Nc2ccc(S(C)(=O)=O)cc2)cc1[N-]C(=O)c1ccc(Cl)nc1 (3D coordinates assigned)
Cc1ccc([N-]C(=O)Nc2ccc(S(C)(=O)=O)cc2)cc1[N-]C(=O)c1ccc(Cl)nc1 (optimized conformer: 64.12660966838868 kcal/mol)

>  <smiles>  (85) 
Cc1ccc(NC(=O)Nc2ccc(S(C)(=O)=O)cc2)cc1NC(=O)c1ccc(Cl)nc1

>  <score_type>  (85) 
oracle

>  <origin>  (85) 
adg

>  <m_score__min__energy>  (85) 
-11.84

>  <m_primary>  (85) 
energy

$$$$
85:0
     RDKit          3D

 44 48  0  0  0  0  0  0  0  0999 V2000
   58.3026   23.8546   47.0960 H   0  0  0  0  0  0  0  0  0  0  0  0
   57.8080   24.7590   46.7120 C   0  0  0  0  0  0  0  0  0  0  0  0
   56.4290   24.7550   46.4760 C   0  0  0  0  0  0  0  0  0  0  0  0
   55.8395   23.8470   46.6709 H   0  0  0  0  0  0  0  0  0  0  0  0
   55.8010   25.9070   45.9920 C   0  0  0  0  0  0  0  0  0  0  0  0
   54.7193   25.8977   45.7926 H   0  0  0  0  0  0  0  0  0  0  0  0
   56.5450   27.0770   45.7590 C   0  0  0  0  0  0  0  0  0  0  0  0
   55.9320   28.2660   45.2380 N   0  0  0  0  0  0  0  0  0  0  0  0
   56.5250   29.4070   45.0480 C   0  0  0  0  0  0  0  0  0  0  0  0
   57.3680   29.9390   45.9620 N   0  0  0  0  0  0  0  0  0  0  0  0
   57.8030   31.1670   45.5770 C   0  0  0  0  0  0  0  0  0  0  0  0
   57.2870   31.6240   44.3740 C   0  0  0  0  0  0  0  0  0  0  0  0
   56.2770   30.4470   43.7310 S   0  0  0  0  0  0  0  0  0  0  0  0
   57.7440   32.8900   43.7270 C   0  0  0  0  0  0  0  0  0  0  0  0
   58.6220   32.6781   43.0992 H   0  0  0  0  0  0  0  0  0  0  0  0
   56.9233   33.2896   43.1132 H   0  0  0  0  0  0  0  0  0  0  0  0
   58.1240   33.9400   44.7910 C   0  0  0  0  0  0  0  0  0  0  0  0
   58.7354   34.7185   44.3113 H   0  0  0  0  0  0  0  0  0  0  0  0
   57.1867   34.3449   45.2003 H   0  0  0  0  0  0  0  0  0  0  0  0
   58.9130   33.3540   45.9580 C   0  0  0  0  0  0  0  0  0  0  0  0
   59.7540   34.1900   46.7090 C   0  0  0  0  0  0  0  0  0  0  0  0
   59.8851   35.2408   46.4112 H   0  0  0  0  0  0  0  0  0  0  0  0
   60.4240   33.7010   47.8280 C   0  0  0  0  0  0  0  0  0  0  0  0
   61.2500   34.5720   48.5530 O   0  0  0  0  0  0  0  0  0  0  0  0
   62.4660   34.2190   49.1620 C   0  0  0  0  0  0  0  0  0  0  0  0
   62.7450   34.5160   50.5130 C   0  0  0  0  0  0  0  0  0  0  0  0
   62.0146   35.0798   51.1118 H   0  0  0  0  0  0  0  0  0  0  0  0
   63.9480   34.0960   51.0950 C   0  0  0  0  0  0  0  0  0  0  0  0
   64.1687   34.3476   52.1428 H   0  0  0  0  0  0  0  0  0  0  0  0
   64.8700   33.3560   50.3440 C   0  0  0  0  0  0  0  0  0  0  0  0
   65.8150   33.0265   50.8005 H   0  0  0  0  0  0  0  0  0  0  0  0
   64.5860   33.0370   49.0120 C   0  0  0  0  0  0  0  0  0  0  0  0
   65.3027   32.4440   48.4249 H   0  0  0  0  0  0  0  0  0  0  0  0
   63.3910   33.4710   48.4240 C   0  0  0  0  0  0  0  0  0  0  0  0
   63.1777   33.2221   47.3740 H   0  0  0  0  0  0  0  0  0  0  0  0
   60.2240   32.3630   48.2290 C   0  0  0  0  0  0  0  0  0  0  0  0
   60.7367   31.9773   49.1225 H   0  0  0  0  0  0  0  0  0  0  0  0
   59.3780   31.5250   47.4970 C   0  0  0  0  0  0  0  0  0  0  0  0
   59.2326   30.4806   47.8101 H   0  0  0  0  0  0  0  0  0  0  0  0
   58.7150   32.0160   46.3640 C   0  0  0  0  0  0  0  0  0  0  0  0
   57.9330   27.0610   45.9640 C   0  0  0  0  0  0  0  0  0  0  0  0
   58.5315   27.9548   45.7340 H   0  0  0  0  0  0  0  0  0  0  0  0
   58.5580   25.9120   46.4600 C   0  0  0  0  0  0  0  0  0  0  0  0
   59.6411   25.9155   46.6521 H   0  0  0  0  0  0  0  0  0  0  0  0
  1  2  1  0
  2  3  2  0
  3  4  1  0
  3  5  1  0
  5  6  1  0
  5  7  2  0
  7  8  1  0
  8  9  2  0
  9 10  1  0
 10 11  1  0
 11 12  2  0
 12 13  1  0
 12 14  1  0
 14 15  1  0
 14 16  1  0
 14 17  1  0
 17 18  1  0
 17 19  1  0
 17 20  1  0
 20 21  2  0
 21 22  1  0
 21 23  1  0
 23 24  1  0
 24 25  1  0
 25 26  2  0
 26 27  1  0
 26 28  1  0
 28 29  1  0
 28 30  2  0
 30 31  1  0
 30 32  1  0
 32 33  1  0
 32 34  2  0
 34 35  1  0
 23 36  2  0
 36 37  1  0
 36 38  1  0
 38 39  1  0
 38 40  2  0
  7 41  1  0
 41 42  1  0
 41 43  2  0
 43 44  1  0
 43  2  1  0
 13  9  1  0
 40 20  1  0
 40 11  1  0
 34 25  1  0
M  CHG  1  10  -1
M  END
>  <UniqueID>  (86) 
81

>  <SMILES>  (86) 
c1ccc(/N=c2/[n-]c3c(s2)CCc2cc(Oc4ccccc4)ccc2-3)cc1

>  <Energy>  (86) 
98.8423362608757

>  <Genealogy>  (86) 
c1ccc(N=c2[n-]c3c(s2)CCc2cc(Oc4ccccc4)ccc2-3)cc1 (protonated)
c1ccc(/N=c2/[n-]c3c(s2)CCc2cc(Oc4ccccc4)ccc2-3)cc1 (cis-trans isomerization)
c1ccc(/N=c2/[n-]c3c(s2)CCc2cc(Oc4ccccc4)ccc2-3)cc1 (3D coordinates assigned)
c1ccc(/N=c2/[n-]c3c(s2)CCc2cc(Oc4ccccc4)ccc2-3)cc1 (nonaromatic ring conformer: 98.8423362608757 kcal/mol)

>  <smiles>  (86) 
c1ccc(N=c2[nH]c3c(s2)CCc2cc(Oc4ccccc4)ccc2-3)cc1

>  <score_type>  (86) 
oracle

>  <origin>  (86) 
adg

>  <m_score__min__energy>  (86) 
-10.81

>  <m_primary>  (86) 
energy

$$$$
86:0
     RDKit          3D

 39 41  0  0  0  0  0  0  0  0999 V2000
   56.4530   27.4600   45.6250 N   0  0  0  0  0  0  0  0  0  0  0  0
   57.3860   28.1480   46.2020 C   0  0  0  0  0  0  0  0  0  0  0  0
   58.1270   27.5640   47.1820 N   0  0  0  0  0  0  0  0  0  0  0  0
   59.1350   28.2130   47.8180 C   0  0  0  0  0  0  0  0  0  0  0  0
   59.4570   29.5310   47.4720 C   0  0  0  0  0  0  0  0  0  0  0  0
   60.5630   30.2490   48.1570 C   0  0  0  0  0  0  0  0  0  0  0  0
   61.0790   29.7710   49.3750 C   0  0  0  0  0  0  0  0  0  0  0  0
   62.1200   30.4460   50.0150 C   0  0  0  0  0  0  0  0  0  0  0  0
   62.6590   31.6050   49.4500 C   0  0  0  0  0  0  0  0  0  0  0  0
   62.1520   32.0980   48.2420 C   0  0  0  0  0  0  0  0  0  0  0  0
   62.8440   33.5460   47.5170 S   0  0  0  0  0  0  0  0  0  0  0  0
   61.7360   34.2070   46.3670 N   0  0  0  0  0  0  0  0  0  0  0  0
   63.1240   34.5640   48.5860 O   0  0  0  0  0  0  0  0  0  0  0  0
   64.1360   33.2050   46.8290 O   0  0  0  0  0  0  0  0  0  0  0  0
   61.1120   31.4170   47.5950 C   0  0  0  0  0  0  0  0  0  0  0  0
   58.7080   30.1580   46.4640 C   0  0  0  0  0  0  0  0  0  0  0  0
   57.6560   29.4830   45.8160 C   0  0  0  0  0  0  0  0  0  0  0  0
   56.8790   30.1900   44.7590 C   0  0  0  0  0  0  0  0  0  0  0  0
   56.5010   29.5530   43.7380 O   0  0  0  0  0  0  0  0  0  0  0  0
   56.6520   31.6070   44.8480 N   0  0  0  0  0  0  0  0  0  0  0  0
   57.4960   32.5610   45.1380 C   0  0  0  0  0  0  0  0  0  0  0  0
   57.4890   33.0770   46.4400 C   0  0  0  0  0  0  0  0  0  0  0  0
   58.3710   34.1010   46.7910 C   0  0  0  0  0  0  0  0  0  0  0  0
   59.2270   34.6080   45.8660 N   0  0  0  0  0  0  0  0  0  0  0  0
   59.2490   34.1460   44.5890 C   0  0  0  0  0  0  0  0  0  0  0  0
   58.3850   33.1220   44.1950 C   0  0  0  0  0  0  0  0  0  0  0  0
   56.2070   27.6030   44.6190 H   0  0  0  0  0  0  0  0  0  0  0  0
   59.7020   27.7010   48.6094 H   0  0  0  0  0  0  0  0  0  0  0  0
   60.6597   28.8596   49.8261 H   0  0  0  0  0  0  0  0  0  0  0  0
   62.5173   30.0644   50.9671 H   0  0  0  0  0  0  0  0  0  0  0  0
   63.4827   32.1305   49.9552 H   0  0  0  0  0  0  0  0  0  0  0  0
   61.1570   34.9140   46.8730 H   0  0  0  0  0  0  0  0  0  0  0  0
   61.0910   33.4340   46.0880 H   0  0  0  0  0  0  0  0  0  0  0  0
   60.7214   31.7984   46.6400 H   0  0  0  0  0  0  0  0  0  0  0  0
   58.9466   31.1925   46.1760 H   0  0  0  0  0  0  0  0  0  0  0  0
   56.7882   32.6753   47.1866 H   0  0  0  0  0  0  0  0  0  0  0  0
   58.3727   34.4974   47.8171 H   0  0  0  0  0  0  0  0  0  0  0  0
   59.9506   34.5804   43.8617 H   0  0  0  0  0  0  0  0  0  0  0  0
   58.3968   32.7552   43.1580 H   0  0  0  0  0  0  0  0  0  0  0  0
  1  2  2  3
  2  3  1  0
  3  4  1  0
  4  5  2  0
  5  6  1  0
  6  7  2  0
  7  8  1  0
  8  9  2  0
  9 10  1  0
 10 11  1  0
 11 12  1  0
 11 13  2  0
 11 14  2  0
 10 15  2  0
  5 16  1  0
 16 17  2  0
 17 18  1  0
 18 19  2  0
 18 20  1  0
 20 21  2  3
 21 22  1  0
 22 23  2  0
 23 24  1  0
 24 25  1  0
 25 26  2  0
 17  2  1  0
 26 21  1  0
 15  6  1  0
  1 27  1  0
  4 28  1  0
  7 29  1  0
  8 30  1  0
  9 31  1  0
 12 32  1  0
 12 33  1  0
 15 34  1  0
 16 35  1  0
 22 36  1  0
 23 37  1  0
 25 38  1  0
 26 39  1  0
M  CHG  2   3  -1  24  -1
M  END
>  <UniqueID>  (87) 
82

>  <SMILES>  (87) 
N=c1[n-]cc(-c2cccc(S(N)(=O)=O)c2)cc1C(=O)N=c1cc[n-]cc1

>  <Energy>  (87) 
58.49327325924819

>  <Genealogy>  (87) 
N=c1[n-]cc(-c2cccc(S(N)(=O)=O)c2)cc1C(=O)N=c1cc[n-]cc1 (protonated)
N=c1[n-]cc(-c2cccc(S(N)(=O)=O)c2)cc1C(=O)N=c1cc[n-]cc1 (3D coordinates assigned)
N=c1[n-]cc(-c2cccc(S(N)(=O)=O)c2)cc1C(=O)N=c1cc[n-]cc1 (optimized conformer: 58.49327325924819 kcal/mol)

>  <smiles>  (87) 
N=c1[nH]cc(-c2cccc(S(N)(=O)=O)c2)cc1C(=O)N=c1cc[nH]cc1

>  <score_type>  (87) 
oracle

>  <origin>  (87) 
adg

>  <m_score__min__energy>  (87) 
-11.82

>  <m_primary>  (87) 
energy

$$$$
87:0
     RDKit          3D

 33 34  0  0  0  0  0  0  0  0999 V2000
   60.4070   26.2720   46.4000 C   0  0  0  0  0  0  0  0  0  0  0  0
   59.4310   27.3360   45.9900 C   0  0  0  0  0  0  0  0  0  0  0  0
   59.8920   28.5800   45.5390 C   0  0  0  0  0  0  0  0  0  0  0  0
   58.9860   29.5560   45.1180 C   0  0  0  0  0  0  0  0  0  0  0  0
   57.6080   29.2940   45.1200 C   0  0  0  0  0  0  0  0  0  0  0  0
   56.6600   30.3260   44.6560 C   0  0  0  0  0  0  0  0  0  0  0  0
   55.4410   30.0170   44.5470 O   0  0  0  0  0  0  0  0  0  0  0  0
   57.0960   31.6580   44.3030 N   0  0  0  0  0  0  0  0  0  0  0  0
   57.8670   31.8410   43.0680 C   0  0  0  0  0  0  0  0  0  0  0  0
   56.8550   32.8070   45.1940 C   0  0  0  0  0  0  0  0  0  0  0  0
   58.1500   33.3650   45.6990 C   0  0  0  0  0  0  0  0  0  0  0  0
   58.6960   34.5960   45.3600 C   0  0  0  0  0  0  0  0  0  0  0  0
   59.9000   34.8650   46.0210 C   0  0  0  0  0  0  0  0  0  0  0  0
   60.3050   33.8490   46.8760 C   0  0  0  0  0  0  0  0  0  0  0  0
   59.1630   32.6150   46.8130 S   0  0  0  0  0  0  0  0  0  0  0  0
   57.1410   28.0440   45.5660 C   0  0  0  0  0  0  0  0  0  0  0  0
   55.7740   27.7670   45.5650 O   0  0  0  0  0  0  0  0  0  0  0  0
   58.0530   27.0690   45.9910 C   0  0  0  0  0  0  0  0  0  0  0  0
   60.4539   26.2208   47.4978 H   0  0  0  0  0  0  0  0  0  0  0  0
   60.0793   25.3006   46.0013 H   0  0  0  0  0  0  0  0  0  0  0  0
   61.4030   26.5148   46.0013 H   0  0  0  0  0  0  0  0  0  0  0  0
   60.9718   28.7887   45.5164 H   0  0  0  0  0  0  0  0  0  0  0  0
   59.3554   30.5364   44.7827 H   0  0  0  0  0  0  0  0  0  0  0  0
   58.9089   32.0883   43.3195 H   0  0  0  0  0  0  0  0  0  0  0  0
   57.8424   30.9121   42.4794 H   0  0  0  0  0  0  0  0  0  0  0  0
   57.4276   32.6598   42.4794 H   0  0  0  0  0  0  0  0  0  0  0  0
   56.3172   33.5889   44.6378 H   0  0  0  0  0  0  0  0  0  0  0  0
   56.2561   32.4696   46.0527 H   0  0  0  0  0  0  0  0  0  0  0  0
   58.2296   35.2893   44.6446 H   0  0  0  0  0  0  0  0  0  0  0  0
   60.4714   35.7938   45.8767 H   0  0  0  0  0  0  0  0  0  0  0  0
   61.2175   33.8505   47.4903 H   0  0  0  0  0  0  0  0  0  0  0  0
   55.1450   28.2010   44.8990 H   0  0  0  0  0  0  0  0  0  0  0  0
   57.6867   26.0879   46.3276 H   0  0  0  0  0  0  0  0  0  0  0  0
  1  2  1  0
  2  3  2  0
  3  4  1  0
  4  5  2  0
  5  6  1  0
  6  7  2  0
  6  8  1  0
  8  9  1  0
  8 10  1  0
 10 11  1  0
 11 12  2  0
 12 13  1  0
 13 14  2  0
 14 15  1  0
  5 16  1  0
 16 17  1  0
 16 18  2  0
 18  2  1  0
 15 11  1  0
  1 19  1  0
  1 20  1  0
  1 21  1  0
  3 22  1  0
  4 23  1  0
  9 24  1  0
  9 25  1  0
  9 26  1  0
 10 27  1  0
 10 28  1  0
 12 29  1  0
 13 30  1  0
 14 31  1  0
 17 32  1  0
 18 33  1  0
M  END
>  <UniqueID>  (88) 
83

>  <SMILES>  (88) 
Cc1ccc(C(=O)N(C)Cc2cccs2)c(O)c1

>  <Energy>  (88) 
59.622766176861454

>  <Genealogy>  (88) 
Cc1ccc(C(=O)N(C)Cc2cccs2)c(O)c1 (3D coordinates assigned)
Cc1ccc(C(=O)N(C)Cc2cccs2)c(O)c1 (optimized conformer: 59.622766176861454 kcal/mol)

>  <smiles>  (88) 
Cc1ccc(C(=O)N(C)Cc2cccs2)c(O)c1

>  <score_type>  (88) 
oracle

>  <origin>  (88) 
adg

>  <m_score__min__energy>  (88) 
-7.8499999999999996

>  <m_primary>  (88) 
energy

$$$$
